data_PCOD9533661
_publ_section_title
;
Structure prediction by ZEFSAII (Michael W. Deem and Ramdas Pophale) SiO2 
 PCOD9533661
Probable space group: I B C A 
;
_chemical_formula_sum "Si O2"
_cell_formula_units_Z 104
_cell_length_a 14.587476
_cell_length_b 29.657084
_cell_length_c 9.405664
_cell_angle_alpha 90.000000
_cell_angle_beta 90.000000
_cell_angle_gamma 90.000000
_cell_volume 4069.097181
_symmetry_space_group_name_H-M "I B C A "
_symmetry_group_IT_number 73
_symmetry_cell_setting 'orthorhombic'
loop_
_space_group_symop_operation_xyz
x,y,z
-x,1/2-y,z
x,-y,1/2-z
1/2-x,y,-z
-x,-y,-z
x,1/2+y,-z
-x,y,1/2+z
1/2+x,-y,z
1/2+x,1/2+y,1/2+z
1/2-x,-y,1/2+z
1/2+x,1/2-y,-z
-x,1/2+y,1/2-z
1/2-x,1/2-y,1/2-z
1/2+x,y,1/2-z
1/2-x,1/2+y,z
x,1/2-y,1/2+z
loop_
_atom_site_type_symbol
_atom_site_label
_atom_site_fract_x
_atom_site_fract_y
_atom_site_fract_z
Si Si1 0.089277 0.570638 0.833551
Si Si2 0.949645 0.537634 0.631334
Si Si3 0.604309 0.308128 0.160183
Si Si4 0.019115 0.331092 0.604185
Si Si5 0.665142 0.282632 0.702316
Si Si6 0.250000 0.356809 0.000000
Si Si7 0.792705 0.392996 0.787077
O O1 0.034981 0.616903 0.860999
O O2 0.050126 0.553166 0.683976
O O3 0.061942 0.535499 0.959639
O O4 0.196093 0.584462 0.828697
O O5 0.922802 0.500000 0.750000
O O6 0.876252 0.577407 0.659790
O O7 0.570482 0.311683 0.321698
O O8 0.611624 0.256414 0.119576
O O9 0.689619 0.342559 0.148813
O O10 0.523706 0.327656 0.063926
O O11 0.104589 0.303030 0.670575
O O12 0.750000 0.250000 0.750000
O O13 0.692811 0.323348 0.600819
O O14 0.298227 0.387933 0.883193
#
# Coordination Sequence:
#
# PCOD9533661 Si02
#       7
#    16  16  16  16  16   8  16
#     4  12  25  51  82 113 157 205 261 328 406 481
#     4  12  29  53  82 119 157 198 260 330 415 496
#     4  12  27  45  72 108 157 210 277 326 397 465
#     4  12  25  44  71 103 154 209 265 328 400 456
#     4  12  25  43  68 106 158 210 273 336 382 459
#     4  12  26  44  76 110 158 208 280 314 400 454
#     4  12  27  48  82 111 161 208 265 326 398 484
#
# _framework density 25.558496000000002
#
# number of rings (size 3 to 8) (size 9 to 14) (size 15 to 20)
#    0.000    0.000    6.154    2.308    4.308    3.077 
#    2.769    0.000    0.000    0.000    0.000    0.000 
#    0.000    0.000    0.000    0.000    0.000    0.000 
#
# Total GULP energy -291032.960694 kJ/mol
# GULP energy per Si atom -5596.787706 kJ/mol
# Density = 2.550032 g / cm^3
# Si number density = 25.558496 Si / 1000 Ang^3
#
#
#
# Elastic Constant Matrix: (Units=GPa)
#
#
# Indices 1 2 3 4 5 6 
#
# 1 119.5097 4.9023 21.7658 -0.0003 0.0007 0.0000
# 2 4.9023 92.5748 11.6793 -0.0004 0.0008 0.0002
# 3 21.7658 11.6793 124.5874 -0.0038 0.0062 0.0003
# 4 -0.0003 -0.0004 -0.0038 56.8866 0.0007 0.0001
# 5 0.0007 0.0008 0.0062 0.0007 37.9923 0.0001
# 6 0.0000 0.0002 0.0003 0.0001 0.0001 22.0699
#
#
#
# Elastic Compliance Matrix: (Units=1/GPa)
#
#
# Indices 1 2 3 4 5 6 
#
# 1 0.008649 -0.000271 -0.001486 0.000000 0.000000 0.000000
# 2 -0.000271 0.010940 -0.000978 0.000000 0.000000 0.000000
# 3 -0.001486 -0.000978 0.008378 0.000001 -0.000001 0.000000
# 4 0.000000 0.000000 0.000001 0.017579 0.000000 0.000000
# 5 0.000000 0.000000 -0.000001 0.000000 0.026321 0.000000
# 6 0.000000 0.000000 0.000000 0.000000 0.000000 0.045311
#
#
# Mechanical properties :
#
#
# Convention : Reuss Voigt Hill
#
# Bulk Modulus (GPa) = 44.44895 45.92962 45.18929
# Shear Modulus (GPa) = 38.41852 43.27807 40.84829
#
# Velocity S-wave (km/s) = 3.88127 4.11943 4.00212
# Velocity P-wave (km/s) = 6.12491 6.37461 6.25101
#
# Compressibility (1/GPa) = 0.02249772
#
# Stress axis : x y z
#
# Youngs Moduli (GPa) = 115.61757 91.40920 119.36374
#
# Poissons Ratio (x) = 0.02473 0.17734
# Poissons Ratio (y) = 0.03128 0.11677
# Poissons Ratio (z) = 0.17177 0.08942
#
# Static dielectric constant tensor:
#      x y z
#    x 2.142760 0.000000 0.000000 
#    y 0.000000 2.036050 0.000000 
#    z 0.000000 0.000000 2.061180 
# 
# From -- ./inp_files/6682.got.cif
#   From: 2010.05.17/outbox.cif.g08.bks.cpg/sg73_4_cif.got.tgz:6682.got - 2010.06.03 17:35:07.
