data_PCOD9533721
_publ_section_title
;
Structure prediction by ZEFSAII (Michael W. Deem and Ramdas Pophale) SiO2 
 PCOD9533721
Probable space group: I B C A 
;
_chemical_formula_sum "Si O2"
_cell_formula_units_Z 48
_cell_length_a 9.318963
_cell_length_b 8.341742
_cell_length_c 24.582693
_cell_angle_alpha 90.000000
_cell_angle_beta 90.000000
_cell_angle_gamma 90.000000
_cell_volume 1910.969689
_symmetry_space_group_name_H-M "I B C A "
_symmetry_group_IT_number 73
_symmetry_cell_setting 'orthorhombic'
loop_
_space_group_symop_operation_xyz
x,y,z
-x,1/2-y,z
x,-y,1/2-z
1/2-x,y,-z
-x,-y,-z
x,1/2+y,-z
-x,y,1/2+z
1/2+x,-y,z
1/2+x,1/2+y,1/2+z
1/2-x,-y,1/2+z
1/2+x,1/2-y,-z
-x,1/2+y,1/2-z
1/2-x,1/2-y,1/2-z
1/2+x,y,1/2-z
1/2-x,1/2+y,z
x,1/2-y,1/2+z
loop_
_atom_site_type_symbol
_atom_site_label
_atom_site_fract_x
_atom_site_fract_y
_atom_site_fract_z
Si Si1 0.654547 0.182710 0.700977
Si Si2 0.864485 0.629092 0.863368
Si Si3 0.392805 0.894778 0.464132
O O1 0.500000 0.250000 0.710969
O O2 0.750000 0.250000 0.750000
O O3 0.726975 0.262059 0.647734
O O4 0.633484 0.996797 0.686697
O O5 0.852105 0.518245 0.916067
O O6 0.000000 0.750000 0.865207
O O7 0.500000 0.750000 0.446919
O O8 0.250000 0.849197 0.500000
O O9 0.500000 0.000000 0.500000
#
# Coordination Sequence:
#
# PCOD9533721 Si02
#       3
#    16  16  16
#     4  12  28  52  84 124 170 225 288 362 446 534
#     4  12  29  53  84 123 174 230 292 363 445 535
#     4  12  30  53  85 127 181 237 308 379 455 536
#
# _framework density 25.118137999999998
#
# number of rings (size 3 to 8) (size 9 to 14) (size 15 to 20)
#    0.000    0.000    0.000    7.000   18.667    2.667 
#    0.000    1.667    0.000    0.000    0.000    0.000 
#    0.000    0.000    0.000    0.000    0.000    0.000 
#
# Total GULP energy -134412.080538 kJ/mol
# GULP energy per Si atom -5600.503356 kJ/mol
# Density = 2.506097 g / cm^3
# Si number density = 25.118138 Si / 1000 Ang^3
#
#
#
# Elastic Constant Matrix: (Units=GPa)
#
#
# Indices 1 2 3 4 5 6 
#
# 1 234.0811 81.6115 72.1811 0.0000 0.0000 0.0000
# 2 81.6115 186.9511 72.2621 0.0000 0.0000 0.0000
# 3 72.1811 72.2621 139.4588 0.0000 0.0000 0.0000
# 4 0.0000 0.0000 0.0000 55.0661 0.0000 0.0000
# 5 0.0000 0.0000 0.0000 0.0000 38.8939 0.0000
# 6 0.0000 0.0000 0.0000 0.0000 0.0000 65.3978
#
#
#
# Elastic Compliance Matrix: (Units=1/GPa)
#
#
# Indices 1 2 3 4 5 6 
#
# 1 0.005445 -0.001610 -0.001984 0.000000 0.000000 0.000000
# 2 -0.001610 0.007165 -0.002879 0.000000 0.000000 0.000000
# 3 -0.001984 -0.002879 0.009689 0.000000 0.000000 0.000000
# 4 0.000000 0.000000 0.000000 0.018160 0.000000 0.000000
# 5 0.000000 0.000000 0.000000 0.000000 0.025711 0.000000
# 6 0.000000 0.000000 0.000000 0.000000 0.000000 0.015291
#
#
# Mechanical properties :
#
#
# Convention : Reuss Voigt Hill
#
# Bulk Modulus (GPa) = 106.92101 112.51116 109.71609
# Shear Modulus (GPa) = 51.26875 54.16732 52.71803
#
# Velocity S-wave (km/s) = 4.52276 4.64885 4.58624
# Velocity P-wave (km/s) = 8.36262 8.58521 8.47465
#
# Compressibility (1/GPa) = 0.00935270
#
# Stress axis : x y z
#
# Youngs Moduli (GPa) = 183.64841 139.57219 103.20674
#
# Poissons Ratio (x) = 0.22473 0.20476
# Poissons Ratio (y) = 0.29570 0.29714
# Poissons Ratio (z) = 0.36436 0.40184
#
# Static dielectric constant tensor:
#      x y z
#    x 1.885710 0.000000 0.000000 
#    y 0.000000 1.376950 0.000000 
#    z 0.000000 0.000000 2.147390 
# 
# From -- ./inp_files/8175.got.cif
#   From: 2010.05.17/outbox.cif.g08.bks.cpg/sg73_5_cif.got.tgz:8175.got - 2010.06.03 17:35:07.
