data_PCOD9533663
_publ_section_title
;
Structure prediction by ZEFSAII (Michael W. Deem and Ramdas Pophale) SiO2 
 PCOD9533663
Probable space group: I B C A 
;
_chemical_formula_sum "Si O2"
_cell_formula_units_Z 88
_cell_length_a 10.401361
_cell_length_b 29.812848
_cell_length_c 12.368308
_cell_angle_alpha 90.000000
_cell_angle_beta 90.000000
_cell_angle_gamma 90.000000
_cell_volume 3835.340506
_symmetry_space_group_name_H-M "I B C A "
_symmetry_group_IT_number 73
_symmetry_cell_setting 'orthorhombic'
loop_
_space_group_symop_operation_xyz
x,y,z
-x,1/2-y,z
x,-y,1/2-z
1/2-x,y,-z
-x,-y,-z
x,1/2+y,-z
-x,y,1/2+z
1/2+x,-y,z
1/2+x,1/2+y,1/2+z
1/2-x,-y,1/2+z
1/2+x,1/2-y,-z
-x,1/2+y,1/2-z
1/2-x,1/2-y,1/2-z
1/2+x,y,1/2-z
1/2-x,1/2+y,z
x,1/2-y,1/2+z
loop_
_atom_site_type_symbol
_atom_site_label
_atom_site_fract_x
_atom_site_fract_y
_atom_site_fract_z
Si Si1 0.652432 0.967168 0.338890
Si Si2 0.500000 0.750000 0.956809
Si Si3 0.499769 0.582830 0.023478
Si Si4 0.750000 0.306972 0.500000
Si Si5 0.750000 0.527110 0.500000
Si Si6 0.864542 0.336761 0.912240
Si Si7 0.794089 0.621156 0.814478
O O1 0.569866 0.951333 0.441497
O O2 0.698590 0.920026 0.293253
O O3 0.592228 0.000000 0.250000
O O4 0.767990 0.004340 0.105288
O O5 0.620860 0.723780 0.013603
O O6 0.428920 0.711062 0.892290
O O7 0.466736 0.629044 0.963150
O O8 0.364807 0.558530 0.038805
O O9 0.584753 0.597424 0.125471
O O10 0.744077 0.340759 0.602675
O O11 0.821554 0.356876 0.799430
O O12 0.750000 0.332349 0.000000
#
# Coordination Sequence:
#
# PCOD9533663 Si02
#       7
#    16   8  16   8   8  16  16
#     4  12  26  45  74 109 153 207 268 324 386 461
#     4  12  26  52  82 120 160 194 272 334 402 504
#     4  12  25  48  74 107 156 209 260 324 405 462
#     4  12  25  53  82 116 160 208 260 329 415 484
#     4  12  25  45  68 110 150 196 276 321 377 470
#     4  12  28  49  80 118 153 202 264 332 403 486
#     4  12  26  52  80 108 161 212 259 326 406 477
#
# _framework density 22.944507000000002
#
# number of rings (size 3 to 8) (size 9 to 14) (size 15 to 20)
#    0.000    0.000    7.273    1.636    2.545    3.636 
#    0.000    0.000    0.000    0.000    0.000    0.000 
#    0.000    0.000    0.000    0.000    0.000    0.000 
#
# Total GULP energy -245922.524092 kJ/mol
# GULP energy per Si atom -5589.148275 kJ/mol
# Density = 2.289228 g / cm^3
# Si number density = 22.944507 Si / 1000 Ang^3
#
#
#
# Elastic Constant Matrix: (Units=GPa)
#
#
# Indices 1 2 3 4 5 6 
#
# 1 113.6975 53.9645 52.2399 -0.0001 0.0000 0.0000
# 2 53.9645 167.4140 55.4087 0.0006 -0.0001 -0.0001
# 3 52.2399 55.4087 135.8353 0.0037 -0.0004 -0.0009
# 4 -0.0001 0.0006 0.0037 -79.7243 -0.0008 -0.0036
# 5 0.0000 -0.0001 -0.0004 -0.0008 19.2526 0.0003
# 6 0.0000 -0.0001 -0.0009 -0.0036 0.0003 -18.1067
#
#
#
# Elastic Compliance Matrix: (Units=1/GPa)
#
#
# Indices 1 2 3 4 5 6 
#
# 1 0.011595 -0.002615 -0.003393 0.000000 0.000000 0.000000
# 2 -0.002615 0.007495 -0.002052 0.000000 0.000000 0.000000
# 3 -0.003393 -0.002052 0.009504 0.000000 0.000000 0.000000
# 4 0.000000 0.000000 0.000000 -0.012543 -0.000001 0.000002
# 5 0.000000 0.000000 0.000000 -0.000001 0.051941 0.000001
# 6 0.000000 0.000000 0.000000 0.000002 0.000001 -0.055228
#
#
# Mechanical properties :
#
#
# Convention : Reuss Voigt Hill
#
# Bulk Modulus (GPa) = 80.15754 82.24142 81.19948
# Shear Modulus (GPa) = 151.33050 1.30656 76.31853
#
# Velocity S-wave (km/s) = 8.13008 0.75543 5.77360
# Velocity P-wave (km/s) = 11.09694 6.05660 8.93937
#
# Compressibility (1/GPa) = 0.01247543
#
# Stress axis : x y z
#
# Youngs Moduli (GPa) = 86.24312 133.42023 105.22361
#
# Poissons Ratio (x) = 0.34886 0.35699
# Poissons Ratio (y) = 0.22550 0.21589
# Poissons Ratio (z) = 0.29260 0.27375
#
# Static dielectric constant tensor:
#      x y z
#    x 1.974520 0.000000 0.000000 
#    y 0.000000 1.863060 0.000000 
#    z 0.000000 0.000000 1.851330 
# 
# From -- ./inp_files/9911.got.cif
#   From: 2010.05.17/outbox.cif.g08.bks.cpg/sg73_5_cif.got.tgz:9911.got - 2010.06.03 17:35:07.
