data_PCOD9533584
_publ_section_title
;
Structure prediction by ZEFSAII (Michael W. Deem and Ramdas Pophale) SiO2 
 PCOD9533584
Probable space group: I B C A 
;
_chemical_formula_sum "Si O2"
_cell_formula_units_Z 80
_cell_length_a 11.429526
_cell_length_b 15.066788
_cell_length_c 19.358036
_cell_angle_alpha 90.000000
_cell_angle_beta 90.000000
_cell_angle_gamma 90.000000
_cell_volume 3333.574694
_symmetry_space_group_name_H-M "I B C A "
_symmetry_group_IT_number 73
_symmetry_cell_setting 'orthorhombic'
loop_
_space_group_symop_operation_xyz
x,y,z
-x,1/2-y,z
x,-y,1/2-z
1/2-x,y,-z
-x,-y,-z
x,1/2+y,-z
-x,y,1/2+z
1/2+x,-y,z
1/2+x,1/2+y,1/2+z
1/2-x,-y,1/2+z
1/2+x,1/2-y,-z
-x,1/2+y,1/2-z
1/2-x,1/2-y,1/2-z
1/2+x,y,1/2-z
1/2-x,1/2+y,z
x,1/2-y,1/2+z
loop_
_atom_site_type_symbol
_atom_site_label
_atom_site_fract_x
_atom_site_fract_y
_atom_site_fract_z
Si Si1 0.500000 0.750000 0.318212
Si Si2 0.000000 0.250000 0.543319
Si Si3 0.562007 0.500000 0.250000
Si Si4 0.337496 0.398424 0.130869
Si Si5 0.081837 0.401701 0.639184
Si Si6 0.750000 0.697117 0.000000
Si Si7 0.787384 0.142824 0.277038
O O1 0.267985 0.615457 0.296568
O O2 0.385915 0.781921 0.275598
O O3 0.008181 0.340129 0.588831
O O4 0.125789 0.248731 0.504657
O O5 0.487022 0.429110 0.291313
O O6 0.643421 0.445145 0.199312
O O7 0.375815 0.500000 0.116695
O O8 0.261931 0.362297 0.068163
O O9 0.450407 0.333398 0.138775
O O10 0.191381 0.342915 0.664547
#
# Coordination Sequence:
#
# PCOD9533584 Si02
#       7
#     8   8   8  16  16   8  16
#     4  12  25  41  76 112 153 195 254 334 416 461
#     4  12  31  55  80 110 165 213 278 330 396 479
#     4  12  20  42  70 114 150 186 242 316 406 486
#     4  12  25  46  75 109 154 206 261 327 387 484
#     4  12  25  48  79 114 154 203 258 337 407 477
#     4  12  30  52  74 114 156 220 286 318 388 482
#     4  12  23  43  72 117 154 190 257 325 414 473
#
# _framework density 23.998263000000001
#
# number of rings (size 3 to 8) (size 9 to 14) (size 15 to 20)
#    0.000    0.000    6.000    3.600    0.000    7.200 
#    0.000    0.000    0.000    0.000    0.000    0.000 
#    0.000    0.000    0.000    0.000    0.000    0.000 
#
# Total GULP energy -223513.407320 kJ/mol
# GULP energy per Si atom -5587.835183 kJ/mol
# Density = 2.394364 g / cm^3
# Si number density = 23.998263 Si / 1000 Ang^3
#
#
#
# Elastic Constant Matrix: (Units=GPa)
#
#
# Indices 1 2 3 4 5 6 
#
# 1 148.8363 51.3377 37.5797 0.0000 0.0000 0.0000
# 2 51.3377 146.2671 20.5742 0.0000 0.0000 0.0000
# 3 37.5797 20.5742 62.5091 0.0000 0.0000 0.0000
# 4 0.0000 0.0000 0.0000 25.6541 0.0000 0.0000
# 5 0.0000 0.0000 0.0000 0.0000 40.7874 0.0000
# 6 0.0000 0.0000 0.0000 0.0000 0.0000 57.9200
#
#
#
# Elastic Compliance Matrix: (Units=1/GPa)
#
#
# Indices 1 2 3 4 5 6 
#
# 1 0.008669 -0.002422 -0.004414 0.000000 0.000000 0.000000
# 2 -0.002422 0.007845 -0.001126 0.000000 0.000000 0.000000
# 3 -0.004414 -0.001126 0.019022 0.000000 0.000000 0.000000
# 4 0.000000 0.000000 0.000000 0.038980 0.000000 0.000000
# 5 0.000000 0.000000 0.000000 0.000000 0.024517 0.000000
# 6 0.000000 0.000000 0.000000 0.000000 0.000000 0.017265
#
#
# Mechanical properties :
#
#
# Convention : Reuss Voigt Hill
#
# Bulk Modulus (GPa) = 50.99079 64.06619 57.52849
# Shear Modulus (GPa) = 36.03323 41.41369 38.72346
#
# Velocity S-wave (km/s) = 3.87911 4.15866 4.02131
# Velocity P-wave (km/s) = 6.43096 7.05786 6.75169
#
# Compressibility (1/GPa) = 0.01961139
#
# Stress axis : x y z
#
# Youngs Moduli (GPa) = 115.35772 127.46652 52.56993
#
# Poissons Ratio (x) = 0.30868 0.23207
# Poissons Ratio (y) = 0.27936 0.05921
# Poissons Ratio (z) = 0.50924 0.14356
#
# Static dielectric constant tensor:
#      x y z
#    x 2.026890 0.000000 0.000000 
#    y 0.000000 1.981110 0.000000 
#    z 0.000000 0.000000 1.908060 
# 
# From -- ./inp_files/28903.got.cif
#   From: 2010.05.17/outbox.cif.g08.bks.cpg/sg73_15_cif.got.tgz:28903.got - 2010.06.03 17:35:07.
