data_PCOD9533740
_publ_section_title
;
Structure prediction by ZEFSAII (Michael W. Deem and Ramdas Pophale) SiO2 
 PCOD9533740
Probable space group: I B C A 
;
_chemical_formula_sum "Si O2"
_cell_formula_units_Z 52
_cell_length_a 21.000000
_cell_length_b 9.000000
_cell_length_c 27.000000
_cell_angle_alpha 90.000000
_cell_angle_beta 90.000000
_cell_angle_gamma 90.000000
_cell_volume 5103.000000
_symmetry_space_group_name_H-M "I B C A "
_symmetry_group_IT_number 73
_symmetry_cell_setting 'orthorhombic'
loop_
_space_group_symop_operation_xyz
x,y,z
-x,1/2-y,z
x,-y,1/2-z
1/2-x,y,-z
-x,-y,-z
x,1/2+y,-z
-x,y,1/2+z
1/2+x,-y,z
1/2+x,1/2+y,1/2+z
1/2-x,-y,1/2+z
1/2+x,1/2-y,-z
-x,1/2+y,1/2-z
1/2-x,1/2-y,1/2-z
1/2+x,y,1/2-z
1/2-x,1/2+y,z
x,1/2-y,1/2+z
loop_
_atom_site_type_symbol
_atom_site_label
_atom_site_fract_x
_atom_site_fract_y
_atom_site_fract_z
Si Si1 0.078400 0.000000 0.750000
Si Si2 0.311118 0.488575 0.306914
Si Si3 0.500000 0.750000 0.576113
Si Si4 0.896726 0.986288 0.411055
Si Si5 0.500000 0.250000 0.693182
Si Si6 0.928548 0.978387 0.979368
Si Si7 0.322196 0.638842 0.673778
Si Si8 0.600319 0.833165 0.381658
O O1 0.121333 0.075185 0.707696
O O2 0.038756 0.134445 0.773654
O O3 0.336459 0.500000 0.250000
O O4 0.239962 0.552469 0.307854
O O5 0.314197 0.314977 0.320275
O O6 0.345113 0.587488 0.349339
O O7 0.537440 0.891192 0.600260
O O8 0.559731 0.682515 0.545207
O O9 0.840975 0.901191 0.382385
O O10 0.888563 0.004331 0.470517
O O11 0.895663 0.155661 0.390707
O O12 0.458069 0.151879 0.655981
O O13 0.910203 0.088311 0.934779
O O14 0.000000 0.000000 0.000000
#
# Coordination Sequence:
#
# PCOD9533740 Si02
#       8
#     8  16   8  16   8  16  16  16
#     4  12  28  44  70 104 152 188 230 302 358 432
#     4  12  27  48  77  98 136 186 250 296 352 424
#     4  10  20  36  62 100 142 190 225 279 344 428
#     4  11  22  41  67 102 142 179 237 286 356 427
#     4  12  26  44  66 106 150 188 233 289 370 428
#     4  10  21  39  66 101 142 189 229 287 356 437
#     4  12  26  47  72 102 136 186 241 297 358 420
#     4  12  25  44  70 103 143 191 232 293 357 429
#
# _framework density 10.190084000000001
#
# number of rings (size 3 to 8) (size 9 to 14) (size 15 to 20)
#    0.000    0.615    2.308    6.923    3.231    1.231 
#    0.000    0.769    0.000    3.692    0.000    0.000 
#    0.000    0.000    0.000    0.000    0.000    0.000 
#
# Total GULP energy -290154.499482 kJ/mol
# GULP energy per Si atom -5579.894221 kJ/mol
# Density = 1.016689 g / cm^3
# Si number density = 10.190084 Si / 1000 Ang^3
#
#
#
# Elastic Constant Matrix: (Units=GPa)
#
#
# Indices 1 2 3 4 5 6 
#
# 1 66.7550 53.6372 51.3570 0.0000 0.0000 0.0000
# 2 53.6372 192.3829 68.7942 0.0000 0.0000 0.0000
# 3 51.3570 68.7942 150.2633 0.0000 0.0000 0.0000
# 4 0.0000 0.0000 0.0000 21.1526 0.0000 0.0000
# 5 0.0000 0.0000 0.0000 0.0000 28.5347 0.0000
# 6 0.0000 0.0000 0.0000 0.0000 0.0000 36.8802
#
#
#
# Elastic Compliance Matrix: (Units=1/GPa)
#
#
# Indices 1 2 3 4 5 6 
#
# 1 0.022956 -0.004298 -0.005878 0.000000 0.000000 0.000000
# 2 -0.004298 0.007020 -0.001745 0.000000 0.000000 0.000000
# 3 -0.005878 -0.001745 0.009463 0.000000 0.000000 0.000000
# 4 0.000000 0.000000 0.000000 0.047276 0.000000 0.000000
# 5 0.000000 0.000000 0.000000 0.000000 0.035045 0.000000
# 6 0.000000 0.000000 0.000000 0.000000 0.000000 0.027115
#
#
# Mechanical properties :
#
#
# Convention : Reuss Voigt Hill
#
# Bulk Modulus (GPa) = 64.11685 84.10867 74.11276
# Shear Modulus (GPa) = 28.10311 33.02101 30.56206
#
# Velocity S-wave (km/s) = 3.71744 4.02960 3.87667
# Velocity P-wave (km/s) = 7.06785 7.93787 7.51546
#
# Compressibility (1/GPa) = 0.01559653
#
# Stress axis : x y z
#
# Youngs Moduli (GPa) = 43.56162 142.44297 105.67599
#
# Poissons Ratio (x) = 0.61226 0.62117
# Poissons Ratio (y) = 0.18724 0.18441
# Poissons Ratio (z) = 0.25606 0.24856
#
# Static dielectric constant tensor:
#      x y z
#    x 1.810070 0.000000 0.000000 
#    y 0.000000 1.779240 0.000000 
#    z 0.000000 0.000000 1.809670 
# 
# From -- ./inp_files/32697.got.cif
#   From: 2010.05.17/outbox.ucp.g08.bks.cvg/sg73_17_cif.got.tgz:32697.got - 2010.06.11 16:36:03.
