data_PCOD9533038
_publ_section_title
;
Structure prediction by ZEFSAII (Michael W. Deem and Ramdas Pophale) SiO2 
 PCOD9533038
Probable space group: I B C A 
;
_chemical_formula_sum "Si O2"
_cell_formula_units_Z 64
_cell_length_a 8.470030
_cell_length_b 31.639580
_cell_length_c 9.537633
_cell_angle_alpha 90.000000
_cell_angle_beta 90.000000
_cell_angle_gamma 90.000000
_cell_volume 2555.973022
_symmetry_space_group_name_H-M "I B C A "
_symmetry_group_IT_number 73
_symmetry_cell_setting 'orthorhombic'
loop_
_space_group_symop_operation_xyz
x,y,z
-x,1/2-y,z
x,-y,1/2-z
1/2-x,y,-z
-x,-y,-z
x,1/2+y,-z
-x,y,1/2+z
1/2+x,-y,z
1/2+x,1/2+y,1/2+z
1/2-x,-y,1/2+z
1/2+x,1/2-y,-z
-x,1/2+y,1/2-z
1/2-x,1/2-y,1/2-z
1/2+x,y,1/2-z
1/2-x,1/2+y,z
x,1/2-y,1/2+z
loop_
_atom_site_type_symbol
_atom_site_label
_atom_site_fract_x
_atom_site_fract_y
_atom_site_fract_z
Si Si1 0.932471 0.904202 0.849198
Si Si2 0.153558 0.157209 0.807778
Si Si3 0.622550 0.211832 0.123312
Si Si4 0.577510 0.041932 0.069421
O O1 0.777749 0.876838 0.856139
O O2 0.919168 0.943043 0.733173
O O3 0.066230 0.870289 0.810305
O O4 0.973668 0.922672 0.997677
O O5 0.264621 0.195369 0.749077
O O6 0.009379 0.175045 0.900753
O O7 0.500000 0.250000 0.151097
O O8 0.750000 0.219724 0.000000
O O9 0.750000 0.043792 0.000000
O O10 0.500000 0.000000 0.000000
#
# Coordination Sequence:
#
# PCOD9533038 Si02
#       4
#    16  16  16  16
#     4  11  25  47  77 110 153 208 262 322 382 466
#     4  10  25  47  77 103 155 197 257 321 389 460
#     4  11  26  49  75 113 150 202 256 323 401 475
#     4  12  28  48  73 114 158 204 263 321 393 464
#
# _framework density 25.039387999999999
#
# number of rings (size 3 to 8) (size 9 to 14) (size 15 to 20)
#    0.000    1.000    2.500    1.500   10.500    7.000 
#    4.500    0.000    0.000    0.000    0.000    0.000 
#    0.000    0.000    0.000    0.000    0.000    0.000 
#
# Total GULP energy -178599.612411 kJ/mol
# GULP energy per Si atom -5581.237888 kJ/mol
# Density = 2.498240 g / cm^3
# Si number density = 25.039388 Si / 1000 Ang^3
#
#
#
# Elastic Constant Matrix: (Units=GPa)
#
#
# Indices 1 2 3 4 5 6 
#
# 1 214.8624 61.5074 38.8063 0.0001 0.0001 0.0005
# 2 61.5074 122.4424 15.3798 0.0001 0.0004 0.0013
# 3 38.8063 15.3798 89.6938 0.0004 0.0008 0.0023
# 4 0.0001 0.0001 0.0004 -4.9363 0.0006 0.0012
# 5 0.0001 0.0004 0.0008 0.0006 27.5562 0.0006
# 6 0.0005 0.0013 0.0023 0.0012 0.0006 60.4239
#
#
#
# Elastic Compliance Matrix: (Units=1/GPa)
#
#
# Indices 1 2 3 4 5 6 
#
# 1 0.005782 -0.002647 -0.002048 0.000000 0.000000 0.000000
# 2 -0.002647 0.009559 -0.000494 0.000000 0.000000 0.000000
# 3 -0.002048 -0.000494 0.012120 0.000001 0.000000 0.000000
# 4 0.000000 0.000000 0.000001 -0.202581 0.000004 0.000004
# 5 0.000000 0.000000 0.000000 0.000004 0.036289 0.000000
# 6 0.000000 0.000000 0.000000 0.000004 0.000000 0.016550
#
#
# Mechanical properties :
#
#
# Convention : Reuss Voigt Hill
#
# Bulk Modulus (GPa) = 58.53699 73.15395 65.84547
# Shear Modulus (GPa) = -47.07646 37.36243 -4.85701
#
# Velocity S-wave (km/s) = -4.34071 3.86702 -1.39426
# Velocity P-wave (km/s) = 1.30140 7.01551 4.87462
#
# Compressibility (1/GPa) = 0.01708321
#
# Stress axis : x y z
#
# Youngs Moduli (GPa) = 172.95802 104.61441 82.51098
#
# Poissons Ratio (x) = 0.27693 0.16895
# Poissons Ratio (y) = 0.45785 0.04074
# Poissons Ratio (z) = 0.35414 0.05165
#
# Static dielectric constant tensor:
#      x y z
#    x -1.601280 0.000070 0.000040 
#    y 0.000070 2.095160 0.000000 
#    z 0.000040 0.000000 1.975280 
# 
# From -- ./inp_files/3992.got.cif
#   From: 2010.05.17/outbox.cif.g08.bks.cpg/sg73_2_cif.got.tgz:3992.got - 2010.06.03 17:35:07.
