data_PCOD9533572
_publ_section_title
;
Structure prediction by ZEFSAII (Michael W. Deem and Ramdas Pophale) SiO2 
 PCOD9533572
Probable space group: I B C A 
;
_chemical_formula_sum "Si O2"
_cell_formula_units_Z 56
_cell_length_a 16.667319
_cell_length_b 15.431479
_cell_length_c 8.323357
_cell_angle_alpha 90.000000
_cell_angle_beta 90.000000
_cell_angle_gamma 90.000000
_cell_volume 2140.778933
_symmetry_space_group_name_H-M "I B C A "
_symmetry_group_IT_number 73
_symmetry_cell_setting 'orthorhombic'
loop_
_space_group_symop_operation_xyz
x,y,z
-x,1/2-y,z
x,-y,1/2-z
1/2-x,y,-z
-x,-y,-z
x,1/2+y,-z
-x,y,1/2+z
1/2+x,-y,z
1/2+x,1/2+y,1/2+z
1/2-x,-y,1/2+z
1/2+x,1/2-y,-z
-x,1/2+y,1/2-z
1/2-x,1/2-y,1/2-z
1/2+x,y,1/2-z
1/2-x,1/2+y,z
x,1/2-y,1/2+z
loop_
_atom_site_type_symbol
_atom_site_label
_atom_site_fract_x
_atom_site_fract_y
_atom_site_fract_z
Si Si1 0.107401 0.500000 0.250000
Si Si2 0.711175 0.352054 0.166125
Si Si3 0.490168 0.850302 0.073019
Si Si4 0.624243 0.823335 0.267066
O O1 0.166702 0.558267 0.146473
O O2 0.052919 0.569586 0.341558
O O3 0.649741 0.278809 0.231983
O O4 0.786930 0.363074 0.285698
O O5 0.750000 0.319396 0.000000
O O6 0.500000 0.750000 0.133618
O O7 0.584566 0.865682 0.107590
O O8 0.440621 0.840739 0.907858
#
# Coordination Sequence:
#
# PCOD9533572 Si02
#       4
#     8  16  16  16
#     4  12  30  48  82 122 162 210 272 334 402 476
#     4  11  27  51  80 120 157 217 266 335 399 487
#     4  12  26  51  78 118 160 213 264 333 398 477
#     4  11  27  51  85 111 165 213 267 330 411 471
#
# _framework density 26.158702999999999
#
# number of rings (size 3 to 8) (size 9 to 14) (size 15 to 20)
#    0.000    0.571    2.857    2.571   12.000    2.286 
#    0.000    0.000    0.000    0.000    0.000    0.000 
#    0.000    0.000    0.000    0.000    0.000    0.000 
#
# Total GULP energy -156112.002246 kJ/mol
# GULP energy per Si atom -5575.428652 kJ/mol
# Density = 2.609916 g / cm^3
# Si number density = 26.158703 Si / 1000 Ang^3
#
#
#
# Elastic Constant Matrix: (Units=GPa)
#
#
# Indices 1 2 3 4 5 6 
#
# 1 218.7293 89.4509 92.4440 0.0000 0.0000 0.0000
# 2 89.4509 157.8043 69.1224 0.0000 0.0000 0.0000
# 3 92.4440 69.1224 107.6681 0.0000 0.0000 0.0000
# 4 0.0000 0.0000 0.0000 34.3247 0.0000 0.0000
# 5 0.0000 0.0000 0.0000 0.0000 38.1385 0.0000
# 6 0.0000 0.0000 0.0000 0.0000 0.0000 61.9998
#
#
#
# Elastic Compliance Matrix: (Units=1/GPa)
#
#
# Indices 1 2 3 4 5 6 
#
# 1 0.007612 -0.002020 -0.005239 0.000000 0.000000 0.000000
# 2 -0.002020 0.009352 -0.004270 0.000000 0.000000 0.000000
# 3 -0.005239 -0.004270 0.016527 0.000000 0.000000 0.000000
# 4 0.000000 0.000000 0.000000 0.029134 0.000000 0.000000
# 5 0.000000 0.000000 0.000000 0.000000 0.026220 0.000000
# 6 0.000000 0.000000 0.000000 0.000000 0.000000 0.016129
#
#
# Mechanical properties :
#
#
# Convention : Reuss Voigt Hill
#
# Bulk Modulus (GPa) = 95.83936 109.58180 102.71058
# Shear Modulus (GPa) = 38.02000 42.43823 40.22912
#
# Velocity S-wave (km/s) = 3.81653 4.03219 3.92584
# Velocity P-wave (km/s) = 7.49256 7.97873 7.73946
#
# Compressibility (1/GPa) = 0.01043413
#
# Stress axis : x y z
#
# Youngs Moduli (GPa) = 131.36802 106.92570 60.50707
#
# Poissons Ratio (x) = 0.21601 0.31699
# Poissons Ratio (y) = 0.26539 0.25834
# Poissons Ratio (z) = 0.68822 0.45653
#
# Static dielectric constant tensor:
#      x y z
#    x 2.229500 0.000000 0.000000 
#    y 0.000000 2.028160 0.000000 
#    z 0.000000 0.000000 2.155170 
# 
# From -- ./inp_files/5115.got.cif
#   From: 2010.05.17/outbox.cif.g08.bks.cpg/sg73_3_cif.got.tgz:5115.got - 2010.06.03 17:35:07.
