data_PCOD9533732
_publ_section_title
;
Structure prediction by ZEFSAII (Michael W. Deem and Ramdas Pophale) SiO2 
 PCOD9533732
Probable space group: I B C A 
;
_chemical_formula_sum "Si O2"
_cell_formula_units_Z 60
_cell_length_a 9.000000
_cell_length_b 24.000000
_cell_length_c 27.000000
_cell_angle_alpha 90.000000
_cell_angle_beta 90.000000
_cell_angle_gamma 90.000000
_cell_volume 5832.000000
_symmetry_space_group_name_H-M "I B C A "
_symmetry_group_IT_number 73
_symmetry_cell_setting 'orthorhombic'
loop_
_space_group_symop_operation_xyz
x,y,z
-x,1/2-y,z
x,-y,1/2-z
1/2-x,y,-z
-x,-y,-z
x,1/2+y,-z
-x,y,1/2+z
1/2+x,-y,z
1/2+x,1/2+y,1/2+z
1/2-x,-y,1/2+z
1/2+x,1/2-y,-z
-x,1/2+y,1/2-z
1/2-x,1/2-y,1/2-z
1/2+x,y,1/2-z
1/2-x,1/2+y,z
x,1/2-y,1/2+z
loop_
_atom_site_type_symbol
_atom_site_label
_atom_site_fract_x
_atom_site_fract_y
_atom_site_fract_z
Si Si1 0.474332 0.500000 0.250000
Si Si2 0.207401 0.945826 0.111220
Si Si3 0.344467 0.275723 0.632412
Si Si4 0.121879 0.706266 0.245329
Si Si5 0.849465 0.873712 0.894020
Si Si6 0.271917 0.041861 0.184769
Si Si7 0.333257 0.337761 0.846535
Si Si8 0.500482 0.525205 0.054598
O O1 0.576742 0.462768 0.214521
O O2 0.367388 0.458039 0.278642
O O3 0.218696 0.882722 0.130143
O O4 0.334236 0.956310 0.069924
O O5 0.259576 0.982664 0.157341
O O6 0.059264 0.975558 0.090717
O O7 0.500000 0.250000 0.613285
O O8 0.387520 0.304221 0.686243
O O9 0.258149 0.320614 0.598428
O O10 0.232772 0.223518 0.641887
O O11 0.250000 0.750000 0.250000
O O12 0.146627 0.659031 0.286560
O O13 0.000000 0.750000 0.263299
O O14 0.758307 0.910726 0.854620
O O15 0.005296 0.851158 0.870600
O O16 0.897786 0.919765 0.935428
O O17 0.500000 0.500000 0.000000
#
# Coordination Sequence:
#
# PCOD9533732 Si02
#       8
#     8  16  16  16  16  16  16  16
#     4  10  20  34  52  76 116 160 198 244 292 348
#     4  10  21  37  59  86 116 152 195 250 305 366
#     4  10  21  34  51  83 119 162 208 243 283 338
#     4   9  17  30  47  70 108 155 204 239 263 314
#     4  10  21  36  56  80 114 157 196 247 306 361
#     4  10  21  36  51  79 114 155 203 240 293 354
#     4  10  19  34  54  79 115 159 202 245 291 344
#     4  10  21  39  63  92 118 145 194 255 326 394
#
# _framework density 10.288066000000001
#
# number of rings (size 3 to 8) (size 9 to 14) (size 15 to 20)
#    0.000    2.133    0.000    4.800    0.000    6.400 
#    0.000    2.667    0.000    0.000    0.000   35.467 
#    0.000    0.000    0.000    0.000    0.000    0.000 
#
# Total GULP energy -334429.013363 kJ/mol
# GULP energy per Si atom -5573.816889 kJ/mol
# Density = 1.026465 g / cm^3
# Si number density = 10.288066 Si / 1000 Ang^3
#
#
#
# Elastic Constant Matrix: (Units=GPa)
#
#
# Indices 1 2 3 4 5 6 
#
# 1 68.1310 20.8186 5.2005 0.0000 0.0000 0.0000
# 2 20.8186 107.6528 31.9653 0.0000 0.0000 0.0000
# 3 5.2005 31.9653 71.9780 0.0000 0.0000 0.0000
# 4 0.0000 0.0000 0.0000 10.1167 0.0000 0.0000
# 5 0.0000 0.0000 0.0000 0.0000 27.1694 0.0000
# 6 0.0000 0.0000 0.0000 0.0000 0.0000 27.3378
#
#
#
# Elastic Compliance Matrix: (Units=1/GPa)
#
#
# Indices 1 2 3 4 5 6 
#
# 1 0.015603 -0.003090 0.000245 0.000000 0.000000 0.000000
# 2 -0.003090 0.011312 -0.004800 0.000000 0.000000 0.000000
# 3 0.000245 -0.004800 0.016007 0.000000 0.000000 0.000000
# 4 0.000000 0.000000 0.000000 0.098846 0.000000 0.000000
# 5 0.000000 0.000000 0.000000 0.000000 0.036806 0.000000
# 6 0.000000 0.000000 0.000000 0.000000 0.000000 0.036579
#
#
# Mechanical properties :
#
#
# Convention : Reuss Voigt Hill
#
# Bulk Modulus (GPa) = 36.19076 40.41449 38.30263
# Shear Modulus (GPa) = 20.86324 25.57662 23.21993
#
# Velocity S-wave (km/s) = 3.18772 3.52948 3.36294
# Velocity P-wave (km/s) = 5.58351 6.02443 5.80816
#
# Compressibility (1/GPa) = 0.02763136
#
# Stress axis : x y z
#
# Youngs Moduli (GPa) = 64.08960 88.40090 62.47156
#
# Poissons Ratio (x) = 0.27317 -0.01531
# Poissons Ratio (y) = 0.19805 0.29989
# Poissons Ratio (z) = -0.01570 0.42436
#
# Static dielectric constant tensor:
#      x y z
#    x 1.777190 0.000000 0.000000 
#    y 0.000000 1.751070 0.000000 
#    z 0.000000 0.000000 1.747570 
# 
# From -- ./inp_files/31416.got.cif
#   From: 2010.05.17/outbox.ucp.g08.bks.cvg/sg73_16_cif.got.tgz:31416.got - 2010.06.11 16:36:03.
