data_PCOD9533379
_publ_section_title
;
Structure prediction by ZEFSAII (Michael W. Deem and Ramdas Pophale) SiO2 
 PCOD9533379
Probable space group: I B C A 
;
_chemical_formula_sum "Si O2"
_cell_formula_units_Z 112
_cell_length_a 11.919302
_cell_length_b 31.517491
_cell_length_c 13.387408
_cell_angle_alpha 90.000000
_cell_angle_beta 90.000000
_cell_angle_gamma 90.000000
_cell_volume 5029.200621
_symmetry_space_group_name_H-M "I B C A "
_symmetry_group_IT_number 73
_symmetry_cell_setting 'orthorhombic'
loop_
_space_group_symop_operation_xyz
x,y,z
-x,1/2-y,z
x,-y,1/2-z
1/2-x,y,-z
-x,-y,-z
x,1/2+y,-z
-x,y,1/2+z
1/2+x,-y,z
1/2+x,1/2+y,1/2+z
1/2-x,-y,1/2+z
1/2+x,1/2-y,-z
-x,1/2+y,1/2-z
1/2-x,1/2-y,1/2-z
1/2+x,y,1/2-z
1/2-x,1/2+y,z
x,1/2-y,1/2+z
loop_
_atom_site_type_symbol
_atom_site_label
_atom_site_fract_x
_atom_site_fract_y
_atom_site_fract_z
Si Si1 0.335872 0.867776 0.630031
Si Si2 0.897047 0.323274 0.855104
Si Si3 0.862536 0.962502 0.955542
Si Si4 0.000000 0.250000 0.983640
Si Si5 0.422848 0.322871 0.882265
Si Si6 0.087502 0.108342 0.338230
Si Si7 0.485218 0.023998 0.162417
Si Si8 0.750000 0.617850 0.000000
O O1 0.220192 0.843369 0.609155
O O2 0.340185 0.914741 0.582516
O O3 0.451968 0.843241 0.606718
O O4 0.338647 0.872721 0.749967
O O5 0.898746 0.316501 0.735190
O O6 0.926657 0.280562 0.913447
O O7 0.998012 0.356838 0.873688
O O8 0.917595 0.991161 0.869977
O O9 0.750000 0.982297 0.000000
O O10 0.936214 0.962396 0.055784
O O11 0.074393 0.279496 0.055543
O O12 0.330171 0.353302 0.931062
O O13 0.022805 0.068648 0.293042
O O14 0.166511 0.093057 0.427725
O O15 0.416699 0.000000 0.250000
#
# Coordination Sequence:
#
# PCOD9533379 Si02
#       8
#    16  16  16   8  16  16  16   8
#     4  11  24  47  73 105 143 190 247 304 364 450
#     4  11  25  48  74 105 145 192 247 312 369 457
#     4  11  25  43  69 105 143 188 244 296 360 432
#     4  12  26  48  70 106 142 190 242 310 380 440
#     4  11  26  44  71 107 139 190 239 298 381 442
#     4  11  23  45  72 103 144 196 243 293 382 434
#     4  11  24  46  68 106 149 189 241 307 355 438
#     4  12  22  46  70 104 144 192 236 298 366 458
#
# _framework density 22.269940999999999
#
# number of rings (size 3 to 8) (size 9 to 14) (size 15 to 20)
#    0.000    0.857    4.286    2.143    3.000    1.714 
#    2.571    2.857    0.000    0.000    0.000    0.000 
#    0.000    0.000    0.000    0.000    0.000    0.000 
#
# Total GULP energy -313040.892384 kJ/mol
# GULP energy per Si atom -5590.015935 kJ/mol
# Density = 2.221925 g / cm^3
# Si number density = 22.269941 Si / 1000 Ang^3
#
#
#
# Elastic Constant Matrix: (Units=GPa)
#
#
# Indices 1 2 3 4 5 6 
#
# 1 76.6341 17.4810 17.3168 0.0010 -0.0001 0.0001
# 2 17.4810 78.9238 12.8880 0.0006 -0.0001 0.0001
# 3 17.3168 12.8880 100.7838 0.0026 -0.0004 0.0002
# 4 0.0010 0.0006 0.0026 115.2402 -0.0009 -0.0005
# 5 -0.0001 -0.0001 -0.0004 -0.0009 32.9718 -0.0001
# 6 0.0001 0.0001 0.0002 -0.0005 -0.0001 29.9179
#
#
#
# Elastic Compliance Matrix: (Units=1/GPa)
#
#
# Indices 1 2 3 4 5 6 
#
# 1 0.014156 -0.002797 -0.002075 0.000000 0.000000 0.000000
# 2 -0.002797 0.013493 -0.001245 0.000000 0.000000 0.000000
# 3 -0.002075 -0.001245 0.010438 0.000000 0.000000 0.000000
# 4 0.000000 0.000000 0.000000 0.008678 0.000000 0.000000
# 5 0.000000 0.000000 0.000000 0.000000 0.030329 0.000000
# 6 0.000000 0.000000 0.000000 0.000000 0.000000 0.033425
#
#
# Mechanical properties :
#
#
# Convention : Reuss Voigt Hill
#
# Bulk Modulus (GPa) = 38.67811 39.07927 38.87869
# Shear Modulus (GPa) = 38.06084 49.53638 43.79861
#
# Velocity S-wave (km/s) = 4.13857 4.72143 4.43958
# Velocity P-wave (km/s) = 6.34371 6.87813 6.61631
#
# Compressibility (1/GPa) = 0.02585442
#
# Stress axis : x y z
#
# Youngs Moduli (GPa) = 70.64267 74.11154 95.80470
#
# Poissons Ratio (x) = 0.20726 0.19876
# Poissons Ratio (y) = 0.19756 0.11927
# Poissons Ratio (z) = 0.14656 0.09227
#
# Static dielectric constant tensor:
#      x y z
#    x 1.879990 0.000000 0.000000 
#    y 0.000000 1.780190 0.000000 
#    z 0.000000 0.000000 2.067940 
# 
# From -- ./inp_files/16377.got.cif
#   From: 2010.05.17/outbox.cif.g08.bks.cpg/sg73_9_cif.got.tgz:16377.got - 2010.06.03 17:35:07.
