data_PCOD9533303
_publ_section_title
;
Structure prediction by ZEFSAII (Michael W. Deem and Ramdas Pophale) SiO2 
 PCOD9533303
Probable space group: I B C A 
;
_chemical_formula_sum "Si O2"
_cell_formula_units_Z 64
_cell_length_a 15.449058
_cell_length_b 10.777675
_cell_length_c 14.476117
_cell_angle_alpha 90.000000
_cell_angle_beta 90.000000
_cell_angle_gamma 90.000000
_cell_volume 2410.344792
_symmetry_space_group_name_H-M "I B C A "
_symmetry_group_IT_number 73
_symmetry_cell_setting 'orthorhombic'
loop_
_space_group_symop_operation_xyz
x,y,z
-x,1/2-y,z
x,-y,1/2-z
1/2-x,y,-z
-x,-y,-z
x,1/2+y,-z
-x,y,1/2+z
1/2+x,-y,z
1/2+x,1/2+y,1/2+z
1/2-x,-y,1/2+z
1/2+x,1/2-y,-z
-x,1/2+y,1/2-z
1/2-x,1/2-y,1/2-z
1/2+x,y,1/2-z
1/2-x,1/2+y,z
x,1/2-y,1/2+z
loop_
_atom_site_type_symbol
_atom_site_label
_atom_site_fract_x
_atom_site_fract_y
_atom_site_fract_z
Si Si1 0.592865 0.283576 0.353755
Si Si2 0.165722 0.798364 0.539534
Si Si3 0.159712 0.379343 0.806363
Si Si4 0.963172 0.459174 0.851920
O O1 0.500000 0.250000 0.311356
O O2 0.612954 0.210198 0.445474
O O3 0.653579 0.228912 0.272483
O O4 0.573126 0.417687 0.400102
O O5 0.250000 0.867828 0.500000
O O6 0.200795 0.679418 0.600013
O O7 0.095697 0.852489 0.609075
O O8 0.196774 0.500000 0.750000
O O9 0.064433 0.427603 0.842635
O O10 0.934604 0.500000 0.750000
#
# Coordination Sequence:
#
# PCOD9533303 Si02
#       4
#    16  16  16  16
#     4  12  23  43  78 110 140 190 253 314 366 430
#     4  12  29  46  66 111 156 194 241 299 379 459
#     4  11  23  46  77 109 141 193 253 314 368 429
#     4  11  22  47  78 105 145 192 252 312 366 431
#
# _framework density 26.552216999999999
#
# number of rings (size 3 to 8) (size 9 to 14) (size 15 to 20)
#    0.000    0.500    7.500    2.250    3.500    4.000 
#    0.000    0.000    0.000    0.000    0.000    0.000 
#    0.000    0.000    0.000    0.000    0.000    0.000 
#
# Total GULP energy -178216.133757 kJ/mol
# GULP energy per Si atom -5569.254180 kJ/mol
# Density = 2.649178 g / cm^3
# Si number density = 26.552217 Si / 1000 Ang^3
#
#
#
# Elastic Constant Matrix: (Units=GPa)
#
#
# Indices 1 2 3 4 5 6 
#
# 1 69.8041 -4.6252 19.8973 0.0000 0.0000 0.0000
# 2 -4.6252 63.6953 -4.8167 0.0000 0.0000 0.0000
# 3 19.8973 -4.8167 140.6716 0.0000 0.0000 0.0000
# 4 0.0000 0.0000 0.0000 -11.1404 0.0000 0.0000
# 5 0.0000 0.0000 0.0000 0.0000 32.5166 0.0000
# 6 0.0000 0.0000 0.0000 0.0000 0.0000 -0.0555
#
#
#
# Elastic Compliance Matrix: (Units=1/GPa)
#
#
# Indices 1 2 3 4 5 6 
#
# 1 0.014982 0.000930 -0.002087 0.000000 0.000000 0.000000
# 2 0.000930 0.015798 0.000409 0.000000 0.000000 0.000000
# 3 -0.002087 0.000409 0.007418 0.000000 0.000000 0.000000
# 4 0.000000 0.000000 0.000000 -0.089763 0.000000 0.000000
# 5 0.000000 0.000000 0.000000 0.000000 0.030753 0.000000
# 6 0.000000 0.000000 0.000000 0.000000 0.000000-18.027917
#
#
# Mechanical properties :
#
#
# Convention : Reuss Voigt Hill
#
# Bulk Modulus (GPa) = 27.24576 32.78687 30.01631
# Shear Modulus (GPa) = -0.27724 21.84518 10.78397
#
# Velocity S-wave (km/s) = -0.32348 2.87143 2.01748
# Velocity P-wave (km/s) = 3.18496 4.83408 4.09343
#
# Compressibility (1/GPa) = 0.03670296
#
# Stress axis : x y z
#
# Youngs Moduli (GPa) = 66.74487 63.29815 134.80695
#
# Poissons Ratio (x) = -0.05887 0.28139
# Poissons Ratio (y) = -0.06208 -0.05519
# Poissons Ratio (z) = 0.13932 -0.02591
#
# Static dielectric constant tensor:
#      x y z
#    x 2.132360 0.000000 0.000000 
#    y 0.000000 -4.985840 0.000000 
#    z 0.000000 0.000000 1.850040 
# 
# From -- ./inp_files/10433.got.cif
#   From: 2010.05.17/outbox.cif.g08.bks.cpg/sg73_6_cif.got.tgz:10433.got - 2010.06.03 17:35:07.
