data_PCOD9533265
_publ_section_title
;
Structure prediction by ZEFSAII (Michael W. Deem and Ramdas Pophale) SiO2 
 PCOD9533265
Probable space group: I B C A 
;
_chemical_formula_sum "Si O2"
_cell_formula_units_Z 120
_cell_length_a 24.451791
_cell_length_b 9.028020
_cell_length_c 24.688029
_cell_angle_alpha 90.000000
_cell_angle_beta 90.000000
_cell_angle_gamma 90.000000
_cell_volume 5449.913464
_symmetry_space_group_name_H-M "I B C A "
_symmetry_group_IT_number 73
_symmetry_cell_setting 'orthorhombic'
loop_
_space_group_symop_operation_xyz
x,y,z
-x,1/2-y,z
x,-y,1/2-z
1/2-x,y,-z
-x,-y,-z
x,1/2+y,-z
-x,y,1/2+z
1/2+x,-y,z
1/2+x,1/2+y,1/2+z
1/2-x,-y,1/2+z
1/2+x,1/2-y,-z
-x,1/2+y,1/2-z
1/2-x,1/2-y,1/2-z
1/2+x,y,1/2-z
1/2-x,1/2+y,z
x,1/2-y,1/2+z
loop_
_atom_site_type_symbol
_atom_site_label
_atom_site_fract_x
_atom_site_fract_y
_atom_site_fract_z
Si Si1 0.000556 0.521515 0.686320
Si Si2 0.130563 0.733311 0.555004
Si Si3 0.309303 0.823486 0.740753
Si Si4 0.000000 0.750000 0.393386
Si Si5 0.688689 0.306726 0.884626
Si Si6 0.755610 0.060308 0.939983
Si Si7 0.904787 0.258507 0.326163
Si Si8 0.908089 0.420842 0.042788
O O1 0.009930 0.500000 0.750000
O O2 0.984631 0.381557 0.649114
O O3 0.058359 0.592575 0.667298
O O4 0.950426 0.635547 0.684449
O O5 0.191538 0.666496 0.551603
O O6 0.122756 0.776635 0.616866
O O7 0.089410 0.597661 0.541122
O O8 0.115510 0.862582 0.514010
O O9 0.250000 0.750000 0.750000
O O10 0.322315 0.787035 0.678360
O O11 0.358045 0.771269 0.780600
O O12 0.304765 0.000000 0.750000
O O13 0.959556 0.666957 0.434764
O O14 0.707188 0.161546 0.917196
O O15 0.734006 0.433316 0.895860
O O16 0.637025 0.377941 0.913031
O O17 0.750000 0.991925 0.000000
#
# Coordination Sequence:
#
# PCOD9533265 Si02
#       8
#    16  16  16   8  16  16  16  16
#     4  11  26  45  76 105 134 188 239 295 358 424
#     4  11  24  45  67 103 138 190 226 292 361 418
#     4  12  26  47  70 105 149 193 234 292 360 425
#     4  12  26  48  68 108 136 180 238 302 362 424
#     4  11  24  42  68  99 135 184 228 294 345 419
#     4  11  22  42  67 100 140 183 241 285 344 425
#     4  11  25  49  73 101 147 187 240 296 354 433
#     4  11  26  42  69  98 140 179 232 289 360 418
#
# _framework density 22.018699000000002
#
# number of rings (size 3 to 8) (size 9 to 14) (size 15 to 20)
#    0.000    0.800    2.667    4.800    7.467    2.133 
#    2.400    0.000    0.000    0.000    0.000    0.000 
#    0.000    0.000    0.000    0.000    0.000    0.000 
#
# Total GULP energy -335421.699560 kJ/mol
# GULP energy per Si atom -5590.361659 kJ/mol
# Density = 2.196858 g / cm^3
# Si number density = 22.018699 Si / 1000 Ang^3
#
#
#
# Elastic Constant Matrix: (Units=GPa)
#
#
# Indices 1 2 3 4 5 6 
#
# 1 68.7863 17.0527 20.4066 0.0000 0.0000 0.0000
# 2 17.0527 54.9129 11.4546 0.0000 0.0000 0.0000
# 3 20.4066 11.4546 167.7266 0.0000 0.0000 0.0000
# 4 0.0000 0.0000 0.0000 9.8974 0.0000 0.0000
# 5 0.0000 0.0000 0.0000 0.0000 27.3835 0.0000
# 6 0.0000 0.0000 0.0000 0.0000 0.0000 16.0078
#
#
#
# Elastic Compliance Matrix: (Units=1/GPa)
#
#
# Indices 1 2 3 4 5 6 
#
# 1 0.016188 -0.004683 -0.001650 0.000000 0.000000 0.000000
# 2 -0.004683 0.019829 -0.000784 0.000000 0.000000 0.000000
# 3 -0.001650 -0.000784 0.006216 0.000000 0.000000 0.000000
# 4 0.000000 0.000000 0.000000 0.101037 0.000000 0.000000
# 5 0.000000 0.000000 0.000000 0.000000 0.036518 0.000000
# 6 0.000000 0.000000 0.000000 0.000000 0.000000 0.062470
#
#
# Mechanical properties :
#
#
# Convention : Reuss Voigt Hill
#
# Bulk Modulus (GPa) = 35.71570 43.25038 39.48304
# Shear Modulus (GPa) = 18.80936 26.82519 22.81728
#
# Velocity S-wave (km/s) = 2.92592 3.49419 3.22260
# Velocity P-wave (km/s) = 5.26028 5.99703 5.64069
#
# Compressibility (1/GPa) = 0.02799889
#
# Stress axis : x y z
#
# Youngs Moduli (GPa) = 61.77365 50.43236 160.86563
#
# Poissons Ratio (x) = 0.23617 0.26538
# Poissons Ratio (y) = 0.28928 0.12618
# Poissons Ratio (z) = 0.10191 0.03956
#
# Static dielectric constant tensor:
#      x y z
#    x 1.875470 0.000000 0.000000 
#    y 0.000000 1.864960 0.000000 
#    z 0.000000 0.000000 1.833400 
# 
# From -- ./inp_files/30518.got.cif
#   From: 2010.05.17/outbox.cif.g08.bks.cpg/sg73_16_cif.got.tgz:30518.got - 2010.06.03 17:35:07.
