data_PCOD9533234
_publ_section_title
;
Structure prediction by ZEFSAII (Michael W. Deem and Ramdas Pophale) SiO2 
 PCOD9533234
Probable space group: I B C A 
;
_chemical_formula_sum "Si O2"
_cell_formula_units_Z 96
_cell_length_a 8.234832
_cell_length_b 18.866459
_cell_length_c 27.544737
_cell_angle_alpha 90.000000
_cell_angle_beta 90.000000
_cell_angle_gamma 90.000000
_cell_volume 4279.408743
_symmetry_space_group_name_H-M "I B C A "
_symmetry_group_IT_number 73
_symmetry_cell_setting 'orthorhombic'
loop_
_space_group_symop_operation_xyz
x,y,z
-x,1/2-y,z
x,-y,1/2-z
1/2-x,y,-z
-x,-y,-z
x,1/2+y,-z
-x,y,1/2+z
1/2+x,-y,z
1/2+x,1/2+y,1/2+z
1/2-x,-y,1/2+z
1/2+x,1/2-y,-z
-x,1/2+y,1/2-z
1/2-x,1/2-y,1/2-z
1/2+x,y,1/2-z
1/2-x,1/2+y,z
x,1/2-y,1/2+z
loop_
_atom_site_type_symbol
_atom_site_label
_atom_site_fract_x
_atom_site_fract_y
_atom_site_fract_z
Si Si1 0.407726 0.080624 0.801434
Si Si2 0.755926 0.483902 0.444139
Si Si3 0.020770 0.083236 0.803520
Si Si4 0.567570 0.645062 0.906271
Si Si5 0.047014 0.894100 0.405599
Si Si6 0.250486 0.728515 0.943071
O O1 0.463380 0.109065 0.749329
O O2 0.480573 0.117991 0.848688
O O3 0.214410 0.084497 0.803800
O O4 0.461526 0.998372 0.806138
O O5 0.750000 0.506170 0.500000
O O6 0.897541 0.426224 0.435935
O O7 0.799459 0.551522 0.411522
O O8 0.597630 0.439728 0.428686
O O9 0.954932 0.125164 0.850020
O O10 0.408803 0.682486 0.928002
O O11 0.717929 0.698808 0.914288
O O12 0.098089 0.821358 0.430957
O O13 0.250000 0.744703 0.000000
#
# Coordination Sequence:
#
# PCOD9533234 Si02
#       6
#    16  16  16  16  16  16
#     4  11  22  38  68 100 134 175 224 285 352 410
#     4  12  24  39  65  99 136 174 227 288 344 409
#     4  11  22  40  67 102 134 178 227 286 353 411
#     4  11  24  43  68  93 137 176 230 287 337 410
#     4  12  23  40  66  98 135 172 228 283 346 412
#     4  11  24  45  68  92 132 186 225 271 345 410
#
# _framework density 22.433007
#
# number of rings (size 3 to 8) (size 9 to 14) (size 15 to 20)
#    0.000    0.667    3.333    6.500    2.333    2.000 
#    0.000    0.833    0.000    0.000    0.000    0.000 
#    0.000    0.000    0.000    0.000    0.000    0.000 
#
# Total GULP energy -268791.205300 kJ/mol
# GULP energy per Si atom -5599.816777 kJ/mol
# Density = 2.238195 g / cm^3
# Si number density = 22.433007 Si / 1000 Ang^3
#
#
#
# Elastic Constant Matrix: (Units=GPa)
#
#
# Indices 1 2 3 4 5 6 
#
# 1 78.7727 12.8460 30.4636 0.0000 0.0000 0.0000
# 2 12.8460 75.7664 11.3514 0.0000 0.0000 0.0000
# 3 30.4636 11.3514 187.4487 0.0000 0.0000 0.0000
# 4 0.0000 0.0000 0.0000 39.2006 0.0000 0.0000
# 5 0.0000 0.0000 0.0000 0.0000 42.5402 0.0000
# 6 0.0000 0.0000 0.0000 0.0000 0.0000 19.9083
#
#
#
# Elastic Compliance Matrix: (Units=1/GPa)
#
#
# Indices 1 2 3 4 5 6 
#
# 1 0.013849 -0.002029 -0.002128 0.000000 0.000000 0.000000
# 2 -0.002029 0.013617 -0.000495 0.000000 0.000000 0.000000
# 3 -0.002128 -0.000495 0.005711 0.000000 0.000000 0.000000
# 4 0.000000 0.000000 0.000000 0.025510 0.000000 0.000000
# 5 0.000000 0.000000 0.000000 0.000000 0.023507 0.000000
# 6 0.000000 0.000000 0.000000 0.000000 0.000000 0.050230
#
#
# Mechanical properties :
#
#
# Convention : Reuss Voigt Hill
#
# Bulk Modulus (GPa) = 41.88968 50.14553 46.01760
# Shear Modulus (GPa) = 33.40373 39.48494 36.44434
#
# Velocity S-wave (km/s) = 3.86300 4.19994 4.03499
# Velocity P-wave (km/s) = 6.21376 6.77653 6.50123
#
# Compressibility (1/GPa) = 0.02387223
#
# Stress axis : x y z
#
# Youngs Moduli (GPa) = 72.20983 73.43961 175.11448
#
# Poissons Ratio (x) = 0.14902 0.37260
# Poissons Ratio (y) = 0.14653 0.08665
# Poissons Ratio (z) = 0.15364 0.03634
#
# Static dielectric constant tensor:
#      x y z
#    x 1.916380 0.000000 0.000000 
#    y 0.000000 1.845810 0.000000 
#    z 0.000000 0.000000 1.860060 
# 
# From -- ./inp_files/6461.got.cif
#   From: 2010.05.17/outbox.cif.g08.bks.cpg/sg73_4_cif.got.tgz:6461.got - 2010.06.03 17:35:07.
