data_PCOD9533259
_publ_section_title
;
Structure prediction by ZEFSAII (Michael W. Deem and Ramdas Pophale) SiO2 
 PCOD9533259
Probable space group: I B C A 
;
_chemical_formula_sum "Si O2"
_cell_formula_units_Z 72
_cell_length_a 15.224442
_cell_length_b 8.147191
_cell_length_c 25.008265
_cell_angle_alpha 90.000000
_cell_angle_beta 90.000000
_cell_angle_gamma 90.000000
_cell_volume 3101.936082
_symmetry_space_group_name_H-M "I B C A "
_symmetry_group_IT_number 73
_symmetry_cell_setting 'orthorhombic'
loop_
_space_group_symop_operation_xyz
x,y,z
-x,1/2-y,z
x,-y,1/2-z
1/2-x,y,-z
-x,-y,-z
x,1/2+y,-z
-x,y,1/2+z
1/2+x,-y,z
1/2+x,1/2+y,1/2+z
1/2-x,-y,1/2+z
1/2+x,1/2-y,-z
-x,1/2+y,1/2-z
1/2-x,1/2-y,1/2-z
1/2+x,y,1/2-z
1/2-x,1/2+y,z
x,1/2-y,1/2+z
loop_
_atom_site_type_symbol
_atom_site_label
_atom_site_fract_x
_atom_site_fract_y
_atom_site_fract_z
Si Si1 0.750000 0.250000 0.250000
Si Si2 0.148027 0.304415 0.557827
Si Si3 0.648027 0.195582 0.057827
Si Si4 0.596174 0.307976 0.327784
Si Si5 0.403826 0.192024 0.172216
O O1 0.674579 0.220247 0.296481
O O2 0.674578 0.220247 0.203519
O O3 0.250000 0.249999 0.559117
O O4 0.142104 0.499999 0.562825
O O5 0.112707 0.249999 0.500000
O O6 0.104227 0.221581 0.608957
O O7 0.604227 0.278418 0.108957
O O8 0.500000 0.250000 0.311219
O O9 0.608314 0.500000 0.315201
O O10 0.500000 0.250000 0.188781
#
# Coordination Sequence:
#
# PCOD9533259 Si02
#       5
#     8  16  16  16  16
#     4  12  28  48  76 100 144 188 242 294 364 418
#     4  11  22  41  71 106 145 188 236 289 356 426
#     4  11  22  41  71 106 145 188 236 289 356 426
#     4  12  27  47  74 108 145 189 242 296 358 425
#     4  12  27  47  74 108 145 189 242 296 358 425
#
# _framework density 23.211310999999998
#
# number of rings (size 3 to 8) (size 9 to 14) (size 15 to 20)
#    0.000    0.444    2.222    8.000    0.000    6.222 
#    0.000    4.444    0.000    0.000    0.000    0.000 
#    0.000    0.000    0.000    0.000    0.000    0.000 
#
# Total GULP energy -200642.896585 kJ/mol
# GULP energy per Si atom -5573.413794 kJ/mol
# Density = 2.315848 g / cm^3
# Si number density = 23.211311 Si / 1000 Ang^3
#
#
#
# Elastic Constant Matrix: (Units=GPa)
#
#
# Indices 1 2 3 4 5 6 
#
# 1 156.7234 -32.2181 48.2091 0.0000 0.0000 0.0000
# 2 -32.2181 73.6490 -10.1336 0.0000 0.0000 0.0000
# 3 48.2091 -10.1336 196.9333 0.0000 0.0000 0.0000
# 4 0.0000 0.0000 0.0000 46.5880 0.0000 0.0000
# 5 0.0000 0.0000 0.0000 0.0000 -131.4563 0.0000
# 6 0.0000 0.0000 0.0000 0.0000 0.0000 16.7271
#
#
#
# Elastic Compliance Matrix: (Units=1/GPa)
#
#
# Indices 1 2 3 4 5 6 
#
# 1 0.007528 0.003061 -0.001685 0.000000 0.000000 0.000000
# 2 0.003061 0.014920 0.000018 0.000000 0.000000 0.000000
# 3 -0.001685 0.000018 0.005491 0.000000 0.000000 0.000000
# 4 0.000000 0.000000 0.000000 0.021465 0.000000 0.000000
# 5 0.000000 0.000000 0.000000 0.000000 -0.007607 0.000000
# 6 0.000000 0.000000 0.000000 0.000000 0.000000 0.059783
#
#
# Mechanical properties :
#
#
# Convention : Reuss Voigt Hill
#
# Bulk Modulus (GPa) = 32.54342 48.78006 40.66174
# Shear Modulus (GPa) = 45.85698 14.46830 30.16264
#
# Velocity S-wave (km/s) = 4.44963 2.49937 3.60874
# Velocity P-wave (km/s) = 6.36002 5.42129 5.90933
#
# Compressibility (1/GPa) = 0.03072818
#
# Stress axis : x y z
#
# Youngs Moduli (GPa) = 132.82909 67.02553 182.10317
#
# Poissons Ratio (x) = -0.20520 0.30692
# Poissons Ratio (y) = -0.40665 -0.00333
# Poissons Ratio (z) = 0.22387 -0.00123
#
# Static dielectric constant tensor:
#      x y z
#    x 1.726960 0.000000 0.000000 
#    y 0.000000 1.863110 0.000000 
#    z 0.000000 0.000000 2.043730 
# 
# From -- ./inp_files/32028.got.cif
#   From: 2010.05.17/outbox.cif.g08.bks.cpg/sg73_17_cif.got.tgz:32028.got - 2010.06.03 17:35:07.
