data_PCOD9533090
_publ_section_title
;
Structure prediction by ZEFSAII (Michael W. Deem and Ramdas Pophale) SiO2 
 PCOD9533090
Probable space group: I B C A 
;
_chemical_formula_sum "Si O2"
_cell_formula_units_Z 64
_cell_length_a 16.814839
_cell_length_b 5.294366
_cell_length_c 28.266311
_cell_angle_alpha 90.000000
_cell_angle_beta 90.000000
_cell_angle_gamma 90.000000
_cell_volume 2516.377580
_symmetry_space_group_name_H-M "I B C A "
_symmetry_group_IT_number 73
_symmetry_cell_setting 'orthorhombic'
loop_
_space_group_symop_operation_xyz
x,y,z
-x,1/2-y,z
x,-y,1/2-z
1/2-x,y,-z
-x,-y,-z
x,1/2+y,-z
-x,y,1/2+z
1/2+x,-y,z
1/2+x,1/2+y,1/2+z
1/2-x,-y,1/2+z
1/2+x,1/2-y,-z
-x,1/2+y,1/2-z
1/2-x,1/2-y,1/2-z
1/2+x,y,1/2-z
1/2-x,1/2+y,z
x,1/2-y,1/2+z
loop_
_atom_site_type_symbol
_atom_site_label
_atom_site_fract_x
_atom_site_fract_y
_atom_site_fract_z
Si Si1 0.302973 0.509819 0.843591
Si Si2 0.911680 0.338716 0.293165
Si Si3 0.341856 0.416486 0.019636
Si Si4 0.410707 0.671298 0.109243
O O1 0.250867 0.257961 0.843527
O O2 0.362020 0.585252 0.801888
O O3 0.363529 0.435261 0.884996
O O4 0.877822 0.500000 0.250000
O O5 0.914381 0.512920 0.341077
O O6 0.000000 0.250000 0.281896
O O7 0.358290 0.507660 0.072679
O O8 0.250000 0.393507 0.000000
O O9 0.378530 0.145206 0.010211
O O10 0.500000 0.750000 0.095436
#
# Coordination Sequence:
#
# PCOD9533090 Si02
#       4
#    16  16  16  16
#     4  12  28  48  80 117 163 217 276 347 415 494
#     4  12  28  51  84 123 173 231 287 345 423 514
#     4  10  26  46  76 111 155 207 274 343 426 507
#     4  12  27  50  82 120 166 221 283 351 423 513
#
# _framework density 25.433385999999999
#
# number of rings (size 3 to 8) (size 9 to 14) (size 15 to 20)
#    0.000    0.500    5.000    0.750   10.500    2.000 
#    0.000    0.000    0.000    0.000    0.000    0.000 
#    0.000    0.000    0.000    0.000    0.000    0.000 
#
# Total GULP energy -178847.843633 kJ/mol
# GULP energy per Si atom -5588.995114 kJ/mol
# Density = 2.537550 g / cm^3
# Si number density = 25.433386 Si / 1000 Ang^3
#
#
#
# Elastic Constant Matrix: (Units=GPa)
#
#
# Indices 1 2 3 4 5 6 
#
# 1 127.4464 32.5730 -16.0837 0.0000 0.0000 0.0000
# 2 32.5730 162.5235 14.6222 0.0000 0.0000 0.0000
# 3 -16.0837 14.6222 107.6284 0.0000 0.0000 0.0000
# 4 0.0000 0.0000 0.0000 68.1823 0.0000 0.0000
# 5 0.0000 0.0000 0.0000 0.0000 48.1145 0.0000
# 6 0.0000 0.0000 0.0000 0.0000 0.0000 49.1026
#
#
#
# Elastic Compliance Matrix: (Units=1/GPa)
#
#
# Indices 1 2 3 4 5 6 
#
# 1 0.008509 -0.001842 0.001522 0.000000 0.000000 0.000000
# 2 -0.001842 0.006628 -0.001176 0.000000 0.000000 0.000000
# 3 0.001522 -0.001176 0.009678 0.000000 0.000000 0.000000
# 4 0.000000 0.000000 0.000000 0.014667 0.000000 0.000000
# 5 0.000000 0.000000 0.000000 0.000000 0.020784 0.000000
# 6 0.000000 0.000000 0.000000 0.000000 0.000000 0.020366
#
#
# Mechanical properties :
#
#
# Convention : Reuss Voigt Hill
#
# Bulk Modulus (GPa) = 45.82261 51.09124 48.45692
# Shear Modulus (GPa) = 55.00639 57.51233 56.25936
#
# Velocity S-wave (km/s) = 4.65560 4.76046 4.70832
# Velocity P-wave (km/s) = 6.85239 7.09562 6.97507
#
# Compressibility (1/GPa) = 0.02182329
#
# Stress axis : x y z
#
# Youngs Moduli (GPa) = 117.51735 150.87528 103.32283
#
# Poissons Ratio (x) = 0.27797 -0.15725
# Poissons Ratio (y) = 0.21651 0.12149
# Poissons Ratio (z) = -0.17885 0.17740
#
# Static dielectric constant tensor:
#      x y z
#    x 1.602180 0.000000 0.000000 
#    y 0.000000 2.040030 0.000000 
#    z 0.000000 0.000000 2.113760 
# 
# From -- ./inp_files/34448.got.cif
#   From: 2010.05.17/outbox.cif.g08.bks.cpg/sg73_18_cif.got.tgz:34448.got - 2010.06.03 17:35:07.
