data_PCOD9533153
_publ_section_title
;
Structure prediction by ZEFSAII (Michael W. Deem and Ramdas Pophale) SiO2 
 PCOD9533153
Probable space group: I B C A 
;
_chemical_formula_sum "Si O2"
_cell_formula_units_Z 96
_cell_length_a 13.916745
_cell_length_b 16.260921
_cell_length_c 19.994810
_cell_angle_alpha 90.000000
_cell_angle_beta 90.000000
_cell_angle_gamma 90.000000
_cell_volume 4524.807328
_symmetry_space_group_name_H-M "I B C A "
_symmetry_group_IT_number 73
_symmetry_cell_setting 'orthorhombic'
loop_
_space_group_symop_operation_xyz
x,y,z
-x,1/2-y,z
x,-y,1/2-z
1/2-x,y,-z
-x,-y,-z
x,1/2+y,-z
-x,y,1/2+z
1/2+x,-y,z
1/2+x,1/2+y,1/2+z
1/2-x,-y,1/2+z
1/2+x,1/2-y,-z
-x,1/2+y,1/2-z
1/2-x,1/2-y,1/2-z
1/2+x,y,1/2-z
1/2-x,1/2+y,z
x,1/2-y,1/2+z
loop_
_atom_site_type_symbol
_atom_site_label
_atom_site_fract_x
_atom_site_fract_y
_atom_site_fract_z
Si Si1 0.694245 0.068424 0.111503
Si Si2 0.820037 0.077923 0.373426
Si Si3 0.641963 0.304437 0.901359
Si Si4 0.250000 0.302036 0.000000
Si Si5 0.000000 0.250000 0.200426
Si Si6 0.485952 0.586935 0.289163
Si Si7 0.089224 0.555791 0.982836
O O1 0.720590 0.145110 0.064892
O O2 0.607108 0.087545 0.161797
O O3 0.780008 0.014150 0.143632
O O4 0.659718 0.002693 0.057109
O O5 0.733400 0.145134 0.371082
O O6 0.859752 0.082349 0.449219
O O7 0.913315 0.093100 0.328526
O O8 0.593164 0.246801 0.847209
O O9 0.567605 0.372147 0.930164
O O10 0.669904 0.255757 0.968030
O O11 0.984597 0.332829 0.242418
O O12 0.482127 0.500000 0.250000
O O13 0.000000 0.500000 0.000000
#
# Coordination Sequence:
#
# PCOD9533153 Si02
#       7
#    16  16  16   8   8  16  16
#     4  11  24  42  73 105 143 179 243 300 364 442
#     4  11  23  46  75 104 142 187 242 308 367 440
#     4  11  26  46  69 109 147 179 237 316 364 437
#     4  12  24  42  74 112 138 180 232 306 398 412
#     4  12  32  48  70 104 154 202 256 288 356 448
#     4  12  29  49  70 103 144 207 249 287 360 440
#     4  11  20  42  73 107 136 181 238 313 381 426
#
# _framework density 21.216373000000001
#
# number of rings (size 3 to 8) (size 9 to 14) (size 15 to 20)
#    0.000    0.667    5.000    3.000    7.000    2.667 
#    0.000    0.000    0.000    0.000    0.000    0.000 
#    0.000    0.000    0.000    0.000    0.000    0.000 
#
# Total GULP energy -267974.942588 kJ/mol
# GULP energy per Si atom -5582.811304 kJ/mol
# Density = 2.116808 g / cm^3
# Si number density = 21.216373 Si / 1000 Ang^3
#
#
#
# Elastic Constant Matrix: (Units=GPa)
#
#
# Indices 1 2 3 4 5 6 
#
# 1 89.6304 25.7195 47.2511 0.0000 0.0000 0.0000
# 2 25.7195 93.5873 38.1795 0.0000 0.0000 0.0000
# 3 47.2511 38.1795 88.5423 0.0000 0.0000 0.0000
# 4 0.0000 0.0000 0.0000 15.7764 0.0000 0.0000
# 5 0.0000 0.0000 0.0000 0.0000 9.1814 0.0000
# 6 0.0000 0.0000 0.0000 0.0000 0.0000 27.9896
#
#
#
# Elastic Compliance Matrix: (Units=1/GPa)
#
#
# Indices 1 2 3 4 5 6 
#
# 1 0.015614 -0.001082 -0.007866 0.000000 0.000000 0.000000
# 2 -0.001082 0.013041 -0.005046 0.000000 0.000000 0.000000
# 3 -0.007866 -0.005046 0.017668 0.000000 0.000000 0.000000
# 4 0.000000 0.000000 0.000000 0.063386 0.000000 0.000000
# 5 0.000000 0.000000 0.000000 0.000000 0.108916 0.000000
# 6 0.000000 0.000000 0.000000 0.000000 0.000000 0.035727
#
#
# Mechanical properties :
#
#
# Convention : Reuss Voigt Hill
#
# Bulk Modulus (GPa) = 54.54070 54.89557 54.71814
# Shear Modulus (GPa) = 17.33393 21.29682 19.31538
#
# Velocity S-wave (km/s) = 2.86143 3.17170 3.02056
# Velocity P-wave (km/s) = 6.05638 6.27242 6.16535
#
# Compressibility (1/GPa) = 0.01833493
#
# Stress axis : x y z
#
# Youngs Moduli (GPa) = 64.04423 76.68075 56.60089
#
# Poissons Ratio (x) = 0.08297 0.44522
# Poissons Ratio (y) = 0.06930 0.28560
# Poissons Ratio (z) = 0.50377 0.38692
#
# Static dielectric constant tensor:
#      x y z
#    x 1.923880 0.000000 0.000000 
#    y 0.000000 1.836640 0.000000 
#    z 0.000000 0.000000 1.798240 
# 
# From -- ./inp_files/26033.got.cif
#   From: 2010.05.17/outbox.cif.g08.bks.cpg/sg73_14_cif.got.tgz:26033.got - 2010.06.03 17:35:07.
