data_PCOD9533179
_publ_section_title
;
Structure prediction by ZEFSAII (Michael W. Deem and Ramdas Pophale) SiO2 
 PCOD9533179
Probable space group: I B C A 
;
_chemical_formula_sum "Si O2"
_cell_formula_units_Z 96
_cell_length_a 13.147578
_cell_length_b 18.287261
_cell_length_c 19.102706
_cell_angle_alpha 90.000000
_cell_angle_beta 90.000000
_cell_angle_gamma 90.000000
_cell_volume 4592.924549
_symmetry_space_group_name_H-M "I B C A "
_symmetry_group_IT_number 73
_symmetry_cell_setting 'orthorhombic'
loop_
_space_group_symop_operation_xyz
x,y,z
-x,1/2-y,z
x,-y,1/2-z
1/2-x,y,-z
-x,-y,-z
x,1/2+y,-z
-x,y,1/2+z
1/2+x,-y,z
1/2+x,1/2+y,1/2+z
1/2-x,-y,1/2+z
1/2+x,1/2-y,-z
-x,1/2+y,1/2-z
1/2-x,1/2-y,1/2-z
1/2+x,y,1/2-z
1/2-x,1/2+y,z
x,1/2-y,1/2+z
loop_
_atom_site_type_symbol
_atom_site_label
_atom_site_fract_x
_atom_site_fract_y
_atom_site_fract_z
Si Si1 0.560814 0.366035 0.480938
Si Si2 0.281227 0.733041 0.828955
Si Si3 0.650835 0.203780 0.454315
Si Si4 0.864821 0.389218 0.366322
Si Si5 0.850257 0.048889 0.149759
Si Si6 0.426520 0.395506 0.703789
O O1 0.613958 0.286314 0.471998
O O2 0.441699 0.350086 0.470540
O O3 0.586290 0.397501 0.557179
O O4 0.604508 0.418368 0.421154
O O5 0.250000 0.750000 0.750000
O O6 0.187402 0.702552 0.873965
O O7 0.317002 0.808268 0.863643
O O8 0.373665 0.676108 0.827498
O O9 0.750000 0.186872 0.500000
O O10 0.771432 0.443093 0.352343
O O11 0.953313 0.394032 0.308953
O O12 0.894078 0.095355 0.215416
O O13 0.883130 0.966422 0.164345
#
# Coordination Sequence:
#
# PCOD9533179 Si02
#       6
#    16  16  16  16  16  16
#     4  11  23  41  70  99 137 183 231 280 353 416
#     4  12  23  43  71 107 134 177 236 292 346 415
#     4  11  21  38  66 104 133 177 227 293 340 407
#     4  12  24  46  74  97 144 183 232 296 350 415
#     4  11  25  48  67  98 142 188 228 284 359 427
#     4  11  27  43  70 103 134 183 234 287 354 417
#
# _framework density 20.901713999999998
#
# number of rings (size 3 to 8) (size 9 to 14) (size 15 to 20)
#    0.000    0.667    5.000    2.000    4.667    4.667 
#    0.000    3.333    0.000    0.000    0.000    0.000 
#    0.000    0.000    0.000    0.000    0.000    0.000 
#
# Total GULP energy -268714.102646 kJ/mol
# GULP energy per Si atom -5598.210472 kJ/mol
# Density = 2.085414 g / cm^3
# Si number density = 20.901714 Si / 1000 Ang^3
#
#
#
# Elastic Constant Matrix: (Units=GPa)
#
#
# Indices 1 2 3 4 5 6 
#
# 1 158.3307 -0.5156 45.3376 0.0000 0.0000 0.0000
# 2 -0.5156 26.8266 -20.8468 0.0000 0.0000 0.0000
# 3 45.3376 -20.8468 126.8373 0.0000 0.0000 0.0000
# 4 0.0000 0.0000 0.0000 12.0772 0.0000 0.0000
# 5 0.0000 0.0000 0.0000 0.0000 35.6694 0.0000
# 6 0.0000 0.0000 0.0000 0.0000 0.0000 14.1899
#
#
#
# Elastic Compliance Matrix: (Units=1/GPa)
#
#
# Indices 1 2 3 4 5 6 
#
# 1 0.007139 -0.002116 -0.002900 0.000000 0.000000 0.000000
# 2 -0.002116 0.043362 0.007883 0.000000 0.000000 0.000000
# 3 -0.002900 0.007883 0.010216 0.000000 0.000000 0.000000
# 4 0.000000 0.000000 0.000000 0.082801 0.000000 0.000000
# 5 0.000000 0.000000 0.000000 0.000000 0.028035 0.000000
# 6 0.000000 0.000000 0.000000 0.000000 0.000000 0.070473
#
#
# Mechanical properties :
#
#
# Convention : Reuss Voigt Hill
#
# Bulk Modulus (GPa) = 15.04839 39.99388 27.52114
# Shear Modulus (GPa) = 19.34669 31.58859 25.46764
#
# Velocity S-wave (km/s) = 3.04567 3.89175 3.49441
# Velocity P-wave (km/s) = 4.42531 6.27456 5.42925
#
# Compressibility (1/GPa) = 0.06645229
#
# Stress axis : x y z
#
# Youngs Moduli (GPa) = 140.06905 23.06175 97.88279
#
# Poissons Ratio (x) = 0.04880 0.28383
# Poissons Ratio (y) = 0.29641 -0.77164
# Poissons Ratio (z) = 0.40616 -0.18180
#
# Static dielectric constant tensor:
#      x y z
#    x 1.728160 0.000000 0.000000 
#    y 0.000000 1.731460 0.000000 
#    z 0.000000 0.000000 1.753930 
# 
# From -- ./inp_files/25452.got.cif
#   From: 2010.05.17/outbox.cif.g08.bks.cpg/sg73_13_cif.got.tgz:25452.got - 2010.06.03 17:35:07.
