data_PCOD9533441
_publ_section_title
;
Structure prediction by ZEFSAII (Michael W. Deem and Ramdas Pophale) SiO2 
 PCOD9533441
Probable space group: I B C A 
;
_chemical_formula_sum "Si O2"
_cell_formula_units_Z 64
_cell_length_a 18.789384
_cell_length_b 16.924769
_cell_length_c 9.980918
_cell_angle_alpha 90.000000
_cell_angle_beta 90.000000
_cell_angle_gamma 90.000000
_cell_volume 3173.991648
_symmetry_space_group_name_H-M "I B C A "
_symmetry_group_IT_number 73
_symmetry_cell_setting 'orthorhombic'
loop_
_space_group_symop_operation_xyz
x,y,z
-x,1/2-y,z
x,-y,1/2-z
1/2-x,y,-z
-x,-y,-z
x,1/2+y,-z
-x,y,1/2+z
1/2+x,-y,z
1/2+x,1/2+y,1/2+z
1/2-x,-y,1/2+z
1/2+x,1/2-y,-z
-x,1/2+y,1/2-z
1/2-x,1/2-y,1/2-z
1/2+x,y,1/2-z
1/2-x,1/2+y,z
x,1/2-y,1/2+z
loop_
_atom_site_type_symbol
_atom_site_label
_atom_site_fract_x
_atom_site_fract_y
_atom_site_fract_z
Si Si1 0.422531 0.214314 0.964334
Si Si2 0.331745 0.231357 0.712807
Si Si3 0.943218 0.467864 0.102218
Si Si4 0.200456 0.553972 0.627202
O O1 0.500000 0.250000 0.998189
O O2 0.382917 0.252406 0.836832
O O3 0.633279 0.275227 0.085764
O O4 0.437426 0.125193 0.918376
O O5 0.250000 0.250000 0.750000
O O6 0.328915 0.137285 0.682559
O O7 0.961831 0.500000 0.250000
O O8 0.866125 0.504206 0.074560
O O9 0.000000 0.500000 0.000000
O O10 0.230951 0.500000 0.750000
O O11 0.250000 0.568975 0.500000
#
# Coordination Sequence:
#
# PCOD9533441 Si02
#       4
#    16  16  16  16
#     4  12  26  45  73 101 144 181 234 291 349 417
#     4  12  26  46  71 106 137 185 233 289 351 420
#     4  11  25  46  71 102 138 180 232 282 348 415
#     4  11  24  45  68 101 139 176 232 280 348 415
#
# _framework density 20.163882999999998
#
# number of rings (size 3 to 8) (size 9 to 14) (size 15 to 20)
#    0.000    0.500    5.000    4.500    7.000    1.000 
#    0.000    0.000    0.000    0.000    0.000    0.000 
#    0.000    0.000    0.000    0.000    0.000    0.000 
#
# Total GULP energy -178736.081808 kJ/mol
# GULP energy per Si atom -5585.502557 kJ/mol
# Density = 2.011799 g / cm^3
# Si number density = 20.163883 Si / 1000 Ang^3
#
#
#
# Elastic Constant Matrix: (Units=GPa)
#
#
# Indices 1 2 3 4 5 6 
#
# 1 109.3977 27.6203 57.0613 0.0000 0.0000 0.0000
# 2 27.6203 95.1506 17.3728 0.0000 0.0000 0.0000
# 3 57.0613 17.3728 151.0631 0.0000 0.0000 0.0000
# 4 0.0000 0.0000 0.0000 23.4818 0.0000 0.0000
# 5 0.0000 0.0000 0.0000 0.0000 39.8365 0.0000
# 6 0.0000 0.0000 0.0000 0.0000 0.0000 29.4057
#
#
#
# Elastic Compliance Matrix: (Units=1/GPa)
#
#
# Indices 1 2 3 4 5 6 
#
# 1 0.012036 -0.002721 -0.004233 0.000000 0.000000 0.000000
# 2 -0.002721 0.011350 -0.000278 0.000000 0.000000 0.000000
# 3 -0.004233 -0.000278 0.008251 0.000000 0.000000 0.000000
# 4 0.000000 0.000000 0.000000 0.042586 0.000000 0.000000
# 5 0.000000 0.000000 0.000000 0.000000 0.025103 0.000000
# 6 0.000000 0.000000 0.000000 0.000000 0.000000 0.034007
#
#
# Mechanical properties :
#
#
# Convention : Reuss Voigt Hill
#
# Bulk Modulus (GPa) = 58.23030 62.19113 60.21072
# Shear Modulus (GPa) = 32.56884 35.44861 34.00872
#
# Velocity S-wave (km/s) = 4.02332 4.19743 4.11130
# Velocity P-wave (km/s) = 7.10803 7.37570 7.24310
#
# Compressibility (1/GPa) = 0.01717319
#
# Stress axis : x y z
#
# Youngs Moduli (GPa) = 83.08353 88.10460 121.20048
#
# Poissons Ratio (x) = 0.23972 0.51310
# Poissons Ratio (y) = 0.22606 0.03364
# Poissons Ratio (z) = 0.35173 0.02445
#
# Static dielectric constant tensor:
#      x y z
#    x 1.696350 0.000000 0.000000 
#    y 0.000000 1.620250 0.000000 
#    z 0.000000 0.000000 1.655890 
# 
# From -- ./inp_files/4661.got.cif
#   From: 2010.05.17/outbox.cif.g08.bks.cpg/sg73_3_cif.got.tgz:4661.got - 2010.06.03 17:35:07.
