data_PCOD9533384
_publ_section_title
;
Structure prediction by ZEFSAII (Michael W. Deem and Ramdas Pophale) SiO2 
 PCOD9533384
Probable space group: I B C A 
;
_chemical_formula_sum "Si O2"
_cell_formula_units_Z 88
_cell_length_a 13.993979
_cell_length_b 11.442985
_cell_length_c 24.052781
_cell_angle_alpha 90.000000
_cell_angle_beta 90.000000
_cell_angle_gamma 90.000000
_cell_volume 3851.641377
_symmetry_space_group_name_H-M "I B C A "
_symmetry_group_IT_number 73
_symmetry_cell_setting 'orthorhombic'
loop_
_space_group_symop_operation_xyz
x,y,z
-x,1/2-y,z
x,-y,1/2-z
1/2-x,y,-z
-x,-y,-z
x,1/2+y,-z
-x,y,1/2+z
1/2+x,-y,z
1/2+x,1/2+y,1/2+z
1/2-x,-y,1/2+z
1/2+x,1/2-y,-z
-x,1/2+y,1/2-z
1/2-x,1/2-y,1/2-z
1/2+x,y,1/2-z
1/2-x,1/2+y,z
x,1/2-y,1/2+z
loop_
_atom_site_type_symbol
_atom_site_label
_atom_site_fract_x
_atom_site_fract_y
_atom_site_fract_z
Si Si1 0.240571 0.877948 0.123485
Si Si2 0.741876 0.628373 0.314396
Si Si3 0.041258 0.630047 0.821672
Si Si4 0.058198 0.895783 0.931700
Si Si5 0.459814 0.131586 0.561482
Si Si6 0.402197 0.000000 0.250000
O O1 0.226453 0.755658 0.157513
O O2 0.338932 0.857340 0.090246
O O3 0.142967 0.896517 0.088569
O O4 0.263888 0.003866 0.152069
O O5 0.666891 0.607192 0.265230
O O6 0.852993 0.621757 0.299266
O O7 0.027270 0.636648 0.888505
O O8 0.972465 0.528095 0.800693
O O9 0.000000 0.750000 0.798883
O O10 0.052254 0.856123 0.995127
O O11 0.041881 0.034880 0.932441
O O12 0.500000 0.250000 0.586790
#
# Coordination Sequence:
#
# PCOD9533384 Si02
#       6
#    16  16  16  16  16   8
#     4  12  25  45  74 104 147 186 235 294 355 428
#     4  12  26  46  73 104 139 187 243 295 360 427
#     4  12  24  47  73  97 143 189 228 302 361 420
#     4  11  23  46  68 106 145 187 231 287 361 423
#     4  11  25  42  74 108 143 188 240 288 347 437
#     4  12  28  46  70 106 136 186 250 302 358 430
#
# _framework density 22.847401000000001
#
# number of rings (size 3 to 8) (size 9 to 14) (size 15 to 20)
#    0.000    0.364    5.455    2.727    0.000    4.364 
#    0.000    3.636    0.000    0.000    0.000    0.000 
#    0.000    0.000    0.000    0.000    0.000    0.000 
#
# Total GULP energy -245531.965837 kJ/mol
# GULP energy per Si atom -5580.271951 kJ/mol
# Density = 2.279540 g / cm^3
# Si number density = 22.847401 Si / 1000 Ang^3
#
#
#
# Elastic Constant Matrix: (Units=GPa)
#
#
# Indices 1 2 3 4 5 6 
#
# 1 126.6335 12.8283 24.5178 0.0000 0.0000 0.0000
# 2 12.8283 103.1710 20.1048 0.0000 0.0000 0.0000
# 3 24.5178 20.1048 66.3260 0.0000 0.0000 0.0000
# 4 0.0000 0.0000 0.0000 -12.6662 0.0000 0.0000
# 5 0.0000 0.0000 0.0000 0.0000 67.9398 0.0000
# 6 0.0000 0.0000 0.0000 0.0000 0.0000 43.0937
#
#
#
# Elastic Compliance Matrix: (Units=1/GPa)
#
#
# Indices 1 2 3 4 5 6 
#
# 1 0.008527 -0.000474 -0.003008 0.000000 0.000000 0.000000
# 2 -0.000474 0.010327 -0.002955 0.000000 0.000000 0.000000
# 3 -0.003008 -0.002955 0.017085 0.000000 0.000000 0.000000
# 4 0.000000 0.000000 0.000000 -0.078950 0.000000 0.000000
# 5 0.000000 0.000000 0.000000 0.000000 0.014719 0.000000
# 6 0.000000 0.000000 0.000000 0.000000 0.000000 0.023205
#
#
# Mechanical properties :
#
#
# Convention : Reuss Voigt Hill
#
# Bulk Modulus (GPa) = 43.35720 45.67024 44.51372
# Shear Modulus (GPa) = 323.05816 35.58544 179.32180
#
# Velocity S-wave (km/s) = 11.90400 3.95083 8.86889
# Velocity P-wave (km/s) = 14.42076 6.39099 11.15354
#
# Compressibility (1/GPa) = 0.02306422
#
# Stress axis : x y z
#
# Youngs Moduli (GPa) = 117.27044 96.82910 58.53106
#
# Poissons Ratio (x) = 0.04590 0.17609
# Poissons Ratio (y) = 0.05559 0.17297
# Poissons Ratio (z) = 0.35281 0.28615
#
# Static dielectric constant tensor:
#      x y z
#    x 1.806600 0.000000 0.000000 
#    y 0.000000 1.962480 0.000000 
#    z 0.000000 0.000000 1.888760 
# 
# From -- ./inp_files/29402.got.cif
#   From: 2010.05.17/outbox.cif.g08.bks.cpg/sg73_15_cif.got.tgz:29402.got - 2010.06.03 17:35:07.
