data_PCOD9533746
_publ_section_title
;
Structure prediction by ZEFSAII (Michael W. Deem and Ramdas Pophale) SiO2 
 PCOD9533746
Probable space group: I B C A 
;
_chemical_formula_sum "Si O2"
_cell_formula_units_Z 52
_cell_length_a 9.000000
_cell_length_b 30.000000
_cell_length_c 21.000000
_cell_angle_alpha 90.000000
_cell_angle_beta 90.000000
_cell_angle_gamma 90.000000
_cell_volume 5670.000000
_symmetry_space_group_name_H-M "I B C A "
_symmetry_group_IT_number 73
_symmetry_cell_setting 'orthorhombic'
loop_
_space_group_symop_operation_xyz
x,y,z
-x,1/2-y,z
x,-y,1/2-z
1/2-x,y,-z
-x,-y,-z
x,1/2+y,-z
-x,y,1/2+z
1/2+x,-y,z
1/2+x,1/2+y,1/2+z
1/2-x,-y,1/2+z
1/2+x,1/2-y,-z
-x,1/2+y,1/2-z
1/2-x,1/2-y,1/2-z
1/2+x,y,1/2-z
1/2-x,1/2+y,z
x,1/2-y,1/2+z
loop_
_atom_site_type_symbol
_atom_site_label
_atom_site_fract_x
_atom_site_fract_y
_atom_site_fract_z
Si Si1 0.063520 0.845668 0.618664
Si Si2 0.460074 0.067867 0.210174
Si Si3 0.250000 0.816603 0.500000
Si Si4 0.500000 0.250000 0.443688
Si Si5 0.258329 0.800597 0.722805
Si Si6 0.226118 0.826022 0.923424
Si Si7 0.707681 0.000000 0.250000
Si Si8 0.443144 0.855527 0.187037
O O1 0.176179 0.844831 0.557914
O O2 0.139501 0.809987 0.666687
O O3 0.052741 0.893889 0.655010
O O4 0.895590 0.829940 0.601945
O O5 0.599580 0.033383 0.209639
O O6 0.471996 0.098475 0.274780
O O7 0.316782 0.035063 0.213758
O O8 0.390973 0.785096 0.520133
O O9 0.629030 0.280528 0.411050
O O10 0.250000 0.750000 0.750000
O O11 0.197934 0.832386 0.778761
O O12 0.416059 0.821622 0.698252
O O13 0.116105 0.860184 0.885583
O O14 0.250000 0.830488 0.000000
#
# Coordination Sequence:
#
# PCOD9533746 Si02
#       8
#    16  16   8   8  16  16   8  16
#     4  11  24  43  65  91 136 170 228 276 332 387
#     4  10  21  42  66 105 124 165 206 276 343 417
#     4  12  22  42  62  88 126 188 222 288 306 386
#     4  12  24  40  56  86 124 174 256 262 310 352
#     4  11  24  39  60  91 128 180 219 281 324 375
#     4  12  25  42  61  90 128 189 229 284 311 375
#     4  10  20  38  74 100 128 156 204 266 358 422
#     4  11  23  41  60  93 138 165 224 277 333 387
#
# _framework density 9.1710759999999993
#
# number of rings (size 3 to 8) (size 9 to 14) (size 15 to 20)
#    0.000    0.923    2.308    6.000    4.308    0.000 
#    8.308    0.000    0.000    0.923    8.000    0.000 
#    0.000    0.000    0.000    0.000    0.000    0.000 
#
# Total GULP energy -289975.164392 kJ/mol
# GULP energy per Si atom -5576.445469 kJ/mol
# Density = 0.915020 g / cm^3
# Si number density = 9.171076 Si / 1000 Ang^3
#
#
#
# Elastic Constant Matrix: (Units=GPa)
#
#
# Indices 1 2 3 4 5 6 
#
# 1 167.9955 54.7631 57.4636 0.0000 0.0000 0.0000
# 2 54.7631 126.4223 43.8067 0.0000 0.0000 0.0000
# 3 57.4636 43.8067 101.8582 0.0001 0.0000 0.0000
# 4 0.0000 0.0000 0.0001 24.7872 0.0000 0.0000
# 5 0.0000 0.0000 0.0000 0.0000 40.4809 0.0000
# 6 0.0000 0.0000 0.0000 0.0000 0.0000 46.6886
#
#
#
# Elastic Compliance Matrix: (Units=1/GPa)
#
#
# Indices 1 2 3 4 5 6 
#
# 1 0.007863 -0.002196 -0.003491 0.000000 0.000000 0.000000
# 2 -0.002196 0.009909 -0.003022 0.000000 0.000000 0.000000
# 3 -0.003491 -0.003022 0.013087 0.000000 0.000000 0.000000
# 4 0.000000 0.000000 0.000000 0.040343 0.000000 0.000000
# 5 0.000000 0.000000 0.000000 0.000000 0.024703 0.000000
# 6 0.000000 0.000000 0.000000 0.000000 0.000000 0.021419
#
#
# Mechanical properties :
#
#
# Convention : Reuss Voigt Hill
#
# Bulk Modulus (GPa) = 74.41256 78.70476 76.55866
# Shear Modulus (GPa) = 35.91375 38.40751 37.16063
#
# Velocity S-wave (km/s) = 4.42972 4.58093 4.50596
# Velocity P-wave (km/s) = 8.17438 8.42510 8.30068
#
# Compressibility (1/GPa) = 0.01343859
#
# Stress axis : x y z
#
# Youngs Moduli (GPa) = 127.18391 100.92194 76.41147
#
# Poissons Ratio (x) = 0.22164 0.26677
# Poissons Ratio (y) = 0.27932 0.23095
# Poissons Ratio (z) = 0.44403 0.30504
#
# Static dielectric constant tensor:
#      x y z
#    x 1.662900 0.000000 0.000000 
#    y 0.000000 1.624450 0.000000 
#    z 0.000000 0.000000 1.739630 
# 
# From -- ./inp_files/25080.got.cif
#   From: 2010.05.17/outbox.ucp.g08.bks.cvg/sg73_13_cif.got.tgz:25080.got - 2010.06.11 16:36:03.
