data_PCOD9533536
_publ_section_title
;
Structure prediction by ZEFSAII (Michael W. Deem and Ramdas Pophale) SiO2 
 PCOD9533536
Probable space group: I B C A 
;
_chemical_formula_sum "Si O2"
_cell_formula_units_Z 80
_cell_length_a 8.166843
_cell_length_b 25.471360
_cell_length_c 15.757470
_cell_angle_alpha 90.000000
_cell_angle_beta 90.000000
_cell_angle_gamma 90.000000
_cell_volume 3277.878334
_symmetry_space_group_name_H-M "I B C A "
_symmetry_group_IT_number 73
_symmetry_cell_setting 'orthorhombic'
loop_
_space_group_symop_operation_xyz
x,y,z
-x,1/2-y,z
x,-y,1/2-z
1/2-x,y,-z
-x,-y,-z
x,1/2+y,-z
-x,y,1/2+z
1/2+x,-y,z
1/2+x,1/2+y,1/2+z
1/2-x,-y,1/2+z
1/2+x,1/2-y,-z
-x,1/2+y,1/2-z
1/2-x,1/2-y,1/2-z
1/2+x,y,1/2-z
1/2-x,1/2+y,z
x,1/2-y,1/2+z
loop_
_atom_site_type_symbol
_atom_site_label
_atom_site_fract_x
_atom_site_fract_y
_atom_site_fract_z
Si Si1 0.850510 0.057074 0.289237
Si Si2 0.099950 0.300313 0.874806
Si Si3 0.428769 0.371027 0.290143
Si Si4 0.943595 0.441561 0.977662
Si Si5 0.049280 0.664559 0.448101
O O1 0.668953 0.075566 0.309697
O O2 0.954947 0.062559 0.375110
O O3 0.894747 0.103002 0.223512
O O4 0.859138 0.000000 0.250000
O O5 0.097298 0.339242 0.795436
O O6 0.286383 0.307593 0.911549
O O7 0.000000 0.250000 0.841597
O O8 0.999517 0.312286 0.961496
O O9 0.420664 0.333732 0.371400
O O10 0.750000 0.434433 0.000000
O O11 0.000000 0.500000 0.000000
O O12 0.052224 0.397603 0.025643
#
# Coordination Sequence:
#
# PCOD9533536 Si02
#       5
#    16  16  16  16  16
#     4  12  26  43  71 112 160 210 261 311 390 477
#     4  11  27  50  77 109 149 203 263 337 411 470
#     4  12  24  47  75 110 156 201 258 327 394 471
#     4  12  27  43  74 115 160 212 265 313 392 477
#     4  11  25  51  75 112 155 201 261 330 397 481
#
# _framework density 24.406030999999999
#
# number of rings (size 3 to 8) (size 9 to 14) (size 15 to 20)
#    0.000    0.400    6.000    1.800    5.600    1.600 
#   10.800    0.000    0.000    0.000    0.000    0.000 
#    0.000    0.000    0.000    0.000    0.000    0.000 
#
# Total GULP energy -222975.254186 kJ/mol
# GULP energy per Si atom -5574.381355 kJ/mol
# Density = 2.435048 g / cm^3
# Si number density = 24.406031 Si / 1000 Ang^3
#
#
#
# Elastic Constant Matrix: (Units=GPa)
#
#
# Indices 1 2 3 4 5 6 
#
# 1 61.1030 43.1178 11.2024 0.0000 0.0000 0.0000
# 2 43.1178 110.5809 37.8129 0.0000 0.0000 0.0000
# 3 11.2024 37.8129 176.4027 0.0001 0.0000 0.0000
# 4 0.0000 0.0000 0.0001 52.4491 0.0000 0.0000
# 5 0.0000 0.0000 0.0000 0.0000 4.4925 0.0000
# 6 0.0000 0.0000 0.0000 0.0000 0.0000 28.9587
#
#
#
# Elastic Compliance Matrix: (Units=1/GPa)
#
#
# Indices 1 2 3 4 5 6 
#
# 1 0.022617 -0.008987 0.000490 0.000000 0.000000 0.000000
# 2 -0.008987 0.013329 -0.002286 0.000000 0.000000 0.000000
# 3 0.000490 -0.002286 0.006128 0.000000 0.000000 0.000000
# 4 0.000000 0.000000 0.000000 0.019066 0.000000 0.000000
# 5 0.000000 0.000000 0.000000 0.000000 0.222596 0.000000
# 6 0.000000 0.000000 0.000000 0.000000 0.000000 0.034532
#
#
# Mechanical properties :
#
#
# Convention : Reuss Voigt Hill
#
# Bulk Modulus (GPa) = 48.76080 59.15030 53.95555
# Shear Modulus (GPa) = 14.42293 34.24362 24.33328
#
# Velocity S-wave (km/s) = 2.43360 3.74984 3.16099
# Velocity P-wave (km/s) = 5.28383 6.56025 5.95633
#
# Compressibility (1/GPa) = 0.02050828
#
# Stress axis : x y z
#
# Youngs Moduli (GPa) = 44.21368 75.02405 163.18953
#
# Poissons Ratio (x) = 0.67421 -0.07996
# Poissons Ratio (y) = 0.39733 0.37313
# Poissons Ratio (z) = -0.02166 0.17154
#
# Static dielectric constant tensor:
#      x y z
#    x 2.267860 0.000000 0.000000 
#    y 0.000000 1.947600 0.000000 
#    z 0.000000 0.000000 2.040860 
# 
# From -- ./inp_files/20734.got.cif
#   From: 2010.05.17/outbox.cif.g08.bks.cpg/sg73_11_cif.got.tgz:20734.got - 2010.06.03 17:35:07.
