data_PCOD9533271
_publ_section_title
;
Structure prediction by ZEFSAII (Michael W. Deem and Ramdas Pophale) SiO2 
 PCOD9533271
Probable space group: I B C A 
;
_chemical_formula_sum "Si O2"
_cell_formula_units_Z 120
_cell_length_a 23.714681
_cell_length_b 9.517279
_cell_length_c 24.350267
_cell_angle_alpha 90.000000
_cell_angle_beta 90.000000
_cell_angle_gamma 90.000000
_cell_volume 5495.836645
_symmetry_space_group_name_H-M "I B C A "
_symmetry_group_IT_number 73
_symmetry_cell_setting 'orthorhombic'
loop_
_space_group_symop_operation_xyz
x,y,z
-x,1/2-y,z
x,-y,1/2-z
1/2-x,y,-z
-x,-y,-z
x,1/2+y,-z
-x,y,1/2+z
1/2+x,-y,z
1/2+x,1/2+y,1/2+z
1/2-x,-y,1/2+z
1/2+x,1/2-y,-z
-x,1/2+y,1/2-z
1/2-x,1/2-y,1/2-z
1/2+x,y,1/2-z
1/2-x,1/2+y,z
x,1/2-y,1/2+z
loop_
_atom_site_type_symbol
_atom_site_label
_atom_site_fract_x
_atom_site_fract_y
_atom_site_fract_z
Si Si1 0.936052 0.241483 0.605289
Si Si2 0.774229 0.782980 0.823856
Si Si3 0.962867 0.638356 0.011917
Si Si4 0.750218 0.917652 0.064993
Si Si5 0.631883 0.958734 0.410316
Si Si6 0.837988 0.500000 0.250000
Si Si7 0.652668 0.537516 0.144829
Si Si8 0.355472 0.248259 0.688578
O O1 0.944348 0.270900 0.540633
O O2 0.898601 0.370082 0.624599
O O3 0.000000 0.250000 0.628299
O O4 0.899891 0.098687 0.613051
O O5 0.766753 0.799967 0.889914
O O6 0.800253 0.927201 0.798507
O O7 0.810845 0.643355 0.817715
O O8 0.712045 0.756607 0.801186
O O9 0.906614 0.587315 0.039826
O O10 0.000000 0.750000 0.046545
O O11 0.000000 0.500000 0.000000
O O12 0.695782 0.017483 0.070798
O O13 0.807027 0.980577 0.094389
O O14 0.750000 0.878368 0.000000
O O15 0.632708 0.832878 0.367522
O O16 0.875148 0.633665 0.232368
O O17 0.628980 0.407901 0.179873
#
# Coordination Sequence:
#
# PCOD9533271 Si02
#       8
#    16  16  16  16  16   8  16  16
#     4  11  23  41  63  90 133 189 230 286 337 400
#     4  11  22  43  64  99 136 184 234 280 348 422
#     4  11  23  40  61  94 132 181 244 286 335 393
#     4  11  23  39  62  96 141 191 223 268 345 424
#     4  12  22  42  62  90 135 179 228 279 342 414
#     4  12  22  44  68  94 142 180 230 290 352 432
#     4  11  23  42  62 100 142 176 239 276 345 432
#     4  11  24  38  66  97 130 176 223 286 352 410
#
# _framework density 21.834709
#
# number of rings (size 3 to 8) (size 9 to 14) (size 15 to 20)
#    0.000    0.800    6.667    2.000    1.867    3.200 
#    0.000    0.000    0.000    0.000    0.000   18.667 
#    0.000    1.067    0.000    0.000    0.000    0.000 
#
# Total GULP energy -334666.423880 kJ/mol
# GULP energy per Si atom -5577.773731 kJ/mol
# Density = 2.178501 g / cm^3
# Si number density = 21.834709 Si / 1000 Ang^3
#
#
#
# Elastic Constant Matrix: (Units=GPa)
#
#
# Indices 1 2 3 4 5 6 
#
# 1 88.1762 28.2147 5.9527 0.0000 0.0000 0.0000
# 2 28.2147 161.0424 28.0534 0.0000 0.0000 0.0000
# 3 5.9527 28.0534 66.1449 0.0000 0.0000 0.0000
# 4 0.0000 0.0000 0.0000 39.8642 0.0000 0.0000
# 5 0.0000 0.0000 0.0000 0.0000 6.4006 0.0000
# 6 0.0000 0.0000 0.0000 0.0000 0.0000 32.7234
#
#
#
# Elastic Compliance Matrix: (Units=1/GPa)
#
#
# Indices 1 2 3 4 5 6 
#
# 1 0.012017 -0.002070 -0.000204 0.000000 0.000000 0.000000
# 2 -0.002070 0.007061 -0.002809 0.000000 0.000000 0.000000
# 3 -0.000204 -0.002809 0.016328 0.000000 0.000000 0.000000
# 4 0.000000 0.000000 0.000000 0.025085 0.000000 0.000000
# 5 0.000000 0.000000 0.000000 0.000000 0.156236 0.000000
# 6 0.000000 0.000000 0.000000 0.000000 0.000000 0.030559
#
#
# Mechanical properties :
#
#
# Convention : Reuss Voigt Hill
#
# Bulk Modulus (GPa) = 39.61639 48.86723 44.24181
# Shear Modulus (GPa) = 18.80657 32.67382 25.74019
#
# Velocity S-wave (km/s) = 2.93800 3.87255 3.43719
# Velocity P-wave (km/s) = 5.44906 6.51342 6.00487
#
# Compressibility (1/GPa) = 0.02524208
#
# Stress axis : x y z
#
# Youngs Moduli (GPa) = 83.21534 141.61375 61.24505
#
# Poissons Ratio (x) = 0.29313 0.01247
# Poissons Ratio (y) = 0.17225 0.17201
# Poissons Ratio (z) = 0.01694 0.39774
#
# Static dielectric constant tensor:
#      x y z
#    x 1.834510 0.000000 0.000000 
#    y 0.000000 1.855930 0.000000 
#    z 0.000000 0.000000 1.912310 
# 
# From -- ./inp_files/30520.got.cif
#   From: 2010.05.17/outbox.cif.g08.bks.cpg/sg73_16_cif.got.tgz:30520.got - 2010.06.03 17:35:07.
