data_PCOD9533728
_publ_section_title
;
Structure prediction by ZEFSAII (Michael W. Deem and Ramdas Pophale) SiO2 
 PCOD9533728
Probable space group: I B C A 
;
_chemical_formula_sum "Si O2"
_cell_formula_units_Z 128
_cell_length_a 32.899846
_cell_length_b 13.529858
_cell_length_c 11.114468
_cell_angle_alpha 90.000000
_cell_angle_beta 90.000000
_cell_angle_gamma 90.000000
_cell_volume 4947.385859
_symmetry_space_group_name_H-M "I B C A "
_symmetry_group_IT_number 73
_symmetry_cell_setting 'orthorhombic'
loop_
_space_group_symop_operation_xyz
x,y,z
-x,1/2-y,z
x,-y,1/2-z
1/2-x,y,-z
-x,-y,-z
x,1/2+y,-z
-x,y,1/2+z
1/2+x,-y,z
1/2+x,1/2+y,1/2+z
1/2-x,-y,1/2+z
1/2+x,1/2-y,-z
-x,1/2+y,1/2-z
1/2-x,1/2-y,1/2-z
1/2+x,y,1/2-z
1/2-x,1/2+y,z
x,1/2-y,1/2+z
loop_
_atom_site_type_symbol
_atom_site_label
_atom_site_fract_x
_atom_site_fract_y
_atom_site_fract_z
Si Si1 0.227515 0.857785 0.623210
Si Si2 0.905751 0.367931 0.419992
Si Si3 0.479157 0.858091 0.583949
Si Si4 0.131147 0.873525 0.836757
Si Si5 0.497246 0.629988 0.333595
Si Si6 0.364545 0.655929 0.917689
Si Si7 0.274702 0.096072 0.382473
Si Si8 0.386105 0.140426 0.831278
O O1 0.250000 0.829697 0.500000
O O2 0.182021 0.814921 0.610357
O O3 0.242524 0.850618 0.762255
O O4 0.226153 0.977426 0.619931
O O5 0.896669 0.405885 0.552592
O O6 0.951862 0.389031 0.383747
O O7 0.894481 0.250590 0.426659
O O8 0.880669 0.403102 0.302487
O O9 0.500000 0.750000 0.568134
O O10 0.476504 0.900095 0.449220
O O11 0.503462 0.905941 0.696438
O O12 0.433900 0.858161 0.636671
O O13 0.124109 0.907558 0.699458
O O14 0.177303 0.884114 0.880608
O O15 0.125731 0.755200 0.821934
O O16 0.500000 0.750000 0.319212
O O17 0.364475 0.603373 0.047709
O O18 0.250000 0.125394 0.500000
#
# Coordination Sequence:
#
# PCOD9533728 Si02
#       8
#    16  16  16  16  16  16  16  16
#     4   9  18  32  48  64  80 100 131 170 207 242
#     4   9  17  27  39  59  87 114 137 162 196 240
#     4   9  15  22  34  53  79 110 139 164 191 227
#     4   9  16  27  43  60  80 107 134 162 199 240
#     4   9  15  22  34  53  79 110 139 164 191 227
#     4   9  16  27  43  60  80 107 134 162 199 240
#     4   9  18  32  48  64  80 100 131 170 207 242
#     4   9  17  27  39  59  87 114 137 162 196 240
#
# _framework density 25.872247999999999
#
# number of rings (size 3 to 8) (size 9 to 14) (size 15 to 20)
#    0.000    3.000    0.000    3.000    0.000    4.000 
#    0.000    2.500    0.000   13.500    0.000    0.000 
#    0.000   16.000    0.000   62.000    0.000   23.000 
#
# Total GULP energy -357168.883856 kJ/mol
# GULP energy per Si atom -5580.763810 kJ/mol
# Density = 2.581336 g / cm^3
# Si number density = 25.872248 Si / 1000 Ang^3
#
#
#
# Elastic Constant Matrix: (Units=GPa)
#
#
# Indices 1 2 3 4 5 6 
#
# 1 43.4899 -2.7750 51.9106 0.0000 0.0000 0.0000
# 2 -2.7750 57.7955 -19.0641 0.0000 0.0000 0.0000
# 3 51.9106 -19.0641 272.5041 0.0000 0.0000 0.0000
# 4 0.0000 0.0000 0.0000 -86.3908 0.0000 0.0000
# 5 0.0000 0.0000 0.0000 0.0000 48.2163 0.0000
# 6 0.0000 0.0000 0.0000 0.0000 0.0000 6.9551
#
#
#
# Elastic Compliance Matrix: (Units=1/GPa)
#
#
# Indices 1 2 3 4 5 6 
#
# 1 0.029772 -0.000452 -0.005703 0.000000 0.000000 0.000000
# 2 -0.000452 0.017718 0.001326 0.000000 0.000000 0.000000
# 3 -0.005703 0.001326 0.004849 0.000000 0.000000 0.000000
# 4 0.000000 0.000000 0.000000 -0.011575 0.000000 0.000000
# 5 0.000000 0.000000 0.000000 0.000000 0.020740 0.000000
# 6 0.000000 0.000000 0.000000 0.000000 0.000000 0.143779
#
#
# Mechanical properties :
#
#
# Convention : Reuss Voigt Hill
#
# Bulk Modulus (GPa) = 23.42975 48.21470 35.82222
# Shear Modulus (GPa) = 21.81802 16.67066 19.24434
#
# Velocity S-wave (km/s) = 2.90711 2.54115 2.73027
# Velocity P-wave (km/s) = 4.51043 5.22361 4.88006
#
# Compressibility (1/GPa) = 0.04268079
#
# Stress axis : x y z
#
# Youngs Moduli (GPa) = 33.58818 56.43995 206.23621
#
# Poissons Ratio (x) = 0.02549 1.17618
# Poissons Ratio (y) = 0.01517 -0.27338
# Poissons Ratio (z) = 0.19156 -0.07481
#
# Static dielectric constant tensor:
#      x y z
#    x 2.031600 0.000000 0.000000 
#    y 0.000000 2.004820 0.000000 
#    z 0.000000 0.000000 2.362640 
# 
# From -- ./inp_files/14470.got.cif
#   From: 2010.05.17/outbox.cif.g08.bks.cpg/sg73_8_cif.got.tgz:14470.got - 2010.06.03 17:35:07.
