data_PCOD9533977
_publ_section_title
;
Structure prediction by ZEFSAII (Michael W. Deem and Ramdas Pophale) SiO2 
 PCOD9533977
Probable space group: I M M A
;
_chemical_formula_sum "Si O2"
_cell_formula_units_Z 96
_cell_length_a 8.806682
_cell_length_b 19.035873
_cell_length_c 32.575365
_cell_angle_alpha 90.000000
_cell_angle_beta 90.000000
_cell_angle_gamma 90.000000
_cell_volume 5461.028009
_symmetry_space_group_name_H-M "I M M A"
_symmetry_group_IT_number 74
_symmetry_cell_setting 'orthorhombic'
loop_
_space_group_symop_operation_xyz
x,y,z
-x,1/2-y,z
x,-y,-z
-x,1/2+y,-z
-x,-y,-z
x,1/2+y,-z
-x,y,z
x,1/2-y,z
1/2+x,1/2+y,1/2+z
1/2-x,-y,1/2+z
1/2+x,1/2-y,1/2-z
1/2-x,y,1/2-z
1/2-x,1/2-y,1/2-z
1/2+x,y,1/2-z
1/2-x,1/2+y,1/2+z
1/2+x,-y,1/2+z
loop_
_atom_site_type_symbol
_atom_site_label
_atom_site_fract_x
_atom_site_fract_y
_atom_site_fract_z
Si Si1 0.182821 0.418443 0.123476
Si Si2 0.682397 0.919546 0.291139
Si Si3 0.181506 0.415903 0.881931
Si Si4 0.181089 0.168378 0.542943
Si Si5 0.182663 0.668161 0.956795
Si Si6 0.181256 0.077643 0.291638
O O1 0.218768 0.500985 0.117205
O O2 0.228571 0.375751 0.083096
O O3 0.261575 0.391832 0.165139
O O4 0.000000 0.413323 0.128712
O O5 0.500000 0.925003 0.287804
O O6 0.750000 0.885175 0.250000
O O7 0.719249 0.888455 0.335945
O O8 0.752714 0.997971 0.292396
O O9 0.261655 0.375280 0.918370
O O10 0.000000 0.409794 0.886976
O O11 0.229525 0.250000 0.547457
O O12 0.248275 0.142280 0.499665
O O13 0.000000 0.166158 0.540895
O O14 0.226006 0.750000 0.951789
O O15 0.000000 0.664515 0.959792
O O16 0.250000 0.110351 0.250000
O O17 0.000000 0.076195 0.289384
#
# Coordination Sequence:
#
# PCOD9533977 Si02
#       6
#    16  16  16  16  16  16
#     4   9  18  32  49  73 101 124 155 198 239 279
#     4   9  16  27  44  68  97 127 158 193 234 279
#     4   9  18  31  48  71  98 127 157 193 236 280
#     4  10  21  35  50  69  94 124 159 200 240 280
#     4   9  18  34  55  73  92 125 162 193 233 288
#     4  10  17  26  43  67  96 129 161 193 233 279
#
# _framework density 17.579108000000002
#
# number of rings (size 3 to 8) (size 9 to 14) (size 15 to 20)
#    0.000    2.667    0.000    4.500    0.000    5.667 
#    0.000    3.333    0.000    1.000    0.000    0.000 
#    0.000    0.000    0.000    0.000    0.000    0.000 
#
# Total GULP energy -267454.565545 kJ/mol
# GULP energy per Si atom -5571.970116 kJ/mol
# Density = 1.753910 g / cm^3
# Si number density = 17.579108 Si / 1000 Ang^3
#
#
#
# Elastic Constant Matrix: (Units=GPa)
#
#
# Indices 1 2 3 4 5 6 
#
# 1 54.8391 20.6589 68.1815 0.0000 0.0000 0.0000
# 2 20.6589 25.1340 53.9643 0.0000 0.0000 0.0000
# 3 68.1815 53.9643 221.9874 0.0000 0.0000 0.0000
# 4 0.0000 0.0000 0.0000 -17.5516 0.0000 0.0000
# 5 0.0000 0.0000 0.0000 0.0000 35.3438 0.0000
# 6 0.0000 0.0000 0.0000 0.0000 0.0000 14.6389
#
#
#
# Elastic Compliance Matrix: (Units=1/GPa)
#
#
# Indices 1 2 3 4 5 6 
#
# 1 0.030760 -0.010456 -0.006906 0.000000 0.000000 0.000000
# 2 -0.010456 0.086780 -0.017884 0.000000 0.000000 0.000000
# 3 -0.006906 -0.017884 0.010973 0.000000 0.000000 0.000000
# 4 0.000000 0.000000 0.000000 -0.056975 0.000000 0.000000
# 5 0.000000 0.000000 0.000000 0.000000 0.028294 0.000000
# 6 0.000000 0.000000 0.000000 0.000000 0.000000 0.068311
#
#
# Mechanical properties :
#
#
# Convention : Reuss Voigt Hill
#
# Bulk Modulus (GPa) = 17.23512 65.28556 41.26034
# Shear Modulus (GPa) = 19.38162 17.09660 18.23911
#
# Velocity S-wave (km/s) = 3.32405 3.12196 3.22459
# Velocity P-wave (km/s) = 4.95560 7.08620 6.11442
#
# Compressibility (1/GPa) = 0.05802107
#
# Stress axis : x y z
#
# Youngs Moduli (GPa) = 32.50946 11.52340 91.12866
#
# Poissons Ratio (x) = 0.12049 0.62933
# Poissons Ratio (y) = 0.33992 1.62978
# Poissons Ratio (z) = 0.22451 0.20609
#
# Static dielectric constant tensor:
#      x y z
#    x 1.586150 0.000000 0.000000 
#    y 0.000000 1.584490 0.000000 
#    z 0.000000 0.000000 1.638410 
# 
# From -- ./inp_files/64294.got.cif
#   From: 2010.05.17/outbox.cif.g08.bks.cpg/sg74_33_cif.got.tgz:64294.got - 2010.06.03 17:57:02.
