data_PCOD9533370
_publ_section_title
;
Structure prediction by ZEFSAII (Michael W. Deem and Ramdas Pophale) SiO2 
 PCOD9533370
Probable space group: I B C A 
;
_chemical_formula_sum "Si O2"
_cell_formula_units_Z 64
_cell_length_a 5.132866
_cell_length_b 17.931712
_cell_length_c 30.210742
_cell_angle_alpha 90.000000
_cell_angle_beta 90.000000
_cell_angle_gamma 90.000000
_cell_volume 2780.629166
_symmetry_space_group_name_H-M "I B C A "
_symmetry_group_IT_number 73
_symmetry_cell_setting 'orthorhombic'
loop_
_space_group_symop_operation_xyz
x,y,z
-x,1/2-y,z
x,-y,1/2-z
1/2-x,y,-z
-x,-y,-z
x,1/2+y,-z
-x,y,1/2+z
1/2+x,-y,z
1/2+x,1/2+y,1/2+z
1/2-x,-y,1/2+z
1/2+x,1/2-y,-z
-x,1/2+y,1/2-z
1/2-x,1/2-y,1/2-z
1/2+x,y,1/2-z
1/2-x,1/2+y,z
x,1/2-y,1/2+z
loop_
_atom_site_type_symbol
_atom_site_label
_atom_site_fract_x
_atom_site_fract_y
_atom_site_fract_z
Si Si1 0.916999 0.836002 0.871229
Si Si2 0.561436 0.160966 0.272100
Si Si3 0.067520 0.163097 0.959306
Si Si4 0.269481 0.446848 0.918098
O O1 0.824093 0.848861 0.821289
O O2 0.721279 0.846951 0.912466
O O3 0.000000 0.750000 0.874223
O O4 0.159696 0.892160 0.877518
O O5 0.500000 0.250000 0.266958
O O6 0.274531 0.130382 0.262023
O O7 0.000000 0.250000 0.964434
O O8 0.807017 0.114680 0.954481
O O9 0.250000 0.139639 0.000000
O O10 0.522729 0.498665 0.920232
#
# Coordination Sequence:
#
# PCOD9533370 Si02
#       4
#    16  16  16  16
#     4  11  23  44  74 103 141 188 240 299 362 431
#     4   9  20  35  63 103 137 170 227 299 362 421
#     4  12  27  45  74 107 145 193 250 303 358 434
#     4  12  27  47  71 105 144 189 238 293 359 428
#
# _framework density 23.016373999999999
#
# number of rings (size 3 to 8) (size 9 to 14) (size 15 to 20)
#    0.000    1.000    5.000    0.750    3.500    2.000 
#    0.000    0.000    0.000    4.500    0.000    0.000 
#    0.000    0.000    0.000    0.000    0.000    0.000 
#
# Total GULP energy -178504.662187 kJ/mol
# GULP energy per Si atom -5578.270693 kJ/mol
# Density = 2.296399 g / cm^3
# Si number density = 23.016374 Si / 1000 Ang^3
#
#
#
# Elastic Constant Matrix: (Units=GPa)
#
#
# Indices 1 2 3 4 5 6 
#
# 1 135.5984 26.3545 23.5063 0.0000 0.0000 0.0000
# 2 26.3545 118.0330 -17.1782 0.0000 0.0000 0.0000
# 3 23.5063 -17.1782 88.1099 0.0000 0.0000 0.0000
# 4 0.0000 0.0000 0.0000 12.1702 0.0000 0.0000
# 5 0.0000 0.0000 0.0000 0.0000 41.1367 0.0000
# 6 0.0000 0.0000 0.0000 0.0000 0.0000 25.7057
#
#
#
# Elastic Compliance Matrix: (Units=1/GPa)
#
#
# Indices 1 2 3 4 5 6 
#
# 1 0.008266 -0.002230 -0.002640 0.000000 0.000000 0.000000
# 2 -0.002230 0.009321 0.002412 0.000000 0.000000 0.000000
# 3 -0.002640 0.002412 0.012524 0.000000 0.000000 0.000000
# 4 0.000000 0.000000 0.000000 0.082168 0.000000 0.000000
# 5 0.000000 0.000000 0.000000 0.000000 0.024309 0.000000
# 6 0.000000 0.000000 0.000000 0.000000 0.000000 0.038902
#
#
# Mechanical properties :
#
#
# Convention : Reuss Voigt Hill
#
# Bulk Modulus (GPa) = 39.68907 45.23405 42.46156
# Shear Modulus (GPa) = 26.48253 36.40643 31.44448
#
# Velocity S-wave (km/s) = 3.39572 3.98145 3.70020
# Velocity P-wave (km/s) = 5.71453 6.38996 6.06166
#
# Compressibility (1/GPa) = 0.02519585
#
# Stress axis : x y z
#
# Youngs Moduli (GPa) = 120.98152 107.28304 79.84652
#
# Poissons Ratio (x) = 0.23922 0.21079
# Poissons Ratio (y) = 0.26976 -0.19260
# Poissons Ratio (z) = 0.31938 -0.25878
#
# Static dielectric constant tensor:
#      x y z
#    x 1.940380 0.000000 0.000000 
#    y 0.000000 1.876930 0.000000 
#    z 0.000000 0.000000 1.883320 
# 
# From -- ./inp_files/1128.got.cif
#   From: 2010.05.17/outbox.cif.g08.bks.cpg/sg73_1_cif.got.tgz:1128.got - 2010.06.03 17:35:07.
