data_PCOD9533827
_publ_section_title
;
Structure prediction by ZEFSAII (Michael W. Deem and Ramdas Pophale) SiO2 
 PCOD9533827
Probable space group: I M M A
;
_chemical_formula_sum "Si O2"
_cell_formula_units_Z 76
_cell_length_a 9.897020
_cell_length_b 14.182945
_cell_length_c 22.063529
_cell_angle_alpha 90.000000
_cell_angle_beta 90.000000
_cell_angle_gamma 90.000000
_cell_volume 3097.033082
_symmetry_space_group_name_H-M "I M M A"
_symmetry_group_IT_number 74
_symmetry_cell_setting 'orthorhombic'
loop_
_space_group_symop_operation_xyz
x,y,z
-x,1/2-y,z
x,-y,-z
-x,1/2+y,-z
-x,-y,-z
x,1/2+y,-z
-x,y,z
x,1/2-y,z
1/2+x,1/2+y,1/2+z
1/2-x,-y,1/2+z
1/2+x,1/2-y,1/2-z
1/2-x,y,1/2-z
1/2-x,1/2-y,1/2-z
1/2+x,y,1/2-z
1/2-x,1/2+y,1/2+z
1/2+x,-y,1/2+z
loop_
_atom_site_type_symbol
_atom_site_label
_atom_site_fract_x
_atom_site_fract_y
_atom_site_fract_z
Si Si1 0.000000 0.250000 0.307227
Si Si2 0.343777 0.639059 0.988885
Si Si3 0.244242 0.145506 0.874062
Si Si4 0.500000 0.350228 0.783158
Si Si5 0.720946 0.443532 0.373399
Si Si6 0.787265 0.750000 0.821853
Si Si7 0.000000 0.951020 0.702343
O O1 0.867187 0.250000 0.347654
O O2 0.000000 0.346638 0.270097
O O3 0.500000 0.612783 0.978451
O O4 0.326481 0.750000 0.976484
O O5 0.249832 0.581043 0.943372
O O6 0.310673 0.630311 0.059819
O O7 0.179359 0.250000 0.873965
O O8 0.365912 0.150888 0.825112
O O9 0.162724 0.048482 0.864703
O O10 0.500000 0.250000 0.748743
O O11 0.500000 0.455850 0.756968
O O12 0.655869 0.349424 0.344568
O O13 0.866203 0.452171 0.338981
O O14 0.750000 0.750000 0.750000
#
# Coordination Sequence:
#
# PCOD9533827 Si02
#       7
#     4  16  16   8  16   8   8
#     4   8  16  28  42  58  72  94 124 170 222 242
#     4  10  16  20  31  51  80 112 145 170 187 227
#     4   9  16  22  29  48  75 106 136 161 187 230
#     4   8  12  19  25  40  68 100 130 156 178 199
#     4  10  16  24  36  48  71 104 136 173 201 231
#     4  10  20  32  44  60  76 100 144 188 217 241
#     4   8  14  19  32  47  64  92 130 162 190 224
#
# _framework density 24.539615999999999
#
# number of rings (size 3 to 8) (size 9 to 14) (size 15 to 20)
#    0.000    2.737    3.158    0.632    0.000    0.842 
#    0.000    0.000    0.000    0.632    0.000    0.000 
#    0.000    0.000    0.000    3.789    0.000    0.000 
#
# Total GULP energy -211830.154007 kJ/mol
# GULP energy per Si atom -5574.477737 kJ/mol
# Density = 2.448376 g / cm^3
# Si number density = 24.539616 Si / 1000 Ang^3
#
#
#
# Elastic Constant Matrix: (Units=GPa)
#
#
# Indices 1 2 3 4 5 6 
#
# 1 56.7298 5.0601 15.1719 0.0000 0.0000 0.0000
# 2 5.0601 312.9739 18.0535 0.0000 0.0000 0.0000
# 3 15.1719 18.0535 86.7445 0.0000 0.0000 0.0000
# 4 0.0000 0.0000 0.0000 -145.7933 0.0000 0.0000
# 5 0.0000 0.0000 0.0000 0.0000 5.2627 0.0000
# 6 0.0000 0.0000 0.0000 0.0000 0.0000 -54.6776
#
#
#
# Elastic Compliance Matrix: (Units=1/GPa)
#
#
# Indices 1 2 3 4 5 6 
#
# 1 0.018496 -0.000114 -0.003211 0.000000 0.000000 0.000000
# 2 -0.000114 0.003235 -0.000653 0.000000 0.000000 0.000000
# 3 -0.003211 -0.000653 0.012226 0.000000 0.000000 0.000000
# 4 0.000000 0.000000 0.000000 -0.006859 0.000000 0.000000
# 5 0.000000 0.000000 0.000000 0.000000 0.190017 0.000000
# 6 0.000000 0.000000 0.000000 0.000000 0.000000 -0.018289
#
#
# Mechanical properties :
#
#
# Convention : Reuss Voigt Hill
#
# Bulk Modulus (GPa) = 38.46176 59.22436 48.84306
# Shear Modulus (GPa) = 23.20731 -11.16415 6.02158
#
# Velocity S-wave (km/s) = 3.07857 -2.13526 1.56817
# Velocity P-wave (km/s) = 5.32392 4.25529 4.81932
#
# Compressibility (1/GPa) = 0.02599985
#
# Stress axis : x y z
#
# Youngs Moduli (GPa) = 54.06446 309.14956 81.79444
#
# Poissons Ratio (x) = 0.03518 0.26268
# Poissons Ratio (y) = 0.00615 0.05344
# Poissons Ratio (z) = 0.17362 0.20197
#
# Static dielectric constant tensor:
#      x y z
#    x 1.961720 0.000000 0.000000 
#    y 0.000000 2.084360 0.000000 
#    z 0.000000 0.000000 1.902870 
# 
# From -- ./inp_files/32169.got.cif
#   From: 2010.05.17/outbox.cif.g08.bks.cpg/sg74_17_cif.got.tgz:32169.got - 2010.06.03 17:57:02.
