data_PCOD9533272
_publ_section_title
;
Structure prediction by ZEFSAII (Michael W. Deem and Ramdas Pophale) SiO2 
 PCOD9533272
Probable space group: I B C A 
;
_chemical_formula_sum "Si O2"
_cell_formula_units_Z 104
_cell_length_a 25.191761
_cell_length_b 8.906678
_cell_length_c 21.880019
_cell_angle_alpha 90.000000
_cell_angle_beta 90.000000
_cell_angle_gamma 90.000000
_cell_volume 4909.327151
_symmetry_space_group_name_H-M "I B C A "
_symmetry_group_IT_number 73
_symmetry_cell_setting 'orthorhombic'
loop_
_space_group_symop_operation_xyz
x,y,z
-x,1/2-y,z
x,-y,1/2-z
1/2-x,y,-z
-x,-y,-z
x,1/2+y,-z
-x,y,1/2+z
1/2+x,-y,z
1/2+x,1/2+y,1/2+z
1/2-x,-y,1/2+z
1/2+x,1/2-y,-z
-x,1/2+y,1/2-z
1/2-x,1/2-y,1/2-z
1/2+x,y,1/2-z
1/2-x,1/2+y,z
x,1/2-y,1/2+z
loop_
_atom_site_type_symbol
_atom_site_label
_atom_site_fract_x
_atom_site_fract_y
_atom_site_fract_z
Si Si1 0.089287 0.373000 0.563829
Si Si2 0.009334 0.500000 0.750000
Si Si3 0.818380 0.487643 0.360123
Si Si4 0.590987 0.716987 0.817653
Si Si5 0.861548 0.000000 0.250000
Si Si6 0.724144 0.302257 0.313976
Si Si7 0.000000 0.250000 0.155271
Si Si8 0.058515 0.192968 0.456542
O O1 0.142998 0.457433 0.585256
O O2 0.052359 0.296373 0.616095
O O3 0.096650 0.257888 0.508787
O O4 0.056014 0.514735 0.541085
O O5 0.044878 0.377773 0.785922
O O6 0.985084 0.605088 0.803257
O O7 0.858393 0.393768 0.317189
O O8 0.766787 0.379616 0.359492
O O9 0.798776 0.647223 0.337402
O O10 0.576021 0.742336 0.888494
O O11 0.605201 0.869988 0.783383
O O12 0.822520 0.080885 0.201540
O O13 0.750000 0.250000 0.250000
O O14 0.000000 0.250000 0.469451
#
# Coordination Sequence:
#
# PCOD9533272 Si02
#       8
#    16   8  16  16   8  16   8  16
#     4  11  26  46  75  97 145 185 257 306 359 433
#     4  12  26  44  64  98 156 180 232 294 376 448
#     4  11  22  43  66 103 137 179 239 300 361 430
#     4  11  25  43  66 105 145 187 239 308 366 446
#     4  12  24  36  68 102 140 188 230 292 376 446
#     4  12  21  37  68  99 139 184 234 285 365 452
#     4  12  26  46  66 106 140 204 218 310 368 436
#     4  11  24  46  72 100 138 193 252 304 352 441
#
# _framework density 21.184166999999999
#
# number of rings (size 3 to 8) (size 9 to 14) (size 15 to 20)
#    0.000    0.615    6.923    1.385    1.077    3.077 
#    0.000    0.000    0.000   19.385    0.000    0.000 
#    0.000    0.000    0.000    0.000    0.000    0.000 
#
# Total GULP energy -290367.883368 kJ/mol
# GULP energy per Si atom -5583.997757 kJ/mol
# Density = 2.113595 g / cm^3
# Si number density = 21.184167 Si / 1000 Ang^3
#
#
#
# Elastic Constant Matrix: (Units=GPa)
#
#
# Indices 1 2 3 4 5 6 
#
# 1 47.1447 50.7148 35.3225 0.0000 0.0000 0.0000
# 2 50.7148 172.9094 57.8822 0.0000 0.0000 0.0000
# 3 35.3225 57.8822 104.0536 0.0000 0.0000 0.0000
# 4 0.0000 0.0000 0.0000 46.1635 0.0000 0.0000
# 5 0.0000 0.0000 0.0000 0.0000 128.0547 0.0000
# 6 0.0000 0.0000 0.0000 0.0000 0.0000 53.2614
#
#
#
# Elastic Compliance Matrix: (Units=1/GPa)
#
#
# Indices 1 2 3 4 5 6 
#
# 1 0.035342 -0.007803 -0.007657 0.000000 0.000000 0.000000
# 2 -0.007803 0.008829 -0.002263 0.000000 0.000000 0.000000
# 3 -0.007657 -0.002263 0.013468 0.000000 0.000000 0.000000
# 4 0.000000 0.000000 0.000000 0.021662 0.000000 0.000000
# 5 0.000000 0.000000 0.000000 0.000000 0.007809 0.000000
# 6 0.000000 0.000000 0.000000 0.000000 0.000000 0.018775
#
#
# Mechanical properties :
#
#
# Convention : Reuss Voigt Hill
#
# Bulk Modulus (GPa) = 45.05559 67.99408 56.52484
# Shear Modulus (GPa) = 33.61826 57.50848 45.56337
#
# Velocity S-wave (km/s) = 3.98798 5.21592 4.64273
# Velocity P-wave (km/s) = 6.52074 8.27290 7.44852
#
# Compressibility (1/GPa) = 0.02219480
#
# Stress axis : x y z
#
# Youngs Moduli (GPa) = 28.29533 113.25789 74.24789
#
# Poissons Ratio (x) = 0.88371 0.56850
# Poissons Ratio (y) = 0.22078 0.16801
# Poissons Ratio (z) = 0.21665 0.25629
#
# Static dielectric constant tensor:
#      x y z
#    x 1.600730 0.000000 0.000000 
#    y 0.000000 1.735800 0.000000 
#    z 0.000000 0.000000 1.745460 
# 
# From -- ./inp_files/27626.got.cif
#   From: 2010.05.17/outbox.cif.g08.bks.cpg/sg73_14_cif.got.tgz:27626.got - 2010.06.03 17:35:07.
