data_PCOD9533590
_publ_section_title
;
Structure prediction by ZEFSAII (Michael W. Deem and Ramdas Pophale) SiO2 
 PCOD9533590
Probable space group: I B C A 
;
_chemical_formula_sum "Si O2"
_cell_formula_units_Z 56
_cell_length_a 14.185677
_cell_length_b 12.960290
_cell_length_c 13.828651
_cell_angle_alpha 90.000000
_cell_angle_beta 90.000000
_cell_angle_gamma 90.000000
_cell_volume 2542.404232
_symmetry_space_group_name_H-M "I B C A "
_symmetry_group_IT_number 73
_symmetry_cell_setting 'orthorhombic'
loop_
_space_group_symop_operation_xyz
x,y,z
-x,1/2-y,z
x,-y,1/2-z
1/2-x,y,-z
-x,-y,-z
x,1/2+y,-z
-x,y,1/2+z
1/2+x,-y,z
1/2+x,1/2+y,1/2+z
1/2-x,-y,1/2+z
1/2+x,1/2-y,-z
-x,1/2+y,1/2-z
1/2-x,1/2-y,1/2-z
1/2+x,y,1/2-z
1/2-x,1/2+y,z
x,1/2-y,1/2+z
loop_
_atom_site_type_symbol
_atom_site_label
_atom_site_fract_x
_atom_site_fract_y
_atom_site_fract_z
Si Si1 0.750000 0.443201 0.000000
Si Si2 0.226479 0.622468 0.640421
Si Si3 0.106413 0.746481 0.266190
Si Si4 0.396814 0.718883 0.951561
O O1 0.749177 0.512248 0.096913
O O2 0.658634 0.370031 0.994504
O O3 0.179941 0.186007 0.667797
O O4 0.156492 0.645677 0.732304
O O5 0.166513 0.679064 0.556507
O O6 0.097615 0.687729 0.162417
O O7 0.000000 0.750000 0.303326
O O8 0.500000 0.750000 0.983857
#
# Coordination Sequence:
#
# PCOD9533590 Si02
#       4
#     8  16  16  16
#     4  12  22  34  66  96 124 164 210 256 324 378
#     4   9  19  38  63  90 122 164 212 259 310 375
#     4   8  17  40  65  84 126 168 206 260 311 360
#     4   9  20  40  60  86 130 163 206 266 307 368
#
# _framework density 22.026395999999998
#
# number of rings (size 3 to 8) (size 9 to 14) (size 15 to 20)
#    1.714    1.143    0.000    0.857    0.000    2.286 
#    0.000   10.000   12.571    0.000    0.000    0.000 
#    0.000    0.000    0.000    0.000    0.000    0.000 
#
# Total GULP energy -155937.734287 kJ/mol
# GULP energy per Si atom -5569.204796 kJ/mol
# Density = 2.197626 g / cm^3
# Si number density = 22.026396 Si / 1000 Ang^3
#
#
#
# Elastic Constant Matrix: (Units=GPa)
#
#
# Indices 1 2 3 4 5 6 
#
# 1 218.8379 57.4763 28.0591 0.0000 0.0000 0.0000
# 2 57.4763 94.7070 23.1171 0.0000 0.0000 0.0000
# 3 28.0591 23.1171 86.8425 0.0000 0.0000 0.0000
# 4 0.0000 0.0000 0.0000 34.6933 0.0000 0.0000
# 5 0.0000 0.0000 0.0000 0.0000 19.4037 0.0000
# 6 0.0000 0.0000 0.0000 0.0000 0.0000 2.7794
#
#
#
# Elastic Compliance Matrix: (Units=1/GPa)
#
#
# Indices 1 2 3 4 5 6 
#
# 1 0.005509 -0.003111 -0.000952 0.000000 0.000000 0.000000
# 2 -0.003111 0.013049 -0.002469 0.000000 0.000000 0.000000
# 3 -0.000952 -0.002469 0.012480 0.000000 0.000000 0.000000
# 4 0.000000 0.000000 0.000000 0.028824 0.000000 0.000000
# 5 0.000000 0.000000 0.000000 0.000000 0.051537 0.000000
# 6 0.000000 0.000000 0.000000 0.000000 0.000000 0.359791
#
#
# Mechanical properties :
#
#
# Convention : Reuss Voigt Hill
#
# Bulk Modulus (GPa) = 55.63144 68.63245 62.13195
# Shear Modulus (GPa) = 10.19901 30.82427 20.51164
#
# Velocity S-wave (km/s) = 2.15416 3.74495 3.05492
# Velocity P-wave (km/s) = 5.61238 7.06586 6.38064
#
# Compressibility (1/GPa) = 0.01797545
#
# Stress axis : x y z
#
# Youngs Moduli (GPa) = 181.53235 76.63223 80.12986
#
# Poissons Ratio (x) = 0.23839 0.07627
# Poissons Ratio (y) = 0.56471 0.19781
# Poissons Ratio (z) = 0.17278 0.18917
#
# Static dielectric constant tensor:
#      x y z
#    x 1.791710 0.000000 0.000000 
#    y 0.000000 1.776910 0.000000 
#    z 0.000000 0.000000 1.919290 
# 
# From -- ./inp_files/11569.got.cif
#   From: 2010.05.17/outbox.cif.g08.bks.cpg/sg73_6_cif.got.tgz:11569.got - 2010.06.03 17:35:07.
