data_PCOD9533039
_publ_section_title
;
Structure prediction by ZEFSAII (Michael W. Deem and Ramdas Pophale) SiO2 
 PCOD9533039
Probable space group: I B C A 
;
_chemical_formula_sum "Si O2"
_cell_formula_units_Z 112
_cell_length_a 14.891092
_cell_length_b 14.586588
_cell_length_c 25.517358
_cell_angle_alpha 90.000000
_cell_angle_beta 90.000000
_cell_angle_gamma 90.000000
_cell_volume 5542.631044
_symmetry_space_group_name_H-M "I B C A "
_symmetry_group_IT_number 73
_symmetry_cell_setting 'orthorhombic'
loop_
_space_group_symop_operation_xyz
x,y,z
-x,1/2-y,z
x,-y,1/2-z
1/2-x,y,-z
-x,-y,-z
x,1/2+y,-z
-x,y,1/2+z
1/2+x,-y,z
1/2+x,1/2+y,1/2+z
1/2-x,-y,1/2+z
1/2+x,1/2-y,-z
-x,1/2+y,1/2-z
1/2-x,1/2-y,1/2-z
1/2+x,y,1/2-z
1/2-x,1/2+y,z
x,1/2-y,1/2+z
loop_
_atom_site_type_symbol
_atom_site_label
_atom_site_fract_x
_atom_site_fract_y
_atom_site_fract_z
Si Si1 0.000000 0.250000 0.479780
Si Si2 0.225589 0.941315 0.942523
Si Si3 0.568326 0.424663 0.208151
Si Si4 0.797490 0.763322 0.054454
Si Si5 0.933936 0.426763 0.162670
Si Si6 0.243192 0.590026 0.139595
Si Si7 0.000000 0.250000 0.728033
Si Si8 0.016569 0.570192 0.452167
O O1 0.093779 0.265851 0.448982
O O2 0.011180 0.165502 0.518255
O O3 0.267450 0.841225 0.939335
O O4 0.119227 0.941311 0.935069
O O5 0.261849 0.005097 0.898090
O O6 0.250000 0.977849 0.000000
O O7 0.602726 0.500000 0.250000
O O8 0.481405 0.481059 0.185770
O O9 0.646691 0.416198 0.165962
O O10 0.550685 0.322845 0.232237
O O11 0.759672 0.821669 0.102256
O O12 0.750000 0.794703 0.000000
O O13 0.828988 0.416546 0.176583
O O14 0.969286 0.331175 0.187735
O O15 0.955823 0.430916 0.100100
O O16 0.000000 0.500000 0.500000
#
# Coordination Sequence:
#
# PCOD9533039 Si02
#       8
#     8  16  16  16  16  16   8  16
#     4  12  23  39  64  92 144 188 231 269 326 396
#     4  11  22  42  60  97 143 177 223 274 321 406
#     4  10  25  48  70 100 129 172 233 293 342 407
#     4  11  24  40  60 100 138 184 229 273 329 413
#     4  11  25  43  73 100 132 184 223 279 358 405
#     4  12  25  41  70  98 136 172 227 281 345 414
#     4  10  25  49  72  94 138 172 233 295 346 412
#     4  12  23  41  68  97 139 188 223 274 333 409
#
# _framework density 20.20701
#
# number of rings (size 3 to 8) (size 9 to 14) (size 15 to 20)
#    0.000    0.857    4.286    3.429    2.000    4.000 
#    0.000    0.000    0.000    0.000    0.000    0.000 
#    0.000    0.000    0.000    0.000    0.000    0.000 
#
# Total GULP energy -312013.158517 kJ/mol
# GULP energy per Si atom -5571.663545 kJ/mol
# Density = 2.016102 g / cm^3
# Si number density = 20.207010 Si / 1000 Ang^3
#
#
#
# Elastic Constant Matrix: (Units=GPa)
#
#
# Indices 1 2 3 4 5 6 
#
# 1 121.6873 13.2999 12.4382 0.0000 0.0000 0.0000
# 2 13.2999 82.9534 31.1258 0.0000 0.0000 0.0000
# 3 12.4382 31.1258 69.1200 0.0000 0.0000 0.0000
# 4 0.0000 0.0000 0.0000 21.6213 0.0000 0.0000
# 5 0.0000 0.0000 0.0000 0.0000 -0.3004 0.0000
# 6 0.0000 0.0000 0.0000 0.0000 0.0000 18.6219
#
#
#
# Elastic Compliance Matrix: (Units=1/GPa)
#
#
# Indices 1 2 3 4 5 6 
#
# 1 0.008432 -0.000942 -0.001093 0.000000 0.000000 0.000000
# 2 -0.000942 0.014611 -0.006410 0.000000 0.000000 0.000000
# 3 -0.001093 -0.006410 0.017551 0.000000 0.000000 0.000000
# 4 0.000000 0.000000 0.000000 0.046251 0.000000 0.000000
# 5 0.000000 0.000000 0.000000 0.000000 -3.329324 0.000000
# 6 0.000000 0.000000 0.000000 0.000000 0.000000 0.053700
#
#
# Mechanical properties :
#
#
# Convention : Reuss Voigt Hill
#
# Bulk Modulus (GPa) = 42.18683 43.05428 42.62055
# Shear Modulus (GPa) = -1.58028 22.44835 10.43403
#
# Velocity S-wave (km/s) = -0.88529 3.33666 2.27481
# Velocity P-wave (km/s) = 4.45844 6.01642 5.29504
#
# Compressibility (1/GPa) = 0.02370408
#
# Stress axis : x y z
#
# Youngs Moduli (GPa) = 118.58927 68.44072 56.97697
#
# Poissons Ratio (x) = 0.06445 0.06230
# Poissons Ratio (y) = 0.11168 0.36523
# Poissons Ratio (z) = 0.12966 0.43872
#
# Static dielectric constant tensor:
#      x y z
#    x 1.787850 0.000000 0.000000 
#    y 0.000000 1.731510 0.000000 
#    z 0.000000 0.000000 1.733490 
# 
# From -- ./inp_files/19455.got.cif
#   From: 2010.05.17/outbox.cif.g08.bks.cpg/sg73_10_cif.got.tgz:19455.got - 2010.06.03 17:35:07.
