data_PCOD9533429
_publ_section_title
;
Structure prediction by ZEFSAII (Michael W. Deem and Ramdas Pophale) SiO2 
 PCOD9533429
Probable space group: I B C A 
;
_chemical_formula_sum "Si O2"
_cell_formula_units_Z 112
_cell_length_a 30.777342
_cell_length_b 13.969681
_cell_length_c 13.378693
_cell_angle_alpha 90.000000
_cell_angle_beta 90.000000
_cell_angle_gamma 90.000000
_cell_volume 5752.164370
_symmetry_space_group_name_H-M "I B C A "
_symmetry_group_IT_number 73
_symmetry_cell_setting 'orthorhombic'
loop_
_space_group_symop_operation_xyz
x,y,z
-x,1/2-y,z
x,-y,1/2-z
1/2-x,y,-z
-x,-y,-z
x,1/2+y,-z
-x,y,1/2+z
1/2+x,-y,z
1/2+x,1/2+y,1/2+z
1/2-x,-y,1/2+z
1/2+x,1/2-y,-z
-x,1/2+y,1/2-z
1/2-x,1/2-y,1/2-z
1/2+x,y,1/2-z
1/2-x,1/2+y,z
x,1/2-y,1/2+z
loop_
_atom_site_type_symbol
_atom_site_label
_atom_site_fract_x
_atom_site_fract_y
_atom_site_fract_z
Si Si1 0.594981 0.326593 0.605012
Si Si2 0.046165 0.281419 0.219244
Si Si3 0.396419 0.181434 0.936560
Si Si4 0.808864 0.396230 0.367459
Si Si5 0.197291 0.382790 0.637496
Si Si6 0.447646 0.499122 0.985729
Si Si7 0.750000 0.760220 0.500000
Si Si8 0.944825 0.000000 0.250000
O O1 0.563196 0.283908 0.689341
O O2 0.610535 0.235848 0.540423
O O3 0.639304 0.378332 0.638854
O O4 0.569307 0.403925 0.539832
O O5 0.081626 0.259655 0.135414
O O6 0.038471 0.390832 0.250624
O O7 0.000000 0.250000 0.178079
O O8 0.352123 0.146424 0.887064
O O9 0.427605 0.091345 0.958057
O O10 0.798772 0.506271 0.394123
O O11 0.792768 0.377847 0.255013
O O12 0.785494 0.326623 0.445353
O O13 0.227424 0.309401 0.579303
O O14 0.430799 0.499180 0.869820
O O15 0.500000 0.500000 0.000000
#
# Coordination Sequence:
#
# PCOD9533429 Si02
#       8
#    16  16  16  16  16  16   8   8
#     4  12  24  42  67  98 134 180 223 280 334 392
#     4  12  26  42  68  95 133 181 233 275 333 392
#     4  12  24  42  67  98 134 180 223 280 334 392
#     4  11  24  44  69 100 130 170 222 269 333 408
#     4  11  24  44  69 100 130 170 222 269 333 408
#     4  12  26  42  68  95 133 181 233 275 333 392
#     4  12  24  44  72  96 134 168 212 280 348 404
#     4  12  24  44  60  92 132 168 218 284 316 396
#
# _framework density 19.470932000000001
#
# number of rings (size 3 to 8) (size 9 to 14) (size 15 to 20)
#    0.000    0.286    7.143    2.571    0.000    0.571 
#    0.000    0.000    0.000    0.000    0.000    0.000 
#    0.000    0.000    0.000    0.000    0.000    0.000 
#
# Total GULP energy -312206.527393 kJ/mol
# GULP energy per Si atom -5575.116561 kJ/mol
# Density = 1.942662 g / cm^3
# Si number density = 19.470932 Si / 1000 Ang^3
#
#
#
# Elastic Constant Matrix: (Units=GPa)
#
#
# Indices 1 2 3 4 5 6 
#
# 1 67.6493 16.8073 4.6776 0.0000 0.0000 0.0000
# 2 16.8073 99.8895 7.1362 0.0000 0.0000 0.0000
# 3 4.6776 7.1362 52.8260 0.0000 0.0000 0.0000
# 4 0.0000 0.0000 0.0000 40.4259 0.0000 0.0000
# 5 0.0000 0.0000 0.0000 0.0000 8.5780 0.0000
# 6 0.0000 0.0000 0.0000 0.0000 0.0000 21.1488
#
#
#
# Elastic Compliance Matrix: (Units=1/GPa)
#
#
# Indices 1 2 3 4 5 6 
#
# 1 0.015482 -0.002532 -0.001029 0.000000 0.000000 0.000000
# 2 -0.002532 0.010523 -0.001197 0.000000 0.000000 0.000000
# 3 -0.001029 -0.001197 0.019183 0.000000 0.000000 0.000000
# 4 0.000000 0.000000 0.000000 0.024737 0.000000 0.000000
# 5 0.000000 0.000000 0.000000 0.000000 0.116577 0.000000
# 6 0.000000 0.000000 0.000000 0.000000 0.000000 0.047284
#
#
# Mechanical properties :
#
#
# Convention : Reuss Voigt Hill
#
# Bulk Modulus (GPa) = 28.03308 30.84524 29.43916
# Shear Modulus (GPa) = 19.59309 26.81345 23.20327
#
# Velocity S-wave (km/s) = 3.17562 3.71496 3.45583
# Velocity P-wave (km/s) = 5.27966 5.85468 5.57459
#
# Compressibility (1/GPa) = 0.03567214
#
# Stress axis : x y z
#
# Youngs Moduli (GPa) = 64.59026 95.03403 52.12973
#
# Poissons Ratio (x) = 0.24058 0.05364
# Poissons Ratio (y) = 0.16351 0.06242
# Poissons Ratio (z) = 0.06646 0.11379
#
# Static dielectric constant tensor:
#      x y z
#    x 1.663990 0.000000 0.000000 
#    y 0.000000 1.671140 0.000000 
#    z 0.000000 0.000000 1.704230 
# 
# From -- ./inp_files/20074.got.cif
#   From: 2010.05.17/outbox.cif.g08.bks.cpg/sg73_11_cif.got.tgz:20074.got - 2010.06.03 17:35:07.
