data_PCOD9533492
_publ_section_title
;
Structure prediction by ZEFSAII (Michael W. Deem and Ramdas Pophale) SiO2 
 PCOD9533492
Probable space group: I B C A 
;
_chemical_formula_sum "Si O2"
_cell_formula_units_Z 88
_cell_length_a 20.785782
_cell_length_b 12.111069
_cell_length_c 15.256938
_cell_angle_alpha 90.000000
_cell_angle_beta 90.000000
_cell_angle_gamma 90.000000
_cell_volume 3840.751669
_symmetry_space_group_name_H-M "I B C A "
_symmetry_group_IT_number 73
_symmetry_cell_setting 'orthorhombic'
loop_
_space_group_symop_operation_xyz
x,y,z
-x,1/2-y,z
x,-y,1/2-z
1/2-x,y,-z
-x,-y,-z
x,1/2+y,-z
-x,y,1/2+z
1/2+x,-y,z
1/2+x,1/2+y,1/2+z
1/2-x,-y,1/2+z
1/2+x,1/2-y,-z
-x,1/2+y,1/2-z
1/2-x,1/2-y,1/2-z
1/2+x,y,1/2-z
1/2-x,1/2+y,z
x,1/2-y,1/2+z
loop_
_atom_site_type_symbol
_atom_site_label
_atom_site_fract_x
_atom_site_fract_y
_atom_site_fract_z
Si Si1 0.648451 0.273570 0.090603
Si Si2 0.663874 0.140727 0.916320
Si Si3 0.760215 0.536544 0.658398
Si Si4 0.024681 0.000000 0.250000
Si Si5 0.364470 0.334127 0.280354
Si Si6 0.550377 0.039088 0.574121
O O1 0.702328 0.364300 0.113114
O O2 0.642025 0.200941 0.178638
O O3 0.583792 0.341401 0.065012
O O4 0.666947 0.206356 0.005702
O O5 0.644416 0.225083 0.838932
O O6 0.729441 0.074086 0.896451
O O7 0.608108 0.049352 0.924614
O O8 0.792964 0.500000 0.750000
O O9 0.690836 0.583266 0.683973
O O10 0.069461 0.098935 0.213988
O O11 0.982901 0.039653 0.331328
O O12 0.500000 0.000000 0.500000
#
# Coordination Sequence:
#
# PCOD9533492 Si02
#       6
#    16  16  16   8  16  16
#     4  11  25  46  76 107 140 203 247 299 380 437
#     4  11  26  47  75 107 144 196 246 302 376 438
#     4  11  24  50  72 101 151 187 240 317 352 436
#     4  12  26  40  72 108 140 204 242 294 374 428
#     4  12  25  46  70 106 152 190 247 305 365 446
#     4  11  25  47  71 105 152 187 250 313 351 440
#
# _framework density 22.912182000000001
#
# number of rings (size 3 to 8) (size 9 to 14) (size 15 to 20)
#    0.000    0.727    2.727    3.818    2.545    8.727 
#    3.273    0.000    0.000    0.000    0.000    0.000 
#    0.000    0.000    0.000    0.000    0.000    0.000 
#
# Total GULP energy -246467.311695 kJ/mol
# GULP energy per Si atom -5601.529811 kJ/mol
# Density = 2.286003 g / cm^3
# Si number density = 22.912182 Si / 1000 Ang^3
#
#
#
# Elastic Constant Matrix: (Units=GPa)
#
#
# Indices 1 2 3 4 5 6 
#
# 1 88.4076 46.6534 39.4734 0.0000 0.0000 0.0000
# 2 46.6534 123.0834 57.9813 0.0000 0.0000 0.0000
# 3 39.4734 57.9813 148.6971 0.0000 0.0000 0.0000
# 4 0.0000 0.0000 0.0000 47.2416 0.0000 0.0000
# 5 0.0000 0.0000 0.0000 0.0000 33.4472 0.0000
# 6 0.0000 0.0000 0.0000 0.0000 0.0000 58.8987
#
#
#
# Elastic Compliance Matrix: (Units=1/GPa)
#
#
# Indices 1 2 3 4 5 6 
#
# 1 0.014662 -0.004562 -0.002113 0.000000 0.000000 0.000000
# 2 -0.004562 0.011372 -0.003223 0.000000 0.000000 0.000000
# 3 -0.002113 -0.003223 0.008543 0.000000 0.000000 0.000000
# 4 0.000000 0.000000 0.000000 0.021168 0.000000 0.000000
# 5 0.000000 0.000000 0.000000 0.000000 0.029898 0.000000
# 6 0.000000 0.000000 0.000000 0.000000 0.000000 0.016978
#
#
# Mechanical properties :
#
#
# Convention : Reuss Voigt Hill
#
# Bulk Modulus (GPa) = 67.65914 72.04495 69.85205
# Shear Modulus (GPa) = 39.26329 42.32283 40.79306
#
# Velocity S-wave (km/s) = 4.14411 4.30254 4.22407
# Velocity P-wave (km/s) = 7.24514 7.49631 7.37180
#
# Compressibility (1/GPa) = 0.01477997
#
# Stress axis : x y z
#
# Youngs Moduli (GPa) = 68.20227 87.93410 117.05534
#
# Poissons Ratio (x) = 0.40115 0.24739
# Poissons Ratio (y) = 0.31114 0.37730
# Poissons Ratio (z) = 0.14414 0.28344
#
# Static dielectric constant tensor:
#      x y z
#    x 1.872390 0.000000 0.000000 
#    y 0.000000 1.876780 0.000000 
#    z 0.000000 0.000000 1.832780 
# 
# From -- ./inp_files/19277.got.cif
#   From: 2010.05.17/outbox.cif.g08.bks.cpg/sg73_10_cif.got.tgz:19277.got - 2010.06.03 17:35:07.
