data_PCOD9533585
_publ_section_title
;
Structure prediction by ZEFSAII (Michael W. Deem and Ramdas Pophale) SiO2 
 PCOD9533585
Probable space group: I B C A 
;
_chemical_formula_sum "Si O2"
_cell_formula_units_Z 72
_cell_length_a 15.611275
_cell_length_b 19.246369
_cell_length_c 11.123354
_cell_angle_alpha 90.000000
_cell_angle_beta 90.000000
_cell_angle_gamma 90.000000
_cell_volume 3342.126938
_symmetry_space_group_name_H-M "I B C A "
_symmetry_group_IT_number 73
_symmetry_cell_setting 'orthorhombic'
loop_
_space_group_symop_operation_xyz
x,y,z
-x,1/2-y,z
x,-y,1/2-z
1/2-x,y,-z
-x,-y,-z
x,1/2+y,-z
-x,y,1/2+z
1/2+x,-y,z
1/2+x,1/2+y,1/2+z
1/2-x,-y,1/2+z
1/2+x,1/2-y,-z
-x,1/2+y,1/2-z
1/2-x,1/2-y,1/2-z
1/2+x,y,1/2-z
1/2-x,1/2+y,z
x,1/2-y,1/2+z
loop_
_atom_site_type_symbol
_atom_site_label
_atom_site_fract_x
_atom_site_fract_y
_atom_site_fract_z
Si Si1 0.118802 0.070677 0.195570
Si Si2 0.750000 0.901132 0.000000
Si Si3 0.032108 0.327734 0.118558
Si Si4 0.671962 0.789689 0.817810
Si Si5 0.839429 0.852406 0.569820
O O1 0.168572 0.104768 0.308109
O O2 0.048123 0.126982 0.160223
O O3 0.081477 0.000000 0.250000
O O4 0.181382 0.058201 0.081877
O O5 0.797034 0.850688 0.095232
O O6 0.101899 0.315785 0.223861
O O7 0.000000 0.250000 0.086776
O O8 0.081277 0.370982 0.015332
O O9 0.750000 0.750000 0.750000
O O10 0.638077 0.727232 0.899135
O O11 0.750000 0.854579 0.500000
#
# Coordination Sequence:
#
# PCOD9533585 Si02
#       5
#    16   8  16  16  16
#     4  12  30  48  70 108 147 200 247 297 383 449
#     4  12  24  48  74 104 148 194 250 314 368 448
#     4  12  25  43  72 107 147 185 242 317 363 433
#     4  12  20  42  74 112 141 182 247 310 371 431
#     4  12  24  45  72 103 143 187 241 298 370 442
#
# _framework density 21.543168000000001
#
# number of rings (size 3 to 8) (size 9 to 14) (size 15 to 20)
#    0.000    0.000    7.778    1.333    7.778    0.889 
#    0.000    1.111    0.000    0.000    0.000    0.000 
#    0.000    0.000    0.000    0.000    0.000    0.000 
#
# Total GULP energy -201288.305756 kJ/mol
# GULP energy per Si atom -5591.341827 kJ/mol
# Density = 2.149413 g / cm^3
# Si number density = 21.543168 Si / 1000 Ang^3
#
#
#
# Elastic Constant Matrix: (Units=GPa)
#
#
# Indices 1 2 3 4 5 6 
#
# 1 89.8368 22.6574 69.2086 0.0000 0.0000 0.0000
# 2 22.6574 70.5981 8.8354 0.0000 0.0000 0.0000
# 3 69.2086 8.8354 116.8030 0.0000 0.0000 0.0000
# 4 0.0000 0.0000 0.0000 15.9772 0.0000 0.0000
# 5 0.0000 0.0000 0.0000 0.0000 48.0974 0.0000
# 6 0.0000 0.0000 0.0000 0.0000 0.0000 9.3311
#
#
#
# Elastic Compliance Matrix: (Units=1/GPa)
#
#
# Indices 1 2 3 4 5 6 
#
# 1 0.022478 -0.005600 -0.012895 0.000000 0.000000 0.000000
# 2 -0.005600 0.015695 0.002131 0.000000 0.000000 0.000000
# 3 -0.012895 0.002131 0.016041 0.000000 0.000000 0.000000
# 4 0.000000 0.000000 0.000000 0.062589 0.000000 0.000000
# 5 0.000000 0.000000 0.000000 0.000000 0.020791 0.000000
# 6 0.000000 0.000000 0.000000 0.000000 0.000000 0.107169
#
#
# Mechanical properties :
#
#
# Convention : Reuss Voigt Hill
#
# Bulk Modulus (GPa) = 46.54289 53.18229 49.86259
# Shear Modulus (GPa) = 17.56526 26.45023 22.00775
#
# Velocity S-wave (km/s) = 2.85853 3.50777 3.19966
# Velocity P-wave (km/s) = 5.70494 6.41451 6.07010
#
# Compressibility (1/GPa) = 0.02148556
#
# Stress axis : x y z
#
# Youngs Moduli (GPa) = 44.48852 63.71351 62.34098
#
# Poissons Ratio (x) = 0.35680 0.80389
# Poissons Ratio (y) = 0.24914 -0.13284
# Poissons Ratio (z) = 0.57368 -0.13577
#
# Static dielectric constant tensor:
#      x y z
#    x 1.797110 0.000000 0.000000 
#    y 0.000000 1.773890 0.000000 
#    z 0.000000 0.000000 1.849250 
# 
# From -- ./inp_files/10604.got.cif
#   From: 2010.05.17/outbox.cif.g08.bks.cpg/sg73_6_cif.got.tgz:10604.got - 2010.06.03 17:35:07.
