data_PCOD9533397
_publ_section_title
;
Structure prediction by ZEFSAII (Michael W. Deem and Ramdas Pophale) SiO2 
 PCOD9533397
Probable space group: I B C A 
;
_chemical_formula_sum "Si O2"
_cell_formula_units_Z 64
_cell_length_a 13.002884
_cell_length_b 16.628509
_cell_length_c 12.006054
_cell_angle_alpha 90.000000
_cell_angle_beta 90.000000
_cell_angle_gamma 90.000000
_cell_volume 2595.931871
_symmetry_space_group_name_H-M "I B C A "
_symmetry_group_IT_number 73
_symmetry_cell_setting 'orthorhombic'
loop_
_space_group_symop_operation_xyz
x,y,z
-x,1/2-y,z
x,-y,1/2-z
1/2-x,y,-z
-x,-y,-z
x,1/2+y,-z
-x,y,1/2+z
1/2+x,-y,z
1/2+x,1/2+y,1/2+z
1/2-x,-y,1/2+z
1/2+x,1/2-y,-z
-x,1/2+y,1/2-z
1/2-x,1/2-y,1/2-z
1/2+x,y,1/2-z
1/2-x,1/2+y,z
x,1/2-y,1/2+z
loop_
_atom_site_type_symbol
_atom_site_label
_atom_site_fract_x
_atom_site_fract_y
_atom_site_fract_z
Si Si1 0.693538 0.004180 0.874551
Si Si2 0.982383 0.630080 0.641786
Si Si3 0.863557 0.827199 0.450243
Si Si4 0.868115 0.225719 0.742987
O O1 0.595376 0.944169 0.869077
O O2 0.746851 0.000000 0.750000
O O3 0.654669 0.095704 0.872936
O O4 0.750000 0.994026 0.000000
O O5 0.048816 0.643220 0.532057
O O6 0.077696 0.640958 0.730463
O O7 0.914579 0.707805 0.672754
O O8 0.750000 0.812503 0.500000
O O9 0.893319 0.749285 0.382318
O O10 0.750000 0.250000 0.750000
#
# Coordination Sequence:
#
# PCOD9533397 Si02
#       4
#    16  16  16  16
#     4  11  25  53  81 117 161 208 271 336 403 482
#     4  11  25  48  74 113 151 213 257 332 403 487
#     4  11  23  49  77 109 156 206 268 333 402 482
#     4  11  24  48  73 107 158 202 259 324 403 482
#
# _framework density 24.653960000000001
#
# number of rings (size 3 to 8) (size 9 to 14) (size 15 to 20)
#    0.000    1.000    5.000    0.750    0.000    4.000 
#   27.000    3.750    0.000    0.000    0.000    0.000 
#    0.000    0.000    0.000    0.000    0.000    0.000 
#
# Total GULP energy -178152.461798 kJ/mol
# GULP energy per Si atom -5567.264431 kJ/mol
# Density = 2.459785 g / cm^3
# Si number density = 24.653960 Si / 1000 Ang^3
#
#
#
# Elastic Constant Matrix: (Units=GPa)
#
#
# Indices 1 2 3 4 5 6 
#
# 1 180.0575 29.2263 45.6430 0.0000 0.0000 0.0000
# 2 29.2263 64.6589 43.6856 0.0000 0.0000 0.0000
# 3 45.6430 43.6856 159.6679 0.0000 0.0000 0.0000
# 4 0.0000 0.0000 0.0000 -232.2330 0.0000 0.0000
# 5 0.0000 0.0000 0.0000 0.0000 31.9275 0.0000
# 6 0.0000 0.0000 0.0000 0.0000 0.0000 51.4232
#
#
#
# Elastic Compliance Matrix: (Units=1/GPa)
#
#
# Indices 1 2 3 4 5 6 
#
# 1 0.006185 -0.001964 -0.001231 0.000000 0.000000 0.000000
# 2 -0.001964 0.019597 -0.004800 0.000000 0.000000 0.000000
# 3 -0.001231 -0.004800 0.007928 0.000000 0.000000 0.000000
# 4 0.000000 0.000000 0.000000 -0.004306 0.000000 0.000000
# 5 0.000000 0.000000 0.000000 0.000000 0.031321 0.000000
# 6 0.000000 0.000000 0.000000 0.000000 0.000000 0.019446
#
#
# Mechanical properties :
#
#
# Convention : Reuss Voigt Hill
#
# Bulk Modulus (GPa) = 56.43451 71.27711 63.85581
# Shear Modulus (GPa) = 48.98736 -10.72116 19.13310
#
# Velocity S-wave (km/s) = 4.46241 -2.08761 2.78882
# Velocity P-wave (km/s) = 7.03500 4.81279 6.02719
#
# Compressibility (1/GPa) = 0.01771965
#
# Stress axis : x y z
#
# Youngs Moduli (GPa) = 161.69420 51.02884 126.13310
#
# Poissons Ratio (x) = 0.10022 0.15521
# Poissons Ratio (y) = 0.31758 0.60547
# Poissons Ratio (z) = 0.19897 0.24495
#
# Static dielectric constant tensor:
#      x y z
#    x 2.104140 0.000000 0.000000 
#    y 0.000000 1.898020 0.000000 
#    z 0.000000 0.000000 2.210010 
# 
# From -- ./inp_files/10428.got.cif
#   From: 2010.05.17/outbox.cif.g08.bks.cpg/sg73_6_cif.got.tgz:10428.got - 2010.06.03 17:35:07.
