data_PCOD9533012
_publ_section_title
;
Structure prediction by ZEFSAII (Michael W. Deem and Ramdas Pophale) SiO2 
 PCOD9533012
Probable space group: I B C A 
;
_chemical_formula_sum "Si O2"
_cell_formula_units_Z 112
_cell_length_a 24.952745
_cell_length_b 14.061275
_cell_length_c 14.768203
_cell_angle_alpha 90.000000
_cell_angle_beta 90.000000
_cell_angle_gamma 90.000000
_cell_volume 5181.681129
_symmetry_space_group_name_H-M "I B C A "
_symmetry_group_IT_number 73
_symmetry_cell_setting 'orthorhombic'
loop_
_space_group_symop_operation_xyz
x,y,z
-x,1/2-y,z
x,-y,1/2-z
1/2-x,y,-z
-x,-y,-z
x,1/2+y,-z
-x,y,1/2+z
1/2+x,-y,z
1/2+x,1/2+y,1/2+z
1/2-x,-y,1/2+z
1/2+x,1/2-y,-z
-x,1/2+y,1/2-z
1/2-x,1/2-y,1/2-z
1/2+x,y,1/2-z
1/2-x,1/2+y,z
x,1/2-y,1/2+z
loop_
_atom_site_type_symbol
_atom_site_label
_atom_site_fract_x
_atom_site_fract_y
_atom_site_fract_z
Si Si1 0.154825 0.112309 0.133021
Si Si2 0.229366 0.101806 0.793733
Si Si3 0.962558 0.344064 0.735140
Si Si4 0.455662 0.459187 0.381238
Si Si5 0.692790 0.500662 0.463488
Si Si6 0.653246 0.676558 0.148201
Si Si7 0.987603 0.139541 0.433497
O O1 0.206471 0.108081 0.198081
O O2 0.097384 0.078434 0.169150
O O3 0.154682 0.221359 0.100659
O O4 0.163247 0.041932 0.049578
O O5 0.198181 0.173217 0.728117
O O6 0.217414 0.000000 0.750000
O O7 0.205684 0.087530 0.894363
O O8 0.905244 0.330423 0.690881
O O9 0.953594 0.364325 0.841269
O O10 0.000000 0.250000 0.729835
O O11 0.994625 0.423927 0.679452
O O12 0.460917 0.405226 0.477802
O O13 0.462358 0.570621 0.405811
O O14 0.750000 0.464243 0.500000
O O15 0.663451 0.413582 0.415522
O O16 0.000000 0.250000 0.451580
#
# Coordination Sequence:
#
# PCOD9533012 Si02
#       7
#    16  16  16  16  16  16  16
#     4  11  23  40  65  97 136 172 222 289 348 398
#     4   9  21  42  64  94 131 173 230 277 337 412
#     4  11  23  44  65 100 137 175 231 282 338 419
#     4  11  24  41  66  97 139 178 223 288 348 404
#     4   9  22  41  63  97 132 171 223 284 338 408
#     4  11  23  41  73  94 130 185 227 279 346 419
#     4  10  25  42  65  95 137 181 231 277 340 422
#
# _framework density 21.614606999999999
#
# number of rings (size 3 to 8) (size 9 to 14) (size 15 to 20)
#    0.000    1.714    1.429    1.286    6.000    5.143 
#    0.000    1.429    0.000    0.000    0.000    0.000 
#    0.000    0.000    0.000    0.000    0.000    0.000 
#
# Total GULP energy -312665.923024 kJ/mol
# GULP energy per Si atom -5583.320054 kJ/mol
# Density = 2.156541 g / cm^3
# Si number density = 21.614607 Si / 1000 Ang^3
#
#
#
# Elastic Constant Matrix: (Units=GPa)
#
#
# Indices 1 2 3 4 5 6 
#
# 1 96.9116 17.6352 25.9537 0.0000 0.0000 0.0000
# 2 17.6352 122.7531 22.1015 0.0000 0.0000 0.0000
# 3 25.9537 22.1015 81.6827 0.0000 0.0000 0.0000
# 4 0.0000 0.0000 0.0000 24.4039 0.0000 0.0000
# 5 0.0000 0.0000 0.0000 0.0000 15.9595 0.0000
# 6 0.0000 0.0000 0.0000 0.0000 0.0000 21.6040
#
#
#
# Elastic Compliance Matrix: (Units=1/GPa)
#
#
# Indices 1 2 3 4 5 6 
#
# 1 0.011402 -0.001036 -0.003343 0.000000 0.000000 0.000000
# 2 -0.001036 0.008658 -0.002013 0.000000 0.000000 0.000000
# 3 -0.003343 -0.002013 0.013849 0.000000 0.000000 0.000000
# 4 0.000000 0.000000 0.000000 0.040977 0.000000 0.000000
# 5 0.000000 0.000000 0.000000 0.000000 0.062659 0.000000
# 6 0.000000 0.000000 0.000000 0.000000 0.000000 0.046288
#
#
# Mechanical properties :
#
#
# Convention : Reuss Voigt Hill
#
# Bulk Modulus (GPa) = 47.33699 48.08091 47.70895
# Shear Modulus (GPa) = 24.55083 28.10394 26.32738
#
# Velocity S-wave (km/s) = 3.37389 3.60978 3.49382
# Velocity P-wave (km/s) = 6.09307 6.29817 6.19647
#
# Compressibility (1/GPa) = 0.02112513
#
# Stress axis : x y z
#
# Youngs Moduli (GPa) = 87.70057 115.50263 72.20565
#
# Poissons Ratio (x) = 0.11969 0.24135
# Poissons Ratio (y) = 0.09088 0.14537
# Poissons Ratio (z) = 0.29315 0.23255
#
# Static dielectric constant tensor:
#      x y z
#    x 1.799760 0.000000 0.000000 
#    y 0.000000 1.789580 0.000000 
#    z 0.000000 0.000000 1.804170 
# 
# From -- ./inp_files/19407.got.cif
#   From: 2010.05.17/outbox.cif.g08.bks.cpg/sg73_10_cif.got.tgz:19407.got - 2010.06.03 17:35:07.
