data_PCOD9533185
_publ_section_title
;
Structure prediction by ZEFSAII (Michael W. Deem and Ramdas Pophale) SiO2 
 PCOD9533185
Probable space group: I B C A 
;
_chemical_formula_sum "Si O2"
_cell_formula_units_Z 96
_cell_length_a 22.774837
_cell_length_b 22.329108
_cell_length_c 9.776433
_cell_angle_alpha 90.000000
_cell_angle_beta 90.000000
_cell_angle_gamma 90.000000
_cell_volume 4971.724787
_symmetry_space_group_name_H-M "I B C A "
_symmetry_group_IT_number 73
_symmetry_cell_setting 'orthorhombic'
loop_
_space_group_symop_operation_xyz
x,y,z
-x,1/2-y,z
x,-y,1/2-z
1/2-x,y,-z
-x,-y,-z
x,1/2+y,-z
-x,y,1/2+z
1/2+x,-y,z
1/2+x,1/2+y,1/2+z
1/2-x,-y,1/2+z
1/2+x,1/2-y,-z
-x,1/2+y,1/2-z
1/2-x,1/2-y,1/2-z
1/2+x,y,1/2-z
1/2-x,1/2+y,z
x,1/2-y,1/2+z
loop_
_atom_site_type_symbol
_atom_site_label
_atom_site_fract_x
_atom_site_fract_y
_atom_site_fract_z
Si Si1 0.858128 0.359945 0.286615
Si Si2 0.070257 0.315955 0.530167
Si Si3 0.065587 0.671841 0.477994
Si Si4 0.251479 0.061623 0.833390
Si Si5 0.364077 0.858082 0.293648
Si Si6 0.791159 0.252820 0.377657
O O1 0.885977 0.325142 0.157742
O O2 0.913505 0.367211 0.390185
O O3 0.812142 0.407014 0.220305
O O4 0.817447 0.318485 0.383842
O O5 0.072048 0.244161 0.496687
O O6 0.088224 0.364565 0.413738
O O7 0.002756 0.332055 0.561994
O O8 0.105261 0.650351 0.351321
O O9 0.192712 0.099432 0.795872
O O10 0.247670 0.000000 0.750000
O O11 0.250000 0.055546 0.000000
O O12 0.339986 0.794611 0.345229
O O13 0.750000 0.234534 0.500000
O O14 0.750000 0.250000 0.250000
#
# Coordination Sequence:
#
# PCOD9533185 Si02
#       6
#    16  16  16  16  16  16
#     4  12  23  39  64  94 134 170 213 263 321 388
#     4  11  21  40  60  98 144 174 213 248 312 385
#     4  11  23  35  64 102 137 179 207 252 309 394
#     4  12  29  47  69  92 122 166 218 281 334 383
#     4  12  22  39  63  92 135 171 210 262 325 383
#     4  12  21  32  56  94 133 168 201 248 322 393
#
# _framework density 19.309194999999999
#
# number of rings (size 3 to 8) (size 9 to 14) (size 15 to 20)
#    0.000    0.333    6.667    3.500    2.333    2.667 
#    0.000    0.000    0.000    6.000    0.000    0.000 
#    0.000    0.000    0.000    0.000    0.000    0.000 
#
# Total GULP energy -267311.577423 kJ/mol
# GULP energy per Si atom -5568.991196 kJ/mol
# Density = 1.926525 g / cm^3
# Si number density = 19.309195 Si / 1000 Ang^3
#
#
#
# Elastic Constant Matrix: (Units=GPa)
#
#
# Indices 1 2 3 4 5 6 
#
# 1 120.1850 43.7198 47.3446 0.0000 0.0000 0.0000
# 2 43.7198 63.8618 30.8434 0.0000 0.0000 0.0000
# 3 47.3446 30.8434 111.4358 0.0000 0.0000 0.0000
# 4 0.0000 0.0000 0.0000 22.2851 0.0000 0.0000
# 5 0.0000 0.0000 0.0000 0.0000 37.1461 0.0000
# 6 0.0000 0.0000 0.0000 0.0000 0.0000 -13.5910
#
#
#
# Elastic Compliance Matrix: (Units=1/GPa)
#
#
# Indices 1 2 3 4 5 6 
#
# 1 0.012030 -0.006657 -0.003268 0.000000 0.000000 0.000000
# 2 -0.006657 0.021759 -0.003194 0.000000 0.000000 0.000000
# 3 -0.003268 -0.003194 0.011246 0.000000 0.000000 0.000000
# 4 0.000000 0.000000 0.000000 0.044873 0.000000 0.000000
# 5 0.000000 0.000000 0.000000 0.000000 0.026921 0.000000
# 6 0.000000 0.000000 0.000000 0.000000 0.000000 -0.073578
#
#
# Mechanical properties :
#
#
# Convention : Reuss Voigt Hill
#
# Bulk Modulus (GPa) = 53.20301 59.92200 56.56250
# Shear Modulus (GPa) = 66.00231 20.73969 43.37100
#
# Velocity S-wave (km/s) = 5.85286 3.28088 4.74448
# Velocity P-wave (km/s) = 8.56082 6.74184 7.70520
#
# Compressibility (1/GPa) = 0.01879593
#
# Stress axis : x y z
#
# Youngs Moduli (GPa) = 83.12813 45.95828 88.91676
#
# Poissons Ratio (x) = 0.30594 0.29061
# Poissons Ratio (y) = 0.55338 0.28402
# Poissons Ratio (z) = 0.27169 0.14680
#
# Static dielectric constant tensor:
#      x y z
#    x 1.733990 0.000000 0.000000 
#    y 0.000000 1.653760 0.000000 
#    z 0.000000 0.000000 1.734510 
# 
# From -- ./inp_files/7182.got.cif
#   From: 2010.05.17/outbox.cif.g08.bks.cpg/sg73_4_cif.got.tgz:7182.got - 2010.06.03 17:35:07.
