data_PCOD9533774
_publ_section_title
;
Structure prediction by ZEFSAII (Michael W. Deem and Ramdas Pophale) SiO2 
 PCOD9533774
Probable space group: I B C A 
;
_chemical_formula_sum "Si O2"
_cell_formula_units_Z 60
_cell_length_a 21.000000
_cell_length_b 15.000000
_cell_length_c 21.000000
_cell_angle_alpha 90.000000
_cell_angle_beta 90.000000
_cell_angle_gamma 90.000000
_cell_volume 6615.000000
_symmetry_space_group_name_H-M "I B C A "
_symmetry_group_IT_number 73
_symmetry_cell_setting 'orthorhombic'
loop_
_space_group_symop_operation_xyz
x,y,z
-x,1/2-y,z
x,-y,1/2-z
1/2-x,y,-z
-x,-y,-z
x,1/2+y,-z
-x,y,1/2+z
1/2+x,-y,z
1/2+x,1/2+y,1/2+z
1/2-x,-y,1/2+z
1/2+x,1/2-y,-z
-x,1/2+y,1/2-z
1/2-x,1/2-y,1/2-z
1/2+x,y,1/2-z
1/2-x,1/2+y,z
x,1/2-y,1/2+z
loop_
_atom_site_type_symbol
_atom_site_label
_atom_site_fract_x
_atom_site_fract_y
_atom_site_fract_z
Si Si1 0.676705 0.983123 0.475285
Si Si2 0.269586 0.222479 0.322244
Si Si3 0.188634 0.516350 0.317628
Si Si4 0.017859 0.148432 0.343997
Si Si5 0.148223 0.798302 0.085302
Si Si6 0.927961 0.000000 0.750000
Si Si7 0.108791 0.904499 0.578968
Si Si8 0.178975 0.417733 0.659202
O O1 0.750000 0.995744 0.500000
O O2 0.666253 0.876682 0.464734
O O3 0.623520 0.030644 0.519381
O O4 0.671037 0.034845 0.408677
O O5 0.250000 0.250000 0.250000
O O6 0.302577 0.123748 0.326745
O O7 0.205909 0.210616 0.364297
O O8 0.308689 0.310801 0.344810
O O9 0.156248 0.500000 0.250000
O O10 0.149397 0.458794 0.368356
O O11 0.257198 0.466608 0.314954
O O12 0.084308 0.165014 0.380965
O O13 0.031646 0.072861 0.290558
O O14 0.000000 0.250000 0.320807
O O15 0.961631 0.113546 0.391460
O O16 0.135094 0.695828 0.063833
O O17 0.880629 0.944192 0.796540
#
# Coordination Sequence:
#
# PCOD9533774 Si02
#       8
#    16  16  16  16  16   8  16  16
#     4  12  23  40  64  97 133 171 219 273 341 401
#     4  12  20  34  63  97 130 165 209 279 338 399
#     4  12  21  37  60  94 129 161 216 271 337 387
#     4  10  24  44  70  91 126 184 227 267 330 402
#     4  11  21  42  64  89 127 177 223 261 333 400
#     4  12  22  46  68  96 134 172 224 282 338 404
#     4  11  25  42  62  94 132 173 225 274 323 400
#     4  12  22  38  65  97 130 170 211 274 344 396
#
# _framework density 9.0702949999999998
#
# number of rings (size 3 to 8) (size 9 to 14) (size 15 to 20)
#    0.000    0.533    7.333    0.800    0.933    4.267 
#    0.000    0.000    0.000    0.000    0.000    0.000 
#    0.000    0.000    0.000    0.000    0.000    0.000 
#
# Total GULP energy -334701.058500 kJ/mol
# GULP energy per Si atom -5578.350975 kJ/mol
# Density = 0.904965 g / cm^3
# Si number density = 9.070295 Si / 1000 Ang^3
#
#
#
# Elastic Constant Matrix: (Units=GPa)
#
#
# Indices 1 2 3 4 5 6 
#
# 1 90.3749 49.4676 33.3924 0.0000 0.0000 0.0000
# 2 49.4676 190.0621 41.2216 0.0000 0.0000 0.0000
# 3 33.3924 41.2216 82.2644 0.0000 0.0000 0.0000
# 4 0.0000 0.0000 0.0000 43.0779 0.0000 0.0000
# 5 0.0000 0.0000 0.0000 0.0000 26.4901 0.0000
# 6 0.0000 0.0000 0.0000 0.0000 0.0000 38.8776
#
#
#
# Elastic Compliance Matrix: (Units=1/GPa)
#
#
# Indices 1 2 3 4 5 6 
#
# 1 0.014185 -0.002741 -0.004385 0.000000 0.000000 0.000000
# 2 -0.002741 0.006433 -0.002111 0.000000 0.000000 0.000000
# 3 -0.004385 -0.002111 0.014993 0.000000 0.000000 0.000000
# 4 0.000000 0.000000 0.000000 0.023214 0.000000 0.000000
# 5 0.000000 0.000000 0.000000 0.000000 0.037750 0.000000
# 6 0.000000 0.000000 0.000000 0.000000 0.000000 0.025722
#
#
# Mechanical properties :
#
#
# Convention : Reuss Voigt Hill
#
# Bulk Modulus (GPa) = 58.34731 67.87384 63.11057
# Shear Modulus (GPa) = 34.13379 37.59711 35.86545
#
# Velocity S-wave (km/s) = 4.34248 4.55746 4.45126
# Velocity P-wave (km/s) = 7.57473 8.07407 7.82838
#
# Compressibility (1/GPa) = 0.01713875
#
# Stress axis : x y z
#
# Youngs Moduli (GPa) = 70.49489 155.45723 66.69644
#
# Poissons Ratio (x) = 0.42613 0.29243
# Poissons Ratio (y) = 0.19323 0.14077
# Poissons Ratio (z) = 0.30909 0.32812
#
# Static dielectric constant tensor:
#      x y z
#    x 1.625090 0.000000 0.000000 
#    y 0.000000 1.623150 0.000000 
#    z 0.000000 0.000000 1.702630 
# 
# From -- ./inp_files/27020.got.cif
#   From: 2010.05.17/outbox.ucp.g08.bks.cvg/sg73_14_cif.got.tgz:27020.got - 2010.06.11 16:36:03.
