data_PCOD9533017
_publ_section_title
;
Structure prediction by ZEFSAII (Michael W. Deem and Ramdas Pophale) SiO2 
 PCOD9533017
Probable space group: I B C A 
;
_chemical_formula_sum "Si O2"
_cell_formula_units_Z 72
_cell_length_a 5.230985
_cell_length_b 25.690041
_cell_length_c 20.091415
_cell_angle_alpha 90.000000
_cell_angle_beta 90.000000
_cell_angle_gamma 90.000000
_cell_volume 2699.969116
_symmetry_space_group_name_H-M "I B C A "
_symmetry_group_IT_number 73
_symmetry_cell_setting 'orthorhombic'
loop_
_space_group_symop_operation_xyz
x,y,z
-x,1/2-y,z
x,-y,1/2-z
1/2-x,y,-z
-x,-y,-z
x,1/2+y,-z
-x,y,1/2+z
1/2+x,-y,z
1/2+x,1/2+y,1/2+z
1/2-x,-y,1/2+z
1/2+x,1/2-y,-z
-x,1/2+y,1/2-z
1/2-x,1/2-y,1/2-z
1/2+x,y,1/2-z
1/2-x,1/2+y,z
x,1/2-y,1/2+z
loop_
_atom_site_type_symbol
_atom_site_label
_atom_site_fract_x
_atom_site_fract_y
_atom_site_fract_z
Si Si1 0.128756 0.477737 0.174321
Si Si2 0.960510 0.197154 0.082089
Si Si3 0.750000 0.111083 0.500000
Si Si4 0.218277 0.816261 0.707002
Si Si5 0.059783 0.114873 0.376295
O O1 0.100043 0.500000 0.250000
O O2 0.354608 0.512351 0.143284
O O3 0.232381 0.420169 0.161503
O O4 0.068809 0.148631 0.042129
O O5 0.164509 0.209552 0.141265
O O6 0.000000 0.250000 0.040608
O O7 0.693320 0.171142 0.106469
O O8 0.557688 0.089423 0.556881
O O9 0.445172 0.806181 0.759107
O O10 0.163161 0.874018 0.677730
#
# Coordination Sequence:
#
# PCOD9533017 Si02
#       5
#    16  16   8  16  16
#     4  10  25  43  75 111 144 186 248 311 388 466
#     4  11  26  46  75 109 149 209 263 317 382 460
#     4  10  26  44  76 104 152 202 262 320 382 448
#     4  11  24  42  71 103 149 193 242 306 386 458
#     4  11  25  47  74 109 155 199 260 325 390 450
#
# _framework density 26.666972000000001
#
# number of rings (size 3 to 8) (size 9 to 14) (size 15 to 20)
#    0.000    1.333    2.222    0.667   15.556    3.556 
#    0.000    1.111    0.000    0.000    0.000    0.000 
#    0.000    0.000    0.000    0.000    0.000    0.000 
#
# Total GULP energy -200654.651369 kJ/mol
# GULP energy per Si atom -5573.740316 kJ/mol
# Density = 2.660628 g / cm^3
# Si number density = 26.666972 Si / 1000 Ang^3
#
#
#
# Elastic Constant Matrix: (Units=GPa)
#
#
# Indices 1 2 3 4 5 6 
#
# 1 159.9784 23.8058 30.0937 0.0000 0.0000 0.0000
# 2 23.8058 92.9420 4.2114 0.0000 0.0000 0.0000
# 3 30.0937 4.2114 97.9902 -0.0002 0.0000 0.0000
# 4 0.0000 0.0000 -0.0002 -541.2426 0.0000 0.0000
# 5 0.0000 0.0000 0.0000 0.0000 41.8100 0.0000
# 6 0.0000 0.0000 0.0000 0.0000 0.0000 42.7311
#
#
#
# Elastic Compliance Matrix: (Units=1/GPa)
#
#
# Indices 1 2 3 4 5 6 
#
# 1 0.006884 -0.001671 -0.002042 0.000000 0.000000 0.000000
# 2 -0.001671 0.011186 0.000032 0.000000 0.000000 0.000000
# 3 -0.002042 0.000032 0.010831 0.000000 0.000000 0.000000
# 4 0.000000 0.000000 0.000000 -0.001848 0.000000 0.000000
# 5 0.000000 0.000000 0.000000 0.000000 0.023918 0.000000
# 6 0.000000 0.000000 0.000000 0.000000 0.000000 0.023402
#
#
# Mechanical properties :
#
#
# Convention : Reuss Voigt Hill
#
# Bulk Modulus (GPa) = 46.42671 51.90360 49.16515
# Shear Modulus (GPa) = 56.23450 -71.82030 -7.79290
#
# Velocity S-wave (km/s) = 4.59712 -5.19526 -1.71133
# Velocity P-wave (km/s) = 6.75467 4.05978 3.81731
#
# Compressibility (1/GPa) = 0.02153932
#
# Stress axis : x y z
#
# Youngs Moduli (GPa) = 145.27273 89.39881 92.32849
#
# Poissons Ratio (x) = 0.14935 0.18855
# Poissons Ratio (y) = 0.24269 -0.00298
# Poissons Ratio (z) = 0.29668 -0.00289
#
# Static dielectric constant tensor:
#      x y z
#    x 2.314890 0.000000 0.000000 
#    y 0.000000 2.295580 0.000000 
#    z 0.000000 0.000000 2.535450 
# 
# From -- ./inp_files/24480.got.cif
#   From: 2010.05.17/outbox.cif.g08.bks.cpg/sg73_13_cif.got.tgz:24480.got - 2010.06.03 17:35:07.
