data_PCOD9533514
_publ_section_title
;
Structure prediction by ZEFSAII (Michael W. Deem and Ramdas Pophale) SiO2 
 PCOD9533514
Probable space group: I B C A 
;
_chemical_formula_sum "Si O2"
_cell_formula_units_Z 48
_cell_length_a 9.899540
_cell_length_b 8.303866
_cell_length_c 26.066286
_cell_angle_alpha 90.000000
_cell_angle_beta 90.000000
_cell_angle_gamma 90.000000
_cell_volume 2142.764799
_symmetry_space_group_name_H-M "I B C A "
_symmetry_group_IT_number 73
_symmetry_cell_setting 'orthorhombic'
loop_
_space_group_symop_operation_xyz
x,y,z
-x,1/2-y,z
x,-y,1/2-z
1/2-x,y,-z
-x,-y,-z
x,1/2+y,-z
-x,y,1/2+z
1/2+x,-y,z
1/2+x,1/2+y,1/2+z
1/2-x,-y,1/2+z
1/2+x,1/2-y,-z
-x,1/2+y,1/2-z
1/2-x,1/2-y,1/2-z
1/2+x,y,1/2-z
1/2-x,1/2+y,z
x,1/2-y,1/2+z
loop_
_atom_site_type_symbol
_atom_site_label
_atom_site_fract_x
_atom_site_fract_y
_atom_site_fract_z
Si Si1 0.858720 0.841335 0.283530
Si Si2 0.553118 0.515239 0.557882
Si Si3 0.301302 0.340321 0.901089
O O1 0.750000 0.750000 0.250000
O O2 0.791499 0.846123 0.339878
O O3 0.000000 0.750000 0.290802
O O4 0.887939 0.000000 0.250000
O O5 0.500000 0.500000 0.500000
O O6 0.414324 0.522379 0.589084
O O7 0.633886 0.679068 0.573984
O O8 0.659957 0.378499 0.572045
#
# Coordination Sequence:
#
# PCOD9533514 Si02
#       3
#    16  16  16
#     4  12  26  47  78 111 153 199 253 313 384 454
#     4  11  25  46  74 101 147 194 247 304 372 442
#     4  11  26  49  70 110 148 190 252 308 374 445
#
# _framework density 22.400963999999998
#
# number of rings (size 3 to 8) (size 9 to 14) (size 15 to 20)
#    0.000    0.667    3.333    4.000    4.667   12.000 
#    0.000    0.000    0.000    0.000    0.000    0.000 
#    0.000    0.000    0.000    0.000    0.000    0.000 
#
# Total GULP energy -134152.436582 kJ/mol
# GULP energy per Si atom -5589.684858 kJ/mol
# Density = 2.234998 g / cm^3
# Si number density = 22.400964 Si / 1000 Ang^3
#
#
#
# Elastic Constant Matrix: (Units=GPa)
#
#
# Indices 1 2 3 4 5 6 
#
# 1 116.7591 9.3871 74.0621 0.0000 0.0000 0.0000
# 2 9.3871 71.3955 39.8399 0.0000 0.0000 0.0000
# 3 74.0621 39.8399 242.5154 0.0000 0.0000 0.0000
# 4 0.0000 0.0000 0.0000 33.6872 0.0000 0.0000
# 5 0.0000 0.0000 0.0000 0.0000 48.1579 0.0000
# 6 0.0000 0.0000 0.0000 0.0000 0.0000 30.1890
#
#
#
# Elastic Compliance Matrix: (Units=1/GPa)
#
#
# Indices 1 2 3 4 5 6 
#
# 1 0.010636 0.000456 -0.003323 0.000000 0.000000 0.000000
# 2 0.000456 0.015440 -0.002676 0.000000 0.000000 0.000000
# 3 -0.003323 -0.002676 0.005578 0.000000 0.000000 0.000000
# 4 0.000000 0.000000 0.000000 0.029685 0.000000 0.000000
# 5 0.000000 0.000000 0.000000 0.000000 0.020765 0.000000
# 6 0.000000 0.000000 0.000000 0.000000 0.000000 0.033125
#
#
# Mechanical properties :
#
#
# Convention : Reuss Voigt Hill
#
# Bulk Modulus (GPa) = 48.61974 75.24979 61.93476
# Shear Modulus (GPa) = 37.54629 42.89890 40.22259
#
# Velocity S-wave (km/s) = 4.09846 4.38087 4.24202
# Velocity P-wave (km/s) = 6.64439 7.69770 7.19036
#
# Compressibility (1/GPa) = 0.02056778
#
# Stress axis : x y z
#
# Youngs Moduli (GPa) = 94.02203 64.76866 179.28222
#
# Poissons Ratio (x) = -0.02953 0.59575
# Poissons Ratio (y) = -0.04286 0.47969
# Poissons Ratio (z) = 0.31243 0.17329
#
# Static dielectric constant tensor:
#      x y z
#    x 1.747940 0.000000 0.000000 
#    y 0.000000 1.572670 0.000000 
#    z 0.000000 0.000000 2.151440 
# 
# From -- ./inp_files/3460.got.cif
#   From: 2010.05.17/outbox.cif.g08.bks.cpg/sg73_2_cif.got.tgz:3460.got - 2010.06.03 17:35:07.
