data_PCOD9533657
_publ_section_title
;
Structure prediction by ZEFSAII (Michael W. Deem and Ramdas Pophale) SiO2 
 PCOD9533657
Probable space group: I B C A 
;
_chemical_formula_sum "Si O2"
_cell_formula_units_Z 64
_cell_length_a 8.001584
_cell_length_b 18.612909
_cell_length_c 17.127799
_cell_angle_alpha 90.000000
_cell_angle_beta 90.000000
_cell_angle_gamma 90.000000
_cell_volume 2550.890290
_symmetry_space_group_name_H-M "I B C A "
_symmetry_group_IT_number 73
_symmetry_cell_setting 'orthorhombic'
loop_
_space_group_symop_operation_xyz
x,y,z
-x,1/2-y,z
x,-y,1/2-z
1/2-x,y,-z
-x,-y,-z
x,1/2+y,-z
-x,y,1/2+z
1/2+x,-y,z
1/2+x,1/2+y,1/2+z
1/2-x,-y,1/2+z
1/2+x,1/2-y,-z
-x,1/2+y,1/2-z
1/2-x,1/2-y,1/2-z
1/2+x,y,1/2-z
1/2-x,1/2+y,z
x,1/2-y,1/2+z
loop_
_atom_site_type_symbol
_atom_site_label
_atom_site_fract_x
_atom_site_fract_y
_atom_site_fract_z
Si Si1 0.787877 0.318844 0.914103
Si Si2 0.047654 0.456718 0.579438
Si Si3 0.755873 0.944348 0.313700
Si Si4 0.118102 0.696876 0.680683
O O1 0.688167 0.394300 0.917724
O O2 0.750155 0.251129 0.858014
O O3 0.983608 0.329783 0.887078
O O4 0.750000 0.289694 0.000000
O O5 0.110383 0.515383 0.640758
O O6 0.000000 0.500000 0.500000
O O7 0.883986 0.423617 0.618538
O O8 0.690663 0.871135 0.276169
O O9 0.821377 0.000000 0.250000
O O10 0.000000 0.750000 0.729079
#
# Coordination Sequence:
#
# PCOD9533657 Si02
#       4
#    16  16  16  16
#     4   9  19  39  66 105 146 187 240 306 365 444
#     4  12  25  41  72 105 145 191 251 299 371 445
#     4  12  25  44  69 103 143 196 240 307 367 444
#     4   8  22  41  68 100 144 187 245 298 369 442
#
# _framework density 25.089281
#
# number of rings (size 3 to 8) (size 9 to 14) (size 15 to 20)
#    1.500    0.000    0.000    6.000    0.000    7.000 
#    0.000    2.500    0.000    0.000    6.500    0.000 
#    0.000    0.000    0.000    0.000    0.000    0.000 
#
# Total GULP energy -178335.684032 kJ/mol
# GULP energy per Si atom -5572.990126 kJ/mol
# Density = 2.503218 g / cm^3
# Si number density = 25.089281 Si / 1000 Ang^3
#
#
#
# Elastic Constant Matrix: (Units=GPa)
#
#
# Indices 1 2 3 4 5 6 
#
# 1 80.7204 54.1763 52.2421 0.0000 0.0000 0.0000
# 2 54.1763 204.7867 50.6968 0.0000 0.0000 0.0000
# 3 52.2421 50.6968 110.9327 0.0000 0.0000 0.0000
# 4 0.0000 0.0000 0.0000 -20.6835 0.0000 0.0000
# 5 0.0000 0.0000 0.0000 0.0000 36.1595 0.0000
# 6 0.0000 0.0000 0.0000 0.0000 0.0000 42.1966
#
#
#
# Elastic Compliance Matrix: (Units=1/GPa)
#
#
# Indices 1 2 3 4 5 6 
#
# 1 0.019584 -0.003267 -0.007730 0.000000 0.000000 0.000000
# 2 -0.003267 0.006051 -0.001227 0.000000 0.000000 0.000000
# 3 -0.007730 -0.001227 0.013215 0.000000 0.000000 0.000000
# 4 0.000000 0.000000 0.000000 -0.048348 0.000000 0.000000
# 5 0.000000 0.000000 0.000000 0.000000 0.027655 0.000000
# 6 0.000000 0.000000 0.000000 0.000000 0.000000 0.023699
#
#
# Mechanical properties :
#
#
# Convention : Reuss Voigt Hill
#
# Bulk Modulus (GPa) = 69.42976 78.96335 74.19655
# Shear Modulus (GPa) = 70.31872 27.48948 48.90410
#
# Velocity S-wave (km/s) = 5.29983 3.31368 4.41977
# Velocity P-wave (km/s) = 8.07367 6.79572 7.46210
#
# Compressibility (1/GPa) = 0.01440305
#
# Stress axis : x y z
#
# Youngs Moduli (GPa) = 51.06228 165.25649 75.67055
#
# Poissons Ratio (x) = 0.53996 0.58490
# Poissons Ratio (y) = 0.16684 0.09282
# Poissons Ratio (z) = 0.39469 0.20272
#
# Static dielectric constant tensor:
#      x y z
#    x 2.067250 0.000000 0.000000 
#    y 0.000000 2.019010 0.000000 
#    z 0.000000 0.000000 2.020090 
# 
# From -- ./inp_files/20573.got.cif
#   From: 2010.05.17/outbox.cif.g08.bks.cpg/sg73_11_cif.got.tgz:20573.got - 2010.06.03 17:35:07.
