data_PCOD9533335
_publ_section_title
;
Structure prediction by ZEFSAII (Michael W. Deem and Ramdas Pophale) SiO2 
 PCOD9533335
Probable space group: I B C A 
;
_chemical_formula_sum "Si O2"
_cell_formula_units_Z 72
_cell_length_a 8.611138
_cell_length_b 14.811075
_cell_length_c 23.080250
_cell_angle_alpha 90.000000
_cell_angle_beta 90.000000
_cell_angle_gamma 90.000000
_cell_volume 2943.659949
_symmetry_space_group_name_H-M "I B C A "
_symmetry_group_IT_number 73
_symmetry_cell_setting 'orthorhombic'
loop_
_space_group_symop_operation_xyz
x,y,z
-x,1/2-y,z
x,-y,1/2-z
1/2-x,y,-z
-x,-y,-z
x,1/2+y,-z
-x,y,1/2+z
1/2+x,-y,z
1/2+x,1/2+y,1/2+z
1/2-x,-y,1/2+z
1/2+x,1/2-y,-z
-x,1/2+y,1/2-z
1/2-x,1/2-y,1/2-z
1/2+x,y,1/2-z
1/2-x,1/2+y,z
x,1/2-y,1/2+z
loop_
_atom_site_type_symbol
_atom_site_label
_atom_site_fract_x
_atom_site_fract_y
_atom_site_fract_z
Si Si1 0.000000 0.750000 0.980045
Si Si2 0.556282 0.910520 0.936415
Si Si3 0.568605 0.154376 0.682525
Si Si4 0.686540 0.599554 0.084231
Si Si5 0.263196 0.908558 0.215699
O O1 0.920559 0.828568 0.019051
O O2 0.119968 0.808037 0.941789
O O3 0.640548 0.887848 0.875198
O O4 0.371214 0.907615 0.924495
O O5 0.609190 0.013119 0.947582
O O6 0.500000 0.250000 0.663829
O O7 0.679274 0.163091 0.737208
O O8 0.418988 0.098837 0.703573
O O9 0.655497 0.597090 0.153274
O O10 0.295547 0.000000 0.250000
#
# Coordination Sequence:
#
# PCOD9533335 Si02
#       5
#     8  16  16  16  16
#     4  12  26  48  70  98 142 184 244 302 358 424
#     4  11  25  48  72 103 144 192 242 306 364 431
#     4  11  23  42  67 104 143 186 234 292 362 432
#     4  11  27  45  74 108 140 192 247 297 370 434
#     4  11  23  42  70 103 144 187 235 293 365 435
#
# _framework density 24.459347000000001
#
# number of rings (size 3 to 8) (size 9 to 14) (size 15 to 20)
#    0.000    0.889    3.333    2.667    4.667    3.556 
#    0.000    0.000    0.000    0.000    0.000    0.000 
#    0.000    0.000    0.000    0.000    0.000    0.000 
#
# Total GULP energy -201545.295483 kJ/mol
# GULP energy per Si atom -5598.480430 kJ/mol
# Density = 2.440368 g / cm^3
# Si number density = 24.459347 Si / 1000 Ang^3
#
#
#
# Elastic Constant Matrix: (Units=GPa)
#
#
# Indices 1 2 3 4 5 6 
#
# 1 71.2486 40.8959 38.6998 0.0000 0.0000 0.0000
# 2 40.8959 157.0405 51.7375 0.0000 0.0000 0.0000
# 3 38.6998 51.7375 163.2897 0.0000 0.0000 0.0000
# 4 0.0000 0.0000 0.0000 46.6486 0.0000 0.0000
# 5 0.0000 0.0000 0.0000 0.0000 31.2231 0.0000
# 6 0.0000 0.0000 0.0000 0.0000 0.0000 18.5236
#
#
#
# Elastic Compliance Matrix: (Units=1/GPa)
#
#
# Indices 1 2 3 4 5 6 
#
# 1 0.017779 -0.003620 -0.003067 0.000000 0.000000 0.000000
# 2 -0.003620 0.007847 -0.001628 0.000000 0.000000 0.000000
# 3 -0.003067 -0.001628 0.007367 0.000000 0.000000 0.000000
# 4 0.000000 0.000000 0.000000 0.021437 0.000000 0.000000
# 5 0.000000 0.000000 0.000000 0.000000 0.032028 0.000000
# 6 0.000000 0.000000 0.000000 0.000000 0.000000 0.053985
#
#
# Mechanical properties :
#
#
# Convention : Reuss Voigt Hill
#
# Bulk Modulus (GPa) = 61.11326 72.69393 66.90360
# Shear Modulus (GPa) = 30.76436 36.62877 33.69657
#
# Velocity S-wave (km/s) = 3.55036 3.87400 3.71571
# Velocity P-wave (km/s) = 6.46890 7.05658 6.76912
#
# Compressibility (1/GPa) = 0.01636306
#
# Stress axis : x y z
#
# Youngs Moduli (GPa) = 56.24717 127.43974 135.74313
#
# Poissons Ratio (x) = 0.46127 0.41629
# Poissons Ratio (y) = 0.20359 0.22104
# Poissons Ratio (z) = 0.17250 0.20752
#
# Static dielectric constant tensor:
#      x y z
#    x 1.910330 0.000000 0.000000 
#    y 0.000000 2.053800 0.000000 
#    z 0.000000 0.000000 2.007510 
# 
# From -- ./inp_files/31071.got.cif
#   From: 2010.05.17/outbox.cif.g08.bks.cpg/sg73_16_cif.got.tgz:31071.got - 2010.06.03 17:35:07.
