data_PCOD9533066
_publ_section_title
;
Structure prediction by ZEFSAII (Michael W. Deem and Ramdas Pophale) SiO2 
 PCOD9533066
Probable space group: I B C A 
;
_chemical_formula_sum "Si O2"
_cell_formula_units_Z 120
_cell_length_a 25.054636
_cell_length_b 9.333977
_cell_length_c 20.985351
_cell_angle_alpha 90.000000
_cell_angle_beta 90.000000
_cell_angle_gamma 90.000000
_cell_volume 4907.621513
_symmetry_space_group_name_H-M "I B C A "
_symmetry_group_IT_number 73
_symmetry_cell_setting 'orthorhombic'
loop_
_space_group_symop_operation_xyz
x,y,z
-x,1/2-y,z
x,-y,1/2-z
1/2-x,y,-z
-x,-y,-z
x,1/2+y,-z
-x,y,1/2+z
1/2+x,-y,z
1/2+x,1/2+y,1/2+z
1/2-x,-y,1/2+z
1/2+x,1/2-y,-z
-x,1/2+y,1/2-z
1/2-x,1/2-y,1/2-z
1/2+x,y,1/2-z
1/2-x,1/2+y,z
x,1/2-y,1/2+z
loop_
_atom_site_type_symbol
_atom_site_label
_atom_site_fract_x
_atom_site_fract_y
_atom_site_fract_z
Si Si1 0.766620 0.811749 0.104051
Si Si2 0.879939 0.743792 0.801586
Si Si3 0.578182 0.538516 0.109656
Si Si4 0.728239 0.419940 0.309667
Si Si5 0.619277 0.263355 0.067364
Si Si6 0.147256 0.710641 0.935672
Si Si7 0.526046 0.591826 0.883605
Si Si8 0.932446 0.000000 0.750000
O O1 0.759672 0.717326 0.167245
O O2 0.817695 0.739839 0.071425
O O3 0.711368 0.801444 0.064551
O O4 0.775268 0.972509 0.129982
O O5 0.925037 0.634723 0.826666
O O6 0.829287 0.643318 0.790121
O O7 0.866890 0.841698 0.864526
O O8 0.897588 0.855238 0.749903
O O9 0.604075 0.383191 0.119308
O O10 0.519416 0.505853 0.082974
O O11 0.621761 0.129181 0.930132
O O12 0.753163 0.500000 0.250000
O O13 0.580163 0.130673 0.078585
O O14 0.616146 0.340025 0.998029
O O15 0.500000 0.750000 0.874327
O O16 0.535904 0.516003 0.815908
#
# Coordination Sequence:
#
# PCOD9533066 Si02
#       8
#    16  16  16  16  16  16  16   8
#     4  11  22  43  65 105 139 189 253 293 372 434
#     4   9  23  45  68 102 137 188 237 296 379 427
#     4   9  21  48  63  96 148 181 243 293 379 421
#     4  11  24  43  66  96 146 192 231 306 364 446
#     4  11  21  42  70 103 140 193 242 308 359 450
#     4   9  22  42  70 100 141 192 237 302 364 431
#     4  10  26  42  69 106 141 193 248 300 375 443
#     4  12  26  44  74 108 140 190 250 306 352 470
#
# _framework density 24.451763
#
# number of rings (size 3 to 8) (size 9 to 14) (size 15 to 20)
#    0.800    1.067    1.333    0.800    3.733    4.800 
#    6.000    5.333    0.000    0.000    0.000    0.000 
#    0.000    0.000    0.000    0.000    0.000    0.000 
#
# Total GULP energy -334353.946991 kJ/mol
# GULP energy per Si atom -5572.565783 kJ/mol
# Density = 2.439611 g / cm^3
# Si number density = 24.451763 Si / 1000 Ang^3
#
#
#
# Elastic Constant Matrix: (Units=GPa)
#
#
# Indices 1 2 3 4 5 6 
#
# 1 139.1134 40.5954 24.2210 0.0000 0.0000 0.0000
# 2 40.5954 93.0248 4.6352 0.0000 0.0000 0.0000
# 3 24.2210 4.6352 51.2733 0.0000 0.0000 0.0000
# 4 0.0000 0.0000 0.0000 26.3668 0.0000 0.0000
# 5 0.0000 0.0000 0.0000 0.0000 13.2654 0.0000
# 6 0.0000 0.0000 0.0000 0.0000 0.0000 20.4450
#
#
#
# Elastic Compliance Matrix: (Units=1/GPa)
#
#
# Indices 1 2 3 4 5 6 
#
# 1 0.008949 -0.003711 -0.003892 0.000000 0.000000 0.000000
# 2 -0.003711 0.012338 0.000638 0.000000 0.000000 0.000000
# 3 -0.003892 0.000638 0.021284 0.000000 0.000000 0.000000
# 4 0.000000 0.000000 0.000000 0.037927 0.000000 0.000000
# 5 0.000000 0.000000 0.000000 0.000000 0.075384 0.000000
# 6 0.000000 0.000000 0.000000 0.000000 0.000000 0.048912
#
#
# Mechanical properties :
#
#
# Convention : Reuss Voigt Hill
#
# Bulk Modulus (GPa) = 34.91619 46.92384 40.92002
# Shear Modulus (GPa) = 21.90380 26.27942 24.09161
#
# Velocity S-wave (km/s) = 2.99623 3.28189 3.14231
# Velocity P-wave (km/s) = 5.12645 5.79595 5.47145
#
# Compressibility (1/GPa) = 0.02864001
#
# Stress axis : x y z
#
# Youngs Moduli (GPa) = 111.74390 81.05269 46.98328
#
# Poissons Ratio (x) = 0.30082 0.18286
# Poissons Ratio (y) = 0.41472 -0.02997
# Poissons Ratio (z) = 0.43490 -0.05170
#
# Static dielectric constant tensor:
#      x y z
#    x 2.013050 0.000000 0.000000 
#    y 0.000000 1.919160 0.000000 
#    z 0.000000 0.000000 2.212140 
# 
# From -- ./inp_files/30693.got.cif
#   From: 2010.05.17/outbox.cif.g08.bks.cpg/sg73_16_cif.got.tgz:30693.got - 2010.06.03 17:35:07.
