data_PCOD9533828
_publ_section_title
;
Structure prediction by ZEFSAII (Michael W. Deem and Ramdas Pophale) SiO2 
 PCOD9533828
Probable space group: I M M A
;
_chemical_formula_sum "Si O2"
_cell_formula_units_Z 88
_cell_length_a 16.915071
_cell_length_b 21.742905
_cell_length_c 9.243280
_cell_angle_alpha 90.000000
_cell_angle_beta 90.000000
_cell_angle_gamma 90.000000
_cell_volume 3399.519232
_symmetry_space_group_name_H-M "I M M A"
_symmetry_group_IT_number 74
_symmetry_cell_setting 'orthorhombic'
loop_
_space_group_symop_operation_xyz
x,y,z
-x,1/2-y,z
x,-y,-z
-x,1/2+y,-z
-x,-y,-z
x,1/2+y,-z
-x,y,z
x,1/2-y,z
1/2+x,1/2+y,1/2+z
1/2-x,-y,1/2+z
1/2+x,1/2-y,1/2-z
1/2-x,y,1/2-z
1/2-x,1/2-y,1/2-z
1/2+x,y,1/2-z
1/2-x,1/2+y,1/2+z
1/2+x,-y,1/2+z
loop_
_atom_site_type_symbol
_atom_site_label
_atom_site_fract_x
_atom_site_fract_y
_atom_site_fract_z
Si Si1 0.500000 0.928316 0.276468
Si Si2 0.832192 0.456213 0.778401
Si Si3 0.000000 0.327288 0.042323
Si Si4 0.169875 0.750000 0.160892
Si Si5 0.166265 0.632044 0.956629
Si Si6 0.089304 0.750000 0.445255
Si Si7 0.000000 0.070906 0.460490
Si Si8 0.661454 0.878241 0.979270
O O1 0.424179 0.973039 0.275804
O O2 0.500000 0.872749 0.395961
O O3 0.500000 0.895120 0.119906
O O4 0.750000 0.492346 0.750000
O O5 0.834872 0.426846 0.937932
O O6 0.826976 0.408237 0.641173
O O7 0.918032 0.351005 0.116556
O O8 0.000000 0.250000 0.030761
O O9 0.250000 0.750000 0.250000
O O10 0.169655 0.690025 0.064828
O O11 0.097621 0.750000 0.271848
O O12 0.255062 0.625102 0.898824
O O13 0.133895 0.690717 0.500303
O O14 0.000000 0.750000 0.495529
O O15 0.087715 0.087032 0.405875
O O16 0.000000 0.000000 0.500000
#
# Coordination Sequence:
#
# PCOD9533828 Si02
#       8
#     8  16   8   8  16   8   8  16
#     4   8  16  24  32  43  62  89 120 146 170 197
#     4   8  13  20  28  40  60  84 110 131 154 195
#     4  10  18  22  32  54  84 110 118 122 156 218
#     4  12  16  18  26  44  74 105 121 132 149 203
#     4  10  16  21  28  44  69  96 116 128 155 204
#     4  12  20  20  30  49  73  98 126 140 169 210
#     4  10  20  31  37  42  52  78 126 177 203 202
#     4  10  17  26  33  45  62  87 116 152 183 204
#
# _framework density 25.886012999999998
#
# number of rings (size 3 to 8) (size 9 to 14) (size 15 to 20)
#    0.000    2.182    5.455    0.545    1.273    0.000 
#    0.000    0.000    0.000    0.000    0.000    0.636 
#    0.000    0.000    0.000    0.000    0.000    0.000 
#
# Total GULP energy -244980.990908 kJ/mol
# GULP energy per Si atom -5567.749793 kJ/mol
# Density = 2.582710 g / cm^3
# Si number density = 25.886013 Si / 1000 Ang^3
#
#
#
# Elastic Constant Matrix: (Units=GPa)
#
#
# Indices 1 2 3 4 5 6 
#
# 1 329.0868 44.7353 11.6409 0.0000 0.0000 0.0000
# 2 44.7353 123.4034 30.2025 0.0000 0.0000 0.0000
# 3 11.6409 30.2025 70.3124 0.0000 0.0000 0.0000
# 4 0.0000 0.0000 0.0000 20.9796 0.0000 0.0000
# 5 0.0000 0.0000 0.0000 0.0000 -69.5426 0.0000
# 6 0.0000 0.0000 0.0000 0.0000 0.0000 -60.6776
#
#
#
# Elastic Compliance Matrix: (Units=1/GPa)
#
#
# Indices 1 2 3 4 5 6 
#
# 1 0.003196 -0.001150 -0.000035 0.000000 0.000000 0.000000
# 2 -0.001150 0.009469 -0.003877 0.000000 0.000000 0.000000
# 3 -0.000035 -0.003877 0.015893 0.000000 0.000000 0.000000
# 4 0.000000 0.000000 0.000000 0.047665 0.000000 0.000000
# 5 0.000000 0.000000 0.000000 0.000000 -0.014380 0.000000
# 6 0.000000 0.000000 0.000000 0.000000 0.000000 -0.016481
#
#
# Mechanical properties :
#
#
# Convention : Reuss Voigt Hill
#
# Bulk Modulus (GPa) = 54.24654 77.32889 65.78772
# Shear Modulus (GPa) = 81.12429 7.23347 44.17888
#
# Velocity S-wave (km/s) = 5.60420 1.67345 4.13567
# Velocity P-wave (km/s) = 7.92954 5.80272 6.94799
#
# Compressibility (1/GPa) = 0.01843436
#
# Stress axis : x y z
#
# Youngs Moduli (GPa) = 312.86206 105.60401 62.91892
#
# Poissons Ratio (x) = 0.12145 0.00221
# Poissons Ratio (y) = 0.35982 0.24394
# Poissons Ratio (z) = 0.01100 0.40944
#
# Static dielectric constant tensor:
#      x y z
#    x 2.255010 0.000000 0.000000 
#    y 0.000000 1.989330 0.000000 
#    z 0.000000 0.000000 2.054240 
# 
# From -- ./inp_files/34465.got.cif
#   From: 2010.05.17/outbox.cif.g08.bks.cpg/sg74_18_cif.got.tgz:34465.got - 2010.06.03 17:57:02.
