data_PCOD9533438
_publ_section_title
;
Structure prediction by ZEFSAII (Michael W. Deem and Ramdas Pophale) SiO2 
 PCOD9533438
Probable space group: I B C A 
;
_chemical_formula_sum "Si O2"
_cell_formula_units_Z 112
_cell_length_a 21.773457
_cell_length_b 13.980244
_cell_length_c 14.125165
_cell_angle_alpha 90.000000
_cell_angle_beta 90.000000
_cell_angle_gamma 90.000000
_cell_volume 4299.675388
_symmetry_space_group_name_H-M "I B C A "
_symmetry_group_IT_number 73
_symmetry_cell_setting 'orthorhombic'
loop_
_space_group_symop_operation_xyz
x,y,z
-x,1/2-y,z
x,-y,1/2-z
1/2-x,y,-z
-x,-y,-z
x,1/2+y,-z
-x,y,1/2+z
1/2+x,-y,z
1/2+x,1/2+y,1/2+z
1/2-x,-y,1/2+z
1/2+x,1/2-y,-z
-x,1/2+y,1/2-z
1/2-x,1/2-y,1/2-z
1/2+x,y,1/2-z
1/2-x,1/2+y,z
x,1/2-y,1/2+z
loop_
_atom_site_type_symbol
_atom_site_label
_atom_site_fract_x
_atom_site_fract_y
_atom_site_fract_z
Si Si1 0.037496 0.592542 0.687430
Si Si2 0.558218 0.449051 0.044991
Si Si3 0.384330 0.859866 0.108831
Si Si4 0.830315 0.066096 0.841619
Si Si5 0.682649 0.722102 0.285038
Si Si6 0.843143 0.319054 0.999585
Si Si7 0.250000 0.481734 0.500000
Si Si8 0.500000 0.750000 0.173610
O O1 0.024989 0.500000 0.750000
O O2 0.097500 0.558856 0.625968
O O3 0.040141 0.681562 0.758519
O O4 0.975236 0.608105 0.629232
O O5 0.607603 0.529257 0.080118
O O6 0.591230 0.367993 0.984850
O O7 0.500000 0.500000 0.000000
O O8 0.351288 0.844025 0.209184
O O9 0.452936 0.816790 0.116575
O O10 0.346778 0.787934 0.039403
O O11 0.839614 0.170892 0.799412
O O12 0.819437 0.000000 0.750000
O O13 0.774439 0.055354 0.916785
O O14 0.750000 0.750000 0.250000
O O15 0.674231 0.678766 0.388988
O O16 0.797832 0.399035 0.039367
#
# Coordination Sequence:
#
# PCOD9533438 Si02
#       8
#    16  16  16  16  16  16   8   8
#     4  11  24  44  75 111 151 201 271 321 407 489
#     4  12  28  46  75 116 163 206 262 333 410 486
#     4  12  27  50  77 113 163 209 264 334 410 488
#     4  11  25  47  78 112 153 214 268 331 408 476
#     4  12  28  50  79 112 153 211 273 332 401 482
#     4  12  29  48  77 118 156 208 275 328 416 488
#     4  12  28  50  76 110 162 208 270 346 396 488
#     4  12  22  44  80 108 154 214 258 334 406 492
#
# _framework density 26.048476999999998
#
# number of rings (size 3 to 8) (size 9 to 14) (size 15 to 20)
#    0.000    0.286    2.857    5.143    8.000    0.571 
#    0.000    0.000    0.000    0.000    0.000    0.000 
#    0.000    0.000    0.000    0.000    0.000    0.000 
#
# Total GULP energy -312442.682778 kJ/mol
# GULP energy per Si atom -5579.333621 kJ/mol
# Density = 2.598919 g / cm^3
# Si number density = 26.048477 Si / 1000 Ang^3
#
#
#
# Elastic Constant Matrix: (Units=GPa)
#
#
# Indices 1 2 3 4 5 6 
#
# 1 89.1058 -8.3823 20.4075 0.0000 0.0000 0.0000
# 2 -8.3823 97.3773 21.1082 0.0000 0.0000 0.0000
# 3 20.4075 21.1082 86.3964 0.0000 0.0000 0.0000
# 4 0.0000 0.0000 0.0000 40.4647 0.0000 0.0000
# 5 0.0000 0.0000 0.0000 0.0000 49.8689 0.0000
# 6 0.0000 0.0000 0.0000 0.0000 0.0000 39.9192
#
#
#
# Elastic Compliance Matrix: (Units=1/GPa)
#
#
# Indices 1 2 3 4 5 6 
#
# 1 0.012144 0.001760 -0.003299 0.000000 0.000000 0.000000
# 2 0.001760 0.011099 -0.003127 0.000000 0.000000 0.000000
# 3 -0.003299 -0.003127 0.013118 0.000000 0.000000 0.000000
# 4 0.000000 0.000000 0.000000 0.024713 0.000000 0.000000
# 5 0.000000 0.000000 0.000000 0.000000 0.020053 0.000000
# 6 0.000000 0.000000 0.000000 0.000000 0.000000 0.025051
#
#
# Mechanical properties :
#
#
# Convention : Reuss Voigt Hill
#
# Bulk Modulus (GPa) = 36.99730 37.68294 37.34012
# Shear Modulus (GPa) = 40.15508 42.03361 41.09435
#
# Velocity S-wave (km/s) = 3.93052 4.02141 3.97622
# Velocity P-wave (km/s) = 5.90193 6.00501 5.95369
#
# Compressibility (1/GPa) = 0.02702900
#
# Stress axis : x y z
#
# Youngs Moduli (GPa) = 82.34756 90.09987 76.23240
#
# Poissons Ratio (x) = -0.15861 0.25145
# Poissons Ratio (y) = -0.14496 0.23841
# Poissons Ratio (z) = 0.27162 0.28178
#
# Static dielectric constant tensor:
#      x y z
#    x 2.435030 0.000000 0.000000 
#    y 0.000000 1.978220 0.000000 
#    z 0.000000 0.000000 2.099090 
# 
# From -- ./inp_files/19446.got.cif
#   From: 2010.05.17/outbox.cif.g08.bks.cpg/sg73_10_cif.got.tgz:19446.got - 2010.06.03 17:35:07.
