data_PCOD9533579
_publ_section_title
;
Structure prediction by ZEFSAII (Michael W. Deem and Ramdas Pophale) SiO2 
 PCOD9533579
Probable space group: I B C A 
;
_chemical_formula_sum "Si O2"
_cell_formula_units_Z 88
_cell_length_a 20.562426
_cell_length_b 7.599512
_cell_length_c 28.107663
_cell_angle_alpha 90.000000
_cell_angle_beta 90.000000
_cell_angle_gamma 90.000000
_cell_volume 4392.227182
_symmetry_space_group_name_H-M "I B C A "
_symmetry_group_IT_number 73
_symmetry_cell_setting 'orthorhombic'
loop_
_space_group_symop_operation_xyz
x,y,z
-x,1/2-y,z
x,-y,1/2-z
1/2-x,y,-z
-x,-y,-z
x,1/2+y,-z
-x,y,1/2+z
1/2+x,-y,z
1/2+x,1/2+y,1/2+z
1/2-x,-y,1/2+z
1/2+x,1/2-y,-z
-x,1/2+y,1/2-z
1/2-x,1/2-y,1/2-z
1/2+x,y,1/2-z
1/2-x,1/2+y,z
x,1/2-y,1/2+z
loop_
_atom_site_type_symbol
_atom_site_label
_atom_site_fract_x
_atom_site_fract_y
_atom_site_fract_z
Si Si1 0.000000 0.250000 0.223973
Si Si2 0.863709 0.558462 0.103900
Si Si3 0.953863 0.105160 0.814598
Si Si4 0.498444 0.041937 0.944346
Si Si5 0.635799 0.597101 0.443076
Si Si6 0.311841 0.723346 0.035199
O O1 0.056027 0.201957 0.263140
O O2 0.996736 0.427420 0.193367
O O3 0.887901 0.556652 0.158228
O O4 0.836371 0.748654 0.089600
O O5 0.819537 0.409937 0.079097
O O6 0.933585 0.537304 0.077843
O O7 0.000000 0.250000 0.839773
O O8 0.500000 0.250000 0.935430
O O9 0.565336 0.960427 0.925214
O O10 0.500000 0.000000 0.000000
O O11 0.631897 0.676800 0.496623
O O12 0.677851 0.420792 0.447492
O O13 0.250000 0.709204 0.000000
#
# Coordination Sequence:
#
# PCOD9533579 Si02
#       6
#     8  16  16  16  16  16
#     4   8  18  36  58  84 128 170 174 244 338 418
#     4  12  24  35  58  88 115 161 215 264 302 388
#     4   9  18  35  56  86 122 163 197 237 319 408
#     4  12  20  33  49  78 117 148 197 250 310 364
#     4  12  22  38  55  78 111 165 216 264 317 357
#     4  12  25  40  55  75 112 174 230 270 312 342
#
# _framework density 20.035392999999999
#
# number of rings (size 3 to 8) (size 9 to 14) (size 15 to 20)
#    0.545    0.364    5.455    3.273    1.273    2.182 
#    0.000    0.000    0.000    0.000    0.000    0.000 
#    0.000    5.818    0.727    0.545    0.000    0.000 
#
# Total GULP energy -245235.302873 kJ/mol
# GULP energy per Si atom -5573.529611 kJ/mol
# Density = 1.998979 g / cm^3
# Si number density = 20.035393 Si / 1000 Ang^3
#
#
#
# Elastic Constant Matrix: (Units=GPa)
#
#
# Indices 1 2 3 4 5 6 
#
# 1 74.8653 37.4718 18.9344 0.0000 0.0000 0.0000
# 2 37.4718 194.8919 46.3450 0.0000 0.0000 0.0000
# 3 18.9344 46.3450 73.9527 0.0000 0.0000 0.0000
# 4 0.0000 0.0000 0.0000 25.2445 0.0000 0.0000
# 5 0.0000 0.0000 0.0000 0.0000 31.3353 0.0000
# 6 0.0000 0.0000 0.0000 0.0000 0.0000 28.1944
#
#
#
# Elastic Compliance Matrix: (Units=1/GPa)
#
#
# Indices 1 2 3 4 5 6 
#
# 1 0.015137 -0.002337 -0.002411 0.000000 0.000000 0.000000
# 2 -0.002337 0.006390 -0.003406 0.000000 0.000000 0.000000
# 3 -0.002411 -0.003406 0.016274 0.000000 0.000000 0.000000
# 4 0.000000 0.000000 0.000000 0.039613 0.000000 0.000000
# 5 0.000000 0.000000 0.000000 0.000000 0.031913 0.000000
# 6 0.000000 0.000000 0.000000 0.000000 0.000000 0.035468
#
#
# Mechanical properties :
#
#
# Convention : Reuss Voigt Hill
#
# Bulk Modulus (GPa) = 46.52757 61.02358 53.77558
# Shear Modulus (GPa) = 29.71452 33.01877 31.36664
#
# Velocity S-wave (km/s) = 3.85528 4.06399 3.96101
# Velocity P-wave (km/s) = 6.56435 7.24882 6.91506
#
# Compressibility (1/GPa) = 0.02149263
#
# Stress axis : x y z
#
# Youngs Moduli (GPa) = 66.06407 156.48391 61.44698
#
# Poissons Ratio (x) = 0.36571 0.14815
# Poissons Ratio (y) = 0.15439 0.20931
# Poissons Ratio (z) = 0.15928 0.53305
#
# Static dielectric constant tensor:
#      x y z
#    x 1.799610 0.000000 0.000000 
#    y 0.000000 1.763610 0.000000 
#    z 0.000000 0.000000 1.782070 
# 
# From -- ./inp_files/34654.got.cif
#   From: 2010.05.17/outbox.cif.g08.bks.cpg/sg73_18_cif.got.tgz:34654.got - 2010.06.03 17:35:07.
