data_PCOD9533318
_publ_section_title
;
Structure prediction by ZEFSAII (Michael W. Deem and Ramdas Pophale) SiO2 
 PCOD9533318
Probable space group: I B C A 
;
_chemical_formula_sum "Si O2"
_cell_formula_units_Z 120
_cell_length_a 17.862792
_cell_length_b 16.987147
_cell_length_c 16.101933
_cell_angle_alpha 90.000000
_cell_angle_beta 90.000000
_cell_angle_gamma 90.000000
_cell_volume 4885.936309
_symmetry_space_group_name_H-M "I B C A "
_symmetry_group_IT_number 73
_symmetry_cell_setting 'orthorhombic'
loop_
_space_group_symop_operation_xyz
x,y,z
-x,1/2-y,z
x,-y,1/2-z
1/2-x,y,-z
-x,-y,-z
x,1/2+y,-z
-x,y,1/2+z
1/2+x,-y,z
1/2+x,1/2+y,1/2+z
1/2-x,-y,1/2+z
1/2+x,1/2-y,-z
-x,1/2+y,1/2-z
1/2-x,1/2-y,1/2-z
1/2+x,y,1/2-z
1/2-x,1/2+y,z
x,1/2-y,1/2+z
loop_
_atom_site_type_symbol
_atom_site_label
_atom_site_fract_x
_atom_site_fract_y
_atom_site_fract_z
Si Si1 0.416872 0.762753 0.758887
Si Si2 0.744194 0.101421 0.344862
Si Si3 0.220041 0.265738 0.885367
Si Si4 0.893609 0.041785 0.403253
Si Si5 0.250000 0.638146 0.500000
Si Si6 0.630885 0.985289 0.429460
Si Si7 0.836882 0.618607 0.823736
Si Si8 0.473486 0.417051 0.205180
O O1 0.500000 0.750000 0.797904
O O2 0.346322 0.767064 0.819880
O O3 0.393195 0.689991 0.699545
O O4 0.435540 0.852995 0.733581
O O5 0.728778 0.193331 0.358828
O O6 0.783488 0.094892 0.254279
O O7 0.813461 0.084160 0.406030
O O8 0.679068 0.043045 0.370255
O O9 0.188971 0.282959 0.974689
O O10 0.273345 0.345726 0.886653
O O11 0.915925 0.030332 0.498913
O O12 0.879169 0.957352 0.357961
O O13 0.946649 0.091834 0.342036
O O14 0.314233 0.570359 0.480173
O O15 0.582353 0.930618 0.370717
O O16 0.479376 0.500000 0.250000
#
# Coordination Sequence:
#
# PCOD9533318 Si02
#       8
#    16  16  16  16   8  16  16  16
#     4  11  23  43  66 102 139 180 232 298 350 423
#     4  11  23  40  72 102 129 178 240 291 342 426
#     4  11  24  42  70  99 141 181 237 295 359 421
#     4  12  24  47  68 102 144 195 227 291 372 435
#     4  12  22  44  66  98 138 192 222 296 360 422
#     4  12  25  44  69 103 144 181 241 294 356 434
#     4  11  24  45  72  99 143 188 237 296 363 424
#     4  12  27  43  71 104 138 183 239 298 353 427
#
# _framework density 24.560286999999999
#
# number of rings (size 3 to 8) (size 9 to 14) (size 15 to 20)
#    0.000    0.533    4.000    5.600    5.600    0.000 
#    0.000    0.000    0.000    0.800    0.000    0.000 
#    0.000    0.000    0.000    0.000    0.000    0.000 
#
# Total GULP energy -334424.973731 kJ/mol
# GULP energy per Si atom -5573.749562 kJ/mol
# Density = 2.450439 g / cm^3
# Si number density = 24.560287 Si / 1000 Ang^3
#
#
#
# Elastic Constant Matrix: (Units=GPa)
#
#
# Indices 1 2 3 4 5 6 
#
# 1 96.8820 38.8628 21.1300 0.0000 0.0000 0.0000
# 2 38.8628 111.8661 23.0813 0.0000 0.0000 0.0000
# 3 21.1300 23.0813 84.6470 0.0000 0.0000 0.0000
# 4 0.0000 0.0000 0.0000 33.3741 0.0000 0.0000
# 5 0.0000 0.0000 0.0000 0.0000 32.0460 0.0000
# 6 0.0000 0.0000 0.0000 0.0000 0.0000 37.9915
#
#
#
# Elastic Compliance Matrix: (Units=1/GPa)
#
#
# Indices 1 2 3 4 5 6 
#
# 1 0.012311 -0.003860 -0.002021 0.000000 0.000000 0.000000
# 2 -0.003860 0.010682 -0.001949 0.000000 0.000000 0.000000
# 3 -0.002021 -0.001949 0.012850 0.000000 0.000000 0.000000
# 4 0.000000 0.000000 0.000000 0.029963 0.000000 0.000000
# 5 0.000000 0.000000 0.000000 0.000000 0.031205 0.000000
# 6 0.000000 0.000000 0.000000 0.000000 0.000000 0.026322
#
#
# Mechanical properties :
#
#
# Convention : Reuss Voigt Hill
#
# Bulk Modulus (GPa) = 49.54593 51.06039 50.30316
# Shear Modulus (GPa) = 34.31222 34.70371 34.50797
#
# Velocity S-wave (km/s) = 3.74178 3.76307 3.75244
# Velocity P-wave (km/s) = 6.23578 6.30205 6.26900
#
# Compressibility (1/GPa) = 0.02018329
#
# Stress axis : x y z
#
# Youngs Moduli (GPa) = 81.22890 93.61169 77.82289
#
# Poissons Ratio (x) = 0.36134 0.15725
# Poissons Ratio (y) = 0.31354 0.15170
# Poissons Ratio (z) = 0.16413 0.18248
#
# Static dielectric constant tensor:
#      x y z
#    x 2.032810 0.000000 0.000000 
#    y 0.000000 2.122290 0.000000 
#    z 0.000000 0.000000 2.125290 
# 
# From -- ./inp_files/22674.got.cif
#   From: 2010.05.17/outbox.cif.g08.bks.cpg/sg73_12_cif.got.tgz:22674.got - 2010.06.03 17:35:07.
