data_PCOD9533754
_publ_section_title
;
Structure prediction by ZEFSAII (Michael W. Deem and Ramdas Pophale) SiO2 
 PCOD9533754
Probable space group: I B C A 
;
_chemical_formula_sum "Si O2"
_cell_formula_units_Z 48
_cell_length_a 21.000000
_cell_length_b 15.000000
_cell_length_c 15.000000
_cell_angle_alpha 90.000000
_cell_angle_beta 90.000000
_cell_angle_gamma 90.000000
_cell_volume 4725.000000
_symmetry_space_group_name_H-M "I B C A "
_symmetry_group_IT_number 73
_symmetry_cell_setting 'orthorhombic'
loop_
_space_group_symop_operation_xyz
x,y,z
-x,1/2-y,z
x,-y,1/2-z
1/2-x,y,-z
-x,-y,-z
x,1/2+y,-z
-x,y,1/2+z
1/2+x,-y,z
1/2+x,1/2+y,1/2+z
1/2-x,-y,1/2+z
1/2+x,1/2-y,-z
-x,1/2+y,1/2-z
1/2-x,1/2-y,1/2-z
1/2+x,y,1/2-z
1/2-x,1/2+y,z
x,1/2-y,1/2+z
loop_
_atom_site_type_symbol
_atom_site_label
_atom_site_fract_x
_atom_site_fract_y
_atom_site_fract_z
Si Si1 0.191105 0.510880 0.057601
Si Si2 0.849756 0.645089 0.811796
Si Si3 0.051253 0.078504 0.987452
Si Si4 0.480216 0.100807 0.214650
Si Si5 0.767970 0.402035 0.205147
Si Si6 0.590819 0.170172 0.335847
O O1 0.164237 0.433365 0.119979
O O2 0.125837 0.548055 0.015902
O O3 0.229098 0.586274 0.113108
O O4 0.250000 0.472605 0.000000
O O5 0.907895 0.615740 0.748442
O O6 0.781223 0.657612 0.763495
O O7 0.880382 0.732511 0.854136
O O8 0.028261 0.115032 0.891380
O O9 0.053324 0.138083 0.076154
O O10 0.000000 0.000000 0.000000
O O11 0.537775 0.159116 0.257493
O O12 0.496100 0.000000 0.250000
O O13 0.766926 0.500000 0.250000
O O14 0.842334 0.378886 0.191380
#
# Coordination Sequence:
#
# PCOD9533754 Si02
#       6
#    16  16  16  16  16  16
#     4  11  21  42  69  96 132 182 233 275 334 421
#     4  11  23  43  64  99 141 180 220 290 358 401
#     4  12  24  41  70 101 130 181 237 284 337 422
#     4  12  22  44  71  92 135 187 232 281 346 424
#     4  10  21  40  69  94 130 181 232 268 336 427
#     4  12  25  41  67 105 140 172 235 297 349 409
#
# _framework density 10.15873
#
# number of rings (size 3 to 8) (size 9 to 14) (size 15 to 20)
#    0.000    0.667    6.667    2.000    0.000    0.000 
#    3.000    8.333    0.000    0.000    0.000    0.000 
#    0.000    0.000    0.000    0.000    0.000    0.000 
#
# Total GULP energy -267387.601451 kJ/mol
# GULP energy per Si atom -5570.575030 kJ/mol
# Density = 1.013561 g / cm^3
# Si number density = 10.158730 Si / 1000 Ang^3
#
#
#
# Elastic Constant Matrix: (Units=GPa)
#
#
# Indices 1 2 3 4 5 6 
#
# 1 144.5934 6.9006 51.6000 0.0000 0.0000 0.0000
# 2 6.9006 34.5589 15.6384 0.0000 0.0000 0.0000
# 3 51.6000 15.6384 113.4313 0.0000 0.0000 0.0000
# 4 0.0000 0.0000 0.0000 -12.2531 0.0000 0.0000
# 5 0.0000 0.0000 0.0000 0.0000 35.3120 0.0000
# 6 0.0000 0.0000 0.0000 0.0000 0.0000 39.7695
#
#
#
# Elastic Compliance Matrix: (Units=1/GPa)
#
#
# Indices 1 2 3 4 5 6 
#
# 1 0.008256 0.000054 -0.003763 0.000000 0.000000 0.000000
# 2 0.000054 0.030862 -0.004280 0.000000 0.000000 0.000000
# 3 -0.003763 -0.004280 0.011118 0.000000 0.000000 0.000000
# 4 0.000000 0.000000 0.000000 -0.081612 0.000000 0.000000
# 5 0.000000 0.000000 0.000000 0.000000 0.028319 0.000000
# 6 0.000000 0.000000 0.000000 0.000000 0.000000 0.025145
#
#
# Mechanical properties :
#
#
# Convention : Reuss Voigt Hill
#
# Bulk Modulus (GPa) = 29.18944 48.98463 39.08703
# Shear Modulus (GPa) = 101.04162 27.12866 64.08514
#
# Velocity S-wave (km/s) = 7.05970 3.65806 5.62231
# Velocity P-wave (km/s) = 8.99168 6.48103 7.83754
#
# Compressibility (1/GPa) = 0.03425897
#
# Stress axis : x y z
#
# Youngs Moduli (GPa) = 121.11912 32.40255 89.94548
#
# Poissons Ratio (x) = -0.00176 0.33849
# Poissons Ratio (y) = -0.00658 0.38493
# Poissons Ratio (z) = 0.45581 0.13867
#
# Static dielectric constant tensor:
#      x y z
#    x 1.764780 0.000000 0.000000 
#    y 0.000000 1.805100 0.000000 
#    z 0.000000 0.000000 1.830600 
# 
# From -- ./inp_files/17008.got.cif
#   From: 2010.05.17/outbox.ucp.g08.bks.cvg/sg73_9_cif.got.tgz:17008.got - 2010.06.11 16:36:03.
