data_PCOD9533781
_publ_section_title
;
Structure prediction by ZEFSAII (Michael W. Deem and Ramdas Pophale) SiO2 
 PCOD9533781
Probable space group: I B C A 
;
_chemical_formula_sum "Si O2"
_cell_formula_units_Z 60
_cell_length_a 15.000000
_cell_length_b 30.000000
_cell_length_c 15.000000
_cell_angle_alpha 90.000000
_cell_angle_beta 90.000000
_cell_angle_gamma 90.000000
_cell_volume 6750.000000
_symmetry_space_group_name_H-M "I B C A "
_symmetry_group_IT_number 73
_symmetry_cell_setting 'orthorhombic'
loop_
_space_group_symop_operation_xyz
x,y,z
-x,1/2-y,z
x,-y,1/2-z
1/2-x,y,-z
-x,-y,-z
x,1/2+y,-z
-x,y,1/2+z
1/2+x,-y,z
1/2+x,1/2+y,1/2+z
1/2-x,-y,1/2+z
1/2+x,1/2-y,-z
-x,1/2+y,1/2-z
1/2-x,1/2-y,1/2-z
1/2+x,y,1/2-z
1/2-x,1/2+y,z
x,1/2-y,1/2+z
loop_
_atom_site_type_symbol
_atom_site_label
_atom_site_fract_x
_atom_site_fract_y
_atom_site_fract_z
Si Si1 0.768825 0.197255 0.736774
Si Si2 0.465377 0.301001 0.338505
Si Si3 0.613505 0.500000 0.750000
Si Si4 0.197251 0.143108 0.415768
Si Si5 0.957296 0.064003 0.163588
Si Si6 0.240892 0.541596 0.393591
Si Si7 0.583995 0.144404 0.696610
Si Si8 0.997171 0.131636 0.999553
O O1 0.750000 0.250000 0.750000
O O2 0.858854 0.194763 0.677455
O O3 0.794202 0.174773 0.831216
O O4 0.681221 0.169229 0.703228
O O5 0.500000 0.250000 0.345014
O O6 0.515607 0.323047 0.251974
O O7 0.487304 0.327747 0.430277
O O8 0.542079 0.535322 0.703671
O O9 0.683278 0.480626 0.672936
O O10 0.250000 0.162606 0.500000
O O11 0.238961 0.094771 0.392600
O O12 0.098430 0.135089 0.451905
O O13 0.863922 0.037692 0.138361
O O14 0.926690 0.099632 0.241156
O O15 0.990043 0.089864 0.071714
O O16 0.250000 0.528168 0.500000
O O17 0.560336 0.133976 0.591082
#
# Coordination Sequence:
#
# PCOD9533781 Si02
#       8
#    16  16   8  16  16  16  16  16
#     4  12  24  40  67  97 135 179 226 283 339 391
#     4  11  24  40  60  96 134 170 229 282 330 399
#     4  12  28  44  68 110 142 170 226 306 350 406
#     4  11  20  42  68  90 123 180 230 261 325 412
#     4  11  24  45  72 101 134 184 229 280 357 420
#     4  11  23  46  72  99 137 183 233 275 344 436
#     4  11  23  44  67  95 132 182 223 283 340 403
#     4  11  23  41  68  92 131 179 225 278 342 407
#
# _framework density 8.8888890000000007
#
# number of rings (size 3 to 8) (size 9 to 14) (size 15 to 20)
#    0.000    0.800    6.667    2.000    1.867    2.667 
#    2.400    0.000    0.000    0.000    0.000    0.000 
#    0.000    0.000    0.000    0.000    0.000    0.000 
#
# Total GULP energy -334272.312346 kJ/mol
# GULP energy per Si atom -5571.205206 kJ/mol
# Density = 0.886866 g / cm^3
# Si number density = 8.888889 Si / 1000 Ang^3
#
#
#
# Elastic Constant Matrix: (Units=GPa)
#
#
# Indices 1 2 3 4 5 6 
#
# 1 146.8357 38.1087 54.6179 0.0000 0.0000 0.0000
# 2 38.1087 77.6463 50.6065 0.0000 0.0000 0.0000
# 3 54.6179 50.6065 159.2496 0.0000 0.0000 0.0000
# 4 0.0000 0.0000 0.0000 31.5582 0.0000 0.0000
# 5 0.0000 0.0000 0.0000 0.0000 49.5413 0.0000
# 6 0.0000 0.0000 0.0000 0.0000 0.0000 38.3873
#
#
#
# Elastic Compliance Matrix: (Units=1/GPa)
#
#
# Indices 1 2 3 4 5 6 
#
# 1 0.008257 -0.002783 -0.001947 0.000000 0.000000 0.000000
# 2 -0.002783 0.017181 -0.004505 0.000000 0.000000 0.000000
# 3 -0.001947 -0.004505 0.008379 0.000000 0.000000 0.000000
# 4 0.000000 0.000000 0.000000 0.031687 0.000000 0.000000
# 5 0.000000 0.000000 0.000000 0.000000 0.020185 0.000000
# 6 0.000000 0.000000 0.000000 0.000000 0.000000 0.026050
#
#
# Mechanical properties :
#
#
# Convention : Reuss Voigt Hill
#
# Bulk Modulus (GPa) = 65.16632 74.48865 69.82748
# Shear Modulus (GPa) = 36.94739 39.92394 38.43567
#
# Velocity S-wave (km/s) = 4.56377 4.74405 4.65478
# Velocity P-wave (km/s) = 8.03158 8.48521 8.26151
#
# Compressibility (1/GPa) = 0.01534535
#
# Stress axis : x y z
#
# Youngs Moduli (GPa) = 121.10825 58.20277 119.34497
#
# Poissons Ratio (x) = 0.16200 0.23242
# Poissons Ratio (y) = 0.33708 0.53769
# Poissons Ratio (z) = 0.23585 0.26222
#
# Static dielectric constant tensor:
#      x y z
#    x 1.645020 0.000000 0.000000 
#    y 0.000000 1.628710 0.000000 
#    z 0.000000 0.000000 1.612230 
# 
# From -- ./inp_files/17482.got.cif
#   From: 2010.05.17/outbox.ucp.g08.bks.cvg/sg73_9_cif.got.tgz:17482.got - 2010.06.11 16:36:03.
