data_PCOD9533103
_publ_section_title
;
Structure prediction by ZEFSAII (Michael W. Deem and Ramdas Pophale) SiO2 
 PCOD9533103
Probable space group: I B C A 
;
_chemical_formula_sum "Si O2"
_cell_formula_units_Z 56
_cell_length_a 9.018506
_cell_length_b 26.291534
_cell_length_c 8.695014
_cell_angle_alpha 90.000000
_cell_angle_beta 90.000000
_cell_angle_gamma 90.000000
_cell_volume 2061.677875
_symmetry_space_group_name_H-M "I B C A "
_symmetry_group_IT_number 73
_symmetry_cell_setting 'orthorhombic'
loop_
_space_group_symop_operation_xyz
x,y,z
-x,1/2-y,z
x,-y,1/2-z
1/2-x,y,-z
-x,-y,-z
x,1/2+y,-z
-x,y,1/2+z
1/2+x,-y,z
1/2+x,1/2+y,1/2+z
1/2-x,-y,1/2+z
1/2+x,1/2-y,-z
-x,1/2+y,1/2-z
1/2-x,1/2-y,1/2-z
1/2+x,y,1/2-z
1/2-x,1/2+y,z
x,1/2-y,1/2+z
loop_
_atom_site_type_symbol
_atom_site_label
_atom_site_fract_x
_atom_site_fract_y
_atom_site_fract_z
Si Si1 0.595627 0.636894 0.322241
Si Si2 0.816894 0.699699 0.171255
Si Si3 0.719922 0.000000 0.750000
Si Si4 0.976100 0.563444 0.409490
O O1 0.759179 0.657356 0.293931
O O2 0.489087 0.685302 0.351242
O O3 0.570234 0.587847 0.429101
O O4 0.550432 0.613346 0.160930
O O5 0.750000 0.750000 0.250000
O O6 0.750000 0.696562 0.000000
O O7 0.609300 0.977801 0.617128
O O8 0.835248 0.958536 0.817340
#
# Coordination Sequence:
#
# PCOD9533103 Si02
#       4
#    16  16   8  16
#     4  12  27  50  80 115 160 210 263 326 404 481
#     4  12  29  52  81 119 157 202 261 327 406 487
#     4  10  26  48  78 120 168 216 282 336 404 460
#     4  11  26  47  78 116 161 217 270 334 394 476
#
# _framework density 27.16234
#
# number of rings (size 3 to 8) (size 9 to 14) (size 15 to 20)
#    0.000    0.571    2.857    2.571    4.000   12.571 
#    0.000    0.000    0.000    0.000    0.000    0.000 
#    0.000    0.000    0.000    0.000    0.000    0.000 
#
# Total GULP energy -156611.062543 kJ/mol
# GULP energy per Si atom -5593.252234 kJ/mol
# Density = 2.710052 g / cm^3
# Si number density = 27.162340 Si / 1000 Ang^3
#
#
#
# Elastic Constant Matrix: (Units=GPa)
#
#
# Indices 1 2 3 4 5 6 
#
# 1 148.1891 39.2251 5.3171 -0.0003 0.0000 0.0000
# 2 39.2251 157.2416 21.2720 0.0002 0.0000 0.0000
# 3 5.3171 21.2720 72.9759 -0.0004 0.0002 0.0000
# 4 -0.0003 0.0002 -0.0004 58.1670 -0.0001 0.0000
# 5 0.0000 0.0000 0.0002 -0.0001 41.4676 0.0000
# 6 0.0000 0.0000 0.0000 0.0000 0.0000 51.9402
#
#
#
# Elastic Compliance Matrix: (Units=1/GPa)
#
#
# Indices 1 2 3 4 5 6 
#
# 1 0.007225 -0.001802 -0.000001 0.000000 0.000000 0.000000
# 2 -0.001802 0.007070 -0.001930 0.000000 0.000000 0.000000
# 3 -0.000001 -0.001930 0.014266 0.000000 0.000000 0.000000
# 4 0.000000 0.000000 0.000000 0.017192 0.000000 0.000000
# 5 0.000000 0.000000 0.000000 0.000000 0.024115 0.000000
# 6 0.000000 0.000000 0.000000 0.000000 0.000000 0.019253
#
#
# Mechanical properties :
#
#
# Convention : Reuss Voigt Hill
#
# Bulk Modulus (GPa) = 47.40400 56.67057 52.03729
# Shear Modulus (GPa) = 48.25377 51.15446 49.70411
#
# Velocity S-wave (km/s) = 4.21942 4.34439 4.28236
# Velocity P-wave (km/s) = 6.42090 6.78778 6.60689
#
# Compressibility (1/GPa) = 0.02109527
#
# Stress axis : x y z
#
# Youngs Moduli (GPa) = 138.40405 141.43731 70.09821
#
# Poissons Ratio (x) = 0.25490 0.00008
# Poissons Ratio (y) = 0.24944 0.13526
# Poissons Ratio (z) = 0.00015 0.27292
#
# Static dielectric constant tensor:
#      x y z
#    x 2.103230 0.000000 0.000000 
#    y 0.000000 2.227520 0.000000 
#    z 0.000000 0.000000 2.107430 
# 
# From -- ./inp_files/3831.got.cif
#   From: 2010.05.17/outbox.cif.g08.bks.cpg/sg73_2_cif.got.tgz:3831.got - 2010.06.03 17:35:07.
