data_PCOD9533396
_publ_section_title
;
Structure prediction by ZEFSAII (Michael W. Deem and Ramdas Pophale) SiO2 
 PCOD9533396
Probable space group: I B C A 
;
_chemical_formula_sum "Si O2"
_cell_formula_units_Z 96
_cell_length_a 13.728951
_cell_length_b 20.466148
_cell_length_c 14.219983
_cell_angle_alpha 90.000000
_cell_angle_beta 90.000000
_cell_angle_gamma 90.000000
_cell_volume 3995.512950
_symmetry_space_group_name_H-M "I B C A "
_symmetry_group_IT_number 73
_symmetry_cell_setting 'orthorhombic'
loop_
_space_group_symop_operation_xyz
x,y,z
-x,1/2-y,z
x,-y,1/2-z
1/2-x,y,-z
-x,-y,-z
x,1/2+y,-z
-x,y,1/2+z
1/2+x,-y,z
1/2+x,1/2+y,1/2+z
1/2-x,-y,1/2+z
1/2+x,1/2-y,-z
-x,1/2+y,1/2-z
1/2-x,1/2-y,1/2-z
1/2+x,y,1/2-z
1/2-x,1/2+y,z
x,1/2-y,1/2+z
loop_
_atom_site_type_symbol
_atom_site_label
_atom_site_fract_x
_atom_site_fract_y
_atom_site_fract_z
Si Si1 0.979094 0.820659 0.005477
Si Si2 0.220350 0.325790 0.237507
Si Si3 0.186566 0.589739 0.090498
Si Si4 0.376306 0.615056 0.371445
Si Si5 0.508130 0.000965 0.887005
Si Si6 0.999408 0.646193 0.303426
O O1 0.887217 0.855728 0.050391
O O2 0.000000 0.750000 0.045234
O O3 0.075089 0.862249 0.031505
O O4 0.961797 0.817030 0.894976
O O5 0.250000 0.250000 0.250000
O O6 0.244669 0.373411 0.326789
O O7 0.267992 0.361707 0.146947
O O8 0.105155 0.329416 0.225001
O O9 0.111504 0.535558 0.131300
O O10 0.250000 0.567071 0.000000
O O11 0.412890 0.541071 0.357549
O O12 0.432520 0.652187 0.287199
O O13 0.505422 0.070852 0.838546
O O14 0.500000 0.000000 0.000000
#
# Coordination Sequence:
#
# PCOD9533396 Si02
#       6
#    16  16  16  16  16  16
#     4  11  24  44  72 100 141 186 231 289 357 427
#     4  12  28  45  71 109 144 183 241 293 359 440
#     4  11  24  46  70 101 137 184 230 295 356 413
#     4  11  25  46  72 102 143 188 234 295 360 421
#     4  11  23  49  71 102 143 181 243 295 357 428
#     4  12  25  47  74 102 140 191 231 299 359 417
#
# _framework density 24.026952000000001
#
# number of rings (size 3 to 8) (size 9 to 14) (size 15 to 20)
#    0.000    0.667    6.667    2.500    4.667    2.000 
#    3.000    0.000    0.000    0.000    0.000    0.000 
#    0.000    0.000    0.000    0.000    0.000    0.000 
#
# Total GULP energy -268519.947612 kJ/mol
# GULP energy per Si atom -5594.165575 kJ/mol
# Density = 2.397227 g / cm^3
# Si number density = 24.026952 Si / 1000 Ang^3
#
#
#
# Elastic Constant Matrix: (Units=GPa)
#
#
# Indices 1 2 3 4 5 6 
#
# 1 51.1194 -6.9528 -10.7686 -0.0001 0.0000 0.0000
# 2 -6.9528 118.2543 -20.6645 -0.0006 0.0001 0.0001
# 3 -10.7686 -20.6645 76.9149 -0.0010 0.0001 0.0001
# 4 -0.0001 -0.0006 -0.0010 23.2912 0.0001 0.0001
# 5 0.0000 0.0001 0.0001 0.0001 37.8415 0.0000
# 6 0.0000 0.0001 0.0001 0.0001 0.0000 31.1647
#
#
#
# Elastic Compliance Matrix: (Units=1/GPa)
#
#
# Indices 1 2 3 4 5 6 
#
# 1 0.020512 0.001792 0.003353 0.000000 0.000000 0.000000
# 2 0.001792 0.009029 0.002677 0.000000 0.000000 0.000000
# 3 0.003353 0.002677 0.014190 0.000001 0.000000 0.000000
# 4 0.000000 0.000000 0.000001 0.042935 0.000000 0.000000
# 5 0.000000 0.000000 0.000000 0.000000 0.026426 0.000000
# 6 0.000000 0.000000 0.000000 0.000000 0.000000 0.032088
#
#
# Mechanical properties :
#
#
# Convention : Reuss Voigt Hill
#
# Bulk Modulus (GPa) = 16.84185 18.83520 17.83853
# Shear Modulus (GPa) = 33.48342 37.43779 35.46060
#
# Velocity S-wave (km/s) = 3.73712 3.95163 3.84587
# Velocity P-wave (km/s) = 5.06420 5.35507 5.21167
#
# Compressibility (1/GPa) = 0.05937589
#
# Stress axis : x y z
#
# Youngs Moduli (GPa) = 48.75152 110.74839 70.47197
#
# Poissons Ratio (x) = -0.19846 -0.23631
# Poissons Ratio (y) = -0.08736 -0.18864
# Poissons Ratio (z) = -0.16348 -0.29645
#
# Static dielectric constant tensor:
#      x y z
#    x 1.911070 0.000000 0.000000 
#    y 0.000000 1.970520 0.000000 
#    z 0.000000 0.000000 1.957710 
# 
# From -- ./inp_files/17030.got.cif
#   From: 2010.05.17/outbox.cif.g08.bks.cpg/sg73_9_cif.got.tgz:17030.got - 2010.06.03 17:35:07.
