data_PCOD9533280
_publ_section_title
;
Structure prediction by ZEFSAII (Michael W. Deem and Ramdas Pophale) SiO2 
 PCOD9533280
Probable space group: I B C A 
;
_chemical_formula_sum "Si O2"
_cell_formula_units_Z 72
_cell_length_a 13.902390
_cell_length_b 17.307299
_cell_length_c 12.951036
_cell_angle_alpha 90.000000
_cell_angle_beta 90.000000
_cell_angle_gamma 90.000000
_cell_volume 3116.185301
_symmetry_space_group_name_H-M "I B C A "
_symmetry_group_IT_number 73
_symmetry_cell_setting 'orthorhombic'
loop_
_space_group_symop_operation_xyz
x,y,z
-x,1/2-y,z
x,-y,1/2-z
1/2-x,y,-z
-x,-y,-z
x,1/2+y,-z
-x,y,1/2+z
1/2+x,-y,z
1/2+x,1/2+y,1/2+z
1/2-x,-y,1/2+z
1/2+x,1/2-y,-z
-x,1/2+y,1/2-z
1/2-x,1/2-y,1/2-z
1/2+x,y,1/2-z
1/2-x,1/2+y,z
x,1/2-y,1/2+z
loop_
_atom_site_type_symbol
_atom_site_label
_atom_site_fract_x
_atom_site_fract_y
_atom_site_fract_z
Si Si1 0.322245 0.657273 0.221792
Si Si2 0.077702 0.487308 0.645290
Si Si3 0.500000 0.250000 0.670002
Si Si4 0.187503 0.203227 0.597658
Si Si5 0.021225 0.125187 0.484747
O O1 0.341985 0.568760 0.194835
O O2 0.414305 0.706924 0.268069
O O3 0.234244 0.665476 0.300865
O O4 0.303453 0.706054 0.118946
O O5 0.013948 0.500000 0.750000
O O6 0.087153 0.569779 0.588943
O O7 0.037751 0.432342 0.555880
O O8 0.535324 0.182140 0.592362
O O9 0.250000 0.180914 0.500000
O O10 0.082596 0.175438 0.565403
#
# Coordination Sequence:
#
# PCOD9533280 Si02
#       5
#    16  16   8  16  16
#     4  11  24  39  71  92 135 167 223 270 329 388
#     4  11  22  44  63  99 129 173 214 274 324 390
#     4  12  20  42  68  92 122 172 216 274 302 394
#     4  11  22  44  63  99 129 173 214 274 324 390
#     4  11  24  39  71  92 135 167 223 270 329 388
#
# _framework density 23.105170999999999
#
# number of rings (size 3 to 8) (size 9 to 14) (size 15 to 20)
#    0.000    0.889    4.444    2.667    0.000    0.000 
#    0.000    6.667    0.000    0.000    0.000    0.000 
#    0.000    0.000    0.000    0.000    0.000    0.000 
#
# Total GULP energy -200701.712522 kJ/mol
# GULP energy per Si atom -5575.047570 kJ/mol
# Density = 2.305258 g / cm^3
# Si number density = 23.105171 Si / 1000 Ang^3
#
#
#
# Elastic Constant Matrix: (Units=GPa)
#
#
# Indices 1 2 3 4 5 6 
#
# 1 29.6551 12.3589 7.8400 0.0000 0.0000 0.0000
# 2 12.3589 144.9015 33.3015 0.0000 0.0000 0.0000
# 3 7.8400 33.3015 97.1651 0.0000 0.0000 0.0000
# 4 0.0000 0.0000 0.0000 42.3394 0.0000 0.0000
# 5 0.0000 0.0000 0.0000 0.0000 16.7282 0.0000
# 6 0.0000 0.0000 0.0000 0.0000 0.0000 15.7942
#
#
#
# Elastic Compliance Matrix: (Units=1/GPa)
#
#
# Indices 1 2 3 4 5 6 
#
# 1 0.035309 -0.002558 -0.001972 0.000000 0.000000 0.000000
# 2 -0.002558 0.007677 -0.002425 0.000000 0.000000 0.000000
# 3 -0.001972 -0.002425 0.011282 0.000000 0.000000 0.000000
# 4 0.000000 0.000000 0.000000 0.023619 0.000000 0.000000
# 5 0.000000 0.000000 0.000000 0.000000 0.059779 0.000000
# 6 0.000000 0.000000 0.000000 0.000000 0.000000 0.063314
#
#
# Mechanical properties :
#
#
# Convention : Reuss Voigt Hill
#
# Bulk Modulus (GPa) = 24.77884 42.08026 33.42955
# Shear Modulus (GPa) = 21.89699 29.52046 25.70873
#
# Velocity S-wave (km/s) = 3.08183 3.57831 3.33931
# Velocity P-wave (km/s) = 4.83851 5.94343 5.41921
#
# Compressibility (1/GPa) = 0.04035701
#
# Stress axis : x y z
#
# Youngs Moduli (GPa) = 28.32176 130.26482 88.63774
#
# Poissons Ratio (x) = 0.33325 0.17481
# Poissons Ratio (y) = 0.07246 0.21491
# Poissons Ratio (z) = 0.05585 0.31584
#
# Static dielectric constant tensor:
#      x y z
#    x 1.936180 0.000000 0.000000 
#    y 0.000000 1.902260 0.000000 
#    z 0.000000 0.000000 1.968710 
# 
# From -- ./inp_files/16755.got.cif
#   From: 2010.05.17/outbox.cif.g08.bks.cpg/sg73_9_cif.got.tgz:16755.got - 2010.06.03 17:35:07.
