data_PCOD9533202
_publ_section_title
;
Structure prediction by ZEFSAII (Michael W. Deem and Ramdas Pophale) SiO2 
 PCOD9533202
Probable space group: I B C A 
;
_chemical_formula_sum "Si O2"
_cell_formula_units_Z 120
_cell_length_a 17.844318
_cell_length_b 17.508618
_cell_length_c 18.607594
_cell_angle_alpha 90.000000
_cell_angle_beta 90.000000
_cell_angle_gamma 90.000000
_cell_volume 5813.558449
_symmetry_space_group_name_H-M "I B C A "
_symmetry_group_IT_number 73
_symmetry_cell_setting 'orthorhombic'
loop_
_space_group_symop_operation_xyz
x,y,z
-x,1/2-y,z
x,-y,1/2-z
1/2-x,y,-z
-x,-y,-z
x,1/2+y,-z
-x,y,1/2+z
1/2+x,-y,z
1/2+x,1/2+y,1/2+z
1/2-x,-y,1/2+z
1/2+x,1/2-y,-z
-x,1/2+y,1/2-z
1/2-x,1/2-y,1/2-z
1/2+x,y,1/2-z
1/2-x,1/2+y,z
x,1/2-y,1/2+z
loop_
_atom_site_type_symbol
_atom_site_label
_atom_site_fract_x
_atom_site_fract_y
_atom_site_fract_z
Si Si1 0.420908 0.207078 0.840736
Si Si2 0.446017 0.913846 0.442764
Si Si3 0.222780 0.956347 0.575886
Si Si4 0.724081 0.208261 0.418207
Si Si5 0.307513 0.543998 0.324358
Si Si6 0.847562 0.281328 0.313011
Si Si7 0.553186 0.962712 0.108159
Si Si8 0.500000 0.250000 0.100651
O O1 0.500000 0.250000 0.843483
O O2 0.362222 0.229945 0.903595
O O3 0.373133 0.230356 0.769658
O O4 0.441224 0.115876 0.845701
O O5 0.358491 0.919298 0.425924
O O6 0.451352 0.937699 0.525586
O O7 0.479415 0.829020 0.438338
O O8 0.486512 0.974270 0.389156
O O9 0.250000 0.989633 0.500000
O O10 0.275950 0.883589 0.588869
O O11 0.231572 0.019533 0.636304
O O12 0.750000 0.227374 0.500000
O O13 0.782808 0.236312 0.357187
O O14 0.312735 0.500000 0.250000
O O15 0.318225 0.632560 0.314803
O O16 0.373738 0.512145 0.374318
O O17 0.925577 0.269045 0.354259
#
# Coordination Sequence:
#
# PCOD9533202 Si02
#       8
#    16  16  16  16  16  16  16   8
#     4  12  26  45  71 101 144 191 236 290 360 428
#     4  11  24  42  70 104 134 175 237 292 348 420
#     4  11  21  42  69  95 135 180 224 280 351 415
#     4  11  24  45  70 102 138 183 231 292 352 419
#     4  12  23  42  67  92 132 185 221 273 350 411
#     4  12  25  43  69 101 141 183 236 287 359 424
#     4  11  23  43  67  97 135 180 225 286 349 409
#     4  12  24  40  70 106 136 182 230 298 348 426
#
# _framework density 20.641403
#
# number of rings (size 3 to 8) (size 9 to 14) (size 15 to 20)
#    0.000    0.533    7.333    1.200    0.933    1.600 
#    0.000    2.000    0.000    0.000    0.000    0.000 
#    0.000    0.000    0.000    0.000    0.000    0.000 
#
# Total GULP energy -334727.547811 kJ/mol
# GULP energy per Si atom -5578.792464 kJ/mol
# Density = 2.059442 g / cm^3
# Si number density = 20.641403 Si / 1000 Ang^3
#
#
#
# Elastic Constant Matrix: (Units=GPa)
#
#
# Indices 1 2 3 4 5 6 
#
# 1 120.6724 35.8647 40.1147 0.0000 0.0000 0.0000
# 2 35.8647 45.2576 33.3036 0.0000 0.0000 0.0000
# 3 40.1147 33.3036 88.7937 0.0000 0.0000 0.0000
# 4 0.0000 0.0000 0.0000 28.3797 0.0000 0.0000
# 5 0.0000 0.0000 0.0000 0.0000 25.0675 0.0000
# 6 0.0000 0.0000 0.0000 0.0000 0.0000 24.7033
#
#
#
# Elastic Compliance Matrix: (Units=1/GPa)
#
#
# Indices 1 2 3 4 5 6 
#
# 1 0.011195 -0.007113 -0.002390 0.000000 0.000000 0.000000
# 2 -0.007113 0.035039 -0.009928 0.000000 0.000000 0.000000
# 3 -0.002390 -0.009928 0.016065 0.000000 0.000000 0.000000
# 4 0.000000 0.000000 0.000000 0.035236 0.000000 0.000000
# 5 0.000000 0.000000 0.000000 0.000000 0.039892 0.000000
# 6 0.000000 0.000000 0.000000 0.000000 0.000000 0.040480
#
#
# Mechanical properties :
#
#
# Convention : Reuss Voigt Hill
#
# Bulk Modulus (GPa) = 42.66797 52.58774 47.62786
# Shear Modulus (GPa) = 22.26341 25.32614 23.79477
#
# Velocity S-wave (km/s) = 3.28774 3.50660 3.39893
# Velocity P-wave (km/s) = 5.92691 6.47511 6.20707
#
# Compressibility (1/GPa) = 0.02343678
#
# Stress axis : x y z
#
# Youngs Moduli (GPa) = 89.32167 28.53996 62.24530
#
# Poissons Ratio (x) = 0.20301 0.14876
# Poissons Ratio (y) = 0.63538 0.61798
# Poissons Ratio (z) = 0.21347 0.28335
#
# Static dielectric constant tensor:
#      x y z
#    x 1.708850 0.000000 0.000000 
#    y 0.000000 1.807170 0.000000 
#    z 0.000000 0.000000 1.777320 
# 
# From -- ./inp_files/22694.got.cif
#   From: 2010.05.17/outbox.cif.g08.bks.cpg/sg73_12_cif.got.tgz:22694.got - 2010.06.03 17:35:07.
