data_PCOD9533028
_publ_section_title
;
Structure prediction by ZEFSAII (Michael W. Deem and Ramdas Pophale) SiO2 
 PCOD9533028
Probable space group: I B C A 
;
_chemical_formula_sum "Si O2"
_cell_formula_units_Z 88
_cell_length_a 14.415441
_cell_length_b 24.540255
_cell_length_c 9.754198
_cell_angle_alpha 90.000000
_cell_angle_beta 90.000000
_cell_angle_gamma 90.000000
_cell_volume 3450.631410
_symmetry_space_group_name_H-M "I B C A "
_symmetry_group_IT_number 73
_symmetry_cell_setting 'orthorhombic'
loop_
_space_group_symop_operation_xyz
x,y,z
-x,1/2-y,z
x,-y,1/2-z
1/2-x,y,-z
-x,-y,-z
x,1/2+y,-z
-x,y,1/2+z
1/2+x,-y,z
1/2+x,1/2+y,1/2+z
1/2-x,-y,1/2+z
1/2+x,1/2-y,-z
-x,1/2+y,1/2-z
1/2-x,1/2-y,1/2-z
1/2+x,y,1/2-z
1/2-x,1/2+y,z
x,1/2-y,1/2+z
loop_
_atom_site_type_symbol
_atom_site_label
_atom_site_fract_x
_atom_site_fract_y
_atom_site_fract_z
Si Si1 0.750000 0.449743 0.500000
Si Si2 0.315028 0.256556 0.886135
Si Si3 0.027140 0.192493 0.785870
Si Si4 0.902489 0.029046 0.507636
Si Si5 0.136101 0.140974 0.139149
Si Si6 0.666949 0.095803 0.730764
O O1 0.825828 0.488930 0.426874
O O2 0.811636 0.416587 0.610273
O O3 0.250000 0.250000 0.750000
O O4 0.409728 0.285626 0.842168
O O5 0.345256 0.197161 0.943080
O O6 0.250000 0.283782 0.000000
O O7 0.091026 0.140350 0.814405
O O8 0.000000 0.250000 0.858809
O O9 0.928260 0.164873 0.757912
O O10 0.912478 0.087308 0.581013
O O11 0.861998 0.043709 0.357985
O O12 0.000000 0.000000 0.500000
O O13 0.236118 0.119374 0.178635
#
# Coordination Sequence:
#
# PCOD9533028 Si02
#       6
#     8  16  16  16  16  16
#     4  12  28  46  76 112 152 202 256 328 396 462
#     4  11  23  45  75 107 152 202 250 317 391 468
#     4  10  25  46  71 117 148 199 254 317 393 481
#     4  12  27  50  77 108 150 207 263 326 397 469
#     4  11  24  48  75 107 150 201 254 320 387 468
#     4  12  25  49  77 110 156 197 262 322 398 476
#
# _framework density 25.502578
#
# number of rings (size 3 to 8) (size 9 to 14) (size 15 to 20)
#    0.000    0.727    3.636    2.727    3.818    0.000 
#    6.545    0.000    0.000    0.000    0.000    0.000 
#    0.000    0.000    0.000    0.000    0.000    0.000 
#
# Total GULP energy -245734.407322 kJ/mol
# GULP energy per Si atom -5584.872894 kJ/mol
# Density = 2.544453 g / cm^3
# Si number density = 25.502578 Si / 1000 Ang^3
#
#
#
# Elastic Constant Matrix: (Units=GPa)
#
#
# Indices 1 2 3 4 5 6 
#
# 1 166.5515 35.4887 -4.6685 -0.0002 0.0001 -0.0001
# 2 35.4887 121.3139 -0.4990 -0.0003 0.0001 -0.0001
# 3 -4.6685 -0.4990 53.3137 -0.0019 0.0002 0.0001
# 4 -0.0002 -0.0003 -0.0019 29.9961 0.0000 0.0000
# 5 0.0001 0.0001 0.0002 0.0000 20.0781 0.0001
# 6 -0.0001 -0.0001 0.0001 0.0000 0.0001 69.6471
#
#
#
# Elastic Compliance Matrix: (Units=1/GPa)
#
#
# Indices 1 2 3 4 5 6 
#
# 1 0.006419 -0.001876 0.000545 0.000000 0.000000 0.000000
# 2 -0.001876 0.008791 -0.000082 0.000000 0.000000 0.000000
# 3 0.000545 -0.000082 0.018804 0.000001 0.000000 0.000000
# 4 0.000000 0.000000 0.000001 0.033338 0.000000 0.000000
# 5 0.000000 0.000000 0.000000 0.000000 0.049806 0.000000
# 6 0.000000 0.000000 0.000000 0.000000 0.000000 0.014358
#
#
# Mechanical properties :
#
#
# Convention : Reuss Voigt Hill
#
# Bulk Modulus (GPa) = 32.06325 44.64682 38.35503
# Shear Modulus (GPa) = 34.54524 44.66812 39.60668
#
# Velocity S-wave (km/s) = 3.68445 4.18965 3.94515
# Velocity P-wave (km/s) = 5.54077 6.39914 5.98536
#
# Compressibility (1/GPa) = 0.03118836
#
# Stress axis : x y z
#
# Youngs Moduli (GPa) = 155.78610 113.74733 53.18064
#
# Poissons Ratio (x) = 0.21334 -0.02896
# Poissons Ratio (y) = 0.29219 0.00436
# Poissons Ratio (z) = -0.08483 0.00932
#
# Static dielectric constant tensor:
#      x y z
#    x 2.394650 0.000010 0.000010 
#    y 0.000010 2.054200 0.000000 
#    z 0.000010 0.000000 2.116010 
# 
# From -- ./inp_files/10971.got.cif
#   From: 2010.05.17/outbox.cif.g08.bks.cpg/sg73_6_cif.got.tgz:10971.got - 2010.06.03 17:35:07.
