data_PCOD9533399
_publ_section_title
;
Structure prediction by ZEFSAII (Michael W. Deem and Ramdas Pophale) SiO2 
 PCOD9533399
Probable space group: I B C A 
;
_chemical_formula_sum "Si O2"
_cell_formula_units_Z 80
_cell_length_a 17.834387
_cell_length_b 7.731583
_cell_length_c 24.970377
_cell_angle_alpha 90.000000
_cell_angle_beta 90.000000
_cell_angle_gamma 90.000000
_cell_volume 3443.116426
_symmetry_space_group_name_H-M "I B C A "
_symmetry_group_IT_number 73
_symmetry_cell_setting 'orthorhombic'
loop_
_space_group_symop_operation_xyz
x,y,z
-x,1/2-y,z
x,-y,1/2-z
1/2-x,y,-z
-x,-y,-z
x,1/2+y,-z
-x,y,1/2+z
1/2+x,-y,z
1/2+x,1/2+y,1/2+z
1/2-x,-y,1/2+z
1/2+x,1/2-y,-z
-x,1/2+y,1/2-z
1/2-x,1/2-y,1/2-z
1/2+x,y,1/2-z
1/2-x,1/2+y,z
x,1/2-y,1/2+z
loop_
_atom_site_type_symbol
_atom_site_label
_atom_site_fract_x
_atom_site_fract_y
_atom_site_fract_z
Si Si1 0.313161 0.574749 0.842820
Si Si2 0.085961 0.251919 0.622383
Si Si3 0.919514 0.410534 0.508199
Si Si4 0.844845 0.052221 0.808303
Si Si5 0.311637 0.293674 0.544415
O O1 0.369031 0.417381 0.856710
O O2 0.243711 0.494766 0.811255
O O3 0.280165 0.661789 0.897753
O O4 0.351841 0.741510 0.816170
O O5 0.082317 0.226900 0.557503
O O6 0.119778 0.427465 0.646596
O O7 0.000000 0.250000 0.640368
O O8 0.853881 0.537199 0.525290
O O9 0.883824 0.331923 0.454497
O O10 0.000000 0.500000 0.500000
O O11 0.874137 0.000000 0.750000
O O12 0.250000 0.246992 0.500000
#
# Coordination Sequence:
#
# PCOD9533399 Si02
#       5
#    16  16  16  16  16
#     4  11  26  43  76 106 140 187 243 297 374 440
#     4  11  26  47  71 106 147 190 239 307 360 445
#     4  11  24  42  67  97 147 196 230 278 368 443
#     4  12  26  49  76 104 137 191 247 311 375 440
#     4  11  24  38  65 104 139 178 234 294 344 427
#
# _framework density 23.234764999999999
#
# number of rings (size 3 to 8) (size 9 to 14) (size 15 to 20)
#    0.000    0.800    2.000    4.200   11.200    0.800 
#    3.600    0.000    0.000    0.000    0.000    0.000 
#    0.000    0.000    0.000    0.000    0.000    0.000 
#
# Total GULP energy -223390.857570 kJ/mol
# GULP energy per Si atom -5584.771439 kJ/mol
# Density = 2.318188 g / cm^3
# Si number density = 23.234765 Si / 1000 Ang^3
#
#
#
# Elastic Constant Matrix: (Units=GPa)
#
#
# Indices 1 2 3 4 5 6 
#
# 1 112.3233 26.9763 22.2947 0.0000 0.0000 0.0000
# 2 26.9763 117.3387 28.7951 0.0000 0.0000 0.0000
# 3 22.2947 28.7951 85.0407 0.0000 0.0000 0.0000
# 4 0.0000 0.0000 0.0000 7.3672 0.0000 0.0000
# 5 0.0000 0.0000 0.0000 0.0000 19.1399 0.0000
# 6 0.0000 0.0000 0.0000 0.0000 0.0000 46.6635
#
#
#
# Elastic Compliance Matrix: (Units=1/GPa)
#
#
# Indices 1 2 3 4 5 6 
#
# 1 0.009712 -0.001754 -0.001952 0.000000 0.000000 0.000000
# 2 -0.001754 0.009611 -0.002795 0.000000 0.000000 0.000000
# 3 -0.001952 -0.002795 0.013217 0.000000 0.000000 0.000000
# 4 0.000000 0.000000 0.000000 0.135736 0.000000 0.000000
# 5 0.000000 0.000000 0.000000 0.000000 0.052247 0.000000
# 6 0.000000 0.000000 0.000000 0.000000 0.000000 0.021430
#
#
# Mechanical properties :
#
#
# Convention : Reuss Voigt Hill
#
# Bulk Modulus (GPa) = 51.17988 52.31499 51.74743
# Shear Modulus (GPa) = 19.12284 30.40987 24.76635
#
# Velocity S-wave (km/s) = 2.87196 3.62167 3.26838
# Velocity P-wave (km/s) = 5.75088 6.32877 6.04673
#
# Compressibility (1/GPa) = 0.01953893
#
# Stress axis : x y z
#
# Youngs Moduli (GPa) = 102.97040 104.04395 75.65907
#
# Poissons Ratio (x) = 0.18245 0.14771
# Poissons Ratio (y) = 0.18057 0.21144
# Poissons Ratio (z) = 0.20102 0.29077
#
# Static dielectric constant tensor:
#      x y z
#    x 1.882420 0.000000 0.000000 
#    y 0.000000 2.041330 0.000000 
#    z 0.000000 0.000000 1.909270 
# 
# From -- ./inp_files/32315.got.cif
#   From: 2010.05.17/outbox.cif.g08.bks.cpg/sg73_17_cif.got.tgz:32315.got - 2010.06.03 17:35:07.
