data_PCOD9533993
_publ_section_title
;
Structure prediction by ZEFSAII (Michael W. Deem and Ramdas Pophale) SiO2 
 PCOD9533993
Probable space group: I M M A
;
_chemical_formula_sum "Si O2"
_cell_formula_units_Z 72
_cell_length_a 25.563010
_cell_length_b 14.163230
_cell_length_c 12.604174
_cell_angle_alpha 90.000000
_cell_angle_beta 90.000000
_cell_angle_gamma 90.000000
_cell_volume 4563.401572
_symmetry_space_group_name_H-M "I M M A"
_symmetry_group_IT_number 74
_symmetry_cell_setting 'orthorhombic'
loop_
_space_group_symop_operation_xyz
x,y,z
-x,1/2-y,z
x,-y,-z
-x,1/2+y,-z
-x,-y,-z
x,1/2+y,-z
-x,y,z
x,1/2-y,z
1/2+x,1/2+y,1/2+z
1/2-x,-y,1/2+z
1/2+x,1/2-y,1/2-z
1/2-x,y,1/2-z
1/2-x,1/2-y,1/2-z
1/2+x,y,1/2-z
1/2-x,1/2+y,1/2+z
1/2+x,-y,1/2+z
loop_
_atom_site_type_symbol
_atom_site_label
_atom_site_fract_x
_atom_site_fract_y
_atom_site_fract_z
Si Si1 0.206210 0.355670 0.158576
Si Si2 0.442786 0.962908 0.121323
Si Si3 0.843009 0.358315 0.552523
Si Si4 0.255720 0.500000 0.000000
Si Si5 0.890156 0.643683 0.686330
O O1 0.208704 0.250000 0.110709
O O2 0.250000 0.359008 0.250000
O O3 0.220624 0.435291 0.075130
O O4 0.151533 0.366193 0.219593
O O5 0.500000 0.922708 0.147648
O O6 0.393295 0.892999 0.119554
O O7 0.429910 0.056885 0.187702
O O8 0.445192 0.000000 0.000000
O O9 0.829866 0.250000 0.575805
O O10 0.794958 0.430175 0.563917
O O11 0.859799 0.363148 0.427412
O O12 0.912845 0.750000 0.689339
#
# Coordination Sequence:
#
# PCOD9533993 Si02
#       5
#    16  16  16   8  16
#     4  10  18  29  47  67  89 122 161 196 236 275
#     4   9  16  27  42  65  93 120 146 179 231 284
#     4  10  17  27  42  62  89 120 152 186 221 267
#     4  12  18  28  45  68  91 124 160 196 234 274
#     4   9  16  28  44  64  88 115 150 189 225 265
#
# _framework density 15.777704
#
# number of rings (size 3 to 8) (size 9 to 14) (size 15 to 20)
#    0.000    2.222    5.556    0.667    0.000    0.889 
#    0.000    4.444    0.000   12.000    0.000    0.778 
#    0.000    0.000    0.000    0.000    0.000    0.000 
#
# Total GULP energy -200468.660221 kJ/mol
# GULP energy per Si atom -5568.573895 kJ/mol
# Density = 1.574179 g / cm^3
# Si number density = 15.777704 Si / 1000 Ang^3
#
#
#
# Elastic Constant Matrix: (Units=GPa)
#
#
# Indices 1 2 3 4 5 6 
#
# 1 52.8744 43.9650 23.3306 0.0000 0.0000 0.0000
# 2 43.9650 123.8601 38.3134 0.0000 0.0000 0.0000
# 3 23.3306 38.3134 31.0890 0.0000 0.0000 0.0000
# 4 0.0000 0.0000 0.0000 27.8029 0.0000 0.0000
# 5 0.0000 0.0000 0.0000 0.0000 6.6326 0.0000
# 6 0.0000 0.0000 0.0000 0.0000 0.0000 11.6433
#
#
#
# Elastic Compliance Matrix: (Units=1/GPa)
#
#
# Indices 1 2 3 4 5 6 
#
# 1 0.030915 -0.006136 -0.015638 0.000000 0.000000 0.000000
# 2 -0.006136 0.014265 -0.012975 0.000000 0.000000 0.000000
# 3 -0.015638 -0.012975 0.059892 0.000000 0.000000 0.000000
# 4 0.000000 0.000000 0.000000 0.035967 0.000000 0.000000
# 5 0.000000 0.000000 0.000000 0.000000 0.150770 0.000000
# 6 0.000000 0.000000 0.000000 0.000000 0.000000 0.085886
#
#
# Mechanical properties :
#
#
# Convention : Reuss Voigt Hill
#
# Bulk Modulus (GPa) = 28.11114 46.56016 37.33565
# Shear Modulus (GPa) = 10.89200 16.03008 13.46104
#
# Velocity S-wave (km/s) = 2.63028 3.19093 2.92407
# Velocity P-wave (km/s) = 5.20387 6.56888 5.92581
#
# Compressibility (1/GPa) = 0.03557309
#
# Stress axis : x y z
#
# Youngs Moduli (GPa) = 32.34643 70.09965 16.69680
#
# Poissons Ratio (x) = 0.43016 0.26110
# Poissons Ratio (y) = 0.19849 0.21665
# Poissons Ratio (z) = 0.50583 0.90957
#
# Static dielectric constant tensor:
#      x y z
#    x 1.556600 0.000000 0.000000 
#    y 0.000000 1.556330 0.000000 
#    z 0.000000 0.000000 1.511290 
# 
# From -- ./inp_files/24802.got.cif
#   From: 2010.05.17/outbox.cif.g08.bks.cpg/sg74_13_cif.got.tgz:24802.got - 2010.06.03 17:57:02.
