data_PCOD9533080
_publ_section_title
;
Structure prediction by ZEFSAII (Michael W. Deem and Ramdas Pophale) SiO2 
 PCOD9533080
Probable space group: I B C A 
;
_chemical_formula_sum "Si O2"
_cell_formula_units_Z 120
_cell_length_a 24.585788
_cell_length_b 12.235256
_cell_length_c 20.684380
_cell_angle_alpha 90.000000
_cell_angle_beta 90.000000
_cell_angle_gamma 90.000000
_cell_volume 6222.138884
_symmetry_space_group_name_H-M "I B C A "
_symmetry_group_IT_number 73
_symmetry_cell_setting 'orthorhombic'
loop_
_space_group_symop_operation_xyz
x,y,z
-x,1/2-y,z
x,-y,1/2-z
1/2-x,y,-z
-x,-y,-z
x,1/2+y,-z
-x,y,1/2+z
1/2+x,-y,z
1/2+x,1/2+y,1/2+z
1/2-x,-y,1/2+z
1/2+x,1/2-y,-z
-x,1/2+y,1/2-z
1/2-x,1/2-y,1/2-z
1/2+x,y,1/2-z
1/2-x,1/2+y,z
x,1/2-y,1/2+z
loop_
_atom_site_type_symbol
_atom_site_label
_atom_site_fract_x
_atom_site_fract_y
_atom_site_fract_z
Si Si1 0.986697 0.028912 0.826418
Si Si2 0.680099 0.028809 0.177721
Si Si3 0.393182 0.960710 0.324195
Si Si4 0.093898 0.791650 0.196592
Si Si5 0.750000 0.434473 0.000000
Si Si6 0.060228 0.693990 0.848260
Si Si7 0.668347 0.815620 0.087338
Si Si8 0.710484 0.919772 0.619694
O O1 0.960819 0.148731 0.829030
O O2 0.047234 0.013693 0.852015
O O3 0.988650 0.000000 0.750000
O O4 0.949463 0.935504 0.855832
O O5 0.673362 0.920164 0.135012
O O6 0.664865 0.000000 0.250000
O O7 0.640628 0.131026 0.166566
O O8 0.742419 0.065162 0.172492
O O9 0.391961 0.830025 0.324130
O O10 0.391724 0.000000 0.250000
O O11 0.344855 0.021966 0.359238
O O12 0.085299 0.787272 0.275559
O O13 0.698506 0.360628 0.977010
O O14 0.768071 0.514450 0.942460
O O15 0.105281 0.721886 0.902656
O O16 0.000000 0.750000 0.850805
O O17 0.701413 0.708080 0.107806
#
# Coordination Sequence:
#
# PCOD9533080 Si02
#       8
#    16  16  16  16   8  16  16  16
#     4   9  17  32  52  86 128 168 199 227 293 369
#     4  11  22  36  59  91 127 167 201 243 315 390
#     4  11  22  35  56  94 131 163 198 249 309 378
#     4  11  19  34  55  91 136 171 200 237 298 393
#     4  10  26  46  66  84 108 164 222 280 326 358
#     4  11  19  33  62  94 130 172 201 244 307 386
#     4  11  22  43  65  89 122 162 215 265 317 383
#     4  11  25  41  62  88 115 160 213 268 320 371
#
# _framework density 19.285972000000001
#
# number of rings (size 3 to 8) (size 9 to 14) (size 15 to 20)
#    0.000    1.333    2.667    5.600    3.733    0.533 
#    0.000    0.000    0.000    4.800    0.000    0.000 
#    0.000    0.000    0.000    0.000    0.000    0.000 
#
# Total GULP energy -334337.650786 kJ/mol
# GULP energy per Si atom -5572.294180 kJ/mol
# Density = 1.924208 g / cm^3
# Si number density = 19.285972 Si / 1000 Ang^3
#
#
#
# Elastic Constant Matrix: (Units=GPa)
#
#
# Indices 1 2 3 4 5 6 
#
# 1 99.8656 27.0355 2.0586 0.0000 0.0000 0.0000
# 2 27.0355 123.3465 -0.3780 0.0000 0.0000 0.0000
# 3 2.0586 -0.3780 18.0565 0.0000 0.0000 0.0000
# 4 0.0000 0.0000 0.0000 17.7136 0.0000 0.0000
# 5 0.0000 0.0000 0.0000 0.0000 149.1601 0.0000
# 6 0.0000 0.0000 0.0000 0.0000 0.0000 25.6617
#
#
#
# Elastic Compliance Matrix: (Units=1/GPa)
#
#
# Indices 1 2 3 4 5 6 
#
# 1 0.010674 -0.002343 -0.001266 0.000000 0.000000 0.000000
# 2 -0.002343 0.008622 0.000448 0.000000 0.000000 0.000000
# 3 -0.001266 0.000448 0.055535 0.000000 0.000000 0.000000
# 4 0.000000 0.000000 0.000000 0.056454 0.000000 0.000000
# 5 0.000000 0.000000 0.000000 0.000000 0.006704 0.000000
# 6 0.000000 0.000000 0.000000 0.000000 0.000000 0.038969
#
#
# Mechanical properties :
#
#
# Convention : Reuss Voigt Hill
#
# Bulk Modulus (GPa) = 14.59678 33.18898 23.89288
# Shear Modulus (GPa) = 24.25797 52.67724 38.46761
#
# Velocity S-wave (km/s) = 3.55040 5.23193 4.47093
# Velocity P-wave (km/s) = 4.93884 7.33101 6.25043
#
# Compressibility (1/GPa) = 0.06850825
#
# Stress axis : x y z
#
# Youngs Moduli (GPa) = 93.68591 115.97889 18.00650
#
# Poissons Ratio (x) = 0.27179 0.02280
# Poissons Ratio (y) = 0.21955 -0.00806
# Poissons Ratio (z) = 0.11861 -0.05192
#
# Static dielectric constant tensor:
#      x y z
#    x 1.722060 0.000000 0.000000 
#    y 0.000000 1.693460 0.000000 
#    z 0.000000 0.000000 1.816970 
# 
# From -- ./inp_files/27358.got.cif
#   From: 2010.05.17/outbox.cif.g08.bks.cpg/sg73_14_cif.got.tgz:27358.got - 2010.06.03 17:35:07.
