data_PCOD9533525
_publ_section_title
;
Structure prediction by ZEFSAII (Michael W. Deem and Ramdas Pophale) SiO2 
 PCOD9533525
Probable space group: I B C A 
;
_chemical_formula_sum "Si O2"
_cell_formula_units_Z 120
_cell_length_a 17.412745
_cell_length_b 10.891345
_cell_length_c 26.076220
_cell_angle_alpha 90.000000
_cell_angle_beta 90.000000
_cell_angle_gamma 90.000000
_cell_volume 4945.308530
_symmetry_space_group_name_H-M "I B C A "
_symmetry_group_IT_number 73
_symmetry_cell_setting 'orthorhombic'
loop_
_space_group_symop_operation_xyz
x,y,z
-x,1/2-y,z
x,-y,1/2-z
1/2-x,y,-z
-x,-y,-z
x,1/2+y,-z
-x,y,1/2+z
1/2+x,-y,z
1/2+x,1/2+y,1/2+z
1/2-x,-y,1/2+z
1/2+x,1/2-y,-z
-x,1/2+y,1/2-z
1/2-x,1/2-y,1/2-z
1/2+x,y,1/2-z
1/2-x,1/2+y,z
x,1/2-y,1/2+z
loop_
_atom_site_type_symbol
_atom_site_label
_atom_site_fract_x
_atom_site_fract_y
_atom_site_fract_z
Si Si1 0.285406 0.245645 0.693398
Si Si2 0.925972 0.558471 0.028468
Si Si3 0.170147 0.106371 0.567904
Si Si4 0.000000 0.750000 0.594739
Si Si5 0.098353 0.945154 0.656714
Si Si6 0.646086 0.690772 0.635420
Si Si7 0.176599 0.445600 0.885334
Si Si8 0.982855 0.615051 0.283800
O O1 0.250000 0.250000 0.750000
O O2 0.341412 0.362897 0.687989
O O3 0.204994 0.217989 0.663969
O O4 0.336874 0.141509 0.663328
O O5 0.894699 0.499213 0.081220
O O6 0.940489 0.691116 0.054447
O O7 0.859848 0.564225 0.986651
O O8 0.000000 0.500000 0.000000
O O9 0.131821 0.236678 0.583037
O O10 0.261703 0.112239 0.575972
O O11 0.137471 0.009370 0.608335
O O12 0.963989 0.645943 0.630597
O O13 0.056408 0.049394 0.690365
O O14 0.704319 0.575895 0.634601
O O15 0.575821 0.653994 0.671260
O O16 0.951061 0.500000 0.250000
O O17 0.000000 0.750000 0.258285
#
# Coordination Sequence:
#
# PCOD9533525 Si02
#       8
#    16  16  16   8  16  16  16  16
#     4  11  27  47  81 108 151 206 271 334 416 486
#     4  12  26  44  74 113 153 209 265 317 408 495
#     4  11  25  47  73 107 153 204 257 334 402 485
#     4  12  26  44  78 114 154 214 266 344 402 488
#     4  12  25  51  74 110 162 202 274 340 409 495
#     4  11  26  47  72 106 148 199 259 329 399 488
#     4  11  25  48  70 112 152 198 264 331 400 480
#     4  12  30  47  75 113 159 212 270 339 433 505
#
# _framework density 24.265422000000001
#
# number of rings (size 3 to 8) (size 9 to 14) (size 15 to 20)
#    0.000    0.533    5.333    1.200    6.533    0.000 
#    0.000    1.333    0.000    0.000    0.000    0.000 
#    0.000    0.000    0.000    0.000    0.000    0.000 
#
# Total GULP energy -334231.930863 kJ/mol
# GULP energy per Si atom -5570.532181 kJ/mol
# Density = 2.421019 g / cm^3
# Si number density = 24.265422 Si / 1000 Ang^3
#
#
#
# Elastic Constant Matrix: (Units=GPa)
#
#
# Indices 1 2 3 4 5 6 
#
# 1 94.1764 33.1908 42.6616 0.0000 0.0000 0.0000
# 2 33.1908 135.1664 36.4522 0.0000 0.0000 0.0000
# 3 42.6616 36.4522 112.6821 0.0000 0.0000 0.0000
# 4 0.0000 0.0000 0.0000 24.6223 0.0000 0.0000
# 5 0.0000 0.0000 0.0000 0.0000 22.6618 0.0000
# 6 0.0000 0.0000 0.0000 0.0000 0.0000 32.2480
#
#
#
# Elastic Compliance Matrix: (Units=1/GPa)
#
#
# Indices 1 2 3 4 5 6 
#
# 1 0.013337 -0.002096 -0.004371 0.000000 0.000000 0.000000
# 2 -0.002096 0.008435 -0.001935 0.000000 0.000000 0.000000
# 3 -0.004371 -0.001935 0.011156 0.000000 0.000000 0.000000
# 4 0.000000 0.000000 0.000000 0.040614 0.000000 0.000000
# 5 0.000000 0.000000 0.000000 0.000000 0.044127 0.000000
# 6 0.000000 0.000000 0.000000 0.000000 0.000000 0.031010
#
#
# Mechanical properties :
#
#
# Convention : Reuss Voigt Hill
#
# Bulk Modulus (GPa) = 62.02515 62.95935 62.49225
# Shear Modulus (GPa) = 29.26413 31.22110 30.24262
#
# Velocity S-wave (km/s) = 3.47652 3.59088 3.53416
# Velocity P-wave (km/s) = 6.46000 6.57229 6.51639
#
# Compressibility (1/GPa) = 0.01612249
#
# Stress axis : x y z
#
# Youngs Moduli (GPa) = 74.97725 118.55563 89.64158
#
# Poissons Ratio (x) = 0.24851 0.39186
# Poissons Ratio (y) = 0.15716 0.17346
# Poissons Ratio (z) = 0.32776 0.22941
#
# Static dielectric constant tensor:
#      x y z
#    x 2.282020 0.000000 0.000000 
#    y 0.000000 1.577030 0.000000 
#    z 0.000000 0.000000 2.108710 
# 
# From -- ./inp_files/32442.got.cif
#   From: 2010.05.17/outbox.cif.g08.bks.cpg/sg73_17_cif.got.tgz:32442.got - 2010.06.03 17:35:07.
