data_PCOD9533922
_publ_section_title
;
Structure prediction by ZEFSAII (Michael W. Deem and Ramdas Pophale) SiO2 
 PCOD9533922
Probable space group: I M M A
;
_chemical_formula_sum "Si O2"
_cell_formula_units_Z 80
_cell_length_a 9.612003
_cell_length_b 30.490159
_cell_length_c 19.770149
_cell_angle_alpha 90.000000
_cell_angle_beta 90.000000
_cell_angle_gamma 90.000000
_cell_volume 5794.067218
_symmetry_space_group_name_H-M "I M M A"
_symmetry_group_IT_number 74
_symmetry_cell_setting 'orthorhombic'
loop_
_space_group_symop_operation_xyz
x,y,z
-x,1/2-y,z
x,-y,-z
-x,1/2+y,-z
-x,-y,-z
x,1/2+y,-z
-x,y,z
x,1/2-y,z
1/2+x,1/2+y,1/2+z
1/2-x,-y,1/2+z
1/2+x,1/2-y,1/2-z
1/2-x,y,1/2-z
1/2-x,1/2-y,1/2-z
1/2+x,y,1/2-z
1/2-x,1/2+y,1/2+z
1/2+x,-y,1/2+z
loop_
_atom_site_type_symbol
_atom_site_label
_atom_site_fract_x
_atom_site_fract_y
_atom_site_fract_z
Si Si1 0.500000 0.961578 0.444256
Si Si2 0.500000 0.472913 0.857906
Si Si3 0.831954 0.250000 0.822374
Si Si4 0.291916 0.916250 0.051327
Si Si5 0.500000 0.044780 0.044773
Si Si6 0.842379 0.329420 0.629117
Si Si7 0.500000 0.053331 0.705186
Si Si8 0.750000 0.612372 0.250000
O O1 0.364215 0.932089 0.453311
O O2 0.500000 0.974189 0.364094
O O3 0.500000 0.000000 0.500000
O O4 0.628805 0.446133 0.891576
O O5 0.500000 0.523265 0.882095
O O6 0.500000 0.470577 0.777522
O O7 0.750000 0.250000 0.750000
O O8 0.773732 0.292249 0.862508
O O9 0.000000 0.250000 0.813797
O O10 0.311981 0.865957 0.072273
O O11 0.368565 0.928092 0.981204
O O12 0.500000 0.000000 0.000000
O O13 0.833622 0.357171 0.698478
O O14 0.000000 0.312092 0.621439
O O15 0.362248 0.083655 0.709173
#
# Coordination Sequence:
#
# PCOD9533922 Si02
#       8
#     8   8   8  16   8  16   8   8
#     4  12  22  28  40  68  95 118 150 194 237 268
#     4  10  16  32  46  65  82 113 152 192 231 266
#     4  12  28  36  46  66  92 120 152 199 244 279
#     4  10  18  31  48  63  86 114 150 191 233 278
#     4   8  16  30  48  61  84 109 144 191 230 276
#     4  12  21  36  50  64  84 116 159 199 241 274
#     4  12  20  30  44  66  87 121 152 198 228 272
#     4  12  20  29  48  64  84 112 158 196 230 263
#
# _framework density 13.807226999999999
#
# number of rings (size 3 to 8) (size 9 to 14) (size 15 to 20)
#    0.000    1.200    8.000    2.700    2.800    0.000 
#    0.000    0.000    0.000    0.000    0.000    0.000 
#    0.000    0.000    0.000    0.000    0.000    6.000 
#
# Total GULP energy -222921.401834 kJ/mol
# GULP energy per Si atom -5573.035046 kJ/mol
# Density = 1.377580 g / cm^3
# Si number density = 13.807227 Si / 1000 Ang^3
#
#
#
# Elastic Constant Matrix: (Units=GPa)
#
#
# Indices 1 2 3 4 5 6 
#
# 1 134.3467 36.1697 20.7392 0.0000 0.0000 0.0000
# 2 36.1697 73.8900 35.0472 0.0000 0.0000 0.0000
# 3 20.7392 35.0472 53.6369 0.0001 0.0000 0.0000
# 4 0.0000 0.0000 0.0001 22.7824 0.0000 0.0000
# 5 0.0000 0.0000 0.0000 0.0000 8.6792 0.0000
# 6 0.0000 0.0000 0.0000 0.0000 0.0000 21.8814
#
#
#
# Elastic Compliance Matrix: (Units=1/GPa)
#
#
# Indices 1 2 3 4 5 6 
#
# 1 0.008599 -0.003814 -0.000832 0.000000 0.000000 0.000000
# 2 -0.003814 0.021304 -0.012445 0.000000 0.000000 0.000000
# 3 -0.000832 -0.012445 0.027098 0.000000 0.000000 0.000000
# 4 0.000000 0.000000 0.000000 0.043893 0.000000 0.000000
# 5 0.000000 0.000000 0.000000 0.000000 0.115218 0.000000
# 6 0.000000 0.000000 0.000000 0.000000 0.000000 0.045701
#
#
# Mechanical properties :
#
#
# Convention : Reuss Voigt Hill
#
# Bulk Modulus (GPa) = 43.82882 49.53175 46.68029
# Shear Modulus (GPa) = 16.46889 21.99644 19.23266
#
# Velocity S-wave (km/s) = 3.45740 3.99571 3.73626
# Velocity P-wave (km/s) = 6.91017 7.56566 7.24533
#
# Compressibility (1/GPa) = 0.02281604
#
# Stress axis : x y z
#
# Youngs Moduli (GPa) = 116.29439 46.93991 36.90336
#
# Poissons Ratio (x) = 0.17905 0.03072
# Poissons Ratio (y) = 0.44359 0.45928
# Poissons Ratio (z) = 0.09681 0.58419
#
# Static dielectric constant tensor:
#      x y z
#    x 1.429370 0.000000 0.000000 
#    y 0.000000 1.463140 0.000000 
#    z 0.000000 0.000000 1.479030 
# 
# From -- ./inp_files/49460.got.cif
#   From: 2010.05.17/outbox.cif.g08.bks.cpg/sg74_25_cif.got.tgz:49460.got - 2010.06.03 17:57:02.
