data_PCOD9533927
_publ_section_title
;
Structure prediction by ZEFSAII (Michael W. Deem and Ramdas Pophale) SiO2 
 PCOD9533927
Probable space group: I M M A
;
_chemical_formula_sum "Si O2"
_cell_formula_units_Z 64
_cell_length_a 20.819195
_cell_length_b 17.295030
_cell_length_c 8.672434
_cell_angle_alpha 90.000000
_cell_angle_beta 90.000000
_cell_angle_gamma 90.000000
_cell_volume 3122.671187
_symmetry_space_group_name_H-M "I M M A"
_symmetry_group_IT_number 74
_symmetry_cell_setting 'orthorhombic'
loop_
_space_group_symop_operation_xyz
x,y,z
-x,1/2-y,z
x,-y,-z
-x,1/2+y,-z
-x,-y,-z
x,1/2+y,-z
-x,y,z
x,1/2-y,z
1/2+x,1/2+y,1/2+z
1/2-x,-y,1/2+z
1/2+x,1/2-y,1/2-z
1/2-x,y,1/2-z
1/2-x,1/2-y,1/2-z
1/2+x,y,1/2-z
1/2-x,1/2+y,1/2+z
1/2+x,-y,1/2+z
loop_
_atom_site_type_symbol
_atom_site_label
_atom_site_fract_x
_atom_site_fract_y
_atom_site_fract_z
Si Si1 0.127680 0.049512 0.655790
Si Si2 0.000000 0.885671 0.226333
Si Si3 0.108562 0.750000 0.728496
Si Si4 0.000000 0.750000 0.473300
Si Si5 0.799153 0.836050 0.541556
Si Si6 0.250000 0.955952 0.750000
Si Si7 0.000000 0.250000 0.019339
O O1 0.064346 0.064033 0.755117
O O2 0.157594 0.130427 0.594779
O O3 0.112311 0.000000 0.500000
O O4 0.185835 0.006482 0.740346
O O5 0.000000 0.826339 0.370558
O O6 0.000000 0.827902 0.081728
O O7 0.155336 0.678113 0.692598
O O8 0.060822 0.750000 0.583858
O O9 0.064328 0.750000 0.876457
O O10 0.773117 0.750000 0.508278
O O11 0.751420 0.901997 0.597457
#
# Coordination Sequence:
#
# PCOD9533927 Si02
#       7
#    16   8   8   4  16   8   4
#     4  10  21  38  63  94 123 169 210 267 315 384
#     4  11  19  38  61  96 128 160 205 274 322 377
#     4   9  18  37  62  93 116 165 217 258 303 389
#     4  10  16  32  70  84 116 156 222 270 290 376
#     4   9  18  37  66  89 112 171 232 246 302 386
#     4  10  21  38  55  98 134 150 202 278 325 352
#     4  10  24  36  56 100 140 154 200 276 348 344
#
# _framework density 20.495272
#
# number of rings (size 3 to 8) (size 9 to 14) (size 15 to 20)
#    0.750    1.500    2.500    0.750    1.750    0.000 
#   13.500    0.625    0.000    6.000    0.000    0.000 
#    0.000    0.000    0.000    0.000    0.000    0.000 
#
# Total GULP energy -178347.077203 kJ/mol
# GULP energy per Si atom -5573.346163 kJ/mol
# Density = 2.044862 g / cm^3
# Si number density = 20.495272 Si / 1000 Ang^3
#
#
#
# Elastic Constant Matrix: (Units=GPa)
#
#
# Indices 1 2 3 4 5 6 
#
# 1 118.3203 64.3532 37.5175 0.0000 0.0000 0.0000
# 2 64.3532 111.3192 27.9539 0.0000 0.0000 0.0000
# 3 37.5175 27.9539 58.5187 0.0000 0.0000 0.0000
# 4 0.0000 0.0000 0.0000 6.7667 0.0000 0.0000
# 5 0.0000 0.0000 0.0000 0.0000 19.0808 0.0000
# 6 0.0000 0.0000 0.0000 0.0000 0.0000 32.4141
#
#
#
# Elastic Compliance Matrix: (Units=1/GPa)
#
#
# Indices 1 2 3 4 5 6 
#
# 1 0.013839 -0.006559 -0.005739 0.000000 0.000000 0.000000
# 2 -0.006559 0.013316 -0.002156 0.000000 0.000000 0.000000
# 3 -0.005739 -0.002156 0.021798 0.000000 0.000000 0.000000
# 4 0.000000 0.000000 0.000000 0.147783 0.000000 0.000000
# 5 0.000000 0.000000 0.000000 0.000000 0.052409 0.000000
# 6 0.000000 0.000000 0.000000 0.000000 0.000000 0.030851
#
#
# Mechanical properties :
#
#
# Convention : Reuss Voigt Hill
#
# Bulk Modulus (GPa) = 49.88830 60.86749 55.37789
# Shear Modulus (GPa) = 15.84357 22.20788 19.02572
#
# Velocity S-wave (km/s) = 2.78337 3.29532 3.05010
# Velocity P-wave (km/s) = 5.89268 6.65144 6.28352
#
# Compressibility (1/GPa) = 0.02004478
#
# Stress axis : x y z
#
# Youngs Moduli (GPa) = 72.26073 75.09597 45.87589
#
# Poissons Ratio (x) = 0.49255 0.26329
# Poissons Ratio (y) = 0.47396 0.09891
# Poissons Ratio (z) = 0.41471 0.16191
#
# Static dielectric constant tensor:
#      x y z
#    x 1.795790 0.000000 0.000000 
#    y 0.000000 1.769090 0.000000 
#    z 0.000000 0.000000 1.729130 
# 
# From -- ./inp_files/11908.got.cif
#   From: 2010.05.17/outbox.cif.g08.bks.cpg/sg74_6_cif.got.tgz:11908.got - 2010.06.03 17:57:02.
