data_PCOD9533779
_publ_section_title
;
Structure prediction by ZEFSAII (Michael W. Deem and Ramdas Pophale) SiO2 
 PCOD9533779
Probable space group: I B C A 
;
_chemical_formula_sum "Si O2"
_cell_formula_units_Z 52
_cell_length_a 21.000000
_cell_length_b 15.000000
_cell_length_c 18.000000
_cell_angle_alpha 90.000000
_cell_angle_beta 90.000000
_cell_angle_gamma 90.000000
_cell_volume 5670.000000
_symmetry_space_group_name_H-M "I B C A "
_symmetry_group_IT_number 73
_symmetry_cell_setting 'orthorhombic'
loop_
_space_group_symop_operation_xyz
x,y,z
-x,1/2-y,z
x,-y,1/2-z
1/2-x,y,-z
-x,-y,-z
x,1/2+y,-z
-x,y,1/2+z
1/2+x,-y,z
1/2+x,1/2+y,1/2+z
1/2-x,-y,1/2+z
1/2+x,1/2-y,-z
-x,1/2+y,1/2-z
1/2-x,1/2-y,1/2-z
1/2+x,y,1/2-z
1/2-x,1/2+y,z
x,1/2-y,1/2+z
loop_
_atom_site_type_symbol
_atom_site_label
_atom_site_fract_x
_atom_site_fract_y
_atom_site_fract_z
Si Si1 0.381846 0.676184 0.069116
Si Si2 0.156516 0.552253 0.170902
Si Si3 0.432449 0.282497 0.687927
Si Si4 0.673719 0.502393 0.004747
Si Si5 0.758484 0.709478 0.334048
Si Si6 0.842956 0.195867 0.929881
Si Si7 0.500000 0.750000 0.659829
O O1 0.329738 0.694147 0.134914
O O2 0.452576 0.692426 0.105550
O O3 0.365176 0.578111 0.035330
O O4 0.368416 0.742227 0.998262
O O5 0.156429 0.500000 0.250000
O O6 0.096792 0.621029 0.169155
O O7 0.156996 0.496630 0.093527
O O8 0.218510 0.617074 0.167732
O O9 0.500000 0.250000 0.656034
O O10 0.384760 0.213892 0.645500
O O11 0.448349 0.285623 0.777334
O O12 0.750000 0.484024 0.000000
O O13 0.660335 0.595717 0.962125
O O14 0.750000 0.750000 0.250000
O O15 0.725213 0.770620 0.398006
#
# Coordination Sequence:
#
# PCOD9533779 Si02
#       7
#    16  16  16  16  16  16   8
#     4  12  22  45  65 100 135 180 229 282 347 408
#     4  11  24  42  66 102 136 176 224 289 350 418
#     4   9  22  49  64  91 136 181 226 283 333 408
#     4  12  24  42  67 108 142 168 226 297 351 417
#     4  11  23  41  69  98 135 182 223 285 355 414
#     4  11  24  41  73  98 137 177 228 287 352 405
#     4  10  26  42  72  88 134 188 230 272 336 414
#
# _framework density 9.1710759999999993
#
# number of rings (size 3 to 8) (size 9 to 14) (size 15 to 20)
#    0.462    0.615    4.615    3.231    7.538    0.000 
#    2.769    3.846    0.000    0.000    0.000    0.000 
#    0.000    0.000    0.000    0.000    0.000    0.000 
#
# Total GULP energy -289551.262149 kJ/mol
# GULP energy per Si atom -5568.293503 kJ/mol
# Density = 0.915020 g / cm^3
# Si number density = 9.171076 Si / 1000 Ang^3
#
#
#
# Elastic Constant Matrix: (Units=GPa)
#
#
# Indices 1 2 3 4 5 6 
#
# 1 105.4572 41.5476 31.7971 0.0000 0.0000 0.0000
# 2 41.5476 131.7620 57.9950 0.0000 0.0000 0.0000
# 3 31.7971 57.9950 152.9556 0.0000 0.0000 0.0000
# 4 0.0000 0.0000 0.0000 44.6542 0.0000 0.0000
# 5 0.0000 0.0000 0.0000 0.0000 46.9997 0.0000
# 6 0.0000 0.0000 0.0000 0.0000 0.0000 17.8122
#
#
#
# Elastic Compliance Matrix: (Units=1/GPa)
#
#
# Indices 1 2 3 4 5 6 
#
# 1 0.010998 -0.002955 -0.001166 0.000000 0.000000 0.000000
# 2 -0.002955 0.009904 -0.003141 0.000000 0.000000 0.000000
# 3 -0.001166 -0.003141 0.007971 0.000000 0.000000 0.000000
# 4 0.000000 0.000000 0.000000 0.022394 0.000000 0.000000
# 5 0.000000 0.000000 0.000000 0.000000 0.021277 0.000000
# 6 0.000000 0.000000 0.000000 0.000000 0.000000 0.056141
#
#
# Mechanical properties :
#
#
# Convention : Reuss Voigt Hill
#
# Bulk Modulus (GPa) = 69.68786 72.53935 71.11361
# Shear Modulus (GPa) = 33.78566 39.14889 36.46727
#
# Velocity S-wave (km/s) = 4.29647 4.62493 4.46372
# Velocity P-wave (km/s) = 7.91762 8.25553 8.08834
#
# Compressibility (1/GPa) = 0.01434970
#
# Stress axis : x y z
#
# Youngs Moduli (GPa) = 90.92396 100.97365 125.45289
#
# Poissons Ratio (x) = 0.29835 0.14628
# Poissons Ratio (y) = 0.26866 0.39402
# Poissons Ratio (z) = 0.10602 0.31714
#
# Static dielectric constant tensor:
#      x y z
#    x 1.678200 0.000000 0.000000 
#    y 0.000000 1.639160 0.000000 
#    z 0.000000 0.000000 1.645280 
# 
# From -- ./inp_files/23219.got.cif
#   From: 2010.05.17/outbox.ucp.g08.bks.cvg/sg73_12_cif.got.tgz:23219.got - 2010.06.11 16:36:03.
