data_PCOD9533320
_publ_section_title
;
Structure prediction by ZEFSAII (Michael W. Deem and Ramdas Pophale) SiO2 
 PCOD9533320
Probable space group: I B C A 
;
_chemical_formula_sum "Si O2"
_cell_formula_units_Z 104
_cell_length_a 27.177604
_cell_length_b 12.099539
_cell_length_c 16.059679
_cell_angle_alpha 90.000000
_cell_angle_beta 90.000000
_cell_angle_gamma 90.000000
_cell_volume 5281.008305
_symmetry_space_group_name_H-M "I B C A "
_symmetry_group_IT_number 73
_symmetry_cell_setting 'orthorhombic'
loop_
_space_group_symop_operation_xyz
x,y,z
-x,1/2-y,z
x,-y,1/2-z
1/2-x,y,-z
-x,-y,-z
x,1/2+y,-z
-x,y,1/2+z
1/2+x,-y,z
1/2+x,1/2+y,1/2+z
1/2-x,-y,1/2+z
1/2+x,1/2-y,-z
-x,1/2+y,1/2-z
1/2-x,1/2-y,1/2-z
1/2+x,y,1/2-z
1/2-x,1/2+y,z
x,1/2-y,1/2+z
loop_
_atom_site_type_symbol
_atom_site_label
_atom_site_fract_x
_atom_site_fract_y
_atom_site_fract_z
Si Si1 0.148289 0.188731 0.723009
Si Si2 0.581836 0.459251 0.663507
Si Si3 0.327945 0.454892 0.638277
Si Si4 0.665395 0.025663 0.046626
Si Si5 0.048952 0.316399 0.699674
Si Si6 0.750000 0.804164 0.500000
Si Si7 0.221780 0.647461 0.847386
O O1 0.139929 0.136873 0.814241
O O2 0.098928 0.246112 0.689810
O O3 0.192873 0.278103 0.720125
O O4 0.162012 0.079407 0.669924
O O5 0.609783 0.500000 0.750000
O O6 0.615557 0.428221 0.586577
O O7 0.552132 0.571421 0.645304
O O8 0.550028 0.362277 0.704666
O O9 0.336619 0.458655 0.539937
O O10 0.272834 0.417773 0.665732
O O11 0.684846 0.942934 0.116752
O O12 0.705491 0.119276 0.029974
O O13 0.000000 0.250000 0.682677
O O14 0.766540 0.730170 0.423130
#
# Coordination Sequence:
#
# PCOD9533320 Si02
#       7
#    16  16  16  16  16   8  16
#     4  11  23  41  57  91 119 169 208 266 323 366
#     4   8  21  37  64  96 110 161 206 260 319 391
#     4  11  24  35  57  92 125 168 208 257 302 385
#     4  12  20  39  55  88 129 162 215 244 303 378
#     4   9  20  42  68  89 113 158 208 264 336 380
#     4  12  22  32  62  84 124 184 204 254 304 366
#     4  12  20  39  55  85 127 170 213 244 310 365
#
# _framework density 19.693210000000001
#
# number of rings (size 3 to 8) (size 9 to 14) (size 15 to 20)
#    0.923    0.308    6.154    0.462    2.154    2.462 
#   11.077    0.000    0.000    5.538    0.000    0.000 
#    0.000    0.000    0.000    0.000    0.000    0.000 
#
# Total GULP energy -289697.555993 kJ/mol
# GULP energy per Si atom -5571.106846 kJ/mol
# Density = 1.964839 g / cm^3
# Si number density = 19.693210 Si / 1000 Ang^3
#
#
#
# Elastic Constant Matrix: (Units=GPa)
#
#
# Indices 1 2 3 4 5 6 
#
# 1 75.6396 33.8069 4.6878 0.0000 0.0000 0.0000
# 2 33.8069 94.8945 0.9687 0.0000 0.0000 0.0000
# 3 4.6878 0.9687 18.9461 0.0000 0.0000 0.0000
# 4 0.0000 0.0000 0.0000 29.4625 0.0000 0.0000
# 5 0.0000 0.0000 0.0000 0.0000 -86.1061 0.0000
# 6 0.0000 0.0000 0.0000 0.0000 0.0000 -24.3753
#
#
#
# Elastic Compliance Matrix: (Units=1/GPa)
#
#
# Indices 1 2 3 4 5 6 
#
# 1 0.015974 -0.005654 -0.003663 0.000000 0.000000 0.000000
# 2 -0.005654 0.012544 0.000757 0.000000 0.000000 0.000000
# 3 -0.003663 0.000757 0.053649 0.000000 0.000000 0.000000
# 4 0.000000 0.000000 0.000000 0.033941 0.000000 0.000000
# 5 0.000000 0.000000 0.000000 0.000000 -0.011614 0.000000
# 6 0.000000 0.000000 0.000000 0.000000 0.000000 -0.041025
#
#
# Mechanical properties :
#
#
# Convention : Reuss Voigt Hill
#
# Bulk Modulus (GPa) = 15.37311 29.82300 22.59805
# Shear Modulus (GPa) = 48.88893 -6.20265 21.34314
#
# Velocity S-wave (km/s) = 4.98790 -1.77665 3.29566
# Velocity P-wave (km/s) = 6.40277 3.31180 5.09723
#
# Compressibility (1/GPa) = 0.06504865
#
# Stress axis : x y z
#
# Youngs Moduli (GPa) = 62.59978 79.71665 18.63969
#
# Poissons Ratio (x) = 0.45069 0.06829
# Poissons Ratio (y) = 0.35392 -0.01412
# Poissons Ratio (z) = 0.22933 -0.06038
#
# Static dielectric constant tensor:
#      x y z
#    x 1.725270 0.000000 0.000000 
#    y 0.000000 1.731220 0.000000 
#    z 0.000000 0.000000 1.731360 
# 
# From -- ./inp_files/23916.got.cif
#   From: 2010.05.17/outbox.cif.g08.bks.cpg/sg73_12_cif.got.tgz:23916.got - 2010.06.03 17:35:07.
