data_PCOD9533134
_publ_section_title
;
Structure prediction by ZEFSAII (Michael W. Deem and Ramdas Pophale) SiO2 
 PCOD9533134
Probable space group: I B C A 
;
_chemical_formula_sum "Si O2"
_cell_formula_units_Z 120
_cell_length_a 8.307337
_cell_length_b 30.500759
_cell_length_c 21.548738
_cell_angle_alpha 90.000000
_cell_angle_beta 90.000000
_cell_angle_gamma 90.000000
_cell_volume 5460.021040
_symmetry_space_group_name_H-M "I B C A "
_symmetry_group_IT_number 73
_symmetry_cell_setting 'orthorhombic'
loop_
_space_group_symop_operation_xyz
x,y,z
-x,1/2-y,z
x,-y,1/2-z
1/2-x,y,-z
-x,-y,-z
x,1/2+y,-z
-x,y,1/2+z
1/2+x,-y,z
1/2+x,1/2+y,1/2+z
1/2-x,-y,1/2+z
1/2+x,1/2-y,-z
-x,1/2+y,1/2-z
1/2-x,1/2-y,1/2-z
1/2+x,y,1/2-z
1/2-x,1/2+y,z
x,1/2-y,1/2+z
loop_
_atom_site_type_symbol
_atom_site_label
_atom_site_fract_x
_atom_site_fract_y
_atom_site_fract_z
Si Si1 0.379443 0.924133 0.839525
Si Si2 0.832481 0.775665 0.432091
Si Si3 0.543929 0.549516 0.222834
Si Si4 0.500000 0.250000 0.131100
Si Si5 0.834675 0.078613 0.606632
Si Si6 0.575608 0.864857 0.527026
Si Si7 0.136540 0.988189 0.048014
Si Si8 0.549270 0.150567 0.606415
O O1 0.212460 0.939064 0.809028
O O2 0.413304 0.959063 0.893829
O O3 0.395469 0.876894 0.869752
O O4 0.508744 0.923563 0.784570
O O5 0.750000 0.770346 0.500000
O O6 0.682815 0.762968 0.389707
O O7 0.889774 0.825467 0.425949
O O8 0.000000 0.750000 0.426987
O O9 0.537542 0.500000 0.250000
O O10 0.410297 0.562076 0.171624
O O11 0.447814 0.197249 0.140975
O O12 0.700944 0.116818 0.612911
O O13 0.973985 0.098464 0.562204
O O14 0.783668 0.033002 0.573923
O O15 0.750000 0.876042 0.500000
O O16 0.475370 0.844943 0.468214
O O17 0.250000 0.963543 0.000000
O O18 0.000000 0.000000 0.000000
#
# Coordination Sequence:
#
# PCOD9533134 Si02
#       8
#    16  16  16   8  16  16  16  16
#     4  12  27  46  75 104 147 191 258 317 385 465
#     4  11  19  34  61  93 140 195 250 307 373 455
#     4  12  26  48  76 106 141 196 257 322 382 463
#     4  12  24  44  66 104 154 208 258 326 390 470
#     4  12  25  43  71 104 150 197 255 317 387 471
#     4  11  21  38  62 101 151 191 253 302 383 460
#     4  12  25  43  67 103 150 198 237 301 399 480
#     4  12  25  44  69 107 150 204 256 319 393 470
#
# _framework density 21.977937000000001
#
# number of rings (size 3 to 8) (size 9 to 14) (size 15 to 20)
#    0.000    0.267    4.667    6.400    1.867    1.067 
#    0.000    0.000    0.000    3.200    0.000    0.000 
#    0.000    0.000    0.000    0.000    0.000    0.000 
#
# Total GULP energy -334318.544345 kJ/mol
# GULP energy per Si atom -5571.975739 kJ/mol
# Density = 2.192791 g / cm^3
# Si number density = 21.977937 Si / 1000 Ang^3
#
#
#
# Elastic Constant Matrix: (Units=GPa)
#
#
# Indices 1 2 3 4 5 6 
#
# 1 117.6142 35.5563 31.3184 0.0000 0.0000 0.0000
# 2 35.5563 141.6922 14.9071 -0.0003 0.0000 0.0000
# 3 31.3184 14.9071 97.9756 -0.0005 0.0000 0.0000
# 4 0.0000 -0.0003 -0.0005 -699.2309 0.0000 -0.0002
# 5 0.0000 0.0000 0.0000 0.0000 45.9507 0.0000
# 6 0.0000 0.0000 0.0000 -0.0002 0.0000 49.8960
#
#
#
# Elastic Compliance Matrix: (Units=1/GPa)
#
#
# Indices 1 2 3 4 5 6 
#
# 1 0.009920 -0.002191 -0.002838 0.000000 0.000000 0.000000
# 2 -0.002191 0.007656 -0.000465 0.000000 0.000000 0.000000
# 3 -0.002838 -0.000465 0.011184 0.000000 0.000000 0.000000
# 4 0.000000 0.000000 0.000000 -0.001430 0.000000 0.000000
# 5 0.000000 0.000000 0.000000 0.000000 0.021762 0.000000
# 6 0.000000 0.000000 0.000000 0.000000 0.000000 0.020042
#
#
# Mechanical properties :
#
#
# Convention : Reuss Voigt Hill
#
# Bulk Modulus (GPa) = 56.26011 57.87173 57.06592
# Shear Modulus (GPa) = 58.10831 -102.31016 -22.10093
#
# Velocity S-wave (km/s) = 5.14750 -6.83025 -3.17455
# Velocity P-wave (km/s) = 7.80917 5.98450 3.54745
#
# Compressibility (1/GPa) = 0.01777458
#
# Stress axis : x y z
#
# Youngs Moduli (GPa) = 100.80296 130.61304 89.41013
#
# Poissons Ratio (x) = 0.28616 0.25372
# Poissons Ratio (y) = 0.22085 0.04154
# Poissons Ratio (z) = 0.28605 0.06068
#
# Static dielectric constant tensor:
#      x y z
#    x 1.825730 0.000000 0.000000 
#    y 0.000000 1.848230 0.000000 
#    z 0.000000 0.000000 1.842650 
# 
# From -- ./inp_files/28612.got.cif
#   From: 2010.05.17/outbox.cif.g08.bks.cpg/sg73_15_cif.got.tgz:28612.got - 2010.06.03 17:35:07.
