data_PCOD9533020
_publ_section_title
;
Structure prediction by ZEFSAII (Michael W. Deem and Ramdas Pophale) SiO2 
 PCOD9533020
Probable space group: I B C A 
;
_chemical_formula_sum "Si O2"
_cell_formula_units_Z 96
_cell_length_a 17.678772
_cell_length_b 15.545590
_cell_length_c 14.815887
_cell_angle_alpha 90.000000
_cell_angle_beta 90.000000
_cell_angle_gamma 90.000000
_cell_volume 4071.804906
_symmetry_space_group_name_H-M "I B C A "
_symmetry_group_IT_number 73
_symmetry_cell_setting 'orthorhombic'
loop_
_space_group_symop_operation_xyz
x,y,z
-x,1/2-y,z
x,-y,1/2-z
1/2-x,y,-z
-x,-y,-z
x,1/2+y,-z
-x,y,1/2+z
1/2+x,-y,z
1/2+x,1/2+y,1/2+z
1/2-x,-y,1/2+z
1/2+x,1/2-y,-z
-x,1/2+y,1/2-z
1/2-x,1/2-y,1/2-z
1/2+x,y,1/2-z
1/2-x,1/2+y,z
x,1/2-y,1/2+z
loop_
_atom_site_type_symbol
_atom_site_label
_atom_site_fract_x
_atom_site_fract_y
_atom_site_fract_z
Si Si1 0.799818 0.866066 0.415596
Si Si2 0.809523 0.040539 0.340266
Si Si3 0.958257 0.091073 0.989398
Si Si4 0.687615 0.812310 0.162521
Si Si5 0.076886 0.196009 0.327625
Si Si6 0.611920 0.664574 0.470720
O O1 0.750000 0.839159 0.500000
O O2 0.886240 0.886517 0.447804
O O3 0.794254 0.789515 0.343467
O O4 0.768550 0.957751 0.382532
O O5 0.751778 0.117220 0.320123
O O6 0.866719 0.081203 0.411888
O O7 0.845963 0.000000 0.250000
O O8 0.936764 0.109403 0.884884
O O9 0.026167 0.158259 0.004529
O O10 0.000000 0.000000 0.000000
O O11 0.623068 0.820587 0.237581
O O12 0.661671 0.830025 0.059563
O O13 0.119425 0.257317 0.400335
O O14 0.000000 0.250000 0.307982
#
# Coordination Sequence:
#
# PCOD9533020 Si02
#       6
#    16  16  16  16  16  16
#     4  12  26  47  76 107 152 205 250 316 388 459
#     4  12  28  46  73 113 153 199 264 320 384 467
#     4  11  24  47  78 107 152 201 254 318 387 457
#     4  12  27  46  80 110 156 209 256 319 393 458
#     4  10  25  44  73 113 147 195 263 318 380 466
#     4  11  23  48  73 110 152 201 257 315 386 464
#
# _framework density 23.576768999999999
#
# number of rings (size 3 to 8) (size 9 to 14) (size 15 to 20)
#    0.000    0.667    3.333    3.500    4.667    1.333 
#    0.000    0.000    0.000    0.000    0.000    0.000 
#    0.000    0.000    0.000    0.000    0.000    0.000 
#
# Total GULP energy -268484.222204 kJ/mol
# GULP energy per Si atom -5593.421296 kJ/mol
# Density = 2.352311 g / cm^3
# Si number density = 23.576769 Si / 1000 Ang^3
#
#
#
# Elastic Constant Matrix: (Units=GPa)
#
#
# Indices 1 2 3 4 5 6 
#
# 1 99.5917 62.6274 42.0046 0.0000 0.0000 0.0000
# 2 62.6274 177.2407 68.4291 0.0000 0.0000 0.0000
# 3 42.0046 68.4291 131.4833 0.0000 0.0000 0.0000
# 4 0.0000 0.0000 0.0000 52.9361 0.0000 0.0000
# 5 0.0000 0.0000 0.0000 0.0000 46.7643 0.0000
# 6 0.0000 0.0000 0.0000 0.0000 0.0000 36.2584
#
#
#
# Elastic Compliance Matrix: (Units=1/GPa)
#
#
# Indices 1 2 3 4 5 6 
#
# 1 0.013434 -0.003867 -0.002279 0.000000 0.000000 0.000000
# 2 -0.003867 0.008174 -0.003019 0.000000 0.000000 0.000000
# 3 -0.002279 -0.003019 0.009905 0.000000 0.000000 0.000000
# 4 0.000000 0.000000 0.000000 0.018891 0.000000 0.000000
# 5 0.000000 0.000000 0.000000 0.000000 0.021384 0.000000
# 6 0.000000 0.000000 0.000000 0.000000 0.000000 0.027580
#
#
# Mechanical properties :
#
#
# Convention : Reuss Voigt Hill
#
# Bulk Modulus (GPa) = 75.85542 83.82642 79.84092
# Shear Modulus (GPa) = 40.95318 42.87541 41.91429
#
# Velocity S-wave (km/s) = 4.17227 4.26907 4.22095
# Velocity P-wave (km/s) = 7.44675 7.74156 7.59559
#
# Compressibility (1/GPa) = 0.01318297
#
# Stress axis : x y z
#
# Youngs Moduli (GPa) = 74.43825 122.34168 100.96232
#
# Poissons Ratio (x) = 0.47308 0.23012
# Poissons Ratio (y) = 0.28784 0.30477
# Poissons Ratio (z) = 0.16966 0.36931
#
# Static dielectric constant tensor:
#      x y z
#    x 1.929650 0.000000 0.000000 
#    y 0.000000 1.952710 0.000000 
#    z 0.000000 0.000000 1.908900 
# 
# From -- ./inp_files/18634.got.cif
#   From: 2010.05.17/outbox.cif.g08.bks.cpg/sg73_10_cif.got.tgz:18634.got - 2010.06.03 17:35:07.
