data_PCOD9533698
_publ_section_title
;
Structure prediction by ZEFSAII (Michael W. Deem and Ramdas Pophale) SiO2 
 PCOD9533698
Probable space group: I B C A 
;
_chemical_formula_sum "Si O2"
_cell_formula_units_Z 48
_cell_length_a 20.114260
_cell_length_b 9.229966
_cell_length_c 10.568171
_cell_angle_alpha 90.000000
_cell_angle_beta 90.000000
_cell_angle_gamma 90.000000
_cell_volume 1962.022542
_symmetry_space_group_name_H-M "I B C A "
_symmetry_group_IT_number 73
_symmetry_cell_setting 'orthorhombic'
loop_
_space_group_symop_operation_xyz
x,y,z
-x,1/2-y,z
x,-y,1/2-z
1/2-x,y,-z
-x,-y,-z
x,1/2+y,-z
-x,y,1/2+z
1/2+x,-y,z
1/2+x,1/2+y,1/2+z
1/2-x,-y,1/2+z
1/2+x,1/2-y,-z
-x,1/2+y,1/2-z
1/2-x,1/2-y,1/2-z
1/2+x,y,1/2-z
1/2-x,1/2+y,z
x,1/2-y,1/2+z
loop_
_atom_site_type_symbol
_atom_site_label
_atom_site_fract_x
_atom_site_fract_y
_atom_site_fract_z
Si Si1 0.036277 0.500000 0.250000
Si Si2 0.881450 0.244903 0.108884
Si Si3 0.250000 0.614245 0.500000
Si Si4 0.685576 0.500000 0.750000
Si Si5 0.000000 0.750000 0.577361
O O1 0.084691 0.394830 0.171851
O O2 0.992657 0.391810 0.335395
O O3 0.859003 0.362348 0.211824
O O4 0.815248 0.204897 0.033246
O O5 0.937813 0.292013 0.010177
O O6 0.269061 0.528467 0.372917
#
# Coordination Sequence:
#
# PCOD9533698 Si02
#       5
#     8  16   8   8   8
#     4  12  27  49  74 110 151 199 262 334 395 469
#     4  12  27  49  77 113 156 207 264 326 395 472
#     4  12  26  48  80 118 160 212 268 330 394 468
#     4  12  27  51  78 116 159 211 268 330 395 473
#     4  12  28  50  78 112 154 208 264 328 400 474
#
# _framework density 24.464552000000001
#
# number of rings (size 3 to 8) (size 9 to 14) (size 15 to 20)
#    0.000    0.000    0.000    9.000    0.000    9.333 
#    0.000    0.000    0.000    0.000    0.000    0.000 
#    0.000    0.000    0.000    0.000    0.000    0.000 
#
# Total GULP energy -134619.979760 kJ/mol
# GULP energy per Si atom -5609.165823 kJ/mol
# Density = 2.440887 g / cm^3
# Si number density = 24.464552 Si / 1000 Ang^3
#
#
#
# Elastic Constant Matrix: (Units=GPa)
#
#
# Indices 1 2 3 4 5 6 
#
# 1 156.1144 22.5283 66.6578 0.0000 0.0000 0.0000
# 2 22.5283 114.6179 69.9763 0.0000 0.0000 0.0000
# 3 66.6578 69.9763 171.4049 0.0000 0.0000 0.0000
# 4 0.0000 0.0000 0.0000 95.9981 0.0000 0.0000
# 5 0.0000 0.0000 0.0000 0.0000 56.8160 0.0000
# 6 0.0000 0.0000 0.0000 0.0000 0.0000 36.9343
#
#
#
# Elastic Compliance Matrix: (Units=1/GPa)
#
#
# Indices 1 2 3 4 5 6 
#
# 1 0.007696 0.000419 -0.003164 0.000000 0.000000 0.000000
# 2 0.000419 0.011644 -0.004917 0.000000 0.000000 0.000000
# 3 -0.003164 -0.004917 0.009072 0.000000 0.000000 0.000000
# 4 0.000000 0.000000 0.000000 0.010417 0.000000 0.000000
# 5 0.000000 0.000000 0.000000 0.000000 0.017601 0.000000
# 6 0.000000 0.000000 0.000000 0.000000 0.000000 0.027075
#
#
# Mechanical properties :
#
#
# Convention : Reuss Voigt Hill
#
# Bulk Modulus (GPa) = 76.40221 84.49578 80.44899
# Shear Modulus (GPa) = 48.45405 56.81466 52.63435
#
# Velocity S-wave (km/s) = 4.45520 4.82428 4.64341
# Velocity P-wave (km/s) = 7.60017 8.10213 7.85516
#
# Compressibility (1/GPa) = 0.01308863
#
# Stress axis : x y z
#
# Youngs Moduli (GPa) = 129.93668 85.88136 110.23168
#
# Poissons Ratio (x) = -0.03598 0.34877
# Poissons Ratio (y) = -0.05444 0.54197
# Poissons Ratio (z) = 0.41112 0.42225
#
# Static dielectric constant tensor:
#      x y z
#    x 1.878410 0.000000 0.000000 
#    y 0.000000 1.940380 0.000000 
#    z 0.000000 0.000000 2.009030 
# 
# From -- ./inp_files/3798.got.cif
#   From: 2010.05.17/outbox.cif.g08.bks.cpg/sg73_2_cif.got.tgz:3798.got - 2010.06.03 17:35:07.
