data_PCOD9533231
_publ_section_title
;
Structure prediction by ZEFSAII (Michael W. Deem and Ramdas Pophale) SiO2 
 PCOD9533231
Probable space group: I B C A 
;
_chemical_formula_sum "Si O2"
_cell_formula_units_Z 64
_cell_length_a 17.619678
_cell_length_b 5.054001
_cell_length_c 28.592954
_cell_angle_alpha 90.000000
_cell_angle_beta 90.000000
_cell_angle_gamma 90.000000
_cell_volume 2546.198843
_symmetry_space_group_name_H-M "I B C A "
_symmetry_group_IT_number 73
_symmetry_cell_setting 'orthorhombic'
loop_
_space_group_symop_operation_xyz
x,y,z
-x,1/2-y,z
x,-y,1/2-z
1/2-x,y,-z
-x,-y,-z
x,1/2+y,-z
-x,y,1/2+z
1/2+x,-y,z
1/2+x,1/2+y,1/2+z
1/2-x,-y,1/2+z
1/2+x,1/2-y,-z
-x,1/2+y,1/2-z
1/2-x,1/2-y,1/2-z
1/2+x,y,1/2-z
1/2-x,1/2+y,z
x,1/2-y,1/2+z
loop_
_atom_site_type_symbol
_atom_site_label
_atom_site_fract_x
_atom_site_fract_y
_atom_site_fract_z
Si Si1 0.416955 0.709588 0.674034
Si Si2 0.800499 0.937398 0.629295
Si Si3 0.500000 0.750000 0.085377
Si Si4 0.619904 0.434313 0.531581
Si Si5 0.806231 0.000000 0.250000
O O1 0.500000 0.750000 0.696278
O O2 0.371686 0.978929 0.661406
O O3 0.559881 0.886781 0.621393
O O4 0.363533 0.541651 0.706842
O O5 0.736754 0.157392 0.638069
O O6 0.823950 0.961795 0.575211
O O7 0.459776 0.530660 0.054075
O O8 0.629840 0.145725 0.509963
O O9 0.750000 0.250000 0.250000
#
# Coordination Sequence:
#
# PCOD9533231 Si02
#       5
#    16  16   8  16   8
#     4   9  22  46  73 102 137 184 236 286 351 431
#     4  11  23  42  65  97 140 185 230 288 354 419
#     4   8  20  42  66  96 136 182 234 290 350 416
#     4  11  22  38  63  95 135 181 235 291 347 409
#     4  12  26  48  76 110 146 180 226 294 368 436
#
# _framework density 25.135507
#
# number of rings (size 3 to 8) (size 9 to 14) (size 15 to 20)
#    0.750    1.000    0.000    3.750    0.000    4.000 
#    0.000   11.250    0.000    0.000    0.000    0.000 
#    0.000    0.000    0.000    0.000    0.000    0.000 
#
# Total GULP energy -179125.643702 kJ/mol
# GULP energy per Si atom -5597.676366 kJ/mol
# Density = 2.507830 g / cm^3
# Si number density = 25.135507 Si / 1000 Ang^3
#
#
#
# Elastic Constant Matrix: (Units=GPa)
#
#
# Indices 1 2 3 4 5 6 
#
# 1 169.1670 43.6053 79.3346 0.0000 0.0000 0.0000
# 2 43.6053 66.2145 43.2415 0.0000 0.0000 0.0000
# 3 79.3346 43.2415 129.0443 0.0000 0.0000 0.0000
# 4 0.0000 0.0000 0.0000 32.8594 0.0000 0.0000
# 5 0.0000 0.0000 0.0000 0.0000 48.5699 0.0000
# 6 0.0000 0.0000 0.0000 0.0000 0.0000 20.1647
#
#
#
# Elastic Compliance Matrix: (Units=1/GPa)
#
#
# Indices 1 2 3 4 5 6 
#
# 1 0.008711 -0.002867 -0.004395 0.000000 0.000000 0.000000
# 2 -0.002867 0.020276 -0.005032 0.000000 0.000000 0.000000
# 3 -0.004395 -0.005032 0.012137 0.000000 0.000000 0.000000
# 4 0.000000 0.000000 0.000000 0.030433 0.000000 0.000000
# 5 0.000000 0.000000 0.000000 0.000000 0.020589 0.000000
# 6 0.000000 0.000000 0.000000 0.000000 0.000000 0.049592
#
#
# Mechanical properties :
#
#
# Convention : Reuss Voigt Hill
#
# Bulk Modulus (GPa) = 60.46759 77.42098 68.94429
# Shear Modulus (GPa) = 29.09706 33.53509 31.31607
#
# Velocity S-wave (km/s) = 3.40605 3.65659 3.53355
# Velocity P-wave (km/s) = 6.29104 6.97824 6.64353
#
# Compressibility (1/GPa) = 0.01653778
#
# Stress axis : x y z
#
# Youngs Moduli (GPa) = 114.79207 49.31828 82.38931
#
# Poissons Ratio (x) = 0.14138 0.36211
# Poissons Ratio (y) = 0.32907 0.41459
# Poissons Ratio (z) = 0.50452 0.24817
#
# Static dielectric constant tensor:
#      x y z
#    x 2.021660 0.000000 0.000000 
#    y 0.000000 1.950790 0.000000 
#    z 0.000000 0.000000 1.986170 
# 
# From -- ./inp_files/32559.got.cif
#   From: 2010.05.17/outbox.cif.g08.bks.cpg/sg73_17_cif.got.tgz:32559.got - 2010.06.03 17:35:07.
