data_PCOD9533458
_publ_section_title
;
Structure prediction by ZEFSAII (Michael W. Deem and Ramdas Pophale) SiO2 
 PCOD9533458
Probable space group: I B C A 
;
_chemical_formula_sum "Si O2"
_cell_formula_units_Z 88
_cell_length_a 14.025906
_cell_length_b 24.818285
_cell_length_c 11.746079
_cell_angle_alpha 90.000000
_cell_angle_beta 90.000000
_cell_angle_gamma 90.000000
_cell_volume 4088.797561
_symmetry_space_group_name_H-M "I B C A "
_symmetry_group_IT_number 73
_symmetry_cell_setting 'orthorhombic'
loop_
_space_group_symop_operation_xyz
x,y,z
-x,1/2-y,z
x,-y,1/2-z
1/2-x,y,-z
-x,-y,-z
x,1/2+y,-z
-x,y,1/2+z
1/2+x,-y,z
1/2+x,1/2+y,1/2+z
1/2-x,-y,1/2+z
1/2+x,1/2-y,-z
-x,1/2+y,1/2-z
1/2-x,1/2-y,1/2-z
1/2+x,y,1/2-z
1/2-x,1/2+y,z
x,1/2-y,1/2+z
loop_
_atom_site_type_symbol
_atom_site_label
_atom_site_fract_x
_atom_site_fract_y
_atom_site_fract_z
Si Si1 0.085758 0.293249 0.616864
Si Si2 0.342941 0.580156 0.682143
Si Si3 0.147488 0.645408 0.657554
Si Si4 0.001861 0.891270 0.984904
Si Si5 0.153040 0.963870 0.565951
Si Si6 0.750000 0.229775 0.000000
O O1 0.106108 0.327607 0.729922
O O2 0.183592 0.264159 0.582878
O O3 0.000000 0.250000 0.629349
O O4 0.059326 0.336654 0.519408
O O5 0.243088 0.610939 0.675270
O O6 0.429610 0.612058 0.625000
O O7 0.358154 0.566671 0.813866
O O8 0.341424 0.525963 0.605009
O O9 0.069502 0.609206 0.594370
O O10 0.178635 0.692516 0.571589
O O11 0.933771 0.943174 0.988075
O O12 0.250000 0.950291 0.500000
#
# Coordination Sequence:
#
# PCOD9533458 Si02
#       6
#    16  16  16  16  16   8
#     4  12  27  43  70 106 138 189 245 294 364 433
#     4  11  24  46  70 104 139 187 234 296 361 433
#     4  12  24  46  72  96 143 184 233 295 362 421
#     4  12  24  44  68 102 142 184 234 299 356 431
#     4  11  25  43  72 104 141 184 240 289 363 436
#     4  12  26  46  68  98 140 184 232 300 358 428
#
# _framework density 21.522220000000001
#
# number of rings (size 3 to 8) (size 9 to 14) (size 15 to 20)
#    0.000    0.364    3.636    4.364    6.364    0.000 
#    0.000    3.636    0.000    0.000    0.000    0.000 
#    0.000    0.000    0.000    0.000    0.000    0.000 
#
# Total GULP energy -246204.063461 kJ/mol
# GULP energy per Si atom -5595.546897 kJ/mol
# Density = 2.147323 g / cm^3
# Si number density = 21.522220 Si / 1000 Ang^3
#
#
#
# Elastic Constant Matrix: (Units=GPa)
#
#
# Indices 1 2 3 4 5 6 
#
# 1 118.8124 31.8232 30.1713 0.0000 0.0000 0.0000
# 2 31.8232 69.3693 10.4201 0.0001 0.0000 -0.0001
# 3 30.1713 10.4201 57.5828 -0.0002 0.0003 0.0002
# 4 0.0000 0.0001 -0.0002 47.6782 0.0001 -0.0001
# 5 0.0000 0.0000 0.0003 0.0001 29.7253 0.0000
# 6 0.0000 -0.0001 0.0002 -0.0001 0.0000 95.3594
#
#
#
# Elastic Compliance Matrix: (Units=1/GPa)
#
#
# Indices 1 2 3 4 5 6 
#
# 1 0.010787 -0.004214 -0.004889 0.000000 0.000000 0.000000
# 2 -0.004214 0.016465 -0.000771 0.000000 0.000000 0.000000
# 3 -0.004889 -0.000771 0.020068 0.000000 0.000000 0.000000
# 4 0.000000 0.000000 0.000000 0.020974 0.000000 0.000000
# 5 0.000000 0.000000 0.000000 0.000000 0.033641 0.000000
# 6 0.000000 0.000000 0.000000 0.000000 0.000000 0.010487
#
#
# Mechanical properties :
#
#
# Convention : Reuss Voigt Hill
#
# Bulk Modulus (GPa) = 36.27176 43.39928 39.83552
# Shear Modulus (GPa) = 35.37042 46.10922 40.73982
#
# Velocity S-wave (km/s) = 4.05833 4.63363 4.35549
# Velocity P-wave (km/s) = 6.23296 6.98828 6.62140
#
# Compressibility (1/GPa) = 0.02756966
#
# Stress axis : x y z
#
# Youngs Moduli (GPa) = 92.70447 60.73606 49.83115
#
# Poissons Ratio (x) = 0.25595 0.24364
# Poissons Ratio (y) = 0.39066 0.03844
# Poissons Ratio (z) = 0.45327 0.04685
#
# Static dielectric constant tensor:
#      x y z
#    x 1.800910 0.000000 0.000000 
#    y 0.000000 1.816060 0.000000 
#    z 0.000000 0.000000 1.765360 
# 
# From -- ./inp_files/10954.got.cif
#   From: 2010.05.17/outbox.cif.g08.bks.cpg/sg73_6_cif.got.tgz:10954.got - 2010.06.03 17:35:07.
