data_PCOD9533372
_publ_section_title
;
Structure prediction by ZEFSAII (Michael W. Deem and Ramdas Pophale) SiO2 
 PCOD9533372
Probable space group: I B C A 
;
_chemical_formula_sum "Si O2"
_cell_formula_units_Z 64
_cell_length_a 11.900683
_cell_length_b 14.364004
_cell_length_c 15.676400
_cell_angle_alpha 90.000000
_cell_angle_beta 90.000000
_cell_angle_gamma 90.000000
_cell_volume 2679.746676
_symmetry_space_group_name_H-M "I B C A "
_symmetry_group_IT_number 73
_symmetry_cell_setting 'orthorhombic'
loop_
_space_group_symop_operation_xyz
x,y,z
-x,1/2-y,z
x,-y,1/2-z
1/2-x,y,-z
-x,-y,-z
x,1/2+y,-z
-x,y,1/2+z
1/2+x,-y,z
1/2+x,1/2+y,1/2+z
1/2-x,-y,1/2+z
1/2+x,1/2-y,-z
-x,1/2+y,1/2-z
1/2-x,1/2-y,1/2-z
1/2+x,y,1/2-z
1/2-x,1/2+y,z
x,1/2-y,1/2+z
loop_
_atom_site_type_symbol
_atom_site_label
_atom_site_fract_x
_atom_site_fract_y
_atom_site_fract_z
Si Si1 0.738330 0.133261 0.906585
Si Si2 0.218073 0.052078 0.156893
Si Si3 0.388395 0.210016 0.147339
Si Si4 0.021957 0.902500 0.802889
O O1 0.800846 0.205557 0.845258
O O2 0.613576 0.105558 0.877522
O O3 0.804037 0.035676 0.903465
O O4 0.750000 0.175389 0.000000
O O5 0.315679 0.118945 0.121345
O O6 0.104546 0.110128 0.166205
O O7 0.241631 0.000000 0.250000
O O8 0.500000 0.250000 0.099324
O O9 0.437551 0.172374 0.235371
O O10 0.020013 0.000000 0.750000
#
# Coordination Sequence:
#
# PCOD9533372 Si02
#       4
#    16  16  16  16
#     4  12  27  45  67 107 147 186 232 288 368 432
#     4  11  24  46  76 106 132 185 246 293 351 412
#     4  12  25  44  74 103 136 182 245 290 346 427
#     4  11  23  44  76 103 133 186 238 297 346 410
#
# _framework density 23.882856
#
# number of rings (size 3 to 8) (size 9 to 14) (size 15 to 20)
#    0.000    0.500    5.000    3.750    3.500    2.000 
#    4.500    0.000    0.000    0.000    0.000    0.000 
#    0.000    0.000    0.000    0.000    0.000    0.000 
#
# Total GULP energy -178670.335127 kJ/mol
# GULP energy per Si atom -5583.447973 kJ/mol
# Density = 2.382850 g / cm^3
# Si number density = 23.882856 Si / 1000 Ang^3
#
#
#
# Elastic Constant Matrix: (Units=GPa)
#
#
# Indices 1 2 3 4 5 6 
#
# 1 129.1313 48.4106 14.4531 0.0000 0.0000 0.0000
# 2 48.4106 146.0947 12.8833 0.0000 0.0000 0.0000
# 3 14.4531 12.8833 41.0980 0.0000 0.0000 0.0000
# 4 0.0000 0.0000 0.0000 7.6066 0.0000 0.0000
# 5 0.0000 0.0000 0.0000 0.0000 7.8357 0.0000
# 6 0.0000 0.0000 0.0000 0.0000 0.0000 43.5141
#
#
#
# Elastic Compliance Matrix: (Units=1/GPa)
#
#
# Indices 1 2 3 4 5 6 
#
# 1 0.009050 -0.002796 -0.002306 0.000000 0.000000 0.000000
# 2 -0.002796 0.007903 -0.001494 0.000000 0.000000 0.000000
# 3 -0.002306 -0.001494 0.025612 0.000000 0.000000 0.000000
# 4 0.000000 0.000000 0.000000 0.131465 0.000000 0.000000
# 5 0.000000 0.000000 0.000000 0.000000 0.127620 0.000000
# 6 0.000000 0.000000 0.000000 0.000000 0.000000 0.022981
#
#
# Mechanical properties :
#
#
# Convention : Reuss Voigt Hill
#
# Bulk Modulus (GPa) = 34.04558 51.97977 43.01267
# Shear Modulus (GPa) = 14.38377 27.82976 21.10676
#
# Velocity S-wave (km/s) = 2.45677 3.41730 2.97604
# Velocity P-wave (km/s) = 4.72586 6.11410 5.46425
#
# Compressibility (1/GPa) = 0.02937239
#
# Stress axis : x y z
#
# Youngs Moduli (GPa) = 110.49439 126.53433 39.04481
#
# Poissons Ratio (x) = 0.35373 0.09005
# Poissons Ratio (y) = 0.30889 0.05834
# Poissons Ratio (z) = 0.25484 0.18908
#
# Static dielectric constant tensor:
#      x y z
#    x 1.997860 0.000000 0.000000 
#    y 0.000000 1.969450 0.000000 
#    z 0.000000 0.000000 1.978240 
# 
# From -- ./inp_files/21045.got.cif
#   From: 2010.05.17/outbox.cif.g08.bks.cpg/sg73_11_cif.got.tgz:21045.got - 2010.06.03 17:35:07.
