data_PCOD9533528
_publ_section_title
;
Structure prediction by ZEFSAII (Michael W. Deem and Ramdas Pophale) SiO2 
 PCOD9533528
Probable space group: I B C A 
;
_chemical_formula_sum "Si O2"
_cell_formula_units_Z 48
_cell_length_a 8.007579
_cell_length_b 9.492738
_cell_length_c 24.146875
_cell_angle_alpha 90.000000
_cell_angle_beta 90.000000
_cell_angle_gamma 90.000000
_cell_volume 1835.496921
_symmetry_space_group_name_H-M "I B C A "
_symmetry_group_IT_number 73
_symmetry_cell_setting 'orthorhombic'
loop_
_space_group_symop_operation_xyz
x,y,z
-x,1/2-y,z
x,-y,1/2-z
1/2-x,y,-z
-x,-y,-z
x,1/2+y,-z
-x,y,1/2+z
1/2+x,-y,z
1/2+x,1/2+y,1/2+z
1/2-x,-y,1/2+z
1/2+x,1/2-y,-z
-x,1/2+y,1/2-z
1/2-x,1/2-y,1/2-z
1/2+x,y,1/2-z
1/2-x,1/2+y,z
x,1/2-y,1/2+z
loop_
_atom_site_type_symbol
_atom_site_label
_atom_site_fract_x
_atom_site_fract_y
_atom_site_fract_z
Si Si1 0.772884 0.162785 0.598408
Si Si2 0.372428 0.077287 0.448117
Si Si3 0.145147 0.358427 0.286087
O O1 0.781551 0.330037 0.599130
O O2 0.757252 0.105430 0.660302
O O3 0.935468 0.119435 0.561913
O O4 0.627844 0.088001 0.564440
O O5 0.250000 0.106920 0.500000
O O6 0.101556 0.500000 0.250000
O O7 0.250000 0.250000 0.250000
O O8 0.000000 0.250000 0.306112
#
# Coordination Sequence:
#
# PCOD9533528 Si02
#       3
#    16  16  16
#     4  11  27  46  76 115 156 206 270 326 407 486
#     4  11  25  47  75 111 158 207 266 329 399 482
#     4  12  29  50  82 118 166 215 275 344 421 502
#
# _framework density 26.150956999999998
#
# number of rings (size 3 to 8) (size 9 to 14) (size 15 to 20)
#    0.000    0.667    0.000    5.000   18.667    2.667 
#    0.000    0.000    0.000    0.000    0.000    0.000 
#    0.000    0.000    0.000    0.000    0.000    0.000 
#
# Total GULP energy -133720.152592 kJ/mol
# GULP energy per Si atom -5571.673025 kJ/mol
# Density = 2.609144 g / cm^3
# Si number density = 26.150957 Si / 1000 Ang^3
#
#
#
# Elastic Constant Matrix: (Units=GPa)
#
#
# Indices 1 2 3 4 5 6 
#
# 1 98.7066 25.4521 40.7065 0.0000 0.0000 0.0000
# 2 25.4521 150.6622 32.3842 0.0000 0.0000 0.0000
# 3 40.7065 32.3842 158.9993 0.0000 0.0000 0.0000
# 4 0.0000 0.0000 0.0000 44.3841 0.0000 0.0000
# 5 0.0000 0.0000 0.0000 0.0000 13.1284 0.0000
# 6 0.0000 0.0000 0.0000 0.0000 0.0000 38.0541
#
#
#
# Elastic Compliance Matrix: (Units=1/GPa)
#
#
# Indices 1 2 3 4 5 6 
#
# 1 0.011595 -0.001381 -0.002687 0.000000 0.000000 0.000000
# 2 -0.001381 0.007106 -0.001094 0.000000 0.000000 0.000000
# 3 -0.002687 -0.001094 0.007200 0.000000 0.000000 0.000000
# 4 0.000000 0.000000 0.000000 0.022531 0.000000 0.000000
# 5 0.000000 0.000000 0.000000 0.000000 0.076171 0.000000
# 6 0.000000 0.000000 0.000000 0.000000 0.000000 0.026278
#
#
# Mechanical properties :
#
#
# Convention : Reuss Voigt Hill
#
# Bulk Modulus (GPa) = 64.19763 67.27264 65.73513
# Shear Modulus (GPa) = 30.04847 39.76834 34.90841
#
# Velocity S-wave (km/s) = 3.39343 3.90387 3.65757
# Velocity P-wave (km/s) = 6.32107 6.78976 6.55960
#
# Compressibility (1/GPa) = 0.01557690
#
# Stress axis : x y z
#
# Youngs Moduli (GPa) = 86.24080 140.73048 138.88742
#
# Poissons Ratio (x) = 0.19438 0.37323
# Poissons Ratio (y) = 0.11912 0.15189
# Poissons Ratio (z) = 0.23176 0.15391
#
# Static dielectric constant tensor:
#      x y z
#    x 2.135800 0.000000 0.000000 
#    y 0.000000 2.239230 0.000000 
#    z 0.000000 0.000000 2.432120 
# 
# From -- ./inp_files/3753.got.cif
#   From: 2010.05.17/outbox.cif.g08.bks.cpg/sg73_2_cif.got.tgz:3753.got - 2010.06.03 17:35:07.
