data_PCOD9533414
_publ_section_title
;
Structure prediction by ZEFSAII (Michael W. Deem and Ramdas Pophale) SiO2 
 PCOD9533414
Probable space group: I B C A 
;
_chemical_formula_sum "Si O2"
_cell_formula_units_Z 48
_cell_length_a 8.836678
_cell_length_b 9.381190
_cell_length_c 26.868173
_cell_angle_alpha 90.000000
_cell_angle_beta 90.000000
_cell_angle_gamma 90.000000
_cell_volume 2227.332725
_symmetry_space_group_name_H-M "I B C A "
_symmetry_group_IT_number 73
_symmetry_cell_setting 'orthorhombic'
loop_
_space_group_symop_operation_xyz
x,y,z
-x,1/2-y,z
x,-y,1/2-z
1/2-x,y,-z
-x,-y,-z
x,1/2+y,-z
-x,y,1/2+z
1/2+x,-y,z
1/2+x,1/2+y,1/2+z
1/2-x,-y,1/2+z
1/2+x,1/2-y,-z
-x,1/2+y,1/2-z
1/2-x,1/2-y,1/2-z
1/2+x,y,1/2-z
1/2-x,1/2+y,z
x,1/2-y,1/2+z
loop_
_atom_site_type_symbol
_atom_site_label
_atom_site_fract_x
_atom_site_fract_y
_atom_site_fract_z
Si Si1 0.110057 0.887423 0.855134
Si Si2 0.399973 0.389817 0.968968
Si Si3 0.087125 0.108161 0.294192
O O1 0.140248 0.931272 0.912380
O O2 0.264274 0.853850 0.825817
O O3 0.000000 0.750000 0.853814
O O4 0.026779 0.018490 0.828623
O O5 0.500000 0.250000 0.964889
O O6 0.250000 0.361209 0.000000
O O7 0.500000 0.500000 0.000000
O O8 0.000000 0.250000 0.276158
O O9 0.130167 0.000000 0.250000
#
# Coordination Sequence:
#
# PCOD9533414 Si02
#       3
#    16  16  16
#     4  11  25  44  67  97 131 172 219 267 323 387
#     4  11  24  42  66  97 133 172 217 268 323 384
#     4  12  26  45  69  96 131 172 217 270 327 388
#
# _framework density 21.550439000000001
#
# number of rings (size 3 to 8) (size 9 to 14) (size 15 to 20)
#    0.000    0.667    0.000    7.000    0.000   14.667 
#    0.000    1.667    0.000    0.000    0.000    0.000 
#    0.000    0.000    0.000    0.000    0.000    0.000 
#
# Total GULP energy -134456.958305 kJ/mol
# GULP energy per Si atom -5602.373263 kJ/mol
# Density = 2.150139 g / cm^3
# Si number density = 21.550439 Si / 1000 Ang^3
#
#
#
# Elastic Constant Matrix: (Units=GPa)
#
#
# Indices 1 2 3 4 5 6 
#
# 1 126.4059 14.3275 46.7919 0.0000 0.0000 0.0000
# 2 14.3275 88.1326 29.1052 0.0000 0.0000 0.0000
# 3 46.7919 29.1052 163.5092 0.0000 0.0000 0.0000
# 4 0.0000 0.0000 0.0000 28.9939 0.0000 0.0000
# 5 0.0000 0.0000 0.0000 0.0000 37.5830 0.0000
# 6 0.0000 0.0000 0.0000 0.0000 0.0000 36.7900
#
#
#
# Elastic Compliance Matrix: (Units=1/GPa)
#
#
# Indices 1 2 3 4 5 6 
#
# 1 0.008882 -0.000642 -0.002428 0.000000 0.000000 0.000000
# 2 -0.000642 0.012102 -0.001970 0.000000 0.000000 0.000000
# 3 -0.002428 -0.001970 0.007161 0.000000 0.000000 0.000000
# 4 0.000000 0.000000 0.000000 0.034490 0.000000 0.000000
# 5 0.000000 0.000000 0.000000 0.000000 0.026608 0.000000
# 6 0.000000 0.000000 0.000000 0.000000 0.000000 0.027181
#
#
# Mechanical properties :
#
#
# Convention : Reuss Voigt Hill
#
# Bulk Modulus (GPa) = 55.35576 62.05521 58.70549
# Shear Modulus (GPa) = 37.72828 39.86158 38.79493
#
# Velocity S-wave (km/s) = 4.18867 4.30547 4.24747
# Velocity P-wave (km/s) = 7.00968 7.31942 7.16622
#
# Compressibility (1/GPa) = 0.01806497
#
# Stress axis : x y z
#
# Youngs Moduli (GPa) = 112.58159 82.63337 139.63949
#
# Poissons Ratio (x) = 0.05308 0.33899
# Poissons Ratio (y) = 0.07231 0.27514
# Poissons Ratio (z) = 0.27330 0.16281
#
# Static dielectric constant tensor:
#      x y z
#    x 1.779910 0.000000 0.000000 
#    y 0.000000 1.754250 0.000000 
#    z 0.000000 0.000000 1.811370 
# 
# From -- ./inp_files/3437.got.cif
#   From: 2010.05.17/outbox.cif.g08.bks.cpg/sg73_2_cif.got.tgz:3437.got - 2010.06.03 17:35:07.
