data_PCOD9533476
_publ_section_title
;
Structure prediction by ZEFSAII (Michael W. Deem and Ramdas Pophale) SiO2 
 PCOD9533476
Probable space group: I B C A 
;
_chemical_formula_sum "Si O2"
_cell_formula_units_Z 96
_cell_length_a 18.646831
_cell_length_b 21.378629
_cell_length_c 9.600487
_cell_angle_alpha 90.000000
_cell_angle_beta 90.000000
_cell_angle_gamma 90.000000
_cell_volume 3827.173486
_symmetry_space_group_name_H-M "I B C A "
_symmetry_group_IT_number 73
_symmetry_cell_setting 'orthorhombic'
loop_
_space_group_symop_operation_xyz
x,y,z
-x,1/2-y,z
x,-y,1/2-z
1/2-x,y,-z
-x,-y,-z
x,1/2+y,-z
-x,y,1/2+z
1/2+x,-y,z
1/2+x,1/2+y,1/2+z
1/2-x,-y,1/2+z
1/2+x,1/2-y,-z
-x,1/2+y,1/2-z
1/2-x,1/2-y,1/2-z
1/2+x,y,1/2-z
1/2-x,1/2+y,z
x,1/2-y,1/2+z
loop_
_atom_site_type_symbol
_atom_site_label
_atom_site_fract_x
_atom_site_fract_y
_atom_site_fract_z
Si Si1 0.222222 0.194184 0.844746
Si Si2 0.169214 0.428370 0.270237
Si Si3 0.163476 0.149984 0.495921
Si Si4 0.088936 0.065125 0.292221
Si Si5 0.072925 0.231498 0.914512
Si Si6 0.041704 0.905067 0.511754
O O1 0.250000 0.250000 0.750000
O O2 0.230308 0.120648 0.817225
O O3 0.137209 0.204167 0.825346
O O4 0.250000 0.203802 0.000000
O O5 0.190760 0.500000 0.250000
O O6 0.108120 0.426656 0.390347
O O7 0.146303 0.398149 0.121266
O O8 0.250000 0.160604 0.500000
O O9 0.142273 0.117149 0.350743
O O10 0.113649 0.212271 0.495426
O O11 0.027777 0.066889 0.411945
O O12 0.125886 0.000000 0.250000
O O13 0.048492 0.922088 0.351632
O O14 0.000000 0.250000 0.836512
O O15 0.045529 0.170691 0.996357
#
# Coordination Sequence:
#
# PCOD9533476 Si02
#       6
#    16  16  16  16  16  16
#     4  11  25  49  76 112 156 211 266 337 424 500
#     4  11  25  46  74 110 155 207 267 330 403 498
#     4  12  27  48  75 111 159 212 268 338 412 491
#     4  12  25  48  76 112 155 205 261 331 412 497
#     4  11  24  47  73 110 151 198 264 331 401 489
#     4  11  25  45  76 112 151 200 261 334 415 488
#
# _framework density 25.083787000000001
#
# number of rings (size 3 to 8) (size 9 to 14) (size 15 to 20)
#    0.000    0.667    1.667    5.500    0.000    9.333 
#    0.000    0.833    0.000    0.000    0.000    0.000 
#    0.000    0.000    0.000    0.000    0.000    0.000 
#
# Total GULP energy -268019.503655 kJ/mol
# GULP energy per Si atom -5583.739659 kJ/mol
# Density = 2.502670 g / cm^3
# Si number density = 25.083787 Si / 1000 Ang^3
#
#
#
# Elastic Constant Matrix: (Units=GPa)
#
#
# Indices 1 2 3 4 5 6 
#
# 1 131.5828 23.3192 41.5448 0.0000 0.0000 0.0000
# 2 23.3192 203.0253 43.1210 0.0000 0.0000 0.0000
# 3 41.5448 43.1210 144.7447 0.0000 0.0000 0.0000
# 4 0.0000 0.0000 0.0000 36.0715 0.0000 0.0000
# 5 0.0000 0.0000 0.0000 0.0000 28.8189 0.0000
# 6 0.0000 0.0000 0.0000 0.0000 0.0000 20.0871
#
#
#
# Elastic Compliance Matrix: (Units=1/GPa)
#
#
# Indices 1 2 3 4 5 6 
#
# 1 0.008401 -0.000483 -0.002267 0.000000 0.000000 0.000000
# 2 -0.000483 0.005286 -0.001436 0.000000 0.000000 0.000000
# 3 -0.002267 -0.001436 0.007987 0.000000 0.000000 0.000000
# 4 0.000000 0.000000 0.000000 0.027723 0.000000 0.000000
# 5 0.000000 0.000000 0.000000 0.000000 0.034699 0.000000
# 6 0.000000 0.000000 0.000000 0.000000 0.000000 0.049783
#
#
# Mechanical properties :
#
#
# Convention : Reuss Voigt Hill
#
# Bulk Modulus (GPa) = 75.18167 77.25807 76.21987
# Shear Modulus (GPa) = 34.08613 41.75335 37.91974
#
# Velocity S-wave (km/s) = 3.69031 4.08432 3.89231
# Velocity P-wave (km/s) = 6.94227 7.28760 7.11703
#
# Compressibility (1/GPa) = 0.01330111
#
# Stress axis : x y z
#
# Youngs Moduli (GPa) = 119.02891 189.17836 125.19879
#
# Poissons Ratio (x) = 0.09145 0.28387
# Poissons Ratio (y) = 0.05754 0.17979
# Poissons Ratio (z) = 0.26988 0.27166
#
# Static dielectric constant tensor:
#      x y z
#    x 2.033240 0.000000 0.000000 
#    y 0.000000 2.173020 0.000000 
#    z 0.000000 0.000000 2.016670 
# 
# From -- ./inp_files/12867.got.cif
#   From: 2010.05.17/outbox.cif.g08.bks.cpg/sg73_7_cif.got.tgz:12867.got - 2010.06.03 17:35:07.
