data_PCOD9533551
_publ_section_title
;
Structure prediction by ZEFSAII (Michael W. Deem and Ramdas Pophale) SiO2 
 PCOD9533551
Probable space group: I B C A 
;
_chemical_formula_sum "Si O2"
_cell_formula_units_Z 56
_cell_length_a 14.215294
_cell_length_b 9.960216
_cell_length_c 15.626610
_cell_angle_alpha 90.000000
_cell_angle_beta 90.000000
_cell_angle_gamma 90.000000
_cell_volume 2212.531061
_symmetry_space_group_name_H-M "I B C A "
_symmetry_group_IT_number 73
_symmetry_cell_setting 'orthorhombic'
loop_
_space_group_symop_operation_xyz
x,y,z
-x,1/2-y,z
x,-y,1/2-z
1/2-x,y,-z
-x,-y,-z
x,1/2+y,-z
-x,y,1/2+z
1/2+x,-y,z
1/2+x,1/2+y,1/2+z
1/2-x,-y,1/2+z
1/2+x,1/2-y,-z
-x,1/2+y,1/2-z
1/2-x,1/2-y,1/2-z
1/2+x,y,1/2-z
1/2-x,1/2+y,z
x,1/2-y,1/2+z
loop_
_atom_site_type_symbol
_atom_site_label
_atom_site_fract_x
_atom_site_fract_y
_atom_site_fract_z
Si Si1 0.784152 0.949200 0.649639
Si Si2 0.500000 0.250000 0.951184
Si Si3 0.157047 0.322496 0.410429
Si Si4 0.994727 0.014051 0.848263
O O1 0.775070 0.790223 0.631393
O O2 0.772989 0.000000 0.750000
O O3 0.719024 0.042791 0.591943
O O4 0.891398 0.960197 0.615995
O O5 0.526466 0.121387 0.894290
O O6 0.405252 0.215429 0.006015
O O7 0.069688 0.367579 0.351941
O O8 0.976167 0.000000 0.750000
#
# Coordination Sequence:
#
# PCOD9533551 Si02
#       4
#    16   8  16  16
#     4  11  26  47  83 118 162 218 271 327 404 488
#     4  12  28  50  78 116 160 212 266 338 414 466
#     4  12  26  52  76 121 163 205 275 334 408 479
#     4  11  27  50  81 112 161 212 271 330 409 491
#
# _framework density 25.310379000000001
#
# number of rings (size 3 to 8) (size 9 to 14) (size 15 to 20)
#    0.000    0.571    2.857    2.571   12.000    1.143 
#    0.000    0.000    0.000    0.000    0.000    0.000 
#    0.000    0.000    0.000    0.000    0.000    0.000 
#
# Total GULP energy -156274.632483 kJ/mol
# GULP energy per Si atom -5581.236874 kJ/mol
# Density = 2.525277 g / cm^3
# Si number density = 25.310379 Si / 1000 Ang^3
#
#
#
# Elastic Constant Matrix: (Units=GPa)
#
#
# Indices 1 2 3 4 5 6 
#
# 1 122.3237 37.6774 18.8805 0.0000 0.0000 0.0000
# 2 37.6774 143.7784 46.8099 0.0000 0.0000 0.0000
# 3 18.8805 46.8099 89.2234 0.0000 0.0000 0.0000
# 4 0.0000 0.0000 0.0000 -94.0240 0.0000 0.0000
# 5 0.0000 0.0000 0.0000 0.0000 45.6071 0.0000
# 6 0.0000 0.0000 0.0000 0.0000 0.0000 116.2497
#
#
#
# Elastic Compliance Matrix: (Units=1/GPa)
#
#
# Indices 1 2 3 4 5 6 
#
# 1 0.008940 -0.002083 -0.000799 0.000000 0.000000 0.000000
# 2 -0.002083 0.008873 -0.004214 0.000000 0.000000 0.000000
# 3 -0.000799 -0.004214 0.013588 0.000000 0.000000 0.000000
# 4 0.000000 0.000000 0.000000 -0.010636 0.000000 0.000000
# 5 0.000000 0.000000 0.000000 0.000000 0.021926 0.000000
# 6 0.000000 0.000000 0.000000 0.000000 0.000000 0.008602
#
#
# Mechanical properties :
#
#
# Convention : Reuss Voigt Hill
#
# Bulk Modulus (GPa) = 58.11065 62.45123 60.28094
# Shear Modulus (GPa) = 70.20291 30.36373 50.28332
#
# Velocity S-wave (km/s) = 5.27229 3.46736 4.46204
# Velocity P-wave (km/s) = 7.75060 6.38419 7.10034
#
# Compressibility (1/GPa) = 0.01720855
#
# Stress axis : x y z
#
# Youngs Moduli (GPa) = 111.85906 112.70208 73.59455
#
# Poissons Ratio (x) = 0.23470 0.05882
# Poissons Ratio (y) = 0.23295 0.31016
# Poissons Ratio (z) = 0.08940 0.47497
#
# Static dielectric constant tensor:
#      x y z
#    x 2.051900 0.000000 0.000000 
#    y 0.000000 2.140590 0.000000 
#    z 0.000000 0.000000 2.078740 
# 
# From -- ./inp_files/16533.got.cif
#   From: 2010.05.17/outbox.cif.g08.bks.cpg/sg73_9_cif.got.tgz:16533.got - 2010.06.03 17:35:07.
