data_PCOD9533939
_publ_section_title
;
Structure prediction by ZEFSAII (Michael W. Deem and Ramdas Pophale) SiO2 
 PCOD9533939
Probable space group: I M M A
;
_chemical_formula_sum "Si O2"
_cell_formula_units_Z 80
_cell_length_a 8.810314
_cell_length_b 23.657579
_cell_length_c 29.981710
_cell_angle_alpha 90.000000
_cell_angle_beta 90.000000
_cell_angle_gamma 90.000000
_cell_volume 6249.108787
_symmetry_space_group_name_H-M "I M M A"
_symmetry_group_IT_number 74
_symmetry_cell_setting 'orthorhombic'
loop_
_space_group_symop_operation_xyz
x,y,z
-x,1/2-y,z
x,-y,-z
-x,1/2+y,-z
-x,-y,-z
x,1/2+y,-z
-x,y,z
x,1/2-y,z
1/2+x,1/2+y,1/2+z
1/2-x,-y,1/2+z
1/2+x,1/2-y,1/2-z
1/2-x,y,1/2-z
1/2-x,1/2-y,1/2-z
1/2+x,y,1/2-z
1/2-x,1/2+y,1/2+z
1/2+x,-y,1/2+z
loop_
_atom_site_type_symbol
_atom_site_label
_atom_site_fract_x
_atom_site_fract_y
_atom_site_fract_z
Si Si1 0.819004 0.082448 0.980207
Si Si2 0.181926 0.622201 0.618272
Si Si3 0.318059 0.484414 0.065326
Si Si4 0.182385 0.816097 0.525598
Si Si5 0.681303 0.684380 0.702249
O O1 0.000000 0.079018 0.981003
O O2 0.753944 0.046480 0.938707
O O3 0.748643 0.050366 0.023278
O O4 0.762249 0.146100 0.987833
O O5 0.217039 0.556690 0.606769
O O6 0.225159 0.659154 0.574452
O O7 0.260046 0.646311 0.661930
O O8 0.000000 0.627140 0.622955
O O9 0.500000 0.488032 0.060811
O O10 0.218693 0.750000 0.522977
O O11 0.000000 0.823195 0.521611
O O12 0.500000 0.682175 0.704660
O O13 0.726985 0.750000 0.694017
O O14 0.750000 0.667689 0.750000
#
# Coordination Sequence:
#
# PCOD9533939 Si02
#       5
#    16  16  16  16  16
#     4  10  17  24  36  54  74  93 117 152 187 215
#     4   9  17  28  42  57  71  90 120 157 190 221
#     4   9  16  27  40  52  69  94 121 147 180 223
#     4   9  17  28  40  53  72 100 128 152 183 224
#     4  10  20  31  42  55  72  95 121 151 188 228
#
# _framework density 12.801826
#
# number of rings (size 3 to 8) (size 9 to 14) (size 15 to 20)
#    0.000    2.600    0.000    6.000    0.000    6.400 
#    0.000    0.000    0.000    0.000    0.000    0.000 
#    0.000    0.000    0.000    0.000    0.000    1.000 
#
# Total GULP energy -222725.060506 kJ/mol
# GULP energy per Si atom -5568.126513 kJ/mol
# Density = 1.277269 g / cm^3
# Si number density = 12.801826 Si / 1000 Ang^3
#
#
#
# Elastic Constant Matrix: (Units=GPa)
#
#
# Indices 1 2 3 4 5 6 
#
# 1 48.4047 42.0895 33.3278 0.0000 0.0000 0.0000
# 2 42.0895 93.6629 55.1976 0.0000 0.0000 0.0000
# 3 33.3278 55.1976 62.3895 0.0000 0.0000 0.0000
# 4 0.0000 0.0000 0.0000 21.4087 0.0000 0.0000
# 5 0.0000 0.0000 0.0000 0.0000 18.1147 0.0000
# 6 0.0000 0.0000 0.0000 0.0000 0.0000 -96.1567
#
#
#
# Elastic Compliance Matrix: (Units=1/GPa)
#
#
# Indices 1 2 3 4 5 6 
#
# 1 0.036958 -0.010391 -0.010550 0.000000 0.000000 0.000000
# 2 -0.010391 0.025229 -0.016770 0.000000 0.000000 0.000000
# 3 -0.010550 -0.016770 0.036501 0.000000 0.000000 0.000000
# 4 0.000000 0.000000 0.000000 0.046710 0.000000 0.000000
# 5 0.000000 0.000000 0.000000 0.000000 0.055204 0.000000
# 6 0.000000 0.000000 0.000000 0.000000 0.000000 -0.010400
#
#
# Mechanical properties :
#
#
# Convention : Reuss Voigt Hill
#
# Bulk Modulus (GPa) = 42.97969 51.74300 47.36134
# Shear Modulus (GPa) = 18.28974 -6.40385 5.94295
#
# Velocity S-wave (km/s) = 3.78389 -2.23901 2.15693
# Velocity P-wave (km/s) = 7.26199 5.81567 6.57869
#
# Compressibility (1/GPa) = 0.02326681
#
# Stress axis : x y z
#
# Youngs Moduli (GPa) = 27.05778 39.63726 27.39684
#
# Poissons Ratio (x) = 0.41186 0.28902
# Poissons Ratio (y) = 0.28115 0.45944
# Poissons Ratio (z) = 0.28545 0.66471
#
# Static dielectric constant tensor:
#      x y z
#    x 1.425790 0.000000 0.000000 
#    y 0.000000 1.454030 0.000000 
#    z 0.000000 0.000000 1.396240 
# 
# From -- ./inp_files/70683.got.cif
#   From: 2010.05.17/outbox.cif.g08.bks.cpg/sg74_36_cif.got.tgz:70683.got - 2010.06.03 17:57:02.
