data_PCOD9533772
_publ_section_title
;
Structure prediction by ZEFSAII (Michael W. Deem and Ramdas Pophale) SiO2 
 PCOD9533772
Probable space group: I B C A 
;
_chemical_formula_sum "Si O2"
_cell_formula_units_Z 44
_cell_length_a 21.000000
_cell_length_b 9.000000
_cell_length_c 24.000000
_cell_angle_alpha 90.000000
_cell_angle_beta 90.000000
_cell_angle_gamma 90.000000
_cell_volume 4536.000000
_symmetry_space_group_name_H-M "I B C A "
_symmetry_group_IT_number 73
_symmetry_cell_setting 'orthorhombic'
loop_
_space_group_symop_operation_xyz
x,y,z
-x,1/2-y,z
x,-y,1/2-z
1/2-x,y,-z
-x,-y,-z
x,1/2+y,-z
-x,y,1/2+z
1/2+x,-y,z
1/2+x,1/2+y,1/2+z
1/2-x,-y,1/2+z
1/2+x,1/2-y,-z
-x,1/2+y,1/2-z
1/2-x,1/2-y,1/2-z
1/2+x,y,1/2-z
1/2-x,1/2+y,z
x,1/2-y,1/2+z
loop_
_atom_site_type_symbol
_atom_site_label
_atom_site_fract_x
_atom_site_fract_y
_atom_site_fract_z
Si Si1 0.831810 0.571465 0.604207
Si Si2 0.419376 0.426446 0.311486
Si Si3 0.433855 0.431033 0.811797
Si Si4 0.000000 0.250000 0.013779
Si Si5 0.310148 0.073947 0.610159
Si Si6 0.402750 0.508996 0.014765
O O1 0.881567 0.510560 0.649892
O O2 0.763525 0.483803 0.609574
O O3 0.815790 0.746336 0.613836
O O4 0.871682 0.547398 0.545888
O O5 0.415781 0.500000 0.250000
O O6 0.492640 0.457929 0.332049
O O7 0.418553 0.245939 0.309672
O O8 0.359626 0.495353 0.345914
O O9 0.430453 0.500000 0.750000
O O10 0.046371 0.372494 0.984978
O O11 0.944864 0.354583 0.039722
O O12 0.342530 0.029321 0.552000
#
# Coordination Sequence:
#
# PCOD9533772 Si02
#       6
#    16  16  16   8  16  16
#     4  12  27  43  65  94 133 176 217 266 322 388
#     4  10  23  43  70  99 130 167 214 270 323 381
#     4  10  23  43  70  99 130 167 214 270 323 381
#     4  10  24  42  66 102 126 174 214 270 318 382
#     4  12  27  43  65  94 133 176 217 266 322 388
#     4  11  25  42  68  98 136 168 216 266 326 382
#
# _framework density 9.7001760000000008
#
# number of rings (size 3 to 8) (size 9 to 14) (size 15 to 20)
#    0.000    1.091    1.818    2.727   10.182    4.364 
#    0.000    3.636    0.000    0.000    0.000    0.000 
#    0.000    0.000    0.000    0.000    0.000    0.000 
#
# Total GULP energy -245440.394931 kJ/mol
# GULP energy per Si atom -5578.190794 kJ/mol
# Density = 0.967810 g / cm^3
# Si number density = 9.700176 Si / 1000 Ang^3
#
#
#
# Elastic Constant Matrix: (Units=GPa)
#
#
# Indices 1 2 3 4 5 6 
#
# 1 185.8652 63.5083 65.2115 0.0000 0.0000 0.0000
# 2 63.5083 152.8888 40.7966 0.0000 0.0000 0.0000
# 3 65.2115 40.7966 98.9119 0.0000 0.0000 0.0000
# 4 0.0000 0.0000 0.0000 20.7903 0.0000 0.0000
# 5 0.0000 0.0000 0.0000 0.0000 39.9246 0.0000
# 6 0.0000 0.0000 0.0000 0.0000 0.0000 50.2400
#
#
#
# Elastic Compliance Matrix: (Units=1/GPa)
#
#
# Indices 1 2 3 4 5 6 
#
# 1 0.007518 -0.002023 -0.004122 0.000000 0.000000 0.000000
# 2 -0.002023 0.007894 -0.001922 0.000000 0.000000 0.000000
# 3 -0.004122 -0.001922 0.013620 0.000000 0.000000 0.000000
# 4 0.000000 0.000000 0.000000 0.048099 0.000000 0.000000
# 5 0.000000 0.000000 0.000000 0.000000 0.025047 0.000000
# 6 0.000000 0.000000 0.000000 0.000000 0.000000 0.019904
#
#
# Mechanical properties :
#
#
# Convention : Reuss Voigt Hill
#
# Bulk Modulus (GPa) = 77.53223 86.29985 81.91604
# Shear Modulus (GPa) = 35.08369 40.06761 37.57565
#
# Velocity S-wave (km/s) = 4.25715 4.54949 4.40574
# Velocity P-wave (km/s) = 8.01346 8.49573 8.25811
#
# Compressibility (1/GPa) = 0.01289786
#
# Stress axis : x y z
#
# Youngs Moduli (GPa) = 133.02059 126.68019 73.41927
#
# Poissons Ratio (x) = 0.25625 0.30263
# Poissons Ratio (y) = 0.26908 0.14113
# Poissons Ratio (z) = 0.54831 0.24351
#
# Static dielectric constant tensor:
#      x y z
#    x 1.641690 0.000000 0.000000 
#    y 0.000000 1.697770 0.000000 
#    z 0.000000 0.000000 1.712870 
# 
# From -- ./inp_files/30057.got.cif
#   From: 2010.05.17/outbox.ucp.g08.bks.cvg/sg73_16_cif.got.tgz:30057.got - 2010.06.11 16:36:03.
