data_PCOD9533238
_publ_section_title
;
Structure prediction by ZEFSAII (Michael W. Deem and Ramdas Pophale) SiO2 
 PCOD9533238
Probable space group: I B C A 
;
_chemical_formula_sum "Si O2"
_cell_formula_units_Z 64
_cell_length_a 18.859880
_cell_length_b 8.908586
_cell_length_c 19.173920
_cell_angle_alpha 90.000000
_cell_angle_beta 90.000000
_cell_angle_gamma 90.000000
_cell_volume 3221.503541
_symmetry_space_group_name_H-M "I B C A "
_symmetry_group_IT_number 73
_symmetry_cell_setting 'orthorhombic'
loop_
_space_group_symop_operation_xyz
x,y,z
-x,1/2-y,z
x,-y,1/2-z
1/2-x,y,-z
-x,-y,-z
x,1/2+y,-z
-x,y,1/2+z
1/2+x,-y,z
1/2+x,1/2+y,1/2+z
1/2-x,-y,1/2+z
1/2+x,1/2-y,-z
-x,1/2+y,1/2-z
1/2-x,1/2-y,1/2-z
1/2+x,y,1/2-z
1/2-x,1/2+y,z
x,1/2-y,1/2+z
loop_
_atom_site_type_symbol
_atom_site_label
_atom_site_fract_x
_atom_site_fract_y
_atom_site_fract_z
Si Si1 0.060662 0.872017 0.190986
Si Si2 0.814147 0.700331 0.925836
Si Si3 0.324501 0.326494 0.768539
Si Si4 0.660679 0.951902 0.437274
O O1 0.119548 0.769375 0.226817
O O2 0.099626 0.935472 0.121188
O O3 0.000000 0.750000 0.173591
O O4 0.041144 0.000000 0.250000
O O5 0.844557 0.681696 0.849326
O O6 0.732903 0.640875 0.920047
O O7 0.816633 0.875590 0.942805
O O8 0.855838 0.610240 0.985578
O O9 0.321114 0.500000 0.750000
O O10 0.250000 0.250000 0.750000
#
# Coordination Sequence:
#
# PCOD9533238 Si02
#       4
#    16  16  16  16
#     4  12  26  48  66  96 135 184 232 290 344 420
#     4  11  22  39  67 104 138 171 223 284 347 402
#     4  12  23  39  71 103 133 173 233 287 344 405
#     4  11  23  40  67 101 140 174 223 281 352 412
#
# _framework density 19.866499999999998
#
# number of rings (size 3 to 8) (size 9 to 14) (size 15 to 20)
#    0.000    0.500    5.000    6.000    3.500    0.000 
#    0.000    2.500    0.000    0.000    0.000    0.000 
#    0.000    0.000    0.000    0.000    0.000    0.000 
#
# Total GULP energy -178676.217880 kJ/mol
# GULP energy per Si atom -5583.631809 kJ/mol
# Density = 1.982128 g / cm^3
# Si number density = 19.866500 Si / 1000 Ang^3
#
#
#
# Elastic Constant Matrix: (Units=GPa)
#
#
# Indices 1 2 3 4 5 6 
#
# 1 49.7172 25.1641 18.6560 0.0000 0.0000 0.0000
# 2 25.1641 185.5545 51.0151 0.0000 0.0000 0.0000
# 3 18.6560 51.0151 145.6815 0.0000 0.0000 0.0000
# 4 0.0000 0.0000 0.0000 29.0105 0.0000 0.0000
# 5 0.0000 0.0000 0.0000 0.0000 24.6931 0.0000
# 6 0.0000 0.0000 0.0000 0.0000 0.0000 -36.0940
#
#
#
# Elastic Compliance Matrix: (Units=1/GPa)
#
#
# Indices 1 2 3 4 5 6 
#
# 1 0.022096 -0.002455 -0.001970 0.000000 0.000000 0.000000
# 2 -0.002455 0.006236 -0.001869 0.000000 0.000000 0.000000
# 3 -0.001970 -0.001869 0.007771 0.000000 0.000000 0.000000
# 4 0.000000 0.000000 0.000000 0.034470 0.000000 0.000000
# 5 0.000000 0.000000 0.000000 0.000000 0.040497 0.000000
# 6 0.000000 0.000000 0.000000 0.000000 0.000000 -0.027705
#
#
# Mechanical properties :
#
#
# Convention : Reuss Voigt Hill
#
# Bulk Modulus (GPa) = 42.52711 63.40263 52.96487
# Shear Modulus (GPa) = 48.17359 22.59646 35.38503
#
# Velocity S-wave (km/s) = 4.92963 3.37622 4.22493
# Velocity P-wave (km/s) = 7.33857 6.86892 7.10763
#
# Compressibility (1/GPa) = 0.02351441
#
# Stress axis : x y z
#
# Youngs Moduli (GPa) = 45.25808 160.35556 128.68046
#
# Poissons Ratio (x) = 0.39366 0.25349
# Poissons Ratio (y) = 0.11110 0.24056
# Poissons Ratio (z) = 0.08915 0.29977
#
# Static dielectric constant tensor:
#      x y z
#    x 1.648310 0.000000 0.000000 
#    y 0.000000 1.578690 0.000000 
#    z 0.000000 0.000000 1.718750 
# 
# From -- ./inp_files/5235.got.cif
#   From: 2010.05.17/outbox.cif.g08.bks.cpg/sg73_3_cif.got.tgz:5235.got - 2010.06.03 17:35:07.
