data_PCOD9533417
_publ_section_title
;
Structure prediction by ZEFSAII (Michael W. Deem and Ramdas Pophale) SiO2 
 PCOD9533417
Probable space group: I B C A 
;
_chemical_formula_sum "Si O2"
_cell_formula_units_Z 88
_cell_length_a 5.255227
_cell_length_b 27.435077
_cell_length_c 23.365523
_cell_angle_alpha 90.000000
_cell_angle_beta 90.000000
_cell_angle_gamma 90.000000
_cell_volume 3368.784033
_symmetry_space_group_name_H-M "I B C A "
_symmetry_group_IT_number 73
_symmetry_cell_setting 'orthorhombic'
loop_
_space_group_symop_operation_xyz
x,y,z
-x,1/2-y,z
x,-y,1/2-z
1/2-x,y,-z
-x,-y,-z
x,1/2+y,-z
-x,y,1/2+z
1/2+x,-y,z
1/2+x,1/2+y,1/2+z
1/2-x,-y,1/2+z
1/2+x,1/2-y,-z
-x,1/2+y,1/2-z
1/2-x,1/2-y,1/2-z
1/2+x,y,1/2-z
1/2-x,1/2+y,z
x,1/2-y,1/2+z
loop_
_atom_site_type_symbol
_atom_site_label
_atom_site_fract_x
_atom_site_fract_y
_atom_site_fract_z
Si Si1 0.707052 0.835551 0.841899
Si Si2 0.500000 0.750000 0.103490
Si Si3 0.750000 0.201511 0.000000
Si Si4 0.064237 0.385536 0.456784
Si Si5 0.840267 0.032066 0.893861
Si Si6 0.500000 0.750000 0.288748
Si Si7 0.605945 0.930248 0.778607
O O1 0.925126 0.796345 0.857829
O O2 0.693241 0.868589 0.897890
O O3 0.485520 0.797250 0.828640
O O4 0.676668 0.872946 0.788950
O O5 0.290192 0.766931 0.056734
O O6 0.525064 0.163438 0.011987
O O7 0.250000 0.412285 0.500000
O O8 0.848610 0.422392 0.436755
O O9 0.932961 0.054486 0.832816
O O10 0.069857 0.993488 0.901226
O O11 0.250000 0.750000 0.250000
O O12 0.401509 0.946815 0.729581
#
# Coordination Sequence:
#
# PCOD9533417 Si02
#       7
#    16   8   8  16  16   8  16
#     4  11  24  43  66 103 142 188 243 302 363 430
#     4  12  23  41  72 104 148 196 263 313 356 430
#     4  12  24  42  70 100 142 202 254 298 366 436
#     4  11  25  46  69 100 144 191 239 301 372 445
#     4  11  27  47  75 110 142 181 240 303 370 449
#     4  12  25  43  68  98 140 186 241 301 360 428
#     4  11  25  46  74 103 143 188 233 294 370 442
#
# _framework density 26.122184000000001
#
# number of rings (size 3 to 8) (size 9 to 14) (size 15 to 20)
#    0.000    0.727    1.818    4.909    2.545    7.273 
#    0.000    0.000    0.000    0.000    0.000    0.000 
#    0.000    0.000    0.000    0.000    0.000    0.000 
#
# Total GULP energy -245572.117974 kJ/mol
# GULP energy per Si atom -5581.184499 kJ/mol
# Density = 2.606273 g / cm^3
# Si number density = 26.122184 Si / 1000 Ang^3
#
#
#
# Elastic Constant Matrix: (Units=GPa)
#
#
# Indices 1 2 3 4 5 6 
#
# 1 114.1162 -8.5371 34.9917 0.0000 0.0000 0.0000
# 2 -8.5371 76.8707 0.0944 0.0000 0.0000 0.0000
# 3 34.9917 0.0944 75.8107 0.0000 0.0000 0.0000
# 4 0.0000 0.0000 0.0000 12.7737 0.0000 0.0000
# 5 0.0000 0.0000 0.0000 0.0000 41.5014 0.0000
# 6 0.0000 0.0000 0.0000 0.0000 0.0000 -565.1652
#
#
#
# Elastic Compliance Matrix: (Units=1/GPa)
#
#
# Indices 1 2 3 4 5 6 
#
# 1 0.010308 0.001151 -0.004759 0.000000 0.000000 0.000000
# 2 0.001151 0.013137 -0.000547 0.000000 0.000000 0.000000
# 3 -0.004759 -0.000547 0.015388 0.000000 0.000000 0.000000
# 4 0.000000 0.000000 0.000000 0.078286 0.000000 0.000000
# 5 0.000000 0.000000 0.000000 0.000000 0.024096 0.000000
# 6 0.000000 0.000000 0.000000 0.000000 0.000000 -0.001769
#
#
# Mechanical properties :
#
#
# Convention : Reuss Voigt Hill
#
# Bulk Modulus (GPa) = 32.76377 35.54394 34.15386
# Shear Modulus (GPa) = 31.65910 -86.16144 -27.25117
#
# Velocity S-wave (km/s) = 3.48510 -5.74940 -3.23339
# Velocity P-wave (km/s) = 5.36324 5.51705 0.91474
#
# Compressibility (1/GPa) = 0.03052151
#
# Stress axis : x y z
#
# Youngs Moduli (GPa) = 97.00741 76.11905 64.98468
#
# Poissons Ratio (x) = -0.08759 0.30929
# Poissons Ratio (y) = -0.11162 0.03558
# Poissons Ratio (z) = 0.46171 0.04167
#
# Static dielectric constant tensor:
#      x y z
#    x 2.069700 0.000000 0.000000 
#    y 0.000000 2.033380 0.000000 
#    z 0.000000 0.000000 2.100810 
# 
# From -- ./inp_files/28106.got.cif
#   From: 2010.05.17/outbox.cif.g08.bks.cpg/sg73_15_cif.got.tgz:28106.got - 2010.06.03 17:35:07.
