data_PCOD9533627
_publ_section_title
;
Structure prediction by ZEFSAII (Michael W. Deem and Ramdas Pophale) SiO2 
 PCOD9533627
Probable space group: I B C A 
;
_chemical_formula_sum "Si O2"
_cell_formula_units_Z 48
_cell_length_a 13.340394
_cell_length_b 5.124694
_cell_length_c 32.154015
_cell_angle_alpha 90.000000
_cell_angle_beta 90.000000
_cell_angle_gamma 90.000000
_cell_volume 2198.223290
_symmetry_space_group_name_H-M "I B C A "
_symmetry_group_IT_number 73
_symmetry_cell_setting 'orthorhombic'
loop_
_space_group_symop_operation_xyz
x,y,z
-x,1/2-y,z
x,-y,1/2-z
1/2-x,y,-z
-x,-y,-z
x,1/2+y,-z
-x,y,1/2+z
1/2+x,-y,z
1/2+x,1/2+y,1/2+z
1/2-x,-y,1/2+z
1/2+x,1/2-y,-z
-x,1/2+y,1/2-z
1/2-x,1/2-y,1/2-z
1/2+x,y,1/2-z
1/2-x,1/2+y,z
x,1/2-y,1/2+z
loop_
_atom_site_type_symbol
_atom_site_label
_atom_site_fract_x
_atom_site_fract_y
_atom_site_fract_z
Si Si1 0.690263 0.567049 0.918455
Si Si2 0.000000 0.250000 0.470323
Si Si3 0.430495 0.500784 0.162291
Si Si4 0.321485 0.500000 0.250000
O O1 0.721333 0.271194 0.929110
O O2 0.595005 0.690971 0.941269
O O3 0.660168 0.543762 0.869978
O O4 0.000000 0.500000 0.500000
O O5 0.500000 0.750000 0.151497
O O6 0.388493 0.519964 0.208784
O O7 0.500000 0.250000 0.159474
O O8 0.250000 0.750000 0.250000
#
# Coordination Sequence:
#
# PCOD9533627 Si02
#       4
#    16   8  16   8
#     4  12  26  46  74 106 142 189 236 291 360 433
#     4  12  28  48  74 106 144 182 236 304 362 436
#     4  12  24  43  70 100 143 190 241 291 356 422
#     4  12  24  42  64 102 142 186 244 296 348 422
#
# _framework density 21.835818
#
# number of rings (size 3 to 8) (size 9 to 14) (size 15 to 20)
#    0.000    0.000    1.667    9.000    2.333    4.000 
#    0.000    0.000    0.000    0.000    0.000    0.000 
#    0.000    0.000    0.000    0.000    0.000    0.000 
#
# Total GULP energy -134307.197687 kJ/mol
# GULP energy per Si atom -5596.133237 kJ/mol
# Density = 2.178612 g / cm^3
# Si number density = 21.835818 Si / 1000 Ang^3
#
#
#
# Elastic Constant Matrix: (Units=GPa)
#
#
# Indices 1 2 3 4 5 6 
#
# 1 59.8290 29.3554 11.7638 0.0000 0.0000 0.0000
# 2 29.3554 188.8586 13.1915 0.0000 0.0000 0.0000
# 3 11.7638 13.1915 94.6569 0.0000 0.0000 0.0000
# 4 0.0000 0.0000 0.0000 39.0296 0.0000 0.0000
# 5 0.0000 0.0000 0.0000 0.0000 -62.3309 0.0000
# 6 0.0000 0.0000 0.0000 0.0000 0.0000 43.7321
#
#
#
# Elastic Compliance Matrix: (Units=1/GPa)
#
#
# Indices 1 2 3 4 5 6 
#
# 1 0.018430 -0.002731 -0.001910 0.000000 0.000000 0.000000
# 2 -0.002731 0.005752 -0.000462 0.000000 0.000000 0.000000
# 3 -0.001910 -0.000462 0.010866 0.000000 0.000000 0.000000
# 4 0.000000 0.000000 0.000000 0.025622 0.000000 0.000000
# 5 0.000000 0.000000 0.000000 0.000000 -0.016043 0.000000
# 6 0.000000 0.000000 0.000000 0.000000 0.000000 0.022867
#
#
# Mechanical properties :
#
#
# Convention : Reuss Voigt Hill
#
# Bulk Modulus (GPa) = 40.25522 50.21845 45.23683
# Shear Modulus (GPa) = 58.15336 23.35507 40.75422
#
# Velocity S-wave (km/s) = 5.16623 3.27399 4.32486
# Velocity P-wave (km/s) = 7.35269 6.11065 6.76025
#
# Compressibility (1/GPa) = 0.02484150
#
# Stress axis : x y z
#
# Youngs Moduli (GPa) = 54.25958 173.85906 92.02828
#
# Poissons Ratio (x) = 0.47486 0.17576
# Poissons Ratio (y) = 0.14820 0.04253
# Poissons Ratio (z) = 0.10362 0.08035
#
# Static dielectric constant tensor:
#      x y z
#    x 1.802090 0.000000 0.000000 
#    y 0.000000 1.740540 0.000000 
#    z 0.000000 0.000000 1.559170 
# 
# From -- ./inp_files/589.got.cif
#   From: 2010.05.17/outbox.cif.g08.bks.cpg/sg73_1_cif.got.tgz:589.got - 2010.06.03 17:35:07.
