data_PCOD9533026
_publ_section_title
;
Structure prediction by ZEFSAII (Michael W. Deem and Ramdas Pophale) SiO2 
 PCOD9533026
Probable space group: I B C A 
;
_chemical_formula_sum "Si O2"
_cell_formula_units_Z 88
_cell_length_a 8.151636
_cell_length_b 27.937154
_cell_length_c 16.475588
_cell_angle_alpha 90.000000
_cell_angle_beta 90.000000
_cell_angle_gamma 90.000000
_cell_volume 3752.043489
_symmetry_space_group_name_H-M "I B C A "
_symmetry_group_IT_number 73
_symmetry_cell_setting 'orthorhombic'
loop_
_space_group_symop_operation_xyz
x,y,z
-x,1/2-y,z
x,-y,1/2-z
1/2-x,y,-z
-x,-y,-z
x,1/2+y,-z
-x,y,1/2+z
1/2+x,-y,z
1/2+x,1/2+y,1/2+z
1/2-x,-y,1/2+z
1/2+x,1/2-y,-z
-x,1/2+y,1/2-z
1/2-x,1/2-y,1/2-z
1/2+x,y,1/2-z
1/2-x,1/2+y,z
x,1/2-y,1/2+z
loop_
_atom_site_type_symbol
_atom_site_label
_atom_site_fract_x
_atom_site_fract_y
_atom_site_fract_z
Si Si1 0.750000 0.570352 0.000000
Si Si2 0.774203 0.935800 0.203214
Si Si3 0.601624 0.701791 0.672436
Si Si4 0.070211 0.833303 0.669524
Si Si5 0.394438 0.517057 0.354113
Si Si6 0.442654 0.636665 0.012794
O O1 0.841002 0.535422 0.060815
O O2 0.597535 0.602543 0.030446
O O3 0.826816 0.881634 0.191493
O O4 0.721363 0.952329 0.292352
O O5 0.926790 0.965927 0.169983
O O6 0.625020 0.960024 0.153938
O O7 0.500000 0.750000 0.668334
O O8 0.797166 0.709170 0.671656
O O9 0.554032 0.675283 0.756911
O O10 0.566786 0.671796 0.590126
O O11 0.013595 0.840861 0.576608
O O12 0.250000 0.618936 0.000000
#
# Coordination Sequence:
#
# PCOD9533026 Si02
#       6
#     8  16  16  16  16  16
#     4  12  24  48  68 106 136 196 240 284 360 414
#     4  11  22  42  63 101 137 183 234 288 347 411
#     4  11  25  45  71 106 134 179 236 295 364 439
#     4  11  23  45  72 101 139 185 227 297 361 423
#     4  11  24  40  69  99 139 189 236 292 340 424
#     4  10  25  46  70 102 147 186 234 298 357 425
#
# _framework density 23.453885
#
# number of rings (size 3 to 8) (size 9 to 14) (size 15 to 20)
#    0.000    1.091    1.818    4.909    2.545    5.818 
#    9.818    0.000    0.000    0.000    0.000    0.000 
#    0.000    0.000    0.000    0.000    0.000    0.000 
#
# Total GULP energy -245687.393302 kJ/mol
# GULP energy per Si atom -5583.804393 kJ/mol
# Density = 2.340050 g / cm^3
# Si number density = 23.453885 Si / 1000 Ang^3
#
#
#
# Elastic Constant Matrix: (Units=GPa)
#
#
# Indices 1 2 3 4 5 6 
#
# 1 76.6755 3.7070 1.7845 -0.0001 0.0001 0.0000
# 2 3.7070 27.8350 -3.0254 -0.0001 0.0000 0.0000
# 3 1.7845 -3.0254 100.2735 -0.0005 0.0003 0.0001
# 4 -0.0001 -0.0001 -0.0005 33.1051 0.0001 0.0000
# 5 0.0001 0.0000 0.0003 0.0001 41.3706 0.0000
# 6 0.0000 0.0000 0.0001 0.0000 0.0000 28.4452
#
#
#
# Elastic Compliance Matrix: (Units=1/GPa)
#
#
# Indices 1 2 3 4 5 6 
#
# 1 0.013135 -0.001780 -0.000287 0.000000 0.000000 0.000000
# 2 -0.001780 0.036286 0.001126 0.000000 0.000000 0.000000
# 3 -0.000287 0.001126 0.010012 0.000000 0.000000 0.000000
# 4 0.000000 0.000000 0.000000 0.030207 0.000000 0.000000
# 5 0.000000 0.000000 0.000000 0.000000 0.024172 0.000000
# 6 0.000000 0.000000 0.000000 0.000000 0.000000 0.035155
#
#
# Mechanical properties :
#
#
# Convention : Reuss Voigt Hill
#
# Bulk Modulus (GPa) = 17.37645 23.30180 20.33913
# Shear Modulus (GPa) = 29.40622 34.07204 31.73913
#
# Velocity S-wave (km/s) = 3.54473 3.81560 3.68265
# Velocity P-wave (km/s) = 4.91715 5.41927 5.17430
#
# Compressibility (1/GPa) = 0.05754914
#
# Stress axis : x y z
#
# Youngs Moduli (GPa) = 76.13397 27.55920 99.88184
#
# Poissons Ratio (x) = 0.04907 0.02871
# Poissons Ratio (y) = 0.13556 -0.11252
# Poissons Ratio (z) = 0.02189 -0.03105
#
# Static dielectric constant tensor:
#      x y z
#    x 2.223860 0.000000 0.000000 
#    y 0.000000 1.873920 0.000000 
#    z 0.000000 0.000000 1.884850 
# 
# From -- ./inp_files/20839.got.cif
#   From: 2010.05.17/outbox.cif.g08.bks.cpg/sg73_11_cif.got.tgz:20839.got - 2010.06.03 17:35:07.
