data_PCOD9533091
_publ_section_title
;
Structure prediction by ZEFSAII (Michael W. Deem and Ramdas Pophale) SiO2 
 PCOD9533091
Probable space group: I B C A 
;
_chemical_formula_sum "Si O2"
_cell_formula_units_Z 40
_cell_length_a 13.540966
_cell_length_b 9.378351
_cell_length_c 11.695299
_cell_angle_alpha 90.000000
_cell_angle_beta 90.000000
_cell_angle_gamma 90.000000
_cell_volume 1485.208616
_symmetry_space_group_name_H-M "I B C A "
_symmetry_group_IT_number 73
_symmetry_cell_setting 'orthorhombic'
loop_
_space_group_symop_operation_xyz
x,y,z
-x,1/2-y,z
x,-y,1/2-z
1/2-x,y,-z
-x,-y,-z
x,1/2+y,-z
-x,y,1/2+z
1/2+x,-y,z
1/2+x,1/2+y,1/2+z
1/2-x,-y,1/2+z
1/2+x,1/2-y,-z
-x,1/2+y,1/2-z
1/2-x,1/2-y,1/2-z
1/2+x,y,1/2-z
1/2-x,1/2+y,z
x,1/2-y,1/2+z
loop_
_atom_site_type_symbol
_atom_site_label
_atom_site_fract_x
_atom_site_fract_y
_atom_site_fract_z
Si Si1 0.591633 0.332748 0.036615
Si Si2 0.611118 0.500000 0.250000
Si Si3 0.191541 0.058678 0.367573
O O1 0.500000 0.250000 0.979182
O O2 0.554094 0.412632 0.152800
O O3 0.660365 0.210860 0.087434
O O4 0.651364 0.441128 0.957208
O O5 0.692814 0.420843 0.330905
O O6 0.147791 0.000000 0.250000
#
# Coordination Sequence:
#
# PCOD9533091 Si02
#       3
#    16   8  16
#     4  12  26  47  78 113 154 202 265 332 396 459
#     4  10  26  46  78 106 158 204 262 318 396 478
#     4  10  27  47  74 110 159 208 262 315 399 485
#
# _framework density 26.932245000000002
#
# number of rings (size 3 to 8) (size 9 to 14) (size 15 to 20)
#    1.200    0.000    0.000    3.600    8.400    4.800 
#    0.000    0.000    0.000    0.000    0.000    0.000 
#    0.000    0.000    0.000    0.000    0.000    0.000 
#
# Total GULP energy -111732.989098 kJ/mol
# GULP energy per Si atom -5586.649455 kJ/mol
# Density = 2.687095 g / cm^3
# Si number density = 26.932245 Si / 1000 Ang^3
#
#
#
# Elastic Constant Matrix: (Units=GPa)
#
#
# Indices 1 2 3 4 5 6 
#
# 1 64.1241 -2.5028 9.4989 0.0000 0.0000 0.0000
# 2 -2.5028 114.3938 72.5536 0.0000 0.0000 0.0000
# 3 9.4989 72.5536 200.8991 0.0000 0.0000 0.0000
# 4 0.0000 0.0000 0.0000 24.3725 0.0000 0.0000
# 5 0.0000 0.0000 0.0000 0.0000 31.8603 0.0000
# 6 0.0000 0.0000 0.0000 0.0000 0.0000 22.9056
#
#
#
# Elastic Compliance Matrix: (Units=1/GPa)
#
#
# Indices 1 2 3 4 5 6 
#
# 1 0.015804 0.001063 -0.001131 0.000000 0.000000 0.000000
# 2 0.001063 0.011411 -0.004171 0.000000 0.000000 0.000000
# 3 -0.001131 -0.004171 0.006537 0.000000 0.000000 0.000000
# 4 0.000000 0.000000 0.000000 0.041030 0.000000 0.000000
# 5 0.000000 0.000000 0.000000 0.000000 0.031387 0.000000
# 6 0.000000 0.000000 0.000000 0.000000 0.000000 0.043658
#
#
# Mechanical properties :
#
#
# Convention : Reuss Voigt Hill
#
# Bulk Modulus (GPa) = 39.56696 59.83516 49.70106
# Shear Modulus (GPa) = 29.98880 35.81882 32.90381
#
# Velocity S-wave (km/s) = 3.34052 3.65082 3.49911
# Velocity P-wave (km/s) = 5.44077 6.32744 5.90078
#
# Compressibility (1/GPa) = 0.02527362
#
# Stress axis : x y z
#
# Youngs Moduli (GPa) = 63.27583 87.63855 152.96399
#
# Poissons Ratio (x) = -0.09318 0.17304
# Poissons Ratio (y) = -0.06728 0.63803
# Poissons Ratio (z) = 0.07158 0.36555
#
# Static dielectric constant tensor:
#      x y z
#    x 2.214890 0.000000 0.000000 
#    y 0.000000 2.044980 0.000000 
#    z 0.000000 0.000000 2.122820 
# 
# From -- ./inp_files/3651.got.cif
#   From: 2010.05.17/outbox.cif.g08.bks.cpg/sg73_2_cif.got.tgz:3651.got - 2010.06.03 17:35:07.
