data_PCOD9533723
_publ_section_title
;
Structure prediction by ZEFSAII (Michael W. Deem and Ramdas Pophale) SiO2 
 PCOD9533723
Probable space group: I B C A 
;
_chemical_formula_sum "Si O2"
_cell_formula_units_Z 48
_cell_length_a 7.186192
_cell_length_b 13.330074
_cell_length_c 18.324295
_cell_angle_alpha 90.000000
_cell_angle_beta 90.000000
_cell_angle_gamma 90.000000
_cell_volume 1755.329500
_symmetry_space_group_name_H-M "I B C A "
_symmetry_group_IT_number 73
_symmetry_cell_setting 'orthorhombic'
loop_
_space_group_symop_operation_xyz
x,y,z
-x,1/2-y,z
x,-y,1/2-z
1/2-x,y,-z
-x,-y,-z
x,1/2+y,-z
-x,y,1/2+z
1/2+x,-y,z
1/2+x,1/2+y,1/2+z
1/2-x,-y,1/2+z
1/2+x,1/2-y,-z
-x,1/2+y,1/2-z
1/2-x,1/2-y,1/2-z
1/2+x,y,1/2-z
1/2-x,1/2+y,z
x,1/2-y,1/2+z
loop_
_atom_site_type_symbol
_atom_site_label
_atom_site_fract_x
_atom_site_fract_y
_atom_site_fract_z
Si Si1 0.647661 0.603819 0.880503
Si Si2 0.250000 0.738278 0.500000
Si Si3 0.000000 0.250000 0.266935
Si Si4 0.588873 0.131260 0.367495
O O1 0.506911 0.657081 0.824854
O O2 0.639015 0.484753 0.875104
O O3 0.863852 0.627388 0.865083
O O4 0.615524 0.657873 0.958233
O O5 0.329016 0.808761 0.563964
O O6 0.133890 0.191839 0.207032
#
# Coordination Sequence:
#
# PCOD9533723 Si02
#       4
#    16   8   8  16
#     4  12  30  51  85 123 165 225 280 354 421 510
#     4  12  28  54  84 120 176 224 282 356 420 510
#     4  12  28  54  84 116 172 222 282 350 422 506
#     4  12  29  53  83 125 166 222 288 345 430 502
#
# _framework density 27.345291
#
# number of rings (size 3 to 8) (size 9 to 14) (size 15 to 20)
#    0.000    0.000    3.333    3.000    9.333    5.333 
#    0.000    0.000    0.000    0.000    0.000    0.000 
#    0.000    0.000    0.000    0.000    0.000    0.000 
#
# Total GULP energy -134057.195152 kJ/mol
# GULP energy per Si atom -5585.716465 kJ/mol
# Density = 2.728305 g / cm^3
# Si number density = 27.345291 Si / 1000 Ang^3
#
#
#
# Elastic Constant Matrix: (Units=GPa)
#
#
# Indices 1 2 3 4 5 6 
#
# 1 122.6644 44.0304 53.3672 0.0000 0.0000 0.0000
# 2 44.0304 369.1765 147.0241 0.0000 0.0000 0.0000
# 3 53.3672 147.0241 270.1960 0.0000 0.0000 0.0000
# 4 0.0000 0.0000 0.0000 22.8552 0.0000 0.0000
# 5 0.0000 0.0000 0.0000 0.0000 -139.0385 0.0000
# 6 0.0000 0.0000 0.0000 0.0000 0.0000 64.0317
#
#
#
# Elastic Compliance Matrix: (Units=1/GPa)
#
#
# Indices 1 2 3 4 5 6 
#
# 1 0.008981 -0.000466 -0.001521 0.000000 0.000000 0.000000
# 2 -0.000466 0.003482 -0.001803 0.000000 0.000000 0.000000
# 3 -0.001521 -0.001803 0.004982 0.000000 0.000000 0.000000
# 4 0.000000 0.000000 0.000000 0.043754 0.000000 0.000000
# 5 0.000000 0.000000 0.000000 0.000000 -0.007192 0.000000
# 6 0.000000 0.000000 0.000000 0.000000 0.000000 0.015617
#
#
# Mechanical properties :
#
#
# Convention : Reuss Voigt Hill
#
# Bulk Modulus (GPa) = 101.34141 138.98670 120.16405
# Shear Modulus (GPa) = 62.11836 24.07736 43.09786
#
# Velocity S-wave (km/s) = 4.77133 2.97053 3.97427
# Velocity P-wave (km/s) = 8.21550 7.91848 8.06836
#
# Compressibility (1/GPa) = 0.00986763
#
# Stress axis : x y z
#
# Youngs Moduli (GPa) = 111.34652 287.17068 200.70860
#
# Poissons Ratio (x) = 0.13370 0.30518
# Poissons Ratio (y) = 0.05184 0.36185
# Poissons Ratio (z) = 0.16930 0.51773
#
# Static dielectric constant tensor:
#      x y z
#    x 3.287220 0.000000 0.000000 
#    y 0.000000 2.038270 0.000000 
#    z 0.000000 0.000000 2.158300 
# 
# From -- ./inp_files/5047.got.cif
#   From: 2010.05.17/outbox.cif.g08.bks.cpg/sg73_3_cif.got.tgz:5047.got - 2010.06.03 17:35:07.
