data_PCOD9533674
_publ_section_title
;
Structure prediction by ZEFSAII (Michael W. Deem and Ramdas Pophale) SiO2 
 PCOD9533674
Probable space group: I B C A 
;
_chemical_formula_sum "Si O2"
_cell_formula_units_Z 112
_cell_length_a 13.792347
_cell_length_b 14.565734
_cell_length_c 23.239076
_cell_angle_alpha 90.000000
_cell_angle_beta 90.000000
_cell_angle_gamma 90.000000
_cell_volume 4668.629456
_symmetry_space_group_name_H-M "I B C A "
_symmetry_group_IT_number 73
_symmetry_cell_setting 'orthorhombic'
loop_
_space_group_symop_operation_xyz
x,y,z
-x,1/2-y,z
x,-y,1/2-z
1/2-x,y,-z
-x,-y,-z
x,1/2+y,-z
-x,y,1/2+z
1/2+x,-y,z
1/2+x,1/2+y,1/2+z
1/2-x,-y,1/2+z
1/2+x,1/2-y,-z
-x,1/2+y,1/2-z
1/2-x,1/2-y,1/2-z
1/2+x,y,1/2-z
1/2-x,1/2+y,z
x,1/2-y,1/2+z
loop_
_atom_site_type_symbol
_atom_site_label
_atom_site_fract_x
_atom_site_fract_y
_atom_site_fract_z
Si Si1 0.634888 0.951682 0.131527
Si Si2 0.288044 0.000000 0.750000
Si Si3 0.678937 0.821522 0.714293
Si Si4 0.716479 0.676918 0.441385
Si Si5 0.111912 0.341245 0.882644
Si Si6 0.016286 0.106515 0.987063
Si Si7 0.000000 0.750000 0.717919
Si Si8 0.947429 0.157200 0.109202
O O1 0.654316 0.949635 0.199284
O O2 0.703225 0.883631 0.093462
O O3 0.521607 0.925620 0.124538
O O4 0.657144 0.057061 0.115302
O O5 0.221972 0.079462 0.725250
O O6 0.750000 0.750000 0.750000
O O7 0.576208 0.805265 0.744372
O O8 0.650817 0.830341 0.645753
O O9 0.750000 0.727639 0.500000
O O10 0.673772 0.751841 0.398133
O O11 0.630245 0.617159 0.471036
O O12 0.060273 0.319916 0.822354
O O13 0.031453 0.351526 0.931054
O O14 0.957840 0.154156 0.039969
O O15 0.000000 0.000000 0.000000
O O16 0.000000 0.250000 0.126385
#
# Coordination Sequence:
#
# PCOD9533674 Si02
#       8
#    16   8  16  16  16  16   8  16
#     4  12  29  48  77 121 154 213 271 335 405 505
#     4  12  30  48  78 110 160 204 276 320 412 474
#     4  12  29  54  79 120 153 216 271 337 406 498
#     4  12  25  50  75 116 163 205 273 333 410 498
#     4  12  26  49  78 111 161 208 256 335 411 485
#     4  12  25  48  76 116 159 210 272 329 420 496
#     4  12  26  52  82 110 166 204 272 338 406 492
#     4  12  26  48  80 110 163 207 264 333 408 484
#
# _framework density 23.989909000000001
#
# number of rings (size 3 to 8) (size 9 to 14) (size 15 to 20)
#    0.000    0.000    5.000    3.429    6.000    2.857 
#    0.000    0.000    0.000    0.000    0.000    0.000 
#    0.000    0.000    0.000    0.000    0.000    0.000 
#
# Total GULP energy -312508.806711 kJ/mol
# GULP energy per Si atom -5580.514406 kJ/mol
# Density = 2.393531 g / cm^3
# Si number density = 23.989909 Si / 1000 Ang^3
#
#
#
# Elastic Constant Matrix: (Units=GPa)
#
#
# Indices 1 2 3 4 5 6 
#
# 1 91.6912 24.2748 41.9634 0.0000 0.0000 0.0000
# 2 24.2748 114.6523 -3.5154 0.0000 0.0000 0.0000
# 3 41.9634 -3.5154 134.1187 0.0000 0.0000 0.0000
# 4 0.0000 0.0000 0.0000 13.2715 0.0000 0.0000
# 5 0.0000 0.0000 0.0000 0.0000 -17.5775 0.0000
# 6 0.0000 0.0000 0.0000 0.0000 0.0000 45.4132
#
#
#
# Elastic Compliance Matrix: (Units=1/GPa)
#
#
# Indices 1 2 3 4 5 6 
#
# 1 0.013710 -0.003037 -0.004369 0.000000 0.000000 0.000000
# 2 -0.003037 0.009402 0.001197 0.000000 0.000000 0.000000
# 3 -0.004369 0.001197 0.008854 0.000000 0.000000 0.000000
# 4 0.000000 0.000000 0.000000 0.075349 0.000000 0.000000
# 5 0.000000 0.000000 0.000000 0.000000 -0.056891 0.000000
# 6 0.000000 0.000000 0.000000 0.000000 0.000000 0.022020
#
#
# Mechanical properties :
#
#
# Convention : Reuss Voigt Hill
#
# Bulk Modulus (GPa) = 51.15783 51.76753 51.46268
# Shear Modulus (GPa) = 54.71760 26.73741 40.72750
#
# Velocity S-wave (km/s) = 4.78102 3.34208 4.12478
# Velocity P-wave (km/s) = 7.20059 6.04304 6.64706
#
# Compressibility (1/GPa) = 0.01954735
#
# Stress axis : x y z
#
# Youngs Moduli (GPa) = 72.94117 106.36431 112.93744
#
# Poissons Ratio (x) = 0.32299 0.49344
# Poissons Ratio (y) = 0.22150 -0.13513
# Poissons Ratio (z) = 0.31869 -0.12727
#
# Static dielectric constant tensor:
#      x y z
#    x 2.184740 0.000000 0.000000 
#    y 0.000000 1.921460 0.000000 
#    z 0.000000 0.000000 2.008150 
# 
# From -- ./inp_files/29593.got.cif
#   From: 2010.05.17/outbox.cif.g08.bks.cpg/sg73_15_cif.got.tgz:29593.got - 2010.06.03 17:35:07.
