data_PCOD9533350
_publ_section_title
;
Structure prediction by ZEFSAII (Michael W. Deem and Ramdas Pophale) SiO2 
 PCOD9533350
Probable space group: I B C A 
;
_chemical_formula_sum "Si O2"
_cell_formula_units_Z 104
_cell_length_a 20.931056
_cell_length_b 28.249842
_cell_length_c 7.763555
_cell_angle_alpha 90.000000
_cell_angle_beta 90.000000
_cell_angle_gamma 90.000000
_cell_volume 4590.582501
_symmetry_space_group_name_H-M "I B C A "
_symmetry_group_IT_number 73
_symmetry_cell_setting 'orthorhombic'
loop_
_space_group_symop_operation_xyz
x,y,z
-x,1/2-y,z
x,-y,1/2-z
1/2-x,y,-z
-x,-y,-z
x,1/2+y,-z
-x,y,1/2+z
1/2+x,-y,z
1/2+x,1/2+y,1/2+z
1/2-x,-y,1/2+z
1/2+x,1/2-y,-z
-x,1/2+y,1/2-z
1/2-x,1/2-y,1/2-z
1/2+x,y,1/2-z
1/2-x,1/2+y,z
x,1/2-y,1/2+z
loop_
_atom_site_type_symbol
_atom_site_label
_atom_site_fract_x
_atom_site_fract_y
_atom_site_fract_z
Si Si1 0.065806 0.477397 0.435317
Si Si2 0.839588 0.000000 0.750000
Si Si3 0.052853 0.135079 0.903732
Si Si4 0.412815 0.659938 0.515985
Si Si5 0.816216 0.735997 0.084427
Si Si6 0.799129 0.898017 0.654390
Si Si7 0.827619 0.674810 0.417324
O O1 0.083298 0.500000 0.250000
O O2 0.117389 0.487604 0.583429
O O3 0.053509 0.421564 0.418797
O O4 0.000000 0.500000 0.500000
O O5 0.801108 0.047105 0.797352
O O6 0.102150 0.155100 0.044514
O O7 0.982677 0.156269 0.932159
O O8 0.078244 0.147147 0.714637
O O9 0.377795 0.710554 0.499640
O O10 0.366254 0.622209 0.420635
O O11 0.812630 0.792953 0.083022
O O12 0.750000 0.718416 0.000000
O O13 0.822651 0.716043 0.275803
O O14 0.750000 0.890138 0.500000
O O15 0.788469 0.867645 0.828946
#
# Coordination Sequence:
#
# PCOD9533350 Si02
#       7
#    16   8  16  16  16  16  16
#     4  12  24  40  72 109 148 196 249 302 370 452
#     4  12  24  48  72 104 156 196 252 312 372 450
#     4  12  24  43  69 108 142 187 239 304 380 442
#     4  11  24  43  70 104 146 184 242 305 371 447
#     4  11  24  44  71 103 140 190 240 295 360 447
#     4  11  25  49  72 102 149 199 250 311 375 444
#     4  11  23  43  70 103 142 183 242 303 371 442
#
# _framework density 22.655078
#
# number of rings (size 3 to 8) (size 9 to 14) (size 15 to 20)
#    0.000    0.615    2.308    7.846    0.000    1.846 
#    4.154    5.385    0.000    0.000    0.000    0.000 
#    0.000    0.000    0.000    0.000    0.000    0.000 
#
# Total GULP energy -290860.210162 kJ/mol
# GULP energy per Si atom -5593.465580 kJ/mol
# Density = 2.260351 g / cm^3
# Si number density = 22.655078 Si / 1000 Ang^3
#
#
#
# Elastic Constant Matrix: (Units=GPa)
#
#
# Indices 1 2 3 4 5 6 
#
# 1 101.2332 75.3703 55.2785 0.0000 0.0000 0.0000
# 2 75.3703 150.4155 36.6064 0.0000 0.0000 0.0000
# 3 55.2785 36.6064 130.2255 0.0000 0.0000 0.0000
# 4 0.0000 0.0000 0.0000 50.2829 0.0000 0.0000
# 5 0.0000 0.0000 0.0000 0.0000 47.5609 0.0000
# 6 0.0000 0.0000 0.0000 0.0000 0.0000 34.8296
#
#
#
# Elastic Compliance Matrix: (Units=1/GPa)
#
#
# Indices 1 2 3 4 5 6 
#
# 1 0.019149 -0.008176 -0.005830 0.000000 0.000000 0.000000
# 2 -0.008176 0.010628 0.000483 0.000000 0.000000 0.000000
# 3 -0.005830 0.000483 0.010018 0.000000 0.000000 0.000000
# 4 0.000000 0.000000 0.000000 0.019887 0.000000 0.000000
# 5 0.000000 0.000000 0.000000 0.000000 0.021026 0.000000
# 6 0.000000 0.000000 0.000000 0.000000 0.000000 0.028711
#
#
# Mechanical properties :
#
#
# Convention : Reuss Voigt Hill
#
# Bulk Modulus (GPa) = 78.44158 79.59828 79.01993
# Shear Modulus (GPa) = 35.53273 40.84261 38.18767
#
# Velocity S-wave (km/s) = 3.96463 4.25055 4.11007
# Velocity P-wave (km/s) = 7.46037 7.70069 7.58148
#
# Compressibility (1/GPa) = 0.01274834
#
# Stress axis : x y z
#
# Youngs Moduli (GPa) = 52.22120 94.09371 99.82117
#
# Poissons Ratio (x) = 0.76936 0.58197
# Poissons Ratio (y) = 0.42699 -0.04825
# Poissons Ratio (z) = 0.30446 -0.04548
#
# Static dielectric constant tensor:
#      x y z
#    x 1.868960 0.000000 0.000000 
#    y 0.000000 1.855110 0.000000 
#    z 0.000000 0.000000 1.996360 
# 
# From -- ./inp_files/6675.got.cif
#   From: 2010.05.17/outbox.cif.g08.bks.cpg/sg73_4_cif.got.tgz:6675.got - 2010.06.03 17:35:07.
