data_PCOD9533402
_publ_section_title
;
Structure prediction by ZEFSAII (Michael W. Deem and Ramdas Pophale) SiO2 
 PCOD9533402
Probable space group: I B C A 
;
_chemical_formula_sum "Si O2"
_cell_formula_units_Z 80
_cell_length_a 15.705161
_cell_length_b 8.378310
_cell_length_c 29.195750
_cell_angle_alpha 90.000000
_cell_angle_beta 90.000000
_cell_angle_gamma 90.000000
_cell_volume 3841.655831
_symmetry_space_group_name_H-M "I B C A "
_symmetry_group_IT_number 73
_symmetry_cell_setting 'orthorhombic'
loop_
_space_group_symop_operation_xyz
x,y,z
-x,1/2-y,z
x,-y,1/2-z
1/2-x,y,-z
-x,-y,-z
x,1/2+y,-z
-x,y,1/2+z
1/2+x,-y,z
1/2+x,1/2+y,1/2+z
1/2-x,-y,1/2+z
1/2+x,1/2-y,-z
-x,1/2+y,1/2-z
1/2-x,1/2-y,1/2-z
1/2+x,y,1/2-z
1/2-x,1/2+y,z
x,1/2-y,1/2+z
loop_
_atom_site_type_symbol
_atom_site_label
_atom_site_fract_x
_atom_site_fract_y
_atom_site_fract_z
Si Si1 0.333027 0.587911 0.149007
Si Si2 0.827867 0.744737 0.186880
Si Si3 0.500000 0.750000 0.186368
Si Si4 0.098692 0.500000 0.250000
Si Si5 0.000000 0.250000 0.505428
Si Si6 0.000000 0.250000 0.367851
Si Si7 0.579012 0.472060 0.564623
O O1 0.251757 0.697480 0.157071
O O2 0.325145 0.446730 0.186862
O O3 0.419552 0.685609 0.157879
O O4 0.341616 0.511355 0.097936
O O5 0.840198 0.859232 0.230368
O O6 0.916887 0.773959 0.161470
O O7 0.536861 0.601621 0.216335
O O8 0.927363 0.332347 0.473509
O O9 0.046204 0.376424 0.537521
O O10 0.011145 0.094584 0.398848
#
# Coordination Sequence:
#
# PCOD9533402 Si02
#       7
#    16  16   8   8   8   8  16
#     4  11  24  41  62  90 123 168 208 249 309 380
#     4  11  24  40  62  90 124 166 211 258 310 358
#     4  12  24  40  64  90 122 164 206 254 318 362
#     4  12  24  40  62  90 124 160 210 266 304 362
#     4   9  17  32  61  93 116 152 190 245 305 350
#     4   9  19  40  61  85 122 166 206 251 303 368
#     4   9  18  34  60  88 119 152 197 242 296 364
#
# _framework density 20.824354
#
# number of rings (size 3 to 8) (size 9 to 14) (size 15 to 20)
#    0.000    1.600    0.000    6.000    0.000    5.600 
#    0.000    0.000    0.000   40.800    0.000    0.000 
#    0.000    0.000    0.000    0.000    0.000    0.000 
#
# Total GULP energy -222974.858041 kJ/mol
# GULP energy per Si atom -5574.371451 kJ/mol
# Density = 2.077696 g / cm^3
# Si number density = 20.824354 Si / 1000 Ang^3
#
#
#
# Elastic Constant Matrix: (Units=GPa)
#
#
# Indices 1 2 3 4 5 6 
#
# 1 121.0765 30.9542 21.9148 0.0000 0.0000 0.0000
# 2 30.9542 101.8962 20.7796 0.0000 0.0000 0.0000
# 3 21.9148 20.7796 54.8923 0.0000 0.0000 0.0000
# 4 0.0000 0.0000 0.0000 28.4659 0.0000 0.0000
# 5 0.0000 0.0000 0.0000 0.0000 -126.2172 0.0000
# 6 0.0000 0.0000 0.0000 0.0000 0.0000 38.5644
#
#
#
# Elastic Compliance Matrix: (Units=1/GPa)
#
#
# Indices 1 2 3 4 5 6 
#
# 1 0.009357 -0.002255 -0.002882 0.000000 0.000000 0.000000
# 2 -0.002255 0.011178 -0.003331 0.000000 0.000000 0.000000
# 3 -0.002882 -0.003331 0.020629 0.000000 0.000000 0.000000
# 4 0.000000 0.000000 0.000000 0.035130 0.000000 0.000000
# 5 0.000000 0.000000 0.000000 0.000000 -0.007923 0.000000
# 6 0.000000 0.000000 0.000000 0.000000 0.000000 0.025931
#
#
# Mechanical properties :
#
#
# Convention : Reuss Voigt Hill
#
# Bulk Modulus (GPa) = 41.27439 47.24027 44.25733
# Shear Modulus (GPa) = 41.90582 1.77706 21.84144
#
# Velocity S-wave (km/s) = 4.49079 0.92478 3.24210
# Velocity P-wave (km/s) = 6.83760 4.88617 5.94254
#
# Compressibility (1/GPa) = 0.02422810
#
# Stress axis : x y z
#
# Youngs Moduli (GPa) = 106.86750 89.45950 48.47491
#
# Poissons Ratio (x) = 0.20172 0.13971
# Poissons Ratio (y) = 0.24097 0.16149
# Poissons Ratio (z) = 0.30801 0.29802
#
# Static dielectric constant tensor:
#      x y z
#    x 1.728250 0.000000 0.000000 
#    y 0.000000 1.818310 0.000000 
#    z 0.000000 0.000000 1.821730 
# 
# From -- ./inp_files/5707.got.cif
#   From: 2010.05.17/outbox.cif.g08.bks.cpg/sg73_3_cif.got.tgz:5707.got - 2010.06.03 17:35:07.
