data_PCOD9533260
_publ_section_title
;
Structure prediction by ZEFSAII (Michael W. Deem and Ramdas Pophale) SiO2 
 PCOD9533260
Probable space group: I B C A 
;
_chemical_formula_sum "Si O2"
_cell_formula_units_Z 96
_cell_length_a 8.623293
_cell_length_b 21.463086
_cell_length_c 24.625380
_cell_angle_alpha 90.000000
_cell_angle_beta 90.000000
_cell_angle_gamma 90.000000
_cell_volume 4557.726383
_symmetry_space_group_name_H-M "I B C A "
_symmetry_group_IT_number 73
_symmetry_cell_setting 'orthorhombic'
loop_
_space_group_symop_operation_xyz
x,y,z
-x,1/2-y,z
x,-y,1/2-z
1/2-x,y,-z
-x,-y,-z
x,1/2+y,-z
-x,y,1/2+z
1/2+x,-y,z
1/2+x,1/2+y,1/2+z
1/2-x,-y,1/2+z
1/2+x,1/2-y,-z
-x,1/2+y,1/2-z
1/2-x,1/2-y,1/2-z
1/2+x,y,1/2-z
1/2-x,1/2+y,z
x,1/2-y,1/2+z
loop_
_atom_site_type_symbol
_atom_site_label
_atom_site_fract_x
_atom_site_fract_y
_atom_site_fract_z
Si Si1 0.980479 0.677197 0.845501
Si Si2 0.817480 0.412157 0.590614
Si Si3 0.000000 0.250000 0.932443
Si Si4 0.011469 0.527324 0.062640
Si Si5 0.616238 0.701743 0.272316
Si Si6 0.250000 0.173769 0.500000
Si Si7 0.191442 0.862193 0.620606
O O1 0.826741 0.640562 0.863689
O O2 0.971613 0.675226 0.780489
O O3 0.000000 0.750000 0.859503
O O4 0.123315 0.645539 0.876831
O O5 0.938194 0.467455 0.597339
O O6 0.652199 0.443853 0.580107
O O7 0.850626 0.371772 0.537311
O O8 0.129815 0.285720 0.966961
O O9 0.100451 0.197145 0.902848
O O10 0.134880 0.580367 0.082737
O O11 0.000000 0.500000 0.000000
O O12 0.500000 0.750000 0.300687
O O13 0.750000 0.750000 0.250000
O O14 0.656626 0.646767 0.314278
#
# Coordination Sequence:
#
# PCOD9533260 Si02
#       7
#    16  16   8  16  16   8  16
#     4  11  25  42  71 112 155 191 238 307 382 457
#     4  12  25  47  68  97 139 195 247 303 365 444
#     4  12  26  42  66 104 142 186 240 310 376 446
#     4  12  25  48  70  96 137 196 258 307 367 442
#     4  11  22  41  71 111 157 192 238 303 384 455
#     4  12  26  44  64 102 144 186 242 312 380 446
#     4  12  24  43  73 105 145 197 245 301 377 453
#
# _framework density 21.063134999999999
#
# number of rings (size 3 to 8) (size 9 to 14) (size 15 to 20)
#    0.000    0.333    7.500    2.000    5.833    0.000 
#    3.000    0.833    0.000    4.000    0.000    0.000 
#    0.000    0.000    0.000    0.000    0.000    0.000 
#
# Total GULP energy -267336.751117 kJ/mol
# GULP energy per Si atom -5569.515648 kJ/mol
# Density = 2.101519 g / cm^3
# Si number density = 21.063135 Si / 1000 Ang^3
#
#
#
# Elastic Constant Matrix: (Units=GPa)
#
#
# Indices 1 2 3 4 5 6 
#
# 1 100.2365 46.9671 39.3733 0.0000 0.0000 0.0000
# 2 46.9671 133.3523 51.6452 0.0000 0.0000 0.0000
# 3 39.3733 51.6452 74.0869 0.0000 0.0000 0.0000
# 4 0.0000 0.0000 0.0000 27.7282 0.0000 0.0000
# 5 0.0000 0.0000 0.0000 0.0000 34.8919 0.0000
# 6 0.0000 0.0000 0.0000 0.0000 0.0000 51.0993
#
#
#
# Elastic Compliance Matrix: (Units=1/GPa)
#
#
# Indices 1 2 3 4 5 6 
#
# 1 0.013263 -0.002659 -0.005195 0.000000 0.000000 0.000000
# 2 -0.002659 0.010805 -0.006119 0.000000 0.000000 0.000000
# 3 -0.005195 -0.006119 0.020524 0.000000 0.000000 0.000000
# 4 0.000000 0.000000 0.000000 0.036064 0.000000 0.000000
# 5 0.000000 0.000000 0.000000 0.000000 0.028660 0.000000
# 6 0.000000 0.000000 0.000000 0.000000 0.000000 0.019570
#
#
# Mechanical properties :
#
#
# Convention : Reuss Voigt Hill
#
# Bulk Modulus (GPa) = 60.07456 64.84968 62.46212
# Shear Modulus (GPa) = 30.79173 34.05654 32.42413
#
# Velocity S-wave (km/s) = 3.82760 4.02541 3.92775
# Velocity P-wave (km/s) = 6.93665 7.24295 7.09145
#
# Compressibility (1/GPa) = 0.01664598
#
# Stress axis : x y z
#
# Youngs Moduli (GPa) = 75.39745 92.54656 48.72380
#
# Poissons Ratio (x) = 0.24612 0.25311
# Poissons Ratio (y) = 0.20052 0.29814
# Poissons Ratio (z) = 0.39167 0.56629
#
# Static dielectric constant tensor:
#      x y z
#    x 1.902980 0.000000 0.000000 
#    y 0.000000 1.789920 0.000000 
#    z 0.000000 0.000000 1.865870 
# 
# From -- ./inp_files/28424.got.cif
#   From: 2010.05.17/outbox.cif.g08.bks.cpg/sg73_15_cif.got.tgz:28424.got - 2010.06.03 17:35:07.
