data_PCOD9533888
_publ_section_title
;
Structure prediction by ZEFSAII (Michael W. Deem and Ramdas Pophale) SiO2 
 PCOD9533888
Probable space group: I M M A
;
_chemical_formula_sum "Si O2"
_cell_formula_units_Z 80
_cell_length_a 19.222153
_cell_length_b 26.997193
_cell_length_c 8.548588
_cell_angle_alpha 90.000000
_cell_angle_beta 90.000000
_cell_angle_gamma 90.000000
_cell_volume 4436.239942
_symmetry_space_group_name_H-M "I M M A"
_symmetry_group_IT_number 74
_symmetry_cell_setting 'orthorhombic'
loop_
_space_group_symop_operation_xyz
x,y,z
-x,1/2-y,z
x,-y,-z
-x,1/2+y,-z
-x,-y,-z
x,1/2+y,-z
-x,y,z
x,1/2-y,z
1/2+x,1/2+y,1/2+z
1/2-x,-y,1/2+z
1/2+x,1/2-y,1/2-z
1/2-x,y,1/2-z
1/2-x,1/2-y,1/2-z
1/2+x,y,1/2-z
1/2-x,1/2+y,1/2+z
1/2+x,-y,1/2+z
loop_
_atom_site_type_symbol
_atom_site_label
_atom_site_fract_x
_atom_site_fract_y
_atom_site_fract_z
Si Si1 0.197532 0.604574 0.025371
Si Si2 0.582666 0.306983 0.012492
Si Si3 0.750000 0.039278 0.250000
Si Si4 0.328001 0.693305 0.680774
Si Si5 0.854133 0.500000 0.500000
Si Si6 0.642874 0.901256 0.143486
O O1 0.277986 0.606851 0.080941
O O2 0.151688 0.587584 0.172351
O O3 0.203667 0.570914 0.870830
O O4 0.169250 0.656802 0.964684
O O5 0.500000 0.307391 0.031636
O O6 0.603778 0.250000 0.970905
O O7 0.620250 0.319074 0.177154
O O8 0.604601 0.349719 0.891924
O O9 0.802731 0.008413 0.354101
O O10 0.340157 0.750000 0.634971
O O11 0.250000 0.689062 0.750000
O O12 0.889073 0.552257 0.453863
#
# Coordination Sequence:
#
# PCOD9533888 Si02
#       6
#    16  16   8  16   8  16
#     4  10  18  30  51  80 110 139 177 226 273 320
#     4  10  21  38  57  77 107 147 183 217 269 331
#     4  10  16  28  45  74 109 140 168 220 276 324
#     4  10  17  30  52  79 107 137 178 227 269 313
#     4  10  18  30  49  76 108 142 179 220 268 322
#     4  10  20  32  51  79 108 142 180 222 272 318
#
# _framework density 18.033290000000001
#
# number of rings (size 3 to 8) (size 9 to 14) (size 15 to 20)
#    0.000    2.000    3.000    3.600    0.000    0.800 
#    0.000    3.500    0.000    2.400    0.000    2.800 
#    0.000    0.000    0.000    0.000    0.000    0.000 
#
# Total GULP energy -222869.202405 kJ/mol
# GULP energy per Si atom -5571.730060 kJ/mol
# Density = 1.799225 g / cm^3
# Si number density = 18.033290 Si / 1000 Ang^3
#
#
#
# Elastic Constant Matrix: (Units=GPa)
#
#
# Indices 1 2 3 4 5 6 
#
# 1 35.7199 13.1885 12.9916 0.0000 0.0000 0.0000
# 2 13.1885 99.3263 51.7951 0.0000 0.0000 0.0000
# 3 12.9916 51.7951 100.8505 0.0000 0.0000 0.0000
# 4 0.0000 0.0000 0.0000 15.0144 0.0000 0.0000
# 5 0.0000 0.0000 0.0000 0.0000 13.1353 0.0000
# 6 0.0000 0.0000 0.0000 0.0000 0.0000 10.1251
#
#
#
# Elastic Compliance Matrix: (Units=1/GPa)
#
#
# Indices 1 2 3 4 5 6 
#
# 1 0.029884 -0.002678 -0.002475 0.000000 0.000000 0.000000
# 2 -0.002678 0.013990 -0.006840 0.000000 0.000000 0.000000
# 3 -0.002475 -0.006840 0.013747 0.000000 0.000000 0.000000
# 4 0.000000 0.000000 0.000000 0.066603 0.000000 0.000000
# 5 0.000000 0.000000 0.000000 0.000000 0.076131 0.000000
# 6 0.000000 0.000000 0.000000 0.000000 0.000000 0.098764
#
#
# Mechanical properties :
#
#
# Convention : Reuss Voigt Hill
#
# Bulk Modulus (GPa) = 29.72899 43.53856 36.63378
# Shear Modulus (GPa) = 14.95587 18.18306 16.56947
#
# Velocity S-wave (km/s) = 2.88296 3.17883 3.03450
# Velocity P-wave (km/s) = 5.25389 6.13752 5.71281
#
# Compressibility (1/GPa) = 0.03363720
#
# Stress axis : x y z
#
# Youngs Moduli (GPa) = 33.46246 71.47811 72.74067
#
# Poissons Ratio (x) = 0.19139 0.18000
# Poissons Ratio (y) = 0.08960 0.49756
# Poissons Ratio (z) = 0.08280 0.48893
#
# Static dielectric constant tensor:
#      x y z
#    x 1.581330 0.000000 0.000000 
#    y 0.000000 1.713060 0.000000 
#    z 0.000000 0.000000 1.646060 
# 
# From -- ./inp_files/11183.got.cif
#   From: 2010.05.17/outbox.cif.g08.bks.cpg/sg74_6_cif.got.tgz:11183.got - 2010.06.03 17:57:02.
