data_PCOD9533693
_publ_section_title
;
Structure prediction by ZEFSAII (Michael W. Deem and Ramdas Pophale) SiO2 
 PCOD9533693
Probable space group: I B C A 
;
_chemical_formula_sum "Si O2"
_cell_formula_units_Z 64
_cell_length_a 16.252104
_cell_length_b 13.709355
_cell_length_c 10.480205
_cell_angle_alpha 90.000000
_cell_angle_beta 90.000000
_cell_angle_gamma 90.000000
_cell_volume 2335.051122
_symmetry_space_group_name_H-M "I B C A "
_symmetry_group_IT_number 73
_symmetry_cell_setting 'orthorhombic'
loop_
_space_group_symop_operation_xyz
x,y,z
-x,1/2-y,z
x,-y,1/2-z
1/2-x,y,-z
-x,-y,-z
x,1/2+y,-z
-x,y,1/2+z
1/2+x,-y,z
1/2+x,1/2+y,1/2+z
1/2-x,-y,1/2+z
1/2+x,1/2-y,-z
-x,1/2+y,1/2-z
1/2-x,1/2-y,1/2-z
1/2+x,y,1/2-z
1/2-x,1/2+y,z
x,1/2-y,1/2+z
loop_
_atom_site_type_symbol
_atom_site_label
_atom_site_fract_x
_atom_site_fract_y
_atom_site_fract_z
Si Si1 0.152114 0.352919 0.575742
Si Si2 0.159847 0.429428 0.957926
Si Si3 0.976965 0.093717 0.169217
Si Si4 0.362073 0.738298 0.811828
O O1 0.176589 0.464408 0.602108
O O2 0.172362 0.323075 0.431429
O O3 0.179332 0.271832 0.678294
O O4 0.052458 0.359420 0.592230
O O5 0.121502 0.344979 0.871127
O O6 0.250000 0.394635 0.000000
O O7 0.095789 0.440714 0.073910
O O8 0.936232 0.171587 0.262955
O O9 0.004524 0.000000 0.250000
#
# Coordination Sequence:
#
# PCOD9533693 Si02
#       4
#    16  16  16  16
#     4  12  28  49  81 115 157 197 270 326 395 458
#     4  12  29  52  74 114 162 212 257 321 397 487
#     4  12  26  47  82 114 156 199 269 328 397 464
#     4  12  27  48  80 116 151 206 257 328 395 464
#
# _framework density 27.408394000000001
#
# number of rings (size 3 to 8) (size 9 to 14) (size 15 to 20)
#    0.000    0.000    5.000    3.750    7.000    4.000 
#    0.000    0.000    0.000    0.000    0.000    0.000 
#    0.000    0.000    0.000    0.000    0.000    0.000 
#
# Total GULP energy -179452.700805 kJ/mol
# GULP energy per Si atom -5607.896900 kJ/mol
# Density = 2.734601 g / cm^3
# Si number density = 27.408394 Si / 1000 Ang^3
#
#
#
# Elastic Constant Matrix: (Units=GPa)
#
#
# Indices 1 2 3 4 5 6 
#
# 1 123.3637 21.8735 55.8296 0.0000 0.0000 0.0000
# 2 21.8735 203.7388 45.4045 0.0000 0.0000 0.0000
# 3 55.8296 45.4045 122.7930 0.0000 0.0000 0.0000
# 4 0.0000 0.0000 0.0000 69.1778 0.0000 0.0000
# 5 0.0000 0.0000 0.0000 0.0000 50.5765 0.0000
# 6 0.0000 0.0000 0.0000 0.0000 0.0000 24.9637
#
#
#
# Elastic Compliance Matrix: (Units=1/GPa)
#
#
# Indices 1 2 3 4 5 6 
#
# 1 0.010207 -0.000067 -0.004616 0.000000 0.000000 0.000000
# 2 -0.000067 0.005349 -0.001948 0.000000 0.000000 0.000000
# 3 -0.004616 -0.001948 0.010963 0.000000 0.000000 0.000000
# 4 0.000000 0.000000 0.000000 0.014456 0.000000 0.000000
# 5 0.000000 0.000000 0.000000 0.000000 0.019772 0.000000
# 6 0.000000 0.000000 0.000000 0.000000 0.000000 0.040058
#
#
# Mechanical properties :
#
#
# Convention : Reuss Voigt Hill
#
# Bulk Modulus (GPa) = 75.42672 77.34564 76.38618
# Shear Modulus (GPa) = 42.19935 50.72947 46.46441
#
# Velocity S-wave (km/s) = 3.92809 4.30685 4.12182
# Velocity P-wave (km/s) = 6.93920 7.28099 7.11215
#
# Compressibility (1/GPa) = 0.01325790
#
# Stress axis : x y z
#
# Youngs Moduli (GPa) = 97.97190 186.93442 91.21909
#
# Poissons Ratio (x) = 0.01255 0.42106
# Poissons Ratio (y) = 0.00658 0.17765
# Poissons Ratio (z) = 0.45223 0.36406
#
# Static dielectric constant tensor:
#      x y z
#    x 2.153370 0.000000 0.000000 
#    y 0.000000 2.052940 0.000000 
#    z 0.000000 0.000000 2.172890 
# 
# From -- ./inp_files/11497.got.cif
#   From: 2010.05.17/outbox.cif.g08.bks.cpg/sg73_6_cif.got.tgz:11497.got - 2010.06.03 17:35:07.
