data_PCOD9533784
_publ_section_title
;
Structure prediction by ZEFSAII (Michael W. Deem and Ramdas Pophale) SiO2 
 PCOD9533784
Probable space group: I B C A 
;
_chemical_formula_sum "Si O2"
_cell_formula_units_Z 48
_cell_length_a 24.000000
_cell_length_b 12.000000
_cell_length_c 18.000000
_cell_angle_alpha 90.000000
_cell_angle_beta 90.000000
_cell_angle_gamma 90.000000
_cell_volume 5184.000000
_symmetry_space_group_name_H-M "I B C A "
_symmetry_group_IT_number 73
_symmetry_cell_setting 'orthorhombic'
loop_
_space_group_symop_operation_xyz
x,y,z
-x,1/2-y,z
x,-y,1/2-z
1/2-x,y,-z
-x,-y,-z
x,1/2+y,-z
-x,y,1/2+z
1/2+x,-y,z
1/2+x,1/2+y,1/2+z
1/2-x,-y,1/2+z
1/2+x,1/2-y,-z
-x,1/2+y,1/2-z
1/2-x,1/2-y,1/2-z
1/2+x,y,1/2-z
1/2-x,1/2+y,z
x,1/2-y,1/2+z
loop_
_atom_site_type_symbol
_atom_site_label
_atom_site_fract_x
_atom_site_fract_y
_atom_site_fract_z
Si Si1 0.640672 0.163009 0.602246
Si Si2 0.750321 0.126918 0.702791
Si Si3 0.445104 0.181282 0.435340
Si Si4 0.914228 0.598057 0.096063
Si Si5 0.351795 0.635148 0.079524
Si Si6 0.467939 0.528649 0.837231
O O1 0.692225 0.127713 0.655627
O O2 0.623892 0.293689 0.614820
O O3 0.655437 0.141472 0.512998
O O4 0.584580 0.097554 0.628588
O O5 0.750000 0.250000 0.750000
O O6 0.799197 0.138544 0.638126
O O7 0.754663 0.000000 0.750000
O O8 0.500000 0.250000 0.455824
O O9 0.427658 0.117295 0.509556
O O10 0.395281 0.262450 0.408463
O O11 0.464017 0.091171 0.376096
O O12 0.881707 0.481348 0.099773
O O13 0.972799 0.586724 0.140981
O O14 0.463893 0.500000 0.750000
#
# Coordination Sequence:
#
# PCOD9533784 Si02
#       6
#    16  16  16  16  16  16
#     4  11  25  45  72 100 134 184 237 286 341 425
#     4  12  29  49  72 102 144 186 233 303 362 413
#     4  11  22  41  70 100 139 178 228 284 339 417
#     4  11  22  44  69 100 137 179 229 278 342 417
#     4  11  24  45  73  99 133 185 238 282 342 423
#     4  12  25  40  67 104 142 179 222 286 353 419
#
# _framework density 9.2592590000000001
#
# number of rings (size 3 to 8) (size 9 to 14) (size 15 to 20)
#    0.000    0.667    3.333    5.000    4.667    3.333 
#    0.000    3.333    0.000    0.000    0.000    0.000 
#    0.000    0.000    0.000    0.000    0.000    0.000 
#
# Total GULP energy -267404.422535 kJ/mol
# GULP energy per Si atom -5570.925469 kJ/mol
# Density = 0.923818 g / cm^3
# Si number density = 9.259259 Si / 1000 Ang^3
#
#
#
# Elastic Constant Matrix: (Units=GPa)
#
#
# Indices 1 2 3 4 5 6 
#
# 1 143.5809 38.8134 49.9212 0.0000 0.0000 0.0000
# 2 38.8134 101.0928 35.1335 0.0000 0.0000 0.0000
# 3 49.9212 35.1335 111.7653 0.0000 0.0000 0.0000
# 4 0.0000 0.0000 0.0000 34.5337 0.0000 0.0000
# 5 0.0000 0.0000 0.0000 0.0000 42.9319 0.0000
# 6 0.0000 0.0000 0.0000 0.0000 0.0000 41.0503
#
#
#
# Elastic Compliance Matrix: (Units=1/GPa)
#
#
# Indices 1 2 3 4 5 6 
#
# 1 0.008670 -0.002226 -0.003173 0.000000 0.000000 0.000000
# 2 -0.002226 0.011677 -0.002676 0.000000 0.000000 0.000000
# 3 -0.003173 -0.002676 0.011206 0.000000 0.000000 0.000000
# 4 0.000000 0.000000 0.000000 0.028957 0.000000 0.000000
# 5 0.000000 0.000000 0.000000 0.000000 0.023293 0.000000
# 6 0.000000 0.000000 0.000000 0.000000 0.000000 0.024360
#
#
# Mechanical properties :
#
#
# Convention : Reuss Voigt Hill
#
# Bulk Modulus (GPa) = 64.92615 67.13057 66.02836
# Shear Modulus (GPa) = 38.62615 39.20790 38.91702
#
# Velocity S-wave (km/s) = 4.57202 4.60632 4.58921
# Velocity P-wave (km/s) = 7.93772 8.03867 7.98835
#
# Compressibility (1/GPa) = 0.01540211
#
# Stress axis : x y z
#
# Youngs Moduli (GPa) = 115.34664 85.64094 89.24030
#
# Poissons Ratio (x) = 0.19063 0.28312
# Poissons Ratio (y) = 0.25676 0.23884
# Poissons Ratio (z) = 0.36595 0.22920
#
# Static dielectric constant tensor:
#      x y z
#    x 1.646200 0.000000 0.000000 
#    y 0.000000 1.689280 0.000000 
#    z 0.000000 0.000000 1.666630 
# 
# From -- ./inp_files/13627.got.cif
#   From: 2010.05.17/outbox.ucp.g08.bks.cvg/sg73_7_cif.got.tgz:13627.got - 2010.06.11 16:36:03.
