data_PCOD9533992
_publ_section_title
;
Structure prediction by ZEFSAII (Michael W. Deem and Ramdas Pophale) SiO2 
 PCOD9533992
Probable space group: I M M A
;
_chemical_formula_sum "Si O2"
_cell_formula_units_Z 120
_cell_length_a 17.125797
_cell_length_b 23.685227
_cell_length_c 21.046818
_cell_angle_alpha 90.000000
_cell_angle_beta 90.000000
_cell_angle_gamma 90.000000
_cell_volume 8537.186889
_symmetry_space_group_name_H-M "I M M A"
_symmetry_group_IT_number 74
_symmetry_cell_setting 'orthorhombic'
loop_
_space_group_symop_operation_xyz
x,y,z
-x,1/2-y,z
x,-y,-z
-x,1/2+y,-z
-x,-y,-z
x,1/2+y,-z
-x,y,z
x,1/2-y,z
1/2+x,1/2+y,1/2+z
1/2-x,-y,1/2+z
1/2+x,1/2-y,1/2-z
1/2-x,y,1/2-z
1/2-x,1/2-y,1/2-z
1/2+x,y,1/2-z
1/2-x,1/2+y,1/2+z
1/2+x,-y,1/2+z
loop_
_atom_site_type_symbol
_atom_site_label
_atom_site_fract_x
_atom_site_fract_y
_atom_site_fract_z
Si Si1 0.187286 0.000000 0.500000
Si Si2 0.406298 0.186591 0.768710
Si Si3 0.313446 0.185571 0.900277
Si Si4 0.907208 0.686082 0.531100
Si Si5 0.176537 0.004499 0.291230
Si Si6 0.593689 0.073417 0.102272
Si Si7 0.592212 0.925793 0.307281
Si Si8 0.731770 0.929197 0.393210
O O1 0.131751 0.964298 0.546541
O O2 0.241635 0.959709 0.457444
O O3 0.500000 0.184205 0.776524
O O4 0.385851 0.250000 0.745422
O O5 0.366754 0.179518 0.837438
O O6 0.384406 0.135319 0.722382
O O7 0.283846 0.250000 0.901191
O O8 0.249876 0.136851 0.897717
O O9 0.363766 0.176592 0.964275
O O10 0.889270 0.750000 0.552455
O O11 0.888811 0.637871 0.582233
O O12 0.000000 0.682712 0.518815
O O13 0.250000 0.026231 0.250000
O O14 0.133813 0.051467 0.333370
O O15 0.117023 0.972214 0.244936
O O16 0.213796 0.957804 0.338811
O O17 0.500000 0.065898 0.105020
O O18 0.500000 0.926249 0.318221
O O19 0.643816 0.937313 0.369403
#
# Coordination Sequence:
#
# PCOD9533992 Si02
#       8
#     8  16  16  16  16  16  16  16
#     4  10  19  32  43  62  92 114 140 184 217 258
#     4   9  17  27  40  60  87 120 152 182 214 245
#     4  10  17  27  42  61  88 120 152 178 207 255
#     4   9  17  28  42  64  94 121 143 172 211 256
#     4   9  18  31  45  63  89 116 144 174 214 258
#     4  10  18  28  46  69  90 115 144 174 214 261
#     4  10  19  31  45  60  84 114 147 186 217 251
#     4  10  19  31  44  63  84 114 146 176 222 260
#
# _framework density 14.056152000000001
#
# number of rings (size 3 to 8) (size 9 to 14) (size 15 to 20)
#    0.000    2.400    2.667    1.000    0.000    2.133 
#    0.000    1.667    0.000    0.400    0.000    0.000 
#    0.000    0.000    0.000    0.000    0.000    0.000 
#
# Total GULP energy -334248.254661 kJ/mol
# GULP energy per Si atom -5570.804244 kJ/mol
# Density = 1.402416 g / cm^3
# Si number density = 14.056152 Si / 1000 Ang^3
#
#
#
# Elastic Constant Matrix: (Units=GPa)
#
#
# Indices 1 2 3 4 5 6 
#
# 1 63.9284 43.3023 40.6312 0.0000 0.0000 0.0000
# 2 43.3023 72.7065 39.6195 0.0000 0.0000 0.0000
# 3 40.6312 39.6195 64.4970 0.0000 0.0000 0.0000
# 4 0.0000 0.0000 0.0000 22.4035 0.0000 0.0000
# 5 0.0000 0.0000 0.0000 0.0000 22.8242 0.0000
# 6 0.0000 0.0000 0.0000 0.0000 0.0000 16.5067
#
#
#
# Elastic Compliance Matrix: (Units=1/GPa)
#
#
# Indices 1 2 3 4 5 6 
#
# 1 0.031872 -0.012087 -0.012654 0.000000 0.000000 0.000000
# 2 -0.012087 0.025258 -0.007901 0.000000 0.000000 0.000000
# 3 -0.012654 -0.007901 0.028330 0.000000 0.000000 0.000000
# 4 0.000000 0.000000 0.000000 0.044636 0.000000 0.000000
# 5 0.000000 0.000000 0.000000 0.000000 0.043813 0.000000
# 6 0.000000 0.000000 0.000000 0.000000 0.000000 0.060581
#
#
# Mechanical properties :
#
#
# Convention : Reuss Voigt Hill
#
# Bulk Modulus (GPa) = 49.56347 49.80420 49.68383
# Shear Modulus (GPa) = 16.31325 17.51881 16.91603
#
# Velocity S-wave (km/s) = 3.41042 3.53419 3.47286
# Velocity P-wave (km/s) = 7.13061 7.22241 7.17666
#
# Compressibility (1/GPa) = 0.02017615
#
# Stress axis : x y z
#
# Youngs Moduli (GPa) = 31.37559 39.59099 35.29874
#
# Poissons Ratio (x) = 0.47853 0.44665
# Poissons Ratio (y) = 0.37923 0.27891
# Poissons Ratio (z) = 0.39701 0.31282
#
# Static dielectric constant tensor:
#      x y z
#    x 1.445720 0.000000 0.000000 
#    y 0.000000 1.473530 0.000000 
#    z 0.000000 0.000000 1.447490 
# 
# From -- ./inp_files/52404.got.cif
#   From: 2010.05.17/outbox.cif.g08.bks.cpg/sg74_27_cif.got.tgz:52404.got - 2010.06.03 17:57:02.
