data_PCOD9533040
_publ_section_title
;
Structure prediction by ZEFSAII (Michael W. Deem and Ramdas Pophale) SiO2 
 PCOD9533040
Probable space group: I B C A 
;
_chemical_formula_sum "Si O2"
_cell_formula_units_Z 72
_cell_length_a 15.360460
_cell_length_b 9.336031
_cell_length_c 22.184469
_cell_angle_alpha 90.000000
_cell_angle_beta 90.000000
_cell_angle_gamma 90.000000
_cell_volume 3181.379988
_symmetry_space_group_name_H-M "I B C A "
_symmetry_group_IT_number 73
_symmetry_cell_setting 'orthorhombic'
loop_
_space_group_symop_operation_xyz
x,y,z
-x,1/2-y,z
x,-y,1/2-z
1/2-x,y,-z
-x,-y,-z
x,1/2+y,-z
-x,y,1/2+z
1/2+x,-y,z
1/2+x,1/2+y,1/2+z
1/2-x,-y,1/2+z
1/2+x,1/2-y,-z
-x,1/2+y,1/2-z
1/2-x,1/2-y,1/2-z
1/2+x,y,1/2-z
1/2-x,1/2+y,z
x,1/2-y,1/2+z
loop_
_atom_site_type_symbol
_atom_site_label
_atom_site_fract_x
_atom_site_fract_y
_atom_site_fract_z
Si Si1 0.548189 0.000000 0.250000
Si Si2 0.412130 0.801764 0.442326
Si Si3 0.301716 0.690084 0.191855
Si Si4 0.250000 0.173190 0.500000
Si Si5 0.316209 0.530361 0.615511
Si Si6 0.000000 0.250000 0.829974
O O1 0.614553 0.098210 0.288514
O O2 0.491120 0.110124 0.210871
O O3 0.500000 0.750000 0.473522
O O4 0.333436 0.768741 0.485766
O O5 0.421229 0.720030 0.377212
O O6 0.400791 0.961204 0.416524
O O7 0.250000 0.750000 0.250000
O O8 0.236337 0.589024 0.153506
O O9 0.331088 0.829020 0.154601
O O10 0.258732 0.078750 0.440876
#
# Coordination Sequence:
#
# PCOD9533040 Si02
#       6
#     8  16  16   8  16   8
#     4  12  24  42  70 106 152 210 254 322 400 454
#     4  10  25  48  70 107 153 195 251 330 384 459
#     4  12  24  43  73 110 150 197 270 321 382 469
#     4  12  24  48  80 110 146 208 258 326 400 464
#     4  12  24  44  75 110 146 199 263 315 389 465
#     4  10  26  46  68 104 162 196 258 324 382 476
#
# _framework density 22.631689000000001
#
# number of rings (size 3 to 8) (size 9 to 14) (size 15 to 20)
#    0.667    0.000    4.444    3.333    3.111    0.889 
#    0.000    0.000    0.000    0.000    0.000    0.000 
#    0.000    0.000    0.000    0.000    0.000    0.000 
#
# Total GULP energy -200984.463939 kJ/mol
# GULP energy per Si atom -5582.901776 kJ/mol
# Density = 2.258018 g / cm^3
# Si number density = 22.631689 Si / 1000 Ang^3
#
#
#
# Elastic Constant Matrix: (Units=GPa)
#
#
# Indices 1 2 3 4 5 6 
#
# 1 112.1274 45.9395 38.2457 0.0000 0.0000 0.0000
# 2 45.9395 128.6470 41.8924 0.0000 0.0000 0.0000
# 3 38.2457 41.8924 98.9564 0.0000 0.0000 0.0000
# 4 0.0000 0.0000 0.0000 23.7026 0.0000 0.0000
# 5 0.0000 0.0000 0.0000 0.0000 28.6010 0.0000
# 6 0.0000 0.0000 0.0000 0.0000 0.0000 32.4961
#
#
#
# Elastic Compliance Matrix: (Units=1/GPa)
#
#
# Indices 1 2 3 4 5 6 
#
# 1 0.011190 -0.003001 -0.003054 0.000000 0.000000 0.000000
# 2 -0.003001 0.009821 -0.002998 0.000000 0.000000 0.000000
# 3 -0.003054 -0.002998 0.012555 0.000000 0.000000 0.000000
# 4 0.000000 0.000000 0.000000 0.042189 0.000000 0.000000
# 5 0.000000 0.000000 0.000000 0.000000 0.034964 0.000000
# 6 0.000000 0.000000 0.000000 0.000000 0.000000 0.030773
#
#
# Mechanical properties :
#
#
# Convention : Reuss Voigt Hill
#
# Bulk Modulus (GPa) = 64.68523 65.76513 65.22518
# Shear Modulus (GPa) = 30.34869 31.20348 30.77609
#
# Velocity S-wave (km/s) = 3.66592 3.71718 3.69164
# Velocity P-wave (km/s) = 6.82366 6.89530 6.85958
#
# Compressibility (1/GPa) = 0.01545948
#
# Stress axis : x y z
#
# Youngs Moduli (GPa) = 89.36674 101.82109 79.64991
#
# Poissons Ratio (x) = 0.30560 0.24327
# Poissons Ratio (y) = 0.26822 0.23877
# Poissons Ratio (z) = 0.27294 0.30523
#
# Static dielectric constant tensor:
#      x y z
#    x 1.914980 0.000000 0.000000 
#    y 0.000000 1.872010 0.000000 
#    z 0.000000 0.000000 1.842190 
# 
# From -- ./inp_files/22979.got.cif
#   From: 2010.05.17/outbox.cif.g08.bks.cpg/sg73_12_cif.got.tgz:22979.got - 2010.06.03 17:35:07.
