data_PCOD9533126
_publ_section_title
;
Structure prediction by ZEFSAII (Michael W. Deem and Ramdas Pophale) SiO2 
 PCOD9533126
Probable space group: I B C A 
;
_chemical_formula_sum "Si O2"
_cell_formula_units_Z 120
_cell_length_a 9.097389
_cell_length_b 24.309644
_cell_length_c 24.168950
_cell_angle_alpha 90.000000
_cell_angle_beta 90.000000
_cell_angle_gamma 90.000000
_cell_volume 5345.066927
_symmetry_space_group_name_H-M "I B C A "
_symmetry_group_IT_number 73
_symmetry_cell_setting 'orthorhombic'
loop_
_space_group_symop_operation_xyz
x,y,z
-x,1/2-y,z
x,-y,1/2-z
1/2-x,y,-z
-x,-y,-z
x,1/2+y,-z
-x,y,1/2+z
1/2+x,-y,z
1/2+x,1/2+y,1/2+z
1/2-x,-y,1/2+z
1/2+x,1/2-y,-z
-x,1/2+y,1/2-z
1/2-x,1/2-y,1/2-z
1/2+x,y,1/2-z
1/2-x,1/2+y,z
x,1/2-y,1/2+z
loop_
_atom_site_type_symbol
_atom_site_label
_atom_site_fract_x
_atom_site_fract_y
_atom_site_fract_z
Si Si1 0.813463 0.950942 0.282886
Si Si2 0.912466 0.343255 0.487152
Si Si3 0.009635 0.363697 0.874003
Si Si4 0.288506 0.468000 0.095759
Si Si5 0.331866 0.339310 0.363762
Si Si6 0.500000 0.750000 0.571256
Si Si7 0.527155 0.570920 0.559447
Si Si8 0.932388 0.624097 0.252993
O O1 0.772712 0.975525 0.342052
O O2 0.668318 0.930086 0.252086
O O3 0.915209 0.897268 0.278865
O O4 0.387072 0.000000 0.250000
O O5 0.750000 0.364342 0.500000
O O6 0.028754 0.390927 0.504703
O O7 0.932424 0.325435 0.423828
O O8 0.930989 0.294486 0.530398
O O9 0.834038 0.358916 0.874919
O O10 0.087692 0.420857 0.893427
O O11 0.053917 0.354391 0.809968
O O12 0.363958 0.519847 0.066678
O O13 0.139249 0.450611 0.065094
O O14 0.380642 0.282501 0.392165
O O15 0.434170 0.386650 0.391107
O O16 0.360211 0.336661 0.298265
#
# Coordination Sequence:
#
# PCOD9533126 Si02
#       8
#    16  16  16  16  16   8  16  16
#     4  11  22  34  60  99 139 191 236 277 337 416
#     4  11  25  50  72 105 137 185 240 310 356 432
#     4  11  25  44  72 102 145 192 236 284 369 426
#     4  11  23  38  64 105 138 197 229 281 351 424
#     4  11  23  48  69 107 138 183 234 308 357 437
#     4  10  28  44  84  98 140 172 248 298 382 420
#     4  11  23  41  68  98 148 184 239 294 346 423
#     4  11  22  39  66  98 145 183 229 295 348 427
#
# _framework density 22.450607999999999
#
# number of rings (size 3 to 8) (size 9 to 14) (size 15 to 20)
#    0.000    1.067    4.000    2.000    5.600    2.133 
#    0.000    1.333    0.000    0.000    0.000    0.000 
#    0.000    0.000    0.000    0.000    0.000    0.000 
#
# Total GULP energy -334945.624666 kJ/mol
# GULP energy per Si atom -5582.427078 kJ/mol
# Density = 2.239951 g / cm^3
# Si number density = 22.450608 Si / 1000 Ang^3
#
#
#
# Elastic Constant Matrix: (Units=GPa)
#
#
# Indices 1 2 3 4 5 6 
#
# 1 113.7121 36.6443 40.0349 0.0000 0.0000 0.0000
# 2 36.6443 61.8660 36.6921 0.0000 0.0000 0.0000
# 3 40.0349 36.6921 152.2889 0.0000 0.0000 0.0000
# 4 0.0000 0.0000 0.0000 21.3980 0.0000 0.0000
# 5 0.0000 0.0000 0.0000 0.0000 1.8662 0.0000
# 6 0.0000 0.0000 0.0000 0.0000 0.0000 5.5689
#
#
#
# Elastic Compliance Matrix: (Units=1/GPa)
#
#
# Indices 1 2 3 4 5 6 
#
# 1 0.011181 -0.005693 -0.001568 0.000000 0.000000 0.000000
# 2 -0.005693 0.021757 -0.003746 0.000000 0.000000 0.000000
# 3 -0.001568 -0.003746 0.007881 0.000000 0.000000 0.000000
# 4 0.000000 0.000000 0.000000 0.046733 0.000000 0.000000
# 5 0.000000 0.000000 0.000000 0.000000 0.535845 0.000000
# 6 0.000000 0.000000 0.000000 0.000000 0.000000 0.179568
#
#
# Mechanical properties :
#
#
# Convention : Reuss Voigt Hill
#
# Bulk Modulus (GPa) = 53.17162 61.62330 57.39746
# Shear Modulus (GPa) = 6.01507 20.06634 13.04070
#
# Velocity S-wave (km/s) = 1.63862 2.99289 2.41272
# Velocity P-wave (km/s) = 5.22641 6.28102 5.77782
#
# Compressibility (1/GPa) = 0.01880702
#
# Stress axis : x y z
#
# Youngs Moduli (GPa) = 89.44098 45.96150 126.88669
#
# Poissons Ratio (x) = 0.26164 0.19891
# Poissons Ratio (y) = 0.50916 0.47527
# Poissons Ratio (z) = 0.14021 0.17215
#
# Static dielectric constant tensor:
#      x y z
#    x 1.839440 0.000000 0.000000 
#    y 0.000000 1.850220 0.000000 
#    z 0.000000 0.000000 1.865950 
# 
# From -- ./inp_files/28556.got.cif
#   From: 2010.05.17/outbox.cif.g08.bks.cpg/sg73_15_cif.got.tgz:28556.got - 2010.06.03 17:35:07.
