data_PCOD9533494
_publ_section_title
;
Structure prediction by ZEFSAII (Michael W. Deem and Ramdas Pophale) SiO2 
 PCOD9533494
Probable space group: I B C A 
;
_chemical_formula_sum "Si O2"
_cell_formula_units_Z 64
_cell_length_a 17.222541
_cell_length_b 8.919908
_cell_length_c 15.829430
_cell_angle_alpha 90.000000
_cell_angle_beta 90.000000
_cell_angle_gamma 90.000000
_cell_volume 2431.772143
_symmetry_space_group_name_H-M "I B C A "
_symmetry_group_IT_number 73
_symmetry_cell_setting 'orthorhombic'
loop_
_space_group_symop_operation_xyz
x,y,z
-x,1/2-y,z
x,-y,1/2-z
1/2-x,y,-z
-x,-y,-z
x,1/2+y,-z
-x,y,1/2+z
1/2+x,-y,z
1/2+x,1/2+y,1/2+z
1/2-x,-y,1/2+z
1/2+x,1/2-y,-z
-x,1/2+y,1/2-z
1/2-x,1/2-y,1/2-z
1/2+x,y,1/2-z
1/2-x,1/2+y,z
x,1/2-y,1/2+z
loop_
_atom_site_type_symbol
_atom_site_label
_atom_site_fract_x
_atom_site_fract_y
_atom_site_fract_z
Si Si1 0.958560 0.000000 0.250000
Si Si2 0.221392 0.000000 0.250000
Si Si3 0.660636 0.887826 0.488632
Si Si4 0.155148 0.774829 0.832292
Si Si5 0.565591 0.149686 0.572594
O O1 0.916825 0.148126 0.212312
O O2 0.975032 0.075858 0.343982
O O3 0.169126 0.106045 0.194024
O O4 0.276459 0.111743 0.302219
O O5 0.750000 0.941468 0.500000
O O6 0.653023 0.778607 0.568645
O O7 0.634638 0.775712 0.412459
O O8 0.602168 0.019669 0.515421
O O9 0.500000 0.250000 0.529235
#
# Coordination Sequence:
#
# PCOD9533494 Si02
#       5
#     8   8  16  16  16
#     4   9  22  44  65  98 130 189 249 286 346 445
#     4   9  18  32  57  90 142 189 221 284 352 415
#     4  11  25  40  70 110 145 188 237 302 367 435
#     4   9  20  34  59  93 141 176 234 286 356 413
#     4  11  25  48  71 101 149 193 245 302 366 446
#
# _framework density 26.318256999999999
#
# number of rings (size 3 to 8) (size 9 to 14) (size 15 to 20)
#    0.000    2.000    0.000    1.500   17.500    0.000 
#    0.000   11.250    0.000    0.000    0.000    0.000 
#    0.000    0.000    0.000    0.000    0.000    0.000 
#
# Total GULP energy -178338.893146 kJ/mol
# GULP energy per Si atom -5573.090411 kJ/mol
# Density = 2.625836 g / cm^3
# Si number density = 26.318257 Si / 1000 Ang^3
#
#
#
# Elastic Constant Matrix: (Units=GPa)
#
#
# Indices 1 2 3 4 5 6 
#
# 1 68.0468 56.3037 14.6837 0.0000 0.0000 0.0000
# 2 56.3037 185.4245 32.8695 0.0000 0.0000 0.0000
# 3 14.6837 32.8695 82.9262 0.0000 0.0000 0.0000
# 4 0.0000 0.0000 0.0000 21.1292 0.0000 0.0000
# 5 0.0000 0.0000 0.0000 0.0000 19.9432 0.0000
# 6 0.0000 0.0000 0.0000 0.0000 0.0000 42.5226
#
#
#
# Elastic Compliance Matrix: (Units=1/GPa)
#
#
# Indices 1 2 3 4 5 6 
#
# 1 0.019738 -0.005780 -0.001204 0.000000 0.000000 0.000000
# 2 -0.005780 0.007493 -0.001947 0.000000 0.000000 0.000000
# 3 -0.001204 -0.001947 0.013044 0.000000 0.000000 0.000000
# 4 0.000000 0.000000 0.000000 0.047328 0.000000 0.000000
# 5 0.000000 0.000000 0.000000 0.000000 0.050142 0.000000
# 6 0.000000 0.000000 0.000000 0.000000 0.000000 0.023517
#
#
# Mechanical properties :
#
#
# Convention : Reuss Voigt Hill
#
# Bulk Modulus (GPa) = 44.61549 60.45682 52.53616
# Shear Modulus (GPa) = 26.79609 32.22173 29.50891
#
# Velocity S-wave (km/s) = 3.19432 3.50281 3.35212
# Velocity P-wave (km/s) = 5.53118 6.27542 5.91502
#
# Compressibility (1/GPa) = 0.02241374
#
# Stress axis : x y z
#
# Youngs Moduli (GPa) = 50.66346 133.45460 76.66550
#
# Poissons Ratio (x) = 0.77137 0.09230
# Poissons Ratio (y) = 0.29283 0.14924
# Poissons Ratio (z) = 0.06100 0.25978
#
# Static dielectric constant tensor:
#      x y z
#    x 2.261690 0.000000 0.000000 
#    y 0.000000 1.841660 0.000000 
#    z 0.000000 0.000000 2.121430 
# 
# From -- ./inp_files/22949.got.cif
#   From: 2010.05.17/outbox.cif.g08.bks.cpg/sg73_12_cif.got.tgz:22949.got - 2010.06.03 17:35:07.
