data_PCOD9533769
_publ_section_title
;
Structure prediction by ZEFSAII (Michael W. Deem and Ramdas Pophale) SiO2 
 PCOD9533769
Probable space group: I B C A 
;
_chemical_formula_sum "Si O2"
_cell_formula_units_Z 60
_cell_length_a 27.000000
_cell_length_b 12.000000
_cell_length_c 18.000000
_cell_angle_alpha 90.000000
_cell_angle_beta 90.000000
_cell_angle_gamma 90.000000
_cell_volume 5832.000000
_symmetry_space_group_name_H-M "I B C A "
_symmetry_group_IT_number 73
_symmetry_cell_setting 'orthorhombic'
loop_
_space_group_symop_operation_xyz
x,y,z
-x,1/2-y,z
x,-y,1/2-z
1/2-x,y,-z
-x,-y,-z
x,1/2+y,-z
-x,y,1/2+z
1/2+x,-y,z
1/2+x,1/2+y,1/2+z
1/2-x,-y,1/2+z
1/2+x,1/2-y,-z
-x,1/2+y,1/2-z
1/2-x,1/2-y,1/2-z
1/2+x,y,1/2-z
1/2-x,1/2+y,z
x,1/2-y,1/2+z
loop_
_atom_site_type_symbol
_atom_site_label
_atom_site_fract_x
_atom_site_fract_y
_atom_site_fract_z
Si Si1 0.687315 0.971079 0.662593
Si Si2 0.793392 0.539448 0.396802
Si Si3 0.457226 0.085306 0.973008
Si Si4 0.144515 0.323798 0.867279
Si Si5 0.645792 0.397646 0.037063
Si Si6 0.805320 0.233814 0.716601
Si Si7 0.043597 0.457607 0.833773
Si Si8 0.500000 0.250000 0.581705
O O1 0.685982 0.837950 0.662494
O O2 0.686011 0.000000 0.750000
O O3 0.736171 0.022939 0.624592
O O4 0.646629 0.026199 0.610882
O O5 0.815359 0.415908 0.389704
O O6 0.809671 0.588055 0.476875
O O7 0.811942 0.621978 0.331322
O O8 0.461270 0.068269 0.884914
O O9 0.401183 0.055600 0.992265
O O10 0.462473 0.199264 0.019865
O O11 0.500000 0.000000 0.000000
O O12 0.142383 0.227771 0.929902
O O13 0.160240 0.268204 0.789042
O O14 0.095687 0.395897 0.850135
O O15 0.750000 0.250000 0.750000
O O16 0.037719 0.500000 0.750000
O O17 0.008736 0.356952 0.864974
#
# Coordination Sequence:
#
# PCOD9533769 Si02
#       8
#    16  16  16  16  16  16  16   8
#     4  12  24  45  65  97 141 186 231 283 344 414
#     4  12  25  42  67  99 139 179 234 282 340 413
#     4  10  23  46  71  97 139 185 230 293 366 422
#     4  12  23  42  67  98 139 176 231 286 341 412
#     4  12  26  44  68 104 136 185 235 293 347 424
#     4  12  23  42  68  91 136 189 227 277 345 405
#     4  11  23  42  72 106 136 177 235 291 356 433
#     4  10  22  46  72  96 142 184 220 300 364 432
#
# _framework density 10.288066000000001
#
# number of rings (size 3 to 8) (size 9 to 14) (size 15 to 20)
#    0.000    0.533    6.667    1.600    1.867    0.533 
#    0.000    5.333    0.000    0.000    0.000    0.000 
#    0.000    0.000    0.000    0.000    0.000    0.000 
#
# Total GULP energy -334278.239365 kJ/mol
# GULP energy per Si atom -5571.303989 kJ/mol
# Density = 1.026465 g / cm^3
# Si number density = 10.288066 Si / 1000 Ang^3
#
#
#
# Elastic Constant Matrix: (Units=GPa)
#
#
# Indices 1 2 3 4 5 6 
#
# 1 17.8618 -6.0470 28.5452 0.0000 0.0000 0.0000
# 2 -6.0470 91.5852 49.6614 0.0000 0.0000 0.0000
# 3 28.5452 49.6614 181.6972 0.0000 0.0000 0.0000
# 4 0.0000 0.0000 0.0000 43.6302 0.0000 0.0000
# 5 0.0000 0.0000 0.0000 0.0000 19.4901 0.0000
# 6 0.0000 0.0000 0.0000 0.0000 0.0000 19.9796
#
#
#
# Elastic Compliance Matrix: (Units=1/GPa)
#
#
# Indices 1 2 3 4 5 6 
#
# 1 0.091586 0.016259 -0.018832 0.000000 0.000000 0.000000
# 2 0.016259 0.015705 -0.006847 0.000000 0.000000 0.000000
# 3 -0.018832 -0.006847 0.010334 0.000000 0.000000 0.000000
# 4 0.000000 0.000000 0.000000 0.022920 0.000000 0.000000
# 5 0.000000 0.000000 0.000000 0.000000 0.051308 0.000000
# 6 0.000000 0.000000 0.000000 0.000000 0.000000 0.050051
#
#
# Mechanical properties :
#
#
# Convention : Reuss Voigt Hill
#
# Bulk Modulus (GPa) = 10.12311 48.38482 29.25396
# Shear Modulus (GPa) = 17.02579 31.21896 24.12237
#
# Velocity S-wave (km/s) = 2.87967 3.89940 3.42767
# Velocity P-wave (km/s) = 3.99840 6.62117 5.46933
#
# Compressibility (1/GPa) = 0.09878385
#
# Stress axis : x y z
#
# Youngs Moduli (GPa) = 10.91870 63.67448 96.77153
#
# Poissons Ratio (x) = -1.03526 1.82243
# Poissons Ratio (y) = -0.17752 0.66257
# Poissons Ratio (z) = 0.20562 0.43596
#
# Static dielectric constant tensor:
#      x y z
#    x 1.451200 0.000000 0.000000 
#    y 0.000000 1.758930 0.000000 
#    z 0.000000 0.000000 1.726070 
# 
# From -- ./inp_files/12249.got.cif
#   From: 2010.05.17/outbox.ucp.g08.bks.cvg/sg73_7_cif.got.tgz:12249.got - 2010.06.11 16:36:03.
