data_PCOD9533711
_publ_section_title
;
Structure prediction by ZEFSAII (Michael W. Deem and Ramdas Pophale) SiO2 
 PCOD9533711
Probable space group: I B C A 
;
_chemical_formula_sum "Si O2"
_cell_formula_units_Z 40
_cell_length_a 4.891157
_cell_length_b 11.307790
_cell_length_c 29.833179
_cell_angle_alpha 90.000000
_cell_angle_beta 90.000000
_cell_angle_gamma 90.000000
_cell_volume 1650.018721
_symmetry_space_group_name_H-M "I B C A "
_symmetry_group_IT_number 73
_symmetry_cell_setting 'orthorhombic'
loop_
_space_group_symop_operation_xyz
x,y,z
-x,1/2-y,z
x,-y,1/2-z
1/2-x,y,-z
-x,-y,-z
x,1/2+y,-z
-x,y,1/2+z
1/2+x,-y,z
1/2+x,1/2+y,1/2+z
1/2-x,-y,1/2+z
1/2+x,1/2-y,-z
-x,1/2+y,1/2-z
1/2-x,1/2-y,1/2-z
1/2+x,y,1/2-z
1/2-x,1/2+y,z
x,1/2-y,1/2+z
loop_
_atom_site_type_symbol
_atom_site_label
_atom_site_fract_x
_atom_site_fract_y
_atom_site_fract_z
Si Si1 0.610959 0.917957 0.633933
Si Si2 0.500000 0.250000 0.283899
Si Si3 0.500000 0.250000 0.075491
Si Si4 0.750000 0.910848 0.000000
O O1 0.572844 0.858677 0.682747
O O2 0.777321 0.821810 0.604746
O O3 0.306135 0.967832 0.626669
O O4 0.250000 0.250000 0.250000
O O5 0.313928 0.171233 0.042260
O O6 0.500000 0.000000 0.000000
#
# Coordination Sequence:
#
# PCOD9533711 Si02
#       4
#    16   8   8   8
#     4  12  27  48  77 110 152 202 253 316 391 465
#     4  12  27  49  76 112 150 190 248 311 377 464
#     4  12  27  51  76 114 158 206 266 329 389 466
#     4  12  28  48  76 110 152 204 262 324 386 458
#
# _framework density 24.242149000000001
#
# number of rings (size 3 to 8) (size 9 to 14) (size 15 to 20)
#    0.000    0.000    0.000    9.600    0.000   16.000 
#    0.000    0.000    0.000    0.000    0.000    0.000 
#    0.000    0.000    0.000    0.000    0.000    0.000 
#
# Total GULP energy -111838.807295 kJ/mol
# GULP energy per Si atom -5591.940365 kJ/mol
# Density = 2.418697 g / cm^3
# Si number density = 24.242149 Si / 1000 Ang^3
#
#
#
# Elastic Constant Matrix: (Units=GPa)
#
#
# Indices 1 2 3 4 5 6 
#
# 1 225.7841 50.5714 80.1368 0.0000 0.0000 0.0000
# 2 50.5714 114.3575 83.5014 0.0000 0.0000 0.0000
# 3 80.1368 83.5014 184.1361 0.0000 0.0000 0.0000
# 4 0.0000 0.0000 0.0000 23.3377 0.0000 0.0000
# 5 0.0000 0.0000 0.0000 0.0000 52.1323 0.0000
# 6 0.0000 0.0000 0.0000 0.0000 0.0000 39.2635
#
#
#
# Elastic Compliance Matrix: (Units=1/GPa)
#
#
# Indices 1 2 3 4 5 6 
#
# 1 0.005312 -0.000988 -0.001864 0.000000 0.000000 0.000000
# 2 -0.000988 0.013257 -0.005582 0.000000 0.000000 0.000000
# 3 -0.001864 -0.005582 0.008773 0.000000 0.000000 0.000000
# 4 0.000000 0.000000 0.000000 0.042849 0.000000 0.000000
# 5 0.000000 0.000000 0.000000 0.000000 0.019182 0.000000
# 6 0.000000 0.000000 0.000000 0.000000 0.000000 0.025469
#
#
# Mechanical properties :
#
#
# Convention : Reuss Voigt Hill
#
# Bulk Modulus (GPa) = 95.46664 105.85522 100.66093
# Shear Modulus (GPa) = 36.98207 43.61791 40.29999
#
# Velocity S-wave (km/s) = 3.91004 4.24637 4.08167
# Velocity P-wave (km/s) = 7.73631 8.23424 7.98916
#
# Compressibility (1/GPa) = 0.01047486
#
# Stress axis : x y z
#
# Youngs Moduli (GPa) = 188.26050 75.43070 113.98637
#
# Poissons Ratio (x) = 0.07455 0.21242
# Poissons Ratio (y) = 0.18605 0.63624
# Poissons Ratio (z) = 0.35083 0.42103
#
# Static dielectric constant tensor:
#      x y z
#    x 1.875220 0.000000 0.000000 
#    y 0.000000 1.978550 0.000000 
#    z 0.000000 0.000000 2.057370 
# 
# From -- ./inp_files/14016.got.cif
#   From: 2010.05.17/outbox.cif.g08.bks.cpg/sg73_8_cif.got.tgz:14016.got - 2010.06.03 17:35:07.
