data_PCOD9533843
_publ_section_title
;
Structure prediction by ZEFSAII (Michael W. Deem and Ramdas Pophale) SiO2 
 PCOD9533843
Probable space group: I M M A
;
_chemical_formula_sum "Si O2"
_cell_formula_units_Z 80
_cell_length_a 29.800115
_cell_length_b 15.770160
_cell_length_c 6.780908
_cell_angle_alpha 90.000000
_cell_angle_beta 90.000000
_cell_angle_gamma 90.000000
_cell_volume 3186.705220
_symmetry_space_group_name_H-M "I M M A"
_symmetry_group_IT_number 74
_symmetry_cell_setting 'orthorhombic'
loop_
_space_group_symop_operation_xyz
x,y,z
-x,1/2-y,z
x,-y,-z
-x,1/2+y,-z
-x,-y,-z
x,1/2+y,-z
-x,y,z
x,1/2-y,z
1/2+x,1/2+y,1/2+z
1/2-x,-y,1/2+z
1/2+x,1/2-y,1/2-z
1/2-x,y,1/2-z
1/2-x,1/2-y,1/2-z
1/2+x,y,1/2-z
1/2-x,1/2+y,1/2+z
1/2+x,-y,1/2+z
loop_
_atom_site_type_symbol
_atom_site_label
_atom_site_fract_x
_atom_site_fract_y
_atom_site_fract_z
Si Si1 0.289092 0.597189 0.484342
Si Si2 0.403022 0.347506 0.180613
Si Si3 0.803416 0.152342 0.433674
Si Si4 0.879387 0.155127 0.850650
Si Si5 0.049862 0.516113 0.235532
O O1 0.303523 0.500000 0.500000
O O2 0.235386 0.600123 0.454746
O O3 0.294794 0.639088 0.699178
O O4 0.325747 0.640311 0.343479
O O5 0.418527 0.250000 0.143236
O O6 0.356728 0.363689 0.060646
O O7 0.390023 0.349061 0.413944
O O8 0.436486 0.427000 0.163388
O O9 0.794858 0.250000 0.481517
O O10 0.890237 0.250000 0.785587
O O11 0.911134 0.085826 0.751518
O O12 0.000000 0.544578 0.293799
O O13 0.047735 0.500000 0.000000
#
# Coordination Sequence:
#
# PCOD9533843 Si02
#       5
#    16  16  16  16  16
#     4  10  16  23  38  59  80 104 138 178 219 255
#     4   8  14  24  37  52  73 100 128 164 206 242
#     4   9  16  27  41  59  81 107 144 181 215 259
#     4   9  15  23  34  49  72 102 136 169 198 232
#     4   9  16  24  34  52  78 106 136 167 202 251
#
# _framework density 25.104301
#
# number of rings (size 3 to 8) (size 9 to 14) (size 15 to 20)
#    0.000    3.000    0.000    6.600    0.000    0.800 
#    0.000    4.000    0.000    0.000    0.000   47.600 
#    0.000    0.800    0.000    0.600    0.000    3.800 
#
# Total GULP energy -223691.295315 kJ/mol
# GULP energy per Si atom -5592.282383 kJ/mol
# Density = 2.504716 g / cm^3
# Si number density = 25.104301 Si / 1000 Ang^3
#
#
#
# Elastic Constant Matrix: (Units=GPa)
#
#
# Indices 1 2 3 4 5 6 
#
# 1 160.8571 89.1847 39.2387 0.0000 0.0000 0.0000
# 2 89.1847 162.1474 21.5599 0.0000 0.0000 0.0000
# 3 39.2387 21.5599 101.7241 0.0000 0.0000 0.0000
# 4 0.0000 0.0000 0.0000 10.8066 0.0000 0.0000
# 5 0.0000 0.0000 0.0000 0.0000 43.6852 0.0000
# 6 0.0000 0.0000 0.0000 0.0000 0.0000 -3.6830
#
#
#
# Elastic Compliance Matrix: (Units=1/GPa)
#
#
# Indices 1 2 3 4 5 6 
#
# 1 0.009595 -0.004924 -0.002658 0.000000 0.000000 0.000000
# 2 -0.004924 0.008873 0.000019 0.000000 0.000000 0.000000
# 3 -0.002658 0.000019 0.010852 0.000000 0.000000 0.000000
# 4 0.000000 0.000000 0.000000 0.092536 0.000000 0.000000
# 5 0.000000 0.000000 0.000000 0.000000 0.022891 0.000000
# 6 0.000000 0.000000 0.000000 0.000000 0.000000 -0.271516
#
#
# Mechanical properties :
#
#
# Convention : Reuss Voigt Hill
#
# Bulk Modulus (GPa) = 70.45182 80.52171 75.48676
# Shear Modulus (GPa) = -46.76735 28.47809 -9.14463
#
# Velocity S-wave (km/s) = -4.32084 3.37173 -1.91064
# Velocity P-wave (km/s) = 1.79769 6.87768 5.02664
#
# Compressibility (1/GPa) = 0.01419410
#
# Stress axis : x y z
#
# Youngs Moduli (GPa) = 104.22001 112.69983 92.15209
#
# Poissons Ratio (x) = 0.55495 0.24490
# Poissons Ratio (y) = 0.51320 -0.00173
# Poissons Ratio (z) = 0.27697 -0.00212
#
# Static dielectric constant tensor:
#      x y z
#    x 1.943540 0.000000 0.000000 
#    y 0.000000 1.882240 0.000000 
#    z 0.000000 0.000000 1.889340 
# 
# From -- ./inp_files/20956.got.cif
#   From: 2010.05.17/outbox.cif.g08.bks.cpg/sg74_11_cif.got.tgz:20956.got - 2010.06.03 17:57:02.
