data_PCOD9533662
_publ_section_title
;
Structure prediction by ZEFSAII (Michael W. Deem and Ramdas Pophale) SiO2 
 PCOD9533662
Probable space group: I B C A 
;
_chemical_formula_sum "Si O2"
_cell_formula_units_Z 48
_cell_length_a 16.239772
_cell_length_b 16.393312
_cell_length_c 6.946919
_cell_angle_alpha 90.000000
_cell_angle_beta 90.000000
_cell_angle_gamma 90.000000
_cell_volume 1849.434127
_symmetry_space_group_name_H-M "I B C A "
_symmetry_group_IT_number 73
_symmetry_cell_setting 'orthorhombic'
loop_
_space_group_symop_operation_xyz
x,y,z
-x,1/2-y,z
x,-y,1/2-z
1/2-x,y,-z
-x,-y,-z
x,1/2+y,-z
-x,y,1/2+z
1/2+x,-y,z
1/2+x,1/2+y,1/2+z
1/2-x,-y,1/2+z
1/2+x,1/2-y,-z
-x,1/2+y,1/2-z
1/2-x,1/2-y,1/2-z
1/2+x,y,1/2-z
1/2-x,1/2+y,z
x,1/2-y,1/2+z
loop_
_atom_site_type_symbol
_atom_site_label
_atom_site_fract_x
_atom_site_fract_y
_atom_site_fract_z
Si Si1 0.168570 0.295564 0.326463
Si Si2 0.914027 0.073929 0.096621
Si Si3 0.907715 0.862192 0.796511
O O1 0.250000 0.250000 0.250000
O O2 0.153217 0.363786 0.170577
O O3 0.098841 0.224973 0.313874
O O4 0.345539 0.345293 0.474545
O O5 0.004612 0.114670 0.112006
O O6 0.914163 0.000000 0.250000
O O7 0.894559 0.070063 0.869988
#
# Coordination Sequence:
#
# PCOD9533662 Si02
#       3
#    16  16  16
#     4  12  27  46  77 115 157 218 282 343 427 522
#     4  12  27  46  77 119 160 210 283 353 431 502
#     4  12  25  44  77 111 161 214 280 346 407 515
#
# _framework density 25.953883000000001
#
# number of rings (size 3 to 8) (size 9 to 14) (size 15 to 20)
#    0.000    0.000    6.667    3.000    0.000    0.000 
#    0.000    1.667    7.333    0.000    0.000    0.000 
#    0.000    0.000    0.000    0.000    0.000    0.000 
#
# Total GULP energy -133962.713293 kJ/mol
# GULP energy per Si atom -5581.779721 kJ/mol
# Density = 2.589481 g / cm^3
# Si number density = 25.953883 Si / 1000 Ang^3
#
#
#
# Elastic Constant Matrix: (Units=GPa)
#
#
# Indices 1 2 3 4 5 6 
#
# 1 147.6407 85.1023 76.7906 0.0000 0.0000 0.0000
# 2 85.1023 139.9171 84.8283 0.0000 0.0000 0.0000
# 3 76.7906 84.8283 266.3741 0.0000 0.0000 0.0000
# 4 0.0000 0.0000 0.0000 53.5558 0.0000 0.0000
# 5 0.0000 0.0000 0.0000 0.0000 40.6461 0.0000
# 6 0.0000 0.0000 0.0000 0.0000 0.0000 28.4077
#
#
#
# Elastic Compliance Matrix: (Units=1/GPa)
#
#
# Indices 1 2 3 4 5 6 
#
# 1 0.010761 -0.005781 -0.001261 0.000000 0.000000 0.000000
# 2 -0.005781 0.011962 -0.002143 0.000000 0.000000 0.000000
# 3 -0.001261 -0.002143 0.004800 0.000000 0.000000 0.000000
# 4 0.000000 0.000000 0.000000 0.018672 0.000000 0.000000
# 5 0.000000 0.000000 0.000000 0.000000 0.024603 0.000000
# 6 0.000000 0.000000 0.000000 0.000000 0.000000 0.035202
#
#
# Mechanical properties :
#
#
# Convention : Reuss Voigt Hill
#
# Bulk Modulus (GPa) = 109.24507 116.37493 112.81000
# Shear Modulus (GPa) = 39.23977 45.00262 42.12120
#
# Velocity S-wave (km/s) = 3.89254 4.16858 4.03292
# Velocity P-wave (km/s) = 7.89847 8.25263 8.07749
#
# Compressibility (1/GPa) = 0.00915373
#
# Stress axis : x y z
#
# Youngs Moduli (GPa) = 92.92531 83.59580 208.32401
#
# Poissons Ratio (x) = 0.48324 0.26278
# Poissons Ratio (y) = 0.53717 0.44644
# Poissons Ratio (z) = 0.11722 0.17915
#
# Static dielectric constant tensor:
#      x y z
#    x 2.087480 0.000000 0.000000 
#    y 0.000000 2.056530 0.000000 
#    z 0.000000 0.000000 2.167880 
# 
# From -- ./inp_files/4357.got.cif
#   From: 2010.05.17/outbox.cif.g08.bks.cpg/sg73_3_cif.got.tgz:4357.got - 2010.06.03 17:35:07.
