data_PCOD9533875
_publ_section_title
;
Structure prediction by ZEFSAII (Michael W. Deem and Ramdas Pophale) SiO2 
 PCOD9533875
Probable space group: I M M A
;
_chemical_formula_sum "Si O2"
_cell_formula_units_Z 60
_cell_length_a 23.375283
_cell_length_b 14.793623
_cell_length_c 7.611774
_cell_angle_alpha 90.000000
_cell_angle_beta 90.000000
_cell_angle_gamma 90.000000
_cell_volume 2632.190454
_symmetry_space_group_name_H-M "I M M A"
_symmetry_group_IT_number 74
_symmetry_cell_setting 'orthorhombic'
loop_
_space_group_symop_operation_xyz
x,y,z
-x,1/2-y,z
x,-y,-z
-x,1/2+y,-z
-x,-y,-z
x,1/2+y,-z
-x,y,z
x,1/2-y,z
1/2+x,1/2+y,1/2+z
1/2-x,-y,1/2+z
1/2+x,1/2-y,1/2-z
1/2-x,y,1/2-z
1/2-x,1/2-y,1/2-z
1/2+x,y,1/2-z
1/2-x,1/2+y,1/2+z
1/2+x,-y,1/2+z
loop_
_atom_site_type_symbol
_atom_site_label
_atom_site_fract_x
_atom_site_fract_y
_atom_site_fract_z
Si Si1 0.064802 0.750000 0.658847
Si Si2 0.779769 0.353671 0.052702
Si Si3 0.614120 0.434578 0.301283
Si Si4 0.194787 0.500000 0.500000
Si Si5 0.500000 0.250000 0.822519
Si Si6 0.500000 0.035407 0.786864
O O1 0.095755 0.838829 0.719390
O O2 0.000000 0.750000 0.733096
O O3 0.055169 0.750000 0.450808
O O4 0.784447 0.250000 0.997553
O O5 0.750000 0.352998 0.250000
O O6 0.841952 0.402079 0.047679
O O7 0.735024 0.415955 0.954215
O O8 0.654603 0.482761 0.163139
O O9 0.556218 0.492791 0.303665
O O10 0.500000 0.145002 0.755542
O O11 0.500000 0.000000 0.000000
#
# Coordination Sequence:
#
# PCOD9533875 Si02
#       6
#     8  16  16   8   4   8
#     4  10  16  26  49  80 105 123 166 206 269 310
#     4   9  19  33  52  74  97 138 182 217 249 297
#     4  11  18  31  52  78 107 131 171 220 256 311
#     4  10  20  31  48  73 106 138 170 210 260 296
#     4  10  18  26  42  74 116 132 154 186 274 336
#     4  12  18  30  48  81 104 136 160 209 279 318
#
# _framework density 22.794703999999999
#
# number of rings (size 3 to 8) (size 9 to 14) (size 15 to 20)
#    0.400    1.333    6.667    0.000    1.867    0.000 
#    2.400    0.000    2.933    3.200    0.000    0.000 
#    0.000    0.000    0.000    0.000    0.000    0.000 
#
# Total GULP energy -167275.347026 kJ/mol
# GULP energy per Si atom -5575.844901 kJ/mol
# Density = 2.274282 g / cm^3
# Si number density = 22.794704 Si / 1000 Ang^3
#
#
#
# Elastic Constant Matrix: (Units=GPa)
#
#
# Indices 1 2 3 4 5 6 
#
# 1 207.1697 105.6943 29.4638 0.0000 0.0000 0.0000
# 2 105.6943 230.0675 33.6284 0.0000 0.0000 0.0000
# 3 29.4638 33.6284 43.6665 0.0000 0.0000 0.0000
# 4 0.0000 0.0000 0.0000 19.8723 0.0000 0.0000
# 5 0.0000 0.0000 0.0000 0.0000 10.1410 0.0000
# 6 0.0000 0.0000 0.0000 0.0000 0.0000 25.3538
#
#
#
# Elastic Compliance Matrix: (Units=1/GPa)
#
#
# Indices 1 2 3 4 5 6 
#
# 1 0.006513 -0.002648 -0.002355 0.000000 0.000000 0.000000
# 2 -0.002648 0.005974 -0.002814 0.000000 0.000000 0.000000
# 3 -0.002355 -0.002814 0.026658 0.000000 0.000000 0.000000
# 4 0.000000 0.000000 0.000000 0.050321 0.000000 0.000000
# 5 0.000000 0.000000 0.000000 0.000000 0.098609 0.000000
# 6 0.000000 0.000000 0.000000 0.000000 0.000000 0.039442
#
#
# Mechanical properties :
#
#
# Convention : Reuss Voigt Hill
#
# Bulk Modulus (GPa) = 42.53582 90.94186 66.73884
# Shear Modulus (GPa) = 19.92122 31.88124 25.90123
#
# Velocity S-wave (km/s) = 2.95946 3.74388 3.37454
# Velocity P-wave (km/s) = 5.51169 7.65973 6.67271
#
# Compressibility (1/GPa) = 0.02350960
#
# Stress axis : x y z
#
# Youngs Moduli (GPa) = 153.54459 167.38369 37.51283
#
# Poissons Ratio (x) = 0.44318 0.08836
# Poissons Ratio (y) = 0.40654 0.10558
# Poissons Ratio (z) = 0.36166 0.47108
#
# Static dielectric constant tensor:
#      x y z
#    x 1.812570 0.000000 0.000000 
#    y 0.000000 1.826100 0.000000 
#    z 0.000000 0.000000 1.924520 
# 
# From -- ./inp_files/23384.got.cif
#   From: 2010.05.17/outbox.cif.g08.bks.cpg/sg74_12_cif.got.tgz:23384.got - 2010.06.03 17:57:02.
