data_PCOD9533858
_publ_section_title
;
Structure prediction by ZEFSAII (Michael W. Deem and Ramdas Pophale) SiO2 
 PCOD9533858
Probable space group: I M M A
;
_chemical_formula_sum "Si O2"
_cell_formula_units_Z 60
_cell_length_a 5.534885
_cell_length_b 13.916460
_cell_length_c 32.299224
_cell_angle_alpha 90.000000
_cell_angle_beta 90.000000
_cell_angle_gamma 90.000000
_cell_volume 2487.880212
_symmetry_space_group_name_H-M "I M M A"
_symmetry_group_IT_number 74
_symmetry_cell_setting 'orthorhombic'
loop_
_space_group_symop_operation_xyz
x,y,z
-x,1/2-y,z
x,-y,-z
-x,1/2+y,-z
-x,-y,-z
x,1/2+y,-z
-x,y,z
x,1/2-y,z
1/2+x,1/2+y,1/2+z
1/2-x,-y,1/2+z
1/2+x,1/2-y,1/2-z
1/2-x,y,1/2-z
1/2-x,1/2-y,1/2-z
1/2+x,y,1/2-z
1/2-x,1/2+y,1/2+z
1/2+x,-y,1/2+z
loop_
_atom_site_type_symbol
_atom_site_label
_atom_site_fract_x
_atom_site_fract_y
_atom_site_fract_z
Si Si1 0.500000 0.911247 0.467809
Si Si2 0.500000 0.146428 0.360325
Si Si3 0.500000 0.114113 0.095196
Si Si4 0.500000 0.584276 0.142821
Si Si5 0.000000 0.750000 0.723874
Si Si6 0.000000 0.039972 0.276142
Si Si7 0.000000 0.884327 0.498882
Si Si8 0.500000 0.927623 0.372140
O O1 0.249366 0.857106 0.476725
O O2 0.500000 0.000000 0.500000
O O3 0.500000 0.949827 0.421083
O O4 0.500000 0.250000 0.335552
O O5 0.251716 0.149650 0.385826
O O6 0.500000 0.031652 0.347072
O O7 0.500000 0.000994 0.107941
O O8 0.500000 0.139517 0.047154
O O9 0.500000 0.536995 0.187983
O O10 0.758811 0.630338 0.137505
O O11 0.250000 0.750000 0.750000
O O12 0.000000 0.853720 0.702418
O O13 0.250000 0.033902 0.250000
O O14 0.000000 0.000000 0.500000
#
# Coordination Sequence:
#
# PCOD9533858 Si02
#       8
#     8   8   8   8   4   8   8   8
#     4  10  16  25  41  58  76  96 116 137 177 219
#     4  10  18  29  39  50  73 101 122 146 178 213
#     4  10  19  30  41  57  79  91 123 153 180 227
#     4  10  18  30  42  55  73  94 109 146 191 216
#     4   8  16  30  44  54  66  78 104 152 192 222
#     4  10  19  32  45  56  68  87 117 150 191 236
#     4  10  16  25  41  59  73  97 115 141 177 218
#     4  10  19  30  40  59  80  94 119 150 177 231
#
# _framework density 24.116916
#
# number of rings (size 3 to 8) (size 9 to 14) (size 15 to 20)
#    0.000    2.133    0.000    9.200    0.000    0.000 
#    9.600    0.000    2.933    0.000    0.000    0.000 
#    0.000    0.000    0.000    0.000    0.000    0.000 
#
# Total GULP energy -167384.706729 kJ/mol
# GULP energy per Si atom -5579.490224 kJ/mol
# Density = 2.406202 g / cm^3
# Si number density = 24.116916 Si / 1000 Ang^3
#
#
#
# Elastic Constant Matrix: (Units=GPa)
#
#
# Indices 1 2 3 4 5 6 
#
# 1 297.5642 15.6237 53.6426 0.0000 0.0000 0.0000
# 2 15.6237 72.3578 4.4227 0.0000 0.0000 0.0000
# 3 53.6426 4.4227 107.7315 0.0000 0.0000 0.0000
# 4 0.0000 0.0000 0.0000 -7.4393 0.0000 0.0000
# 5 0.0000 0.0000 0.0000 0.0000 28.0682 0.0000
# 6 0.0000 0.0000 0.0000 0.0000 0.0000 -4.1745
#
#
#
# Elastic Compliance Matrix: (Units=1/GPa)
#
#
# Indices 1 2 3 4 5 6 
#
# 1 0.003726 -0.000693 -0.001827 0.000000 0.000000 0.000000
# 2 -0.000693 0.013984 -0.000229 0.000000 0.000000 0.000000
# 3 -0.001827 -0.000229 0.010201 0.000000 0.000000 0.000000
# 4 0.000000 0.000000 0.000000 -0.134422 0.000000 0.000000
# 5 0.000000 0.000000 0.000000 0.000000 0.035628 0.000000
# 6 0.000000 0.000000 0.000000 0.000000 0.000000 -0.239550
#
#
# Mechanical properties :
#
#
# Convention : Reuss Voigt Hill
#
# Bulk Modulus (GPa) = 44.61564 69.44794 57.03179
# Shear Modulus (GPa) = -16.80881 30.22185 6.70652
#
# Velocity S-wave (km/s) = -2.64289 3.54381 1.66939
# Velocity P-wave (km/s) = 3.03756 6.75305 5.23595
#
# Compressibility (1/GPa) = 0.02241366
#
# Stress axis : x y z
#
# Youngs Moduli (GPa) = 268.35822 71.51119 98.02515
#
# Poissons Ratio (x) = 0.04955 0.17909
# Poissons Ratio (y) = 0.18596 0.02245
# Poissons Ratio (z) = 0.49029 0.01638
#
# Static dielectric constant tensor:
#      x y z
#    x 2.040180 0.000000 0.000000 
#    y 0.000000 1.940990 0.000000 
#    z 0.000000 0.000000 1.895120 
# 
# From -- ./inp_files/54306.got.cif
#   From: 2010.05.17/outbox.cif.g08.bks.cpg/sg74_28_cif.got.tgz:54306.got - 2010.06.03 17:57:02.
