data_PCOD9533669
_publ_section_title
;
Structure prediction by ZEFSAII (Michael W. Deem and Ramdas Pophale) SiO2 
 PCOD9533669
Probable space group: I B C A 
;
_chemical_formula_sum "Si O2"
_cell_formula_units_Z 88
_cell_length_a 23.105768
_cell_length_b 12.187311
_cell_length_c 12.471276
_cell_angle_alpha 90.000000
_cell_angle_beta 90.000000
_cell_angle_gamma 90.000000
_cell_volume 3511.876159
_symmetry_space_group_name_H-M "I B C A "
_symmetry_group_IT_number 73
_symmetry_cell_setting 'orthorhombic'
loop_
_space_group_symop_operation_xyz
x,y,z
-x,1/2-y,z
x,-y,1/2-z
1/2-x,y,-z
-x,-y,-z
x,1/2+y,-z
-x,y,1/2+z
1/2+x,-y,z
1/2+x,1/2+y,1/2+z
1/2-x,-y,1/2+z
1/2+x,1/2-y,-z
-x,1/2+y,1/2-z
1/2-x,1/2-y,1/2-z
1/2+x,y,1/2-z
1/2-x,1/2+y,z
x,1/2-y,1/2+z
loop_
_atom_site_type_symbol
_atom_site_label
_atom_site_fract_x
_atom_site_fract_y
_atom_site_fract_z
Si Si1 0.967622 0.086894 0.572727
Si Si2 0.600760 0.757260 0.908305
Si Si3 0.313338 0.591161 0.523354
Si Si4 0.000000 0.250000 0.240856
Si Si5 0.185993 0.201689 0.731282
Si Si6 0.846509 0.934611 0.852341
O O1 0.935766 0.172325 0.492860
O O2 0.913653 0.035707 0.634817
O O3 0.007695 0.148068 0.659351
O O4 0.000000 0.000000 0.500000
O O5 0.553879 0.725607 0.817803
O O6 0.650796 0.817599 0.839875
O O7 0.635475 0.661336 0.968412
O O8 0.250000 0.641509 0.500000
O O9 0.318046 0.599990 0.650594
O O10 0.315729 0.476578 0.459876
O O11 0.250000 0.250000 0.750000
O O12 0.157669 0.306135 0.669827
O O13 0.821946 0.000000 0.750000
#
# Coordination Sequence:
#
# PCOD9533669 Si02
#       6
#    16  16  16   8  16  16
#     4  12  30  45  74 111 152 203 265 326 393 471
#     4  12  25  48  75 108 151 208 259 323 404 473
#     4  12  25  47  76 114 156 203 261 330 408 486
#     4  12  26  50  76 104 158 206 266 326 394 468
#     4  12  25  49  79 113 158 210 258 332 415 481
#     4  12  25  46  73 111 149 201 261 324 401 480
#
# _framework density 25.057829999999999
#
# number of rings (size 3 to 8) (size 9 to 14) (size 15 to 20)
#    0.000    0.000    7.273    0.545   10.182    2.182 
#    0.000    1.818    0.000    0.000    0.000    0.000 
#    0.000    0.000    0.000    0.000    0.000    0.000 
#
# Total GULP energy -246381.851613 kJ/mol
# GULP energy per Si atom -5599.587537 kJ/mol
# Density = 2.500080 g / cm^3
# Si number density = 25.057830 Si / 1000 Ang^3
#
#
#
# Elastic Constant Matrix: (Units=GPa)
#
#
# Indices 1 2 3 4 5 6 
#
# 1 131.0946 21.8296 34.9939 0.0000 0.0000 0.0000
# 2 21.8296 69.2952 40.1690 0.0000 0.0000 0.0000
# 3 34.9939 40.1690 144.9616 0.0000 0.0000 0.0000
# 4 0.0000 0.0000 0.0000 41.6543 0.0000 0.0000
# 5 0.0000 0.0000 0.0000 0.0000 53.4101 0.0000
# 6 0.0000 0.0000 0.0000 0.0000 0.0000 22.3388
#
#
#
# Elastic Compliance Matrix: (Units=1/GPa)
#
#
# Indices 1 2 3 4 5 6 
#
# 1 0.008325 -0.001737 -0.001529 0.000000 0.000000 0.000000
# 2 -0.001737 0.017555 -0.004445 0.000000 0.000000 0.000000
# 3 -0.001529 -0.004445 0.008499 0.000000 0.000000 0.000000
# 4 0.000000 0.000000 0.000000 0.024007 0.000000 0.000000
# 5 0.000000 0.000000 0.000000 0.000000 0.018723 0.000000
# 6 0.000000 0.000000 0.000000 0.000000 0.000000 0.044765
#
#
# Mechanical properties :
#
#
# Convention : Reuss Voigt Hill
#
# Bulk Modulus (GPa) = 52.74660 59.92625 56.33643
# Shear Modulus (GPa) = 34.81533 40.03791 37.42662
#
# Velocity S-wave (km/s) = 3.73151 4.00161 3.86892
# Velocity P-wave (km/s) = 6.29771 6.73184 6.51839
#
# Compressibility (1/GPa) = 0.01895857
#
# Stress axis : x y z
#
# Youngs Moduli (GPa) = 120.11616 56.96416 117.65878
#
# Poissons Ratio (x) = 0.09892 0.17984
# Poissons Ratio (y) = 0.20859 0.52302
# Poissons Ratio (z) = 0.18360 0.25322
#
# Static dielectric constant tensor:
#      x y z
#    x 1.994740 0.000000 0.000000 
#    y 0.000000 2.026090 0.000000 
#    z 0.000000 0.000000 2.009460 
# 
# From -- ./inp_files/19251.got.cif
#   From: 2010.05.17/outbox.cif.g08.bks.cpg/sg73_10_cif.got.tgz:19251.got - 2010.06.03 17:35:07.
