data_PCOD9533649
_publ_section_title
;
Structure prediction by ZEFSAII (Michael W. Deem and Ramdas Pophale) SiO2 
 PCOD9533649
Probable space group: I B C A 
;
_chemical_formula_sum "Si O2"
_cell_formula_units_Z 80
_cell_length_a 8.444820
_cell_length_b 17.694151
_cell_length_c 24.945987
_cell_angle_alpha 90.000000
_cell_angle_beta 90.000000
_cell_angle_gamma 90.000000
_cell_volume 3727.527172
_symmetry_space_group_name_H-M "I B C A "
_symmetry_group_IT_number 73
_symmetry_cell_setting 'orthorhombic'
loop_
_space_group_symop_operation_xyz
x,y,z
-x,1/2-y,z
x,-y,1/2-z
1/2-x,y,-z
-x,-y,-z
x,1/2+y,-z
-x,y,1/2+z
1/2+x,-y,z
1/2+x,1/2+y,1/2+z
1/2-x,-y,1/2+z
1/2+x,1/2-y,-z
-x,1/2+y,1/2-z
1/2-x,1/2-y,1/2-z
1/2+x,y,1/2-z
1/2-x,1/2+y,z
x,1/2-y,1/2+z
loop_
_atom_site_type_symbol
_atom_site_label
_atom_site_fract_x
_atom_site_fract_y
_atom_site_fract_z
Si Si1 0.227889 0.567714 0.865521
Si Si2 0.049743 0.328840 0.116197
Si Si3 0.468477 0.447608 0.201399
Si Si4 0.868405 0.030196 0.041163
Si Si5 0.331801 0.708054 0.299219
O O1 0.385708 0.581393 0.832741
O O2 0.286063 0.537289 0.924140
O O3 0.113806 0.639511 0.858516
O O4 0.138436 0.497419 0.838163
O O5 0.084883 0.403101 0.081091
O O6 0.198616 0.308821 0.154671
O O7 0.000000 0.250000 0.088391
O O8 0.522511 0.500000 0.250000
O O9 0.376232 0.375350 0.221708
O O10 0.750000 0.068097 0.000000
O O11 0.000000 0.000000 0.000000
O O12 0.500000 0.750000 0.314151
O O13 0.250000 0.750000 0.250000
#
# Coordination Sequence:
#
# PCOD9533649 Si02
#       5
#    16  16  16  16  16
#     4  12  24  48  77 109 153 200 257 331 383 479
#     4  12  27  51  74 110 157 195 255 329 399 465
#     4  12  26  42  73 109 146 204 263 310 388 473
#     4  12  24  49  82 112 150 199 264 326 399 471
#     4  12  29  48  72 106 157 210 255 320 394 471
#
# _framework density 21.461950999999999
#
# number of rings (size 3 to 8) (size 9 to 14) (size 15 to 20)
#    0.000    0.000    6.000    2.400   11.200    0.000 
#    3.600    0.000    0.000    0.000    0.000    0.000 
#    0.000    0.000    0.000    0.000    0.000    0.000 
#
# Total GULP energy -223301.514640 kJ/mol
# GULP energy per Si atom -5582.537866 kJ/mol
# Density = 2.141310 g / cm^3
# Si number density = 21.461951 Si / 1000 Ang^3
#
#
#
# Elastic Constant Matrix: (Units=GPa)
#
#
# Indices 1 2 3 4 5 6 
#
# 1 99.1082 44.3463 44.6645 0.0000 0.0000 0.0000
# 2 44.3463 139.7402 25.6181 0.0000 0.0000 0.0000
# 3 44.6645 25.6181 101.3143 0.0000 0.0000 0.0000
# 4 0.0000 0.0000 0.0000 24.9853 0.0000 0.0000
# 5 0.0000 0.0000 0.0000 0.0000 32.0370 0.0000
# 6 0.0000 0.0000 0.0000 0.0000 0.0000 42.6574
#
#
#
# Elastic Compliance Matrix: (Units=1/GPa)
#
#
# Indices 1 2 3 4 5 6 
#
# 1 0.014041 -0.003483 -0.005309 0.000000 0.000000 0.000000
# 2 -0.003483 0.008368 -0.000581 0.000000 0.000000 0.000000
# 3 -0.005309 -0.000581 0.012358 0.000000 0.000000 0.000000
# 4 0.000000 0.000000 0.000000 0.040024 0.000000 0.000000
# 5 0.000000 0.000000 0.000000 0.000000 0.031214 0.000000
# 6 0.000000 0.000000 0.000000 0.000000 0.000000 0.023443
#
#
# Mechanical properties :
#
#
# Convention : Reuss Voigt Hill
#
# Bulk Modulus (GPa) = 62.41624 63.26894 62.84259
# Shear Modulus (GPa) = 32.56649 34.97152 33.76901
#
# Velocity S-wave (km/s) = 3.89962 4.04104 3.97096
# Velocity P-wave (km/s) = 7.03004 7.16359 7.09713
#
# Compressibility (1/GPa) = 0.01602147
#
# Stress axis : x y z
#
# Youngs Moduli (GPa) = 71.22002 119.50647 80.92100
#
# Poissons Ratio (x) = 0.41618 0.42964
# Poissons Ratio (y) = 0.24803 0.04698
# Poissons Ratio (z) = 0.37814 0.06938
#
# Static dielectric constant tensor:
#      x y z
#    x 1.522070 0.000000 0.000000 
#    y 0.000000 1.776130 0.000000 
#    z 0.000000 0.000000 1.807230 
# 
# From -- ./inp_files/31110.got.cif
#   From: 2010.05.17/outbox.cif.g08.bks.cpg/sg73_16_cif.got.tgz:31110.got - 2010.06.03 17:35:07.
