data_PCOD9533756
_publ_section_title
;
Structure prediction by ZEFSAII (Michael W. Deem and Ramdas Pophale) SiO2 
 PCOD9533756
Probable space group: I B C A 
;
_chemical_formula_sum "Si O2"
_cell_formula_units_Z 56
_cell_length_a 30.000000
_cell_length_b 12.000000
_cell_length_c 15.000000
_cell_angle_alpha 90.000000
_cell_angle_beta 90.000000
_cell_angle_gamma 90.000000
_cell_volume 5400.000000
_symmetry_space_group_name_H-M "I B C A "
_symmetry_group_IT_number 73
_symmetry_cell_setting 'orthorhombic'
loop_
_space_group_symop_operation_xyz
x,y,z
-x,1/2-y,z
x,-y,1/2-z
1/2-x,y,-z
-x,-y,-z
x,1/2+y,-z
-x,y,1/2+z
1/2+x,-y,z
1/2+x,1/2+y,1/2+z
1/2-x,-y,1/2+z
1/2+x,1/2-y,-z
-x,1/2+y,1/2-z
1/2-x,1/2-y,1/2-z
1/2+x,y,1/2-z
1/2-x,1/2+y,z
x,1/2-y,1/2+z
loop_
_atom_site_type_symbol
_atom_site_label
_atom_site_fract_x
_atom_site_fract_y
_atom_site_fract_z
Si Si1 0.853821 0.907195 0.181703
Si Si2 0.563262 0.999504 0.934385
Si Si3 0.301506 0.685088 0.989472
Si Si4 0.023081 0.135020 0.099427
Si Si5 0.879513 0.148874 0.941962
Si Si6 0.674632 0.540512 0.659253
Si Si7 0.598377 0.806334 0.246212
O O1 0.816100 0.874638 0.106290
O O2 0.873734 0.809389 0.245899
O O3 0.836753 0.000000 0.250000
O O4 0.898353 0.948579 0.128651
O O5 0.517925 0.045726 0.887374
O O6 0.587609 0.101141 0.984589
O O7 0.550602 0.914997 0.015454
O O8 0.344650 0.767241 0.989190
O O9 0.250000 0.730327 0.000000
O O10 0.303569 0.611189 0.079678
O O11 0.054618 0.168929 0.184660
O O12 0.000000 0.250000 0.071926
O O13 0.908898 0.178603 0.853420
O O14 0.846240 0.060848 0.896141
O O15 0.700128 0.500000 0.750000
O O16 0.633997 0.609614 0.702804
#
# Coordination Sequence:
#
# PCOD9533756 Si02
#       7
#    16  16  16  16  16  16  16
#     4  11  24  44  70 102 144 187 226 291 374 428
#     4  11  24  44  66  96 136 186 234 282 359 412
#     4  11  25  43  72 108 136 179 241 296 357 436
#     4  11  24  41  64 100 137 178 240 297 327 422
#     4  10  22  43  71  92 137 186 231 285 359 420
#     4  10  21  43  72  98 134 188 225 278 362 431
#     4  10  22  42  66  97 132 185 234 279 354 418
#
# _framework density 10.370369999999999
#
# number of rings (size 3 to 8) (size 9 to 14) (size 15 to 20)
#    0.000    1.429    2.857    0.857    8.000    1.143 
#   12.857    6.429    0.000    0.000    0.000    0.000 
#    0.000    0.000    0.000    0.000    0.000    0.000 
#
# Total GULP energy -311757.956254 kJ/mol
# GULP energy per Si atom -5567.106362 kJ/mol
# Density = 1.034677 g / cm^3
# Si number density = 10.370370 Si / 1000 Ang^3
#
#
#
# Elastic Constant Matrix: (Units=GPa)
#
#
# Indices 1 2 3 4 5 6 
#
# 1 83.3571 15.6339 33.7505 0.0000 0.0000 0.0000
# 2 15.6339 71.0143 33.1144 0.0000 0.0000 0.0000
# 3 33.7505 33.1144 93.6326 0.0000 0.0000 0.0000
# 4 0.0000 0.0000 0.0000 36.9579 0.0000 0.0000
# 5 0.0000 0.0000 0.0000 0.0000 23.2823 0.0000
# 6 0.0000 0.0000 0.0000 0.0000 0.0000 14.4881
#
#
#
# Elastic Compliance Matrix: (Units=1/GPa)
#
#
# Indices 1 2 3 4 5 6 
#
# 1 0.014092 -0.000879 -0.004769 0.000000 0.000000 0.000000
# 2 -0.000879 0.016917 -0.005666 0.000000 0.000000 0.000000
# 3 -0.004769 -0.005666 0.014403 0.000000 0.000000 0.000000
# 4 0.000000 0.000000 0.000000 0.027058 0.000000 0.000000
# 5 0.000000 0.000000 0.000000 0.000000 0.042951 0.000000
# 6 0.000000 0.000000 0.000000 0.000000 0.000000 0.069022
#
#
# Mechanical properties :
#
#
# Convention : Reuss Voigt Hill
#
# Bulk Modulus (GPa) = 43.88885 45.88907 44.88896
# Shear Modulus (GPa) = 23.29197 25.97935 24.63566
#
# Velocity S-wave (km/s) = 3.35476 3.54301 3.45017
# Velocity P-wave (km/s) = 6.01769 6.23782 6.12874
#
# Compressibility (1/GPa) = 0.02278483
#
# Stress axis : x y z
#
# Youngs Moduli (GPa) = 70.96094 59.11096 69.43003
#
# Poissons Ratio (x) = 0.05194 0.33111
# Poissons Ratio (y) = 0.06235 0.39341
# Poissons Ratio (z) = 0.33841 0.33494
#
# Static dielectric constant tensor:
#      x y z
#    x 1.718980 0.000000 0.000000 
#    y 0.000000 1.902390 0.000000 
#    z 0.000000 0.000000 1.755320 
# 
# From -- ./inp_files/20054.got.cif
#   From: 2010.05.17/outbox.ucp.g08.bks.cvg/sg73_11_cif.got.tgz:20054.got - 2010.06.11 16:36:03.
