data_PCOD9533406
_publ_section_title
;
Structure prediction by ZEFSAII (Michael W. Deem and Ramdas Pophale) SiO2 
 PCOD9533406
Probable space group: I B C A 
;
_chemical_formula_sum "Si O2"
_cell_formula_units_Z 48
_cell_length_a 9.986355
_cell_length_b 23.684622
_cell_length_c 8.068565
_cell_angle_alpha 90.000000
_cell_angle_beta 90.000000
_cell_angle_gamma 90.000000
_cell_volume 1908.401549
_symmetry_space_group_name_H-M "I B C A "
_symmetry_group_IT_number 73
_symmetry_cell_setting 'orthorhombic'
loop_
_space_group_symop_operation_xyz
x,y,z
-x,1/2-y,z
x,-y,1/2-z
1/2-x,y,-z
-x,-y,-z
x,1/2+y,-z
-x,y,1/2+z
1/2+x,-y,z
1/2+x,1/2+y,1/2+z
1/2-x,-y,1/2+z
1/2+x,1/2-y,-z
-x,1/2+y,1/2-z
1/2-x,1/2-y,1/2-z
1/2+x,y,1/2-z
1/2-x,1/2+y,z
x,1/2-y,1/2+z
loop_
_atom_site_type_symbol
_atom_site_label
_atom_site_fract_x
_atom_site_fract_y
_atom_site_fract_z
Si Si1 0.386834 0.295389 0.427220
Si Si2 0.396518 0.040196 0.398370
Si Si3 0.941607 0.623632 0.163921
O O1 0.500000 0.250000 0.382779
O O2 0.250000 0.270865 0.500000
O O3 0.351536 0.333423 0.268477
O O4 0.458422 0.337648 0.556712
O O5 0.358374 0.077791 0.562063
O O6 0.470677 0.087241 0.290196
O O7 0.332584 0.000000 0.250000
O O8 0.500000 0.000000 0.500000
#
# Coordination Sequence:
#
# PCOD9533406 Si02
#       3
#    16  16  16
#     4  11  24  41  62  92 129 174 227 281 337 397
#     4   8  14  30  60  90 122 168 213 255 318 402
#     4   9  19  35  59  90 124 170 216 266 325 394
#
# _framework density 25.15194
#
# number of rings (size 3 to 8) (size 9 to 14) (size 15 to 20)
#    0.000    2.667    0.000    1.000    0.000    5.333 
#    0.000    5.000    0.000  100.000    0.000    2.333 
#    0.000    0.000    0.000    3.000    0.000    0.000 
#
# Total GULP energy -133642.423141 kJ/mol
# GULP energy per Si atom -5568.434298 kJ/mol
# Density = 2.509469 g / cm^3
# Si number density = 25.151940 Si / 1000 Ang^3
#
#
#
# Elastic Constant Matrix: (Units=GPa)
#
#
# Indices 1 2 3 4 5 6 
#
# 1 17.1634 11.4223 -17.1959 0.0014 -0.0005 0.0024
# 2 11.4223 129.8444 46.1607 0.0005 -0.0004 0.0012
# 3 -17.1959 46.1607 108.0906 0.0032 -0.0044 0.0052
# 4 0.0014 0.0005 0.0032 79.9718 -0.0011 0.0023
# 5 -0.0005 -0.0004 -0.0044 -0.0011 10.1276 -0.0013
# 6 0.0024 0.0012 0.0052 0.0023 -0.0013 -56.2664
#
#
#
# Elastic Compliance Matrix: (Units=1/GPa)
#
#
# Indices 1 2 3 4 5 6 
#
# 1 0.089046 -0.015173 0.020646 -0.000002 0.000013 0.000005
# 2 -0.015173 0.011666 -0.007396 0.000000 -0.000004 -0.000001
# 3 0.020646 -0.007396 0.015694 -0.000001 0.000008 0.000002
# 4 -0.000002 0.000000 -0.000001 0.012504 0.000001 0.000001
# 5 0.000013 -0.000004 0.000008 0.000001 0.098740 -0.000002
# 6 0.000005 -0.000001 0.000002 0.000001 -0.000002 -0.017773
#
#
# Mechanical properties :
#
#
# Convention : Reuss Voigt Hill
#
# Bulk Modulus (GPa) = 8.88412 37.31920 23.10166
# Shear Modulus (GPa) = 19.90102 21.08069 20.49085
#
# Velocity S-wave (km/s) = 2.81594 2.89819 2.85736
# Velocity P-wave (km/s) = 3.75666 5.10579 4.48228
#
# Compressibility (1/GPa) = 0.11256035
#
# Stress axis : x y z
#
# Youngs Moduli (GPa) = 11.23013 85.72277 63.71707
#
# Poissons Ratio (x) = 1.30068 -1.31550
# Poissons Ratio (y) = 0.17040 0.47123
# Poissons Ratio (z) = -0.23186 0.63398
#
# Static dielectric constant tensor:
#      x y z
#    x 1.797390 0.000000 0.000000 
#    y 0.000000 1.987800 0.000000 
#    z 0.000000 0.000000 2.040640 
# 
# From -- ./inp_files/3455.got.cif
#   From: 2010.05.17/outbox.cif.g08.bks.cpg/sg73_2_cif.got.tgz:3455.got - 2010.06.03 17:35:07.
