data_PCOD9533810
_publ_section_title
;
Structure prediction by ZEFSAII (Michael W. Deem and Ramdas Pophale) SiO2 
 PCOD9533810
Probable space group: I M M A
;
_chemical_formula_sum "Si O2"
_cell_formula_units_Z 88
_cell_length_a 14.708456
_cell_length_b 10.847174
_cell_length_c 22.898561
_cell_angle_alpha 90.000000
_cell_angle_beta 90.000000
_cell_angle_gamma 90.000000
_cell_volume 3653.355071
_symmetry_space_group_name_H-M "I M M A"
_symmetry_group_IT_number 74
_symmetry_cell_setting 'orthorhombic'
loop_
_space_group_symop_operation_xyz
x,y,z
-x,1/2-y,z
x,-y,-z
-x,1/2+y,-z
-x,-y,-z
x,1/2+y,-z
-x,y,z
x,1/2-y,z
1/2+x,1/2+y,1/2+z
1/2-x,-y,1/2+z
1/2+x,1/2-y,1/2-z
1/2-x,y,1/2-z
1/2-x,1/2-y,1/2-z
1/2+x,y,1/2-z
1/2-x,1/2+y,1/2+z
1/2+x,-y,1/2+z
loop_
_atom_site_type_symbol
_atom_site_label
_atom_site_fract_x
_atom_site_fract_y
_atom_site_fract_z
Si Si1 0.655071 0.750000 0.685444
Si Si2 0.000000 0.615772 0.457596
Si Si3 0.148315 0.750000 0.637014
Si Si4 0.342775 0.606175 0.384036
Si Si5 0.637957 0.000000 0.500000
Si Si6 0.201620 0.750000 0.946822
Si Si7 0.365219 0.028045 0.863708
Si Si8 0.641281 0.513306 0.262759
O O1 0.733672 0.750000 0.817067
O O2 0.641567 0.750000 0.614107
O O3 0.619883 0.627574 0.717481
O O4 0.000000 0.500000 0.500000
O O5 0.914819 0.599916 0.414439
O O6 0.000000 0.750000 0.486210
O O7 0.195915 0.750000 0.574287
O O8 0.105802 0.616021 0.639809
O O9 0.329823 0.750000 0.395656
O O10 0.398445 0.541940 0.436346
O O11 0.243085 0.539807 0.377573
O O12 0.383287 0.589976 0.319790
O O13 0.686662 0.126471 0.482518
O O14 0.391289 0.068669 0.798401
O O15 0.750000 0.513389 0.250000
#
# Coordination Sequence:
#
# PCOD9533810 Si02
#       8
#     8   8   8  16   8   8  16  16
#     4  10  14  31  50  88 116 141 176 224 297 361
#     4  12  32  54  64  80 110 157 216 265 298 337
#     4  10  17  33  57  87 105 144 188 235 295 353
#     4  11  21  30  51  81 110 146 185 233 287 361
#     4  12  18  30  44  73 114 151 182 204 268 336
#     4  10  18  28  46  72 116 155 179 207 268 331
#     4  11  23  39  61  78 107 145 192 249 299 345
#     4  10  17  31  54  84 107 138 178 233 300 360
#
# _framework density 24.087448999999999
#
# number of rings (size 3 to 8) (size 9 to 14) (size 15 to 20)
#    0.545    0.727    8.182    1.364    2.545    4.000 
#    0.000    0.000    0.000    0.000    0.000    0.000 
#    0.000    0.727    0.000    1.273    0.000    0.000 
#
# Total GULP energy -245261.926746 kJ/mol
# GULP energy per Si atom -5574.134699 kJ/mol
# Density = 2.403263 g / cm^3
# Si number density = 24.087449 Si / 1000 Ang^3
#
#
#
# Elastic Constant Matrix: (Units=GPa)
#
#
# Indices 1 2 3 4 5 6 
#
# 1 68.2072 7.1126 19.7419 0.0000 0.0000 0.0000
# 2 7.1126 145.5653 55.0564 0.0000 0.0000 0.0000
# 3 19.7419 55.0564 186.0637 0.0000 0.0000 0.0000
# 4 0.0000 0.0000 0.0000 48.1840 0.0000 0.0000
# 5 0.0000 0.0000 0.0000 0.0000 5.5633 0.0000
# 6 0.0000 0.0000 0.0000 0.0000 0.0000 -4.5495
#
#
#
# Elastic Compliance Matrix: (Units=1/GPa)
#
#
# Indices 1 2 3 4 5 6 
#
# 1 0.015129 -0.000149 -0.001561 0.000000 0.000000 0.000000
# 2 -0.000149 0.007737 -0.002274 0.000000 0.000000 0.000000
# 3 -0.001561 -0.002274 0.006213 0.000000 0.000000 0.000000
# 4 0.000000 0.000000 0.000000 0.020754 0.000000 0.000000
# 5 0.000000 0.000000 0.000000 0.000000 0.179750 0.000000
# 6 0.000000 0.000000 0.000000 0.000000 0.000000 -0.219804
#
#
# Mechanical properties :
#
#
# Convention : Reuss Voigt Hill
#
# Bulk Modulus (GPa) = 47.36766 62.62867 54.99816
# Shear Modulus (GPa) = 201.75815 31.03458 116.39636
#
# Velocity S-wave (km/s) = 9.16202 3.59334 6.95897
# Velocity P-wave (km/s) = 11.47305 6.57823 9.35158
#
# Compressibility (1/GPa) = 0.02111145
#
# Stress axis : x y z
#
# Youngs Moduli (GPa) = 66.10001 129.24962 160.95524
#
# Poissons Ratio (x) = 0.01922 0.25128
# Poissons Ratio (y) = 0.00983 0.36595
# Poissons Ratio (z) = 0.10319 0.29386
#
# Static dielectric constant tensor:
#      x y z
#    x 2.059640 0.000000 0.000000 
#    y 0.000000 1.929860 0.000000 
#    z 0.000000 0.000000 1.998760 
# 
# From -- ./inp_files/52941.got.cif
#   From: 2010.05.17/outbox.cif.g08.bks.cpg/sg74_27_cif.got.tgz:52941.got - 2010.06.03 17:57:02.
