data_PCOD9533360
_publ_section_title
;
Structure prediction by ZEFSAII (Michael W. Deem and Ramdas Pophale) SiO2 
 PCOD9533360
Probable space group: I B C A 
;
_chemical_formula_sum "Si O2"
_cell_formula_units_Z 64
_cell_length_a 23.047800
_cell_length_b 12.452624
_cell_length_c 9.894044
_cell_angle_alpha 90.000000
_cell_angle_beta 90.000000
_cell_angle_gamma 90.000000
_cell_volume 2839.645910
_symmetry_space_group_name_H-M "I B C A "
_symmetry_group_IT_number 73
_symmetry_cell_setting 'orthorhombic'
loop_
_space_group_symop_operation_xyz
x,y,z
-x,1/2-y,z
x,-y,1/2-z
1/2-x,y,-z
-x,-y,-z
x,1/2+y,-z
-x,y,1/2+z
1/2+x,-y,z
1/2+x,1/2+y,1/2+z
1/2-x,-y,1/2+z
1/2+x,1/2-y,-z
-x,1/2+y,1/2-z
1/2-x,1/2-y,1/2-z
1/2+x,y,1/2-z
1/2-x,1/2+y,z
x,1/2-y,1/2+z
loop_
_atom_site_type_symbol
_atom_site_label
_atom_site_fract_x
_atom_site_fract_y
_atom_site_fract_z
Si Si1 0.677342 0.000000 0.750000
Si Si2 0.897268 0.637504 0.092574
Si Si3 0.235483 0.161528 0.360628
Si Si4 0.918295 0.162049 0.223152
Si Si5 0.522149 0.500000 0.750000
O O1 0.720819 0.938998 0.650437
O O2 0.632197 0.908630 0.796553
O O3 0.830685 0.623763 0.137392
O O4 0.921112 0.730037 0.191677
O O5 0.936170 0.533293 0.125861
O O6 0.900732 0.670798 0.935098
O O7 0.250000 0.218799 0.500000
O O8 0.250000 0.250000 0.250000
O O9 0.978237 0.097524 0.222693
#
# Coordination Sequence:
#
# PCOD9533360 Si02
#       5
#     8  16  16  16   8
#     4  11  23  44  66 104 145 183 236 290 350 425
#     4  12  24  49  71 106 143 194 239 292 372 416
#     4  12  24  46  72 108 143 188 237 293 360 431
#     4  11  26  47  72 103 147 187 241 304 352 428
#     4  11  27  44  74 106 141 189 250 298 352 427
#
# _framework density 22.538019999999999
#
# number of rings (size 3 to 8) (size 9 to 14) (size 15 to 20)
#    0.000    0.500    5.000    2.250    0.000    9.000 
#    9.000    0.000    0.000    0.000    0.000    0.000 
#    0.000    0.000    0.000    0.000    0.000    0.000 
#
# Total GULP energy -178804.058413 kJ/mol
# GULP energy per Si atom -5587.626825 kJ/mol
# Density = 2.248672 g / cm^3
# Si number density = 22.538020 Si / 1000 Ang^3
#
#
#
# Elastic Constant Matrix: (Units=GPa)
#
#
# Indices 1 2 3 4 5 6 
#
# 1 194.8390 62.7192 41.0781 0.0000 0.0000 0.0000
# 2 62.7192 68.0364 36.2841 0.0000 0.0000 0.0000
# 3 41.0781 36.2841 131.3747 0.0000 0.0000 0.0000
# 4 0.0000 0.0000 0.0000 26.4818 0.0000 0.0000
# 5 0.0000 0.0000 0.0000 0.0000 22.7226 0.0000
# 6 0.0000 0.0000 0.0000 0.0000 0.0000 42.3032
#
#
#
# Elastic Compliance Matrix: (Units=1/GPa)
#
#
# Indices 1 2 3 4 5 6 
#
# 1 0.007326 -0.006487 -0.000499 0.000000 0.000000 0.000000
# 2 -0.006487 0.022982 -0.004319 0.000000 0.000000 0.000000
# 3 -0.000499 -0.004319 0.008961 0.000000 0.000000 0.000000
# 4 0.000000 0.000000 0.000000 0.037762 0.000000 0.000000
# 5 0.000000 0.000000 0.000000 0.000000 0.044009 0.000000
# 6 0.000000 0.000000 0.000000 0.000000 0.000000 0.023639
#
#
# Mechanical properties :
#
#
# Convention : Reuss Voigt Hill
#
# Bulk Modulus (GPa) = 60.03113 74.93479 67.48296
# Shear Modulus (GPa) = 28.92843 35.24612 32.08727
#
# Velocity S-wave (km/s) = 3.58654 3.95885 3.77728
# Velocity P-wave (km/s) = 6.62150 7.36322 7.00219
#
# Compressibility (1/GPa) = 0.01665802
#
# Stress axis : x y z
#
# Youngs Moduli (GPa) = 136.50182 43.51321 111.59933
#
# Poissons Ratio (x) = 0.28228 0.05568
# Poissons Ratio (y) = 0.88553 0.48197
# Poissons Ratio (z) = 0.06811 0.18792
#
# Static dielectric constant tensor:
#      x y z
#    x 1.848080 0.000000 0.000000 
#    y 0.000000 1.856290 0.000000 
#    z 0.000000 0.000000 1.826760 
# 
# From -- ./inp_files/6868.got.cif
#   From: 2010.05.17/outbox.cif.g08.bks.cpg/sg73_4_cif.got.tgz:6868.got - 2010.06.03 17:35:07.
