data_PCOD9533401
_publ_section_title
;
Structure prediction by ZEFSAII (Michael W. Deem and Ramdas Pophale) SiO2 
 PCOD9533401
Probable space group: I B C A 
;
_chemical_formula_sum "Si O2"
_cell_formula_units_Z 88
_cell_length_a 23.600802
_cell_length_b 7.856907
_cell_length_c 21.743849
_cell_angle_alpha 90.000000
_cell_angle_beta 90.000000
_cell_angle_gamma 90.000000
_cell_volume 4031.946839
_symmetry_space_group_name_H-M "I B C A "
_symmetry_group_IT_number 73
_symmetry_cell_setting 'orthorhombic'
loop_
_space_group_symop_operation_xyz
x,y,z
-x,1/2-y,z
x,-y,1/2-z
1/2-x,y,-z
-x,-y,-z
x,1/2+y,-z
-x,y,1/2+z
1/2+x,-y,z
1/2+x,1/2+y,1/2+z
1/2-x,-y,1/2+z
1/2+x,1/2-y,-z
-x,1/2+y,1/2-z
1/2-x,1/2-y,1/2-z
1/2+x,y,1/2-z
1/2-x,1/2+y,z
x,1/2-y,1/2+z
loop_
_atom_site_type_symbol
_atom_site_label
_atom_site_fract_x
_atom_site_fract_y
_atom_site_fract_z
Si Si1 0.891643 0.753135 0.515212
Si Si2 0.539670 0.414848 0.619180
Si Si3 0.000000 0.750000 0.929449
Si Si4 0.803699 0.268500 0.093696
Si Si5 0.350561 0.062851 0.683235
Si Si6 0.682244 0.393395 0.113022
O O1 0.915163 0.896557 0.562282
O O2 0.946054 0.731808 0.472971
O O3 0.839267 0.764807 0.468301
O O4 0.870066 0.615574 0.565047
O O5 0.500000 0.250000 0.619418
O O6 0.500911 0.579357 0.610095
O O7 0.581301 0.431023 0.676658
O O8 0.739208 0.322109 0.081040
O O9 0.807091 0.088827 0.130002
O O10 0.828558 0.422476 0.134285
O O11 0.329823 0.252694 0.665299
O O12 0.332638 0.000000 0.750000
#
# Coordination Sequence:
#
# PCOD9533401 Si02
#       6
#    16  16   8  16  16  16
#     4  11  24  39  69 102 144 179 220 274 352 428
#     4  11  25  42  67 100 135 182 227 281 349 406
#     4  12  22  40  64 100 140 180 218 280 344 418
#     4  12  24  45  67 105 137 183 228 282 355 412
#     4  11  27  50  68  96 137 184 244 290 338 411
#     4  11  26  43  69 102 140 184 224 288 351 413
#
# _framework density 21.825686000000001
#
# number of rings (size 3 to 8) (size 9 to 14) (size 15 to 20)
#    0.000    0.727    4.545    2.182    7.636    2.909 
#    1.636    0.000    0.000    0.000    0.000    0.000 
#    0.000    0.000    0.000    0.000    0.000    0.000 
#
# Total GULP energy -245567.789014 kJ/mol
# GULP energy per Si atom -5581.086114 kJ/mol
# Density = 2.177601 g / cm^3
# Si number density = 21.825686 Si / 1000 Ang^3
#
#
#
# Elastic Constant Matrix: (Units=GPa)
#
#
# Indices 1 2 3 4 5 6 
#
# 1 115.9882 17.7899 8.5801 0.0000 0.0000 0.0000
# 2 17.7899 148.2950 9.9026 0.0000 0.0000 0.0000
# 3 8.5801 9.9026 49.0977 0.0000 0.0000 0.0000
# 4 0.0000 0.0000 0.0000 195.9667 0.0000 0.0000
# 5 0.0000 0.0000 0.0000 0.0000 10.4823 0.0000
# 6 0.0000 0.0000 0.0000 0.0000 0.0000 34.2506
#
#
#
# Elastic Compliance Matrix: (Units=1/GPa)
#
#
# Indices 1 2 3 4 5 6 
#
# 1 0.008871 -0.000974 -0.001354 0.000000 0.000000 0.000000
# 2 -0.000974 0.006942 -0.001230 0.000000 0.000000 0.000000
# 3 -0.001354 -0.001230 0.020852 0.000000 0.000000 0.000000
# 4 0.000000 0.000000 0.000000 0.005103 0.000000 0.000000
# 5 0.000000 0.000000 0.000000 0.000000 0.095399 0.000000
# 6 0.000000 0.000000 0.000000 0.000000 0.000000 0.029197
#
#
# Mechanical properties :
#
#
# Convention : Reuss Voigt Hill
#
# Bulk Modulus (GPa) = 33.84067 42.88067 38.36067
# Shear Modulus (GPa) = 27.27324 66.61378 46.94351
#
# Velocity S-wave (km/s) = 3.53879 5.53056 4.64274
# Velocity P-wave (km/s) = 5.67768 7.77639 6.80839
#
# Compressibility (1/GPa) = 0.02955024
#
# Stress axis : x y z
#
# Youngs Moduli (GPa) = 112.72588 144.04509 47.95646
#
# Poissons Ratio (x) = 0.14027 0.06493
# Poissons Ratio (y) = 0.10977 0.05899
# Poissons Ratio (z) = 0.15262 0.17718
#
# Static dielectric constant tensor:
#      x y z
#    x 1.806650 0.000000 0.000000 
#    y 0.000000 1.814470 0.000000 
#    z 0.000000 0.000000 1.793100 
# 
# From -- ./inp_files/27199.got.cif
#   From: 2010.05.17/outbox.cif.g08.bks.cpg/sg73_14_cif.got.tgz:27199.got - 2010.06.03 17:35:07.
