data_PCOD9533309
_publ_section_title
;
Structure prediction by ZEFSAII (Michael W. Deem and Ramdas Pophale) SiO2 
 PCOD9533309
Probable space group: I B C A 
;
_chemical_formula_sum "Si O2"
_cell_formula_units_Z 120
_cell_length_a 19.124239
_cell_length_b 26.872132
_cell_length_c 11.511932
_cell_angle_alpha 90.000000
_cell_angle_beta 90.000000
_cell_angle_gamma 90.000000
_cell_volume 5916.086323
_symmetry_space_group_name_H-M "I B C A "
_symmetry_group_IT_number 73
_symmetry_cell_setting 'orthorhombic'
loop_
_space_group_symop_operation_xyz
x,y,z
-x,1/2-y,z
x,-y,1/2-z
1/2-x,y,-z
-x,-y,-z
x,1/2+y,-z
-x,y,1/2+z
1/2+x,-y,z
1/2+x,1/2+y,1/2+z
1/2-x,-y,1/2+z
1/2+x,1/2-y,-z
-x,1/2+y,1/2-z
1/2-x,1/2-y,1/2-z
1/2+x,y,1/2-z
1/2-x,1/2+y,z
x,1/2-y,1/2+z
loop_
_atom_site_type_symbol
_atom_site_label
_atom_site_fract_x
_atom_site_fract_y
_atom_site_fract_z
Si Si1 0.883615 0.639447 0.827513
Si Si2 0.874788 0.833622 0.896817
Si Si3 0.012065 0.024636 0.872461
Si Si4 0.168514 0.454019 0.310965
Si Si5 0.013006 0.193159 0.283232
Si Si6 0.991365 0.129728 0.971823
Si Si7 0.790870 0.764892 0.375267
Si Si8 0.250000 0.605434 0.000000
O O1 0.847692 0.591236 0.775072
O O2 0.826906 0.681631 0.856316
O O3 0.940231 0.665156 0.742224
O O4 0.933943 0.621222 0.930459
O O5 0.922097 0.832325 0.781483
O O6 0.850826 0.776151 0.901434
O O7 0.802104 0.861675 0.920690
O O8 0.930306 0.860283 0.982397
O O9 0.989428 0.082319 0.886785
O O10 0.095192 0.024886 0.856652
O O11 0.984563 0.000000 0.750000
O O12 0.000000 0.000000 0.000000
O O13 0.206821 0.500000 0.250000
O O14 0.207481 0.429711 0.416459
O O15 0.028346 0.182998 0.416811
O O16 0.000000 0.250000 0.251940
O O17 0.750000 0.766063 0.500000
O O18 0.750000 0.750000 0.250000
#
# Coordination Sequence:
#
# PCOD9533309 Si02
#       8
#    16  16  16  16  16  16  16   8
#     4  11  24  45  66 102 140 184 230 299 350 426
#     4  11  24  40  67  98 136 186 233 282 345 430
#     4  11  23  42  72 104 134 176 230 295 360 423
#     4  11  24  47  70  94 138 183 231 295 365 413
#     4  11  23  38  65 100 141 178 229 285 356 409
#     4  11  24  40  69 102 136 179 237 290 365 418
#     4  12  28  45  69 103 142 192 241 285 351 431
#     4  12  22  46  72  92 136 188 242 278 356 444
#
# _framework density 20.28368
#
# number of rings (size 3 to 8) (size 9 to 14) (size 15 to 20)
#    0.000    0.800    4.667    2.400    7.467    0.000 
#    1.200    2.000    0.000    0.000    0.000    0.000 
#    0.000    0.000    0.000    0.000    0.000    0.000 
#
# Total GULP energy -334140.844081 kJ/mol
# GULP energy per Si atom -5569.014068 kJ/mol
# Density = 2.023751 g / cm^3
# Si number density = 20.283680 Si / 1000 Ang^3
#
#
#
# Elastic Constant Matrix: (Units=GPa)
#
#
# Indices 1 2 3 4 5 6 
#
# 1 69.4460 30.8864 35.7411 0.0000 0.0000 0.0000
# 2 30.8864 123.8387 48.3333 0.0000 0.0000 0.0000
# 3 35.7411 48.3333 98.4609 0.0000 0.0000 0.0000
# 4 0.0000 0.0000 0.0000 4.6130 0.0000 0.0000
# 5 0.0000 0.0000 0.0000 0.0000 -24.0813 0.0000
# 6 0.0000 0.0000 0.0000 0.0000 0.0000 30.6258
#
#
#
# Elastic Compliance Matrix: (Units=1/GPa)
#
#
# Indices 1 2 3 4 5 6 
#
# 1 0.018284 -0.002437 -0.005441 0.000000 0.000000 0.000000
# 2 -0.002437 0.010313 -0.004178 0.000000 0.000000 0.000000
# 3 -0.005441 -0.004178 0.014182 0.000000 0.000000 0.000000
# 4 0.000000 0.000000 0.000000 0.216780 0.000000 0.000000
# 5 0.000000 0.000000 0.000000 0.000000 -0.041526 0.000000
# 6 0.000000 0.000000 0.000000 0.000000 0.000000 0.032652
#
#
# Mechanical properties :
#
#
# Convention : Reuss Voigt Hill
#
# Bulk Modulus (GPa) = 53.56740 57.96302 55.76521
# Shear Modulus (GPa) = 17.79233 14.01714 15.90474
#
# Velocity S-wave (km/s) = 2.96493 2.63164 2.80324
# Velocity P-wave (km/s) = 6.17960 6.15405 6.16684
#
# Compressibility (1/GPa) = 0.01866807
#
# Stress axis : x y z
#
# Youngs Moduli (GPa) = 54.69408 96.96047 70.50993
#
# Poissons Ratio (x) = 0.23625 0.38363
# Poissons Ratio (y) = 0.13327 0.29461
# Poissons Ratio (z) = 0.29758 0.40513
#
# Static dielectric constant tensor:
#      x y z
#    x 1.672950 0.000000 0.000000 
#    y 0.000000 1.763330 0.000000 
#    z 0.000000 0.000000 1.826760 
# 
# From -- ./inp_files/12258.got.cif
#   From: 2010.05.17/outbox.cif.g08.bks.cpg/sg73_7_cif.got.tgz:12258.got - 2010.06.03 17:35:07.
