data_PCOD9533351
_publ_section_title
;
Structure prediction by ZEFSAII (Michael W. Deem and Ramdas Pophale) SiO2 
 PCOD9533351
Probable space group: I B C A 
;
_chemical_formula_sum "Si O2"
_cell_formula_units_Z 72
_cell_length_a 16.009733
_cell_length_b 24.514257
_cell_length_c 7.776978
_cell_angle_alpha 90.000000
_cell_angle_beta 90.000000
_cell_angle_gamma 90.000000
_cell_volume 3052.204964
_symmetry_space_group_name_H-M "I B C A "
_symmetry_group_IT_number 73
_symmetry_cell_setting 'orthorhombic'
loop_
_space_group_symop_operation_xyz
x,y,z
-x,1/2-y,z
x,-y,1/2-z
1/2-x,y,-z
-x,-y,-z
x,1/2+y,-z
-x,y,1/2+z
1/2+x,-y,z
1/2+x,1/2+y,1/2+z
1/2-x,-y,1/2+z
1/2+x,1/2-y,-z
-x,1/2+y,1/2-z
1/2-x,1/2-y,1/2-z
1/2+x,y,1/2-z
1/2-x,1/2+y,z
x,1/2-y,1/2+z
loop_
_atom_site_type_symbol
_atom_site_label
_atom_site_fract_x
_atom_site_fract_y
_atom_site_fract_z
Si Si1 0.539164 0.191625 0.561256
Si Si2 0.250000 0.117882 0.500000
Si Si3 0.082109 0.619062 0.360597
Si Si4 0.674826 0.356064 0.866290
Si Si5 0.443387 0.040278 0.880893
O O1 0.500000 0.250000 0.588788
O O2 0.589495 0.166895 0.721565
O O3 0.465228 0.149215 0.516312
O O4 0.603943 0.189211 0.402696
O O5 0.167676 0.091221 0.581921
O O6 0.289924 0.145855 0.671544
O O7 0.017723 0.574746 0.292365
O O8 0.625691 0.412807 0.918420
O O9 0.750000 0.349563 0.000000
O O10 0.398520 0.000000 0.750000
O O11 0.500000 0.000000 0.000000
#
# Coordination Sequence:
#
# PCOD9533351 Si02
#       5
#    16   8  16  16  16
#     4  11  23  46  75 104 143 203 251 303 385 469
#     4  12  24  44  74 108 152 200 238 322 388 438
#     4  11  23  43  70 104 152 191 248 317 376 453
#     4  11  24  48  74 110 155 197 249 323 384 446
#     4  11  23  44  70 105 142 201 254 298 378 461
#
# _framework density 23.589504999999999
#
# number of rings (size 3 to 8) (size 9 to 14) (size 15 to 20)
#    0.000    0.889    2.222    7.333    0.000    0.000 
#   10.000    3.333    0.000    0.000    0.000    0.000 
#    0.000    0.000    0.000    0.000    0.000    0.000 
#
# Total GULP energy -200579.070524 kJ/mol
# GULP energy per Si atom -5571.640848 kJ/mol
# Density = 2.353581 g / cm^3
# Si number density = 23.589505 Si / 1000 Ang^3
#
#
#
# Elastic Constant Matrix: (Units=GPa)
#
#
# Indices 1 2 3 4 5 6 
#
# 1 142.3416 23.4154 24.7915 0.0000 0.0000 0.0000
# 2 23.4154 106.1231 27.8642 0.0000 0.0000 0.0000
# 3 24.7915 27.8642 118.6573 0.0000 0.0000 0.0000
# 4 0.0000 0.0000 0.0000 21.7652 0.0000 0.0000
# 5 0.0000 0.0000 0.0000 0.0000 49.3275 0.0000
# 6 0.0000 0.0000 0.0000 0.0000 0.0000 18.0866
#
#
#
# Elastic Compliance Matrix: (Units=1/GPa)
#
#
# Indices 1 2 3 4 5 6 
#
# 1 0.007460 -0.001318 -0.001249 0.000000 0.000000 0.000000
# 2 -0.001318 0.010275 -0.002138 0.000000 0.000000 0.000000
# 3 -0.001249 -0.002138 0.009191 0.000000 0.000000 0.000000
# 4 0.000000 0.000000 0.000000 0.045945 0.000000 0.000000
# 5 0.000000 0.000000 0.000000 0.000000 0.020273 0.000000
# 6 0.000000 0.000000 0.000000 0.000000 0.000000 0.055290
#
#
# Mechanical properties :
#
#
# Convention : Reuss Voigt Hill
#
# Bulk Modulus (GPa) = 57.09005 57.69600 57.39302
# Shear Modulus (GPa) = 30.54732 37.23924 33.89328
#
# Velocity S-wave (km/s) = 3.60245 3.97752 3.79462
# Velocity P-wave (km/s) = 6.44651 6.75319 6.60163
#
# Compressibility (1/GPa) = 0.01751619
#
# Stress axis : x y z
#
# Youngs Moduli (GPa) = 134.05339 97.32304 108.80733
#
# Poissons Ratio (x) = 0.12827 0.13591
# Poissons Ratio (y) = 0.17668 0.23258
# Poissons Ratio (z) = 0.16744 0.20803
#
# Static dielectric constant tensor:
#      x y z
#    x 1.872500 0.000000 0.000000 
#    y 0.000000 1.884220 0.000000 
#    z 0.000000 0.000000 2.044500 
# 
# From -- ./inp_files/4800.got.cif
#   From: 2010.05.17/outbox.cif.g08.bks.cpg/sg73_3_cif.got.tgz:4800.got - 2010.06.03 17:35:07.
