data_PCOD9533446
_publ_section_title
;
Structure prediction by ZEFSAII (Michael W. Deem and Ramdas Pophale) SiO2 
 PCOD9533446
Probable space group: I B C A 
;
_chemical_formula_sum "Si O2"
_cell_formula_units_Z 80
_cell_length_a 14.700211
_cell_length_b 20.038950
_cell_length_c 11.947385
_cell_angle_alpha 90.000000
_cell_angle_beta 90.000000
_cell_angle_gamma 90.000000
_cell_volume 3519.422361
_symmetry_space_group_name_H-M "I B C A "
_symmetry_group_IT_number 73
_symmetry_cell_setting 'orthorhombic'
loop_
_space_group_symop_operation_xyz
x,y,z
-x,1/2-y,z
x,-y,1/2-z
1/2-x,y,-z
-x,-y,-z
x,1/2+y,-z
-x,y,1/2+z
1/2+x,-y,z
1/2+x,1/2+y,1/2+z
1/2-x,-y,1/2+z
1/2+x,1/2-y,-z
-x,1/2+y,1/2-z
1/2-x,1/2-y,1/2-z
1/2+x,y,1/2-z
1/2-x,1/2+y,z
x,1/2-y,1/2+z
loop_
_atom_site_type_symbol
_atom_site_label
_atom_site_fract_x
_atom_site_fract_y
_atom_site_fract_z
Si Si1 0.152880 0.416322 0.304312
Si Si2 0.404155 0.790916 0.782987
Si Si3 0.665874 0.962230 0.559773
Si Si4 0.950599 0.058705 0.842657
Si Si5 0.749131 0.210088 0.622795
O O1 0.130224 0.429661 0.173999
O O2 0.206710 0.471039 0.378886
O O3 0.206369 0.348428 0.303668
O O4 0.055797 0.422500 0.363640
O O5 0.500000 0.750000 0.791479
O O6 0.413975 0.870404 0.796397
O O7 0.349171 0.774306 0.668467
O O8 0.327922 0.766970 0.872238
O O9 0.750000 0.926255 0.500000
O O10 0.594245 0.964389 0.459209
O O11 0.942255 0.000000 0.750000
O O12 0.750000 0.182354 0.500000
#
# Coordination Sequence:
#
# PCOD9533446 Si02
#       5
#    16  16  16  16  16
#     4  11  24  45  70 112 145 195 251 297 377 448
#     4  11  26  50  73 106 148 196 253 307 374 453
#     4  11  25  42  70 105 154 192 243 310 368 444
#     4  12  26  45  75 108 151 195 250 310 377 447
#     4  11  26  47  77 108 147 197 254 309 372 452
#
# _framework density 22.731003999999999
#
# number of rings (size 3 to 8) (size 9 to 14) (size 15 to 20)
#    0.000    0.800    4.000    2.400    8.400    4.800 
#    0.000    0.000    0.000    0.000    0.000    0.000 
#    0.000    0.000    0.000    0.000    0.000    0.000 
#
# Total GULP energy -222861.008317 kJ/mol
# GULP energy per Si atom -5571.525208 kJ/mol
# Density = 2.267927 g / cm^3
# Si number density = 22.731004 Si / 1000 Ang^3
#
#
#
# Elastic Constant Matrix: (Units=GPa)
#
#
# Indices 1 2 3 4 5 6 
#
# 1 109.7247 22.3274 33.4152 0.0000 0.0000 0.0000
# 2 22.3274 121.7277 7.9158 0.0000 0.0000 0.0000
# 3 33.4152 7.9158 116.5363 0.0000 0.0000 0.0000
# 4 0.0000 0.0000 0.0000 12.7538 0.0000 0.0000
# 5 0.0000 0.0000 0.0000 0.0000 30.3094 0.0000
# 6 0.0000 0.0000 0.0000 0.0000 0.0000 22.5915
#
#
#
# Elastic Compliance Matrix: (Units=1/GPa)
#
#
# Indices 1 2 3 4 5 6 
#
# 1 0.010328 -0.001709 -0.002845 0.000000 0.000000 0.000000
# 2 -0.001709 0.008534 -0.000090 0.000000 0.000000 0.000000
# 3 -0.002845 -0.000090 0.009403 0.000000 0.000000 0.000000
# 4 0.000000 0.000000 0.000000 0.078408 0.000000 0.000000
# 5 0.000000 0.000000 0.000000 0.000000 0.032993 0.000000
# 6 0.000000 0.000000 0.000000 0.000000 0.000000 0.044264
#
#
# Mechanical properties :
#
#
# Convention : Reuss Voigt Hill
#
# Bulk Modulus (GPa) = 52.69555 52.81172 52.75364
# Shear Modulus (GPa) = 25.05701 32.08630 28.57166
#
# Velocity S-wave (km/s) = 3.32373 3.76116 3.54919
# Velocity P-wave (km/s) = 6.16134 6.49196 6.32881
#
# Compressibility (1/GPa) = 0.01897693
#
# Stress axis : x y z
#
# Youngs Moduli (GPa) = 96.82372 117.17269 106.34955
#
# Poissons Ratio (x) = 0.20029 0.30260
# Poissons Ratio (y) = 0.16551 0.00953
# Poissons Ratio (z) = 0.27549 0.01050
#
# Static dielectric constant tensor:
#      x y z
#    x 1.900220 0.000000 0.000000 
#    y 0.000000 2.029250 0.000000 
#    z 0.000000 0.000000 1.854750 
# 
# From -- ./inp_files/10797.got.cif
#   From: 2010.05.17/outbox.cif.g08.bks.cpg/sg73_6_cif.got.tgz:10797.got - 2010.06.03 17:35:07.
