data_PCOD9533911
_publ_section_title
;
Structure prediction by ZEFSAII (Michael W. Deem and Ramdas Pophale) SiO2 
 PCOD9533911
Probable space group: I M M A
;
_chemical_formula_sum "Si O2"
_cell_formula_units_Z 84
_cell_length_a 11.549514
_cell_length_b 19.554774
_cell_length_c 23.078935
_cell_angle_alpha 90.000000
_cell_angle_beta 90.000000
_cell_angle_gamma 90.000000
_cell_volume 5212.334452
_symmetry_space_group_name_H-M "I M M A"
_symmetry_group_IT_number 74
_symmetry_cell_setting 'orthorhombic'
loop_
_space_group_symop_operation_xyz
x,y,z
-x,1/2-y,z
x,-y,-z
-x,1/2+y,-z
-x,-y,-z
x,1/2+y,-z
-x,y,z
x,1/2-y,z
1/2+x,1/2+y,1/2+z
1/2-x,-y,1/2+z
1/2+x,1/2-y,1/2-z
1/2-x,y,1/2-z
1/2-x,1/2-y,1/2-z
1/2+x,y,1/2-z
1/2-x,1/2+y,1/2+z
1/2+x,-y,1/2+z
loop_
_atom_site_type_symbol
_atom_site_label
_atom_site_fract_x
_atom_site_fract_y
_atom_site_fract_z
Si Si1 0.000000 0.109404 0.005358
Si Si2 0.138076 0.023352 0.591642
Si Si3 0.136066 0.750000 0.365279
Si Si4 0.739620 0.750000 0.006773
Si Si5 0.500000 0.250000 0.487720
Si Si6 0.263724 0.596009 0.977583
Si Si7 0.500000 0.666243 0.372275
Si Si8 0.759151 0.616546 0.181931
O O1 0.000000 0.135728 0.938215
O O2 0.000000 0.178394 0.044663
O O3 0.873983 0.078190 0.017194
O O4 0.175442 0.070429 0.536743
O O5 0.206580 0.053677 0.645884
O O6 0.000000 0.026391 0.599136
O O7 0.179452 0.947708 0.573448
O O8 0.176111 0.750000 0.432029
O O9 0.183961 0.817101 0.334477
O O10 0.000000 0.750000 0.363230
O O11 0.877137 0.750000 0.020094
O O12 0.719351 0.822075 0.974765
O O13 0.500000 0.750000 0.369344
O O14 0.613184 0.636604 0.340534
O O15 0.750000 0.604347 0.250000
#
# Coordination Sequence:
#
# PCOD9533911 Si02
#       8
#     8  16   8   8   4  16   8  16
#     4  10  16  30  52  77 110 135 179 213 274 322
#     4  11  23  39  52  73 111 145 182 223 278 324
#     4  12  23  35  52  78 113 146 186 223 260 315
#     4  10  18  33  55  86 110 147 181 220 272 330
#     4   8  14  26  48  74 110 138 166 212 262 302
#     4  10  20  33  55  81 108 145 179 222 275 329
#     4  12  22  37  55  80 114 143 189 230 270 309
#     4  12  26  39  56  77 104 151 194 231 269 313
#
# _framework density 16.11562
#
# number of rings (size 3 to 8) (size 9 to 14) (size 15 to 20)
#    0.000    1.143    5.238    3.143    2.667    3.048 
#    0.000    0.000    0.000    0.000    0.000    0.667 
#    0.000    0.000    0.000    0.000    0.000    0.000 
#
# Total GULP energy -234193.479146 kJ/mol
# GULP energy per Si atom -5576.035218 kJ/mol
# Density = 1.607894 g / cm^3
# Si number density = 16.115620 Si / 1000 Ang^3
#
#
#
# Elastic Constant Matrix: (Units=GPa)
#
#
# Indices 1 2 3 4 5 6 
#
# 1 146.3326 43.0862 43.1269 0.0000 0.0000 0.0000
# 2 43.0862 122.5237 47.9832 0.0000 0.0000 0.0000
# 3 43.1269 47.9832 74.9189 0.0000 0.0000 0.0000
# 4 0.0000 0.0000 0.0000 -3.9043 0.0000 0.0000
# 5 0.0000 0.0000 0.0000 0.0000 -2.2215 0.0000
# 6 0.0000 0.0000 0.0000 0.0000 0.0000 30.8714
#
#
#
# Elastic Compliance Matrix: (Units=1/GPa)
#
#
# Indices 1 2 3 4 5 6 
#
# 1 0.008410 -0.001417 -0.003934 0.000000 0.000000 0.000000
# 2 -0.001417 0.011133 -0.006315 0.000000 0.000000 0.000000
# 3 -0.003934 -0.006315 0.019657 0.000000 0.000000 0.000000
# 4 0.000000 0.000000 0.000000 -0.256130 0.000000 0.000000
# 5 0.000000 0.000000 0.000000 0.000000 -0.450145 0.000000
# 6 0.000000 0.000000 0.000000 0.000000 0.000000 0.032392
#
#
# Mechanical properties :
#
#
# Convention : Reuss Voigt Hill
#
# Bulk Modulus (GPa) = 63.01608 68.01865 65.51737
# Shear Modulus (GPa) = -8.24999 18.92106 5.33554
#
# Velocity S-wave (km/s) = -2.26503 3.43021 1.82153
# Velocity P-wave (km/s) = 5.68743 7.61490 6.72062
#
# Compressibility (1/GPa) = 0.01586896
#
# Stress axis : x y z
#
# Youngs Moduli (GPa) = 118.90124 89.82367 50.87343
#
# Poissons Ratio (x) = 0.12727 0.20013
# Poissons Ratio (y) = 0.16848 0.32125
# Poissons Ratio (z) = 0.46774 0.56720
#
# Static dielectric constant tensor:
#      x y z
#    x 1.562390 0.000000 0.000000 
#    y 0.000000 1.599700 0.000000 
#    z 0.000000 0.000000 1.519600 
# 
# From -- ./inp_files/50746.got.cif
#   From: 2010.05.17/outbox.cif.g08.bks.cpg/sg74_26_cif.got.tgz:50746.got - 2010.06.03 17:57:02.
