data_PCOD9533166
_publ_section_title
;
Structure prediction by ZEFSAII (Michael W. Deem and Ramdas Pophale) SiO2 
 PCOD9533166
Probable space group: I B C A 
;
_chemical_formula_sum "Si O2"
_cell_formula_units_Z 72
_cell_length_a 22.258827
_cell_length_b 28.581947
_cell_length_c 4.882113
_cell_angle_alpha 90.000000
_cell_angle_beta 90.000000
_cell_angle_gamma 90.000000
_cell_volume 3106.003286
_symmetry_space_group_name_H-M "I B C A "
_symmetry_group_IT_number 73
_symmetry_cell_setting 'orthorhombic'
loop_
_space_group_symop_operation_xyz
x,y,z
-x,1/2-y,z
x,-y,1/2-z
1/2-x,y,-z
-x,-y,-z
x,1/2+y,-z
-x,y,1/2+z
1/2+x,-y,z
1/2+x,1/2+y,1/2+z
1/2-x,-y,1/2+z
1/2+x,1/2-y,-z
-x,1/2+y,1/2-z
1/2-x,1/2-y,1/2-z
1/2+x,y,1/2-z
1/2-x,1/2+y,z
x,1/2-y,1/2+z
loop_
_atom_site_type_symbol
_atom_site_label
_atom_site_fract_x
_atom_site_fract_y
_atom_site_fract_z
Si Si1 0.165408 0.277895 0.098595
Si Si2 0.689212 0.378678 0.654713
Si Si3 0.460489 0.187817 0.186156
Si Si4 0.385547 0.094695 0.175934
Si Si5 0.953727 0.000000 0.250000
O O1 0.185016 0.264625 0.403486
O O2 0.094858 0.285637 0.169710
O O3 0.184595 0.324269 0.936753
O O4 0.750000 0.395367 0.500000
O O5 0.636862 0.402932 0.486147
O O6 0.669154 0.389196 0.968653
O O7 0.517528 0.196918 0.379378
O O8 0.437011 0.134283 0.161604
O O9 0.411360 0.043144 0.157748
O O10 0.000000 0.000000 0.500000
#
# Coordination Sequence:
#
# PCOD9533166 Si02
#       5
#    16  16  16  16   8
#     4  11  23  38  58  90 124 162 223 279 319 386
#     4  11  24  44  67  90 128 176 218 272 336 385
#     4  11  21  36  58  84 124 169 204 253 324 389
#     4  11  23  42  65  98 130 164 219 266 320 400
#     4  12  24  42  72 104 136 168 208 266 328 392
#
# _framework density 23.180916
#
# number of rings (size 3 to 8) (size 9 to 14) (size 15 to 20)
#    0.000    0.889    0.000   10.000    0.000    3.556 
#    0.000    2.222    0.000    0.000    0.000    0.000 
#    0.000    0.000    0.000    0.000    0.000    0.000 
#
# Total GULP energy -200554.158868 kJ/mol
# GULP energy per Si atom -5570.948857 kJ/mol
# Density = 2.312816 g / cm^3
# Si number density = 23.180916 Si / 1000 Ang^3
#
#
#
# Elastic Constant Matrix: (Units=GPa)
#
#
# Indices 1 2 3 4 5 6 
#
# 1 63.5668 40.3050 10.0619 0.0000 0.0000 0.0000
# 2 40.3050 113.2147 19.3842 0.0000 0.0000 0.0000
# 3 10.0619 19.3842 142.4102 0.0000 0.0000 0.0000
# 4 0.0000 0.0000 0.0000 3.0951 0.0000 0.0000
# 5 0.0000 0.0000 0.0000 0.0000 15.9333 0.0000
# 6 0.0000 0.0000 0.0000 0.0000 0.0000 -9.8583
#
#
#
# Elastic Compliance Matrix: (Units=1/GPa)
#
#
# Indices 1 2 3 4 5 6 
#
# 1 0.020347 -0.007165 -0.000462 0.000000 0.000000 0.000000
# 2 -0.007165 0.011566 -0.001068 0.000000 0.000000 0.000000
# 3 -0.000462 -0.001068 0.007200 0.000000 0.000000 0.000000
# 4 0.000000 0.000000 0.000000 0.323090 0.000000 0.000000
# 5 0.000000 0.000000 0.000000 0.000000 0.062762 0.000000
# 6 0.000000 0.000000 0.000000 0.000000 0.000000 -0.101437
#
#
# Mechanical properties :
#
#
# Convention : Reuss Voigt Hill
#
# Bulk Modulus (GPa) = 46.03327 50.96599 48.49963
# Shear Modulus (GPa) = 14.36121 18.46339 16.41230
#
# Velocity S-wave (km/s) = 2.49173 2.82528 2.66373
# Velocity P-wave (km/s) = 5.30845 5.71637 5.51618
#
# Compressibility (1/GPa) = 0.02172342
#
# Stress axis : x y z
#
# Youngs Moduli (GPa) = 49.14625 86.45815 138.88826
#
# Poissons Ratio (x) = 0.61944 0.06423
# Poissons Ratio (y) = 0.35211 0.14835
# Poissons Ratio (z) = 0.02273 0.09235
#
# Static dielectric constant tensor:
#      x y z
#    x 1.887270 0.000000 0.000000 
#    y 0.000000 1.945830 0.000000 
#    z 0.000000 0.000000 1.788570 
# 
# From -- ./inp_files/1701.got.cif
#   From: 2010.05.17/outbox.cif.g08.bks.cpg/sg73_1_cif.got.tgz:1701.got - 2010.06.03 17:35:07.
