data_PCOD9533337
_publ_section_title
;
Structure prediction by ZEFSAII (Michael W. Deem and Ramdas Pophale) SiO2 
 PCOD9533337
Probable space group: I B C A 
;
_chemical_formula_sum "Si O2"
_cell_formula_units_Z 80
_cell_length_a 8.358649
_cell_length_b 24.024841
_cell_length_c 17.759259
_cell_angle_alpha 90.000000
_cell_angle_beta 90.000000
_cell_angle_gamma 90.000000
_cell_volume 3566.329382
_symmetry_space_group_name_H-M "I B C A "
_symmetry_group_IT_number 73
_symmetry_cell_setting 'orthorhombic'
loop_
_space_group_symop_operation_xyz
x,y,z
-x,1/2-y,z
x,-y,1/2-z
1/2-x,y,-z
-x,-y,-z
x,1/2+y,-z
-x,y,1/2+z
1/2+x,-y,z
1/2+x,1/2+y,1/2+z
1/2-x,-y,1/2+z
1/2+x,1/2-y,-z
-x,1/2+y,1/2-z
1/2-x,1/2-y,1/2-z
1/2+x,y,1/2-z
1/2-x,1/2+y,z
x,1/2-y,1/2+z
loop_
_atom_site_type_symbol
_atom_site_label
_atom_site_fract_x
_atom_site_fract_y
_atom_site_fract_z
Si Si1 0.216146 0.070581 0.587573
Si Si2 0.185601 0.172409 0.329564
Si Si3 0.681411 0.270194 0.917144
Si Si4 0.682963 0.864401 0.832670
Si Si5 0.472694 0.480295 0.664356
O O1 0.250000 0.065658 0.500000
O O2 0.212962 0.134516 0.612287
O O3 0.363646 0.046059 0.635551
O O4 0.069366 0.033004 0.613155
O O5 0.224742 0.235020 0.353270
O O6 0.241766 0.152996 0.247283
O O7 0.997723 0.159786 0.337633
O O8 0.500000 0.250000 0.913935
O O9 0.710757 0.334556 0.895975
O O10 0.750000 0.258957 0.000000
O O11 0.659366 0.930786 0.839765
O O12 0.484533 0.500000 0.750000
#
# Coordination Sequence:
#
# PCOD9533337 Si02
#       5
#    16  16  16  16  16
#     4  11  24  40  66  98 137 180 228 291 349 409
#     4  11  23  43  66  97 136 178 234 280 349 408
#     4  12  26  45  69  99 139 179 224 285 351 415
#     4  11  24  41  69  99 132 185 233 285 339 419
#     4  11  23  42  67  98 136 181 234 286 345 415
#
# _framework density 22.432027999999999
#
# number of rings (size 3 to 8) (size 9 to 14) (size 15 to 20)
#    0.000    0.800    2.000    5.400    2.800    4.000 
#    0.000    0.000    0.000    0.000    0.000    0.000 
#    0.000    0.000    0.000    0.000    0.000    0.000 
#
# Total GULP energy -223981.614259 kJ/mol
# GULP energy per Si atom -5599.540356 kJ/mol
# Density = 2.238097 g / cm^3
# Si number density = 22.432028 Si / 1000 Ang^3
#
#
#
# Elastic Constant Matrix: (Units=GPa)
#
#
# Indices 1 2 3 4 5 6 
#
# 1 79.8930 14.2207 -2.4956 0.0000 0.0000 0.0000
# 2 14.2207 90.3711 7.1110 0.0000 0.0000 0.0000
# 3 -2.4956 7.1110 49.3610 0.0000 0.0000 0.0000
# 4 0.0000 0.0000 0.0000 22.9073 0.0000 0.0000
# 5 0.0000 0.0000 0.0000 0.0000 15.9550 0.0000
# 6 0.0000 0.0000 0.0000 0.0000 0.0000 34.3393
#
#
#
# Elastic Compliance Matrix: (Units=1/GPa)
#
#
# Indices 1 2 3 4 5 6 
#
# 1 0.012922 -0.002109 0.000957 0.000000 0.000000 0.000000
# 2 -0.002109 0.011536 -0.001769 0.000000 0.000000 0.000000
# 3 0.000957 -0.001769 0.020562 0.000000 0.000000 0.000000
# 4 0.000000 0.000000 0.000000 0.043654 0.000000 0.000000
# 5 0.000000 0.000000 0.000000 0.000000 0.062676 0.000000
# 6 0.000000 0.000000 0.000000 0.000000 0.000000 0.029121
#
#
# Mechanical properties :
#
#
# Convention : Reuss Voigt Hill
#
# Bulk Modulus (GPa) = 25.52310 28.58858 27.05584
# Shear Modulus (GPa) = 25.07868 28.02625 26.55247
#
# Velocity S-wave (km/s) = 3.34726 3.53850 3.44421
# Velocity P-wave (km/s) = 5.13240 5.42834 5.28244
#
# Compressibility (1/GPa) = 0.03918019
#
# Stress axis : x y z
#
# Youngs Moduli (GPa) = 77.38747 86.68162 48.63325
#
# Poissons Ratio (x) = 0.18279 -0.04655
# Poissons Ratio (y) = 0.16319 0.08601
# Poissons Ratio (z) = -0.07407 0.15330
#
# Static dielectric constant tensor:
#      x y z
#    x 1.841000 0.000000 0.000000 
#    y 0.000000 1.857160 0.000000 
#    z 0.000000 0.000000 1.755710 
# 
# From -- ./inp_files/7722.got.cif
#   From: 2010.05.17/outbox.cif.g08.bks.cpg/sg73_4_cif.got.tgz:7722.got - 2010.06.03 17:35:07.
