data_PCOD9533086
_publ_section_title
;
Structure prediction by ZEFSAII (Michael W. Deem and Ramdas Pophale) SiO2 
 PCOD9533086
Probable space group: I B C A 
;
_chemical_formula_sum "Si O2"
_cell_formula_units_Z 112
_cell_length_a 32.308550
_cell_length_b 14.106759
_cell_length_c 11.565067
_cell_angle_alpha 90.000000
_cell_angle_beta 90.000000
_cell_angle_gamma 90.000000
_cell_volume 5270.998194
_symmetry_space_group_name_H-M "I B C A "
_symmetry_group_IT_number 73
_symmetry_cell_setting 'orthorhombic'
loop_
_space_group_symop_operation_xyz
x,y,z
-x,1/2-y,z
x,-y,1/2-z
1/2-x,y,-z
-x,-y,-z
x,1/2+y,-z
-x,y,1/2+z
1/2+x,-y,z
1/2+x,1/2+y,1/2+z
1/2-x,-y,1/2+z
1/2+x,1/2-y,-z
-x,1/2+y,1/2-z
1/2-x,1/2-y,1/2-z
1/2+x,y,1/2-z
1/2-x,1/2+y,z
x,1/2-y,1/2+z
loop_
_atom_site_type_symbol
_atom_site_label
_atom_site_fract_x
_atom_site_fract_y
_atom_site_fract_z
Si Si1 0.725003 0.000000 0.750000
Si Si2 0.000000 0.250000 0.359892
Si Si3 0.791638 0.352558 0.924557
Si Si4 0.426165 0.684669 0.495006
Si Si5 0.618231 0.872775 0.970281
Si Si6 0.934324 0.108311 0.246132
Si Si7 0.721029 0.143491 0.113063
Si Si8 0.867628 0.049977 0.875241
O O1 0.700640 0.947948 0.851287
O O2 0.754012 0.915417 0.706938
O O3 0.971908 0.314652 0.443119
O O4 0.969244 0.183658 0.286080
O O5 0.834600 0.338547 0.991511
O O6 0.786466 0.253436 0.856676
O O7 0.750000 0.367177 0.000000
O O8 0.412188 0.792432 0.517603
O O9 0.421809 0.631491 0.615657
O O10 0.397035 0.640064 0.395640
O O11 0.603845 0.883318 0.836902
O O12 0.615874 0.971074 0.036688
O O13 0.949693 0.000000 0.250000
O O14 0.678259 0.087720 0.095473
O O15 0.750000 0.143718 0.000000
O O16 0.867410 0.000000 0.750000
#
# Coordination Sequence:
#
# PCOD9533086 Si02
#       8
#     8   8  16  16  16  16  16  16
#     4  12  22  40  64  92 132 172 232 284 348 398
#     4  10  26  46  72 108 144 178 226 286 360 432
#     4  11  25  43  64  96 135 182 231 287 344 407
#     4  11  25  48  70 105 142 181 231 294 353 427
#     4  11  25  44  70 101 141 184 237 289 351 419
#     4  11  24  47  75 105 140 184 234 285 351 424
#     4  11  24  43  64  95 136 181 234 287 343 416
#     4  12  25  44  71 102 141 189 237 293 357 418
#
# _framework density 21.248348
#
# number of rings (size 3 to 8) (size 9 to 14) (size 15 to 20)
#    0.000    0.857    3.571    3.000    5.000    2.286 
#    0.000    0.000    0.000    0.000    0.000    0.000 
#    0.000    0.000    0.000    0.000    0.000    0.000 
#
# Total GULP energy -312820.544972 kJ/mol
# GULP energy per Si atom -5586.081160 kJ/mol
# Density = 2.119999 g / cm^3
# Si number density = 21.248348 Si / 1000 Ang^3
#
#
#
# Elastic Constant Matrix: (Units=GPa)
#
#
# Indices 1 2 3 4 5 6 
#
# 1 91.4468 2.3083 24.1245 0.0000 0.0000 0.0000
# 2 2.3083 109.3105 32.3406 0.0000 0.0000 0.0000
# 3 24.1245 32.3406 82.4136 0.0000 0.0000 0.0000
# 4 0.0000 0.0000 0.0000 37.0291 0.0000 0.0000
# 5 0.0000 0.0000 0.0000 0.0000 13.7661 0.0000
# 6 0.0000 0.0000 0.0000 0.0000 0.0000 42.2666
#
#
#
# Elastic Compliance Matrix: (Units=1/GPa)
#
#
# Indices 1 2 3 4 5 6 
#
# 1 0.011925 0.000884 -0.003838 0.000000 0.000000 0.000000
# 2 0.000884 0.010415 -0.004346 0.000000 0.000000 0.000000
# 3 -0.003838 -0.004346 0.014963 0.000000 0.000000 0.000000
# 4 0.000000 0.000000 0.000000 0.027006 0.000000 0.000000
# 5 0.000000 0.000000 0.000000 0.000000 0.072642 0.000000
# 6 0.000000 0.000000 0.000000 0.000000 0.000000 0.023659
#
#
# Mechanical properties :
#
#
# Convention : Reuss Voigt Hill
#
# Bulk Modulus (GPa) = 44.04563 44.52419 44.28491
# Shear Modulus (GPa) = 27.35554 33.57219 30.46386
#
# Velocity S-wave (km/s) = 3.59196 3.97922 3.79054
# Velocity P-wave (km/s) = 6.16253 6.48937 6.32806
#
# Compressibility (1/GPa) = 0.02270373
#
# Stress axis : x y z
#
# Youngs Moduli (GPa) = 83.85458 96.01216 66.83304
#
# Poissons Ratio (x) = -0.08483 0.25648
# Poissons Ratio (y) = -0.07409 0.29044
# Poissons Ratio (z) = 0.32180 0.41725
#
# Static dielectric constant tensor:
#      x y z
#    x 1.747630 0.000000 0.000000 
#    y 0.000000 1.777250 0.000000 
#    z 0.000000 0.000000 1.839670 
# 
# From -- ./inp_files/14855.got.cif
#   From: 2010.05.17/outbox.cif.g08.bks.cpg/sg73_8_cif.got.tgz:14855.got - 2010.06.03 17:35:07.
