data_PCOD9533486
_publ_section_title
;
Structure prediction by ZEFSAII (Michael W. Deem and Ramdas Pophale) SiO2 
 PCOD9533486
Probable space group: I B C A 
;
_chemical_formula_sum "Si O2"
_cell_formula_units_Z 48
_cell_length_a 9.422939
_cell_length_b 21.141201
_cell_length_c 9.528939
_cell_angle_alpha 90.000000
_cell_angle_beta 90.000000
_cell_angle_gamma 90.000000
_cell_volume 1898.281354
_symmetry_space_group_name_H-M "I B C A "
_symmetry_group_IT_number 73
_symmetry_cell_setting 'orthorhombic'
loop_
_space_group_symop_operation_xyz
x,y,z
-x,1/2-y,z
x,-y,1/2-z
1/2-x,y,-z
-x,-y,-z
x,1/2+y,-z
-x,y,1/2+z
1/2+x,-y,z
1/2+x,1/2+y,1/2+z
1/2-x,-y,1/2+z
1/2+x,1/2-y,-z
-x,1/2+y,1/2-z
1/2-x,1/2-y,1/2-z
1/2+x,y,1/2-z
1/2-x,1/2+y,z
x,1/2-y,1/2+z
loop_
_atom_site_type_symbol
_atom_site_label
_atom_site_fract_x
_atom_site_fract_y
_atom_site_fract_z
Si Si1 0.957516 0.177435 0.396926
Si Si2 0.172646 0.627533 0.818500
Si Si3 0.859892 0.004834 0.406140
O O1 0.809743 0.172883 0.311740
O O2 0.922366 0.148425 0.548587
O O3 0.000000 0.250000 0.409411
O O4 0.074839 0.136866 0.315460
O O5 0.246765 0.561486 0.861165
O O6 0.750000 0.963087 0.500000
O O7 0.922672 0.000000 0.250000
O O8 0.000000 0.000000 0.500000
#
# Coordination Sequence:
#
# PCOD9533486 Si02
#       3
#    16  16  16
#     4  11  24  48  78 115 154 203 256 324 393 474
#     4  11  27  48  76 116 158 203 262 321 398 468
#     4  12  29  52  80 113 156 206 269 327 396 465
#
# _framework density 25.286031999999999
#
# number of rings (size 3 to 8) (size 9 to 14) (size 15 to 20)
#    0.000    0.667    3.333    3.000    9.333    4.000 
#    0.000    0.000    0.000    0.000    0.000    0.000 
#    0.000    0.000    0.000    0.000    0.000    0.000 
#
# Total GULP energy -133798.813714 kJ/mol
# GULP energy per Si atom -5574.950571 kJ/mol
# Density = 2.522848 g / cm^3
# Si number density = 25.286032 Si / 1000 Ang^3
#
#
#
# Elastic Constant Matrix: (Units=GPa)
#
#
# Indices 1 2 3 4 5 6 
#
# 1 194.9495 68.7404 115.9024 -0.0001 0.0000 -0.0008
# 2 68.7404 129.0269 47.4760 0.0000 0.0000 -0.0002
# 3 115.9024 47.4760 176.0029 0.0000 0.0000 -0.0014
# 4 -0.0001 0.0000 0.0000 3.3990 0.0000 -0.0004
# 5 0.0000 0.0000 0.0000 0.0000 80.6897 0.0002
# 6 -0.0008 -0.0002 -0.0014 -0.0004 0.0002 70.2106
#
#
#
# Elastic Compliance Matrix: (Units=1/GPa)
#
#
# Indices 1 2 3 4 5 6 
#
# 1 0.009386 -0.003027 -0.005365 0.000000 0.000000 0.000000
# 2 -0.003027 0.009580 -0.000591 0.000000 0.000000 0.000000
# 3 -0.005365 -0.000591 0.009374 0.000000 0.000000 0.000000
# 4 0.000000 0.000000 0.000000 0.294203 0.000000 0.000002
# 5 0.000000 0.000000 0.000000 0.000000 0.012393 0.000000
# 6 0.000000 0.000000 0.000000 0.000002 0.000000 0.014243
#
#
# Mechanical properties :
#
#
# Convention : Reuss Voigt Hill
#
# Bulk Modulus (GPa) = 96.37968 107.13521 101.75745
# Shear Modulus (GPa) = 13.49153 48.71722 31.10437
#
# Velocity S-wave (km/s) = 2.31239 4.39412 3.51108
# Velocity P-wave (km/s) = 6.73261 8.25867 7.53438
#
# Compressibility (1/GPa) = 0.01037563
#
# Stress axis : x y z
#
# Youngs Moduli (GPa) = 106.54024 104.38081 106.67926
#
# Poissons Ratio (x) = 0.31592 0.57229
# Poissons Ratio (y) = 0.32246 0.06306
# Poissons Ratio (z) = 0.57154 0.06170
#
# Static dielectric constant tensor:
#      x y z
#    x 1.984610 0.000000 0.000000 
#    y 0.000000 2.221880 0.000000 
#    z 0.000000 0.000000 1.684800 
# 
# From -- ./inp_files/8954.got.cif
#   From: 2010.05.17/outbox.cif.g08.bks.cpg/sg73_5_cif.got.tgz:8954.got - 2010.06.03 17:35:07.
