data_PCOD9533000
_publ_section_title
;
Structure prediction by ZEFSAII (Michael W. Deem and Ramdas Pophale) SiO2 
 PCOD9533000
Probable space group: I B C A 
;
_chemical_formula_sum "Si O2"
_cell_formula_units_Z 88
_cell_length_a 15.101341
_cell_length_b 30.656310
_cell_length_c 8.360686
_cell_angle_alpha 90.000000
_cell_angle_beta 90.000000
_cell_angle_gamma 90.000000
_cell_volume 3870.591214
_symmetry_space_group_name_H-M "I B C A "
_symmetry_group_IT_number 73
_symmetry_cell_setting 'orthorhombic'
loop_
_space_group_symop_operation_xyz
x,y,z
-x,1/2-y,z
x,-y,1/2-z
1/2-x,y,-z
-x,-y,-z
x,1/2+y,-z
-x,y,1/2+z
1/2+x,-y,z
1/2+x,1/2+y,1/2+z
1/2-x,-y,1/2+z
1/2+x,1/2-y,-z
-x,1/2+y,1/2-z
1/2-x,1/2-y,1/2-z
1/2+x,y,1/2-z
1/2-x,1/2+y,z
x,1/2-y,1/2+z
loop_
_atom_site_type_symbol
_atom_site_label
_atom_site_fract_x
_atom_site_fract_y
_atom_site_fract_z
Si Si1 0.750000 0.496696 0.500000
Si Si2 0.156209 0.711739 0.073648
Si Si3 0.877279 0.623205 0.725675
Si Si4 0.577512 0.785560 0.266882
Si Si5 0.209744 0.065802 0.223053
Si Si6 0.060551 0.617781 0.589554
O O1 0.736787 0.463636 0.353843
O O2 0.684139 0.532152 0.581429
O O3 0.090740 0.709496 0.921919
O O4 0.250000 0.700348 0.000000
O O5 0.131131 0.675071 0.201073
O O6 0.157849 0.759506 0.150872
O O7 0.783058 0.602081 0.682580
O O8 0.957267 0.606615 0.613511
O O9 0.906939 0.615039 0.907648
O O10 0.500000 0.750000 0.293007
O O11 0.568467 0.832578 0.345960
O O12 0.125238 0.087702 0.304575
#
# Coordination Sequence:
#
# PCOD9533000 Si02
#       6
#     8  16  16  16  16  16
#     4  10  24  50  80 106 146 190 230 312 384 444
#     4  12  26  43  68 102 141 196 244 304 361 432
#     4  12  26  45  72 110 145 192 250 299 367 437
#     4  12  25  44  67  99 147 192 243 299 362 423
#     4  11  25  50  79 106 147 187 240 303 378 447
#     4  12  26  46  74 108 149 197 245 302 363 440
#
# _framework density 22.735545999999999
#
# number of rings (size 3 to 8) (size 9 to 14) (size 15 to 20)
#    0.000    0.364    3.636    4.364    6.364    1.455 
#    0.000    5.455    0.000    0.000    0.000    0.000 
#    0.000    0.000    0.000    0.000    0.000    0.000 
#
# Total GULP energy -245847.683918 kJ/mol
# GULP energy per Si atom -5587.447362 kJ/mol
# Density = 2.268380 g / cm^3
# Si number density = 22.735546 Si / 1000 Ang^3
#
#
#
# Elastic Constant Matrix: (Units=GPa)
#
#
# Indices 1 2 3 4 5 6 
#
# 1 58.3394 -0.2442 -8.8896 0.0040 -0.0028 -0.0032
# 2 -0.2442 95.1854 15.2782 0.0023 -0.0021 -0.0012
# 3 -8.8896 15.2782 45.0432 0.0014 -0.0120 0.0037
# 4 0.0040 0.0023 0.0014 57.9802 -0.0009 0.0017
# 5 -0.0028 -0.0021 -0.0120 -0.0009 30.8348 0.0003
# 6 -0.0032 -0.0012 0.0037 0.0017 0.0003 6.4562
#
#
#
# Elastic Compliance Matrix: (Units=1/GPa)
#
#
# Indices 1 2 3 4 5 6 
#
# 1 0.017699 -0.000545 0.003678 -0.000001 0.000003 0.000006
# 2 -0.000545 0.011128 -0.003882 0.000000 -0.000001 0.000004
# 3 0.003678 -0.003882 0.024243 -0.000001 0.000009 -0.000013
# 4 -0.000001 0.000000 -0.000001 0.017247 0.000000 -0.000005
# 5 0.000003 -0.000001 0.000009 0.000000 0.032431 -0.000001
# 6 0.000006 0.000004 -0.000013 -0.000005 -0.000001 0.154889
#
#
# Mechanical properties :
#
#
# Convention : Reuss Voigt Hill
#
# Bulk Modulus (GPa) = 19.39023 23.42854 21.40938
# Shear Modulus (GPa) = 18.09459 31.88250 24.98854
#
# Velocity S-wave (km/s) = 2.82418 3.74882 3.31886
# Velocity P-wave (km/s) = 4.37970 5.39123 4.91158
#
# Compressibility (1/GPa) = 0.05157237
#
# Stress axis : x y z
#
# Youngs Moduli (GPa) = 56.49969 89.86741 41.24820
#
# Poissons Ratio (x) = 0.04897 -0.15171
# Poissons Ratio (y) = 0.03079 0.16012
# Poissons Ratio (z) = -0.20780 0.34886
#
# Static dielectric constant tensor:
#      x y z
#    x 1.895840 0.000000 0.000000 
#    y 0.000000 1.823530 0.000000 
#    z 0.000000 0.000000 1.875110 
# 
# From -- ./inp_files/5741.got.cif
#   From: 2010.05.17/outbox.cif.g08.bks.cpg/sg73_3_cif.got.tgz:5741.got - 2010.06.03 17:35:07.
