data_PCOD9533745
_publ_section_title
;
Structure prediction by ZEFSAII (Michael W. Deem and Ramdas Pophale) SiO2 
 PCOD9533745
Probable space group: I B C A 
;
_chemical_formula_sum "Si O2"
_cell_formula_units_Z 56
_cell_length_a 15.000000
_cell_length_b 12.000000
_cell_length_c 30.000000
_cell_angle_alpha 90.000000
_cell_angle_beta 90.000000
_cell_angle_gamma 90.000000
_cell_volume 5400.000000
_symmetry_space_group_name_H-M "I B C A "
_symmetry_group_IT_number 73
_symmetry_cell_setting 'orthorhombic'
loop_
_space_group_symop_operation_xyz
x,y,z
-x,1/2-y,z
x,-y,1/2-z
1/2-x,y,-z
-x,-y,-z
x,1/2+y,-z
-x,y,1/2+z
1/2+x,-y,z
1/2+x,1/2+y,1/2+z
1/2-x,-y,1/2+z
1/2+x,1/2-y,-z
-x,1/2+y,1/2-z
1/2-x,1/2-y,1/2-z
1/2+x,y,1/2-z
1/2-x,1/2+y,z
x,1/2-y,1/2+z
loop_
_atom_site_type_symbol
_atom_site_label
_atom_site_fract_x
_atom_site_fract_y
_atom_site_fract_z
Si Si1 0.343650 0.749484 0.134161
Si Si2 0.372411 0.000000 0.250000
Si Si3 0.978860 0.373477 0.299011
Si Si4 0.504822 0.422223 0.864013
Si Si5 0.269232 0.339527 0.210952
Si Si6 0.000000 0.250000 0.480308
Si Si7 0.328316 0.832525 0.534562
Si Si8 0.442685 0.022719 0.544090
O O1 0.405585 0.645382 0.149386
O O2 0.416345 0.848279 0.138049
O O3 0.259701 0.778479 0.165021
O O4 0.317176 0.722718 0.083060
O O5 0.443975 0.902796 0.262673
O O6 0.301130 0.941662 0.216682
O O7 0.997945 0.468388 0.334731
O O8 0.873347 0.375559 0.286669
O O9 0.000000 0.250000 0.315371
O O10 0.515473 0.457544 0.914941
O O11 0.250000 0.250000 0.250000
O O12 0.080326 0.288559 0.512403
O O13 0.044433 0.153816 0.450423
O O14 0.250000 0.810297 0.500000
O O15 0.345873 0.966124 0.539334
O O16 0.500000 0.000000 0.500000
#
# Coordination Sequence:
#
# PCOD9533745 Si02
#       8
#    16   8  16  16  16   8  16  16
#     4  10  22  44  70  98 134 187 235 283 353 419
#     4  12  26  50  72 100 138 186 228 300 352 422
#     4  12  27  44  69 105 140 180 236 289 360 421
#     4  10  22  42  70  97 137 183 233 286 349 419
#     4  12  27  46  71 101 139 181 236 290 351 428
#     4  10  20  38  66  94 134 182 228 278 342 412
#     4  10  21  40  67 100 136 179 234 286 345 418
#     4   9  19  38  60  94 130 179 223 278 339 406
#
# _framework density 10.370369999999999
#
# number of rings (size 3 to 8) (size 9 to 14) (size 15 to 20)
#    0.000    1.429    2.857    3.000    5.000    1.714 
#    2.571    4.286    0.000    0.000    0.000    0.000 
#    0.000    0.000    0.000    0.000    0.000    0.000 
#
# Total GULP energy -312312.097343 kJ/mol
# GULP energy per Si atom -5577.001738 kJ/mol
# Density = 1.034677 g / cm^3
# Si number density = 10.370370 Si / 1000 Ang^3
#
#
#
# Elastic Constant Matrix: (Units=GPa)
#
#
# Indices 1 2 3 4 5 6 
#
# 1 138.1863 33.4580 46.7800 0.0000 0.0000 0.0000
# 2 33.4580 117.6927 29.4373 0.0000 0.0000 0.0000
# 3 46.7800 29.4373 59.1629 0.0000 0.0000 0.0000
# 4 0.0000 0.0000 0.0000 27.9879 0.0000 0.0000
# 5 0.0000 0.0000 0.0000 0.0000 31.2825 0.0000
# 6 0.0000 0.0000 0.0000 0.0000 0.0000 24.2953
#
#
#
# Elastic Compliance Matrix: (Units=1/GPa)
#
#
# Indices 1 2 3 4 5 6 
#
# 1 0.009981 -0.000986 -0.007401 0.000000 0.000000 0.000000
# 2 -0.000986 0.009802 -0.004097 0.000000 0.000000 0.000000
# 3 -0.007401 -0.004097 0.024793 0.000000 0.000000 0.000000
# 4 0.000000 0.000000 0.000000 0.035730 0.000000 0.000000
# 5 0.000000 0.000000 0.000000 0.000000 0.031967 0.000000
# 6 0.000000 0.000000 0.000000 0.000000 0.000000 0.041160
#
#
# Mechanical properties :
#
#
# Convention : Reuss Voigt Hill
#
# Bulk Modulus (GPa) = 51.00295 59.37694 55.18994
# Shear Modulus (GPa) = 27.03616 30.40426 28.72021
#
# Velocity S-wave (km/s) = 3.61436 3.83289 3.72523
# Velocity P-wave (km/s) = 6.48554 6.94826 6.72088
#
# Compressibility (1/GPa) = 0.01960671
#
# Stress axis : x y z
#
# Youngs Moduli (GPa) = 100.19139 102.02140 40.33363
#
# Poissons Ratio (x) = 0.10062 0.29852
# Poissons Ratio (y) = 0.09881 0.16526
# Poissons Ratio (z) = 0.74153 0.41801
#
# Static dielectric constant tensor:
#      x y z
#    x 1.749610 0.000000 0.000000 
#    y 0.000000 1.837530 0.000000 
#    z 0.000000 0.000000 1.773620 
# 
# From -- ./inp_files/34337.got.cif
#   From: 2010.05.17/outbox.ucp.g08.bks.cvg/sg73_18_cif.got.tgz:34337.got - 2010.06.11 16:36:03.
