data_PCOD9533592
_publ_section_title
;
Structure prediction by ZEFSAII (Michael W. Deem and Ramdas Pophale) SiO2 
 PCOD9533592
Probable space group: I B C A 
;
_chemical_formula_sum "Si O2"
_cell_formula_units_Z 88
_cell_length_a 21.758294
_cell_length_b 17.558735
_cell_length_c 10.520530
_cell_angle_alpha 90.000000
_cell_angle_beta 90.000000
_cell_angle_gamma 90.000000
_cell_volume 4019.348691
_symmetry_space_group_name_H-M "I B C A "
_symmetry_group_IT_number 73
_symmetry_cell_setting 'orthorhombic'
loop_
_space_group_symop_operation_xyz
x,y,z
-x,1/2-y,z
x,-y,1/2-z
1/2-x,y,-z
-x,-y,-z
x,1/2+y,-z
-x,y,1/2+z
1/2+x,-y,z
1/2+x,1/2+y,1/2+z
1/2-x,-y,1/2+z
1/2+x,1/2-y,-z
-x,1/2+y,1/2-z
1/2-x,1/2-y,1/2-z
1/2+x,y,1/2-z
1/2-x,1/2+y,z
x,1/2-y,1/2+z
loop_
_atom_site_type_symbol
_atom_site_label
_atom_site_fract_x
_atom_site_fract_y
_atom_site_fract_z
Si Si1 0.598755 0.610977 0.905642
Si Si2 0.983476 0.351610 0.627547
Si Si3 0.805302 0.984488 0.900861
Si Si4 0.873247 0.175489 0.550723
Si Si5 0.116754 0.266052 0.272333
Si Si6 0.510988 0.000000 0.250000
O O1 0.653771 0.556529 0.946054
O O2 0.618094 0.678533 0.814801
O O3 0.553026 0.553654 0.835007
O O4 0.559175 0.656225 0.007032
O O5 0.949415 0.303568 0.737342
O O6 0.053143 0.333484 0.584330
O O7 0.975535 0.440240 0.664619
O O8 0.842366 0.904943 0.912415
O O9 0.791253 0.000000 0.750000
O O10 0.750000 0.978749 0.000000
O O11 0.862286 0.189357 0.399401
O O12 0.850898 0.249392 0.634473
#
# Coordination Sequence:
#
# PCOD9533592 Si02
#       6
#    16  16  16  16  16   8
#     4  12  23  44  68 103 144 193 233 302 363 440
#     4  12  25  36  69 111 153 190 231 285 376 456
#     4  12  27  53  78  99 136 190 256 318 368 421
#     4  12  26  45  69 109 149 191 239 298 364 456
#     4  12  25  41  70 103 151 193 231 290 370 447
#     4  12  22  38  64 102 158 184 232 290 360 446
#
# _framework density 21.894093000000002
#
# number of rings (size 3 to 8) (size 9 to 14) (size 15 to 20)
#    0.000    0.000    8.182    2.182    5.091    1.455 
#    0.000    1.818    0.000    0.000    0.000    0.000 
#    0.000    0.000    0.000    0.000    0.000    0.000 
#
# Total GULP energy -245204.912089 kJ/mol
# GULP energy per Si atom -5572.838911 kJ/mol
# Density = 2.184426 g / cm^3
# Si number density = 21.894093 Si / 1000 Ang^3
#
#
#
# Elastic Constant Matrix: (Units=GPa)
#
#
# Indices 1 2 3 4 5 6 
#
# 1 58.8261 13.7566 41.7114 0.0000 0.0000 0.0000
# 2 13.7566 89.3980 22.9918 0.0000 0.0000 0.0000
# 3 41.7114 22.9918 126.2422 0.0000 0.0000 0.0000
# 4 0.0000 0.0000 0.0000 31.5619 0.0000 0.0000
# 5 0.0000 0.0000 0.0000 0.0000 4.0604 0.0000
# 6 0.0000 0.0000 0.0000 0.0000 0.0000 16.3528
#
#
#
# Elastic Compliance Matrix: (Units=1/GPa)
#
#
# Indices 1 2 3 4 5 6 
#
# 1 0.022422 -0.001621 -0.007113 0.000000 0.000000 0.000000
# 2 -0.001621 0.011853 -0.001623 0.000000 0.000000 0.000000
# 3 -0.007113 -0.001623 0.010567 0.000000 0.000000 0.000000
# 4 0.000000 0.000000 0.000000 0.031684 0.000000 0.000000
# 5 0.000000 0.000000 0.000000 0.000000 0.246280 0.000000
# 6 0.000000 0.000000 0.000000 0.000000 0.000000 0.061152
#
#
# Mechanical properties :
#
#
# Convention : Reuss Voigt Hill
#
# Bulk Modulus (GPa) = 41.44650 47.93177 44.68913
# Shear Modulus (GPa) = 12.11491 23.46213 17.78852
#
# Velocity S-wave (km/s) = 2.35487 3.27711 2.85350
# Velocity P-wave (km/s) = 5.13473 6.02157 5.59575
#
# Compressibility (1/GPa) = 0.02412749
#
# Stress axis : x y z
#
# Youngs Moduli (GPa) = 44.59905 84.36825 94.63290
#
# Poissons Ratio (x) = 0.13675 0.67314
# Poissons Ratio (y) = 0.07229 0.15360
# Poissons Ratio (z) = 0.31724 0.13694
#
# Static dielectric constant tensor:
#      x y z
#    x 1.844780 0.000000 0.000000 
#    y 0.000000 2.189280 0.000000 
#    z 0.000000 0.000000 1.550170 
# 
# From -- ./inp_files/12722.got.cif
#   From: 2010.05.17/outbox.cif.g08.bks.cpg/sg73_7_cif.got.tgz:12722.got - 2010.06.03 17:35:07.
