data_PCOD9533516
_publ_section_title
;
Structure prediction by ZEFSAII (Michael W. Deem and Ramdas Pophale) SiO2 
 PCOD9533516
Probable space group: I B C A 
;
_chemical_formula_sum "Si O2"
_cell_formula_units_Z 72
_cell_length_a 18.188883
_cell_length_b 13.769522
_cell_length_c 11.771733
_cell_angle_alpha 90.000000
_cell_angle_beta 90.000000
_cell_angle_gamma 90.000000
_cell_volume 2948.256718
_symmetry_space_group_name_H-M "I B C A "
_symmetry_group_IT_number 73
_symmetry_cell_setting 'orthorhombic'
loop_
_space_group_symop_operation_xyz
x,y,z
-x,1/2-y,z
x,-y,1/2-z
1/2-x,y,-z
-x,-y,-z
x,1/2+y,-z
-x,y,1/2+z
1/2+x,-y,z
1/2+x,1/2+y,1/2+z
1/2-x,-y,1/2+z
1/2+x,1/2-y,-z
-x,1/2+y,1/2-z
1/2-x,1/2-y,1/2-z
1/2+x,y,1/2-z
1/2-x,1/2+y,z
x,1/2-y,1/2+z
loop_
_atom_site_type_symbol
_atom_site_label
_atom_site_fract_x
_atom_site_fract_y
_atom_site_fract_z
Si Si1 0.252559 0.835659 0.874338
Si Si2 0.138703 0.812260 0.308084
Si Si3 0.919168 0.000000 0.750000
Si Si4 0.500000 0.750000 0.574729
Si Si5 0.839436 0.500000 0.750000
Si Si6 0.966215 0.923871 0.088363
O O1 0.332466 0.814136 0.822230
O O2 0.206614 0.735939 0.873266
O O3 0.210799 0.912325 0.794496
O O4 0.250000 0.876026 0.000000
O O5 0.125531 0.927159 0.330706
O O6 0.069958 0.743596 0.340372
O O7 0.973050 0.075374 0.812043
O O8 0.531942 0.671514 0.486804
O O9 0.892158 0.460217 0.851255
O O10 0.000000 0.000000 0.000000
#
# Coordination Sequence:
#
# PCOD9533516 Si02
#       6
#    16  16   8   8   8  16
#     4  11  28  52  78 110 160 212 261 324 399 467
#     4  11  27  49  74 115 152 200 267 320 386 484
#     4  11  25  46  74 112 152 192 260 320 380 472
#     4  12  26  46  84 114 158 204 250 336 400 466
#     4  11  27  48  78 122 156 210 274 324 392 498
#     4  11  25  46  74 120 155 195 256 323 406 457
#
# _framework density 24.421209999999999
#
# number of rings (size 3 to 8) (size 9 to 14) (size 15 to 20)
#    0.000    0.889    2.222    2.000   12.444    3.556 
#    0.000    2.222    0.000    0.000    0.000    0.000 
#    0.000    0.000    0.000    0.000    0.000    0.000 
#
# Total GULP energy -201081.146524 kJ/mol
# GULP energy per Si atom -5585.587403 kJ/mol
# Density = 2.436563 g / cm^3
# Si number density = 24.421210 Si / 1000 Ang^3
#
#
#
# Elastic Constant Matrix: (Units=GPa)
#
#
# Indices 1 2 3 4 5 6 
#
# 1 134.6454 30.7085 58.4806 0.0000 0.0000 0.0000
# 2 30.7085 85.6505 23.7722 0.0000 0.0000 0.0000
# 3 58.4806 23.7722 119.8203 0.0000 0.0000 0.0000
# 4 0.0000 0.0000 0.0000 40.2137 0.0000 0.0000
# 5 0.0000 0.0000 0.0000 0.0000 24.5968 0.0000
# 6 0.0000 0.0000 0.0000 0.0000 0.0000 -17.4215
#
#
#
# Elastic Compliance Matrix: (Units=1/GPa)
#
#
# Indices 1 2 3 4 5 6 
#
# 1 0.009843 -0.002324 -0.004343 0.000000 0.000000 0.000000
# 2 -0.002324 0.012904 -0.001426 0.000000 0.000000 0.000000
# 3 -0.004343 -0.001426 0.010749 0.000000 0.000000 0.000000
# 4 0.000000 0.000000 0.000000 0.024867 0.000000 0.000000
# 5 0.000000 0.000000 0.000000 0.000000 0.040656 0.000000
# 6 0.000000 0.000000 0.000000 0.000000 0.000000 -0.057400
#
#
# Mechanical properties :
#
#
# Convention : Reuss Voigt Hill
#
# Bulk Modulus (GPa) = 57.76939 62.89319 60.33129
# Shear Modulus (GPa) = 78.64810 24.62147 51.63478
#
# Velocity S-wave (km/s) = 5.68109 3.17866 4.60319
# Velocity P-wave (km/s) = 8.16944 6.26748 7.28083
#
# Compressibility (1/GPa) = 0.01731021
#
# Stress axis : x y z
#
# Youngs Moduli (GPa) = 101.59246 77.49366 93.03600
#
# Poissons Ratio (x) = 0.18007 0.40407
# Poissons Ratio (y) = 0.23607 0.13268
# Poissons Ratio (z) = 0.44123 0.11051
#
# Static dielectric constant tensor:
#      x y z
#    x 2.215720 0.000000 0.000000 
#    y 0.000000 -0.159210 0.000000 
#    z 0.000000 0.000000 2.316660 
# 
# From -- ./inp_files/12596.got.cif
#   From: 2010.05.17/outbox.cif.g08.bks.cpg/sg73_7_cif.got.tgz:12596.got - 2010.06.03 17:35:07.
