data_PCOD9533364
_publ_section_title
;
Structure prediction by ZEFSAII (Michael W. Deem and Ramdas Pophale) SiO2 
 PCOD9533364
Probable space group: I B C A 
;
_chemical_formula_sum "Si O2"
_cell_formula_units_Z 88
_cell_length_a 8.824016
_cell_length_b 28.626561
_cell_length_c 14.288953
_cell_angle_alpha 90.000000
_cell_angle_beta 90.000000
_cell_angle_gamma 90.000000
_cell_volume 3609.407136
_symmetry_space_group_name_H-M "I B C A "
_symmetry_group_IT_number 73
_symmetry_cell_setting 'orthorhombic'
loop_
_space_group_symop_operation_xyz
x,y,z
-x,1/2-y,z
x,-y,1/2-z
1/2-x,y,-z
-x,-y,-z
x,1/2+y,-z
-x,y,1/2+z
1/2+x,-y,z
1/2+x,1/2+y,1/2+z
1/2-x,-y,1/2+z
1/2+x,1/2-y,-z
-x,1/2+y,1/2-z
1/2-x,1/2-y,1/2-z
1/2+x,y,1/2-z
1/2-x,1/2+y,z
x,1/2-y,1/2+z
loop_
_atom_site_type_symbol
_atom_site_label
_atom_site_fract_x
_atom_site_fract_y
_atom_site_fract_z
Si Si1 0.750000 0.624797 0.000000
Si Si2 0.922786 0.950499 0.154294
Si Si3 0.478333 0.696186 0.684568
Si Si4 0.204005 0.850489 0.646711
Si Si5 0.209125 0.546196 0.363616
Si Si6 0.523986 0.697991 0.969638
O O1 0.835920 0.589052 0.930806
O O2 0.641438 0.657865 0.938010
O O3 0.838975 0.903435 0.123940
O O4 0.873818 0.950489 0.263821
O O5 0.106603 0.951524 0.146194
O O6 0.849653 0.995542 0.103776
O O7 0.500000 0.750000 0.717742
O O8 0.626396 0.664831 0.667588
O O9 0.381134 0.668517 0.760009
O O10 0.424398 0.702804 0.577460
O O11 0.133458 0.823300 0.560096
O O12 0.500000 0.750000 0.932554
#
# Coordination Sequence:
#
# PCOD9533364 Si02
#       6
#     8  16  16  16  16  16
#     4  12  26  48  72 106 144 188 240 306 364 430
#     4  11  23  44  70 102 137 188 240 295 361 430
#     4  11  26  43  71 104 144 186 240 294 365 440
#     4  12  24  46  71 106 138 189 234 300 361 434
#     4  11  24  45  73 103 141 190 241 301 362 433
#     4  11  27  45  73 100 147 185 239 293 367 429
#
# _framework density 24.380737
#
# number of rings (size 3 to 8) (size 9 to 14) (size 15 to 20)
#    0.000    0.727    1.818    6.000    7.636    2.182 
#    3.273    0.000    0.000    0.000    0.000    0.000 
#    0.000    0.000    0.000    0.000    0.000    0.000 
#
# Total GULP energy -245637.884758 kJ/mol
# GULP energy per Si atom -5582.679199 kJ/mol
# Density = 2.432525 g / cm^3
# Si number density = 24.380737 Si / 1000 Ang^3
#
#
#
# Elastic Constant Matrix: (Units=GPa)
#
#
# Indices 1 2 3 4 5 6 
#
# 1 66.6883 16.0151 -6.8077 0.0003 0.0000 0.0000
# 2 16.0151 183.3268 11.2921 -0.0004 0.0000 0.0000
# 3 -6.8077 11.2921 59.9120 -0.0022 0.0000 0.0000
# 4 0.0003 -0.0004 -0.0022 410.3239 -0.0011 -0.0007
# 5 0.0000 0.0000 0.0000 -0.0011 26.8798 0.0000
# 6 0.0000 0.0000 0.0000 -0.0007 0.0000 8.4676
#
#
#
# Elastic Compliance Matrix: (Units=1/GPa)
#
#
# Indices 1 2 3 4 5 6 
#
# 1 0.015561 -0.001486 0.002048 0.000000 0.000000 0.000000
# 2 -0.001486 0.005661 -0.001236 0.000000 0.000000 0.000000
# 3 0.002048 -0.001236 0.017157 0.000000 0.000000 0.000000
# 4 0.000000 0.000000 0.000000 0.002437 0.000000 0.000000
# 5 0.000000 0.000000 0.000000 0.000000 0.037203 0.000000
# 6 0.000000 0.000000 0.000000 0.000000 0.000000 0.118097
#
#
# Mechanical properties :
#
#
# Convention : Reuss Voigt Hill
#
# Bulk Modulus (GPa) = 27.00351 38.99179 32.99765
# Shear Modulus (GPa) = 23.83162 108.42942 66.13052
#
# Velocity S-wave (km/s) = 3.12986 6.67607 5.21373
# Velocity P-wave (km/s) = 4.91540 8.68644 7.05745
#
# Compressibility (1/GPa) = 0.03703223
#
# Stress axis : x y z
#
# Youngs Moduli (GPa) = 64.26332 176.65888 58.28598
#
# Poissons Ratio (x) = 0.26243 -0.11938
# Poissons Ratio (y) = 0.09547 0.07202
# Poissons Ratio (z) = -0.13162 0.21830
#
# Static dielectric constant tensor:
#      x y z
#    x 1.941020 0.000000 0.000000 
#    y 0.000000 2.356280 0.000000 
#    z 0.000000 0.000000 1.992410 
# 
# From -- ./inp_files/20840.got.cif
#   From: 2010.05.17/outbox.cif.g08.bks.cpg/sg73_11_cif.got.tgz:20840.got - 2010.06.03 17:35:07.
