data_PCOD9533643
_publ_section_title
;
Structure prediction by ZEFSAII (Michael W. Deem and Ramdas Pophale) SiO2 
 PCOD9533643
Probable space group: I B C A 
;
_chemical_formula_sum "Si O2"
_cell_formula_units_Z 72
_cell_length_a 13.046326
_cell_length_b 17.215022
_cell_length_c 14.723945
_cell_angle_alpha 90.000000
_cell_angle_beta 90.000000
_cell_angle_gamma 90.000000
_cell_volume 3306.891874
_symmetry_space_group_name_H-M "I B C A "
_symmetry_group_IT_number 73
_symmetry_cell_setting 'orthorhombic'
loop_
_space_group_symop_operation_xyz
x,y,z
-x,1/2-y,z
x,-y,1/2-z
1/2-x,y,-z
-x,-y,-z
x,1/2+y,-z
-x,y,1/2+z
1/2+x,-y,z
1/2+x,1/2+y,1/2+z
1/2-x,-y,1/2+z
1/2+x,1/2-y,-z
-x,1/2+y,1/2-z
1/2-x,1/2-y,1/2-z
1/2+x,y,1/2-z
1/2-x,1/2+y,z
x,1/2-y,1/2+z
loop_
_atom_site_type_symbol
_atom_site_label
_atom_site_fract_x
_atom_site_fract_y
_atom_site_fract_z
Si Si1 0.456763 0.419104 0.037619
Si Si2 0.448621 0.333405 0.389303
Si Si3 0.750000 0.165263 0.000000
Si Si4 0.055946 0.915594 0.723319
Si Si5 0.274153 0.206674 0.156742
O O1 0.467918 0.421813 0.145887
O O2 0.500000 0.500000 0.000000
O O3 0.531793 0.355984 0.992887
O O4 0.347676 0.392223 0.997149
O O5 0.500000 0.250000 0.374822
O O6 0.507025 0.385764 0.316469
O O7 0.328813 0.337640 0.371457
O O8 0.781245 0.224485 0.918458
O O9 0.136152 0.853979 0.681077
O O10 0.100727 0.000000 0.750000
O O11 0.250000 0.250000 0.250000
#
# Coordination Sequence:
#
# PCOD9533643 Si02
#       5
#    16  16   8  16  16
#     4  12  27  48  72 106 151 190 240 311 365 440
#     4  12  24  47  72 105 146 187 247 303 363 439
#     4  12  26  46  80 110 140 196 256 296 368 446
#     4  12  27  47  72 111 150 194 244 307 375 438
#     4  12  25  44  77 105 141 197 244 300 358 439
#
# _framework density 21.772708999999999
#
# number of rings (size 3 to 8) (size 9 to 14) (size 15 to 20)
#    0.000    0.000    6.667    2.667    0.000    2.667 
#    0.000    0.000    0.000    0.000    0.000    0.000 
#    0.000    0.000    0.000    0.000    0.000    0.000 
#
# Total GULP energy -201012.439404 kJ/mol
# GULP energy per Si atom -5583.678872 kJ/mol
# Density = 2.172315 g / cm^3
# Si number density = 21.772709 Si / 1000 Ang^3
#
#
#
# Elastic Constant Matrix: (Units=GPa)
#
#
# Indices 1 2 3 4 5 6 
#
# 1 92.3645 34.2386 -6.1777 0.0000 0.0000 0.0000
# 2 34.2386 126.7865 30.5617 0.0000 0.0000 0.0000
# 3 -6.1777 30.5617 107.3845 0.0000 0.0000 0.0000
# 4 0.0000 0.0000 0.0000 46.8411 0.0000 0.0000
# 5 0.0000 0.0000 0.0000 0.0000 26.4853 0.0000
# 6 0.0000 0.0000 0.0000 0.0000 0.0000 20.0458
#
#
#
# Elastic Compliance Matrix: (Units=1/GPa)
#
#
# Indices 1 2 3 4 5 6 
#
# 1 0.012340 -0.003762 0.001780 0.000000 0.000000 0.000000
# 2 -0.003762 0.009615 -0.002953 0.000000 0.000000 0.000000
# 3 0.001780 -0.002953 0.010255 0.000000 0.000000 0.000000
# 4 0.000000 0.000000 0.000000 0.021349 0.000000 0.000000
# 5 0.000000 0.000000 0.000000 0.000000 0.037757 0.000000
# 6 0.000000 0.000000 0.000000 0.000000 0.000000 0.049886
#
#
# Mechanical properties :
#
#
# Convention : Reuss Voigt Hill
#
# Bulk Modulus (GPa) = 44.75827 49.30897 47.03362
# Shear Modulus (GPa) = 31.54237 36.53529 34.03883
#
# Velocity S-wave (km/s) = 3.81032 4.10082 3.95824
# Velocity P-wave (km/s) = 6.32137 6.71704 6.52221
#
# Compressibility (1/GPa) = 0.02234224
#
# Stress axis : x y z
#
# Youngs Moduli (GPa) = 81.03627 104.00560 97.51217
#
# Poissons Ratio (x) = 0.39123 -0.17362
# Poissons Ratio (y) = 0.30483 0.28793
# Poissons Ratio (z) = -0.14428 0.30711
#
# Static dielectric constant tensor:
#      x y z
#    x 1.841510 0.000000 0.000000 
#    y 0.000000 1.720490 0.000000 
#    z 0.000000 0.000000 2.020930 
# 
# From -- ./inp_files/16774.got.cif
#   From: 2010.05.17/outbox.cif.g08.bks.cpg/sg73_9_cif.got.tgz:16774.got - 2010.06.03 17:35:07.
