data_PCOD9533904
_publ_section_title
;
Structure prediction by ZEFSAII (Michael W. Deem and Ramdas Pophale) SiO2 
 PCOD9533904
Probable space group: I M M A
;
_chemical_formula_sum "Si O2"
_cell_formula_units_Z 56
_cell_length_a 10.297425
_cell_length_b 14.546818
_cell_length_c 23.827813
_cell_angle_alpha 90.000000
_cell_angle_beta 90.000000
_cell_angle_gamma 90.000000
_cell_volume 3569.281705
_symmetry_space_group_name_H-M "I M M A"
_symmetry_group_IT_number 74
_symmetry_cell_setting 'orthorhombic'
loop_
_space_group_symop_operation_xyz
x,y,z
-x,1/2-y,z
x,-y,-z
-x,1/2+y,-z
-x,-y,-z
x,1/2+y,-z
-x,y,z
x,1/2-y,z
1/2+x,1/2+y,1/2+z
1/2-x,-y,1/2+z
1/2+x,1/2-y,1/2-z
1/2-x,y,1/2-z
1/2-x,1/2-y,1/2-z
1/2+x,y,1/2-z
1/2-x,1/2+y,1/2+z
1/2+x,-y,1/2+z
loop_
_atom_site_type_symbol
_atom_site_label
_atom_site_fract_x
_atom_site_fract_y
_atom_site_fract_z
Si Si1 0.500000 0.957340 0.563449
Si Si2 0.000000 0.417497 0.654551
Si Si3 0.224471 0.750000 0.058020
Si Si4 0.209588 0.066204 0.866898
Si Si5 0.000000 0.859615 0.216749
Si Si6 0.000000 0.750000 0.967922
Si Si7 0.500000 0.750000 0.067057
O O1 0.500000 0.847195 0.563269
O O2 0.500000 0.000000 0.500000
O O3 0.374265 0.995143 0.596572
O O4 0.142000 0.463520 0.645791
O O5 0.000000 0.336734 0.608492
O O6 0.000000 0.375909 0.716954
O O7 0.210567 0.839719 0.096700
O O8 0.368608 0.750000 0.032963
O O9 0.121865 0.750000 0.009387
O O10 0.126050 0.093646 0.811961
O O11 0.000000 0.750000 0.205197
#
# Coordination Sequence:
#
# PCOD9533904 Si02
#       7
#     8   8   8  16   8   4   4
#     4  11  21  35  53  74  93 129 170 210 254 297
#     4  10  19  30  45  71 108 143 166 193 238 296
#     4  10  16  29  47  71 104 134 160 201 242 280
#     4  10  20  32  47  73 107 139 165 201 241 291
#     4  11  18  27  47  76 109 143 169 191 234 301
#     4  12  20  34  57  70  90 126 175 212 248 298
#     4   8  18  26  39  70 110 136 159 186 240 292
#
# _framework density 15.689432
#
# number of rings (size 3 to 8) (size 9 to 14) (size 15 to 20)
#    0.000    1.714    5.000    1.714    0.000    1.143 
#    0.000    2.143    0.000    0.000    0.000   16.000 
#    0.000    0.000    0.000    0.000    0.000    0.000 
#
# Total GULP energy -155971.214637 kJ/mol
# GULP energy per Si atom -5570.400523 kJ/mol
# Density = 1.565372 g / cm^3
# Si number density = 15.689432 Si / 1000 Ang^3
#
#
#
# Elastic Constant Matrix: (Units=GPa)
#
#
# Indices 1 2 3 4 5 6 
#
# 1 175.4776 39.4665 50.7195 0.0000 0.0000 0.0000
# 2 39.4665 80.2493 25.0227 0.0000 0.0000 0.0000
# 3 50.7195 25.0227 53.7445 0.0000 0.0000 0.0000
# 4 0.0000 0.0000 0.0000 11.3967 0.0000 0.0000
# 5 0.0000 0.0000 0.0000 0.0000 58.0415 0.0000
# 6 0.0000 0.0000 0.0000 0.0000 0.0000 12.5327
#
#
#
# Elastic Compliance Matrix: (Units=1/GPa)
#
#
# Indices 1 2 3 4 5 6 
#
# 1 0.008068 -0.001864 -0.006746 0.000000 0.000000 0.000000
# 2 -0.001864 0.015008 -0.005228 0.000000 0.000000 0.000000
# 3 -0.006746 -0.005228 0.027407 0.000000 0.000000 0.000000
# 4 0.000000 0.000000 0.000000 0.087744 0.000000 0.000000
# 5 0.000000 0.000000 0.000000 0.000000 0.017229 0.000000
# 6 0.000000 0.000000 0.000000 0.000000 0.000000 0.079791
#
#
# Mechanical properties :
#
#
# Convention : Reuss Voigt Hill
#
# Bulk Modulus (GPa) = 43.84751 59.98763 51.91757
# Shear Modulus (GPa) = 18.48249 29.34502 23.91375
#
# Velocity S-wave (km/s) = 3.43596 4.32947 3.90833
# Velocity P-wave (km/s) = 6.61429 7.95675 7.31638
#
# Compressibility (1/GPa) = 0.02280631
#
# Stress axis : x y z
#
# Youngs Moduli (GPa) = 123.94956 66.62990 36.48731
#
# Poissons Ratio (x) = 0.12422 0.24613
# Poissons Ratio (y) = 0.23108 0.19076
# Poissons Ratio (z) = 0.83613 0.34836
#
# Static dielectric constant tensor:
#      x y z
#    x 1.548780 0.000000 0.000000 
#    y 0.000000 0.081480 0.000000 
#    z 0.000000 0.000000 1.498080 
# 
# From -- ./inp_files/40668.got.cif
#   From: 2010.05.17/outbox.cif.g08.bks.cpg/sg74_21_cif.got.tgz:40668.got - 2010.06.03 17:57:02.
