data_PCOD9533506
_publ_section_title
;
Structure prediction by ZEFSAII (Michael W. Deem and Ramdas Pophale) SiO2 
 PCOD9533506
Probable space group: I B C A 
;
_chemical_formula_sum "Si O2"
_cell_formula_units_Z 88
_cell_length_a 26.881915
_cell_length_b 12.996219
_cell_length_c 12.202313
_cell_angle_alpha 90.000000
_cell_angle_beta 90.000000
_cell_angle_gamma 90.000000
_cell_volume 4263.039782
_symmetry_space_group_name_H-M "I B C A "
_symmetry_group_IT_number 73
_symmetry_cell_setting 'orthorhombic'
loop_
_space_group_symop_operation_xyz
x,y,z
-x,1/2-y,z
x,-y,1/2-z
1/2-x,y,-z
-x,-y,-z
x,1/2+y,-z
-x,y,1/2+z
1/2+x,-y,z
1/2+x,1/2+y,1/2+z
1/2-x,-y,1/2+z
1/2+x,1/2-y,-z
-x,1/2+y,1/2-z
1/2-x,1/2-y,1/2-z
1/2+x,y,1/2-z
1/2-x,1/2+y,z
x,1/2-y,1/2+z
loop_
_atom_site_type_symbol
_atom_site_label
_atom_site_fract_x
_atom_site_fract_y
_atom_site_fract_z
Si Si1 0.456929 0.970078 0.370869
Si Si2 0.565382 0.088483 0.078881
Si Si3 0.362249 0.000000 0.750000
Si Si4 0.618424 0.805817 0.945061
Si Si5 0.704340 0.883078 0.790460
Si Si6 0.193672 0.686036 0.851707
O O1 0.512884 0.927002 0.359709
O O2 0.426770 0.885082 0.438690
O O3 0.438460 0.000000 0.250000
O O4 0.450052 0.065744 0.453092
O O5 0.593216 0.197041 0.080789
O O6 0.603723 0.013762 0.142283
O O7 0.330139 0.103857 0.765868
O O8 0.655135 0.849222 0.852868
O O9 0.653255 0.803176 0.052330
O O10 0.751968 0.864124 0.868822
O O11 0.706293 0.800051 0.692278
O O12 0.703214 0.000000 0.750000
#
# Coordination Sequence:
#
# PCOD9533506 Si02
#       6
#    16  16   8  16  16  16
#     4  11  25  45  69 101 140 183 237 290 356 431
#     4  11  25  44  70 102 138 183 233 293 355 425
#     4  12  20  48  68  98 140 180 232 296 352 418
#     4  12  25  42  67 104 134 186 230 294 357 418
#     4  11  25  45  69 101 140 183 237 290 356 431
#     4  11  25  44  70 102 138 183 233 293 355 425
#
# _framework density 20.642548000000001
#
# number of rings (size 3 to 8) (size 9 to 14) (size 15 to 20)
#    0.000    0.727    5.455    1.636    5.091    0.000 
#    0.000    3.636    0.000    0.000    0.000    0.000 
#    0.000    0.000    0.000    0.000    0.000    0.000 
#
# Total GULP energy -245319.765211 kJ/mol
# GULP energy per Si atom -5575.449209 kJ/mol
# Density = 2.059556 g / cm^3
# Si number density = 20.642548 Si / 1000 Ang^3
#
#
#
# Elastic Constant Matrix: (Units=GPa)
#
#
# Indices 1 2 3 4 5 6 
#
# 1 101.8913 56.9922 2.7125 0.0000 0.0000 0.0000
# 2 56.9922 151.9316 42.2272 0.0000 0.0000 0.0000
# 3 2.7125 42.2272 73.1107 0.0000 0.0000 0.0000
# 4 0.0000 0.0000 0.0000 9.6934 0.0000 0.0000
# 5 0.0000 0.0000 0.0000 0.0000 35.4312 0.0000
# 6 0.0000 0.0000 0.0000 0.0000 0.0000 32.8395
#
#
#
# Elastic Compliance Matrix: (Units=1/GPa)
#
#
# Indices 1 2 3 4 5 6 
#
# 1 0.012869 -0.005593 0.002753 0.000000 0.000000 0.000000
# 2 -0.005593 0.010271 -0.005725 0.000000 0.000000 0.000000
# 3 0.002753 -0.005725 0.016882 0.000000 0.000000 0.000000
# 4 0.000000 0.000000 0.000000 0.103163 0.000000 0.000000
# 5 0.000000 0.000000 0.000000 0.000000 0.028224 0.000000
# 6 0.000000 0.000000 0.000000 0.000000 0.000000 0.030451
#
#
# Mechanical properties :
#
#
# Convention : Reuss Voigt Hill
#
# Bulk Modulus (GPa) = 43.68121 58.97750 51.32935
# Shear Modulus (GPa) = 22.06333 30.59293 26.32813
#
# Velocity S-wave (km/s) = 3.27284 3.85389 3.57519
# Velocity P-wave (km/s) = 5.95724 6.95961 6.47784
#
# Compressibility (1/GPa) = 0.02289314
#
# Stress axis : x y z
#
# Youngs Moduli (GPa) = 77.70455 97.36261 59.23378
#
# Poissons Ratio (x) = 0.54451 -0.16305
# Poissons Ratio (y) = 0.43457 0.33910
# Poissons Ratio (z) = -0.21389 0.55738
#
# Static dielectric constant tensor:
#      x y z
#    x 1.747440 0.000000 0.000000 
#    y 0.000000 1.737020 0.000000 
#    z 0.000000 0.000000 1.758660 
# 
# From -- ./inp_files/14658.got.cif
#   From: 2010.05.17/outbox.cif.g08.bks.cpg/sg73_8_cif.got.tgz:14658.got - 2010.06.03 17:35:07.
