data_PCOD9533189
_publ_section_title
;
Structure prediction by ZEFSAII (Michael W. Deem and Ramdas Pophale) SiO2 
 PCOD9533189
Probable space group: I B C A 
;
_chemical_formula_sum "Si O2"
_cell_formula_units_Z 80
_cell_length_a 7.164945
_cell_length_b 15.131725
_cell_length_c 27.125607
_cell_angle_alpha 90.000000
_cell_angle_beta 90.000000
_cell_angle_gamma 90.000000
_cell_volume 2940.903446
_symmetry_space_group_name_H-M "I B C A "
_symmetry_group_IT_number 73
_symmetry_cell_setting 'orthorhombic'
loop_
_space_group_symop_operation_xyz
x,y,z
-x,1/2-y,z
x,-y,1/2-z
1/2-x,y,-z
-x,-y,-z
x,1/2+y,-z
-x,y,1/2+z
1/2+x,-y,z
1/2+x,1/2+y,1/2+z
1/2-x,-y,1/2+z
1/2+x,1/2-y,-z
-x,1/2+y,1/2-z
1/2-x,1/2-y,1/2-z
1/2+x,y,1/2-z
1/2-x,1/2+y,z
x,1/2-y,1/2+z
loop_
_atom_site_type_symbol
_atom_site_label
_atom_site_fract_x
_atom_site_fract_y
_atom_site_fract_z
Si Si1 0.129880 0.828138 0.835526
Si Si2 0.087585 0.397991 0.056520
Si Si3 0.628957 0.036976 0.304083
Si Si4 0.527806 0.891662 0.956062
Si Si5 0.973215 0.632597 0.650237
O O1 0.065948 0.910042 0.802998
O O2 0.000000 0.750000 0.818015
O O3 0.058565 0.856211 0.890194
O O4 0.349908 0.806462 0.834665
O O5 0.304852 0.378808 0.047728
O O6 0.073791 0.504575 0.051604
O O7 0.946038 0.365544 0.013478
O O8 0.794607 0.104039 0.318412
O O9 0.650102 0.000000 0.250000
O O10 0.593351 0.961335 0.345770
O O11 0.596101 0.848148 0.905410
#
# Coordination Sequence:
#
# PCOD9533189 Si02
#       5
#    16  16  16  16  16
#     4  11  25  44  68 103 147 185 219 291 369 423
#     4   9  17  31  59  93 131 167 223 281 329 401
#     4  12  24  41  73 103 127 177 248 297 346 419
#     4   9  16  30  58  94 123 170 230 280 320 401
#     4  11  21  40  70  97 134 180 234 291 340 416
#
# _framework density 27.202527
#
# number of rings (size 3 to 8) (size 9 to 14) (size 15 to 20)
#    0.000    1.600    4.000    1.800    0.000    1.600 
#    0.000    1.000   17.600    0.000    0.000    0.000 
#    0.000    0.000    0.000    0.000    0.000    0.000 
#
# Total GULP energy -223553.302340 kJ/mol
# GULP energy per Si atom -5588.832559 kJ/mol
# Density = 2.714061 g / cm^3
# Si number density = 27.202527 Si / 1000 Ang^3
#
#
#
# Elastic Constant Matrix: (Units=GPa)
#
#
# Indices 1 2 3 4 5 6 
#
# 1 147.2861 -9.2275 39.8940 0.0000 0.0000 0.0000
# 2 -9.2275 20.0396 3.0847 0.0000 0.0000 0.0000
# 3 39.8940 3.0847 155.8041 0.0000 0.0000 0.0000
# 4 0.0000 0.0000 0.0000 12.5858 0.0000 0.0000
# 5 0.0000 0.0000 0.0000 0.0000 39.2055 0.0000
# 6 0.0000 0.0000 0.0000 0.0000 0.0000 50.1184
#
#
#
# Elastic Compliance Matrix: (Units=1/GPa)
#
#
# Indices 1 2 3 4 5 6 
#
# 1 0.007573 0.003797 -0.002014 0.000000 0.000000 0.000000
# 2 0.003797 0.051958 -0.002001 0.000000 0.000000 0.000000
# 3 -0.002014 -0.002001 0.006974 0.000000 0.000000 0.000000
# 4 0.000000 0.000000 0.000000 0.079455 0.000000 0.000000
# 5 0.000000 0.000000 0.000000 0.000000 0.025507 0.000000
# 6 0.000000 0.000000 0.000000 0.000000 0.000000 0.019953
#
#
# Mechanical properties :
#
#
# Convention : Reuss Voigt Hill
#
# Bulk Modulus (GPa) = 15.13588 43.40358 29.26973
# Shear Modulus (GPa) = 23.37790 39.67385 31.52587
#
# Velocity S-wave (km/s) = 2.93474 3.82312 3.40800
# Velocity P-wave (km/s) = 4.13035 5.95640 5.12535
#
# Compressibility (1/GPa) = 0.06606817
#
# Stress axis : x y z
#
# Youngs Moduli (GPa) = 132.04843 19.24644 143.39613
#
# Poissons Ratio (x) = -0.07308 0.28884
# Poissons Ratio (y) = -0.50140 0.28693
# Poissons Ratio (z) = 0.26598 0.03851
#
# Static dielectric constant tensor:
#      x y z
#    x 2.119860 0.000000 0.000000 
#    y 0.000000 2.291190 0.000000 
#    z 0.000000 0.000000 2.212480 
# 
# From -- ./inp_files/31119.got.cif
#   From: 2010.05.17/outbox.cif.g08.bks.cpg/sg73_16_cif.got.tgz:31119.got - 2010.06.03 17:35:07.
