data_PCOD9533431
_publ_section_title
;
Structure prediction by ZEFSAII (Michael W. Deem and Ramdas Pophale) SiO2 
 PCOD9533431
Probable space group: I B C A 
;
_chemical_formula_sum "Si O2"
_cell_formula_units_Z 112
_cell_length_a 11.206189
_cell_length_b 30.006823
_cell_length_c 14.992481
_cell_angle_alpha 90.000000
_cell_angle_beta 90.000000
_cell_angle_gamma 90.000000
_cell_volume 5041.403592
_symmetry_space_group_name_H-M "I B C A "
_symmetry_group_IT_number 73
_symmetry_cell_setting 'orthorhombic'
loop_
_space_group_symop_operation_xyz
x,y,z
-x,1/2-y,z
x,-y,1/2-z
1/2-x,y,-z
-x,-y,-z
x,1/2+y,-z
-x,y,1/2+z
1/2+x,-y,z
1/2+x,1/2+y,1/2+z
1/2-x,-y,1/2+z
1/2+x,1/2-y,-z
-x,1/2+y,1/2-z
1/2-x,1/2-y,1/2-z
1/2+x,y,1/2-z
1/2-x,1/2+y,z
x,1/2-y,1/2+z
loop_
_atom_site_type_symbol
_atom_site_label
_atom_site_fract_x
_atom_site_fract_y
_atom_site_fract_z
Si Si1 0.840380 0.276316 0.654872
Si Si2 0.806961 0.856111 0.597453
Si Si3 0.000000 0.250000 0.499170
Si Si4 0.849371 0.000000 0.750000
Si Si5 0.542464 0.988067 0.903274
Si Si6 0.067583 0.891384 0.640776
Si Si7 0.160801 0.701472 0.148567
Si Si8 0.169255 0.932924 0.801216
O O1 0.727455 0.309079 0.641662
O O2 0.892769 0.288041 0.752226
O O3 0.787735 0.226447 0.651761
O O4 0.925755 0.280530 0.569104
O O5 0.750000 0.855005 0.500000
O O6 0.944953 0.869093 0.607303
O O7 0.735607 0.894712 0.647088
O O8 0.086479 0.277278 0.433075
O O9 0.932054 0.011053 0.834028
O O10 0.763858 0.957524 0.763097
O O11 0.625609 0.027280 0.864749
O O12 0.590722 0.937637 0.909337
O O13 0.500000 0.000000 0.000000
O O14 0.163019 0.851624 0.636942
O O15 0.066455 0.909583 0.742938
#
# Coordination Sequence:
#
# PCOD9533431 Si02
#       8
#    16  16   8   8  16  16  16  16
#     4  11  25  46  72 102 138 189 230 298 362 428
#     4  12  24  42  73 104 137 186 241 286 354 431
#     4  12  24  46  72 100 140 182 232 290 358 426
#     4  12  22  46  68  92 140 186 226 294 350 416
#     4  12  25  43  70 101 139 190 237 288 355 425
#     4  12  23  45  69 101 142 185 230 299 349 428
#     4  11  24  44  69 102 138 180 238 285 356 431
#     4  12  23  44  68 101 141 183 238 285 356 415
#
# _framework density 22.216035999999999
#
# number of rings (size 3 to 8) (size 9 to 14) (size 15 to 20)
#    0.000    0.286    5.714    4.286    0.000    1.143 
#    0.000    2.857    0.000    0.000    0.000    0.000 
#    0.000    0.000    0.000    0.000    0.000    0.000 
#
# Total GULP energy -312903.243179 kJ/mol
# GULP energy per Si atom -5587.557914 kJ/mol
# Density = 2.216547 g / cm^3
# Si number density = 22.216036 Si / 1000 Ang^3
#
#
#
# Elastic Constant Matrix: (Units=GPa)
#
#
# Indices 1 2 3 4 5 6 
#
# 1 38.3779 31.6097 11.4735 0.0000 -0.0001 0.0000
# 2 31.6097 146.4658 21.6345 0.0000 0.0000 0.0000
# 3 11.4735 21.6345 115.4908 -0.0002 -0.0001 0.0000
# 4 0.0000 0.0000 -0.0002 28.3205 -0.0001 0.0000
# 5 -0.0001 0.0000 -0.0001 -0.0001 -22.5463 0.0000
# 6 0.0000 0.0000 0.0000 0.0000 0.0000 46.1025
#
#
#
# Elastic Compliance Matrix: (Units=1/GPa)
#
#
# Indices 1 2 3 4 5 6 
#
# 1 0.032109 -0.006642 -0.001946 0.000000 0.000000 0.000000
# 2 -0.006642 0.008396 -0.000913 0.000000 0.000000 0.000000
# 3 -0.001946 -0.000913 0.009023 0.000000 0.000000 0.000000
# 4 0.000000 0.000000 0.000000 0.035310 0.000000 0.000000
# 5 0.000000 0.000000 0.000000 0.000000 -0.044353 0.000000
# 6 0.000000 0.000000 0.000000 0.000000 0.000000 0.021691
#
#
# Mechanical properties :
#
#
# Convention : Reuss Voigt Hill
#
# Bulk Modulus (GPa) = 32.75849 47.75223 40.25536
# Shear Modulus (GPa) = 54.73280 26.08313 40.40796
#
# Velocity S-wave (km/s) = 4.96891 3.43018 4.26944
# Velocity P-wave (km/s) = 6.90634 6.10159 6.51640
#
# Compressibility (1/GPa) = 0.03052643
#
# Stress axis : x y z
#
# Youngs Moduli (GPa) = 31.14375 119.10589 110.82793
#
# Poissons Ratio (x) = 0.79114 0.21563
# Poissons Ratio (y) = 0.20687 0.10117
# Poissons Ratio (z) = 0.06059 0.10873
#
# Static dielectric constant tensor:
#      x y z
#    x 1.873000 0.000000 0.000000 
#    y 0.000000 1.821550 0.000000 
#    z 0.000000 0.000000 1.840260 
# 
# From -- ./inp_files/16391.got.cif
#   From: 2010.05.17/outbox.cif.g08.bks.cpg/sg73_9_cif.got.tgz:16391.got - 2010.06.03 17:35:07.
