data_PCOD9533107
_publ_section_title
;
Structure prediction by ZEFSAII (Michael W. Deem and Ramdas Pophale) SiO2 
 PCOD9533107
Probable space group: I B C A 
;
_chemical_formula_sum "Si O2"
_cell_formula_units_Z 64
_cell_length_a 21.894856
_cell_length_b 15.475787
_cell_length_c 8.899027
_cell_angle_alpha 90.000000
_cell_angle_beta 90.000000
_cell_angle_gamma 90.000000
_cell_volume 3015.347446
_symmetry_space_group_name_H-M "I B C A "
_symmetry_group_IT_number 73
_symmetry_cell_setting 'orthorhombic'
loop_
_space_group_symop_operation_xyz
x,y,z
-x,1/2-y,z
x,-y,1/2-z
1/2-x,y,-z
-x,-y,-z
x,1/2+y,-z
-x,y,1/2+z
1/2+x,-y,z
1/2+x,1/2+y,1/2+z
1/2-x,-y,1/2+z
1/2+x,1/2-y,-z
-x,1/2+y,1/2-z
1/2-x,1/2-y,1/2-z
1/2+x,y,1/2-z
1/2-x,1/2+y,z
x,1/2-y,1/2+z
loop_
_atom_site_type_symbol
_atom_site_label
_atom_site_fract_x
_atom_site_fract_y
_atom_site_fract_z
Si Si1 0.443379 0.694705 0.252598
Si Si2 0.028695 0.408642 0.034620
Si Si3 0.830745 0.173333 0.271504
Si Si4 0.750000 0.715643 0.000000
Si Si5 0.121287 0.000000 0.750000
O O1 0.500000 0.750000 0.311265
O O2 0.473871 0.649330 0.106052
O O3 0.436814 0.627478 0.388347
O O4 0.387006 0.759949 0.233754
O O5 0.078824 0.434960 0.156254
O O6 0.000000 0.500000 0.000000
O O7 0.792659 0.224744 0.396381
O O8 0.842407 0.076061 0.333985
O O9 0.791744 0.163641 0.118014
#
# Coordination Sequence:
#
# PCOD9533107 Si02
#       5
#    16  16  16   8   8
#     4  12  24  40  70 102 142 178 219 276 364 415
#     4  12  23  40  61 108 143 174 217 275 350 426
#     4  11  25  46  71  98 133 184 228 288 328 411
#     4  10  26  50  70  92 130 188 242 268 342 392
#     4  12  24  40  70 100 144 164 232 286 338 406
#
# _framework density 21.224751999999999
#
# number of rings (size 3 to 8) (size 9 to 14) (size 15 to 20)
#    0.000    0.500    5.000    2.250    7.000    1.000 
#    0.000    0.000    0.000    0.000    0.000    0.000 
#    0.000    0.000    0.000    0.000    0.000    0.000 
#
# Total GULP energy -178311.402013 kJ/mol
# GULP energy per Si atom -5572.231313 kJ/mol
# Density = 2.117644 g / cm^3
# Si number density = 21.224752 Si / 1000 Ang^3
#
#
#
# Elastic Constant Matrix: (Units=GPa)
#
#
# Indices 1 2 3 4 5 6 
#
# 1 85.8044 35.9710 17.5511 0.0000 0.0000 0.0000
# 2 35.9710 131.9018 26.0148 0.0000 0.0000 0.0000
# 3 17.5511 26.0148 82.8768 0.0000 0.0000 0.0000
# 4 0.0000 0.0000 0.0000 25.9451 0.0000 0.0000
# 5 0.0000 0.0000 0.0000 0.0000 11.4595 0.0000
# 6 0.0000 0.0000 0.0000 0.0000 0.0000 10.9351
#
#
#
# Elastic Compliance Matrix: (Units=1/GPa)
#
#
# Indices 1 2 3 4 5 6 
#
# 1 0.013407 -0.003301 -0.001803 0.000000 0.000000 0.000000
# 2 -0.003301 0.008894 -0.002093 0.000000 0.000000 0.000000
# 3 -0.001803 -0.002093 0.013105 0.000000 0.000000 0.000000
# 4 0.000000 0.000000 0.000000 0.038543 0.000000 0.000000
# 5 0.000000 0.000000 0.000000 0.000000 0.087263 0.000000
# 6 0.000000 0.000000 0.000000 0.000000 0.000000 0.091449
#
#
# Mechanical properties :
#
#
# Convention : Reuss Voigt Hill
#
# Bulk Modulus (GPa) = 47.59009 51.07298 49.33153
# Shear Modulus (GPa) = 18.24424 24.40434 21.32429
#
# Velocity S-wave (km/s) = 2.93503 3.39456 3.17312
# Velocity P-wave (km/s) = 5.82722 6.28325 6.05953
#
# Compressibility (1/GPa) = 0.02101278
#
# Stress axis : x y z
#
# Youngs Moduli (GPa) = 74.58831 112.43178 76.30712
#
# Poissons Ratio (x) = 0.37109 0.13760
# Poissons Ratio (y) = 0.24618 0.15970
# Poissons Ratio (z) = 0.13450 0.23531
#
# Static dielectric constant tensor:
#      x y z
#    x 1.593500 0.000000 0.000000 
#    y 0.000000 1.728250 0.000000 
#    z 0.000000 0.000000 1.806070 
# 
# From -- ./inp_files/4669.got.cif
#   From: 2010.05.17/outbox.cif.g08.bks.cpg/sg73_3_cif.got.tgz:4669.got - 2010.06.03 17:35:07.
