data_PCOD9533077
_publ_section_title
;
Structure prediction by ZEFSAII (Michael W. Deem and Ramdas Pophale) SiO2 
 PCOD9533077
Probable space group: I B C A 
;
_chemical_formula_sum "Si O2"
_cell_formula_units_Z 80
_cell_length_a 10.897268
_cell_length_b 18.975680
_cell_length_c 16.646512
_cell_angle_alpha 90.000000
_cell_angle_beta 90.000000
_cell_angle_gamma 90.000000
_cell_volume 3442.216864
_symmetry_space_group_name_H-M "I B C A "
_symmetry_group_IT_number 73
_symmetry_cell_setting 'orthorhombic'
loop_
_space_group_symop_operation_xyz
x,y,z
-x,1/2-y,z
x,-y,1/2-z
1/2-x,y,-z
-x,-y,-z
x,1/2+y,-z
-x,y,1/2+z
1/2+x,-y,z
1/2+x,1/2+y,1/2+z
1/2-x,-y,1/2+z
1/2+x,1/2-y,-z
-x,1/2+y,1/2-z
1/2-x,1/2-y,1/2-z
1/2+x,y,1/2-z
1/2-x,1/2+y,z
x,1/2-y,1/2+z
loop_
_atom_site_type_symbol
_atom_site_label
_atom_site_fract_x
_atom_site_fract_y
_atom_site_fract_z
Si Si1 0.250791 0.638244 0.885930
Si Si2 0.375867 0.215466 0.574977
Si Si3 0.961402 0.359359 0.592516
Si Si4 0.871852 0.499797 0.548088
Si Si5 0.220212 0.324986 0.211678
O O1 0.290313 0.714859 0.919665
O O2 0.336586 0.577180 0.921896
O O3 0.267035 0.627988 0.790223
O O4 0.250000 0.477740 0.000000
O O5 0.500000 0.250000 0.606791
O O6 0.409046 0.178330 0.489387
O O7 0.316004 0.162395 0.638870
O O8 0.899332 0.435592 0.607314
O O9 0.911534 0.318369 0.669518
O O10 0.107242 0.367451 0.591859
O O11 0.000000 0.500000 0.500000
O O12 0.250000 0.250000 0.250000
#
# Coordination Sequence:
#
# PCOD9533077 Si02
#       5
#    16  16  16  16  16
#     4  11  28  49  74 113 155 205 259 336 402 475
#     4  11  26  43  79 112 149 198 261 320 400 477
#     4  12  27  49  77 108 157 205 269 327 402 482
#     4  12  25  50  78 112 152 208 264 326 389 482
#     4  10  26  45  71 110 156 196 251 329 407 466
#
# _framework density 23.240836000000002
#
# number of rings (size 3 to 8) (size 9 to 14) (size 15 to 20)
#    0.000    0.800    2.000    3.000   14.000    0.800 
#    0.000    2.000    0.000    0.000    0.000    0.000 
#    0.000    0.000    0.000    0.000    0.000    0.000 
#
# Total GULP energy -223338.283814 kJ/mol
# GULP energy per Si atom -5583.457095 kJ/mol
# Density = 2.318794 g / cm^3
# Si number density = 23.240836 Si / 1000 Ang^3
#
#
#
# Elastic Constant Matrix: (Units=GPa)
#
#
# Indices 1 2 3 4 5 6 
#
# 1 167.0819 52.6297 93.0552 0.0000 0.0000 0.0000
# 2 52.6297 100.6327 48.6751 0.0000 0.0000 0.0000
# 3 93.0552 48.6751 163.5166 0.0000 0.0000 0.0000
# 4 0.0000 0.0000 0.0000 26.8982 0.0000 0.0000
# 5 0.0000 0.0000 0.0000 0.0000 28.1719 0.0000
# 6 0.0000 0.0000 0.0000 0.0000 0.0000 49.6301
#
#
#
# Elastic Compliance Matrix: (Units=1/GPa)
#
#
# Indices 1 2 3 4 5 6 
#
# 1 0.009354 -0.002707 -0.004517 0.000000 0.000000 0.000000
# 2 -0.002707 0.012392 -0.002148 0.000000 0.000000 0.000000
# 3 -0.004517 -0.002148 0.009326 0.000000 0.000000 0.000000
# 4 0.000000 0.000000 0.000000 0.037177 0.000000 0.000000
# 5 0.000000 0.000000 0.000000 0.000000 0.035496 0.000000
# 6 0.000000 0.000000 0.000000 0.000000 0.000000 0.020149
#
#
# Mechanical properties :
#
#
# Convention : Reuss Voigt Hill
#
# Bulk Modulus (GPa) = 81.12660 91.10569 86.11615
# Shear Modulus (GPa) = 34.07209 36.73145 35.40177
#
# Velocity S-wave (km/s) = 3.83305 3.97983 3.90713
# Velocity P-wave (km/s) = 7.38731 7.77203 7.58211
#
# Compressibility (1/GPa) = 0.01232641
#
# Stress axis : x y z
#
# Youngs Moduli (GPa) = 106.91098 80.69768 107.22946
#
# Poissons Ratio (x) = 0.21844 0.48438
# Poissons Ratio (y) = 0.28939 0.23037
# Poissons Ratio (z) = 0.48294 0.17337
#
# Static dielectric constant tensor:
#      x y z
#    x 1.902250 0.000000 0.000000 
#    y 0.000000 1.988480 0.000000 
#    z 0.000000 0.000000 1.990640 
# 
# From -- ./inp_files/16845.got.cif
#   From: 2010.05.17/outbox.cif.g08.bks.cpg/sg73_9_cif.got.tgz:16845.got - 2010.06.03 17:35:07.
