data_PCOD9533499
_publ_section_title
;
Structure prediction by ZEFSAII (Michael W. Deem and Ramdas Pophale) SiO2 
 PCOD9533499
Probable space group: I B C A 
;
_chemical_formula_sum "Si O2"
_cell_formula_units_Z 80
_cell_length_a 9.531121
_cell_length_b 17.509279
_cell_length_c 25.269142
_cell_angle_alpha 90.000000
_cell_angle_beta 90.000000
_cell_angle_gamma 90.000000
_cell_volume 4216.991659
_symmetry_space_group_name_H-M "I B C A "
_symmetry_group_IT_number 73
_symmetry_cell_setting 'orthorhombic'
loop_
_space_group_symop_operation_xyz
x,y,z
-x,1/2-y,z
x,-y,1/2-z
1/2-x,y,-z
-x,-y,-z
x,1/2+y,-z
-x,y,1/2+z
1/2+x,-y,z
1/2+x,1/2+y,1/2+z
1/2-x,-y,1/2+z
1/2+x,1/2-y,-z
-x,1/2+y,1/2-z
1/2-x,1/2-y,1/2-z
1/2+x,y,1/2-z
1/2-x,1/2+y,z
x,1/2-y,1/2+z
loop_
_atom_site_type_symbol
_atom_site_label
_atom_site_fract_x
_atom_site_fract_y
_atom_site_fract_z
Si Si1 0.769839 0.927005 0.842886
Si Si2 0.660910 0.839180 0.553408
Si Si3 0.603858 0.418266 0.335635
Si Si4 0.128484 0.193277 0.764508
Si Si5 0.171918 0.660429 0.947003
O O1 0.689778 0.862665 0.808967
O O2 0.767508 0.895016 0.902490
O O3 0.937633 0.936690 0.836445
O O4 0.692735 0.005181 0.828129
O O5 0.750000 0.860736 0.500000
O O6 0.667590 0.884030 0.609360
O O7 0.494456 0.846075 0.542672
O O8 0.696038 0.750296 0.565510
O O9 0.607437 0.357675 0.288022
O O10 0.250000 0.250000 0.750000
O O11 0.000000 0.250000 0.778599
O O12 0.250000 0.641555 0.000000
#
# Coordination Sequence:
#
# PCOD9533499 Si02
#       5
#    16  16  16  16  16
#     4  11  25  43  62  94 131 169 209 264 328 382
#     4   9  19  38  64  90 121 168 215 262 318 375
#     4  11  25  42  64  91 134 167 208 268 323 386
#     4  12  25  44  69  94 123 168 217 267 323 387
#     4   9  19  39  62  90 126 163 214 267 312 378
#
# _framework density 18.970870000000001
#
# number of rings (size 3 to 8) (size 9 to 14) (size 15 to 20)
#    0.000    1.600    2.000    1.800    5.600    4.000 
#    7.200    4.000    0.000    0.000    0.000    0.000 
#    0.000    0.000    0.000    0.000    0.000    0.000 
#
# Total GULP energy -222784.638078 kJ/mol
# GULP energy per Si atom -5569.615952 kJ/mol
# Density = 1.892769 g / cm^3
# Si number density = 18.970870 Si / 1000 Ang^3
#
#
#
# Elastic Constant Matrix: (Units=GPa)
#
#
# Indices 1 2 3 4 5 6 
#
# 1 72.4054 48.6065 41.1562 0.0000 0.0000 0.0000
# 2 48.6065 91.7635 46.3940 0.0000 0.0000 0.0000
# 3 41.1562 46.3940 77.5415 0.0000 0.0000 0.0000
# 4 0.0000 0.0000 0.0000 22.9150 0.0000 0.0000
# 5 0.0000 0.0000 0.0000 0.0000 113.1945 0.0000
# 6 0.0000 0.0000 0.0000 0.0000 0.0000 44.4441
#
#
#
# Elastic Compliance Matrix: (Units=1/GPa)
#
#
# Indices 1 2 3 4 5 6 
#
# 1 0.024053 -0.009012 -0.007374 0.000000 0.000000 0.000000
# 2 -0.009012 0.019001 -0.006585 0.000000 0.000000 0.000000
# 3 -0.007374 -0.006585 0.020750 0.000000 0.000000 0.000000
# 4 0.000000 0.000000 0.000000 0.043640 0.000000 0.000000
# 5 0.000000 0.000000 0.000000 0.000000 0.008834 0.000000
# 6 0.000000 0.000000 0.000000 0.000000 0.000000 0.022500
#
#
# Mechanical properties :
#
#
# Convention : Reuss Voigt Hill
#
# Bulk Modulus (GPa) = 55.98885 57.11377 56.55131
# Shear Modulus (GPa) = 26.22282 43.14763 34.68523
#
# Velocity S-wave (km/s) = 3.72192 4.77426 4.28055
# Velocity P-wave (km/s) = 6.93162 7.78221 7.36920
#
# Compressibility (1/GPa) = 0.01786070
#
# Stress axis : x y z
#
# Youngs Moduli (GPa) = 41.57528 52.63015 48.19270
#
# Poissons Ratio (x) = 0.47432 0.35538
# Poissons Ratio (y) = 0.37469 0.31734
# Poissons Ratio (z) = 0.30658 0.34656
#
# Static dielectric constant tensor:
#      x y z
#    x 1.663050 0.000000 0.000000 
#    y 0.000000 1.648300 0.000000 
#    z 0.000000 0.000000 1.654590 
# 
# From -- ./inp_files/7733.got.cif
#   From: 2010.05.17/outbox.cif.g08.bks.cpg/sg73_4_cif.got.tgz:7733.got - 2010.06.03 17:35:07.
