data_PCOD9533515
_publ_section_title
;
Structure prediction by ZEFSAII (Michael W. Deem and Ramdas Pophale) SiO2 
 PCOD9533515
Probable space group: I B C A 
;
_chemical_formula_sum "Si O2"
_cell_formula_units_Z 64
_cell_length_a 9.229238
_cell_length_b 18.364182
_cell_length_c 18.066908
_cell_angle_alpha 90.000000
_cell_angle_beta 90.000000
_cell_angle_gamma 90.000000
_cell_volume 3062.113378
_symmetry_space_group_name_H-M "I B C A "
_symmetry_group_IT_number 73
_symmetry_cell_setting 'orthorhombic'
loop_
_space_group_symop_operation_xyz
x,y,z
-x,1/2-y,z
x,-y,1/2-z
1/2-x,y,-z
-x,-y,-z
x,1/2+y,-z
-x,y,1/2+z
1/2+x,-y,z
1/2+x,1/2+y,1/2+z
1/2-x,-y,1/2+z
1/2+x,1/2-y,-z
-x,1/2+y,1/2-z
1/2-x,1/2-y,1/2-z
1/2+x,y,1/2-z
1/2-x,1/2+y,z
x,1/2-y,1/2+z
loop_
_atom_site_type_symbol
_atom_site_label
_atom_site_fract_x
_atom_site_fract_y
_atom_site_fract_z
Si Si1 0.289022 0.572216 0.204166
Si Si2 0.401388 0.057776 0.956703
Si Si3 0.085969 0.824176 0.024021
Si Si4 0.994249 0.661476 0.186880
O O1 0.245953 0.500000 0.250000
O O2 0.363145 0.544934 0.128342
O O3 0.152034 0.623915 0.186792
O O4 0.400392 0.621612 0.250640
O O5 0.250000 0.065431 0.000000
O O6 0.497626 0.129501 0.964690
O O7 0.500000 0.000000 0.000000
O O8 0.000000 0.750000 0.030023
O O9 0.076501 0.855929 0.106891
O O10 0.250000 0.815219 0.000000
O O11 0.000000 0.750000 0.197036
#
# Coordination Sequence:
#
# PCOD9533515 Si02
#       4
#    16  16  16  16
#     4  12  27  46  73 106 148 192 245 305 368 444
#     4  12  26  46  72 103 143 191 244 300 363 437
#     4  11  25  46  74 106 146 192 244 302 365 436
#     4  11  26  47  72 107 146 191 246 298 372 444
#
# _framework density 20.900597999999999
#
# number of rings (size 3 to 8) (size 9 to 14) (size 15 to 20)
#    0.000    0.500    2.500    4.500   10.500    1.000 
#    0.000    0.000    0.000    0.000    0.000    0.000 
#    0.000    0.000    0.000    0.000    0.000    0.000 
#
# Total GULP energy -179004.059031 kJ/mol
# GULP energy per Si atom -5593.876845 kJ/mol
# Density = 2.085303 g / cm^3
# Si number density = 20.900598 Si / 1000 Ang^3
#
#
#
# Elastic Constant Matrix: (Units=GPa)
#
#
# Indices 1 2 3 4 5 6 
#
# 1 174.1833 38.2387 65.1081 0.0000 0.0000 0.0000
# 2 38.2387 105.4609 43.2839 0.0000 0.0000 0.0000
# 3 65.1081 43.2839 147.1556 0.0000 0.0000 0.0000
# 4 0.0000 0.0000 0.0000 26.7733 0.0000 0.0000
# 5 0.0000 0.0000 0.0000 0.0000 126.3280 0.0000
# 6 0.0000 0.0000 0.0000 0.0000 0.0000 29.0553
#
#
#
# Elastic Compliance Matrix: (Units=1/GPa)
#
#
# Indices 1 2 3 4 5 6 
#
# 1 0.007070 -0.001455 -0.002700 0.000000 0.000000 0.000000
# 2 -0.001455 0.011084 -0.002616 0.000000 0.000000 0.000000
# 3 -0.002700 -0.002616 0.008760 0.000000 0.000000 0.000000
# 4 0.000000 0.000000 0.000000 0.037351 0.000000 0.000000
# 5 0.000000 0.000000 0.000000 0.000000 0.007916 0.000000
# 6 0.000000 0.000000 0.000000 0.000000 0.000000 0.034417
#
#
# Mechanical properties :
#
#
# Convention : Reuss Voigt Hill
#
# Bulk Modulus (GPa) = 74.79346 80.00679 77.40013
# Shear Modulus (GPa) = 40.12964 55.10927 47.61946
#
# Velocity S-wave (km/s) = 4.38656 5.14048 4.77841
# Velocity P-wave (km/s) = 7.84340 8.57878 8.21932
#
# Compressibility (1/GPa) = 0.01337015
#
# Stress axis : x y z
#
# Youngs Moduli (GPa) = 141.44736 90.22330 114.16021
#
# Poissons Ratio (x) = 0.13130 0.30822
# Poissons Ratio (y) = 0.20585 0.29867
# Poissons Ratio (z) = 0.38190 0.23604
#
# Static dielectric constant tensor:
#      x y z
#    x 1.690290 0.000000 0.000000 
#    y 0.000000 1.780520 0.000000 
#    z 0.000000 0.000000 1.778500 
# 
# From -- ./inp_files/5957.got.cif
#   From: 2010.05.17/outbox.cif.g08.bks.cpg/sg73_3_cif.got.tgz:5957.got - 2010.06.03 17:35:07.
