data_PCOD9533889
_publ_section_title
;
Structure prediction by ZEFSAII (Michael W. Deem and Ramdas Pophale) SiO2 
 PCOD9533889
Probable space group: I M M A
;
_chemical_formula_sum "Si O2"
_cell_formula_units_Z 84
_cell_length_a 14.154180
_cell_length_b 22.300577
_cell_length_c 17.715579
_cell_angle_alpha 90.000000
_cell_angle_beta 90.000000
_cell_angle_gamma 90.000000
_cell_volume 5591.858398
_symmetry_space_group_name_H-M "I M M A"
_symmetry_group_IT_number 74
_symmetry_cell_setting 'orthorhombic'
loop_
_space_group_symop_operation_xyz
x,y,z
-x,1/2-y,z
x,-y,-z
-x,1/2+y,-z
-x,-y,-z
x,1/2+y,-z
-x,y,z
x,1/2-y,z
1/2+x,1/2+y,1/2+z
1/2-x,-y,1/2+z
1/2+x,1/2-y,1/2-z
1/2-x,y,1/2-z
1/2-x,1/2-y,1/2-z
1/2+x,y,1/2-z
1/2-x,1/2+y,1/2+z
1/2+x,-y,1/2+z
loop_
_atom_site_type_symbol
_atom_site_label
_atom_site_fract_x
_atom_site_fract_y
_atom_site_fract_z
Si Si1 0.500000 0.866438 0.333295
Si Si2 0.000000 0.250000 0.730820
Si Si3 0.296306 0.936881 0.545140
Si Si4 0.293896 0.250000 0.833236
Si Si5 0.000000 0.460952 0.079941
Si Si6 0.697771 0.502256 0.173446
Si Si7 0.500000 0.516695 0.248794
Si Si8 0.712813 0.625082 0.395220
O O1 0.500000 0.804488 0.289576
O O2 0.400898 0.875303 0.378358
O O3 0.500000 0.913293 0.265441
O O4 0.093610 0.250000 0.679486
O O5 0.401472 0.925980 0.576435
O O6 0.223833 0.953266 0.610716
O O7 0.271110 0.887652 0.483536
O O8 0.302321 0.000000 0.500000
O O9 0.250000 0.250000 0.750000
O O10 0.256608 0.188530 0.870972
O O11 0.000000 0.492522 0.163309
O O12 0.000000 0.500000 0.000000
O O13 0.750000 0.486350 0.250000
O O14 0.590131 0.502424 0.198427
O O15 0.738500 0.567969 0.147510
#
# Coordination Sequence:
#
# PCOD9533889 Si02
#       8
#     8   4  16   8   8  16   8  16
#     4  12  18  30  50  73  99 129 169 203 246 283
#     4  12  24  32  50  76 100 134 168 206 224 286
#     4   9  18  31  47  69  99 129 163 202 253 291
#     4  12  22  38  50  74 105 132 175 198 240 290
#     4  10  16  28  46  73  98 123 160 206 250 302
#     4  11  19  32  47  73 101 132 164 204 249 301
#     4  12  20  28  50  73 100 133 170 198 247 304
#     4  11  21  34  51  72 102 136 166 207 247 291
#
# _framework density 15.021839999999999
#
# number of rings (size 3 to 8) (size 9 to 14) (size 15 to 20)
#    0.000    1.143    5.714    4.571    0.000    0.000 
#    0.000    5.238    0.000    0.000    0.000    0.667 
#    0.000    0.000    0.000    0.000    0.000    0.000 
#
# Total GULP energy -233817.544950 kJ/mol
# GULP energy per Si atom -5567.084404 kJ/mol
# Density = 1.498765 g / cm^3
# Si number density = 15.021840 Si / 1000 Ang^3
#
#
#
# Elastic Constant Matrix: (Units=GPa)
#
#
# Indices 1 2 3 4 5 6 
#
# 1 142.9709 35.0941 66.5731 0.0000 0.0000 0.0000
# 2 35.0941 68.7539 57.8920 0.0000 0.0000 0.0000
# 3 66.5731 57.8920 117.2446 0.0000 0.0000 0.0000
# 4 0.0000 0.0000 0.0000 27.4820 0.0000 0.0000
# 5 0.0000 0.0000 0.0000 0.0000 20.7259 0.0000
# 6 0.0000 0.0000 0.0000 0.0000 0.0000 9.0945
#
#
#
# Elastic Compliance Matrix: (Units=1/GPa)
#
#
# Indices 1 2 3 4 5 6 
#
# 1 0.009520 -0.000527 -0.005145 0.000000 0.000000 0.000000
# 2 -0.000527 0.024924 -0.012008 0.000000 0.000000 0.000000
# 3 -0.005145 -0.012008 0.017380 0.000000 0.000000 0.000000
# 4 0.000000 0.000000 0.000000 0.036387 0.000000 0.000000
# 5 0.000000 0.000000 0.000000 0.000000 0.048249 0.000000
# 6 0.000000 0.000000 0.000000 0.000000 0.000000 0.109957
#
#
# Mechanical properties :
#
#
# Convention : Reuss Voigt Hill
#
# Bulk Modulus (GPa) = 60.73815 72.00976 66.37395
# Shear Modulus (GPa) = 17.40559 22.75449 20.08004
#
# Velocity S-wave (km/s) = 3.40764 3.89622 3.66009
# Velocity P-wave (km/s) = 7.48356 8.26326 7.88306
#
# Compressibility (1/GPa) = 0.01646412
#
# Stress axis : x y z
#
# Youngs Moduli (GPa) = 105.04691 40.12161 57.53797
#
# Poissons Ratio (x) = 0.02113 0.29605
# Poissons Ratio (y) = 0.05533 0.69090
# Poissons Ratio (z) = 0.54050 0.48177
#
# Static dielectric constant tensor:
#      x y z
#    x 2.023930 0.000000 0.000000 
#    y 0.000000 1.512270 0.000000 
#    z 0.000000 0.000000 1.502770 
# 
# From -- ./inp_files/41265.got.cif
#   From: 2010.05.17/outbox.cif.g08.bks.cpg/sg74_21_cif.got.tgz:41265.got - 2010.06.03 17:57:02.
