data_PCOD9533218
_publ_section_title
;
Structure prediction by ZEFSAII (Michael W. Deem and Ramdas Pophale) SiO2 
 PCOD9533218
Probable space group: I B C A 
;
_chemical_formula_sum "Si O2"
_cell_formula_units_Z 64
_cell_length_a 10.339663
_cell_length_b 15.818527
_cell_length_c 13.925550
_cell_angle_alpha 90.000000
_cell_angle_beta 90.000000
_cell_angle_gamma 90.000000
_cell_volume 2277.638426
_symmetry_space_group_name_H-M "I B C A "
_symmetry_group_IT_number 73
_symmetry_cell_setting 'orthorhombic'
loop_
_space_group_symop_operation_xyz
x,y,z
-x,1/2-y,z
x,-y,1/2-z
1/2-x,y,-z
-x,-y,-z
x,1/2+y,-z
-x,y,1/2+z
1/2+x,-y,z
1/2+x,1/2+y,1/2+z
1/2-x,-y,1/2+z
1/2+x,1/2-y,-z
-x,1/2+y,1/2-z
1/2-x,1/2-y,1/2-z
1/2+x,y,1/2-z
1/2-x,1/2+y,z
x,1/2-y,1/2+z
loop_
_atom_site_type_symbol
_atom_site_label
_atom_site_fract_x
_atom_site_fract_y
_atom_site_fract_z
Si Si1 0.552740 0.078669 0.199806
Si Si2 0.944586 0.661780 0.874577
Si Si3 0.341681 0.276447 0.069672
Si Si4 0.370435 0.090851 0.035914
O O1 0.446437 0.109264 0.277656
O O2 0.641576 0.153516 0.155908
O O3 0.467272 0.050185 0.109809
O O4 0.624123 0.000000 0.250000
O O5 0.000000 0.750000 0.838985
O O6 0.829220 0.692980 0.947841
O O7 0.044002 0.616752 0.945412
O O8 0.500000 0.250000 0.061925
O O9 0.306484 0.175490 0.084532
O O10 0.250000 0.035420 0.000000
#
# Coordination Sequence:
#
# PCOD9533218 Si02
#       4
#    16  16  16  16
#     4  11  22  36  55  85 121 153 185 239 312 370
#     4   9  18  35  58  81 110 151 196 246 296 347
#     4   9  19  37  60  84 112 152 202 247 286 345
#     4   9  19  37  60  84 112 152 202 247 286 345
#
# _framework density 28.099281000000001
#
# number of rings (size 3 to 8) (size 9 to 14) (size 15 to 20)
#    0.000    2.500    0.000    3.750    0.000    6.000 
#    0.000   15.000    0.000    0.000    0.000    0.000 
#    0.000    0.000    0.000    0.000    0.000    0.000 
#
# Total GULP energy -178368.931645 kJ/mol
# GULP energy per Si atom -5574.029114 kJ/mol
# Density = 2.803533 g / cm^3
# Si number density = 28.099281 Si / 1000 Ang^3
#
#
#
# Elastic Constant Matrix: (Units=GPa)
#
#
# Indices 1 2 3 4 5 6 
#
# 1 132.1527 24.5583 31.8624 0.0000 0.0000 0.0000
# 2 24.5583 146.5108 49.5059 0.0000 0.0000 0.0000
# 3 31.8624 49.5059 112.7948 0.0000 0.0000 0.0000
# 4 0.0000 0.0000 0.0000 51.6626 0.0000 0.0000
# 5 0.0000 0.0000 0.0000 0.0000 35.4738 0.0000
# 6 0.0000 0.0000 0.0000 0.0000 0.0000 12.8462
#
#
#
# Elastic Compliance Matrix: (Units=1/GPa)
#
#
# Indices 1 2 3 4 5 6 
#
# 1 0.008180 -0.000693 -0.002006 0.000000 0.000000 0.000000
# 2 -0.000693 0.008073 -0.003347 0.000000 0.000000 0.000000
# 3 -0.002006 -0.003347 0.010902 0.000000 0.000000 0.000000
# 4 0.000000 0.000000 0.000000 0.019356 0.000000 0.000000
# 5 0.000000 0.000000 0.000000 0.000000 0.028190 0.000000
# 6 0.000000 0.000000 0.000000 0.000000 0.000000 0.077844
#
#
# Mechanical properties :
#
#
# Convention : Reuss Voigt Hill
#
# Bulk Modulus (GPa) = 66.40024 67.03462 66.71743
# Shear Modulus (GPa) = 29.47113 39.03197 34.25155
#
# Velocity S-wave (km/s) = 3.24207 3.73107 3.49513
# Velocity P-wave (km/s) = 6.13975 6.51685 6.33111
#
# Compressibility (1/GPa) = 0.01506019
#
# Stress axis : x y z
#
# Youngs Moduli (GPa) = 122.25615 123.87460 91.72999
#
# Poissons Ratio (x) = 0.08586 0.18404
# Poissons Ratio (y) = 0.08474 0.30705
# Poissons Ratio (z) = 0.24529 0.41465
#
# Static dielectric constant tensor:
#      x y z
#    x 2.385720 0.000000 0.000000 
#    y 0.000000 2.305300 0.000000 
#    z 0.000000 0.000000 2.158250 
# 
# From -- ./inp_files/17708.got.cif
#   From: 2010.05.17/outbox.cif.g08.bks.cpg/sg73_9_cif.got.tgz:17708.got - 2010.06.03 17:35:07.
