data_PCOD9533317
_publ_section_title
;
Structure prediction by ZEFSAII (Michael W. Deem and Ramdas Pophale) SiO2 
 PCOD9533317
Probable space group: I B C A 
;
_chemical_formula_sum "Si O2"
_cell_formula_units_Z 104
_cell_length_a 21.228432
_cell_length_b 8.849288
_cell_length_c 25.625845
_cell_angle_alpha 90.000000
_cell_angle_beta 90.000000
_cell_angle_gamma 90.000000
_cell_volume 4813.981771
_symmetry_space_group_name_H-M "I B C A "
_symmetry_group_IT_number 73
_symmetry_cell_setting 'orthorhombic'
loop_
_space_group_symop_operation_xyz
x,y,z
-x,1/2-y,z
x,-y,1/2-z
1/2-x,y,-z
-x,-y,-z
x,1/2+y,-z
-x,y,1/2+z
1/2+x,-y,z
1/2+x,1/2+y,1/2+z
1/2-x,-y,1/2+z
1/2+x,1/2-y,-z
-x,1/2+y,1/2-z
1/2-x,1/2-y,1/2-z
1/2+x,y,1/2-z
1/2-x,1/2+y,z
x,1/2-y,1/2+z
loop_
_atom_site_type_symbol
_atom_site_label
_atom_site_fract_x
_atom_site_fract_y
_atom_site_fract_z
Si Si1 0.340399 0.442335 0.849412
Si Si2 0.242949 0.818376 0.307928
Si Si3 0.351345 0.500000 0.250000
Si Si4 0.181163 0.525402 0.043339
Si Si5 0.034289 0.979096 0.688333
Si Si6 0.411376 0.149403 0.661164
Si Si7 0.319277 0.878762 0.938938
O O1 0.289450 0.308678 0.842843
O O2 0.304027 0.593294 0.828255
O O3 0.359922 0.470506 0.908523
O O4 0.405587 0.412093 0.820065
O O5 0.250000 0.750000 0.250000
O O6 0.190933 0.943770 0.297555
O O7 0.387247 0.631059 0.279167
O O8 0.188448 0.704696 0.044601
O O9 0.249840 0.456495 0.059924
O O10 0.153378 0.466985 0.989074
O O11 0.061189 0.819150 0.665281
O O12 0.966607 0.978440 0.659583
O O13 0.021145 0.000000 0.750000
O O14 0.361928 0.123670 0.613571
#
# Coordination Sequence:
#
# PCOD9533317 Si02
#       7
#    16  16   8  16  16  16  16
#     4  12  23  40  64  99 135 178 227 286 357 416
#     4  12  23  36  61  98 141 170 218 285 356 428
#     4  12  22  38  60  96 134 176 216 284 352 424
#     4  11  23  40  70  99 138 175 230 291 358 423
#     4  11  23  44  68  92 132 185 236 275 341 424
#     4  11  24  43  68  93 137 185 233 288 344 417
#     4  11  23  44  68 104 136 183 229 293 363 416
#
# _framework density 21.603738
#
# number of rings (size 3 to 8) (size 9 to 14) (size 15 to 20)
#    0.000    0.615    3.846    6.462    0.000    1.231 
#    0.000    0.769    0.000    0.000    0.000    0.000 
#    0.000    0.000    0.000    0.000    0.000    0.000 
#
# Total GULP energy -289682.784952 kJ/mol
# GULP energy per Si atom -5570.822788 kJ/mol
# Density = 2.155457 g / cm^3
# Si number density = 21.603738 Si / 1000 Ang^3
#
#
#
# Elastic Constant Matrix: (Units=GPa)
#
#
# Indices 1 2 3 4 5 6 
#
# 1 86.5240 22.8308 34.9596 0.0000 0.0000 0.0000
# 2 22.8308 81.1636 32.7083 0.0000 0.0000 0.0000
# 3 34.9596 32.7083 133.6521 0.0000 0.0000 0.0000
# 4 0.0000 0.0000 0.0000 38.3082 0.0000 0.0000
# 5 0.0000 0.0000 0.0000 0.0000 32.5228 0.0000
# 6 0.0000 0.0000 0.0000 0.0000 0.0000 2.5603
#
#
#
# Elastic Compliance Matrix: (Units=1/GPa)
#
#
# Indices 1 2 3 4 5 6 
#
# 1 0.013406 -0.002616 -0.002866 0.000000 0.000000 0.000000
# 2 -0.002616 0.014179 -0.002786 0.000000 0.000000 0.000000
# 3 -0.002866 -0.002786 0.008914 0.000000 0.000000 0.000000
# 4 0.000000 0.000000 0.000000 0.026104 0.000000 0.000000
# 5 0.000000 0.000000 0.000000 0.000000 0.030748 0.000000
# 6 0.000000 0.000000 0.000000 0.000000 0.000000 0.390574
#
#
# Mechanical properties :
#
#
# Convention : Reuss Voigt Hill
#
# Bulk Modulus (GPa) = 50.09360 53.59302 51.84331
# Shear Modulus (GPa) = 9.85969 28.73434 19.29701
#
# Velocity S-wave (km/s) = 2.13864 3.65096 2.99193
# Velocity P-wave (km/s) = 5.41629 6.52946 5.99875
#
# Compressibility (1/GPa) = 0.01996263
#
# Stress axis : x y z
#
# Youngs Moduli (GPa) = 74.59410 70.52542 112.18736
#
# Poissons Ratio (x) = 0.18448 0.32158
# Poissons Ratio (y) = 0.19513 0.31254
# Poissons Ratio (z) = 0.21382 0.19647
#
# Static dielectric constant tensor:
#      x y z
#    x 1.990670 0.000000 0.000000 
#    y 0.000000 1.945800 0.000000 
#    z 0.000000 0.000000 1.855520 
# 
# From -- ./inp_files/32688.got.cif
#   From: 2010.05.17/outbox.cif.g08.bks.cpg/sg73_17_cif.got.tgz:32688.got - 2010.06.03 17:35:07.
