data_PCOD9533955
_publ_section_title
;
Structure prediction by ZEFSAII (Michael W. Deem and Ramdas Pophale) SiO2 
 PCOD9533955
Probable space group: I M M A
;
_chemical_formula_sum "Si O2"
_cell_formula_units_Z 72
_cell_length_a 8.420600
_cell_length_b 24.197134
_cell_length_c 23.991485
_cell_angle_alpha 90.000000
_cell_angle_beta 90.000000
_cell_angle_gamma 90.000000
_cell_volume 4888.370309
_symmetry_space_group_name_H-M "I M M A"
_symmetry_group_IT_number 74
_symmetry_cell_setting 'orthorhombic'
loop_
_space_group_symop_operation_xyz
x,y,z
-x,1/2-y,z
x,-y,-z
-x,1/2+y,-z
-x,-y,-z
x,1/2+y,-z
-x,y,z
x,1/2-y,z
1/2+x,1/2+y,1/2+z
1/2-x,-y,1/2+z
1/2+x,1/2-y,1/2-z
1/2-x,y,1/2-z
1/2-x,1/2-y,1/2-z
1/2+x,y,1/2-z
1/2-x,1/2+y,1/2+z
1/2+x,-y,1/2+z
loop_
_atom_site_type_symbol
_atom_site_label
_atom_site_fract_x
_atom_site_fract_y
_atom_site_fract_z
Si Si1 0.308475 0.024902 0.687562
Si Si2 0.808231 0.750000 0.186752
Si Si3 0.307812 0.137940 0.625672
Si Si4 0.687146 0.466379 0.419498
Si Si5 0.813592 0.422005 0.525664
O O1 0.500000 0.024880 0.687078
O O2 0.250000 0.017301 0.750000
O O3 0.257907 0.084824 0.663011
O O4 0.256307 0.977592 0.643599
O O5 0.750000 0.750000 0.250000
O O6 0.756654 0.694500 0.154863
O O7 0.000000 0.750000 0.187323
O O8 0.500000 0.137212 0.622143
O O9 0.238056 0.129023 0.563940
O O10 0.500000 0.454879 0.419518
O O11 0.772022 0.423050 0.460256
O O12 0.717637 0.526372 0.447857
O O13 0.000000 0.432628 0.532353
#
# Coordination Sequence:
#
# PCOD9533955 Si02
#       5
#    16   8  16  16  16
#     4   9  17  26  38  55  77 104 132 160 194 232
#     4  10  20  32  46  60  78 106 141 176 211 244
#     4   9  18  31  42  55  76 105 136 168 206 244
#     4   9  16  27  40  55  77 103 126 155 196 241
#     4  10  17  25  40  60  75  94 127 166 201 235
#
# _framework density 14.728835999999999
#
# number of rings (size 3 to 8) (size 9 to 14) (size 15 to 20)
#    0.000    2.667    0.000    6.000    0.000    5.333 
#    0.000    0.000    0.000    0.000    0.000    0.000 
#    0.000    0.000    0.000    1.000    0.000   11.778 
#
# Total GULP energy -200415.108493 kJ/mol
# GULP energy per Si atom -5567.086347 kJ/mol
# Density = 1.469531 g / cm^3
# Si number density = 14.728836 Si / 1000 Ang^3
#
#
#
# Elastic Constant Matrix: (Units=GPa)
#
#
# Indices 1 2 3 4 5 6 
#
# 1 8.9144 9.5031 14.5115 0.0000 0.0000 0.0000
# 2 9.5031 50.7244 58.2818 0.0000 0.0000 0.0000
# 3 14.5115 58.2818 141.3169 0.0000 0.0000 0.0000
# 4 0.0000 0.0000 0.0000 26.4699 0.0000 0.0000
# 5 0.0000 0.0000 0.0000 0.0000 25.9764 0.0000
# 6 0.0000 0.0000 0.0000 0.0000 0.0000 12.4039
#
#
#
# Elastic Compliance Matrix: (Units=1/GPa)
#
#
# Indices 1 2 3 4 5 6 
#
# 1 0.143670 -0.018940 -0.006942 0.000000 0.000000 0.000000
# 2 -0.018940 0.039967 -0.014538 0.000000 0.000000 0.000000
# 3 -0.006942 -0.014538 0.013785 0.000000 0.000000 0.000000
# 4 0.000000 0.000000 0.000000 0.037779 0.000000 0.000000
# 5 0.000000 0.000000 0.000000 0.000000 0.038497 0.000000
# 6 0.000000 0.000000 0.000000 0.000000 0.000000 0.080620
#
#
# Mechanical properties :
#
#
# Convention : Reuss Voigt Hill
#
# Bulk Modulus (GPa) = 8.57768 40.61651 24.59710
# Shear Modulus (GPa) = 10.54811 20.88064 15.71437
#
# Velocity S-wave (km/s) = 2.67901 3.76928 3.26991
# Velocity P-wave (km/s) = 3.92502 6.82491 5.56710
#
# Compressibility (1/GPa) = 0.11658161
#
# Stress axis : x y z
#
# Youngs Moduli (GPa) = 6.96039 25.02055 72.54259
#
# Poissons Ratio (x) = 0.47389 0.50358
# Poissons Ratio (y) = 0.13183 1.05465
# Poissons Ratio (z) = 0.04832 0.36376
#
# Static dielectric constant tensor:
#      x y z
#    x 1.501010 0.000000 0.000000 
#    y 0.000000 1.477680 0.000000 
#    z 0.000000 0.000000 1.533220 
# 
# From -- ./inp_files/48938.got.cif
#   From: 2010.05.17/outbox.cif.g08.bks.cpg/sg74_25_cif.got.tgz:48938.got - 2010.06.03 17:57:02.
