data_PCOD9533824
_publ_section_title
;
Structure prediction by ZEFSAII (Michael W. Deem and Ramdas Pophale) SiO2 
 PCOD9533824
Probable space group: I M M A
;
_chemical_formula_sum "Si O2"
_cell_formula_units_Z 68
_cell_length_a 16.440314
_cell_length_b 12.598198
_cell_length_c 14.297053
_cell_angle_alpha 90.000000
_cell_angle_beta 90.000000
_cell_angle_gamma 90.000000
_cell_volume 2961.181755
_symmetry_space_group_name_H-M "I M M A"
_symmetry_group_IT_number 74
_symmetry_cell_setting 'orthorhombic'
loop_
_space_group_symop_operation_xyz
x,y,z
-x,1/2-y,z
x,-y,-z
-x,1/2+y,-z
-x,-y,-z
x,1/2+y,-z
-x,y,z
x,1/2-y,z
1/2+x,1/2+y,1/2+z
1/2-x,-y,1/2+z
1/2+x,1/2-y,1/2-z
1/2-x,y,1/2-z
1/2-x,1/2-y,1/2-z
1/2+x,y,1/2-z
1/2-x,1/2+y,1/2+z
1/2+x,-y,1/2+z
loop_
_atom_site_type_symbol
_atom_site_label
_atom_site_fract_x
_atom_site_fract_y
_atom_site_fract_z
Si Si1 0.000000 0.377127 0.354401
Si Si2 0.643301 0.750000 0.346076
Si Si3 0.000000 0.056018 0.133158
Si Si4 0.000000 0.250000 0.993526
Si Si5 0.844688 0.489210 0.627491
Si Si6 0.675640 0.477727 0.649573
Si Si7 0.904994 0.750000 0.369488
O O1 0.000000 0.404937 0.241920
O O2 0.919678 0.433824 0.395952
O O3 0.000000 0.250000 0.365566
O O4 0.577121 0.750000 0.426532
O O5 0.696014 0.645969 0.354888
O O6 0.601399 0.750000 0.244396
O O7 0.000000 0.152037 0.062732
O O8 0.084232 0.994969 0.114295
O O9 0.753736 0.529416 0.600042
O O10 0.834734 0.499629 0.740265
O O11 0.868315 0.366506 0.603944
O O12 0.000000 0.750000 0.396322
#
# Coordination Sequence:
#
# PCOD9533824 Si02
#       7
#     8   8   8   4  16  16   8
#     4  10  18  32  47  72 101 137 167 205 231 301
#     4  10  19  28  48  69  97 124 171 201 252 290
#     4  10  21  34  46  62 104 136 183 200 233 274
#     4  12  22  34  46  70  94 152 180 206 230 274
#     4   9  17  29  49  72  99 129 164 196 263 298
#     4   9  18  32  46  70  94 134 163 208 242 305
#     4  10  15  27  48  75 103 126 153 205 251 317
#
# _framework density 22.963805000000001
#
# number of rings (size 3 to 8) (size 9 to 14) (size 15 to 20)
#    0.000    2.353    2.353    1.412    3.294    4.706 
#    2.118    2.353    0.000    0.000    0.000    0.000 
#    0.000    5.647    0.000    0.706    0.000    0.000 
#
# Total GULP energy -189595.462605 kJ/mol
# GULP energy per Si atom -5576.337135 kJ/mol
# Density = 2.291154 g / cm^3
# Si number density = 22.963805 Si / 1000 Ang^3
#
#
#
# Elastic Constant Matrix: (Units=GPa)
#
#
# Indices 1 2 3 4 5 6 
#
# 1 231.6921 72.4659 6.1609 0.0000 0.0000 0.0000
# 2 72.4659 125.0088 1.6836 0.0000 0.0000 0.0000
# 3 6.1609 1.6836 92.7521 0.0000 0.0000 0.0000
# 4 0.0000 0.0000 0.0000 -3.3986 0.0000 0.0000
# 5 0.0000 0.0000 0.0000 0.0000 -20.0633 0.0000
# 6 0.0000 0.0000 0.0000 0.0000 0.0000 -97.5592
#
#
#
# Elastic Compliance Matrix: (Units=1/GPa)
#
#
# Indices 1 2 3 4 5 6 
#
# 1 0.005280 -0.003057 -0.000295 0.000000 0.000000 0.000000
# 2 -0.003057 0.009771 0.000026 0.000000 0.000000 0.000000
# 3 -0.000295 0.000026 0.010801 0.000000 0.000000 0.000000
# 4 0.000000 0.000000 0.000000 -0.294236 0.000000 0.000000
# 5 0.000000 0.000000 0.000000 0.000000 -0.049842 0.000000
# 6 0.000000 0.000000 0.000000 0.000000 0.000000 -0.010250
#
#
# Mechanical properties :
#
#
# Convention : Reuss Voigt Hill
#
# Bulk Modulus (GPa) = 52.08609 67.78598 59.93603
# Shear Modulus (GPa) = -15.85166 0.40526 -7.72320
#
# Velocity S-wave (km/s) = -2.63018 0.42055 -1.83589
# Velocity P-wave (km/s) = 3.67522 5.46063 4.65434
#
# Compressibility (1/GPa) = 0.01919898
#
# Stress axis : x y z
#
# Youngs Moduli (GPa) = 189.39464 102.34313 92.58774
#
# Poissons Ratio (x) = 0.31284 0.02733
# Poissons Ratio (y) = 0.57893 -0.00238
# Poissons Ratio (z) = 0.05591 -0.00263
#
# Static dielectric constant tensor:
#      x y z
#    x 2.762710 0.000000 0.000000 
#    y 0.000000 1.850990 0.000000 
#    z 0.000000 0.000000 1.844420 
# 
# From -- ./inp_files/41027.got.cif
#   From: 2010.05.17/outbox.cif.g08.bks.cpg/sg74_21_cif.got.tgz:41027.got - 2010.06.03 17:57:02.
