data_PCOD9533256
_publ_section_title
;
Structure prediction by ZEFSAII (Michael W. Deem and Ramdas Pophale) SiO2 
 PCOD9533256
Probable space group: I B C A 
;
_chemical_formula_sum "Si O2"
_cell_formula_units_Z 120
_cell_length_a 23.923832
_cell_length_b 11.214195
_cell_length_c 21.739583
_cell_angle_alpha 90.000000
_cell_angle_beta 90.000000
_cell_angle_gamma 90.000000
_cell_volume 5832.437008
_symmetry_space_group_name_H-M "I B C A "
_symmetry_group_IT_number 73
_symmetry_cell_setting 'orthorhombic'
loop_
_space_group_symop_operation_xyz
x,y,z
-x,1/2-y,z
x,-y,1/2-z
1/2-x,y,-z
-x,-y,-z
x,1/2+y,-z
-x,y,1/2+z
1/2+x,-y,z
1/2+x,1/2+y,1/2+z
1/2-x,-y,1/2+z
1/2+x,1/2-y,-z
-x,1/2+y,1/2-z
1/2-x,1/2-y,1/2-z
1/2+x,y,1/2-z
1/2-x,1/2+y,z
x,1/2-y,1/2+z
loop_
_atom_site_type_symbol
_atom_site_label
_atom_site_fract_x
_atom_site_fract_y
_atom_site_fract_z
Si Si1 0.215022 0.124229 0.939246
Si Si2 0.675855 0.631823 0.777665
Si Si3 0.394819 0.261359 0.544939
Si Si4 0.611863 0.000000 0.750000
Si Si5 0.935498 0.484468 0.515559
Si Si6 0.934077 0.270839 0.815890
Si Si7 0.277542 0.744452 0.658639
Si Si8 0.140350 0.073605 0.616504
O O1 0.171876 0.233160 0.948291
O O2 0.250305 0.147690 0.878262
O O3 0.177133 0.011304 0.925715
O O4 0.250000 0.109018 0.000000
O O5 0.675302 0.500000 0.750000
O O6 0.613850 0.673089 0.798592
O O7 0.694729 0.718129 0.722325
O O8 0.725949 0.653881 0.826995
O O9 0.411253 0.380481 0.505713
O O10 0.413269 0.130667 0.522554
O O11 0.421636 0.289337 0.611713
O O12 0.578480 0.115361 0.727122
O O13 0.644122 0.033553 0.812465
O O14 0.920182 0.441701 0.585664
O O15 0.000000 0.500000 0.500000
O O16 0.000000 0.250000 0.809101
O O17 0.327849 0.697687 0.616094
#
# Coordination Sequence:
#
# PCOD9533256 Si02
#       8
#    16  16  16   8  16  16  16  16
#     4  11  23  42  66  98 137 181 231 290 356 423
#     4  11  24  42  67 104 141 183 234 292 359 430
#     4  11  24  46  71 104 137 189 240 296 365 424
#     4  12  22  48  74 100 142 188 244 284 362 452
#     4  11  23  44  70 101 136 186 240 289 359 432
#     4  12  25  46  74 101 142 190 239 299 367 430
#     4  11  22  41  68  97 138 182 230 287 356 428
#     4  11  24  41  70 101 137 185 237 291 356 436
#
# _framework density 20.574591000000002
#
# number of rings (size 3 to 8) (size 9 to 14) (size 15 to 20)
#    0.000    0.800    5.333    2.800    3.733    2.667 
#    7.200    1.333    0.000    0.000    0.000    0.000 
#    0.000    0.000    0.000    0.000    0.000    0.000 
#
# Total GULP energy -334397.006444 kJ/mol
# GULP energy per Si atom -5573.283441 kJ/mol
# Density = 2.052776 g / cm^3
# Si number density = 20.574591 Si / 1000 Ang^3
#
#
#
# Elastic Constant Matrix: (Units=GPa)
#
#
# Indices 1 2 3 4 5 6 
#
# 1 108.3564 28.4752 43.2298 0.0000 0.0000 0.0000
# 2 28.4752 95.3501 28.7784 0.0000 0.0000 0.0000
# 3 43.2298 28.7784 74.3055 0.0000 0.0000 0.0000
# 4 0.0000 0.0000 0.0000 28.1344 0.0000 0.0000
# 5 0.0000 0.0000 0.0000 0.0000 5.6822 0.0000
# 6 0.0000 0.0000 0.0000 0.0000 0.0000 36.3025
#
#
#
# Elastic Compliance Matrix: (Units=1/GPa)
#
#
# Indices 1 2 3 4 5 6 
#
# 1 0.012259 -0.001708 -0.006471 0.000000 0.000000 0.000000
# 2 -0.001708 0.012114 -0.003698 0.000000 0.000000 0.000000
# 3 -0.006471 -0.003698 0.018655 0.000000 0.000000 0.000000
# 4 0.000000 0.000000 0.000000 0.035544 0.000000 0.000000
# 5 0.000000 0.000000 0.000000 0.000000 0.175988 0.000000
# 6 0.000000 0.000000 0.000000 0.000000 0.000000 0.027546
#
#
# Mechanical properties :
#
#
# Convention : Reuss Voigt Hill
#
# Bulk Modulus (GPa) = 51.88239 53.21985 52.55112
# Shear Modulus (GPa) = 16.01105 25.85906 20.93505
#
# Velocity S-wave (km/s) = 2.79264 3.54905 3.19332
# Velocity P-wave (km/s) = 5.97243 6.53584 6.26048
#
# Compressibility (1/GPa) = 0.01927436
#
# Stress axis : x y z
#
# Youngs Moduli (GPa) = 81.57130 82.54993 53.60578
#
# Poissons Ratio (x) = 0.14100 0.34687
# Poissons Ratio (y) = 0.13933 0.19823
# Poissons Ratio (z) = 0.52782 0.30526
#
# Static dielectric constant tensor:
#      x y z
#    x 1.767110 0.000000 0.000000 
#    y 0.000000 1.770740 0.000000 
#    z 0.000000 0.000000 2.030080 
# 
# From -- ./inp_files/27364.got.cif
#   From: 2010.05.17/outbox.cif.g08.bks.cpg/sg73_14_cif.got.tgz:27364.got - 2010.06.03 17:35:07.
