data_PCOD9533199
_publ_section_title
;
Structure prediction by ZEFSAII (Michael W. Deem and Ramdas Pophale) SiO2 
 PCOD9533199
Probable space group: I B C A 
;
_chemical_formula_sum "Si O2"
_cell_formula_units_Z 88
_cell_length_a 14.544207
_cell_length_b 22.466921
_cell_length_c 12.927552
_cell_angle_alpha 90.000000
_cell_angle_beta 90.000000
_cell_angle_gamma 90.000000
_cell_volume 4224.252780
_symmetry_space_group_name_H-M "I B C A "
_symmetry_group_IT_number 73
_symmetry_cell_setting 'orthorhombic'
loop_
_space_group_symop_operation_xyz
x,y,z
-x,1/2-y,z
x,-y,1/2-z
1/2-x,y,-z
-x,-y,-z
x,1/2+y,-z
-x,y,1/2+z
1/2+x,-y,z
1/2+x,1/2+y,1/2+z
1/2-x,-y,1/2+z
1/2+x,1/2-y,-z
-x,1/2+y,1/2-z
1/2-x,1/2-y,1/2-z
1/2+x,y,1/2-z
1/2-x,1/2+y,z
x,1/2-y,1/2+z
loop_
_atom_site_type_symbol
_atom_site_label
_atom_site_fract_x
_atom_site_fract_y
_atom_site_fract_z
Si Si1 0.352860 0.898581 0.115922
Si Si2 0.500000 0.750000 0.263045
Si Si3 0.060072 0.355715 0.636251
Si Si4 0.250000 0.704845 0.500000
Si Si5 0.132578 0.187880 0.918160
Si Si6 0.759111 0.412527 0.179630
Si Si7 0.250000 0.491101 0.000000
O O1 0.458753 0.884035 0.136976
O O2 0.302302 0.837977 0.080134
O O3 0.299115 0.922156 0.216803
O O4 0.334725 0.946802 0.025375
O O5 0.561136 0.791186 0.189821
O O6 0.556433 0.704430 0.333959
O O7 0.089981 0.344607 0.517770
O O8 0.134853 0.395428 0.695269
O O9 0.322898 0.749106 0.448393
O O10 0.210196 0.144663 0.872951
O O11 0.759006 0.466208 0.098483
#
# Coordination Sequence:
#
# PCOD9533199 Si02
#       7
#    16   8  16   8  16  16   8
#     4  11  26  44  72 103 135 184 239 289 352 421
#     4  12  24  36  66 106 142 180 222 282 342 450
#     4  12  24  42  69 102 141 179 232 281 349 431
#     4  11  21  42  66 102 145 179 220 286 344 427
#     4  12  23  41  67 101 144 185 222 283 361 425
#     4  12  24  48  69  99 139 186 233 291 359 416
#     4  11  25  52  70  92 137 177 238 310 336 405
#
# _framework density 20.832087000000001
#
# number of rings (size 3 to 8) (size 9 to 14) (size 15 to 20)
#    0.000    0.364    5.455    4.364    0.000    3.636 
#    0.000    1.818    0.000    0.000    0.000    0.000 
#    0.000    0.000    0.000    0.000    0.000    0.000 
#
# Total GULP energy -246100.486154 kJ/mol
# GULP energy per Si atom -5593.192867 kJ/mol
# Density = 2.078467 g / cm^3
# Si number density = 20.832087 Si / 1000 Ang^3
#
#
#
# Elastic Constant Matrix: (Units=GPa)
#
#
# Indices 1 2 3 4 5 6 
#
# 1 129.8489 25.8727 38.3689 0.0000 0.0000 0.0000
# 2 25.8727 97.0071 23.2729 0.0000 0.0000 0.0000
# 3 38.3689 23.2729 75.6462 0.0001 0.0000 0.0000
# 4 0.0000 0.0000 0.0001 22.7773 0.0000 0.0000
# 5 0.0000 0.0000 0.0000 0.0000 24.9779 0.0000
# 6 0.0000 0.0000 0.0000 0.0000 0.0000 2.6551
#
#
#
# Elastic Compliance Matrix: (Units=1/GPa)
#
#
# Indices 1 2 3 4 5 6 
#
# 1 0.009243 -0.001447 -0.004243 0.000000 0.000000 0.000000
# 2 -0.001447 0.011357 -0.002760 0.000000 0.000000 0.000000
# 3 -0.004243 -0.002760 0.016221 0.000000 0.000000 0.000000
# 4 0.000000 0.000000 0.000000 0.043903 0.000000 0.000000
# 5 0.000000 0.000000 0.000000 0.000000 0.040035 0.000000
# 6 0.000000 0.000000 0.000000 0.000000 0.000000 0.376628
#
#
# Mechanical properties :
#
#
# Convention : Reuss Voigt Hill
#
# Bulk Modulus (GPa) = 50.20030 53.05903 51.62966
# Shear Modulus (GPa) = 9.59826 24.41459 17.00643
#
# Velocity S-wave (km/s) = 2.14882 3.42712 2.86030
# Velocity P-wave (km/s) = 5.50513 6.41758 5.97879
#
# Compressibility (1/GPa) = 0.01992020
#
# Stress axis : x y z
#
# Youngs Moduli (GPa) = 108.18471 88.05418 61.64968
#
# Poissons Ratio (x) = 0.12745 0.26159
# Poissons Ratio (y) = 0.15658 0.17014
# Poissons Ratio (z) = 0.45904 0.24301
#
# Static dielectric constant tensor:
#      x y z
#    x 1.793570 0.000000 0.000000 
#    y 0.000000 1.727410 0.000000 
#    z 0.000000 0.000000 1.781770 
# 
# From -- ./inp_files/16153.got.cif
#   From: 2010.05.17/outbox.cif.g08.bks.cpg/sg73_9_cif.got.tgz:16153.got - 2010.06.03 17:35:07.
