data_PCOD9533299
_publ_section_title
;
Structure prediction by ZEFSAII (Michael W. Deem and Ramdas Pophale) SiO2 
 PCOD9533299
Probable space group: I B C A 
;
_chemical_formula_sum "Si O2"
_cell_formula_units_Z 112
_cell_length_a 16.612079
_cell_length_b 13.960985
_cell_length_c 20.933585
_cell_angle_alpha 90.000000
_cell_angle_beta 90.000000
_cell_angle_gamma 90.000000
_cell_volume 4854.937668
_symmetry_space_group_name_H-M "I B C A "
_symmetry_group_IT_number 73
_symmetry_cell_setting 'orthorhombic'
loop_
_space_group_symop_operation_xyz
x,y,z
-x,1/2-y,z
x,-y,1/2-z
1/2-x,y,-z
-x,-y,-z
x,1/2+y,-z
-x,y,1/2+z
1/2+x,-y,z
1/2+x,1/2+y,1/2+z
1/2-x,-y,1/2+z
1/2+x,1/2-y,-z
-x,1/2+y,1/2-z
1/2-x,1/2-y,1/2-z
1/2+x,y,1/2-z
1/2-x,1/2+y,z
x,1/2-y,1/2+z
loop_
_atom_site_type_symbol
_atom_site_label
_atom_site_fract_x
_atom_site_fract_y
_atom_site_fract_z
Si Si1 0.336085 0.819876 0.111062
Si Si2 0.732845 0.992178 0.430901
Si Si3 0.514082 0.636705 0.194144
Si Si4 0.966509 0.856291 0.164672
Si Si5 0.444805 0.988952 0.587578
Si Si6 0.698671 0.175614 0.622147
Si Si7 0.919546 0.191572 0.501199
O O1 0.295130 0.906728 0.073859
O O2 0.397937 0.867524 0.160897
O O3 0.260928 0.759247 0.137628
O O4 0.380932 0.749885 0.061006
O O5 0.750000 0.036213 0.500000
O O6 0.641440 0.960796 0.420218
O O7 0.751774 0.078101 0.383640
O O8 0.500000 0.750000 0.194147
O O9 0.504868 0.605145 0.267077
O O10 0.453135 0.582355 0.147785
O O11 0.871569 0.842164 0.172021
O O12 0.000000 0.750000 0.154481
O O13 0.991294 0.929028 0.108039
O O14 0.446184 0.913914 0.528032
O O15 0.646089 0.191973 0.556272
O O16 0.000000 0.250000 0.484540
#
# Coordination Sequence:
#
# PCOD9533299 Si02
#       7
#    16  16  16  16  16  16  16
#     4  12  23  43  70 101 140 183 228 290 354 423
#     4  12  24  39  66  99 141 181 219 287 360 418
#     4  11  22  47  72  95 130 184 242 281 343 417
#     4  11  27  44  66  97 138 183 233 291 338 420
#     4  12  22  46  67 100 135 185 237 286 351 419
#     4  12  24  43  63 106 145 169 232 289 353 426
#     4  12  23  42  73 102 138 188 231 286 358 438
#
# _framework density 23.069296999999999
#
# number of rings (size 3 to 8) (size 9 to 14) (size 15 to 20)
#    0.000    0.286    5.714    3.857    0.000    2.286 
#    0.000    2.857    0.000    0.000    0.000    0.000 
#    0.000    0.000    0.000    0.000    0.000    0.000 
#
# Total GULP energy -313018.893755 kJ/mol
# GULP energy per Si atom -5589.623103 kJ/mol
# Density = 2.301679 g / cm^3
# Si number density = 23.069297 Si / 1000 Ang^3
#
#
#
# Elastic Constant Matrix: (Units=GPa)
#
#
# Indices 1 2 3 4 5 6 
#
# 1 104.2272 9.4700 12.8168 0.0000 0.0000 0.0000
# 2 9.4700 92.0251 5.7716 0.0000 0.0000 0.0000
# 3 12.8168 5.7716 98.6497 0.0000 0.0000 0.0000
# 4 0.0000 0.0000 0.0000 280.3507 0.0000 0.0000
# 5 0.0000 0.0000 0.0000 0.0000 -3.1011 0.0000
# 6 0.0000 0.0000 0.0000 0.0000 0.0000 52.1804
#
#
#
# Elastic Compliance Matrix: (Units=1/GPa)
#
#
# Indices 1 2 3 4 5 6 
#
# 1 0.009830 -0.000935 -0.001222 0.000000 0.000000 0.000000
# 2 -0.000935 0.010996 -0.000522 0.000000 0.000000 0.000000
# 3 -0.001222 -0.000522 0.010326 0.000000 0.000000 0.000000
# 4 0.000000 0.000000 0.000000 0.003567 0.000000 0.000000
# 5 0.000000 0.000000 0.000000 0.000000 -0.322467 0.000000
# 6 0.000000 0.000000 0.000000 0.000000 0.000000 0.019164
#
#
# Mechanical properties :
#
#
# Convention : Reuss Voigt Hill
#
# Bulk Modulus (GPa) = 38.76988 39.00208 38.88598
# Shear Modulus (GPa) = -19.63646 83.67557 32.01956
#
# Velocity S-wave (km/s) = -2.92069 6.02911 3.72959
# Velocity P-wave (km/s) = 2.33847 8.08765 5.95309
#
# Compressibility (1/GPa) = 0.02579322
#
# Stress axis : x y z
#
# Youngs Moduli (GPa) = 101.73265 90.94600 96.84081
#
# Poissons Ratio (x) = 0.08502 0.11838
# Poissons Ratio (y) = 0.09511 0.05054
# Poissons Ratio (z) = 0.12436 0.04746
#
# Static dielectric constant tensor:
#      x y z
#    x 2.073880 0.000000 0.000000 
#    y 0.000000 1.818780 0.000000 
#    z 0.000000 0.000000 1.897440 
# 
# From -- ./inp_files/29562.got.cif
#   From: 2010.05.17/outbox.cif.g08.bks.cpg/sg73_15_cif.got.tgz:29562.got - 2010.06.03 17:35:07.
