data_PCOD9533398
_publ_section_title
;
Structure prediction by ZEFSAII (Michael W. Deem and Ramdas Pophale) SiO2 
 PCOD9533398
Probable space group: I B C A 
;
_chemical_formula_sum "Si O2"
_cell_formula_units_Z 64
_cell_length_a 30.302267
_cell_length_b 19.339270
_cell_length_c 5.162875
_cell_angle_alpha 90.000000
_cell_angle_beta 90.000000
_cell_angle_gamma 90.000000
_cell_volume 3025.567230
_symmetry_space_group_name_H-M "I B C A "
_symmetry_group_IT_number 73
_symmetry_cell_setting 'orthorhombic'
loop_
_space_group_symop_operation_xyz
x,y,z
-x,1/2-y,z
x,-y,1/2-z
1/2-x,y,-z
-x,-y,-z
x,1/2+y,-z
-x,y,1/2+z
1/2+x,-y,z
1/2+x,1/2+y,1/2+z
1/2-x,-y,1/2+z
1/2+x,1/2-y,-z
-x,1/2+y,1/2-z
1/2-x,1/2-y,1/2-z
1/2+x,y,1/2-z
1/2-x,1/2+y,z
x,1/2-y,1/2+z
loop_
_atom_site_type_symbol
_atom_site_label
_atom_site_fract_x
_atom_site_fract_y
_atom_site_fract_z
Si Si1 0.468035 0.000000 0.250000
Si Si2 0.851986 0.790531 0.913433
Si Si3 0.820173 0.500000 0.750000
Si Si4 0.250000 0.171761 0.000000
Si Si5 0.392721 0.933294 0.550932
Si Si6 0.750000 0.421250 0.500000
O O1 0.500000 0.000000 0.500000
O O2 0.434020 0.940419 0.352502
O O3 0.863999 0.732912 0.702030
O O4 0.879304 0.859460 0.829435
O O5 0.797677 0.794304 0.930996
O O6 0.850982 0.557591 0.634976
O O7 0.791467 0.471076 0.516930
O O8 0.243725 0.124901 0.749250
O O9 0.395614 0.000000 0.750000
#
# Coordination Sequence:
#
# PCOD9533398 Si02
#       6
#     8  16   8   8  16   8
#     4  11  24  46  79 116 134 164 217 290 362 441
#     4  12  27  44  65  98 144 194 242 289 344 402
#     4  11  24  36  61 100 132 186 237 306 348 401
#     4  12  23  43  60  86 140 196 254 288 338 392
#     4  11  25  45  76 103 142 178 238 290 359 425
#     4  12  23  37  60  90 136 180 244 302 346 392
#
# _framework density 21.15306
#
# number of rings (size 3 to 8) (size 9 to 14) (size 15 to 20)
#    0.000    0.500    3.750    4.500    8.750    0.000 
#    0.000    0.000    0.000    4.500    0.000    0.000 
#    0.000    0.000    0.000    0.000    0.000    0.000 
#
# Total GULP energy -178166.933134 kJ/mol
# GULP energy per Si atom -5567.716660 kJ/mol
# Density = 2.110491 g / cm^3
# Si number density = 21.153060 Si / 1000 Ang^3
#
#
#
# Elastic Constant Matrix: (Units=GPa)
#
#
# Indices 1 2 3 4 5 6 
#
# 1 109.3495 28.4983 35.2185 0.0000 0.0000 0.0000
# 2 28.4983 83.6680 30.7938 0.0000 0.0000 0.0000
# 3 35.2185 30.7938 134.5271 0.0000 0.0000 0.0000
# 4 0.0000 0.0000 0.0000 45.5020 0.0000 0.0000
# 5 0.0000 0.0000 0.0000 0.0000 35.6294 0.0000
# 6 0.0000 0.0000 0.0000 0.0000 0.0000 8.7298
#
#
#
# Elastic Compliance Matrix: (Units=1/GPa)
#
#
# Indices 1 2 3 4 5 6 
#
# 1 0.010562 -0.002817 -0.002120 0.000000 0.000000 0.000000
# 2 -0.002817 0.013803 -0.002422 0.000000 0.000000 0.000000
# 3 -0.002120 -0.002422 0.008543 0.000000 0.000000 0.000000
# 4 0.000000 0.000000 0.000000 0.021977 0.000000 0.000000
# 5 0.000000 0.000000 0.000000 0.000000 0.028067 0.000000
# 6 0.000000 0.000000 0.000000 0.000000 0.000000 0.114550
#
#
# Mechanical properties :
#
#
# Convention : Reuss Voigt Hill
#
# Bulk Modulus (GPa) = 54.97815 57.39620 56.18717
# Shear Modulus (GPa) = 22.90601 33.50783 28.20692
#
# Velocity S-wave (km/s) = 3.29427 3.98435 3.65563
# Velocity P-wave (km/s) = 6.36527 6.95409 6.66619
#
# Compressibility (1/GPa) = 0.01818905
#
# Stress axis : x y z
#
# Youngs Moduli (GPa) = 94.67840 72.44802 117.05603
#
# Poissons Ratio (x) = 0.20410 0.24818
# Poissons Ratio (y) = 0.26673 0.28351
# Poissons Ratio (z) = 0.20074 0.17547
#
# Static dielectric constant tensor:
#      x y z
#    x 1.778040 0.000000 0.000000 
#    y 0.000000 1.695940 0.000000 
#    z 0.000000 0.000000 3.065710 
# 
# From -- ./inp_files/1187.got.cif
#   From: 2010.05.17/outbox.cif.g08.bks.cpg/sg73_1_cif.got.tgz:1187.got - 2010.06.03 17:35:07.
