data_PCOD9533759
_publ_section_title
;
Structure prediction by ZEFSAII (Michael W. Deem and Ramdas Pophale) SiO2 
 PCOD9533759
Probable space group: I B C A 
;
_chemical_formula_sum "Si O2"
_cell_formula_units_Z 48
_cell_length_a 12.000000
_cell_length_b 21.000000
_cell_length_c 21.000000
_cell_angle_alpha 90.000000
_cell_angle_beta 90.000000
_cell_angle_gamma 90.000000
_cell_volume 5292.000000
_symmetry_space_group_name_H-M "I B C A "
_symmetry_group_IT_number 73
_symmetry_cell_setting 'orthorhombic'
loop_
_space_group_symop_operation_xyz
x,y,z
-x,1/2-y,z
x,-y,1/2-z
1/2-x,y,-z
-x,-y,-z
x,1/2+y,-z
-x,y,1/2+z
1/2+x,-y,z
1/2+x,1/2+y,1/2+z
1/2-x,-y,1/2+z
1/2+x,1/2-y,-z
-x,1/2+y,1/2-z
1/2-x,1/2-y,1/2-z
1/2+x,y,1/2-z
1/2-x,1/2+y,z
x,1/2-y,1/2+z
loop_
_atom_site_type_symbol
_atom_site_label
_atom_site_fract_x
_atom_site_fract_y
_atom_site_fract_z
Si Si1 0.103240 0.572456 0.142507
Si Si2 0.518168 0.000000 0.250000
Si Si3 0.875412 0.215045 0.752631
Si Si4 0.569198 0.316096 0.602950
Si Si5 0.750000 0.631723 0.000000
Si Si6 0.865898 0.096378 0.655033
Si Si7 0.952825 0.453948 0.556544
O O1 0.056684 0.552957 0.212824
O O2 0.233187 0.592366 0.140827
O O3 0.092913 0.505615 0.106189
O O4 0.021348 0.625624 0.110208
O O5 0.595696 0.037623 0.299958
O O6 0.750000 0.250000 0.750000
O O7 0.880743 0.190182 0.825643
O O8 0.879036 0.160516 0.697820
O O9 0.000000 0.250000 0.746073
O O10 0.500000 0.250000 0.588843
O O11 0.670618 0.330458 0.552304
O O12 0.847268 0.588951 0.966062
O O13 0.948391 0.086808 0.592918
O O14 0.000000 0.500000 0.500000
#
# Coordination Sequence:
#
# PCOD9533759 Si02
#       7
#    16   8  16  16   8  16  16
#     4  11  22  42  66  99 140 170 228 283 352 412
#     4  10  22  36  64 104 132 170 220 274 352 410
#     4  11  25  45  71  99 139 180 231 291 351 415
#     4  11  25  48  68  96 139 188 223 289 352 415
#     4  12  26  48  70  96 144 180 238 290 348 432
#     4  11  23  39  68 103 131 179 227 279 349 425
#     4  11  24  43  68 102 134 184 226 290 357 411
#
# _framework density 9.0702949999999998
#
# number of rings (size 3 to 8) (size 9 to 14) (size 15 to 20)
#    0.000    1.000    3.333    3.500    4.667    1.333 
#    6.000    0.000    0.000    0.000    0.000    0.000 
#    0.000    0.000    0.000    0.000    0.000    0.000 
#
# Total GULP energy -267371.322786 kJ/mol
# GULP energy per Si atom -5570.235891 kJ/mol
# Density = 0.904965 g / cm^3
# Si number density = 9.070295 Si / 1000 Ang^3
#
#
#
# Elastic Constant Matrix: (Units=GPa)
#
#
# Indices 1 2 3 4 5 6 
#
# 1 193.6207 64.1634 66.0264 0.0000 0.0000 0.0000
# 2 64.1634 103.1011 42.6181 0.0000 0.0000 0.0000
# 3 66.0264 42.6181 108.2630 0.0000 0.0000 0.0000
# 4 0.0000 0.0000 0.0000 47.0176 0.0000 0.0000
# 5 0.0000 0.0000 0.0000 0.0000 44.9068 0.0000
# 6 0.0000 0.0000 0.0000 0.0000 0.0000 45.9159
#
#
#
# Elastic Compliance Matrix: (Units=1/GPa)
#
#
# Indices 1 2 3 4 5 6 
#
# 1 0.007327 -0.003240 -0.003193 0.000000 0.000000 0.000000
# 2 -0.003240 0.013017 -0.003148 0.000000 0.000000 0.000000
# 3 -0.003193 -0.003148 0.012424 0.000000 0.000000 0.000000
# 4 0.000000 0.000000 0.000000 0.021269 0.000000 0.000000
# 5 0.000000 0.000000 0.000000 0.000000 0.022268 0.000000
# 6 0.000000 0.000000 0.000000 0.000000 0.000000 0.021779
#
#
# Mechanical properties :
#
#
# Convention : Reuss Voigt Hill
#
# Bulk Modulus (GPa) = 73.50320 83.40009 78.45164
# Shear Modulus (GPa) = 41.05702 43.04652 42.05177
#
# Velocity S-wave (km/s) = 4.76254 4.87657 4.81989
# Velocity P-wave (km/s) = 8.41719 8.81941 8.62064
#
# Compressibility (1/GPa) = 0.01360485
#
# Stress axis : x y z
#
# Youngs Moduli (GPa) = 136.47384 76.82275 80.49243
#
# Poissons Ratio (x) = 0.24892 0.25704
# Poissons Ratio (y) = 0.44219 0.25340
# Poissons Ratio (z) = 0.43580 0.24185
#
# Static dielectric constant tensor:
#      x y z
#    x 1.623610 0.000000 0.000000 
#    y 0.000000 1.646820 0.000000 
#    z 0.000000 0.000000 1.673150 
# 
# From -- ./inp_files/25481.got.cif
#   From: 2010.05.17/outbox.ucp.g08.bks.cvg/sg73_13_cif.got.tgz:25481.got - 2010.06.11 16:36:03.
