data_PCOD9533154
_publ_section_title
;
Structure prediction by ZEFSAII (Michael W. Deem and Ramdas Pophale) SiO2 
 PCOD9533154
Probable space group: I B C A 
;
_chemical_formula_sum "Si O2"
_cell_formula_units_Z 88
_cell_length_a 14.411895
_cell_length_b 24.453889
_cell_length_c 11.487440
_cell_angle_alpha 90.000000
_cell_angle_beta 90.000000
_cell_angle_gamma 90.000000
_cell_volume 4048.482645
_symmetry_space_group_name_H-M "I B C A "
_symmetry_group_IT_number 73
_symmetry_cell_setting 'orthorhombic'
loop_
_space_group_symop_operation_xyz
x,y,z
-x,1/2-y,z
x,-y,1/2-z
1/2-x,y,-z
-x,-y,-z
x,1/2+y,-z
-x,y,1/2+z
1/2+x,-y,z
1/2+x,1/2+y,1/2+z
1/2-x,-y,1/2+z
1/2+x,1/2-y,-z
-x,1/2+y,1/2-z
1/2-x,1/2-y,1/2-z
1/2+x,y,1/2-z
1/2-x,1/2+y,z
x,1/2-y,1/2+z
loop_
_atom_site_type_symbol
_atom_site_label
_atom_site_fract_x
_atom_site_fract_y
_atom_site_fract_z
Si Si1 0.851714 0.083584 0.709393
Si Si2 0.360644 0.249842 0.118423
Si Si3 0.196474 0.500000 0.250000
Si Si4 0.644496 0.126352 0.041352
Si Si5 0.534144 0.955184 0.591582
Si Si6 0.853478 0.710322 0.369472
O O1 0.859386 0.088405 0.847011
O O2 0.848152 0.145628 0.660347
O O3 0.944953 0.055218 0.668922
O O4 0.761449 0.046010 0.690321
O O5 0.370939 0.311799 0.077080
O O6 0.392388 0.254898 0.256099
O O7 0.253195 0.231387 0.125238
O O8 0.395682 0.217902 0.000667
O O9 0.126490 0.475450 0.155572
O O10 0.750000 0.122857 0.000000
O O11 0.566413 0.103374 0.957514
O O12 0.500000 0.000000 0.500000
#
# Coordination Sequence:
#
# PCOD9533154 Si02
#       6
#    16  16   8  16  16  16
#     4  11  25  43  66 102 134 178 243 291 358 438
#     4   9  18  34  65 100 128 177 231 274 354 437
#     4  12  24  44  70  88 136 190 226 290 364 424
#     4  11  20  43  71  93 132 190 225 277 371 433
#     4  12  27  42  65 101 138 178 243 301 351 433
#     4   9  18  35  63  99 134 172 228 291 341 435
#
# _framework density 21.736540000000002
#
# number of rings (size 3 to 8) (size 9 to 14) (size 15 to 20)
#    0.000    1.455    3.636    2.727    0.000    2.909 
#    0.000    2.727    0.000    6.545    0.000    0.000 
#    0.000    0.000    0.000    0.000    0.000    0.000 
#
# Total GULP energy -245245.569520 kJ/mol
# GULP energy per Si atom -5573.762944 kJ/mol
# Density = 2.168707 g / cm^3
# Si number density = 21.736540 Si / 1000 Ang^3
#
#
#
# Elastic Constant Matrix: (Units=GPa)
#
#
# Indices 1 2 3 4 5 6 
#
# 1 81.7904 -5.8581 16.7980 -0.0002 0.0000 -0.0001
# 2 -5.8581 36.2274 4.1613 -0.0006 -0.0001 -0.0006
# 3 16.7980 4.1613 116.2565 -0.0014 -0.0001 -0.0010
# 4 -0.0002 -0.0006 -0.0014 36.2838 -0.0001 -0.0006
# 5 0.0000 -0.0001 -0.0001 -0.0001 39.6320 0.0000
# 6 -0.0001 -0.0006 -0.0010 -0.0006 0.0000 -17.2589
#
#
#
# Elastic Compliance Matrix: (Units=1/GPa)
#
#
# Indices 1 2 3 4 5 6 
#
# 1 0.012787 0.002289 -0.001929 0.000000 0.000000 0.000000
# 2 0.002289 0.028127 -0.001338 0.000000 0.000000 -0.000001
# 3 -0.001929 -0.001338 0.008928 0.000000 0.000000 0.000000
# 4 0.000000 0.000000 0.000000 0.027561 0.000000 -0.000001
# 5 0.000000 0.000000 0.000000 0.000000 0.025232 0.000000
# 6 0.000000 -0.000001 0.000000 -0.000001 0.000000 -0.057941
#
#
# Mechanical properties :
#
#
# Convention : Reuss Voigt Hill
#
# Bulk Modulus (GPa) = 20.88267 29.38631 25.13449
# Shear Modulus (GPa) = 79.85744 26.34291 53.10017
#
# Velocity S-wave (km/s) = 6.06783 3.48504 4.94793
# Velocity P-wave (km/s) = 7.66286 5.45368 6.65064
#
# Compressibility (1/GPa) = 0.04788659
#
# Stress axis : x y z
#
# Youngs Moduli (GPa) = 78.20682 35.55273 112.00289
#
# Poissons Ratio (x) = -0.08139 0.21611
# Poissons Ratio (y) = -0.17904 0.14981
# Poissons Ratio (z) = 0.15090 0.04755
#
# Static dielectric constant tensor:
#      x y z
#    x 1.711210 0.000000 0.000000 
#    y 0.000000 1.680410 0.000000 
#    z 0.000000 0.000000 1.901500 
# 
# From -- ./inp_files/10944.got.cif
#   From: 2010.05.17/outbox.cif.g08.bks.cpg/sg73_6_cif.got.tgz:10944.got - 2010.06.03 17:35:07.
