data_PCOD9533908
_publ_section_title
;
Structure prediction by ZEFSAII (Michael W. Deem and Ramdas Pophale) SiO2 
 PCOD9533908
Probable space group: I M M A
;
_chemical_formula_sum "Si O2"
_cell_formula_units_Z 88
_cell_length_a 26.201276
_cell_length_b 27.610740
_cell_length_c 5.503607
_cell_angle_alpha 90.000000
_cell_angle_beta 90.000000
_cell_angle_gamma 90.000000
_cell_volume 3981.510842
_symmetry_space_group_name_H-M "I M M A"
_symmetry_group_IT_number 74
_symmetry_cell_setting 'orthorhombic'
loop_
_space_group_symop_operation_xyz
x,y,z
-x,1/2-y,z
x,-y,-z
-x,1/2+y,-z
-x,-y,-z
x,1/2+y,-z
-x,y,z
x,1/2-y,z
1/2+x,1/2+y,1/2+z
1/2-x,-y,1/2+z
1/2+x,1/2-y,1/2-z
1/2-x,y,1/2-z
1/2-x,1/2-y,1/2-z
1/2+x,y,1/2-z
1/2-x,1/2+y,1/2+z
1/2+x,-y,1/2+z
loop_
_atom_site_type_symbol
_atom_site_label
_atom_site_fract_x
_atom_site_fract_y
_atom_site_fract_z
Si Si1 0.631401 0.954245 0.605901
Si Si2 0.268432 0.599068 0.494356
Si Si3 0.441987 0.942000 0.011304
Si Si4 0.062242 0.806254 0.683357
Si Si5 0.438379 0.642830 0.321561
Si Si6 0.795983 0.000000 0.500000
O O1 0.672200 0.916458 0.494124
O O2 0.596412 0.927080 0.800981
O O3 0.668767 0.989789 0.769764
O O4 0.599708 0.000000 0.500000
O O5 0.250000 0.625439 0.250000
O O6 0.237001 0.548227 0.485808
O O7 0.250000 0.621533 0.750000
O O8 0.500000 0.926530 0.955150
O O9 0.426895 0.913942 0.259975
O O10 0.441677 0.000000 0.000000
O O11 0.077038 0.750000 0.691436
O O12 0.077907 0.829716 0.425484
O O13 0.000000 0.807963 0.683403
O O14 0.080152 0.832774 0.930549
O O15 0.500000 0.645848 0.336534
#
# Coordination Sequence:
#
# PCOD9533908 Si02
#       6
#    16  16  16  16  16   8
#     4  11  19  29  49  65  88 121 177 224 257 297
#     4  10  17  28  46  67  87 105 143 217 272 318
#     4  10  22  37  48  66 101 153 203 230 243 278
#     4   9  16  29  52  76  92 112 154 219 289 337
#     4   9  18  32  48  68  97 129 168 219 265 303
#     4  10  16  30  43  68  85 108 154 224 268 310
#
# _framework density 22.102162
#
# number of rings (size 3 to 8) (size 9 to 14) (size 15 to 20)
#    0.000    2.182    3.636    1.091    0.000    4.000 
#    0.000    3.636    0.000    0.000    0.000    0.000 
#    0.000    0.000    0.000    0.000    0.000   76.364 
#
# Total GULP energy -245334.196502 kJ/mol
# GULP energy per Si atom -5575.777193 kJ/mol
# Density = 2.205186 g / cm^3
# Si number density = 22.102162 Si / 1000 Ang^3
#
#
#
# Elastic Constant Matrix: (Units=GPa)
#
#
# Indices 1 2 3 4 5 6 
#
# 1 48.6013 -7.4742 -11.9803 0.0000 0.0000 0.0000
# 2 -7.4742 124.1933 49.5398 0.0000 0.0000 0.0000
# 3 -11.9803 49.5398 125.6962 0.0000 0.0000 0.0000
# 4 0.0000 0.0000 0.0000 26.3243 0.0000 0.0000
# 5 0.0000 0.0000 0.0000 0.0000 10.4420 0.0000
# 6 0.0000 0.0000 0.0000 0.0000 0.0000 -2.3233
#
#
#
# Elastic Compliance Matrix: (Units=1/GPa)
#
#
# Indices 1 2 3 4 5 6 
#
# 1 0.021103 0.000555 0.001793 0.000000 0.000000 0.000000
# 2 0.000555 0.009569 -0.003718 0.000000 0.000000 0.000000
# 3 0.001793 -0.003718 0.009592 0.000000 0.000000 0.000000
# 4 0.000000 0.000000 0.000000 0.037988 0.000000 0.000000
# 5 0.000000 0.000000 0.000000 0.000000 0.095767 0.000000
# 6 0.000000 0.000000 0.000000 0.000000 0.000000 -0.430424
#
#
# Mechanical properties :
#
#
# Convention : Reuss Voigt Hill
#
# Bulk Modulus (GPa) = 26.65105 39.85125 33.25115
# Shear Modulus (GPa) = -20.73337 24.78231 2.02447
#
# Velocity S-wave (km/s) = -3.06612 3.35216 0.95810
# Velocity P-wave (km/s) = 0.67116 5.74911 4.03744
#
# Compressibility (1/GPa) = 0.03752197
#
# Stress axis : x y z
#
# Youngs Moduli (GPa) = 47.38700 104.50888 104.25339
#
# Poissons Ratio (x) = -0.05800 -0.18689
# Poissons Ratio (y) = -0.02630 0.38765
# Poissons Ratio (z) = -0.08495 0.38860
#
# Static dielectric constant tensor:
#      x y z
#    x 1.859400 0.000000 0.000000 
#    y 0.000000 1.854520 0.000000 
#    z 0.000000 0.000000 2.121680 
# 
# From -- ./inp_files/4642.got.cif
#   From: 2010.05.17/outbox.cif.g08.bks.cpg/sg74_3_cif.got.tgz:4642.got - 2010.06.03 17:57:02.
