data_PCOD9533275
_publ_section_title
;
Structure prediction by ZEFSAII (Michael W. Deem and Ramdas Pophale) SiO2 
 PCOD9533275
Probable space group: I B C A 
;
_chemical_formula_sum "Si O2"
_cell_formula_units_Z 72
_cell_length_a 21.651715
_cell_length_b 12.245016
_cell_length_c 12.453483
_cell_angle_alpha 90.000000
_cell_angle_beta 90.000000
_cell_angle_gamma 90.000000
_cell_volume 3301.737110
_symmetry_space_group_name_H-M "I B C A "
_symmetry_group_IT_number 73
_symmetry_cell_setting 'orthorhombic'
loop_
_space_group_symop_operation_xyz
x,y,z
-x,1/2-y,z
x,-y,1/2-z
1/2-x,y,-z
-x,-y,-z
x,1/2+y,-z
-x,y,1/2+z
1/2+x,-y,z
1/2+x,1/2+y,1/2+z
1/2-x,-y,1/2+z
1/2+x,1/2-y,-z
-x,1/2+y,1/2-z
1/2-x,1/2-y,1/2-z
1/2+x,y,1/2-z
1/2-x,1/2+y,z
x,1/2-y,1/2+z
loop_
_atom_site_type_symbol
_atom_site_label
_atom_site_fract_x
_atom_site_fract_y
_atom_site_fract_z
Si Si1 0.294354 0.178349 0.177675
Si Si2 0.625755 0.500000 0.250000
Si Si3 0.867909 0.633935 0.063286
Si Si4 0.750000 0.011987 0.500000
Si Si5 0.534118 0.567946 0.089668
Si Si6 0.061766 0.000000 0.250000
O O1 0.250000 0.250000 0.250000
O O2 0.334448 0.107223 0.259194
O O3 0.337784 0.255206 0.106121
O O4 0.260062 0.091351 0.101758
O O5 0.583309 0.489165 0.146892
O O6 0.810792 0.561850 0.018061
O O7 0.897993 0.566853 0.163377
O O8 0.922296 0.652528 0.974712
O O9 0.482917 0.584277 0.183032
O O10 0.500000 0.500000 0.000000
#
# Coordination Sequence:
#
# PCOD9533275 Si02
#       6
#    16   8  16   8  16   8
#     4  12  26  40  67 100 135 182 221 270 347 411
#     4  11  22  45  64  96 139 166 221 288 326 399
#     4  11  22  43  67  99 128 176 224 267 348 405
#     4  12  24  42  68  98 142 168 220 290 328 404
#     4   9  20  42  71  93 133 175 219 278 334 389
#     4   9  20  43  70  94 137 174 221 286 326 399
#
# _framework density 21.806702999999999
#
# number of rings (size 3 to 8) (size 9 to 14) (size 15 to 20)
#    0.000    1.333    2.222    3.333    3.111    0.000 
#    0.000   12.222    0.000    0.000    0.000    0.000 
#    0.000    0.000    0.000    0.000    0.000    0.000 
#
# Total GULP energy -200914.508345 kJ/mol
# GULP energy per Si atom -5580.958565 kJ/mol
# Density = 2.175707 g / cm^3
# Si number density = 21.806703 Si / 1000 Ang^3
#
#
#
# Elastic Constant Matrix: (Units=GPa)
#
#
# Indices 1 2 3 4 5 6 
#
# 1 124.7404 44.7550 57.6319 0.0000 0.0000 0.0000
# 2 44.7550 80.9599 26.6428 0.0000 0.0000 0.0000
# 3 57.6319 26.6428 111.2163 0.0000 0.0000 0.0000
# 4 0.0000 0.0000 0.0000 38.3295 0.0000 0.0000
# 5 0.0000 0.0000 0.0000 0.0000 45.2270 0.0000
# 6 0.0000 0.0000 0.0000 0.0000 0.0000 -0.8369
#
#
#
# Elastic Compliance Matrix: (Units=1/GPa)
#
#
# Indices 1 2 3 4 5 6 
#
# 1 0.012190 -0.005059 -0.005105 0.000000 0.000000 0.000000
# 2 -0.005059 0.015508 -0.001094 0.000000 0.000000 0.000000
# 3 -0.005105 -0.001094 0.011899 0.000000 0.000000 0.000000
# 4 0.000000 0.000000 0.000000 0.026090 0.000000 0.000000
# 5 0.000000 0.000000 0.000000 0.000000 0.022111 0.000000
# 6 0.000000 0.000000 0.000000 0.000000 0.000000 -1.194857
#
#
# Mechanical properties :
#
#
# Convention : Reuss Voigt Hill
#
# Bulk Modulus (GPa) = 58.54012 63.88623 61.21317
# Shear Modulus (GPa) = -4.63457 29.06971 12.21757
#
# Velocity S-wave (km/s) = -1.45942 3.65507 2.36956
# Velocity P-wave (km/s) = 4.90545 6.86826 5.96810
#
# Compressibility (1/GPa) = 0.01708230
#
# Stress axis : x y z
#
# Youngs Moduli (GPa) = 82.03239 64.48178 84.04124
#
# Poissons Ratio (x) = 0.32620 0.42904
# Poissons Ratio (y) = 0.41499 0.09191
# Poissons Ratio (z) = 0.41878 0.07052
#
# Static dielectric constant tensor:
#      x y z
#    x 1.867240 0.000000 0.000000 
#    y 0.000000 1.737970 0.000000 
#    z 0.000000 0.000000 1.834120 
# 
# From -- ./inp_files/10694.got.cif
#   From: 2010.05.17/outbox.cif.g08.bks.cpg/sg73_6_cif.got.tgz:10694.got - 2010.06.03 17:35:07.
