data_PCOD9533226
_publ_section_title
;
Structure prediction by ZEFSAII (Michael W. Deem and Ramdas Pophale) SiO2 
 PCOD9533226
Probable space group: I B C A 
;
_chemical_formula_sum "Si O2"
_cell_formula_units_Z 112
_cell_length_a 10.622319
_cell_length_b 16.873823
_cell_length_c 30.059636
_cell_angle_alpha 90.000000
_cell_angle_beta 90.000000
_cell_angle_gamma 90.000000
_cell_volume 5387.863024
_symmetry_space_group_name_H-M "I B C A "
_symmetry_group_IT_number 73
_symmetry_cell_setting 'orthorhombic'
loop_
_space_group_symop_operation_xyz
x,y,z
-x,1/2-y,z
x,-y,1/2-z
1/2-x,y,-z
-x,-y,-z
x,1/2+y,-z
-x,y,1/2+z
1/2+x,-y,z
1/2+x,1/2+y,1/2+z
1/2-x,-y,1/2+z
1/2+x,1/2-y,-z
-x,1/2+y,1/2-z
1/2-x,1/2-y,1/2-z
1/2+x,y,1/2-z
1/2-x,1/2+y,z
x,1/2-y,1/2+z
loop_
_atom_site_type_symbol
_atom_site_label
_atom_site_fract_x
_atom_site_fract_y
_atom_site_fract_z
Si Si1 0.876265 0.195267 0.296993
Si Si2 0.203668 0.648655 0.393341
Si Si3 0.843839 0.536503 0.040900
Si Si4 0.374828 0.195958 0.300516
Si Si5 0.061759 0.368846 0.567461
Si Si6 0.552360 0.335386 0.026990
Si Si7 0.703359 0.676083 0.388772
O O1 0.747046 0.246343 0.297698
O O2 0.884410 0.155964 0.248277
O O3 0.865135 0.149953 0.343738
O O4 0.000000 0.250000 0.299993
O O5 0.273090 0.576198 0.417186
O O6 0.154788 0.640567 0.342646
O O7 0.290125 0.727840 0.393326
O O8 0.077539 0.660493 0.422184
O O9 0.922904 0.461619 0.057457
O O10 0.938784 0.602966 0.022945
O O11 0.750000 0.515716 0.000000
O O12 0.500000 0.250000 0.307134
O O13 0.111013 0.328902 0.521946
O O14 0.151484 0.348469 0.608562
O O15 0.500000 0.250000 0.039029
O O16 0.639378 0.360740 0.067753
#
# Coordination Sequence:
#
# PCOD9533226 Si02
#       7
#    16  16  16  16  16  16  16
#     4   9  18  33  58  94 130 156 198 263 321 374
#     4  11  22  40  62  89 122 157 212 263 305 370
#     4  12  26  43  58  87 127 172 211 258 314 375
#     4   9  18  35  60  91 126 161 199 259 324 370
#     4  12  26  39  63  85 125 170 206 254 312 380
#     4  12  23  39  62  88 122 162 207 261 311 364
#     4  11  22  37  62  97 121 158 208 257 316 370
#
# _framework density 20.787462000000001
#
# number of rings (size 3 to 8) (size 9 to 14) (size 15 to 20)
#    0.000    1.143    2.857    5.143    4.000    0.000 
#    0.000    0.000    0.000    0.857    0.000    0.000 
#    0.000    0.000    0.000    0.000    0.000    0.000 
#
# Total GULP energy -312540.476623 kJ/mol
# GULP energy per Si atom -5581.079940 kJ/mol
# Density = 2.074015 g / cm^3
# Si number density = 20.787462 Si / 1000 Ang^3
#
#
#
# Elastic Constant Matrix: (Units=GPa)
#
#
# Indices 1 2 3 4 5 6 
#
# 1 73.2472 0.2209 33.4208 0.0000 0.0000 0.0000
# 2 0.2209 43.6001 13.1074 0.0000 0.0000 0.0000
# 3 33.4208 13.1074 185.4698 0.0000 0.0000 0.0000
# 4 0.0000 0.0000 0.0000 16.1999 0.0000 0.0000
# 5 0.0000 0.0000 0.0000 0.0000 49.9702 0.0000
# 6 0.0000 0.0000 0.0000 0.0000 0.0000 22.8680
#
#
#
# Elastic Compliance Matrix: (Units=1/GPa)
#
#
# Indices 1 2 3 4 5 6 
#
# 1 0.014899 0.000747 -0.002738 0.000000 0.000000 0.000000
# 2 0.000747 0.023471 -0.001793 0.000000 0.000000 0.000000
# 3 -0.002738 -0.001793 0.006012 0.000000 0.000000 0.000000
# 4 0.000000 0.000000 0.000000 0.061729 0.000000 0.000000
# 5 0.000000 0.000000 0.000000 0.000000 0.020012 0.000000
# 6 0.000000 0.000000 0.000000 0.000000 0.000000 0.043729
#
#
# Mechanical properties :
#
#
# Convention : Reuss Voigt Hill
#
# Bulk Modulus (GPa) = 27.16282 43.97948 35.57115
# Shear Modulus (GPa) = 26.35867 34.84547 30.60207
#
# Velocity S-wave (km/s) = 3.56477 4.09867 3.84101
# Velocity P-wave (km/s) = 5.48076 6.60314 6.06796
#
# Compressibility (1/GPa) = 0.03681503
#
# Stress axis : x y z
#
# Youngs Moduli (GPa) = 67.11747 42.60564 166.34058
#
# Poissons Ratio (x) = -0.03185 0.45537
# Poissons Ratio (y) = -0.05017 0.29832
# Poissons Ratio (z) = 0.18374 0.07641
#
# Static dielectric constant tensor:
#      x y z
#    x 1.800300 0.000000 0.000000 
#    y 0.000000 1.722020 0.000000 
#    z 0.000000 0.000000 1.835910 
# 
# From -- ./inp_files/34004.got.cif
#   From: 2010.05.17/outbox.cif.g08.bks.cpg/sg73_18_cif.got.tgz:34004.got - 2010.06.03 17:35:07.
