data_PCOD9533323
_publ_section_title
;
Structure prediction by ZEFSAII (Michael W. Deem and Ramdas Pophale) SiO2 
 PCOD9533323
Probable space group: I B C A 
;
_chemical_formula_sum "Si O2"
_cell_formula_units_Z 64
_cell_length_a 8.666948
_cell_length_b 24.482990
_cell_length_c 13.314020
_cell_angle_alpha 90.000000
_cell_angle_beta 90.000000
_cell_angle_gamma 90.000000
_cell_volume 2825.139199
_symmetry_space_group_name_H-M "I B C A "
_symmetry_group_IT_number 73
_symmetry_cell_setting 'orthorhombic'
loop_
_space_group_symop_operation_xyz
x,y,z
-x,1/2-y,z
x,-y,1/2-z
1/2-x,y,-z
-x,-y,-z
x,1/2+y,-z
-x,y,1/2+z
1/2+x,-y,z
1/2+x,1/2+y,1/2+z
1/2-x,-y,1/2+z
1/2+x,1/2-y,-z
-x,1/2+y,1/2-z
1/2-x,1/2-y,1/2-z
1/2+x,y,1/2-z
1/2-x,1/2+y,z
x,1/2-y,1/2+z
loop_
_atom_site_type_symbol
_atom_site_label
_atom_site_fract_x
_atom_site_fract_y
_atom_site_fract_z
Si Si1 0.062876 0.377472 0.364137
Si Si2 0.866323 0.940828 0.791270
Si Si3 0.396745 0.393032 0.937294
Si Si4 0.623269 0.209613 0.793811
O O1 0.223090 0.408912 0.340728
O O2 0.063095 0.320335 0.306437
O O3 0.929135 0.410228 0.306665
O O4 0.021174 0.373940 0.479972
O O5 0.012316 0.936405 0.867649
O O6 0.823525 0.000000 0.750000
O O7 0.346860 0.340613 0.869970
O O8 0.250000 0.414180 0.000000
O O9 0.500000 0.250000 0.843041
O O10 0.750000 0.250000 0.750000
#
# Coordination Sequence:
#
# PCOD9533323 Si02
#       4
#    16  16  16  16
#     4  11  23  44  67  98 138 177 230 285 338 408
#     4  11  24  44  70  98 135 180 226 286 350 408
#     4  11  24  43  69 101 136 176 228 283 337 411
#     4  11  23  41  66  97 137 181 223 277 340 402
#
# _framework density 22.653751
#
# number of rings (size 3 to 8) (size 9 to 14) (size 15 to 20)
#    0.000    1.000    0.000    9.000    0.000    4.000 
#    0.000    6.250    0.000    0.000    0.000    0.000 
#    0.000    0.000    0.000    0.000    0.000    0.000 
#
# Total GULP energy -178814.315059 kJ/mol
# GULP energy per Si atom -5587.947346 kJ/mol
# Density = 2.260219 g / cm^3
# Si number density = 22.653751 Si / 1000 Ang^3
#
#
#
# Elastic Constant Matrix: (Units=GPa)
#
#
# Indices 1 2 3 4 5 6 
#
# 1 115.5866 32.6063 31.0886 0.0000 0.0000 0.0000
# 2 32.6063 67.7633 13.8376 -0.0001 0.0000 0.0000
# 3 31.0886 13.8376 129.6292 0.0000 0.0000 0.0000
# 4 0.0000 -0.0001 0.0000 3.7404 0.0000 0.0000
# 5 0.0000 0.0000 0.0000 0.0000 50.3645 0.0000
# 6 0.0000 0.0000 0.0000 0.0000 0.0000 21.9320
#
#
#
# Elastic Compliance Matrix: (Units=1/GPa)
#
#
# Indices 1 2 3 4 5 6 
#
# 1 0.010505 -0.004642 -0.002024 0.000000 0.000000 0.000000
# 2 -0.004642 0.017137 -0.000716 0.000000 0.000000 0.000000
# 3 -0.002024 -0.000716 0.008276 0.000000 0.000000 0.000000
# 4 0.000000 0.000000 0.000000 0.267350 0.000000 0.000000
# 5 0.000000 0.000000 0.000000 0.000000 0.019855 0.000000
# 6 0.000000 0.000000 0.000000 0.000000 0.000000 0.045595
#
#
# Mechanical properties :
#
#
# Convention : Reuss Voigt Hill
#
# Bulk Modulus (GPa) = 47.27033 52.00490 49.63762
# Shear Modulus (GPa) = 12.80299 30.90382 21.85340
#
# Velocity S-wave (km/s) = 2.37989 3.69749 3.10928
# Velocity P-wave (km/s) = 5.33513 6.42143 5.90332
#
# Compressibility (1/GPa) = 0.02115492
#
# Stress axis : x y z
#
# Youngs Moduli (GPa) = 95.19035 58.35344 120.82897
#
# Poissons Ratio (x) = 0.27085 0.24455
# Poissons Ratio (y) = 0.44184 0.08653
# Poissons Ratio (z) = 0.19266 0.04179
#
# Static dielectric constant tensor:
#      x y z
#    x 1.972360 0.000000 0.000000 
#    y 0.000000 1.902030 0.000000 
#    z 0.000000 0.000000 1.824050 
# 
# From -- ./inp_files/4637.got.cif
#   From: 2010.05.17/outbox.cif.g08.bks.cpg/sg73_3_cif.got.tgz:4637.got - 2010.06.03 17:35:07.
