data_PCOD9533300
_publ_section_title
;
Structure prediction by ZEFSAII (Michael W. Deem and Ramdas Pophale) SiO2 
 PCOD9533300
Probable space group: I B C A 
;
_chemical_formula_sum "Si O2"
_cell_formula_units_Z 112
_cell_length_a 20.386966
_cell_length_b 16.926830
_cell_length_c 13.920335
_cell_angle_alpha 90.000000
_cell_angle_beta 90.000000
_cell_angle_gamma 90.000000
_cell_volume 4803.722575
_symmetry_space_group_name_H-M "I B C A "
_symmetry_group_IT_number 73
_symmetry_cell_setting 'orthorhombic'
loop_
_space_group_symop_operation_xyz
x,y,z
-x,1/2-y,z
x,-y,1/2-z
1/2-x,y,-z
-x,-y,-z
x,1/2+y,-z
-x,y,1/2+z
1/2+x,-y,z
1/2+x,1/2+y,1/2+z
1/2-x,-y,1/2+z
1/2+x,1/2-y,-z
-x,1/2+y,1/2-z
1/2-x,1/2-y,1/2-z
1/2+x,y,1/2-z
1/2-x,1/2+y,z
x,1/2-y,1/2+z
loop_
_atom_site_type_symbol
_atom_site_label
_atom_site_fract_x
_atom_site_fract_y
_atom_site_fract_z
Si Si1 0.769335 0.089129 0.715726
Si Si2 0.106021 0.028747 0.641298
Si Si3 0.963766 0.974196 0.639669
Si Si4 0.355209 0.810364 0.213592
Si Si5 0.381595 0.326716 0.154183
Si Si6 0.150682 0.062686 0.026906
Si Si7 0.326397 0.232527 0.983536
O O1 0.706959 0.146335 0.735373
O O2 0.828454 0.123995 0.782170
O O3 0.792424 0.078540 0.605477
O O4 0.756558 0.000000 0.750000
O O5 0.104928 0.122054 0.657697
O O6 0.116211 0.000000 0.750000
O O7 0.158170 0.995648 0.564293
O O8 0.036603 0.994736 0.605862
O O9 0.943354 0.882778 0.636330
O O10 0.962480 0.000000 0.750000
O O11 0.907966 0.024152 0.587192
O O12 0.392801 0.754713 0.288147
O O13 0.332820 0.753616 0.127877
O O14 0.350712 0.301988 0.052790
O O15 0.136281 0.151372 0.991672
O O16 0.250000 0.222035 0.000000
#
# Coordination Sequence:
#
# PCOD9533300 Si02
#       7
#    16  16  16  16  16  16  16
#     4  12  23  42  76 103 142 190 242 296 360 449
#     4  11  27  47  68 103 150 190 242 308 361 434
#     4  11  22  47  75  98 140 195 253 302 353 439
#     4  12  25  45  68 111 151 183 240 311 377 429
#     4  12  22  46  72 105 143 193 248 297 375 436
#     4  12  23  46  70 107 138 199 256 288 367 446
#     4  12  25  39  68 103 151 191 232 312 377 438
#
# _framework density 23.315252999999998
#
# number of rings (size 3 to 8) (size 9 to 14) (size 15 to 20)
#    0.000    0.286    5.714    3.857    0.000    1.143 
#    0.000   11.429    0.000    0.000    0.000    0.000 
#    0.000    0.000    0.000    0.000    0.000    0.000 
#
# Total GULP energy -313413.322145 kJ/mol
# GULP energy per Si atom -5596.666467 kJ/mol
# Density = 2.326219 g / cm^3
# Si number density = 23.315253 Si / 1000 Ang^3
#
#
#
# Elastic Constant Matrix: (Units=GPa)
#
#
# Indices 1 2 3 4 5 6 
#
# 1 78.1329 51.6211 33.2454 0.0000 0.0000 0.0000
# 2 51.6211 143.9779 22.7863 0.0000 0.0000 0.0000
# 3 33.2454 22.7863 107.5339 0.0000 0.0000 0.0000
# 4 0.0000 0.0000 0.0000 51.6967 0.0000 0.0000
# 5 0.0000 0.0000 0.0000 0.0000 -55.6701 0.0000
# 6 0.0000 0.0000 0.0000 0.0000 0.0000 36.7446
#
#
#
# Elastic Compliance Matrix: (Units=1/GPa)
#
#
# Indices 1 2 3 4 5 6 
#
# 1 0.018666 -0.005979 -0.004504 0.000000 0.000000 0.000000
# 2 -0.005979 0.009102 -0.000080 0.000000 0.000000 0.000000
# 3 -0.004504 -0.000080 0.010709 0.000000 0.000000 0.000000
# 4 0.000000 0.000000 0.000000 0.019344 0.000000 0.000000
# 5 0.000000 0.000000 0.000000 0.000000 -0.017963 0.000000
# 6 0.000000 0.000000 0.000000 0.000000 0.000000 0.027215
#
#
# Mechanical properties :
#
#
# Convention : Reuss Voigt Hill
#
# Bulk Modulus (GPa) = 57.63724 60.55003 59.09363
# Shear Modulus (GPa) = 53.20198 21.35370 37.27784
#
# Velocity S-wave (km/s) = 4.78206 3.02961 4.00291
# Velocity P-wave (km/s) = 7.43406 6.18584 6.83849
#
# Compressibility (1/GPa) = 0.01734989
#
# Stress axis : x y z
#
# Youngs Moduli (GPa) = 53.57471 109.86558 93.38189
#
# Poissons Ratio (x) = 0.65694 0.42056
# Poissons Ratio (y) = 0.32035 0.00748
# Poissons Ratio (z) = 0.24128 0.00880
#
# Static dielectric constant tensor:
#      x y z
#    x 1.891040 0.000000 0.000000 
#    y 0.000000 1.967020 0.000000 
#    z 0.000000 0.000000 1.900960 
# 
# From -- ./inp_files/19385.got.cif
#   From: 2010.05.17/outbox.cif.g08.bks.cpg/sg73_10_cif.got.tgz:19385.got - 2010.06.03 17:35:07.
