data_PCOD9533176
_publ_section_title
;
Structure prediction by ZEFSAII (Michael W. Deem and Ramdas Pophale) SiO2 
 PCOD9533176
Probable space group: I B C A 
;
_chemical_formula_sum "Si O2"
_cell_formula_units_Z 56
_cell_length_a 19.336407
_cell_length_b 8.066070
_cell_length_c 14.166569
_cell_angle_alpha 90.000000
_cell_angle_beta 90.000000
_cell_angle_gamma 90.000000
_cell_volume 2209.542943
_symmetry_space_group_name_H-M "I B C A "
_symmetry_group_IT_number 73
_symmetry_cell_setting 'orthorhombic'
loop_
_space_group_symop_operation_xyz
x,y,z
-x,1/2-y,z
x,-y,1/2-z
1/2-x,y,-z
-x,-y,-z
x,1/2+y,-z
-x,y,1/2+z
1/2+x,-y,z
1/2+x,1/2+y,1/2+z
1/2-x,-y,1/2+z
1/2+x,1/2-y,-z
-x,1/2+y,1/2-z
1/2-x,1/2-y,1/2-z
1/2+x,y,1/2-z
1/2-x,1/2+y,z
x,1/2-y,1/2+z
loop_
_atom_site_type_symbol
_atom_site_label
_atom_site_fract_x
_atom_site_fract_y
_atom_site_fract_z
Si Si1 0.500000 0.250000 0.744834
Si Si2 0.121131 0.357898 0.645548
Si Si3 0.646916 0.339100 0.188531
Si Si4 0.171880 0.943355 0.978961
O O1 0.456616 0.133189 0.816103
O O2 0.361199 0.989758 0.920761
O O3 0.164844 0.313944 0.740956
O O4 0.062803 0.827695 0.685886
O O5 0.131509 0.194565 0.580699
O O6 0.665797 0.500000 0.250000
O O7 0.673826 0.389602 0.086262
O O8 0.250000 0.895131 0.000000
#
# Coordination Sequence:
#
# PCOD9533176 Si02
#       4
#     8  16  16  16
#     4   8  18  40  58  86 118 160 208 254 324 344
#     4   9  21  39  58  91 117 163 207 260 309 359
#     4   8  18  39  57  83 125 161 195 265 306 366
#     4  11  21  38  61  86 125 169 204 249 310 369
#
# _framework density 25.344608999999998
#
# number of rings (size 3 to 8) (size 9 to 14) (size 15 to 20)
#    1.714    1.143    0.000    0.857    0.000    3.429 
#    5.143    4.286    0.000    0.000    0.000    0.000 
#    0.000    0.000    0.000    0.000    0.000    0.000 
#
# Total GULP energy -156208.978767 kJ/mol
# GULP energy per Si atom -5578.892099 kJ/mol
# Density = 2.528692 g / cm^3
# Si number density = 25.344609 Si / 1000 Ang^3
#
#
#
# Elastic Constant Matrix: (Units=GPa)
#
#
# Indices 1 2 3 4 5 6 
#
# 1 102.9106 37.0344 31.8477 0.0000 0.0000 0.0000
# 2 37.0344 106.0998 54.2040 0.0000 0.0000 0.0000
# 3 31.8477 54.2040 172.8845 0.0000 0.0000 0.0000
# 4 0.0000 0.0000 0.0000 88.0105 0.0000 0.0000
# 5 0.0000 0.0000 0.0000 0.0000 19.6392 0.0000
# 6 0.0000 0.0000 0.0000 0.0000 0.0000 19.2949
#
#
#
# Elastic Compliance Matrix: (Units=1/GPa)
#
#
# Indices 1 2 3 4 5 6 
#
# 1 0.011257 -0.003417 -0.001002 0.000000 0.000000 0.000000
# 2 -0.003417 0.012260 -0.003214 0.000000 0.000000 0.000000
# 3 -0.001002 -0.003214 0.006977 0.000000 0.000000 0.000000
# 4 0.000000 0.000000 0.000000 0.011362 0.000000 0.000000
# 5 0.000000 0.000000 0.000000 0.000000 0.050919 0.000000
# 6 0.000000 0.000000 0.000000 0.000000 0.000000 0.051827
#
#
# Mechanical properties :
#
#
# Convention : Reuss Voigt Hill
#
# Bulk Modulus (GPa) = 65.67737 69.78522 67.73130
# Shear Modulus (GPa) = 30.31315 42.64285 36.47800
#
# Velocity S-wave (km/s) = 3.46213 4.10631 3.79790
# Velocity P-wave (km/s) = 6.47702 7.07649 6.78338
#
# Compressibility (1/GPa) = 0.01522594
#
# Stress axis : x y z
#
# Youngs Moduli (GPa) = 88.83261 81.56585 143.33562
#
# Poissons Ratio (x) = 0.27873 0.14367
# Poissons Ratio (y) = 0.30356 0.46073
# Poissons Ratio (z) = 0.08904 0.26218
#
# Static dielectric constant tensor:
#      x y z
#    x 1.915690 0.000000 0.000000 
#    y 0.000000 2.108160 0.000000 
#    z 0.000000 0.000000 2.021780 
# 
# From -- ./inp_files/10363.got.cif
#   From: 2010.05.17/outbox.cif.g08.bks.cpg/sg73_6_cif.got.tgz:10363.got - 2010.06.03 17:35:07.
