data_PCOD9533434
_publ_section_title
;
Structure prediction by ZEFSAII (Michael W. Deem and Ramdas Pophale) SiO2 
 PCOD9533434
Probable space group: I B C A 
;
_chemical_formula_sum "Si O2"
_cell_formula_units_Z 72
_cell_length_a 5.651476
_cell_length_b 28.261693
_cell_length_c 18.709489
_cell_angle_alpha 90.000000
_cell_angle_beta 90.000000
_cell_angle_gamma 90.000000
_cell_volume 2988.284816
_symmetry_space_group_name_H-M "I B C A "
_symmetry_group_IT_number 73
_symmetry_cell_setting 'orthorhombic'
loop_
_space_group_symop_operation_xyz
x,y,z
-x,1/2-y,z
x,-y,1/2-z
1/2-x,y,-z
-x,-y,-z
x,1/2+y,-z
-x,y,1/2+z
1/2+x,-y,z
1/2+x,1/2+y,1/2+z
1/2-x,-y,1/2+z
1/2+x,1/2-y,-z
-x,1/2+y,1/2-z
1/2-x,1/2-y,1/2-z
1/2+x,y,1/2-z
1/2-x,1/2+y,z
x,1/2-y,1/2+z
loop_
_atom_site_type_symbol
_atom_site_label
_atom_site_fract_x
_atom_site_fract_y
_atom_site_fract_z
Si Si1 0.046027 0.647030 0.280644
Si Si2 0.783282 0.871914 0.583258
Si Si3 0.360263 0.794950 0.429380
Si Si4 0.287752 0.982312 0.915826
Si Si5 0.500000 0.750000 0.682119
O O1 0.296740 0.628373 0.249396
O O2 0.060209 0.636782 0.365676
O O3 0.068583 0.703982 0.273077
O O4 0.750000 0.860895 0.500000
O O5 0.846647 0.926770 0.588206
O O6 0.978309 0.834220 0.607994
O O7 0.500000 0.750000 0.461151
O O8 0.250000 0.818138 0.500000
O O9 0.197770 0.769902 0.371365
O O10 0.522278 0.008294 0.885736
O O11 0.250000 0.995567 0.000000
#
# Coordination Sequence:
#
# PCOD9533434 Si02
#       5
#    16  16  16  16   8
#     4  12  27  45  65  96 138 183 231 283 337 399
#     4  11  24  44  71 101 132 181 231 282 345 411
#     4  12  22  38  60  99 141 179 228 288 341 398
#     4   9  20  39  67 101 133 164 216 285 346 403
#     4  12  24  40  62  86 134 192 246 274 330 404
#
# _framework density 24.094089
#
# number of rings (size 3 to 8) (size 9 to 14) (size 15 to 20)
#    0.000    0.889    3.333    4.000    0.000    8.000 
#    0.000    0.000    0.000    4.000    0.000    0.000 
#    0.000    0.000    0.000    0.000    0.000    0.000 
#
# Total GULP energy -201241.239422 kJ/mol
# GULP energy per Si atom -5590.034428 kJ/mol
# Density = 2.403925 g / cm^3
# Si number density = 24.094089 Si / 1000 Ang^3
#
#
#
# Elastic Constant Matrix: (Units=GPa)
#
#
# Indices 1 2 3 4 5 6 
#
# 1 154.4239 41.4823 31.0892 0.0000 0.0000 0.0000
# 2 41.4823 65.3573 -9.3135 0.0000 0.0000 0.0000
# 3 31.0892 -9.3135 90.2659 0.0000 0.0000 0.0000
# 4 0.0000 0.0000 0.0000 7.8681 0.0000 0.0000
# 5 0.0000 0.0000 0.0000 0.0000 38.1235 0.0000
# 6 0.0000 0.0000 0.0000 0.0000 0.0000 31.6495
#
#
#
# Elastic Compliance Matrix: (Units=1/GPa)
#
#
# Indices 1 2 3 4 5 6 
#
# 1 0.008873 -0.006158 -0.003691 0.000000 0.000000 0.000000
# 2 -0.006158 0.019802 0.004164 0.000000 0.000000 0.000000
# 3 -0.003691 0.004164 0.012779 0.000000 0.000000 0.000000
# 4 0.000000 0.000000 0.000000 0.127096 0.000000 0.000000
# 5 0.000000 0.000000 0.000000 0.000000 0.026231 0.000000
# 6 0.000000 0.000000 0.000000 0.000000 0.000000 0.031596
#
#
# Mechanical properties :
#
#
# Convention : Reuss Voigt Hill
#
# Bulk Modulus (GPa) = 33.23984 48.50699 40.87342
# Shear Modulus (GPa) = 20.17956 31.98081 26.08019
#
# Velocity S-wave (km/s) = 2.89715 3.64721 3.29360
# Velocity P-wave (km/s) = 5.00171 6.15729 5.60934
#
# Compressibility (1/GPa) = 0.03008438
#
# Stress axis : x y z
#
# Youngs Moduli (GPa) = 112.70209 50.49957 78.25107
#
# Poissons Ratio (x) = 0.31096 0.28885
# Poissons Ratio (y) = 0.69398 -0.32584
# Poissons Ratio (z) = 0.41602 -0.21028
#
# Static dielectric constant tensor:
#      x y z
#    x 2.080840 0.000000 0.000000 
#    y 0.000000 1.880160 0.000000 
#    z 0.000000 0.000000 1.954200 
# 
# From -- ./inp_files/2527.got.cif
#   From: 2010.05.17/outbox.cif.g08.bks.cpg/sg73_2_cif.got.tgz:2527.got - 2010.06.03 17:35:07.
