data_PCOD9533509
_publ_section_title
;
Structure prediction by ZEFSAII (Michael W. Deem and Ramdas Pophale) SiO2 
 PCOD9533509
Probable space group: I B C A 
;
_chemical_formula_sum "Si O2"
_cell_formula_units_Z 112
_cell_length_a 10.549463
_cell_length_b 15.787470
_cell_length_c 29.433799
_cell_angle_alpha 90.000000
_cell_angle_beta 90.000000
_cell_angle_gamma 90.000000
_cell_volume 4902.179521
_symmetry_space_group_name_H-M "I B C A "
_symmetry_group_IT_number 73
_symmetry_cell_setting 'orthorhombic'
loop_
_space_group_symop_operation_xyz
x,y,z
-x,1/2-y,z
x,-y,1/2-z
1/2-x,y,-z
-x,-y,-z
x,1/2+y,-z
-x,y,1/2+z
1/2+x,-y,z
1/2+x,1/2+y,1/2+z
1/2-x,-y,1/2+z
1/2+x,1/2-y,-z
-x,1/2+y,1/2-z
1/2-x,1/2-y,1/2-z
1/2+x,y,1/2-z
1/2-x,1/2+y,z
x,1/2-y,1/2+z
loop_
_atom_site_type_symbol
_atom_site_label
_atom_site_fract_x
_atom_site_fract_y
_atom_site_fract_z
Si Si1 0.326095 0.500000 0.750000
Si Si2 0.895900 0.315944 0.867265
Si Si3 0.288244 0.673759 0.216945
Si Si4 0.970449 0.012976 0.896943
Si Si5 0.726541 0.262893 0.948740
Si Si6 0.000000 0.250000 0.610030
Si Si7 0.714558 0.059134 0.949466
Si Si8 0.476072 0.610830 0.677511
O O1 0.248847 0.580804 0.766103
O O2 0.399635 0.543558 0.707604
O O3 0.783782 0.316659 0.830823
O O4 0.841816 0.286499 0.915935
O O5 0.000000 0.250000 0.850493
O O6 0.965701 0.404526 0.874620
O O7 0.250000 0.750000 0.250000
O O8 0.437459 0.665175 0.210705
O O9 0.836551 0.034240 0.919548
O O10 0.944355 0.946853 0.856862
O O11 0.081984 0.977132 0.930112
O O12 0.600401 0.295218 0.923208
O O13 0.708513 0.161341 0.950671
O O14 0.750000 0.293652 0.000000
O O15 0.075251 0.182754 0.642330
O O16 0.750000 0.028843 0.000000
#
# Coordination Sequence:
#
# PCOD9533509 Si02
#       8
#     8  16  16  16  16   8  16  16
#     4  12  28  46  76 110 146 196 258 326 386 474
#     4  12  26  47  71 106 144 196 244 306 378 455
#     4  12  28  48  76 109 151 198 255 318 390 466
#     4  12  25  46  76 103 155 196 250 313 383 451
#     4  11  26  45  72 105 146 196 252 312 377 452
#     4  12  24  46  76 104 150 198 250 312 384 464
#     4  11  25  45  72 110 148 197 254 317 379 453
#     4  12  26  47  71 106 143 194 249 307 384 454
#
# _framework density 22.846982000000001
#
# number of rings (size 3 to 8) (size 9 to 14) (size 15 to 20)
#    0.000    0.286    5.714    2.571    3.000    1.714 
#    0.000    0.000    0.000    0.000    0.000    0.000 
#    0.000    0.000    0.000    0.000    0.000    0.000 
#
# Total GULP energy -313074.303182 kJ/mol
# GULP energy per Si atom -5590.612557 kJ/mol
# Density = 2.279498 g / cm^3
# Si number density = 22.846982 Si / 1000 Ang^3
#
#
#
# Elastic Constant Matrix: (Units=GPa)
#
#
# Indices 1 2 3 4 5 6 
#
# 1 77.5305 21.0528 21.2986 0.0000 0.0000 0.0000
# 2 21.0528 125.3055 38.5895 0.0000 0.0000 0.0000
# 3 21.2986 38.5895 117.9067 0.0000 0.0000 0.0000
# 4 0.0000 0.0000 0.0000 22.9634 0.0000 0.0000
# 5 0.0000 0.0000 0.0000 0.0000 37.2076 0.0000
# 6 0.0000 0.0000 0.0000 0.0000 0.0000 36.6730
#
#
#
# Elastic Compliance Matrix: (Units=1/GPa)
#
#
# Indices 1 2 3 4 5 6 
#
# 1 0.013904 -0.001738 -0.001943 0.000000 0.000000 0.000000
# 2 -0.001738 0.009092 -0.002662 0.000000 0.000000 0.000000
# 3 -0.001943 -0.002662 0.009703 0.000000 0.000000 0.000000
# 4 0.000000 0.000000 0.000000 0.043548 0.000000 0.000000
# 5 0.000000 0.000000 0.000000 0.000000 0.026876 0.000000
# 6 0.000000 0.000000 0.000000 0.000000 0.000000 0.027268
#
#
# Mechanical properties :
#
#
# Convention : Reuss Voigt Hill
#
# Bulk Modulus (GPa) = 49.96357 53.62496 51.79426
# Shear Modulus (GPa) = 33.38953 35.35557 34.37255
#
# Velocity S-wave (km/s) = 3.82703 3.93809 3.88295
# Velocity P-wave (km/s) = 6.43774 6.64833 6.54388
#
# Compressibility (1/GPa) = 0.02001458
#
# Stress axis : x y z
#
# Youngs Moduli (GPa) = 71.92313 109.98425 103.05616
#
# Poissons Ratio (x) = 0.19112 0.20022
# Poissons Ratio (y) = 0.12498 0.27432
# Poissons Ratio (z) = 0.13974 0.29277
#
# Static dielectric constant tensor:
#      x y z
#    x 1.917750 0.000000 0.000000 
#    y 0.000000 1.790730 0.000000 
#    z 0.000000 0.000000 1.883260 
# 
# From -- ./inp_files/34060.got.cif
#   From: 2010.05.17/outbox.cif.g08.bks.cpg/sg73_18_cif.got.tgz:34060.got - 2010.06.03 17:35:07.
