data_PCOD9533818
_publ_section_title
;
Structure prediction by ZEFSAII (Michael W. Deem and Ramdas Pophale) SiO2 
 PCOD9533818
Probable space group: I M M A
;
_chemical_formula_sum "Si O2"
_cell_formula_units_Z 88
_cell_length_a 31.185814
_cell_length_b 13.856872
_cell_length_c 12.946786
_cell_angle_alpha 90.000000
_cell_angle_beta 90.000000
_cell_angle_gamma 90.000000
_cell_volume 5594.796044
_symmetry_space_group_name_H-M "I M M A"
_symmetry_group_IT_number 74
_symmetry_cell_setting 'orthorhombic'
loop_
_space_group_symop_operation_xyz
x,y,z
-x,1/2-y,z
x,-y,-z
-x,1/2+y,-z
-x,-y,-z
x,1/2+y,-z
-x,y,z
x,1/2-y,z
1/2+x,1/2+y,1/2+z
1/2-x,-y,1/2+z
1/2+x,1/2-y,1/2-z
1/2-x,y,1/2-z
1/2-x,1/2-y,1/2-z
1/2+x,y,1/2-z
1/2-x,1/2+y,1/2+z
1/2+x,-y,1/2+z
loop_
_atom_site_type_symbol
_atom_site_label
_atom_site_fract_x
_atom_site_fract_y
_atom_site_fract_z
Si Si1 0.748272 0.136399 0.555973
Si Si2 0.217725 0.549997 0.840594
Si Si3 0.153192 0.361936 0.514771
Si Si4 0.359835 0.138047 0.232779
Si Si5 0.547603 0.362917 0.172506
Si Si6 0.081516 0.000000 0.500000
O O1 0.743171 0.250000 0.577607
O O2 0.729590 0.109750 0.443240
O O3 0.799232 0.112848 0.552463
O O4 0.725941 0.062189 0.633628
O O5 0.250000 0.580503 0.750000
O O6 0.170314 0.571628 0.800857
O O7 0.145567 0.250000 0.537750
O O8 0.151032 0.372658 0.389626
O O9 0.114947 0.427813 0.557014
O O10 0.350979 0.250000 0.258831
O O11 0.410686 0.120065 0.242899
O O12 0.500000 0.375414 0.217093
O O13 0.551362 0.250000 0.139043
O O14 0.554032 0.434594 0.076435
#
# Coordination Sequence:
#
# PCOD9533818 Si02
#       6
#    16  16  16  16  16   8
#     4  10  21  33  45  68 100 130 162 198 232 272
#     4  11  20  30  50  70  93 128 164 197 229 281
#     4   9  17  28  43  65  91 123 159 191 221 265
#     4   9  17  29  47  67  88 118 156 195 231 268
#     4   9  18  30  44  65  90 116 151 196 240 278
#     4  10  15  24  44  64  90 120 150 186 229 276
#
# _framework density 15.728903000000001
#
# number of rings (size 3 to 8) (size 9 to 14) (size 15 to 20)
#    0.000    2.364    1.818    3.545    2.545    1.091 
#    0.000    0.000    0.000    0.000    0.000    2.545 
#    0.000    1.455    0.000    0.000    0.000    0.000 
#
# Total GULP energy -245189.765411 kJ/mol
# GULP energy per Si atom -5572.494668 kJ/mol
# Density = 1.569310 g / cm^3
# Si number density = 15.728903 Si / 1000 Ang^3
#
#
#
# Elastic Constant Matrix: (Units=GPa)
#
#
# Indices 1 2 3 4 5 6 
#
# 1 131.4621 46.8836 25.0761 0.0000 0.0000 0.0000
# 2 46.8836 72.2656 7.1577 0.0000 0.0000 0.0000
# 3 25.0761 7.1577 25.2966 0.0000 0.0000 0.0000
# 4 0.0000 0.0000 0.0000 18.6563 0.0000 0.0000
# 5 0.0000 0.0000 0.0000 0.0000 17.1001 0.0000
# 6 0.0000 0.0000 0.0000 0.0000 0.0000 24.4131
#
#
#
# Elastic Compliance Matrix: (Units=1/GPa)
#
#
# Indices 1 2 3 4 5 6 
#
# 1 0.011895 -0.006738 -0.009885 0.000000 0.000000 0.000000
# 2 -0.006738 0.018054 0.001571 0.000000 0.000000 0.000000
# 3 -0.009885 0.001571 0.048885 0.000000 0.000000 0.000000
# 4 0.000000 0.000000 0.000000 0.053601 0.000000 0.000000
# 5 0.000000 0.000000 0.000000 0.000000 0.058479 0.000000
# 6 0.000000 0.000000 0.000000 0.000000 0.000000 0.040962
#
#
# Mechanical properties :
#
#
# Convention : Reuss Voigt Hill
#
# Bulk Modulus (GPa) = 20.52120 43.02880 31.77500
# Shear Modulus (GPa) = 17.97111 22.02768 19.99940
#
# Velocity S-wave (km/s) = 3.38383 3.74633 3.56969
# Velocity P-wave (km/s) = 5.32374 6.79185 6.10211
#
# Compressibility (1/GPa) = 0.04873010
#
# Stress axis : x y z
#
# Youngs Moduli (GPa) = 84.06623 55.39009 20.45605
#
# Poissons Ratio (x) = 0.37323 0.20221
# Poissons Ratio (y) = 0.56646 -0.03214
# Poissons Ratio (z) = 0.83100 -0.08703
#
# Static dielectric constant tensor:
#      x y z
#    x 1.549620 0.000000 0.000000 
#    y 0.000000 1.564970 0.000000 
#    z 0.000000 0.000000 1.509310 
# 
# From -- ./inp_files/27103.got.cif
#   From: 2010.05.17/outbox.cif.g08.bks.cpg/sg74_14_cif.got.tgz:27103.got - 2010.06.03 17:57:02.
