data_PCOD9533305
_publ_section_title
;
Structure prediction by ZEFSAII (Michael W. Deem and Ramdas Pophale) SiO2 
 PCOD9533305
Probable space group: I B C A 
;
_chemical_formula_sum "Si O2"
_cell_formula_units_Z 112
_cell_length_a 13.946001
_cell_length_b 14.361865
_cell_length_c 23.713806
_cell_angle_alpha 90.000000
_cell_angle_beta 90.000000
_cell_angle_gamma 90.000000
_cell_volume 4749.652044
_symmetry_space_group_name_H-M "I B C A "
_symmetry_group_IT_number 73
_symmetry_cell_setting 'orthorhombic'
loop_
_space_group_symop_operation_xyz
x,y,z
-x,1/2-y,z
x,-y,1/2-z
1/2-x,y,-z
-x,-y,-z
x,1/2+y,-z
-x,y,1/2+z
1/2+x,-y,z
1/2+x,1/2+y,1/2+z
1/2-x,-y,1/2+z
1/2+x,1/2-y,-z
-x,1/2+y,1/2-z
1/2-x,1/2-y,1/2-z
1/2+x,y,1/2-z
1/2-x,1/2+y,z
x,1/2-y,1/2+z
loop_
_atom_site_type_symbol
_atom_site_label
_atom_site_fract_x
_atom_site_fract_y
_atom_site_fract_z
Si Si1 0.651306 0.942090 0.139834
Si Si2 0.266542 0.000000 0.750000
Si Si3 0.670238 0.817055 0.717084
Si Si4 0.707250 0.676254 0.441694
Si Si5 0.118934 0.357398 0.884967
Si Si6 0.006788 0.137540 0.987306
Si Si7 0.000000 0.750000 0.706479
Si Si8 0.954894 0.149422 0.110066
O O1 0.717514 0.881478 0.097001
O O2 0.539753 0.913482 0.136394
O O3 0.674995 0.937496 0.205756
O O4 0.676094 0.050309 0.129233
O O5 0.200654 0.922669 0.776854
O O6 0.750000 0.750000 0.750000
O O7 0.576891 0.796989 0.753589
O O8 0.633476 0.820691 0.651129
O O9 0.750000 0.715755 0.500000
O O10 0.671054 0.762998 0.404394
O O11 0.616791 0.618292 0.468072
O O12 0.051808 0.325046 0.833692
O O13 0.056626 0.395654 0.936259
O O14 0.000000 0.250000 0.983987
O O15 0.955095 0.109665 0.045731
O O16 0.000000 0.250000 0.100214
#
# Coordination Sequence:
#
# PCOD9533305 Si02
#       8
#    16   8  16  16  16  16   8  16
#     4  12  28  45  77 115 152 206 264 322 392 480
#     4  12  30  48  70 112 156 196 268 322 378 468
#     4  12  28  51  77 111 149 211 259 320 397 468
#     4  11  22  49  75 110 160 197 255 327 398 472
#     4  11  25  47  76 109 152 202 254 319 392 476
#     4   9  20  45  71 104 145 200 245 318 392 452
#     4  12  24  50  80 104 156 208 260 324 398 468
#     4  11  24  46  74 107 155 200 254 320 386 463
#
# _framework density 23.580676
#
# number of rings (size 3 to 8) (size 9 to 14) (size 15 to 20)
#    0.000    0.857    4.286    2.571    4.000    2.286 
#    2.571    0.000    0.000    0.000    0.000    0.000 
#    0.000    0.000    0.000    0.000    0.000    0.000 
#
# Total GULP energy -311946.849133 kJ/mol
# GULP energy per Si atom -5570.479449 kJ/mol
# Density = 2.352701 g / cm^3
# Si number density = 23.580676 Si / 1000 Ang^3
#
#
#
# Elastic Constant Matrix: (Units=GPa)
#
#
# Indices 1 2 3 4 5 6 
#
# 1 102.5492 27.3620 63.0395 0.0000 0.0000 0.0000
# 2 27.3620 93.4503 8.3588 0.0000 0.0000 0.0000
# 3 63.0395 8.3588 125.6017 0.0000 0.0000 0.0000
# 4 0.0000 0.0000 0.0000 28.1048 0.0000 0.0000
# 5 0.0000 0.0000 0.0000 0.0000 -4.7025 0.0000
# 6 0.0000 0.0000 0.0000 0.0000 0.0000 32.7872
#
#
#
# Elastic Compliance Matrix: (Units=1/GPa)
#
#
# Indices 1 2 3 4 5 6 
#
# 1 0.015353 -0.003829 -0.007451 0.000000 0.000000 0.000000
# 2 -0.003829 0.011720 0.001142 0.000000 0.000000 0.000000
# 3 -0.007451 0.001142 0.011625 0.000000 0.000000 0.000000
# 4 0.000000 0.000000 0.000000 0.035581 0.000000 0.000000
# 5 0.000000 0.000000 0.000000 0.000000 -0.212651 0.000000
# 6 0.000000 0.000000 0.000000 0.000000 0.000000 0.030500
#
#
# Mechanical properties :
#
#
# Convention : Reuss Voigt Hill
#
# Bulk Modulus (GPa) = 54.28234 57.68019 55.98126
# Shear Modulus (GPa) = -61.38403 26.09396 -17.64504
#
# Velocity S-wave (km/s) = -5.10764 3.33014 -2.73845
# Velocity P-wave (km/s) = 3.42260 6.26900 3.71390
#
# Compressibility (1/GPa) = 0.01842220
#
# Stress axis : x y z
#
# Youngs Moduli (GPa) = 65.13210 85.32528 86.01868
#
# Poissons Ratio (x) = 0.32671 0.64093
# Poissons Ratio (y) = 0.24939 -0.09822
# Poissons Ratio (z) = 0.48530 -0.09742
#
# Static dielectric constant tensor:
#      x y z
#    x 1.968470 0.000000 0.000000 
#    y 0.000000 2.338780 0.000000 
#    z 0.000000 0.000000 1.263010 
# 
# From -- ./inp_files/29592.got.cif
#   From: 2010.05.17/outbox.cif.g08.bks.cpg/sg73_15_cif.got.tgz:29592.got - 2010.06.03 17:35:07.
