data_PCOD9533101
_publ_section_title
;
Structure prediction by ZEFSAII (Michael W. Deem and Ramdas Pophale) SiO2 
 PCOD9533101
Probable space group: I B C A 
;
_chemical_formula_sum "Si O2"
_cell_formula_units_Z 48
_cell_length_a 8.968102
_cell_length_b 22.680727
_cell_length_c 8.378034
_cell_angle_alpha 90.000000
_cell_angle_beta 90.000000
_cell_angle_gamma 90.000000
_cell_volume 1704.117863
_symmetry_space_group_name_H-M "I B C A "
_symmetry_group_IT_number 73
_symmetry_cell_setting 'orthorhombic'
loop_
_space_group_symop_operation_xyz
x,y,z
-x,1/2-y,z
x,-y,1/2-z
1/2-x,y,-z
-x,-y,-z
x,1/2+y,-z
-x,y,1/2+z
1/2+x,-y,z
1/2+x,1/2+y,1/2+z
1/2-x,-y,1/2+z
1/2+x,1/2-y,-z
-x,1/2+y,1/2-z
1/2-x,1/2-y,1/2-z
1/2+x,y,1/2-z
1/2-x,1/2+y,z
x,1/2-y,1/2+z
loop_
_atom_site_type_symbol
_atom_site_label
_atom_site_fract_x
_atom_site_fract_y
_atom_site_fract_z
Si Si1 0.750000 0.011971 0.500000
Si Si2 0.077673 0.324878 0.785133
Si Si3 0.188487 0.910736 0.802302
Si Si4 0.250000 0.230618 0.000000
O O1 0.739732 0.056011 0.351475
O O2 0.864310 0.964021 0.417679
O O3 0.167415 0.377142 0.866709
O O4 0.140459 0.269632 0.888869
O O5 0.140673 0.307242 0.610975
O O6 0.920834 0.357382 0.750230
#
# Coordination Sequence:
#
# PCOD9533101 Si02
#       4
#     8  16  16   8
#     4  10  26  48  76 108 148 192 254 324 396 460
#     4  11  26  47  75 110 155 203 260 319 391 464
#     4  11  26  47  75 110 149 199 256 325 395 468
#     4  10  26  48  76 114 160 212 262 324 388 470
#
# _framework density 28.167065000000001
#
# number of rings (size 3 to 8) (size 9 to 14) (size 15 to 20)
#    0.000    1.333    0.000    2.000    0.000   26.667 
#    0.000   10.000    0.000    0.000    0.000    0.000 
#    0.000    0.000    0.000    0.000    0.000    0.000 
#
# Total GULP energy -133734.754539 kJ/mol
# GULP energy per Si atom -5572.281439 kJ/mol
# Density = 2.810296 g / cm^3
# Si number density = 28.167065 Si / 1000 Ang^3
#
#
#
# Elastic Constant Matrix: (Units=GPa)
#
#
# Indices 1 2 3 4 5 6 
#
# 1 109.4911 19.3746 0.1044 -0.0001 -0.0007 0.0029
# 2 19.3746 153.7619 38.0544 0.0000 -0.0012 0.0010
# 3 0.1044 38.0544 114.6985 -0.0042 -0.0113 0.0215
# 4 -0.0001 0.0000 -0.0042 85.2345 -0.0011 0.0025
# 5 -0.0007 -0.0012 -0.0113 -0.0011 17.5067 0.0002
# 6 0.0029 0.0010 0.0215 0.0025 0.0002 122.9768
#
#
#
# Elastic Compliance Matrix: (Units=1/GPa)
#
#
# Indices 1 2 3 4 5 6 
#
# 1 0.009360 -0.001283 0.000417 0.000000 0.000001 0.000000
# 2 -0.001283 0.007261 -0.002408 0.000000 -0.000001 0.000000
# 3 0.000417 -0.002408 0.009517 0.000000 0.000006 -0.000002
# 4 0.000000 0.000000 0.000000 0.011732 0.000001 0.000000
# 5 0.000001 -0.000001 0.000006 0.000001 0.057121 0.000000
# 6 0.000000 0.000000 -0.000002 0.000000 0.000000 0.008132
#
#
# Mechanical properties :
#
#
# Convention : Reuss Voigt Hill
#
# Bulk Modulus (GPa) = 51.04407 54.77982 52.91195
# Shear Modulus (GPa) = 43.02921 66.50480 54.76700
#
# Velocity S-wave (km/s) = 3.91275 4.86437 4.41428
# Velocity P-wave (km/s) = 6.21080 7.14422 6.69380
#
# Compressibility (1/GPa) = 0.01959091
#
# Stress axis : x y z
#
# Youngs Moduli (GPa) = 106.84082 137.72017 105.07486
#
# Poissons Ratio (x) = 0.17664 -0.04382
# Poissons Ratio (y) = 0.13703 0.25301
# Poissons Ratio (z) = -0.04455 0.33162
#
# Static dielectric constant tensor:
#      x y z
#    x 2.107310 0.000000 -0.000020 
#    y 0.000000 2.113430 0.000000 
#    z -0.000020 0.000000 2.382110 
# 
# From -- ./inp_files/3470.got.cif
#   From: 2010.05.17/outbox.cif.g08.bks.cpg/sg73_2_cif.got.tgz:3470.got - 2010.06.03 17:35:07.
