data_PCOD9533326
_publ_section_title
;
Structure prediction by ZEFSAII (Michael W. Deem and Ramdas Pophale) SiO2 
 PCOD9533326
Probable space group: I B C A 
;
_chemical_formula_sum "Si O2"
_cell_formula_units_Z 72
_cell_length_a 13.660008
_cell_length_b 11.097212
_cell_length_c 19.701872
_cell_angle_alpha 90.000000
_cell_angle_beta 90.000000
_cell_angle_gamma 90.000000
_cell_volume 2986.567465
_symmetry_space_group_name_H-M "I B C A "
_symmetry_group_IT_number 73
_symmetry_cell_setting 'orthorhombic'
loop_
_space_group_symop_operation_xyz
x,y,z
-x,1/2-y,z
x,-y,1/2-z
1/2-x,y,-z
-x,-y,-z
x,1/2+y,-z
-x,y,1/2+z
1/2+x,-y,z
1/2+x,1/2+y,1/2+z
1/2-x,-y,1/2+z
1/2+x,1/2-y,-z
-x,1/2+y,1/2-z
1/2-x,1/2-y,1/2-z
1/2+x,y,1/2-z
1/2-x,1/2+y,z
x,1/2-y,1/2+z
loop_
_atom_site_type_symbol
_atom_site_label
_atom_site_fract_x
_atom_site_fract_y
_atom_site_fract_z
Si Si1 0.043610 0.076052 0.360702
Si Si2 0.834188 0.966956 0.174561
Si Si3 0.657209 0.322829 0.852697
Si Si4 0.270810 0.646150 0.426923
Si Si5 0.000000 0.250000 0.738979
O O1 0.113478 0.151394 0.411062
O O2 0.042328 0.146770 0.288664
O O3 0.089354 0.941480 0.360075
O O4 0.927545 0.064934 0.371542
O O5 0.770625 0.063753 0.133748
O O6 0.867580 0.000000 0.250000
O O7 0.756455 0.859419 0.185755
O O8 0.703649 0.265582 0.920456
O O9 0.589889 0.229388 0.812052
O O10 0.250000 0.591198 0.500000
#
# Coordination Sequence:
#
# PCOD9533326 Si02
#       5
#    16  16  16  16   8
#     4  11  24  41  69 103 135 182 239 295 361 431
#     4  11  23  43  71 103 138 179 238 307 369 427
#     4  11  23  41  69 101 139 184 232 291 361 429
#     4  11  26  45  66  98 144 195 242 294 362 440
#     4  12  22  42  70 104 140 176 236 304 368 430
#
# _framework density 24.107944
#
# number of rings (size 3 to 8) (size 9 to 14) (size 15 to 20)
#    0.000    0.889    0.000    8.667    0.000    8.000 
#    0.000    7.778    0.000    0.000    0.000    0.000 
#    0.000    0.000    0.000    0.000    0.000    0.000 
#
# Total GULP energy -200892.852208 kJ/mol
# GULP energy per Si atom -5580.357006 kJ/mol
# Density = 2.405307 g / cm^3
# Si number density = 24.107944 Si / 1000 Ang^3
#
#
#
# Elastic Constant Matrix: (Units=GPa)
#
#
# Indices 1 2 3 4 5 6 
#
# 1 186.4869 28.7604 16.6464 0.0000 0.0000 0.0000
# 2 28.7604 75.6487 15.4511 0.0000 0.0000 0.0000
# 3 16.6464 15.4511 63.0338 0.0000 0.0000 0.0000
# 4 0.0000 0.0000 0.0000 12.4854 0.0000 0.0000
# 5 0.0000 0.0000 0.0000 0.0000 26.5365 0.0000
# 6 0.0000 0.0000 0.0000 0.0000 0.0000 48.1650
#
#
#
# Elastic Compliance Matrix: (Units=1/GPa)
#
#
# Indices 1 2 3 4 5 6 
#
# 1 0.005760 -0.001978 -0.001036 0.000000 0.000000 0.000000
# 2 -0.001978 0.014595 -0.003055 0.000000 0.000000 0.000000
# 3 -0.001036 -0.003055 0.016887 0.000000 0.000000 0.000000
# 4 0.000000 0.000000 0.000000 0.080093 0.000000 0.000000
# 5 0.000000 0.000000 0.000000 0.000000 0.037684 0.000000
# 6 0.000000 0.000000 0.000000 0.000000 0.000000 0.020762
#
#
# Mechanical properties :
#
#
# Convention : Reuss Voigt Hill
#
# Bulk Modulus (GPa) = 39.83610 49.65391 44.74500
# Shear Modulus (GPa) = 25.47275 35.05814 30.26545
#
# Velocity S-wave (km/s) = 3.25408 3.81755 3.54703
# Velocity P-wave (km/s) = 5.53883 6.33031 5.94775
#
# Compressibility (1/GPa) = 0.02510286
#
# Stress axis : x y z
#
# Youngs Moduli (GPa) = 173.61471 68.51620 59.21698
#
# Poissons Ratio (x) = 0.13554 0.06136
# Poissons Ratio (y) = 0.34344 0.18092
# Poissons Ratio (z) = 0.17990 0.20933
#
# Static dielectric constant tensor:
#      x y z
#    x 1.910740 0.000000 0.000000 
#    y 0.000000 2.179350 0.000000 
#    z 0.000000 0.000000 1.872870 
# 
# From -- ./inp_files/25851.got.cif
#   From: 2010.05.17/outbox.cif.g08.bks.cpg/sg73_13_cif.got.tgz:25851.got - 2010.06.03 17:35:07.
