data_PCOD9533877
_publ_section_title
;
Structure prediction by ZEFSAII (Michael W. Deem and Ramdas Pophale) SiO2 
 PCOD9533877
Probable space group: I M M A
;
_chemical_formula_sum "Si O2"
_cell_formula_units_Z 48
_cell_length_a 25.532305
_cell_length_b 5.476271
_cell_length_c 22.590836
_cell_angle_alpha 90.000000
_cell_angle_beta 90.000000
_cell_angle_gamma 90.000000
_cell_volume 3158.691837
_symmetry_space_group_name_H-M "I M M A"
_symmetry_group_IT_number 74
_symmetry_cell_setting 'orthorhombic'
loop_
_space_group_symop_operation_xyz
x,y,z
-x,1/2-y,z
x,-y,-z
-x,1/2+y,-z
-x,-y,-z
x,1/2+y,-z
-x,y,z
x,1/2-y,z
1/2+x,1/2+y,1/2+z
1/2-x,-y,1/2+z
1/2+x,1/2-y,1/2-z
1/2-x,y,1/2-z
1/2-x,1/2-y,1/2-z
1/2+x,y,1/2-z
1/2-x,1/2+y,1/2+z
1/2+x,-y,1/2+z
loop_
_atom_site_type_symbol
_atom_site_label
_atom_site_fract_x
_atom_site_fract_y
_atom_site_fract_z
Si Si1 0.000000 0.250000 0.916655
Si Si2 0.155941 0.750000 0.166158
Si Si3 0.940699 0.750000 0.260515
Si Si4 0.885988 0.750000 0.033434
Si Si5 0.500000 0.250000 0.338837
Si Si6 0.195764 0.750000 0.784641
Si Si7 0.416407 0.250000 0.231789
O O1 0.948382 0.250000 0.956431
O O2 0.000000 0.503993 0.878509
O O3 0.104164 0.750000 0.209333
O O4 0.137473 0.750000 0.099078
O O5 0.187798 0.502283 0.179610
O O6 0.933020 0.502828 0.296463
O O7 0.000000 0.750000 0.237157
O O8 0.871324 0.500000 0.000000
O O9 0.449008 0.250000 0.295062
O O10 0.250000 0.750000 0.750000
O O11 0.145266 0.750000 0.741632
#
# Coordination Sequence:
#
# PCOD9533877 Si02
#       7
#     4   8   8   8   4   8   8
#     4  12  22  31  42  58  82 116 150 194 234 259
#     4  10  21  32  49  63  82 115 144 181 245 257
#     4  10  16  27  39  60  76 104 139 177 212 263
#     4  12  24  36  44  61  87 116 155 192 229 276
#     4  12  18  29  46  60  84 110 154 184 224 279
#     4  10  19  33  48  68  85 104 140 191 236 277
#     4  10  18  24  40  62  79 106 135 175 224 254
#
# _framework density 15.196165000000001
#
# number of rings (size 3 to 8) (size 9 to 14) (size 15 to 20)
#    0.000    1.333    1.667    8.000    1.167    0.000 
#    0.000    0.000    0.000    0.000    0.000    0.000 
#    0.000    0.000    0.000    0.000    0.000    0.000 
#
# Total GULP energy -133781.200572 kJ/mol
# GULP energy per Si atom -5574.216691 kJ/mol
# Density = 1.516158 g / cm^3
# Si number density = 15.196165 Si / 1000 Ang^3
#
#
#
# Elastic Constant Matrix: (Units=GPa)
#
#
# Indices 1 2 3 4 5 6 
#
# 1 93.0703 37.3082 30.0426 0.0000 0.0000 0.0000
# 2 37.3082 175.5611 21.7813 0.0000 0.0000 0.0000
# 3 30.0426 21.7813 26.5081 0.0000 0.0000 0.0000
# 4 0.0000 0.0000 0.0000 17.4355 0.0000 0.0000
# 5 0.0000 0.0000 0.0000 0.0000 11.4064 0.0000
# 6 0.0000 0.0000 0.0000 0.0000 0.0000 14.3191
#
#
#
# Elastic Compliance Matrix: (Units=1/GPa)
#
#
# Indices 1 2 3 4 5 6 
#
# 1 0.017238 -0.001380 -0.018402 0.000000 0.000000 0.000000
# 2 -0.001380 0.006453 -0.003738 0.000000 0.000000 0.000000
# 3 -0.018402 -0.003738 0.061652 0.000000 0.000000 0.000000
# 4 0.000000 0.000000 0.000000 0.057354 0.000000 0.000000
# 5 0.000000 0.000000 0.000000 0.000000 0.087670 0.000000
# 6 0.000000 0.000000 0.000000 0.000000 0.000000 0.069837
#
#
# Mechanical properties :
#
#
# Convention : Reuss Voigt Hill
#
# Bulk Modulus (GPa) = 26.10856 52.60040 39.35448
# Shear Modulus (GPa) = 13.88839 22.36603 18.12721
#
# Velocity S-wave (km/s) = 3.02642 3.84059 3.45756
# Velocity P-wave (km/s) = 5.42500 7.37267 6.47252
#
# Compressibility (1/GPa) = 0.03830161
#
# Stress axis : x y z
#
# Youngs Moduli (GPa) = 58.01135 154.96416 16.22002
#
# Poissons Ratio (x) = 0.21386 0.29849
# Poissons Ratio (y) = 0.08006 0.06064
# Poissons Ratio (z) = 1.06755 0.57930
#
# Static dielectric constant tensor:
#      x y z
#    x 1.499340 0.000000 0.000000 
#    y 0.000000 1.622370 0.000000 
#    z 0.000000 0.000000 1.460660 
# 
# From -- ./inp_files/46366.got.cif
#   From: 2010.05.17/outbox.cif.g08.bks.cpg/sg74_24_cif.got.tgz:46366.got - 2010.06.03 17:57:02.
