data_PCOD9533933
_publ_section_title
;
Structure prediction by ZEFSAII (Michael W. Deem and Ramdas Pophale) SiO2 
 PCOD9533933
Probable space group: I M M A
;
_chemical_formula_sum "Si O2"
_cell_formula_units_Z 104
_cell_length_a 24.343812
_cell_length_b 14.713818
_cell_length_c 23.020595
_cell_angle_alpha 90.000000
_cell_angle_beta 90.000000
_cell_angle_gamma 90.000000
_cell_volume 8245.756573
_symmetry_space_group_name_H-M "I M M A"
_symmetry_group_IT_number 74
_symmetry_cell_setting 'orthorhombic'
loop_
_space_group_symop_operation_xyz
x,y,z
-x,1/2-y,z
x,-y,-z
-x,1/2+y,-z
-x,-y,-z
x,1/2+y,-z
-x,y,z
x,1/2-y,z
1/2+x,1/2+y,1/2+z
1/2-x,-y,1/2+z
1/2+x,1/2-y,1/2-z
1/2-x,y,1/2-z
1/2-x,1/2-y,1/2-z
1/2+x,y,1/2-z
1/2-x,1/2+y,1/2+z
1/2+x,-y,1/2+z
loop_
_atom_site_type_symbol
_atom_site_label
_atom_site_fract_x
_atom_site_fract_y
_atom_site_fract_z
Si Si1 0.227498 0.142931 0.343734
Si Si2 0.938736 0.250000 0.347000
Si Si3 0.063208 0.250000 0.586119
Si Si4 0.437426 0.433181 0.228788
Si Si5 0.065916 0.547249 0.385123
Si Si6 0.837120 0.939537 0.551735
Si Si7 0.337017 0.856844 0.721177
Si Si8 0.882346 0.250000 0.468833
O O1 0.225800 0.250000 0.360668
O O2 0.201582 0.080553 0.393304
O O3 0.289826 0.120594 0.325285
O O4 0.191725 0.135684 0.284690
O O5 0.932948 0.160640 0.308279
O O6 0.899732 0.250000 0.401670
O O7 0.000000 0.250000 0.371596
O O8 0.084194 0.347759 0.608262
O O9 0.069931 0.250000 0.516513
O O10 0.000000 0.250000 0.603384
O O11 0.500000 0.439689 0.250682
O O12 0.428421 0.511350 0.180880
O O13 0.390216 0.420716 0.276381
O O14 0.105824 0.485202 0.424937
O O15 0.000000 0.538404 0.400073
O O16 0.849833 0.842408 0.523465
O O17 0.813625 0.000000 0.500000
O O18 0.351514 0.750000 0.713351
#
# Coordination Sequence:
#
# PCOD9533933 Si02
#       8
#    16   8   8  16  16  16  16   8
#     4   9  17  28  41  58  81 106 137 170 200 238
#     4  10  17  22  33  55  84 108 128 156 192 232
#     4  10  21  32  36  47  71 108 149 181 203 219
#     4  10  17  25  40  62  85 108 131 158 196 244
#     4  10  20  30  39  52  76 107 142 176 203 232
#     4  12  21  29  41  56  79 106 144 173 208 235
#     4   9  15  25  42  61  82 108 131 161 203 245
#     4  12  19  26  37  54  74 105 139 180 198 222
#
# _framework density 12.612548
#
# number of rings (size 3 to 8) (size 9 to 14) (size 15 to 20)
#    0.000    1.846    6.154    1.154    0.000    0.923 
#    0.000    0.000    0.000    0.000    0.000    3.231 
#    0.000    0.615    0.000    0.000    0.000    0.000 
#
# Total GULP energy -289514.968921 kJ/mol
# GULP energy per Si atom -5567.595556 kJ/mol
# Density = 1.258384 g / cm^3
# Si number density = 12.612548 Si / 1000 Ang^3
#
#
#
# Elastic Constant Matrix: (Units=GPa)
#
#
# Indices 1 2 3 4 5 6 
#
# 1 70.3985 24.4982 30.2791 0.0000 0.0000 0.0000
# 2 24.4982 74.9402 23.4951 0.0000 0.0000 0.0000
# 3 30.2791 23.4951 40.5324 0.0000 0.0000 0.0000
# 4 0.0000 0.0000 0.0000 1.9152 0.0000 0.0000
# 5 0.0000 0.0000 0.0000 0.0000 20.7032 0.0000
# 6 0.0000 0.0000 0.0000 0.0000 0.0000 10.8899
#
#
#
# Elastic Compliance Matrix: (Units=1/GPa)
#
#
# Indices 1 2 3 4 5 6 
#
# 1 0.021280 -0.002411 -0.014500 0.000000 0.000000 0.000000
# 2 -0.002411 0.016581 -0.007810 0.000000 0.000000 0.000000
# 3 -0.014500 -0.007810 0.040031 0.000000 0.000000 0.000000
# 4 0.000000 0.000000 0.000000 0.522131 0.000000 0.000000
# 5 0.000000 0.000000 0.000000 0.000000 0.048302 0.000000
# 6 0.000000 0.000000 0.000000 0.000000 0.000000 0.091828
#
#
# Mechanical properties :
#
#
# Convention : Reuss Voigt Hill
#
# Bulk Modulus (GPa) = 35.14906 38.04620 36.59763
# Shear Modulus (GPa) = 6.25721 13.87491 10.06606
#
# Velocity S-wave (km/s) = 2.22977 3.32036 2.82813
# Velocity P-wave (km/s) = 5.87860 6.70302 6.30430
#
# Compressibility (1/GPa) = 0.02845026
#
# Stress axis : x y z
#
# Youngs Moduli (GPa) = 46.99197 60.31107 24.98081
#
# Poissons Ratio (x) = 0.14539 0.36221
# Poissons Ratio (y) = 0.11328 0.19511
# Poissons Ratio (z) = 0.68137 0.47105
#
# Static dielectric constant tensor:
#      x y z
#    x 1.450820 0.000000 0.000000 
#    y 0.000000 1.431890 0.000000 
#    z 0.000000 0.000000 1.396440 
# 
# From -- ./inp_files/62141.got.cif
#   From: 2010.05.17/outbox.cif.g08.bks.cpg/sg74_32_cif.got.tgz:62141.got - 2010.06.03 17:57:02.
