data_PCOD9533022
_publ_section_title
;
Structure prediction by ZEFSAII (Michael W. Deem and Ramdas Pophale) SiO2 
 PCOD9533022
Probable space group: I B C A 
;
_chemical_formula_sum "Si O2"
_cell_formula_units_Z 88
_cell_length_a 17.014984
_cell_length_b 17.712988
_cell_length_c 14.035774
_cell_angle_alpha 90.000000
_cell_angle_beta 90.000000
_cell_angle_gamma 90.000000
_cell_volume 4230.188694
_symmetry_space_group_name_H-M "I B C A "
_symmetry_group_IT_number 73
_symmetry_cell_setting 'orthorhombic'
loop_
_space_group_symop_operation_xyz
x,y,z
-x,1/2-y,z
x,-y,1/2-z
1/2-x,y,-z
-x,-y,-z
x,1/2+y,-z
-x,y,1/2+z
1/2+x,-y,z
1/2+x,1/2+y,1/2+z
1/2-x,-y,1/2+z
1/2+x,1/2-y,-z
-x,1/2+y,1/2-z
1/2-x,1/2-y,1/2-z
1/2+x,y,1/2-z
1/2-x,1/2+y,z
x,1/2-y,1/2+z
loop_
_atom_site_type_symbol
_atom_site_label
_atom_site_fract_x
_atom_site_fract_y
_atom_site_fract_z
Si Si1 0.296315 0.688128 0.188233
Si Si2 0.313947 0.045208 0.154966
Si Si3 0.469373 0.570346 0.938695
Si Si4 0.750000 0.432825 0.500000
Si Si5 0.913884 0.217636 0.525847
Si Si6 0.376514 0.158214 0.621827
O O1 0.250000 0.750000 0.250000
O O2 0.237975 0.621669 0.153062
O O3 0.345304 0.726299 0.103143
O O4 0.357263 0.657393 0.266964
O O5 0.407064 0.057699 0.145473
O O6 0.293284 0.000000 0.250000
O O7 0.296929 0.988939 0.068294
O O8 0.544936 0.612306 0.898267
O O9 0.500000 0.500000 0.000000
O O10 0.425032 0.629134 0.007994
O O11 0.693606 0.381574 0.564026
O O12 0.890189 0.260370 0.428113
O O13 0.000000 0.250000 0.555076
#
# Coordination Sequence:
#
# PCOD9533022 Si02
#       6
#    16  16  16   8  16  16
#     4  12  26  43  71 105 137 182 237 291 357 422
#     4  12  26  43  69 103 138 185 236 286 351 430
#     4  11  24  45  69  98 141 188 232 290 360 419
#     4  12  22  46  72  96 148 180 232 296 358 414
#     4  10  25  45  70 100 137 183 235 288 359 428
#     4  11  24  45  70  98 141 182 228 297 353 419
#
# _framework density 20.802855000000001
#
# number of rings (size 3 to 8) (size 9 to 14) (size 15 to 20)
#    0.000    0.727    3.636    3.273    0.000    6.545 
#    0.000    0.000    0.000    0.000    0.000    0.000 
#    0.000    0.000    0.000    0.000    0.000    0.000 
#
# Total GULP energy -245989.362999 kJ/mol
# GULP energy per Si atom -5590.667341 kJ/mol
# Density = 2.075551 g / cm^3
# Si number density = 20.802855 Si / 1000 Ang^3
#
#
#
# Elastic Constant Matrix: (Units=GPa)
#
#
# Indices 1 2 3 4 5 6 
#
# 1 78.1866 12.2414 -0.1516 0.0000 0.0000 0.0000
# 2 12.2414 93.9589 -0.4694 0.0000 0.0000 0.0000
# 3 -0.1516 -0.4694 37.6404 0.0000 0.0000 0.0000
# 4 0.0000 0.0000 0.0000 23.0262 0.0000 0.0000
# 5 0.0000 0.0000 0.0000 0.0000 47.3835 0.0000
# 6 0.0000 0.0000 0.0000 0.0000 0.0000 26.9799
#
#
#
# Elastic Compliance Matrix: (Units=1/GPa)
#
#
# Indices 1 2 3 4 5 6 
#
# 1 0.013056 -0.001701 0.000031 0.000000 0.000000 0.000000
# 2 -0.001701 0.010865 0.000129 0.000000 0.000000 0.000000
# 3 0.000031 0.000129 0.026569 0.000000 0.000000 0.000000
# 4 0.000000 0.000000 0.000000 0.043429 0.000000 0.000000
# 5 0.000000 0.000000 0.000000 0.000000 0.021104 0.000000
# 6 0.000000 0.000000 0.000000 0.000000 0.000000 0.037065
#
#
# Mechanical properties :
#
#
# Convention : Reuss Voigt Hill
#
# Bulk Modulus (GPa) = 21.09318 25.89185 23.49252
# Shear Modulus (GPa) = 29.24441 32.68894 30.96668
#
# Velocity S-wave (km/s) = 3.75345 3.96835 3.86240
# Velocity P-wave (km/s) = 5.38016 5.78536 5.58643
#
# Compressibility (1/GPa) = 0.04740870
#
# Stress axis : x y z
#
# Youngs Moduli (GPa) = 76.59147 92.03698 37.63792
#
# Poissons Ratio (x) = 0.15654 -0.00118
# Poissons Ratio (y) = 0.13027 -0.00484
# Poissons Ratio (z) = -0.00240 -0.01184
#
# Static dielectric constant tensor:
#      x y z
#    x 1.873710 0.000000 0.000000 
#    y 0.000000 1.769280 0.000000 
#    z 0.000000 0.000000 1.697130 
# 
# From -- ./inp_files/17965.got.cif
#   From: 2010.05.17/outbox.cif.g08.bks.cpg/sg73_9_cif.got.tgz:17965.got - 2010.06.03 17:35:07.
