data_PCOD9533684
_publ_section_title
;
Structure prediction by ZEFSAII (Michael W. Deem and Ramdas Pophale) SiO2 
 PCOD9533684
Probable space group: I B C A 
;
_chemical_formula_sum "Si O2"
_cell_formula_units_Z 64
_cell_length_a 9.761430
_cell_length_b 28.217086
_cell_length_c 9.480025
_cell_angle_alpha 90.000000
_cell_angle_beta 90.000000
_cell_angle_gamma 90.000000
_cell_volume 2611.169647
_symmetry_space_group_name_H-M "I B C A "
_symmetry_group_IT_number 73
_symmetry_cell_setting 'orthorhombic'
loop_
_space_group_symop_operation_xyz
x,y,z
-x,1/2-y,z
x,-y,1/2-z
1/2-x,y,-z
-x,-y,-z
x,1/2+y,-z
-x,y,1/2+z
1/2+x,-y,z
1/2+x,1/2+y,1/2+z
1/2-x,-y,1/2+z
1/2+x,1/2-y,-z
-x,1/2+y,1/2-z
1/2-x,1/2-y,1/2-z
1/2+x,y,1/2-z
1/2-x,1/2+y,z
x,1/2-y,1/2+z
loop_
_atom_site_type_symbol
_atom_site_label
_atom_site_fract_x
_atom_site_fract_y
_atom_site_fract_z
Si Si1 0.200251 0.704606 0.840032
Si Si2 0.928813 0.351934 0.683402
Si Si3 0.250000 0.441719 0.500000
Si Si4 0.333788 0.500000 0.250000
Si Si5 0.959136 0.085942 0.928009
O O1 0.250000 0.750000 0.750000
O O2 0.038380 0.690617 0.847195
O O3 0.292940 0.664444 0.765172
O O4 0.250000 0.710570 0.000000
O O5 0.884660 0.384352 0.550879
O O6 0.014803 0.382905 0.792443
O O7 0.241536 0.469934 0.354384
O O8 0.393453 0.416517 0.495384
O O9 0.410281 0.535375 0.362406
#
# Coordination Sequence:
#
# PCOD9533684 Si02
#       5
#    16  16   8   8  16
#     4  12  29  52  78 117 155 197 254 319 397 476
#     4  12  27  49  80 108 154 201 253 318 380 466
#     4  12  26  46  66 100 148 192 252 318 372 450
#     4  12  28  44  72 104 150 204 256 318 388 450
#     4  12  26  48  71 108 148 201 257 312 385 451
#
# _framework density 24.510089000000001
#
# number of rings (size 3 to 8) (size 9 to 14) (size 15 to 20)
#    0.000    0.000    5.000    3.750    7.000    2.000 
#    0.000    0.000    0.000    0.000    0.000    0.000 
#    0.000    0.000    0.000    0.000    0.000    0.000 
#
# Total GULP energy -178729.745437 kJ/mol
# GULP energy per Si atom -5585.304545 kJ/mol
# Density = 2.445430 g / cm^3
# Si number density = 24.510089 Si / 1000 Ang^3
#
#
#
# Elastic Constant Matrix: (Units=GPa)
#
#
# Indices 1 2 3 4 5 6 
#
# 1 70.8975 -5.1350 42.3684 0.0240 -0.0018 0.0037
# 2 -5.1350 68.3958 48.6399 0.0071 -0.0003 0.0022
# 3 42.3684 48.6399 211.7510 0.0382 -0.0091 -0.0104
# 4 0.0240 0.0071 0.0382 -325.1532 0.0036 0.0269
# 5 -0.0018 -0.0003 -0.0091 0.0036 20.9404 -0.0068
# 6 0.0037 0.0022 -0.0104 0.0269 -0.0068 18.2784
#
#
#
# Elastic Compliance Matrix: (Units=1/GPa)
#
#
# Indices 1 2 3 4 5 6 
#
# 1 0.017077 0.004437 -0.004436 0.000001 0.000000 -0.000007
# 2 0.004437 0.018628 -0.005167 0.000000 -0.000002 -0.000006
# 3 -0.004436 -0.005167 0.006797 0.000000 0.000002 0.000005
# 4 0.000001 0.000000 0.000000 -0.003075 0.000001 0.000005
# 5 0.000000 -0.000002 0.000002 0.000001 0.047755 0.000018
# 6 -0.000007 -0.000006 0.000005 0.000005 0.000018 0.054709
#
#
# Mechanical properties :
#
#
# Convention : Reuss Voigt Hill
#
# Bulk Modulus (GPa) = 31.08437 58.08785 44.58611
# Shear Modulus (GPa) = 30.68499 -39.50880 -4.41190
#
# Velocity S-wave (km/s) = 3.54211 -4.01925 -1.34311
# Velocity P-wave (km/s) = 5.42572 1.48722 3.97808
#
# Compressibility (1/GPa) = 0.03217051
#
# Stress axis : x y z
#
# Youngs Moduli (GPa) = 58.55757 53.68201 147.12519
#
# Poissons Ratio (x) = -0.23818 0.65266
# Poissons Ratio (y) = -0.25981 0.76015
# Poissons Ratio (z) = 0.25977 0.27736
#
# Static dielectric constant tensor:
#      x y z
#    x 1.930530 0.000010 0.000020 
#    y 0.000010 2.177120 -0.000050 
#    z 0.000020 -0.000050 1.149580 
# 
# From -- ./inp_files/4006.got.cif
#   From: 2010.05.17/outbox.cif.g08.bks.cpg/sg73_3_cif.got.tgz:4006.got - 2010.06.03 17:35:07.
