data_PCOD9533169
_publ_section_title
;
Structure prediction by ZEFSAII (Michael W. Deem and Ramdas Pophale) SiO2 
 PCOD9533169
Probable space group: I B C A 
;
_chemical_formula_sum "Si O2"
_cell_formula_units_Z 96
_cell_length_a 15.318205
_cell_length_b 23.034383
_cell_length_c 13.462204
_cell_angle_alpha 90.000000
_cell_angle_beta 90.000000
_cell_angle_gamma 90.000000
_cell_volume 4750.076767
_symmetry_space_group_name_H-M "I B C A "
_symmetry_group_IT_number 73
_symmetry_cell_setting 'orthorhombic'
loop_
_space_group_symop_operation_xyz
x,y,z
-x,1/2-y,z
x,-y,1/2-z
1/2-x,y,-z
-x,-y,-z
x,1/2+y,-z
-x,y,1/2+z
1/2+x,-y,z
1/2+x,1/2+y,1/2+z
1/2-x,-y,1/2+z
1/2+x,1/2-y,-z
-x,1/2+y,1/2-z
1/2-x,1/2-y,1/2-z
1/2+x,y,1/2-z
1/2-x,1/2+y,z
x,1/2-y,1/2+z
loop_
_atom_site_type_symbol
_atom_site_label
_atom_site_fract_x
_atom_site_fract_y
_atom_site_fract_z
Si Si1 0.092363 0.357906 0.320347
Si Si2 0.340341 0.352890 0.033512
Si Si3 0.011302 0.568177 0.010601
Si Si4 0.265107 0.680702 0.257882
Si Si5 0.937312 0.648755 0.341296
Si Si6 0.087897 0.766692 0.516238
O O1 0.068116 0.411575 0.393220
O O2 0.175207 0.355600 0.246862
O O3 0.126966 0.310731 0.403249
O O4 0.006469 0.347264 0.250117
O O5 0.421013 0.395792 0.024033
O O6 0.319806 0.331955 0.143521
O O7 0.359420 0.289982 0.983210
O O8 0.250000 0.380610 0.000000
O O9 0.048253 0.590993 0.905545
O O10 0.000000 0.500000 0.000000
O O11 0.250000 0.750000 0.250000
O O12 0.334979 0.657097 0.179646
O O13 0.949812 0.699026 0.422613
O O14 0.000000 0.750000 0.575076
#
# Coordination Sequence:
#
# PCOD9533169 Si02
#       6
#    16  16  16  16  16  16
#     4  11  24  43  65 102 141 173 230 275 349 410
#     4  12  23  43  63 104 139 174 228 278 346 417
#     4  11  26  49  72  89 132 190 239 292 331 397
#     4  12  24  36  69 107 140 175 212 278 356 435
#     4  11  24  41  67  99 137 178 225 280 348 402
#     4  11  21  36  63  97 140 177 207 272 345 431
#
# _framework density 20.210198999999999
#
# number of rings (size 3 to 8) (size 9 to 14) (size 15 to 20)
#    0.000    0.667    6.667    2.000    2.333    2.667 
#    3.000    0.000    0.000    0.000    0.000    0.000 
#    0.000    0.000    0.000    0.000    0.000    0.000 
#
# Total GULP energy -267255.520263 kJ/mol
# GULP energy per Si atom -5567.823339 kJ/mol
# Density = 2.016420 g / cm^3
# Si number density = 20.210199 Si / 1000 Ang^3
#
#
#
# Elastic Constant Matrix: (Units=GPa)
#
#
# Indices 1 2 3 4 5 6 
#
# 1 116.1994 47.0361 16.0929 0.0000 0.0000 0.0000
# 2 47.0361 146.2799 40.7116 0.0000 0.0000 0.0000
# 3 16.0929 40.7116 73.9497 -0.0001 0.0000 0.0000
# 4 0.0000 0.0000 -0.0001 17.1032 0.0000 0.0000
# 5 0.0000 0.0000 0.0000 0.0000 42.7188 0.0000
# 6 0.0000 0.0000 0.0000 0.0000 0.0000 14.3541
#
#
#
# Elastic Compliance Matrix: (Units=1/GPa)
#
#
# Indices 1 2 3 4 5 6 
#
# 1 0.009908 -0.003054 -0.000475 0.000000 0.000000 0.000000
# 2 -0.003054 0.009014 -0.004298 0.000000 0.000000 0.000000
# 3 -0.000475 -0.004298 0.015992 0.000000 0.000000 0.000000
# 4 0.000000 0.000000 0.000000 0.058468 0.000000 0.000000
# 5 0.000000 0.000000 0.000000 0.000000 0.023409 0.000000
# 6 0.000000 0.000000 0.000000 0.000000 0.000000 0.069667
#
#
# Mechanical properties :
#
#
# Convention : Reuss Voigt Hill
#
# Bulk Modulus (GPa) = 51.91869 60.45668 56.18768
# Shear Modulus (GPa) = 23.97710 30.34110 27.15910
#
# Velocity S-wave (km/s) = 3.44813 3.87883 3.66981
# Velocity P-wave (km/s) = 6.44965 7.07385 6.76895
#
# Compressibility (1/GPa) = 0.01926089
#
# Stress axis : x y z
#
# Youngs Moduli (GPa) = 100.93103 110.93455 62.52994
#
# Poissons Ratio (x) = 0.33875 0.02970
# Poissons Ratio (y) = 0.30821 0.26876
# Poissons Ratio (z) = 0.04794 0.47681
#
# Static dielectric constant tensor:
#      x y z
#    x 1.388470 0.000000 0.000000 
#    y 0.000000 2.067800 0.000000 
#    z 0.000000 0.000000 2.474270 
# 
# From -- ./inp_files/17077.got.cif
#   From: 2010.05.17/outbox.cif.g08.bks.cpg/sg73_9_cif.got.tgz:17077.got - 2010.06.03 17:35:07.
