data_PCOD9533345
_publ_section_title
;
Structure prediction by ZEFSAII (Michael W. Deem and Ramdas Pophale) SiO2 
 PCOD9533345
Probable space group: I B C A 
;
_chemical_formula_sum "Si O2"
_cell_formula_units_Z 72
_cell_length_a 19.364417
_cell_length_b 13.094824
_cell_length_c 13.633876
_cell_angle_alpha 90.000000
_cell_angle_beta 90.000000
_cell_angle_gamma 90.000000
_cell_volume 3457.191462
_symmetry_space_group_name_H-M "I B C A "
_symmetry_group_IT_number 73
_symmetry_cell_setting 'orthorhombic'
loop_
_space_group_symop_operation_xyz
x,y,z
-x,1/2-y,z
x,-y,1/2-z
1/2-x,y,-z
-x,-y,-z
x,1/2+y,-z
-x,y,1/2+z
1/2+x,-y,z
1/2+x,1/2+y,1/2+z
1/2-x,-y,1/2+z
1/2+x,1/2-y,-z
-x,1/2+y,1/2-z
1/2-x,1/2-y,1/2-z
1/2+x,y,1/2-z
1/2-x,1/2+y,z
x,1/2-y,1/2+z
loop_
_atom_site_type_symbol
_atom_site_label
_atom_site_fract_x
_atom_site_fract_y
_atom_site_fract_z
Si Si1 0.436299 0.325873 0.895607
Si Si2 0.046558 0.648515 0.619064
Si Si3 0.805825 0.884532 0.714687
Si Si4 0.460235 0.500000 0.750000
Si Si5 0.714054 0.749614 0.599071
O O1 0.500000 0.250000 0.870123
O O2 0.423342 0.410530 0.811824
O O3 0.367309 0.261647 0.911834
O O4 0.449241 0.372959 0.003017
O O5 0.121438 0.657629 0.671226
O O6 0.000000 0.750000 0.630129
O O7 0.007919 0.556883 0.671874
O O8 0.750122 0.856267 0.631080
O O9 0.778197 0.827402 0.811159
O O10 0.814832 0.000000 0.750000
O O11 0.750000 0.713664 0.500000
#
# Coordination Sequence:
#
# PCOD9533345 Si02
#       5
#    16  16  16   8  16
#     4  11  25  44  67  97 134 177 227 280 342 407
#     4  11  23  43  67  97 136 179 224 278 341 401
#     4  11  24  44  70  99 136 180 224 282 343 403
#     4  12  22  40  66 100 130 170 222 284 332 404
#     4  11  24  46  67  97 136 181 222 278 342 410
#
# _framework density 20.826153999999999
#
# number of rings (size 3 to 8) (size 9 to 14) (size 15 to 20)
#    0.000    0.889    3.333    4.000    1.556    0.889 
#    0.000    0.000    0.000    0.000    0.000    0.000 
#    0.000    0.000    0.000    0.000    0.000    0.000 
#
# Total GULP energy -201043.693679 kJ/mol
# GULP energy per Si atom -5584.547047 kJ/mol
# Density = 2.077875 g / cm^3
# Si number density = 20.826154 Si / 1000 Ang^3
#
#
#
# Elastic Constant Matrix: (Units=GPa)
#
#
# Indices 1 2 3 4 5 6 
#
# 1 104.6737 15.1109 9.8693 0.0000 0.0000 0.0000
# 2 15.1109 66.2569 30.6594 0.0000 0.0000 0.0000
# 3 9.8693 30.6594 135.8261 0.0000 0.0000 0.0000
# 4 0.0000 0.0000 0.0000 32.7727 0.0000 0.0000
# 5 0.0000 0.0000 0.0000 0.0000 11.4430 0.0000
# 6 0.0000 0.0000 0.0000 0.0000 0.0000 11.2030
#
#
#
# Elastic Compliance Matrix: (Units=1/GPa)
#
#
# Indices 1 2 3 4 5 6 
#
# 1 0.009885 -0.002146 -0.000234 0.000000 0.000000 0.000000
# 2 -0.002146 0.017319 -0.003753 0.000000 0.000000 0.000000
# 3 -0.000234 -0.003753 0.008227 0.000000 0.000000 0.000000
# 4 0.000000 0.000000 0.000000 0.030513 0.000000 0.000000
# 5 0.000000 0.000000 0.000000 0.000000 0.087389 0.000000
# 6 0.000000 0.000000 0.000000 0.000000 0.000000 0.089262
#
#
# Mechanical properties :
#
#
# Convention : Reuss Voigt Hill
#
# Bulk Modulus (GPa) = 43.17046 46.44846 44.80946
# Shear Modulus (GPa) = 19.04155 27.82489 23.43322
#
# Velocity S-wave (km/s) = 3.02704 3.65917 3.35801
# Velocity P-wave (km/s) = 5.74380 6.34067 6.04960
#
# Compressibility (1/GPa) = 0.02316399
#
# Stress axis : x y z
#
# Youngs Moduli (GPa) = 101.15940 57.73970 121.55713
#
# Poissons Ratio (x) = 0.12393 0.02842
# Poissons Ratio (y) = 0.21712 0.45625
# Poissons Ratio (z) = 0.02365 0.21672
#
# Static dielectric constant tensor:
#      x y z
#    x 1.755230 0.000000 0.000000 
#    y 0.000000 1.778110 0.000000 
#    z 0.000000 0.000000 1.781940 
# 
# From -- ./inp_files/10592.got.cif
#   From: 2010.05.17/outbox.cif.g08.bks.cpg/sg73_6_cif.got.tgz:10592.got - 2010.06.03 17:35:07.
