data_PCOD9533302
_publ_section_title
;
Structure prediction by ZEFSAII (Michael W. Deem and Ramdas Pophale) SiO2 
 PCOD9533302
Probable space group: I B C A 
;
_chemical_formula_sum "Si O2"
_cell_formula_units_Z 112
_cell_length_a 15.191690
_cell_length_b 25.854257
_cell_length_c 12.164346
_cell_angle_alpha 90.000000
_cell_angle_beta 90.000000
_cell_angle_gamma 90.000000
_cell_volume 4777.788445
_symmetry_space_group_name_H-M "I B C A "
_symmetry_group_IT_number 73
_symmetry_cell_setting 'orthorhombic'
loop_
_space_group_symop_operation_xyz
x,y,z
-x,1/2-y,z
x,-y,1/2-z
1/2-x,y,-z
-x,-y,-z
x,1/2+y,-z
-x,y,1/2+z
1/2+x,-y,z
1/2+x,1/2+y,1/2+z
1/2-x,-y,1/2+z
1/2+x,1/2-y,-z
-x,1/2+y,1/2-z
1/2-x,1/2-y,1/2-z
1/2+x,y,1/2-z
1/2-x,1/2+y,z
x,1/2-y,1/2+z
loop_
_atom_site_type_symbol
_atom_site_label
_atom_site_fract_x
_atom_site_fract_y
_atom_site_fract_z
Si Si1 0.795777 0.425760 0.122660
Si Si2 0.988349 0.453319 0.082040
Si Si3 0.969671 0.362809 0.920504
Si Si4 0.874617 0.828203 0.743542
Si Si5 0.789720 0.674341 0.893995
Si Si6 0.907434 0.270763 0.043342
Si Si7 0.133844 0.078705 0.740340
O O1 0.831286 0.372665 0.179356
O O2 0.722977 0.444383 0.209709
O O3 0.886794 0.457252 0.119638
O O4 0.750000 0.421703 0.000000
O O5 0.067417 0.454736 0.168604
O O6 0.000000 0.500000 0.000000
O O7 0.997940 0.396375 0.025821
O O8 0.919488 0.403178 0.845820
O O9 0.052726 0.344723 0.846708
O O10 0.899275 0.319251 0.960497
O O11 0.791085 0.805410 0.679599
O O12 0.917904 0.791160 0.832619
O O13 0.841909 0.723043 0.943456
O O14 0.842869 0.632138 0.824633
O O15 0.750000 0.645324 0.000000
O O16 0.000000 0.250000 0.003001
#
# Coordination Sequence:
#
# PCOD9533302 Si02
#       7
#    16  16  16  16  16  16  16
#     4  11  22  47  76 110 147 195 246 313 387 467
#     4  12  26  49  79 112 147 194 254 318 388 465
#     4  12  23  46  74  99 151 197 249 311 390 454
#     4  11  23  42  68 100 146 200 248 305 383 455
#     4  11  25  41  65 104 144 192 256 305 373 453
#     4  12  24  39  63  99 145 190 249 306 370 440
#     4  11  24  47  78 105 152 201 247 314 388 464
#
# _framework density 23.441807000000001
#
# number of rings (size 3 to 8) (size 9 to 14) (size 15 to 20)
#    0.000    0.571    4.286    3.857    0.000    7.429 
#    0.000    5.000    0.000    0.000    0.000    0.000 
#    0.000    0.000    0.000    0.000    0.000    0.000 
#
# Total GULP energy -312778.789642 kJ/mol
# GULP energy per Si atom -5585.335529 kJ/mol
# Density = 2.338845 g / cm^3
# Si number density = 23.441807 Si / 1000 Ang^3
#
#
#
# Elastic Constant Matrix: (Units=GPa)
#
#
# Indices 1 2 3 4 5 6 
#
# 1 156.2552 48.4700 58.3969 -0.0001 0.0000 0.0000
# 2 48.4700 76.2789 41.0783 0.0000 0.0000 0.0000
# 3 58.3969 41.0783 109.1618 0.0000 0.0000 0.0002
# 4 -0.0001 0.0000 0.0000 5.2732 0.0000 0.0001
# 5 0.0000 0.0000 0.0000 0.0000 63.6113 0.0000
# 6 0.0000 0.0000 0.0002 0.0001 0.0000 1.0309
#
#
#
# Elastic Compliance Matrix: (Units=1/GPa)
#
#
# Indices 1 2 3 4 5 6 
#
# 1 0.008813 -0.003839 -0.003270 0.000000 0.000000 0.000000
# 2 -0.003839 0.018114 -0.004763 0.000000 0.000000 0.000000
# 3 -0.003270 -0.004763 0.012702 0.000000 0.000000 -0.000002
# 4 0.000000 0.000000 0.000000 0.189638 0.000000 -0.000027
# 5 0.000000 0.000000 0.000000 0.000000 0.015720 0.000000
# 6 0.000000 0.000000 -0.000002 -0.000027 0.000000 0.970072
#
#
# Mechanical properties :
#
#
# Convention : Reuss Voigt Hill
#
# Bulk Modulus (GPa) = 62.94896 70.84292 66.89594
# Shear Modulus (GPa) = 4.01898 26.89980 15.45939
#
# Velocity S-wave (km/s) = 1.31079 3.39117 2.57082
# Velocity P-wave (km/s) = 5.40393 6.75424 6.11646
#
# Compressibility (1/GPa) = 0.01588589
#
# Stress axis : x y z
#
# Youngs Moduli (GPa) = 113.47365 55.20576 78.72696
#
# Poissons Ratio (x) = 0.21193 0.25742
# Poissons Ratio (y) = 0.43562 0.37496
# Poissons Ratio (z) = 0.37103 0.26293
#
# Static dielectric constant tensor:
#      x y z
#    x 1.944280 0.000000 0.000000 
#    y 0.000000 1.942910 0.000000 
#    z 0.000000 0.000000 2.022040 
# 
# From -- ./inp_files/11243.got.cif
#   From: 2010.05.17/outbox.cif.g08.bks.cpg/sg73_6_cif.got.tgz:11243.got - 2010.06.03 17:35:07.
