data_PCOD9533761
_publ_section_title
;
Structure prediction by ZEFSAII (Michael W. Deem and Ramdas Pophale) SiO2 
 PCOD9533761
Probable space group: I B C A 
;
_chemical_formula_sum "Si O2"
_cell_formula_units_Z 28
_cell_length_a 27.000000
_cell_length_b 9.000000
_cell_length_c 12.000000
_cell_angle_alpha 90.000000
_cell_angle_beta 90.000000
_cell_angle_gamma 90.000000
_cell_volume 2916.000000
_symmetry_space_group_name_H-M "I B C A "
_symmetry_group_IT_number 73
_symmetry_cell_setting 'orthorhombic'
loop_
_space_group_symop_operation_xyz
x,y,z
-x,1/2-y,z
x,-y,1/2-z
1/2-x,y,-z
-x,-y,-z
x,1/2+y,-z
-x,y,1/2+z
1/2+x,-y,z
1/2+x,1/2+y,1/2+z
1/2-x,-y,1/2+z
1/2+x,1/2-y,-z
-x,1/2+y,1/2-z
1/2-x,1/2-y,1/2-z
1/2+x,y,1/2-z
1/2-x,1/2+y,z
x,1/2-y,1/2+z
loop_
_atom_site_type_symbol
_atom_site_label
_atom_site_fract_x
_atom_site_fract_y
_atom_site_fract_z
Si Si1 0.461813 0.039361 0.870150
Si Si2 0.750000 0.789604 0.000000
Si Si3 0.929365 0.368471 0.573596
Si Si4 0.814812 0.039754 0.120655
O O1 0.521889 0.055169 0.869416
O O2 0.437503 0.194141 0.907477
O O3 0.443795 0.000000 0.750000
O O4 0.442683 0.908586 0.947670
O O5 0.719122 0.680466 0.082815
O O6 0.791274 0.898414 0.055082
O O7 0.873704 0.424887 0.600056
O O8 0.809359 0.000000 0.250000
#
# Coordination Sequence:
#
# PCOD9533761 Si02
#       4
#    16   8  16  16
#     4  10  22  39  59  89 126 156 191 241 287 346
#     4  10  24  40  60  90 116 148 204 248 290 354
#     4  10  22  38  61  89 118 157 201 234 288 358
#     4  11  22  41  63  86 118 156 194 246 298 342
#
# _framework density 9.602195
#
# number of rings (size 3 to 8) (size 9 to 14) (size 15 to 20)
#    0.000    1.714    0.000    3.429    0.000   13.714 
#    0.000    7.143    0.000    0.000    0.000    0.000 
#    0.000    0.000    0.000    0.000    0.000    0.000 
#
# Total GULP energy -156065.681823 kJ/mol
# GULP energy per Si atom -5573.774351 kJ/mol
# Density = 0.958034 g / cm^3
# Si number density = 9.602195 Si / 1000 Ang^3
#
#
#
# Elastic Constant Matrix: (Units=GPa)
#
#
# Indices 1 2 3 4 5 6 
#
# 1 161.3277 77.6121 36.2713 0.0000 0.0000 0.0000
# 2 77.6121 126.6834 98.8911 0.0000 0.0000 0.0000
# 3 36.2713 98.8911 137.6425 0.0000 0.0000 0.0000
# 4 0.0000 0.0000 0.0000 132.3543 0.0000 0.0000
# 5 0.0000 0.0000 0.0000 0.0000 7.5253 0.0000
# 6 0.0000 0.0000 0.0000 0.0000 0.0000 20.5107
#
#
#
# Elastic Compliance Matrix: (Units=1/GPa)
#
#
# Indices 1 2 3 4 5 6 
#
# 1 0.009615 -0.008910 0.003868 0.000000 0.000000 0.000000
# 2 -0.008910 0.026231 -0.016498 0.000000 0.000000 0.000000
# 3 0.003868 -0.016498 0.018099 0.000000 0.000000 0.000000
# 4 0.000000 0.000000 0.000000 0.007555 0.000000 0.000000
# 5 0.000000 0.000000 0.000000 0.000000 0.132884 0.000000
# 6 0.000000 0.000000 0.000000 0.000000 0.000000 0.048755
#
#
# Mechanical properties :
#
#
# Convention : Reuss Voigt Hill
#
# Bulk Modulus (GPa) = 92.03961 94.57806 93.30884
# Shear Modulus (GPa) = 17.25071 46.27003 31.76037
#
# Velocity S-wave (km/s) = 3.00037 4.91383 4.07112
# Velocity P-wave (km/s) = 7.74812 9.03047 8.41376
#
# Compressibility (1/GPa) = 0.01086489
#
# Stress axis : x y z
#
# Youngs Moduli (GPa) = 103.99910 38.12273 55.25090
#
# Poissons Ratio (x) = 0.33968 -0.21369
# Poissons Ratio (y) = 0.92664 0.91153
# Poissons Ratio (z) = -0.40224 0.62895
#
# Static dielectric constant tensor:
#      x y z
#    x 1.647930 0.000000 0.000000 
#    y 0.000000 1.650380 0.000000 
#    z 0.000000 0.000000 1.686970 
# 
# From -- ./inp_files/3845.got.cif
#   From: 2010.05.17/outbox.ucp.g08.bks.cvg/sg73_2_cif.got.tgz:3845.got - 2010.06.11 16:36:03.
