data_PCOD9533282
_publ_section_title
;
Structure prediction by ZEFSAII (Michael W. Deem and Ramdas Pophale) SiO2 
 PCOD9533282
Probable space group: I B C A 
;
_chemical_formula_sum "Si O2"
_cell_formula_units_Z 88
_cell_length_a 15.029350
_cell_length_b 20.201694
_cell_length_c 14.332346
_cell_angle_alpha 90.000000
_cell_angle_beta 90.000000
_cell_angle_gamma 90.000000
_cell_volume 4351.562953
_symmetry_space_group_name_H-M "I B C A "
_symmetry_group_IT_number 73
_symmetry_cell_setting 'orthorhombic'
loop_
_space_group_symop_operation_xyz
x,y,z
-x,1/2-y,z
x,-y,1/2-z
1/2-x,y,-z
-x,-y,-z
x,1/2+y,-z
-x,y,1/2+z
1/2+x,-y,z
1/2+x,1/2+y,1/2+z
1/2-x,-y,1/2+z
1/2+x,1/2-y,-z
-x,1/2+y,1/2-z
1/2-x,1/2-y,1/2-z
1/2+x,y,1/2-z
1/2-x,1/2+y,z
x,1/2-y,1/2+z
loop_
_atom_site_type_symbol
_atom_site_label
_atom_site_fract_x
_atom_site_fract_y
_atom_site_fract_z
Si Si1 0.500000 0.750000 0.606625
Si Si2 0.694092 0.354967 0.265796
Si Si3 0.113629 0.210205 0.267997
Si Si4 0.025048 0.844700 0.047988
Si Si5 0.334515 0.592065 0.934817
Si Si6 0.844881 0.564145 0.952465
O O1 0.558208 0.702278 0.672403
O O2 0.445892 0.705497 0.534110
O O3 0.795331 0.330293 0.279257
O O4 0.639757 0.287676 0.242071
O O5 0.691070 0.397326 0.172348
O O6 0.657699 0.397083 0.353259
O O7 0.053626 0.187708 0.354645
O O8 0.920942 0.862887 0.044257
O O9 0.080272 0.909520 0.022589
O O10 0.355631 0.514514 0.944363
O O11 0.250000 0.608920 0.000000
O O12 0.750000 0.577802 0.000000
#
# Coordination Sequence:
#
# PCOD9533282 Si02
#       6
#     8  16  16  16  16  16
#     4  12  22  38  62  96 140 166 214 276 328 394
#     4  11  22  44  66  99 133 175 224 270 343 391
#     4  11  24  39  68  99 133 175 218 279 335 402
#     4  12  24  42  67 100 135 176 223 275 338 400
#     4  11  25  44  68  97 135 180 227 271 327 402
#     4  11  23  45  69  95 136 176 221 282 330 396
#
# _framework density 20.222618000000001
#
# number of rings (size 3 to 8) (size 9 to 14) (size 15 to 20)
#    0.000    0.727    3.636    4.909    0.000    0.000 
#    0.000    0.000    0.000    0.000    0.000    0.000 
#    0.000    0.000    0.000    0.000    0.000    0.000 
#
# Total GULP energy -245721.416474 kJ/mol
# GULP energy per Si atom -5584.577647 kJ/mol
# Density = 2.017659 g / cm^3
# Si number density = 20.222618 Si / 1000 Ang^3
#
#
#
# Elastic Constant Matrix: (Units=GPa)
#
#
# Indices 1 2 3 4 5 6 
#
# 1 115.7131 34.5655 45.8859 0.0000 0.0000 0.0000
# 2 34.5655 61.2540 46.9906 0.0000 0.0000 0.0000
# 3 45.8859 46.9906 152.7587 0.0000 0.0000 0.0000
# 4 0.0000 0.0000 0.0000 30.3030 0.0000 0.0000
# 5 0.0000 0.0000 0.0000 0.0000 25.7810 0.0000
# 6 0.0000 0.0000 0.0000 0.0000 0.0000 32.7807
#
#
#
# Elastic Compliance Matrix: (Units=1/GPa)
#
#
# Indices 1 2 3 4 5 6 
#
# 1 0.010753 -0.004699 -0.001785 0.000000 0.000000 0.000000
# 2 -0.004699 0.023421 -0.005793 0.000000 0.000000 0.000000
# 3 -0.001785 -0.005793 0.008864 0.000000 0.000000 0.000000
# 4 0.000000 0.000000 0.000000 0.033000 0.000000 0.000000
# 5 0.000000 0.000000 0.000000 0.000000 0.038788 0.000000
# 6 0.000000 0.000000 0.000000 0.000000 0.000000 0.030506
#
#
# Mechanical properties :
#
#
# Convention : Reuss Voigt Hill
#
# Bulk Modulus (GPa) = 54.09680 64.95666 59.52673
# Shear Modulus (GPa) = 28.40119 31.25853 29.82986
#
# Velocity S-wave (km/s) = 3.75163 3.93583 3.84484
# Velocity P-wave (km/s) = 6.75093 7.26945 7.01498
#
# Compressibility (1/GPa) = 0.01848538
#
# Stress axis : x y z
#
# Youngs Moduli (GPa) = 92.99337 42.69600 112.81058
#
# Poissons Ratio (x) = 0.20063 0.20133
# Poissons Ratio (y) = 0.43698 0.65354
# Poissons Ratio (z) = 0.16596 0.24735
#
# Static dielectric constant tensor:
#      x y z
#    x 1.761120 0.000000 0.000000 
#    y 0.000000 1.749020 0.000000 
#    z 0.000000 0.000000 1.707210 
# 
# From -- ./inp_files/16922.got.cif
#   From: 2010.05.17/outbox.cif.g08.bks.cpg/sg73_9_cif.got.tgz:16922.got - 2010.06.03 17:35:07.
