data_PCOD9533755
_publ_section_title
;
Structure prediction by ZEFSAII (Michael W. Deem and Ramdas Pophale) SiO2 
 PCOD9533755
Probable space group: I B C A 
;
_chemical_formula_sum "Si O2"
_cell_formula_units_Z 60
_cell_length_a 9.000000
_cell_length_b 24.000000
_cell_length_c 27.000000
_cell_angle_alpha 90.000000
_cell_angle_beta 90.000000
_cell_angle_gamma 90.000000
_cell_volume 5832.000000
_symmetry_space_group_name_H-M "I B C A "
_symmetry_group_IT_number 73
_symmetry_cell_setting 'orthorhombic'
loop_
_space_group_symop_operation_xyz
x,y,z
-x,1/2-y,z
x,-y,1/2-z
1/2-x,y,-z
-x,-y,-z
x,1/2+y,-z
-x,y,1/2+z
1/2+x,-y,z
1/2+x,1/2+y,1/2+z
1/2-x,-y,1/2+z
1/2+x,1/2-y,-z
-x,1/2+y,1/2-z
1/2-x,1/2-y,1/2-z
1/2+x,y,1/2-z
1/2-x,1/2+y,z
x,1/2-y,1/2+z
loop_
_atom_site_type_symbol
_atom_site_label
_atom_site_fract_x
_atom_site_fract_y
_atom_site_fract_z
Si Si1 0.000971 0.890203 0.342187
Si Si2 0.686244 0.830453 0.341810
Si Si3 0.053118 0.307371 0.429376
Si Si4 0.879516 0.468724 0.070484
Si Si5 0.314446 0.500000 0.750000
Si Si6 0.948665 0.932442 0.038880
Si Si7 0.056676 0.421131 0.772064
Si Si8 0.156284 0.777347 0.369009
O O1 0.831248 0.869428 0.352423
O O2 0.056004 0.935568 0.382396
O O3 0.023589 0.911438 0.286154
O O4 0.104554 0.835196 0.345214
O O5 0.567012 0.818522 0.385270
O O6 0.591477 0.863456 0.299990
O O7 0.763632 0.769407 0.334094
O O8 0.052560 0.365831 0.457379
O O9 0.218059 0.294220 0.408770
O O10 0.000000 0.250000 0.455284
O O11 0.705251 0.455993 0.062328
O O12 0.921683 0.534365 0.068198
O O13 0.954080 0.446259 0.019491
O O14 0.202849 0.458884 0.778280
O O15 0.416606 0.539079 0.785270
O O16 0.000000 0.750000 0.387600
#
# Coordination Sequence:
#
# PCOD9533755 Si02
#       8
#    16  16  16  16   8  16  16  16
#     4  11  22  40  65  92 126 175 218 265 338 394
#     4  10  23  40  61  93 129 165 220 273 329 397
#     4  10  21  41  68  96 131 172 222 276 330 398
#     4  10  23  40  67  97 135 171 219 272 332 402
#     4  10  24  40  56  84 126 164 220 276 322 392
#     4  10  22  43  66  98 134 172 219 273 335 401
#     4  11  23  41  58  87 127 170 217 276 328 397
#     4   9  20  40  64  92 126 164 218 277 324 395
#
# _framework density 10.288066000000001
#
# number of rings (size 3 to 8) (size 9 to 14) (size 15 to 20)
#    0.000    1.867    2.667    0.000    3.733    3.733 
#    0.000    6.667    0.000    0.000    0.000    0.000 
#    0.000    0.000    0.000    0.000    0.000    0.000 
#
# Total GULP energy -334668.119233 kJ/mol
# GULP energy per Si atom -5577.801987 kJ/mol
# Density = 1.026465 g / cm^3
# Si number density = 10.288066 Si / 1000 Ang^3
#
#
#
# Elastic Constant Matrix: (Units=GPa)
#
#
# Indices 1 2 3 4 5 6 
#
# 1 82.3933 13.4322 -2.8057 0.0000 0.0000 0.0000
# 2 13.4322 137.5534 16.3670 0.0000 0.0000 0.0000
# 3 -2.8057 16.3670 42.6461 0.0000 0.0000 0.0000
# 4 0.0000 0.0000 0.0000 29.5893 0.0000 0.0000
# 5 0.0000 0.0000 0.0000 0.0000 15.1999 0.0000
# 6 0.0000 0.0000 0.0000 0.0000 0.0000 39.6432
#
#
#
# Elastic Compliance Matrix: (Units=1/GPa)
#
#
# Indices 1 2 3 4 5 6 
#
# 1 0.012406 -0.001371 0.001342 0.000000 0.000000 0.000000
# 2 -0.001371 0.007769 -0.003072 0.000000 0.000000 0.000000
# 3 0.001342 -0.003072 0.024716 0.000000 0.000000 0.000000
# 4 0.000000 0.000000 0.000000 0.033796 0.000000 0.000000
# 5 0.000000 0.000000 0.000000 0.000000 0.065790 0.000000
# 6 0.000000 0.000000 0.000000 0.000000 0.000000 0.025225
#
#
# Mechanical properties :
#
#
# Convention : Reuss Voigt Hill
#
# Bulk Modulus (GPa) = 25.84640 35.17557 30.51098
# Shear Modulus (GPa) = 26.48296 32.59310 29.53803
#
# Velocity S-wave (km/s) = 3.59147 3.98430 3.79297
# Velocity P-wave (km/s) = 5.45773 6.18859 5.83461
#
# Compressibility (1/GPa) = 0.03869011
#
# Stress axis : x y z
#
# Youngs Moduli (GPa) = 80.60514 128.71127 40.45945
#
# Poissons Ratio (x) = 0.17649 -0.05431
# Poissons Ratio (y) = 0.11053 0.12429
# Poissons Ratio (z) = -0.10821 0.39540
#
# Static dielectric constant tensor:
#      x y z
#    x 1.753220 0.000000 0.000000 
#    y 0.000000 1.782270 0.000000 
#    z 0.000000 0.000000 1.723280 
# 
# From -- ./inp_files/31396.got.cif
#   From: 2010.05.17/outbox.ucp.g08.bks.cvg/sg73_16_cif.got.tgz:31396.got - 2010.06.11 16:36:03.
