data_PCOD9533521
_publ_section_title
;
Structure prediction by ZEFSAII (Michael W. Deem and Ramdas Pophale) SiO2 
 PCOD9533521
Probable space group: I B C A 
;
_chemical_formula_sum "Si O2"
_cell_formula_units_Z 64
_cell_length_a 16.565712
_cell_length_b 9.541955
_cell_length_c 19.110697
_cell_angle_alpha 90.000000
_cell_angle_beta 90.000000
_cell_angle_gamma 90.000000
_cell_volume 3020.814085
_symmetry_space_group_name_H-M "I B C A "
_symmetry_group_IT_number 73
_symmetry_cell_setting 'orthorhombic'
loop_
_space_group_symop_operation_xyz
x,y,z
-x,1/2-y,z
x,-y,1/2-z
1/2-x,y,-z
-x,-y,-z
x,1/2+y,-z
-x,y,1/2+z
1/2+x,-y,z
1/2+x,1/2+y,1/2+z
1/2-x,-y,1/2+z
1/2+x,1/2-y,-z
-x,1/2+y,1/2-z
1/2-x,1/2-y,1/2-z
1/2+x,y,1/2-z
1/2-x,1/2+y,z
x,1/2-y,1/2+z
loop_
_atom_site_type_symbol
_atom_site_label
_atom_site_fract_x
_atom_site_fract_y
_atom_site_fract_z
Si Si1 0.256016 0.622551 0.301715
Si Si2 0.922138 0.463401 0.043386
Si Si3 0.950059 0.896465 0.687924
Si Si4 0.677134 0.682596 0.046140
O O1 0.226437 0.500000 0.250000
O O2 0.250000 0.750000 0.250000
O O3 0.352611 0.617585 0.311390
O O4 0.109964 0.804889 0.448993
O O5 0.954838 0.518073 0.117039
O O6 0.709692 0.638329 0.123753
O O7 0.854239 0.555079 0.002561
O O8 0.000000 0.500000 0.000000
O O9 0.000000 0.750000 0.688230
O O10 0.976250 0.000000 0.750000
O O11 0.750000 0.745263 0.000000
#
# Coordination Sequence:
#
# PCOD9533521 Si02
#       4
#    16  16  16  16
#     4  11  26  45  71 104 143 188 250 300 364 441
#     4  12  27  46  71 108 147 191 244 303 370 446
#     4  11  25  47  70 103 145 191 244 306 377 450
#     4  12  25  45  76 103 147 194 244 303 368 435
#
# _framework density 21.186340999999999
#
# number of rings (size 3 to 8) (size 9 to 14) (size 15 to 20)
#    0.000    0.500    2.500    6.000    3.500    5.000 
#    0.000    0.000    0.000    0.000    0.000    0.000 
#    0.000    0.000    0.000    0.000    0.000    0.000 
#
# Total GULP energy -178312.984023 kJ/mol
# GULP energy per Si atom -5572.280751 kJ/mol
# Density = 2.113812 g / cm^3
# Si number density = 21.186341 Si / 1000 Ang^3
#
#
#
# Elastic Constant Matrix: (Units=GPa)
#
#
# Indices 1 2 3 4 5 6 
#
# 1 56.4391 0.4520 25.0431 0.0000 0.0000 0.0000
# 2 0.4520 113.1441 48.6522 0.0000 0.0000 0.0000
# 3 25.0431 48.6522 190.7921 0.0000 0.0000 0.0000
# 4 0.0000 0.0000 0.0000 609.4878 0.0000 0.0000
# 5 0.0000 0.0000 0.0000 0.0000 49.6375 0.0000
# 6 0.0000 0.0000 0.0000 0.0000 0.0000 -3.8891
#
#
#
# Elastic Compliance Matrix: (Units=1/GPa)
#
#
# Indices 1 2 3 4 5 6 
#
# 1 0.018939 0.001116 -0.002770 0.000000 0.000000 0.000000
# 2 0.001116 0.009992 -0.002695 0.000000 0.000000 0.000000
# 3 -0.002770 -0.002695 0.006292 0.000000 0.000000 0.000000
# 4 0.000000 0.000000 0.000000 0.001641 0.000000 0.000000
# 5 0.000000 0.000000 0.000000 0.000000 0.020146 0.000000
# 6 0.000000 0.000000 0.000000 0.000000 0.000000 -0.257130
#
#
# Mechanical properties :
#
#
# Convention : Reuss Voigt Hill
#
# Bulk Modulus (GPa) = 37.70095 56.51888 47.10991
# Shear Modulus (GPa) = -27.38523 150.12910 61.37193
#
# Velocity S-wave (km/s) = -3.59916 8.42705 5.38800
# Velocity P-wave (km/s) = 0.74942 11.01915 7.80972
#
# Compressibility (1/GPa) = 0.02652453
#
# Stress axis : x y z
#
# Youngs Moduli (GPa) = 52.80242 100.07523 158.93089
#
# Poissons Ratio (x) = -0.11164 0.44029
# Poissons Ratio (y) = -0.05891 0.42824
# Poissons Ratio (z) = 0.14628 0.26966
#
# Static dielectric constant tensor:
#      x y z
#    x 1.510620 0.000000 0.000000 
#    y 0.000000 1.780390 0.000000 
#    z 0.000000 0.000000 1.674190 
# 
# From -- ./inp_files/22311.got.cif
#   From: 2010.05.17/outbox.cif.g08.bks.cpg/sg73_12_cif.got.tgz:22311.got - 2010.06.03 17:35:07.
