data_PCOD9533776
_publ_section_title
;
Structure prediction by ZEFSAII (Michael W. Deem and Ramdas Pophale) SiO2 
 PCOD9533776
Probable space group: I B C A 
;
_chemical_formula_sum "Si O2"
_cell_formula_units_Z 60
_cell_length_a 24.000000
_cell_length_b 9.000000
_cell_length_c 30.000000
_cell_angle_alpha 90.000000
_cell_angle_beta 90.000000
_cell_angle_gamma 90.000000
_cell_volume 6480.000000
_symmetry_space_group_name_H-M "I B C A "
_symmetry_group_IT_number 73
_symmetry_cell_setting 'orthorhombic'
loop_
_space_group_symop_operation_xyz
x,y,z
-x,1/2-y,z
x,-y,1/2-z
1/2-x,y,-z
-x,-y,-z
x,1/2+y,-z
-x,y,1/2+z
1/2+x,-y,z
1/2+x,1/2+y,1/2+z
1/2-x,-y,1/2+z
1/2+x,1/2-y,-z
-x,1/2+y,1/2-z
1/2-x,1/2-y,1/2-z
1/2+x,y,1/2-z
1/2-x,1/2+y,z
x,1/2-y,1/2+z
loop_
_atom_site_type_symbol
_atom_site_label
_atom_site_fract_x
_atom_site_fract_y
_atom_site_fract_z
Si Si1 0.697091 0.138097 0.906709
Si Si2 0.579460 0.602366 0.046767
Si Si3 0.735447 0.500000 0.750000
Si Si4 0.044343 0.889283 0.793290
Si Si5 0.221747 0.435963 0.548605
Si Si6 0.822519 0.217738 0.197305
Si Si7 0.410941 0.540792 0.050234
Si Si8 0.000309 0.432206 0.383131
O O1 0.640126 0.082851 0.930120
O O2 0.721140 0.263010 0.939694
O O3 0.686755 0.201998 0.856717
O O4 0.742920 0.010694 0.911748
O O5 0.572536 0.783035 0.047356
O O6 0.539375 0.503951 0.078153
O O7 0.573268 0.543094 0.996020
O O8 0.697379 0.378094 0.779222
O O9 0.778608 0.598940 0.780407
O O10 0.110221 0.827802 0.796359
O O11 0.000000 0.750000 0.789108
O O12 0.041897 0.000000 0.750000
O O13 0.022362 0.984818 0.837327
O O14 0.250000 0.462464 0.500000
O O15 0.156293 0.477075 0.550997
O O16 0.439954 0.477691 0.095343
O O17 0.000000 0.250000 0.378984
#
# Coordination Sequence:
#
# PCOD9533776 Si02
#       8
#    16  16   8  16  16  16  16  16
#     4  11  23  39  65  97 138 182 227 290 350 418
#     4  11  22  41  65  96 137 181 232 286 349 418
#     4  10  24  46  78 106 142 184 236 300 378 448
#     4  12  27  49  75 105 144 186 240 306 372 443
#     4  11  23  39  62  97 138 181 231 279 347 418
#     4  11  23  48  73 108 143 184 238 303 369 441
#     4  11  24  40  67  98 137 187 232 292 349 425
#     4  12  26  47  69  99 135 182 239 297 361 428
#
# _framework density 9.2592590000000001
#
# number of rings (size 3 to 8) (size 9 to 14) (size 15 to 20)
#    0.000    0.800    3.333    4.000    4.667    1.067 
#    2.400    0.000    0.000    0.000    0.000    0.000 
#    0.000    0.000    0.000    0.000    0.000    0.000 
#
# Total GULP energy -334373.350879 kJ/mol
# GULP energy per Si atom -5572.889181 kJ/mol
# Density = 0.923818 g / cm^3
# Si number density = 9.259259 Si / 1000 Ang^3
#
#
#
# Elastic Constant Matrix: (Units=GPa)
#
#
# Indices 1 2 3 4 5 6 
#
# 1 134.6072 60.0291 43.3014 0.0000 0.0000 0.0000
# 2 60.0291 124.8357 41.8898 0.0000 0.0000 0.0000
# 3 43.3014 41.8898 132.3860 0.0000 0.0000 0.0000
# 4 0.0000 0.0000 0.0000 45.6389 0.0000 0.0000
# 5 0.0000 0.0000 0.0000 0.0000 40.2297 0.0000
# 6 0.0000 0.0000 0.0000 0.0000 0.0000 38.1484
#
#
#
# Elastic Compliance Matrix: (Units=1/GPa)
#
#
# Indices 1 2 3 4 5 6 
#
# 1 0.009881 -0.004102 -0.001934 0.000000 0.000000 0.000000
# 2 -0.004102 0.010665 -0.002033 0.000000 0.000000 0.000000
# 3 -0.001934 -0.002033 0.008829 0.000000 0.000000 0.000000
# 4 0.000000 0.000000 0.000000 0.021911 0.000000 0.000000
# 5 0.000000 0.000000 0.000000 0.000000 0.024857 0.000000
# 6 0.000000 0.000000 0.000000 0.000000 0.000000 0.026213
#
#
# Mechanical properties :
#
#
# Convention : Reuss Voigt Hill
#
# Bulk Modulus (GPa) = 75.54371 75.80772 75.67571
# Shear Modulus (GPa) = 40.68098 41.24397 40.96248
#
# Velocity S-wave (km/s) = 4.69206 4.72441 4.70826
# Velocity P-wave (km/s) = 8.38070 8.41339 8.39706
#
# Compressibility (1/GPa) = 0.01323737
#
# Stress axis : x y z
#
# Youngs Moduli (GPa) = 101.20903 93.76133 113.25768
#
# Poissons Ratio (x) = 0.38464 0.21901
# Poissons Ratio (y) = 0.41519 0.23025
# Poissons Ratio (z) = 0.19571 0.19061
#
# Static dielectric constant tensor:
#      x y z
#    x 1.717130 0.000000 0.000000 
#    y 0.000000 1.672400 0.000000 
#    z 0.000000 0.000000 1.632730 
# 
# From -- ./inp_files/34812.got.cif
#   From: 2010.05.17/outbox.ucp.g08.bks.cvg/sg73_18_cif.got.tgz:34812.got - 2010.06.11 16:36:03.
