data_PCOD9533571
_publ_section_title
;
Structure prediction by ZEFSAII (Michael W. Deem and Ramdas Pophale) SiO2 
 PCOD9533571
Probable space group: I B C A 
;
_chemical_formula_sum "Si O2"
_cell_formula_units_Z 64
_cell_length_a 11.962601
_cell_length_b 15.035625
_cell_length_c 14.205911
_cell_angle_alpha 90.000000
_cell_angle_beta 90.000000
_cell_angle_gamma 90.000000
_cell_volume 2555.148777
_symmetry_space_group_name_H-M "I B C A "
_symmetry_group_IT_number 73
_symmetry_cell_setting 'orthorhombic'
loop_
_space_group_symop_operation_xyz
x,y,z
-x,1/2-y,z
x,-y,1/2-z
1/2-x,y,-z
-x,-y,-z
x,1/2+y,-z
-x,y,1/2+z
1/2+x,-y,z
1/2+x,1/2+y,1/2+z
1/2-x,-y,1/2+z
1/2+x,1/2-y,-z
-x,1/2+y,1/2-z
1/2-x,1/2-y,1/2-z
1/2+x,y,1/2-z
1/2-x,1/2+y,z
x,1/2-y,1/2+z
loop_
_atom_site_type_symbol
_atom_site_label
_atom_site_fract_x
_atom_site_fract_y
_atom_site_fract_z
Si Si1 0.259433 0.194865 0.651607
Si Si2 0.019966 0.875647 0.848226
Si Si3 0.135857 0.163755 0.995461
Si Si4 0.469539 0.584850 0.352879
O O1 0.250000 0.250000 0.750000
O O2 0.141661 0.153696 0.618201
O O3 0.319489 0.257960 0.573573
O O4 0.341133 0.110198 0.659432
O O5 0.023532 0.863979 0.735864
O O6 0.993250 0.980384 0.855329
O O7 0.917157 0.826688 0.900461
O O8 0.030046 0.122199 0.944060
O O9 0.250000 0.105959 0.000000
#
# Coordination Sequence:
#
# PCOD9533571 Si02
#       4
#    16  16  16  16
#     4  12  27  50  84 115 161 211 271 340 412 492
#     4  11  28  50  82 116 160 213 271 336 415 490
#     4  12  28  47  79 117 158 203 272 330 405 493
#     4  11  27  51  80 115 161 211 275 336 414 489
#
# _framework density 25.047466
#
# number of rings (size 3 to 8) (size 9 to 14) (size 15 to 20)
#    0.000    0.500    2.500    3.000   10.500    4.000 
#    0.000    0.000    0.000    0.000    0.000    0.000 
#    0.000    0.000    0.000    0.000    0.000    0.000 
#
# Total GULP energy -178856.205257 kJ/mol
# GULP energy per Si atom -5589.256414 kJ/mol
# Density = 2.499046 g / cm^3
# Si number density = 25.047466 Si / 1000 Ang^3
#
#
#
# Elastic Constant Matrix: (Units=GPa)
#
#
# Indices 1 2 3 4 5 6 
#
# 1 200.7744 72.4621 25.0493 0.0000 0.0000 0.0000
# 2 72.4621 127.4900 37.1933 0.0000 0.0000 0.0000
# 3 25.0493 37.1933 112.2284 0.0000 0.0000 0.0000
# 4 0.0000 0.0000 0.0000 23.1604 0.0000 0.0000
# 5 0.0000 0.0000 0.0000 0.0000 52.2431 0.0000
# 6 0.0000 0.0000 0.0000 0.0000 0.0000 30.0296
#
#
#
# Elastic Compliance Matrix: (Units=1/GPa)
#
#
# Indices 1 2 3 4 5 6 
#
# 1 0.006272 -0.003494 -0.000242 0.000000 0.000000 0.000000
# 2 -0.003494 0.010630 -0.002743 0.000000 0.000000 0.000000
# 3 -0.000242 -0.002743 0.009873 0.000000 0.000000 0.000000
# 4 0.000000 0.000000 0.000000 0.043177 0.000000 0.000000
# 5 0.000000 0.000000 0.000000 0.000000 0.019141 0.000000
# 6 0.000000 0.000000 0.000000 0.000000 0.000000 0.033300
#
#
# Mechanical properties :
#
#
# Convention : Reuss Voigt Hill
#
# Bulk Modulus (GPa) = 72.37333 78.87803 75.62568
# Shear Modulus (GPa) = 35.72492 41.47250 38.59871
#
# Velocity S-wave (km/s) = 3.78072 4.07351 3.92984
# Velocity P-wave (km/s) = 6.92933 7.32697 7.13092
#
# Compressibility (1/GPa) = 0.01381724
#
# Stress axis : x y z
#
# Youngs Moduli (GPa) = 159.43799 94.07305 101.28203
#
# Poissons Ratio (x) = 0.32872 0.02450
# Poissons Ratio (y) = 0.55712 0.27781
# Poissons Ratio (z) = 0.03856 0.25804
#
# Static dielectric constant tensor:
#      x y z
#    x 2.045680 0.000000 0.000000 
#    y 0.000000 2.016520 0.000000 
#    z 0.000000 0.000000 2.053710 
# 
# From -- ./inp_files/15853.got.cif
#   From: 2010.05.17/outbox.cif.g08.bks.cpg/sg73_8_cif.got.tgz:15853.got - 2010.06.03 17:35:07.
