data_PCOD9533628
_publ_section_title
;
Structure prediction by ZEFSAII (Michael W. Deem and Ramdas Pophale) SiO2 
 PCOD9533628
Probable space group: I B C A 
;
_chemical_formula_sum "Si O2"
_cell_formula_units_Z 112
_cell_length_a 13.817403
_cell_length_b 27.130304
_cell_length_c 12.912756
_cell_angle_alpha 90.000000
_cell_angle_beta 90.000000
_cell_angle_gamma 90.000000
_cell_volume 4840.609282
_symmetry_space_group_name_H-M "I B C A "
_symmetry_group_IT_number 73
_symmetry_cell_setting 'orthorhombic'
loop_
_space_group_symop_operation_xyz
x,y,z
-x,1/2-y,z
x,-y,1/2-z
1/2-x,y,-z
-x,-y,-z
x,1/2+y,-z
-x,y,1/2+z
1/2+x,-y,z
1/2+x,1/2+y,1/2+z
1/2-x,-y,1/2+z
1/2+x,1/2-y,-z
-x,1/2+y,1/2-z
1/2-x,1/2-y,1/2-z
1/2+x,y,1/2-z
1/2-x,1/2+y,z
x,1/2-y,1/2+z
loop_
_atom_site_type_symbol
_atom_site_label
_atom_site_fract_x
_atom_site_fract_y
_atom_site_fract_z
Si Si1 0.750000 0.131224 0.500000
Si Si2 0.076291 0.100142 0.302397
Si Si3 0.396504 0.052209 0.273056
Si Si4 0.300178 0.952908 0.642967
Si Si5 0.406991 0.203597 0.075129
Si Si6 0.598962 0.707363 0.799810
Si Si7 0.000000 0.250000 0.113912
Si Si8 0.904083 0.965903 0.509908
O O1 0.688502 0.094517 0.429883
O O2 0.677017 0.164829 0.564174
O O3 0.131231 0.058048 0.238525
O O4 0.134094 0.151590 0.287646
O O5 0.073924 0.082009 0.420563
O O6 0.968151 0.096335 0.255783
O O7 0.306274 0.048999 0.194003
O O8 0.372863 0.051149 0.395012
O O9 0.448432 0.000000 0.250000
O O10 0.329666 0.999361 0.573306
O O11 0.470144 0.208093 0.969732
O O12 0.361389 0.256337 0.111367
O O13 0.489518 0.195238 0.160295
O O14 0.588068 0.739023 0.694660
O O15 0.000000 0.000000 0.500000
#
# Coordination Sequence:
#
# PCOD9533628 Si02
#       8
#     8  16  16  16  16  16   8  16
#     4  12  24  42  70  98 134 182 236 292 370 428
#     4  12  24  43  66  99 140 184 242 285 364 428
#     4  12  24  42  68  96 136 186 234 295 353 415
#     4  12  27  42  67 104 140 184 245 298 348 431
#     4   9  20  38  62  93 123 164 222 284 348 419
#     4   9  20  38  64  92 126 170 223 286 347 425
#     4   8  16  38  62  84 122 160 206 276 346 394
#     4  12  25  46  69  99 142 193 237 298 349 414
#
# _framework density 23.137581999999998
#
# number of rings (size 3 to 8) (size 9 to 14) (size 15 to 20)
#    0.000    1.429    2.857    3.857    2.000    4.000 
#    0.000    9.286    0.000    0.000    0.000    0.000 
#    0.000    0.000    0.000    0.000    0.000    0.000 
#
# Total GULP energy -312068.043905 kJ/mol
# GULP energy per Si atom -5572.643641 kJ/mol
# Density = 2.308492 g / cm^3
# Si number density = 23.137582 Si / 1000 Ang^3
#
#
#
# Elastic Constant Matrix: (Units=GPa)
#
#
# Indices 1 2 3 4 5 6 
#
# 1 53.7580 10.3450 4.9892 0.0000 0.0000 0.0000
# 2 10.3450 109.9149 41.8494 -0.0004 0.0000 0.0000
# 3 4.9892 41.8494 134.2931 -0.0002 0.0000 0.0000
# 4 0.0000 -0.0004 -0.0002 -1.1185 0.0000 0.0000
# 5 0.0000 0.0000 0.0000 0.0000 31.0599 0.0000
# 6 0.0000 0.0000 0.0000 0.0000 0.0000 26.3958
#
#
#
# Elastic Compliance Matrix: (Units=1/GPa)
#
#
# Indices 1 2 3 4 5 6 
#
# 1 0.018948 -0.001719 -0.000168 0.000000 0.000000 0.000000
# 2 -0.001719 0.010479 -0.003202 -0.000003 0.000000 0.000000
# 3 -0.000168 -0.003202 0.008450 -0.000001 0.000000 0.000000
# 4 0.000000 -0.000003 -0.000001 -0.894054 0.000001 0.000000
# 5 0.000000 0.000000 0.000000 0.000001 0.032196 0.000000
# 6 0.000000 0.000000 0.000000 0.000000 0.000000 0.037885
#
#
# Mechanical properties :
#
#
# Convention : Reuss Voigt Hill
#
# Bulk Modulus (GPa) = 36.10207 45.81481 40.95844
# Shear Modulus (GPa) = -6.52159 27.31959 10.39900
#
# Velocity S-wave (km/s) = -1.68069 3.43993 2.12230
# Velocity P-wave (km/s) = 3.44540 5.96837 4.87300
#
# Compressibility (1/GPa) = 0.02769924
#
# Stress axis : x y z
#
# Youngs Moduli (GPa) = 52.77498 95.43119 118.33827
#
# Poissons Ratio (x) = 0.16408 0.01990
# Poissons Ratio (y) = 0.09074 0.37887
# Poissons Ratio (z) = 0.00887 0.30553
#
# Static dielectric constant tensor:
#      x y z
#    x 1.918140 0.000000 0.000000 
#    y 0.000000 1.980090 0.000000 
#    z 0.000000 0.000000 1.904480 
# 
# From -- ./inp_files/11301.got.cif
#   From: 2010.05.17/outbox.cif.g08.bks.cpg/sg73_6_cif.got.tgz:11301.got - 2010.06.03 17:35:07.
