data_PCOD9533538
_publ_section_title
;
Structure prediction by ZEFSAII (Michael W. Deem and Ramdas Pophale) SiO2 
 PCOD9533538
Probable space group: I B C A 
;
_chemical_formula_sum "Si O2"
_cell_formula_units_Z 64
_cell_length_a 9.828293
_cell_length_b 10.597951
_cell_length_c 28.096922
_cell_angle_alpha 90.000000
_cell_angle_beta 90.000000
_cell_angle_gamma 90.000000
_cell_volume 2926.568867
_symmetry_space_group_name_H-M "I B C A "
_symmetry_group_IT_number 73
_symmetry_cell_setting 'orthorhombic'
loop_
_space_group_symop_operation_xyz
x,y,z
-x,1/2-y,z
x,-y,1/2-z
1/2-x,y,-z
-x,-y,-z
x,1/2+y,-z
-x,y,1/2+z
1/2+x,-y,z
1/2+x,1/2+y,1/2+z
1/2-x,-y,1/2+z
1/2+x,1/2-y,-z
-x,1/2+y,1/2-z
1/2-x,1/2-y,1/2-z
1/2+x,y,1/2-z
1/2-x,1/2+y,z
x,1/2-y,1/2+z
loop_
_atom_site_type_symbol
_atom_site_label
_atom_site_fract_x
_atom_site_fract_y
_atom_site_fract_z
Si Si1 0.837325 0.745271 0.201848
Si Si2 0.985343 0.543603 0.420603
Si Si3 0.752021 0.987534 0.143935
Si Si4 0.392231 0.834558 0.986594
O O1 0.750000 0.750000 0.250000
O O2 0.805678 0.880225 0.178594
O O3 0.793704 0.621190 0.169255
O O4 0.000000 0.750000 0.210169
O O5 0.879920 0.579568 0.379965
O O6 0.885647 0.450484 0.451109
O O7 0.123608 0.504777 0.393535
O O8 0.039860 0.626697 0.463918
O O9 0.500000 0.750000 0.959680
O O10 0.250000 0.774171 0.000000
#
# Coordination Sequence:
#
# PCOD9533538 Si02
#       4
#    16  16  16  16
#     4  12  30  52  78 114 150 189 243 312 380 447
#     4  11  26  44  68 107 145 199 248 298 364 429
#     4  12  27  49  81 108 150 195 251 303 364 452
#     4  11  26  42  66 100 152 193 246 305 360 427
#
# _framework density 21.868611999999999
#
# number of rings (size 3 to 8) (size 9 to 14) (size 15 to 20)
#    0.000    0.500    5.000    0.750   14.000    2.000 
#    0.000    0.000    0.000    0.000    0.000    0.000 
#    0.000    0.000    0.000    0.000    0.000    0.000 
#
# Total GULP energy -178170.920455 kJ/mol
# GULP energy per Si atom -5567.841264 kJ/mol
# Density = 2.181884 g / cm^3
# Si number density = 21.868612 Si / 1000 Ang^3
#
#
#
# Elastic Constant Matrix: (Units=GPa)
#
#
# Indices 1 2 3 4 5 6 
#
# 1 180.3382 15.7974 32.7301 0.0000 0.0000 0.0000
# 2 15.7974 61.3611 22.3484 0.0000 0.0000 0.0000
# 3 32.7301 22.3484 80.2784 0.0000 0.0000 0.0000
# 4 0.0000 0.0000 0.0000 15.8999 0.0000 0.0000
# 5 0.0000 0.0000 0.0000 0.0000 91.2768 0.0000
# 6 0.0000 0.0000 0.0000 0.0000 0.0000 30.2689
#
#
#
# Elastic Compliance Matrix: (Units=1/GPa)
#
#
# Indices 1 2 3 4 5 6 
#
# 1 0.006017 -0.000730 -0.002250 0.000000 0.000000 0.000000
# 2 -0.000730 0.018224 -0.004776 0.000000 0.000000 0.000000
# 3 -0.002250 -0.004776 0.014704 0.000000 0.000000 0.000000
# 4 0.000000 0.000000 0.000000 0.062893 0.000000 0.000000
# 5 0.000000 0.000000 0.000000 0.000000 0.010956 0.000000
# 6 0.000000 0.000000 0.000000 0.000000 0.000000 0.033037
#
#
# Mechanical properties :
#
#
# Convention : Reuss Voigt Hill
#
# Bulk Modulus (GPa) = 42.67344 51.52551 47.09947
# Shear Modulus (GPa) = 29.55878 44.22924 36.89401
#
# Velocity S-wave (km/s) = 3.68047 4.50210 4.11186
# Velocity P-wave (km/s) = 6.13328 7.11602 6.64285
#
# Compressibility (1/GPa) = 0.02343378
#
# Stress axis : x y z
#
# Youngs Moduli (GPa) = 166.18319 54.87190 68.01034
#
# Poissons Ratio (x) = 0.04004 0.15304
# Poissons Ratio (y) = 0.12125 0.32481
# Poissons Ratio (z) = 0.37395 0.26206
#
# Static dielectric constant tensor:
#      x y z
#    x 1.608270 0.000000 0.000000 
#    y 0.000000 1.881420 0.000000 
#    z 0.000000 0.000000 1.815990 
# 
# From -- ./inp_files/3991.got.cif
#   From: 2010.05.17/outbox.cif.g08.bks.cpg/sg73_2_cif.got.tgz:3991.got - 2010.06.03 17:35:07.
