data_PCOD9533808
_publ_section_title
;
Structure prediction by ZEFSAII (Michael W. Deem and Ramdas Pophale) SiO2 
 PCOD9533808
Probable space group: I M M A
;
_chemical_formula_sum "Si O2"
_cell_formula_units_Z 80
_cell_length_a 18.411249
_cell_length_b 11.339755
_cell_length_c 24.201766
_cell_angle_alpha 90.000000
_cell_angle_beta 90.000000
_cell_angle_gamma 90.000000
_cell_volume 5052.821784
_symmetry_space_group_name_H-M "I M M A"
_symmetry_group_IT_number 74
_symmetry_cell_setting 'orthorhombic'
loop_
_space_group_symop_operation_xyz
x,y,z
-x,1/2-y,z
x,-y,-z
-x,1/2+y,-z
-x,-y,-z
x,1/2+y,-z
-x,y,z
x,1/2-y,z
1/2+x,1/2+y,1/2+z
1/2-x,-y,1/2+z
1/2+x,1/2-y,1/2-z
1/2-x,y,1/2-z
1/2-x,1/2-y,1/2-z
1/2+x,y,1/2-z
1/2-x,1/2+y,1/2+z
1/2+x,-y,1/2+z
loop_
_atom_site_type_symbol
_atom_site_label
_atom_site_fract_x
_atom_site_fract_y
_atom_site_fract_z
Si Si1 0.586829 0.250000 0.162197
Si Si2 0.912509 0.617079 0.467105
Si Si3 0.859556 0.494711 0.642857
Si Si4 0.581944 0.887272 0.256161
Si Si5 0.707359 0.502219 0.690994
Si Si6 0.329990 0.250000 0.277462
O O1 0.500000 0.250000 0.159402
O O2 0.617819 0.368916 0.134691
O O3 0.614494 0.250000 0.226144
O O4 0.886412 0.500000 0.500000
O O5 0.887841 0.750000 0.483495
O O6 0.890313 0.589336 0.404238
O O7 0.000000 0.617996 0.471567
O O8 0.894953 0.458875 0.701587
O O9 0.772325 0.485222 0.648114
O O10 0.500000 0.919913 0.272262
O O11 0.583570 0.750000 0.241616
O O12 0.641798 0.911435 0.303022
O O13 0.750000 0.496682 0.750000
O O14 0.669713 0.630254 0.688108
O O15 0.250000 0.250000 0.250000
#
# Coordination Sequence:
#
# PCOD9533808 Si02
#       6
#     8  16  16  16  16   8
#     4  12  20  26  46  72  92 126 166 194 227 274
#     4  10  22  38  52  68  91 119 155 203 248 285
#     4  11  20  31  47  67  90 123 159 195 231 282
#     4  10  19  29  42  64  93 123 155 190 227 275
#     4   9  17  28  44  62  90 121 152 188 227 269
#     4  10  14  30  40  60  94 118 148 192 224 260
#
# _framework density 15.832738000000001
#
# number of rings (size 3 to 8) (size 9 to 14) (size 15 to 20)
#    0.000    1.800    6.000    2.400    1.400    6.000 
#    0.000    0.000    0.000    0.000    0.000    0.000 
#    0.000    0.800    0.000    0.400    0.000    0.200 
#
# Total GULP energy -222761.026819 kJ/mol
# GULP energy per Si atom -5569.025670 kJ/mol
# Density = 1.579670 g / cm^3
# Si number density = 15.832738 Si / 1000 Ang^3
#
#
#
# Elastic Constant Matrix: (Units=GPa)
#
#
# Indices 1 2 3 4 5 6 
#
# 1 77.0716 29.7707 10.9396 0.0000 0.0000 0.0000
# 2 29.7707 103.8735 12.2008 0.0000 0.0000 0.0000
# 3 10.9396 12.2008 9.8639 0.0000 0.0000 0.0000
# 4 0.0000 0.0000 0.0000 11.3792 0.0000 0.0000
# 5 0.0000 0.0000 0.0000 0.0000 13.0471 0.0000
# 6 0.0000 0.0000 0.0000 0.0000 0.0000 2.7331
#
#
#
# Elastic Compliance Matrix: (Units=1/GPa)
#
#
# Indices 1 2 3 4 5 6 
#
# 1 0.016137 -0.002952 -0.014246 0.000000 0.000000 0.000000
# 2 -0.002952 0.011803 -0.011326 0.000000 0.000000 0.000000
# 3 -0.014246 -0.011326 0.131189 0.000000 0.000000 0.000000
# 4 0.000000 0.000000 0.000000 0.087880 0.000000 0.000000
# 5 0.000000 0.000000 0.000000 0.000000 0.076646 0.000000
# 6 0.000000 0.000000 0.000000 0.000000 0.000000 0.365888
#
#
# Mechanical properties :
#
#
# Convention : Reuss Voigt Hill
#
# Bulk Modulus (GPa) = 9.79608 32.95902 21.37755
# Shear Modulus (GPa) = 6.40518 14.62506 10.51512
#
# Velocity S-wave (km/s) = 2.01353 3.04258 2.57988
# Velocity P-wave (km/s) = 3.40682 5.76240 4.73348
#
# Compressibility (1/GPa) = 0.10208160
#
# Stress axis : x y z
#
# Youngs Moduli (GPa) = 61.96868 84.72109 7.62260
#
# Poissons Ratio (x) = 0.25007 0.10859
# Poissons Ratio (y) = 0.18291 0.08634
# Poissons Ratio (z) = 0.88280 0.95957
#
# Static dielectric constant tensor:
#      x y z
#    x 1.539270 0.000000 0.000000 
#    y 0.000000 1.609590 0.000000 
#    z 0.000000 0.000000 1.527550 
# 
# From -- ./inp_files/60711.got.cif
#   From: 2010.05.17/outbox.cif.g08.bks.cpg/sg74_31_cif.got.tgz:60711.got - 2010.06.03 17:57:02.
