data_PCOD9533953
_publ_section_title
;
Structure prediction by ZEFSAII (Michael W. Deem and Ramdas Pophale) SiO2 
 PCOD9533953
Probable space group: I M M A
;
_chemical_formula_sum "Si O2"
_cell_formula_units_Z 88
_cell_length_a 8.648389
_cell_length_b 26.376124
_cell_length_c 28.672699
_cell_angle_alpha 90.000000
_cell_angle_beta 90.000000
_cell_angle_gamma 90.000000
_cell_volume 6540.557487
_symmetry_space_group_name_H-M "I M M A"
_symmetry_group_IT_number 74
_symmetry_cell_setting 'orthorhombic'
loop_
_space_group_symop_operation_xyz
x,y,z
-x,1/2-y,z
x,-y,-z
-x,1/2+y,-z
-x,-y,-z
x,1/2+y,-z
-x,y,z
x,1/2-y,z
1/2+x,1/2+y,1/2+z
1/2-x,-y,1/2+z
1/2+x,1/2-y,1/2-z
1/2-x,y,1/2-z
1/2-x,1/2-y,1/2-z
1/2+x,y,1/2-z
1/2-x,1/2+y,1/2+z
1/2+x,-y,1/2+z
loop_
_atom_site_type_symbol
_atom_site_label
_atom_site_fract_x
_atom_site_fract_y
_atom_site_fract_z
Si Si1 0.684729 0.149376 0.350418
Si Si2 0.685277 0.750000 0.802428
Si Si3 0.682273 0.443983 0.523224
Si Si4 0.316989 0.398645 0.063408
Si Si5 0.185279 0.547282 0.698167
Si Si6 0.186542 0.999351 0.111505
O O1 0.500000 0.148392 0.346741
O O2 0.752810 0.200085 0.328317
O O3 0.735346 0.143193 0.404422
O O4 0.752432 0.100781 0.322534
O O5 0.500000 0.750000 0.801571
O O6 0.750000 0.750000 0.750000
O O7 0.702453 0.500000 0.500000
O O8 0.500000 0.432595 0.520667
O O9 0.771076 0.404364 0.490710
O O10 0.726895 0.452650 0.577245
O O11 0.500000 0.394636 0.068551
O O12 0.257241 0.450986 0.086631
O O13 0.250000 0.541059 0.750000
O O14 0.247782 0.503513 0.663432
O O15 0.000000 0.548128 0.697861
O O16 0.000000 0.003894 0.111893
#
# Coordination Sequence:
#
# PCOD9533953 Si02
#       6
#    16   8  16  16  16  16
#     4  11  21  34  47  59  74  94 121 153 193 234
#     4  12  24  38  50  62  76  92 120 156 197 238
#     4   8  14  24  37  53  74  97 117 141 176 217
#     4  10  17  25  39  58  76  94 116 145 181 220
#     4  11  20  30  42  56  74  97 125 157 192 226
#     4   9  16  26  38  53  73  96 121 148 180 217
#
# _framework density 13.454510000000001
#
# number of rings (size 3 to 8) (size 9 to 14) (size 15 to 20)
#    0.000    2.000    0.000   10.091    0.000    4.000 
#    0.000    0.000    0.000    0.000    0.000    0.000 
#    0.000    0.000    0.000    0.000    0.000    0.000 
#
# Total GULP energy -245142.749962 kJ/mol
# GULP energy per Si atom -5571.426135 kJ/mol
# Density = 1.342389 g / cm^3
# Si number density = 13.454510 Si / 1000 Ang^3
#
#
#
# Elastic Constant Matrix: (Units=GPa)
#
#
# Indices 1 2 3 4 5 6 
#
# 1 117.8291 24.4469 50.3995 0.0000 0.0000 0.0000
# 2 24.4469 28.1915 40.1489 0.0000 0.0000 0.0000
# 3 50.3995 40.1489 111.0728 0.0000 0.0000 0.0000
# 4 0.0000 0.0000 0.0000 13.9936 0.0000 0.0000
# 5 0.0000 0.0000 0.0000 0.0000 24.4940 0.0000
# 6 0.0000 0.0000 0.0000 0.0000 0.0000 13.0520
#
#
#
# Elastic Compliance Matrix: (Units=1/GPa)
#
#
# Indices 1 2 3 4 5 6 
#
# 1 0.010855 -0.004943 -0.003139 0.000000 0.000000 0.000000
# 2 -0.004943 0.075355 -0.024995 0.000000 0.000000 0.000000
# 3 -0.003139 -0.024995 0.019462 0.000000 0.000000 0.000000
# 4 0.000000 0.000000 0.000000 0.071461 0.000000 0.000000
# 5 0.000000 0.000000 0.000000 0.000000 0.040826 0.000000
# 6 0.000000 0.000000 0.000000 0.000000 0.000000 0.076617
#
#
# Mechanical properties :
#
#
# Convention : Reuss Voigt Hill
#
# Bulk Modulus (GPa) = 25.30480 54.12044 39.71262
# Shear Modulus (GPa) = 13.37241 19.78112 16.57677
#
# Velocity S-wave (km/s) = 3.15603 3.83851 3.51388
# Velocity P-wave (km/s) = 5.66827 7.74323 6.78553
#
# Compressibility (1/GPa) = 0.03951819
#
# Stress axis : x y z
#
# Youngs Moduli (GPa) = 92.12350 13.27044 51.38158
#
# Poissons Ratio (x) = 0.06560 0.16127
# Poissons Ratio (y) = 0.45538 1.28430
# Poissons Ratio (z) = 0.28915 0.33170
#
# Static dielectric constant tensor:
#      x y z
#    x 1.445730 0.000000 0.000000 
#    y 0.000000 1.422040 0.000000 
#    z 0.000000 0.000000 1.528950 
# 
# From -- ./inp_files/70727.got.cif
#   From: 2010.05.17/outbox.cif.g08.bks.cpg/sg74_36_cif.got.tgz:70727.got - 2010.06.03 17:57:02.
