data_PCOD9533737
_publ_section_title
;
Structure prediction by ZEFSAII (Michael W. Deem and Ramdas Pophale) SiO2 
 PCOD9533737
Probable space group: I B C A 
;
_chemical_formula_sum "Si O2"
_cell_formula_units_Z 56
_cell_length_a 24.000000
_cell_length_b 12.000000
_cell_length_c 21.000000
_cell_angle_alpha 90.000000
_cell_angle_beta 90.000000
_cell_angle_gamma 90.000000
_cell_volume 6048.000000
_symmetry_space_group_name_H-M "I B C A "
_symmetry_group_IT_number 73
_symmetry_cell_setting 'orthorhombic'
loop_
_space_group_symop_operation_xyz
x,y,z
-x,1/2-y,z
x,-y,1/2-z
1/2-x,y,-z
-x,-y,-z
x,1/2+y,-z
-x,y,1/2+z
1/2+x,-y,z
1/2+x,1/2+y,1/2+z
1/2-x,-y,1/2+z
1/2+x,1/2-y,-z
-x,1/2+y,1/2-z
1/2-x,1/2-y,1/2-z
1/2+x,y,1/2-z
1/2-x,1/2+y,z
x,1/2-y,1/2+z
loop_
_atom_site_type_symbol
_atom_site_label
_atom_site_fract_x
_atom_site_fract_y
_atom_site_fract_z
Si Si1 0.700621 0.456055 0.404319
Si Si2 0.013072 0.118764 0.074439
Si Si3 0.328470 0.238811 0.313224
Si Si4 0.829361 0.610655 0.099738
Si Si5 0.203761 0.671477 0.178916
Si Si6 0.903079 0.479831 0.507837
Si Si7 0.906376 0.552250 0.318661
O O1 0.675373 0.343969 0.373087
O O2 0.766348 0.430110 0.421185
O O3 0.701833 0.550977 0.351422
O O4 0.654334 0.502311 0.453875
O O5 0.037594 0.065189 0.139351
O O6 0.000000 0.250000 0.079423
O O7 0.954281 0.068199 0.049619
O O8 0.064955 0.083170 0.027235
O O9 0.269206 0.302517 0.311747
O O10 0.328049 0.175459 0.245920
O O11 0.378528 0.325693 0.315926
O O12 0.819963 0.730113 0.133239
O O13 0.858144 0.525396 0.149555
O O14 0.876259 0.606180 0.044109
O O15 0.918065 0.500000 0.250000
#
# Coordination Sequence:
#
# PCOD9533737 Si02
#       7
#    16  16  16  16  16  16  16
#     4  11  21  36  58  96 128 159 198 247 309 373
#     4  10  23  43  64  84 113 165 211 259 306 355
#     4  10  20  34  57  90 127 161 191 252 301 369
#     4  10  21  37  60  91 124 158 200 242 308 375
#     4  10  20  33  57  89 128 161 194 239 308 374
#     4  10  23  41  60  85 122 159 207 255 302 364
#     4  11  20  39  66  87 119 159 209 254 304 374
#
# _framework density 9.2592590000000001
#
# number of rings (size 3 to 8) (size 9 to 14) (size 15 to 20)
#    0.000    1.714    2.857    1.714    2.000    0.000 
#    0.000    4.286    0.000    0.000    0.000    0.000 
#    0.000    0.000    0.000    0.000    0.000    0.000 
#
# Total GULP energy -311916.112225 kJ/mol
# GULP energy per Si atom -5569.930575 kJ/mol
# Density = 0.923818 g / cm^3
# Si number density = 9.259259 Si / 1000 Ang^3
#
#
#
# Elastic Constant Matrix: (Units=GPa)
#
#
# Indices 1 2 3 4 5 6 
#
# 1 121.4243 23.0301 52.4704 0.0000 0.0000 0.0000
# 2 23.0301 59.1663 16.0395 0.0000 0.0000 0.0000
# 3 52.4704 16.0395 77.4071 0.0000 0.0000 0.0000
# 4 0.0000 0.0000 0.0000 17.7689 0.0000 0.0000
# 5 0.0000 0.0000 0.0000 0.0000 20.8844 0.0000
# 6 0.0000 0.0000 0.0000 0.0000 0.0000 30.4304
#
#
#
# Elastic Compliance Matrix: (Units=1/GPa)
#
#
# Indices 1 2 3 4 5 6 
#
# 1 0.012018 -0.002616 -0.007604 0.000000 0.000000 0.000000
# 2 -0.002616 0.018477 -0.002055 0.000000 0.000000 0.000000
# 3 -0.007604 -0.002055 0.018499 0.000000 0.000000 0.000000
# 4 0.000000 0.000000 0.000000 0.056278 0.000000 0.000000
# 5 0.000000 0.000000 0.000000 0.000000 0.047883 0.000000
# 6 0.000000 0.000000 0.000000 0.000000 0.000000 0.032862
#
#
# Mechanical properties :
#
#
# Convention : Reuss Voigt Hill
#
# Bulk Modulus (GPa) = 40.91218 49.00864 44.96041
# Shear Modulus (GPa) = 22.86079 24.91391 23.88735
#
# Velocity S-wave (km/s) = 3.51733 3.67188 3.59544
# Velocity P-wave (km/s) = 6.21579 6.67076 6.44729
#
# Compressibility (1/GPa) = 0.02444260
#
# Stress axis : x y z
#
# Youngs Moduli (GPa) = 83.21033 54.12120 54.05701
#
# Poissons Ratio (x) = 0.14160 0.41105
# Poissons Ratio (y) = 0.21771 0.11109
# Poissons Ratio (z) = 0.63274 0.11122
#
# Static dielectric constant tensor:
#      x y z
#    x 1.605210 0.000000 0.000000 
#    y 0.000000 1.626180 0.000000 
#    z 0.000000 0.000000 1.717530 
# 
# From -- ./inp_files/13779.got.cif
#   From: 2010.05.17/outbox.ucp.g08.bks.cvg/sg73_7_cif.got.tgz:13779.got - 2010.06.11 16:36:03.
