data_PCOD9533425
_publ_section_title
;
Structure prediction by ZEFSAII (Michael W. Deem and Ramdas Pophale) SiO2 
 PCOD9533425
Probable space group: I B C A 
;
_chemical_formula_sum "Si O2"
_cell_formula_units_Z 120
_cell_length_a 19.887485
_cell_length_b 9.210992
_cell_length_c 25.252960
_cell_angle_alpha 90.000000
_cell_angle_beta 90.000000
_cell_angle_gamma 90.000000
_cell_volume 4625.924720
_symmetry_space_group_name_H-M "I B C A "
_symmetry_group_IT_number 73
_symmetry_cell_setting 'orthorhombic'
loop_
_space_group_symop_operation_xyz
x,y,z
-x,1/2-y,z
x,-y,1/2-z
1/2-x,y,-z
-x,-y,-z
x,1/2+y,-z
-x,y,1/2+z
1/2+x,-y,z
1/2+x,1/2+y,1/2+z
1/2-x,-y,1/2+z
1/2+x,1/2-y,-z
-x,1/2+y,1/2-z
1/2-x,1/2-y,1/2-z
1/2+x,y,1/2-z
1/2-x,1/2+y,z
x,1/2-y,1/2+z
loop_
_atom_site_type_symbol
_atom_site_label
_atom_site_fract_x
_atom_site_fract_y
_atom_site_fract_z
Si Si1 0.175103 0.683330 0.585341
Si Si2 0.137981 0.083614 0.830278
Si Si3 0.501537 0.425969 0.835739
Si Si4 0.102592 0.886625 0.980004
Si Si5 0.760738 0.500000 0.750000
Si Si6 0.350794 0.022542 0.827920
Si Si7 0.176704 0.707216 0.384159
Si Si8 0.016293 0.099536 0.938423
O O1 0.135948 0.782360 0.629235
O O2 0.162241 0.527946 0.612302
O O3 0.251502 0.733906 0.590002
O O4 0.155346 0.655342 0.524924
O O5 0.065087 0.013499 0.816728
O O6 0.187226 0.105570 0.780385
O O7 0.174321 0.956282 0.863115
O O8 0.409460 0.552605 0.958802
O O9 0.571339 0.488834 0.812767
O O10 0.502962 0.470959 0.898202
O O11 0.119152 0.790138 0.929069
O O12 0.000000 0.750000 0.829112
O O13 0.966662 0.623228 0.012173
O O14 0.705670 0.553937 0.792710
O O15 0.335801 0.193042 0.833548
O O16 0.000000 0.250000 0.908615
#
# Coordination Sequence:
#
# PCOD9533425 Si02
#       8
#    16  16  16  16   8  16  16  16
#     4  12  25  47  71 117 154 207 260 323 385 477
#     4  12  27  48  81 109 153 198 264 331 401 483
#     4  12  25  50  76 114 160 197 262 336 392 475
#     4  11  25  38  72 111 164 208 255 300 385 466
#     4  12  28  56  84 108 146 204 264 336 426 474
#     4  12  27  46  82 107 150 198 265 327 400 478
#     4  12  24  47  71 114 152 209 258 320 388 474
#     4  11  24  43  72 110 159 220 256 302 383 469
#
# _framework density 25.940760000000001
#
# number of rings (size 3 to 8) (size 9 to 14) (size 15 to 20)
#    0.000    0.267    6.667    1.200    1.867    4.800 
#    0.000    2.667    0.000    0.000    0.000    0.000 
#    0.000    0.000    0.000    0.000    0.000    0.000 
#
# Total GULP energy -334837.516092 kJ/mol
# GULP energy per Si atom -5580.625268 kJ/mol
# Density = 2.588172 g / cm^3
# Si number density = 25.940760 Si / 1000 Ang^3
#
#
#
# Elastic Constant Matrix: (Units=GPa)
#
#
# Indices 1 2 3 4 5 6 
#
# 1 225.7129 37.8536 51.7479 0.0000 0.0000 0.0000
# 2 37.8536 78.9043 12.4268 0.0000 0.0000 0.0000
# 3 51.7479 12.4268 109.0544 0.0000 0.0000 0.0000
# 4 0.0000 0.0000 0.0000 12.2070 0.0000 0.0000
# 5 0.0000 0.0000 0.0000 0.0000 46.6095 0.0000
# 6 0.0000 0.0000 0.0000 0.0000 0.0000 26.6099
#
#
#
# Elastic Compliance Matrix: (Units=1/GPa)
#
#
# Indices 1 2 3 4 5 6 
#
# 1 0.005320 -0.002194 -0.002274 0.000000 0.000000 0.000000
# 2 -0.002194 0.013810 -0.000533 0.000000 0.000000 0.000000
# 3 -0.002274 -0.000533 0.010310 0.000000 0.000000 0.000000
# 4 0.000000 0.000000 0.000000 0.081920 0.000000 0.000000
# 5 0.000000 0.000000 0.000000 0.000000 0.021455 0.000000
# 6 0.000000 0.000000 0.000000 0.000000 0.000000 0.037580
#
#
# Mechanical properties :
#
#
# Convention : Reuss Voigt Hill
#
# Bulk Modulus (GPa) = 51.44646 68.63647 60.04147
# Shear Modulus (GPa) = 26.75586 37.86153 32.30869
#
# Velocity S-wave (km/s) = 3.21506 3.82453 3.53296
# Velocity P-wave (km/s) = 5.80151 6.78374 6.31176
#
# Compressibility (1/GPa) = 0.01943768
#
# Stress axis : x y z
#
# Youngs Moduli (GPa) = 187.97846 72.41145 96.99678
#
# Poissons Ratio (x) = 0.15886 0.22060
# Poissons Ratio (y) = 0.41241 0.05166
# Poissons Ratio (z) = 0.42752 0.03857
#
# Static dielectric constant tensor:
#      x y z
#    x 2.084040 0.000000 0.000000 
#    y 0.000000 2.260720 0.000000 
#    z 0.000000 0.000000 2.103550 
# 
# From -- ./inp_files/34581.got.cif
#   From: 2010.05.17/outbox.cif.g08.bks.cpg/sg73_18_cif.got.tgz:34581.got - 2010.06.03 17:35:07.
