data_PCOD9533057
_publ_section_title
;
Structure prediction by ZEFSAII (Michael W. Deem and Ramdas Pophale) SiO2 
 PCOD9533057
Probable space group: I B C A 
;
_chemical_formula_sum "Si O2"
_cell_formula_units_Z 64
_cell_length_a 13.987496
_cell_length_b 18.160964
_cell_length_c 10.116049
_cell_angle_alpha 90.000000
_cell_angle_beta 90.000000
_cell_angle_gamma 90.000000
_cell_volume 2569.743624
_symmetry_space_group_name_H-M "I B C A "
_symmetry_group_IT_number 73
_symmetry_cell_setting 'orthorhombic'
loop_
_space_group_symop_operation_xyz
x,y,z
-x,1/2-y,z
x,-y,1/2-z
1/2-x,y,-z
-x,-y,-z
x,1/2+y,-z
-x,y,1/2+z
1/2+x,-y,z
1/2+x,1/2+y,1/2+z
1/2-x,-y,1/2+z
1/2+x,1/2-y,-z
-x,1/2+y,1/2-z
1/2-x,1/2-y,1/2-z
1/2+x,y,1/2-z
1/2-x,1/2+y,z
x,1/2-y,1/2+z
loop_
_atom_site_type_symbol
_atom_site_label
_atom_site_fract_x
_atom_site_fract_y
_atom_site_fract_z
Si Si1 0.500000 0.750000 0.954548
Si Si2 0.661308 0.335098 0.902272
Si Si3 0.764121 0.881974 0.638631
Si Si4 0.379015 0.000000 0.250000
Si Si5 0.958387 0.900326 0.694928
O O1 0.519633 0.680137 0.862056
O O2 0.405833 0.729351 0.040201
O O3 0.784085 0.171685 0.738738
O O4 0.422296 0.108203 0.848024
O O5 0.750000 0.355294 0.000000
O O6 0.750000 0.843207 0.500000
O O7 0.862609 0.927531 0.625041
O O8 0.684511 0.940800 0.674399
O O9 0.451731 0.950164 0.332195
#
# Coordination Sequence:
#
# PCOD9533057 Si02
#       5
#     8  16  16   8  16
#     4  12  24  50  78 120 160 214 282 330 424 486
#     4  10  25  50  77 112 162 208 266 338 405 486
#     4  10  26  47  74 115 158 208 269 338 410 483
#     4  12  24  52  78 114 166 212 274 340 416 494
#     4  10  27  46  79 117 151 217 267 340 409 492
#
# _framework density 24.905206
#
# number of rings (size 3 to 8) (size 9 to 14) (size 15 to 20)
#    1.500    0.000    0.000    3.000    3.500    6.000 
#    4.500    0.000    0.000    1.500    0.000    0.000 
#    0.000    0.000    0.000    0.000    0.000    0.000 
#
# Total GULP energy -178319.130913 kJ/mol
# GULP energy per Si atom -5572.472841 kJ/mol
# Density = 2.484852 g / cm^3
# Si number density = 24.905206 Si / 1000 Ang^3
#
#
#
# Elastic Constant Matrix: (Units=GPa)
#
#
# Indices 1 2 3 4 5 6 
#
# 1 184.7536 48.5034 62.2824 0.0000 0.0000 0.0000
# 2 48.5034 71.3293 31.3877 0.0000 0.0000 0.0000
# 3 62.2824 31.3877 162.6486 0.0000 0.0000 0.0000
# 4 0.0000 0.0000 0.0000 -20.9775 0.0000 0.0000
# 5 0.0000 0.0000 0.0000 0.0000 -3.1757 0.0000
# 6 0.0000 0.0000 0.0000 0.0000 0.0000 33.6905
#
#
#
# Elastic Compliance Matrix: (Units=1/GPa)
#
#
# Indices 1 2 3 4 5 6 
#
# 1 0.007117 -0.003978 -0.001958 0.000000 0.000000 0.000000
# 2 -0.003978 0.017544 -0.001862 0.000000 0.000000 0.000000
# 3 -0.001958 -0.001862 0.007257 0.000000 0.000000 0.000000
# 4 0.000000 0.000000 0.000000 -0.047670 0.000000 0.000000
# 5 0.000000 0.000000 0.000000 0.000000 -0.314891 0.000000
# 6 0.000000 0.000000 0.000000 0.000000 0.000000 0.029682
#
#
# Mechanical properties :
#
#
# Convention : Reuss Voigt Hill
#
# Bulk Modulus (GPa) = 61.26598 78.11983 69.69291
# Shear Modulus (GPa) = -17.86197 20.34467 1.24135
#
# Velocity S-wave (km/s) = -2.68096 2.86122 0.70676
# Velocity P-wave (km/s) = 3.88197 6.50772 5.35817
#
# Compressibility (1/GPa) = 0.01632227
#
# Stress axis : x y z
#
# Youngs Moduli (GPa) = 140.51098 56.99957 137.79386
#
# Poissons Ratio (x) = 0.22675 0.26974
# Poissons Ratio (y) = 0.55895 0.25662
# Poissons Ratio (z) = 0.27506 0.10615
#
# Static dielectric constant tensor:
#      x y z
#    x 2.065030 0.000000 0.000000 
#    y 0.000000 1.943970 0.000000 
#    z 0.000000 0.000000 2.024760 
# 
# From -- ./inp_files/9591.got.cif
#   From: 2010.05.17/outbox.cif.g08.bks.cpg/sg73_5_cif.got.tgz:9591.got - 2010.06.03 17:35:07.
