data_PCOD9533598
_publ_section_title
;
Structure prediction by ZEFSAII (Michael W. Deem and Ramdas Pophale) SiO2 
 PCOD9533598
Probable space group: I B C A 
;
_chemical_formula_sum "Si O2"
_cell_formula_units_Z 64
_cell_length_a 8.226514
_cell_length_b 17.234896
_cell_length_c 19.316105
_cell_angle_alpha 90.000000
_cell_angle_beta 90.000000
_cell_angle_gamma 90.000000
_cell_volume 2738.697502
_symmetry_space_group_name_H-M "I B C A "
_symmetry_group_IT_number 73
_symmetry_cell_setting 'orthorhombic'
loop_
_space_group_symop_operation_xyz
x,y,z
-x,1/2-y,z
x,-y,1/2-z
1/2-x,y,-z
-x,-y,-z
x,1/2+y,-z
-x,y,1/2+z
1/2+x,-y,z
1/2+x,1/2+y,1/2+z
1/2-x,-y,1/2+z
1/2+x,1/2-y,-z
-x,1/2+y,1/2-z
1/2-x,1/2-y,1/2-z
1/2+x,y,1/2-z
1/2-x,1/2+y,z
x,1/2-y,1/2+z
loop_
_atom_site_type_symbol
_atom_site_label
_atom_site_fract_x
_atom_site_fract_y
_atom_site_fract_z
Si Si1 0.943963 0.838048 0.287757
Si Si2 0.097389 0.123973 0.351175
Si Si3 0.093147 0.866998 0.528311
Si Si4 0.874257 0.054344 0.605913
O O1 0.763623 0.846388 0.317542
O O2 0.000000 0.750000 0.295149
O O3 0.962528 0.862375 0.207905
O O4 0.061444 0.893766 0.331660
O O5 0.044605 0.165322 0.422492
O O6 0.120412 0.034111 0.371416
O O7 0.250000 0.818301 0.500000
O O8 0.027985 0.915022 0.462413
O O9 0.193403 0.925262 0.579077
#
# Coordination Sequence:
#
# PCOD9533598 Si02
#       4
#    16  16  16  16
#     4  12  27  42  64 102 146 187 239 279 365 418
#     4  12  22  42  68  95 135 193 232 304 340 419
#     4   8  21  40  69 101 133 162 238 304 352 411
#     4   9  21  42  68  98 135 172 244 289 355 416
#
# _framework density 23.368773999999998
#
# number of rings (size 3 to 8) (size 9 to 14) (size 15 to 20)
#    1.500    0.000    0.000    5.250    0.000    3.000 
#    0.000    6.250    0.000    0.000    0.000    0.000 
#    0.000    0.000    0.000    0.000    0.000    0.000 
#
# Total GULP energy -178562.992662 kJ/mol
# GULP energy per Si atom -5580.093521 kJ/mol
# Density = 2.331559 g / cm^3
# Si number density = 23.368774 Si / 1000 Ang^3
#
#
#
# Elastic Constant Matrix: (Units=GPa)
#
#
# Indices 1 2 3 4 5 6 
#
# 1 74.9366 15.4382 48.1721 0.0000 0.0000 0.0000
# 2 15.4382 100.4337 46.9541 0.0000 0.0000 0.0000
# 3 48.1721 46.9541 148.8833 0.0000 0.0000 0.0000
# 4 0.0000 0.0000 0.0000 -166.8019 0.0000 0.0000
# 5 0.0000 0.0000 0.0000 0.0000 54.0763 0.0000
# 6 0.0000 0.0000 0.0000 0.0000 0.0000 11.1443
#
#
#
# Elastic Compliance Matrix: (Units=1/GPa)
#
#
# Indices 1 2 3 4 5 6 
#
# 1 0.016849 -0.000048 -0.005436 0.000000 0.000000 0.000000
# 2 -0.000048 0.011679 -0.003668 0.000000 0.000000 0.000000
# 3 -0.005436 -0.003668 0.009632 0.000000 0.000000 0.000000
# 4 0.000000 0.000000 0.000000 -0.005995 0.000000 0.000000
# 5 0.000000 0.000000 0.000000 0.000000 0.018492 0.000000
# 6 0.000000 0.000000 0.000000 0.000000 0.000000 0.089732
#
#
# Mechanical properties :
#
#
# Convention : Reuss Voigt Hill
#
# Bulk Modulus (GPa) = 50.36326 60.59804 55.48065
# Shear Modulus (GPa) = 30.24565 -6.07031 12.08767
#
# Velocity S-wave (km/s) = 3.60151 -1.61346 2.27680
# Velocity P-wave (km/s) = 6.23641 4.74515 5.54118
#
# Compressibility (1/GPa) = 0.01985574
#
# Stress axis : x y z
#
# Youngs Moduli (GPa) = 59.34952 85.62447 103.81700
#
# Poissons Ratio (x) = 0.00414 0.56440
# Poissons Ratio (y) = 0.00287 0.38076
# Poissons Ratio (z) = 0.32265 0.31404
#
# Static dielectric constant tensor:
#      x y z
#    x 1.969360 0.000000 0.000000 
#    y 0.000000 1.856820 0.000000 
#    z 0.000000 0.000000 1.903360 
# 
# From -- ./inp_files/24607.got.cif
#   From: 2010.05.17/outbox.cif.g08.bks.cpg/sg73_13_cif.got.tgz:24607.got - 2010.06.03 17:35:07.
