data_PCOD9533172
_publ_section_title
;
Structure prediction by ZEFSAII (Michael W. Deem and Ramdas Pophale) SiO2 
 PCOD9533172
Probable space group: I B C A 
;
_chemical_formula_sum "Si O2"
_cell_formula_units_Z 112
_cell_length_a 14.057311
_cell_length_b 25.499314
_cell_length_c 13.734969
_cell_angle_alpha 90.000000
_cell_angle_beta 90.000000
_cell_angle_gamma 90.000000
_cell_volume 4923.324185
_symmetry_space_group_name_H-M "I B C A "
_symmetry_group_IT_number 73
_symmetry_cell_setting 'orthorhombic'
loop_
_space_group_symop_operation_xyz
x,y,z
-x,1/2-y,z
x,-y,1/2-z
1/2-x,y,-z
-x,-y,-z
x,1/2+y,-z
-x,y,1/2+z
1/2+x,-y,z
1/2+x,1/2+y,1/2+z
1/2-x,-y,1/2+z
1/2+x,1/2-y,-z
-x,1/2+y,1/2-z
1/2-x,1/2-y,1/2-z
1/2+x,y,1/2-z
1/2-x,1/2+y,z
x,1/2-y,1/2+z
loop_
_atom_site_type_symbol
_atom_site_label
_atom_site_fract_x
_atom_site_fract_y
_atom_site_fract_z
Si Si1 0.355235 0.864917 0.673025
Si Si2 0.152129 0.157015 0.766501
Si Si3 0.962306 0.191165 0.082211
Si Si4 0.385854 0.542979 0.691391
Si Si5 0.562060 0.549946 0.984909
Si Si6 0.533165 0.149257 0.124858
Si Si7 0.694888 0.514720 0.643902
O O1 0.254920 0.833971 0.684980
O O2 0.441146 0.841545 0.609120
O O3 0.397451 0.861187 0.783642
O O4 0.330333 0.923823 0.633515
O O5 0.121443 0.181107 0.661781
O O6 0.147921 0.093542 0.751084
O O7 0.064582 0.173236 0.835534
O O8 0.000000 0.250000 0.089855
O O9 0.930068 0.179114 0.971153
O O10 0.447947 0.500000 0.750000
O O11 0.424162 0.569773 0.594013
O O12 0.304556 0.502996 0.652514
O O13 0.513016 0.591840 0.917338
O O14 0.653775 0.526310 0.932783
O O15 0.500000 0.500000 0.000000
O O16 0.655822 0.500000 0.750000
#
# Coordination Sequence:
#
# PCOD9533172 Si02
#       7
#    16  16  16  16  16  16  16
#     4  11  24  46  72 103 143 179 228 283 349 417
#     4  11  23  44  73 103 137 180 234 283 352 414
#     4  11  27  50  72 101 136 176 239 306 356 406
#     4  11  21  38  59  94 138 183 222 266 324 413
#     4  12  23  33  57  92 134 185 226 263 332 401
#     4  11  24  43  67  98 137 185 233 287 341 415
#     4  11  21  37  61  96 142 179 212 272 327 412
#
# _framework density 22.748857000000001
#
# number of rings (size 3 to 8) (size 9 to 14) (size 15 to 20)
#    0.000    0.857    5.714    2.143    2.000    4.571 
#    2.571    1.429    0.000    0.000    0.000    0.000 
#    0.000    0.000    0.000    0.000    0.000    0.000 
#
# Total GULP energy -312250.725695 kJ/mol
# GULP energy per Si atom -5575.905816 kJ/mol
# Density = 2.269708 g / cm^3
# Si number density = 22.748857 Si / 1000 Ang^3
#
#
#
# Elastic Constant Matrix: (Units=GPa)
#
#
# Indices 1 2 3 4 5 6 
#
# 1 74.8972 -5.1885 3.3521 0.0000 0.0000 0.0000
# 2 -5.1885 74.3621 -2.4963 0.0000 0.0000 -0.0001
# 3 3.3521 -2.4963 92.0411 0.0000 0.0000 -0.0001
# 4 0.0000 0.0000 0.0000 13.3811 0.0000 -0.0001
# 5 0.0000 0.0000 0.0000 0.0000 12.8200 0.0000
# 6 0.0000 -0.0001 -0.0001 -0.0001 0.0000 19.1681
#
#
#
# Elastic Compliance Matrix: (Units=1/GPa)
#
#
# Indices 1 2 3 4 5 6 
#
# 1 0.013436 0.000922 -0.000464 0.000000 0.000000 0.000000
# 2 0.000922 0.013523 0.000333 0.000000 0.000000 0.000000
# 3 -0.000464 0.000333 0.010891 0.000000 0.000000 0.000000
# 4 0.000000 0.000000 0.000000 0.074733 0.000000 0.000000
# 5 0.000000 0.000000 0.000000 0.000000 0.078003 0.000000
# 6 0.000000 0.000000 0.000000 0.000000 0.000000 0.052170
#
#
# Mechanical properties :
#
#
# Convention : Reuss Voigt Hill
#
# Bulk Modulus (GPa) = 25.36032 25.84834 25.60433
# Shear Modulus (GPa) = 19.66042 25.44937 22.55489
#
# Velocity S-wave (km/s) = 2.94298 3.34834 3.15218
# Velocity P-wave (km/s) = 4.76659 5.13183 4.95257
#
# Compressibility (1/GPa) = 0.03943168
#
# Stress axis : x y z
#
# Youngs Moduli (GPa) = 74.42532 73.94689 91.82182
#
# Poissons Ratio (x) = -0.06817 0.04264
# Poissons Ratio (y) = -0.06861 -0.03059
# Poissons Ratio (z) = 0.03456 -0.02464
#
# Static dielectric constant tensor:
#      x y z
#    x 1.820590 0.000000 0.000000 
#    y 0.000000 1.860950 0.000000 
#    z 0.000000 0.000000 1.661200 
# 
# From -- ./inp_files/17381.got.cif
#   From: 2010.05.17/outbox.cif.g08.bks.cpg/sg73_9_cif.got.tgz:17381.got - 2010.06.03 17:35:07.
