data_PCOD9533656
_publ_section_title
;
Structure prediction by ZEFSAII (Michael W. Deem and Ramdas Pophale) SiO2 
 PCOD9533656
Probable space group: I B C A 
;
_chemical_formula_sum "Si O2"
_cell_formula_units_Z 72
_cell_length_a 7.340165
_cell_length_b 27.587103
_cell_length_c 16.306943
_cell_angle_alpha 90.000000
_cell_angle_beta 90.000000
_cell_angle_gamma 90.000000
_cell_volume 3302.056288
_symmetry_space_group_name_H-M "I B C A "
_symmetry_group_IT_number 73
_symmetry_cell_setting 'orthorhombic'
loop_
_space_group_symop_operation_xyz
x,y,z
-x,1/2-y,z
x,-y,1/2-z
1/2-x,y,-z
-x,-y,-z
x,1/2+y,-z
-x,y,1/2+z
1/2+x,-y,z
1/2+x,1/2+y,1/2+z
1/2-x,-y,1/2+z
1/2+x,1/2-y,-z
-x,1/2+y,1/2-z
1/2-x,1/2-y,1/2-z
1/2+x,y,1/2-z
1/2-x,1/2+y,z
x,1/2-y,1/2+z
loop_
_atom_site_type_symbol
_atom_site_label
_atom_site_fract_x
_atom_site_fract_y
_atom_site_fract_z
Si Si1 0.396334 0.681534 0.055772
Si Si2 0.566498 0.399217 0.349263
Si Si3 0.698334 0.971112 0.089373
Si Si4 0.250000 0.272759 0.000000
Si Si5 0.944669 0.066061 0.830112
O O1 0.470452 0.651515 0.131224
O O2 0.570708 0.695154 0.999763
O O3 0.294062 0.733041 0.071528
O O4 0.250000 0.653429 0.000000
O O5 0.478927 0.437103 0.413221
O O6 0.505836 0.420486 0.261506
O O7 0.784217 0.397199 0.355416
O O8 0.868246 0.939408 0.120624
O O9 0.654405 0.014342 0.152861
O O10 0.750000 0.990080 0.000000
#
# Coordination Sequence:
#
# PCOD9533656 Si02
#       5
#    16  16  16   8  16
#     4   9  19  40  69 105 131 165 224 277 355 427
#     4  12  25  40  67  98 140 183 238 287 347 415
#     4  12  26  44  65  94 136 194 255 287 336 401
#     4   8  18  42  72 102 130 172 204 294 364 426
#     4  12  26  43  63  93 142 197 229 293 345 396
#
# _framework density 21.804594000000002
#
# number of rings (size 3 to 8) (size 9 to 14) (size 15 to 20)
#    0.667    0.444    4.444    2.000    0.000    3.556 
#    0.000    0.000    0.000    5.333    0.000    0.000 
#    0.000    0.000    0.000    0.000    0.000    0.000 
#
# Total GULP energy -200676.521872 kJ/mol
# GULP energy per Si atom -5574.347830 kJ/mol
# Density = 2.175497 g / cm^3
# Si number density = 21.804594 Si / 1000 Ang^3
#
#
#
# Elastic Constant Matrix: (Units=GPa)
#
#
# Indices 1 2 3 4 5 6 
#
# 1 139.6940 23.4192 33.7410 0.0000 0.0000 0.0000
# 2 23.4192 63.4591 39.7942 0.0000 0.0000 0.0000
# 3 33.7410 39.7942 75.7726 0.0000 0.0000 0.0000
# 4 0.0000 0.0000 0.0000 16.7603 0.0000 0.0000
# 5 0.0000 0.0000 0.0000 0.0000 19.8089 0.0000
# 6 0.0000 0.0000 0.0000 0.0000 0.0000 29.4173
#
#
#
# Elastic Compliance Matrix: (Units=1/GPa)
#
#
# Indices 1 2 3 4 5 6 
#
# 1 0.008071 -0.001081 -0.003026 0.000000 0.000000 0.000000
# 2 -0.001081 0.023641 -0.011934 0.000000 0.000000 0.000000
# 3 -0.003026 -0.011934 0.020813 0.000000 0.000000 0.000000
# 4 0.000000 0.000000 0.000000 0.059665 0.000000 0.000000
# 5 0.000000 0.000000 0.000000 0.000000 0.050482 0.000000
# 6 0.000000 0.000000 0.000000 0.000000 0.000000 0.033994
#
#
# Mechanical properties :
#
#
# Convention : Reuss Voigt Hill
#
# Bulk Modulus (GPa) = 48.92038 52.53717 50.72878
# Shear Modulus (GPa) = 21.22587 25.32873 23.27730
#
# Velocity S-wave (km/s) = 3.12341 3.41196 3.27087
# Velocity P-wave (km/s) = 5.95753 6.29832 6.13029
#
# Compressibility (1/GPa) = 0.02044138
#
# Stress axis : x y z
#
# Youngs Moduli (GPa) = 123.90618 42.29954 48.04764
#
# Poissons Ratio (x) = 0.04571 0.14540
# Poissons Ratio (y) = 0.13391 0.57342
# Poissons Ratio (z) = 0.37497 0.50482
#
# Static dielectric constant tensor:
#      x y z
#    x 1.845700 0.000000 0.000000 
#    y 0.000000 1.857880 0.000000 
#    z 0.000000 0.000000 1.790250 
# 
# From -- ./inp_files/15573.got.cif
#   From: 2010.05.17/outbox.cif.g08.bks.cpg/sg73_8_cif.got.tgz:15573.got - 2010.06.03 17:35:07.
