data_PCOD9533378
_publ_section_title
;
Structure prediction by ZEFSAII (Michael W. Deem and Ramdas Pophale) SiO2 
 PCOD9533378
Probable space group: I B C A 
;
_chemical_formula_sum "Si O2"
_cell_formula_units_Z 72
_cell_length_a 13.520638
_cell_length_b 19.660019
_cell_length_c 13.867284
_cell_angle_alpha 90.000000
_cell_angle_beta 90.000000
_cell_angle_gamma 90.000000
_cell_volume 3686.145963
_symmetry_space_group_name_H-M "I B C A "
_symmetry_group_IT_number 73
_symmetry_cell_setting 'orthorhombic'
loop_
_space_group_symop_operation_xyz
x,y,z
-x,1/2-y,z
x,-y,1/2-z
1/2-x,y,-z
-x,-y,-z
x,1/2+y,-z
-x,y,1/2+z
1/2+x,-y,z
1/2+x,1/2+y,1/2+z
1/2-x,-y,1/2+z
1/2+x,1/2-y,-z
-x,1/2+y,1/2-z
1/2-x,1/2-y,1/2-z
1/2+x,y,1/2-z
1/2-x,1/2+y,z
x,1/2-y,1/2+z
loop_
_atom_site_type_symbol
_atom_site_label
_atom_site_fract_x
_atom_site_fract_y
_atom_site_fract_z
Si Si1 0.224499 0.587903 0.106869
Si Si2 0.495891 0.559060 0.419599
Si Si3 0.755877 0.753434 0.863104
Si Si4 0.911025 0.197852 0.998099
Si Si5 0.358301 0.500000 0.250000
O O1 0.256470 0.667114 0.108315
O O2 0.287338 0.549921 0.188698
O O3 0.106401 0.578233 0.116875
O O4 0.250000 0.560306 0.000000
O O5 0.500000 0.500000 0.500000
O O6 0.450047 0.623410 0.475500
O O7 0.427801 0.537457 0.328951
O O8 0.750000 0.750000 0.750000
O O9 0.660623 0.720220 0.911841
O O10 0.847386 0.710912 0.905815
O O11 0.000000 0.250000 0.001663
#
# Coordination Sequence:
#
# PCOD9533378 Si02
#       5
#    16  16  16  16   8
#     4  12  23  49  70 103 152 189 239 317 361 432
#     4  12  26  46  76 107 147 193 243 303 371 445
#     4  11  24  43  72 103 143 184 240 296 359 429
#     4  11  23  45  70 100 139 188 235 288 362 425
#     4  12  28  44  76 106 148 202 246 294 388 446
#
# _framework density 19.532595000000001
#
# number of rings (size 3 to 8) (size 9 to 14) (size 15 to 20)
#    0.000    0.444    6.667    2.000    0.000    8.000 
#    0.000    0.000    0.000    0.000    0.000    0.000 
#    0.000    0.000    0.000    0.000    0.000    0.000 
#
# Total GULP energy -201251.136281 kJ/mol
# GULP energy per Si atom -5590.309341 kJ/mol
# Density = 1.948814 g / cm^3
# Si number density = 19.532595 Si / 1000 Ang^3
#
#
#
# Elastic Constant Matrix: (Units=GPa)
#
#
# Indices 1 2 3 4 5 6 
#
# 1 158.7983 67.6788 74.1647 0.0000 0.0000 0.0000
# 2 67.6788 163.3703 66.5770 0.0001 0.0000 0.0001
# 3 74.1647 66.5770 182.6755 0.0001 0.0001 0.0003
# 4 0.0000 0.0001 0.0001 32.2117 0.0000 0.0001
# 5 0.0000 0.0000 0.0001 0.0000 62.7131 0.0000
# 6 0.0000 0.0001 0.0003 0.0001 0.0000 22.4067
#
#
#
# Elastic Compliance Matrix: (Units=1/GPa)
#
#
# Indices 1 2 3 4 5 6 
#
# 1 0.008561 -0.002502 -0.002564 0.000000 0.000000 0.000000
# 2 -0.002502 0.007920 -0.001871 0.000000 0.000000 0.000000
# 3 -0.002564 -0.001871 0.007197 0.000000 0.000000 0.000000
# 4 0.000000 0.000000 0.000000 0.031045 0.000000 0.000000
# 5 0.000000 0.000000 0.000000 0.000000 0.015946 0.000000
# 6 0.000000 0.000000 0.000000 0.000000 0.000000 0.044629
#
#
# Mechanical properties :
#
#
# Convention : Reuss Voigt Hill
#
# Bulk Modulus (GPa) = 101.98902 102.40947 102.19924
# Shear Modulus (GPa) = 37.75342 43.22787 40.49065
#
# Velocity S-wave (km/s) = 4.40118 4.70948 4.55794
# Velocity P-wave (km/s) = 8.84055 9.06179 8.95186
#
# Compressibility (1/GPa) = 0.00980498
#
# Stress axis : x y z
#
# Youngs Moduli (GPa) = 116.80976 126.26599 138.94816
#
# Poissons Ratio (x) = 0.31587 0.35625
# Poissons Ratio (y) = 0.29222 0.25994
# Poissons Ratio (z) = 0.29949 0.23621
#
# Static dielectric constant tensor:
#      x y z
#    x 1.668000 0.000000 0.000000 
#    y 0.000000 1.683890 0.000000 
#    z 0.000000 0.000000 1.667550 
# 
# From -- ./inp_files/15940.got.cif
#   From: 2010.05.17/outbox.cif.g08.bks.cpg/sg73_8_cif.got.tgz:15940.got - 2010.06.03 17:35:07.
