data_PCOD9533826
_publ_section_title
;
Structure prediction by ZEFSAII (Michael W. Deem and Ramdas Pophale) SiO2 
 PCOD9533826
Probable space group: I M M A
;
_chemical_formula_sum "Si O2"
_cell_formula_units_Z 68
_cell_length_a 23.176967
_cell_length_b 15.136331
_cell_length_c 9.598703
_cell_angle_alpha 90.000000
_cell_angle_beta 90.000000
_cell_angle_gamma 90.000000
_cell_volume 3367.361737
_symmetry_space_group_name_H-M "I M M A"
_symmetry_group_IT_number 74
_symmetry_cell_setting 'orthorhombic'
loop_
_space_group_symop_operation_xyz
x,y,z
-x,1/2-y,z
x,-y,-z
-x,1/2+y,-z
-x,-y,-z
x,1/2+y,-z
-x,y,z
x,1/2-y,z
1/2+x,1/2+y,1/2+z
1/2-x,-y,1/2+z
1/2+x,1/2-y,1/2-z
1/2-x,y,1/2-z
1/2-x,1/2-y,1/2-z
1/2+x,y,1/2-z
1/2-x,1/2+y,1/2+z
1/2+x,-y,1/2+z
loop_
_atom_site_type_symbol
_atom_site_label
_atom_site_fract_x
_atom_site_fract_y
_atom_site_fract_z
Si Si1 0.373677 0.606430 0.156393
Si Si2 0.000000 0.112108 0.761215
Si Si3 0.126481 0.395151 0.345818
Si Si4 0.810782 0.750000 0.171436
Si Si5 0.500000 0.436988 0.138902
Si Si6 0.133142 0.750000 0.875553
Si Si7 0.500000 0.750000 0.507589
O O1 0.441043 0.631511 0.178314
O O2 0.366908 0.500767 0.174105
O O3 0.341182 0.662297 0.270204
O O4 0.352036 0.628258 0.000681
O O5 0.000000 0.164992 0.904531
O O6 0.000000 0.005393 0.768571
O O7 0.057537 0.382140 0.356552
O O8 0.146476 0.335041 0.220340
O O9 0.750000 0.750000 0.250000
O O10 0.824692 0.750000 0.008100
O O11 0.500000 0.500000 0.000000
O O12 0.063789 0.750000 0.917720
#
# Coordination Sequence:
#
# PCOD9533826 Si02
#       7
#    16   8  16   8   8   8   4
#     4  10  19  41  67  90 122 167 205 247 320 383
#     4  10  16  32  60  86 124 165 206 233 295 397
#     4  10  20  37  65  96 125 163 209 258 304 377
#     4  12  27  46  62  84 122 165 212 270 331 381
#     4  10  15  32  56  95 135 168 200 244 307 384
#     4  12  25  38  58 100 135 165 215 261 312 367
#     4  12  22  34  50  96 138 166 204 242 316 380
#
# _framework density 20.193850000000001
#
# number of rings (size 3 to 8) (size 9 to 14) (size 15 to 20)
#    0.000    1.412    7.059    1.412    0.000    0.941 
#    0.000    9.412    0.000    0.000    0.000    0.000 
#    0.000    0.000    0.000    0.000    0.000    0.000 
#
# Total GULP energy -189539.726337 kJ/mol
# GULP energy per Si atom -5574.697833 kJ/mol
# Density = 2.014789 g / cm^3
# Si number density = 20.193850 Si / 1000 Ang^3
#
#
#
# Elastic Constant Matrix: (Units=GPa)
#
#
# Indices 1 2 3 4 5 6 
#
# 1 49.6442 12.8285 32.0358 0.0000 0.0000 0.0000
# 2 12.8285 75.0847 76.2537 0.0000 0.0000 0.0000
# 3 32.0358 76.2537 167.3225 0.0000 0.0000 0.0000
# 4 0.0000 0.0000 0.0000 -82.9233 0.0000 0.0000
# 5 0.0000 0.0000 0.0000 0.0000 13.9961 0.0000
# 6 0.0000 0.0000 0.0000 0.0000 0.0000 -39.7499
#
#
#
# Elastic Compliance Matrix: (Units=1/GPa)
#
#
# Indices 1 2 3 4 5 6 
#
# 1 0.023024 0.001011 -0.004869 0.000000 0.000000 0.000000
# 2 0.001011 0.024838 -0.011513 0.000000 0.000000 0.000000
# 3 -0.004869 -0.011513 0.012155 0.000000 0.000000 0.000000
# 4 0.000000 0.000000 0.000000 -0.012059 0.000000 0.000000
# 5 0.000000 0.000000 0.000000 0.000000 0.071448 0.000000
# 6 0.000000 0.000000 0.000000 0.000000 0.000000 -0.025157
#
#
# Mechanical properties :
#
#
# Convention : Reuss Voigt Hill
#
# Bulk Modulus (GPa) = 34.15817 59.36528 46.76172
# Shear Modulus (GPa) = 37.10610 -10.33985 13.38313
#
# Velocity S-wave (km/s) = 4.29125 -2.26526 2.57715
# Velocity P-wave (km/s) = 6.44244 4.75601 5.66236
#
# Compressibility (1/GPa) = 0.02927558
#
# Stress axis : x y z
#
# Youngs Moduli (GPa) = 43.43286 40.26157 82.26789
#
# Poissons Ratio (x) = -0.04070 0.40056
# Poissons Ratio (y) = -0.04391 0.94713
# Poissons Ratio (z) = 0.21147 0.46352
#
# Static dielectric constant tensor:
#      x y z
#    x 1.796390 0.000000 0.000000 
#    y 0.000000 1.729360 0.000000 
#    z 0.000000 0.000000 1.744550 
# 
# From -- ./inp_files/13538.got.cif
#   From: 2010.05.17/outbox.cif.g08.bks.cpg/sg74_7_cif.got.tgz:13538.got - 2010.06.03 17:57:02.
