data_PCOD9533837
_publ_section_title
;
Structure prediction by ZEFSAII (Michael W. Deem and Ramdas Pophale) SiO2 
 PCOD9533837
Probable space group: I M M A
;
_chemical_formula_sum "Si O2"
_cell_formula_units_Z 80
_cell_length_a 18.368103
_cell_length_b 27.588909
_cell_length_c 7.250128
_cell_angle_alpha 90.000000
_cell_angle_beta 90.000000
_cell_angle_gamma 90.000000
_cell_volume 3674.045300
_symmetry_space_group_name_H-M "I M M A"
_symmetry_group_IT_number 74
_symmetry_cell_setting 'orthorhombic'
loop_
_space_group_symop_operation_xyz
x,y,z
-x,1/2-y,z
x,-y,-z
-x,1/2+y,-z
-x,-y,-z
x,1/2+y,-z
-x,y,z
x,1/2-y,z
1/2+x,1/2+y,1/2+z
1/2-x,-y,1/2+z
1/2+x,1/2-y,1/2-z
1/2-x,y,1/2-z
1/2-x,1/2-y,1/2-z
1/2+x,y,1/2-z
1/2-x,1/2+y,1/2+z
1/2+x,-y,1/2+z
loop_
_atom_site_type_symbol
_atom_site_label
_atom_site_fract_x
_atom_site_fract_y
_atom_site_fract_z
Si Si1 0.836732 0.444616 0.281774
Si Si2 0.835884 0.050546 0.720630
Si Si3 0.415733 0.152321 0.216606
Si Si4 0.088587 0.750000 0.307680
Si Si5 0.664489 0.750000 0.795421
Si Si6 0.416917 0.645229 0.233424
O O1 0.750000 0.439091 0.250000
O O2 0.860537 0.497608 0.209759
O O3 0.848886 0.447647 0.501494
O O4 0.879391 0.397428 0.215788
O O5 0.750000 0.051826 0.750000
O O6 0.869788 0.099837 0.795816
O O7 0.500000 0.156196 0.269587
O O8 0.371918 0.200155 0.273482
O O9 0.413562 0.149488 0.991241
O O10 0.140479 0.750000 0.487518
O O11 0.102600 0.699560 0.204083
O O12 0.000000 0.750000 0.356778
O O13 0.750000 0.750000 0.750000
O O14 0.500000 0.635275 0.282903
#
# Coordination Sequence:
#
# PCOD9533837 Si02
#       6
#    16  16  16   8   8  16
#     4   9  17  29  44  62  86 115 142 171 213 258
#     4   9  17  28  43  64  88 111 138 176 216 253
#     4   9  16  26  40  60  84 110 143 182 213 244
#     4   8  14  26  41  59  84 111 139 176 216 252
#     4  10  16  22  36  59  86 113 138 168 211 258
#     4   8  14  25  42  61  82 108 140 176 214 251
#
# _framework density 21.774363999999998
#
# number of rings (size 3 to 8) (size 9 to 14) (size 15 to 20)
#    0.000    3.200    0.000    2.700    0.000    0.800 
#    0.000    4.500    0.000    1.200    0.000    5.600 
#    0.000    3.200    0.000    0.000    0.000    0.000 
#
# Total GULP energy -223072.909193 kJ/mol
# GULP energy per Si atom -5576.822730 kJ/mol
# Density = 2.172480 g / cm^3
# Si number density = 21.774364 Si / 1000 Ang^3
#
#
#
# Elastic Constant Matrix: (Units=GPa)
#
#
# Indices 1 2 3 4 5 6 
#
# 1 116.3555 125.7705 7.7802 0.0000 0.0000 0.0000
# 2 125.7705 296.5737 8.2754 0.0000 0.0000 0.0000
# 3 7.7802 8.2754 85.2167 -0.0001 -0.0001 0.0000
# 4 0.0000 0.0000 -0.0001 16.4509 0.0000 0.0000
# 5 0.0000 0.0000 -0.0001 0.0000 4.7927 0.0000
# 6 0.0000 0.0000 0.0000 0.0000 0.0000 56.1045
#
#
#
# Elastic Compliance Matrix: (Units=1/GPa)
#
#
# Indices 1 2 3 4 5 6 
#
# 1 0.015922 -0.006730 -0.000800 0.000000 0.000000 0.000000
# 2 -0.006730 0.006226 0.000010 0.000000 0.000000 0.000000
# 3 -0.000800 0.000010 0.011807 0.000000 0.000000 0.000000
# 4 0.000000 0.000000 0.000000 0.060787 0.000000 0.000000
# 5 0.000000 0.000000 0.000000 0.000000 0.208653 0.000000
# 6 0.000000 0.000000 0.000000 0.000000 0.000000 0.017824
#
#
# Mechanical properties :
#
#
# Convention : Reuss Voigt Hill
#
# Bulk Modulus (GPa) = 52.86995 86.86646 69.86820
# Shear Modulus (GPa) = 14.59582 39.22426 26.91004
#
# Velocity S-wave (km/s) = 2.59186 4.24889 3.51929
# Velocity P-wave (km/s) = 5.76980 8.00320 6.97645
#
# Compressibility (1/GPa) = 0.01891434
#
# Stress axis : x y z
#
# Youngs Moduli (GPa) = 62.80439 160.62628 84.69636
#
# Poissons Ratio (x) = 1.08102 0.06777
# Poissons Ratio (y) = 0.42268 -0.00084
# Poissons Ratio (z) = 0.05025 -0.00159
#
# Static dielectric constant tensor:
#      x y z
#    x 1.721540 0.000000 0.000000 
#    y 0.000000 1.830150 0.000000 
#    z 0.000000 0.000000 1.847930 
# 
# From -- ./inp_files/10996.got.cif
#   From: 2010.05.17/outbox.cif.g08.bks.cpg/sg74_6_cif.got.tgz:10996.got - 2010.06.03 17:57:02.
