data_PCOD9533517
_publ_section_title
;
Structure prediction by ZEFSAII (Michael W. Deem and Ramdas Pophale) SiO2 
 PCOD9533517
Probable space group: I B C A 
;
_chemical_formula_sum "Si O2"
_cell_formula_units_Z 112
_cell_length_a 13.036682
_cell_length_b 28.269556
_cell_length_c 14.982116
_cell_angle_alpha 90.000000
_cell_angle_beta 90.000000
_cell_angle_gamma 90.000000
_cell_volume 5521.527187
_symmetry_space_group_name_H-M "I B C A "
_symmetry_group_IT_number 73
_symmetry_cell_setting 'orthorhombic'
loop_
_space_group_symop_operation_xyz
x,y,z
-x,1/2-y,z
x,-y,1/2-z
1/2-x,y,-z
-x,-y,-z
x,1/2+y,-z
-x,y,1/2+z
1/2+x,-y,z
1/2+x,1/2+y,1/2+z
1/2-x,-y,1/2+z
1/2+x,1/2-y,-z
-x,1/2+y,1/2-z
1/2-x,1/2-y,1/2-z
1/2+x,y,1/2-z
1/2-x,1/2+y,z
x,1/2-y,1/2+z
loop_
_atom_site_type_symbol
_atom_site_label
_atom_site_fract_x
_atom_site_fract_y
_atom_site_fract_z
Si Si1 0.489764 0.653621 0.651087
Si Si2 0.500000 0.750000 0.382880
Si Si3 0.700002 0.784112 0.675686
Si Si4 0.625800 0.557952 0.900119
Si Si5 0.894522 0.655104 0.176072
Si Si6 0.000083 0.000000 0.250000
Si Si7 0.646491 0.208169 0.472908
Si Si8 0.627176 0.941005 0.603997
O O1 0.410635 0.692469 0.690508
O O2 0.568196 0.636948 0.727791
O O3 0.561157 0.678039 0.577561
O O4 0.421720 0.611218 0.613103
O O5 0.544643 0.796174 0.336724
O O6 0.407796 0.769295 0.442715
O O7 0.750000 0.750000 0.750000
O O8 0.777985 0.827646 0.668062
O O9 0.683194 0.751024 0.590236
O O10 0.588111 0.612459 0.891782
O O11 0.570593 0.529174 0.820625
O O12 0.749260 0.558357 0.885887
O O13 0.605886 0.541452 0.002118
O O14 0.927304 0.969780 0.316367
O O15 0.750000 0.180961 0.500000
#
# Coordination Sequence:
#
# PCOD9533517 Si02
#       8
#    16   8  16  16  16   8  16  16
#     4  12  24  43  65  95 138 185 231 282 343 405
#     4  12  24  38  60  94 134 178 234 284 332 392
#     4  12  23  39  62  90 134 186 237 277 335 393
#     4  11  25  46  75 103 139 180 229 284 350 429
#     4  12  24  40  65  98 132 187 232 279 335 408
#     4  12  24  50  76 110 136 170 224 296 366 414
#     4  12  25  39  60  92 134 182 232 287 330 394
#     4  11  25  46  76 105 137 178 226 282 354 433
#
# _framework density 20.284243
#
# number of rings (size 3 to 8) (size 9 to 14) (size 15 to 20)
#    0.000    0.286    7.143    2.571    0.000    0.000 
#    0.000    0.000    3.143    0.000    0.000    0.000 
#    0.000    0.000    0.000    0.000    0.000    0.000 
#
# Total GULP energy -312625.830056 kJ/mol
# GULP energy per Si atom -5582.604108 kJ/mol
# Density = 2.023808 g / cm^3
# Si number density = 20.284243 Si / 1000 Ang^3
#
#
#
# Elastic Constant Matrix: (Units=GPa)
#
#
# Indices 1 2 3 4 5 6 
#
# 1 147.8509 51.7974 58.4732 0.0000 0.0000 0.0000
# 2 51.7974 62.4213 45.1875 0.0000 0.0000 0.0000
# 3 58.4732 45.1875 112.5511 -0.0002 0.0001 0.0000
# 4 0.0000 0.0000 -0.0002 22.9177 0.0000 0.0000
# 5 0.0000 0.0000 0.0001 0.0000 28.7300 0.0000
# 6 0.0000 0.0000 0.0000 0.0000 0.0000 30.8110
#
#
#
# Elastic Compliance Matrix: (Units=1/GPa)
#
#
# Indices 1 2 3 4 5 6 
#
# 1 0.010065 -0.006437 -0.002644 0.000000 0.000000 0.000000
# 2 -0.006437 0.026701 -0.007376 0.000000 0.000000 0.000000
# 3 -0.002644 -0.007376 0.013220 0.000000 0.000000 0.000000
# 4 0.000000 0.000000 0.000000 0.043634 0.000000 0.000000
# 5 0.000000 0.000000 0.000000 0.000000 0.034807 0.000000
# 6 0.000000 0.000000 0.000000 0.000000 0.000000 0.032456
#
#
# Mechanical properties :
#
#
# Convention : Reuss Voigt Hill
#
# Bulk Modulus (GPa) = 58.57929 70.41550 64.49739
# Shear Modulus (GPa) = 25.06413 27.64943 26.35678
#
# Velocity S-wave (km/s) = 3.51899 3.69602 3.60859
# Velocity P-wave (km/s) = 6.74188 7.28037 7.01630
#
# Compressibility (1/GPa) = 0.01707088
#
# Stress axis : x y z
#
# Youngs Moduli (GPa) = 99.35812 37.45130 75.64353
#
# Poissons Ratio (x) = 0.24109 0.20002
# Poissons Ratio (y) = 0.63961 0.55793
# Poissons Ratio (z) = 0.26273 0.27623
#
# Static dielectric constant tensor:
#      x y z
#    x 1.740030 0.000000 0.000000 
#    y 0.000000 1.741110 0.000000 
#    z 0.000000 0.000000 1.747630 
# 
# From -- ./inp_files/16414.got.cif
#   From: 2010.05.17/outbox.cif.g08.bks.cpg/sg73_9_cif.got.tgz:16414.got - 2010.06.03 17:35:07.
