data_PCOD9533297
_publ_section_title
;
Structure prediction by ZEFSAII (Michael W. Deem and Ramdas Pophale) SiO2 
 PCOD9533297
Probable space group: I B C A 
;
_chemical_formula_sum "Si O2"
_cell_formula_units_Z 112
_cell_length_a 13.827389
_cell_length_b 30.060832
_cell_length_c 12.389981
_cell_angle_alpha 90.000000
_cell_angle_beta 90.000000
_cell_angle_gamma 90.000000
_cell_volume 5150.054414
_symmetry_space_group_name_H-M "I B C A "
_symmetry_group_IT_number 73
_symmetry_cell_setting 'orthorhombic'
loop_
_space_group_symop_operation_xyz
x,y,z
-x,1/2-y,z
x,-y,1/2-z
1/2-x,y,-z
-x,-y,-z
x,1/2+y,-z
-x,y,1/2+z
1/2+x,-y,z
1/2+x,1/2+y,1/2+z
1/2-x,-y,1/2+z
1/2+x,1/2-y,-z
-x,1/2+y,1/2-z
1/2-x,1/2-y,1/2-z
1/2+x,y,1/2-z
1/2-x,1/2+y,z
x,1/2-y,1/2+z
loop_
_atom_site_type_symbol
_atom_site_label
_atom_site_fract_x
_atom_site_fract_y
_atom_site_fract_z
Si Si1 0.857098 0.834719 0.296147
Si Si2 0.861359 0.175193 0.461158
Si Si3 0.978424 0.524314 0.350820
Si Si4 0.545982 0.877997 0.147343
Si Si5 0.362924 0.450636 0.031670
Si Si6 0.134001 0.773027 0.981403
Si Si7 0.638265 0.146407 0.136938
O O1 0.862330 0.831137 0.167423
O O2 0.882942 0.789051 0.359009
O O3 0.752193 0.848224 0.339947
O O4 0.932424 0.870951 0.337733
O O5 0.750000 0.172800 0.500000
O O6 0.917059 0.138740 0.532232
O O7 0.902228 0.223935 0.491818
O O8 0.027320 0.500000 0.250000
O O9 0.927669 0.571283 0.329918
O O10 0.896932 0.489177 0.386568
O O11 0.061570 0.537659 0.435912
O O12 0.590598 0.849886 0.245581
O O13 0.379938 0.401428 0.081678
O O14 0.250000 0.453734 0.000000
O O15 0.104646 0.813223 0.060688
O O16 0.250000 0.769735 0.000000
#
# Coordination Sequence:
#
# PCOD9533297 Si02
#       7
#    16  16  16  16  16  16  16
#     4  11  25  44  70  98 139 194 232 287 361 421
#     4  11  25  45  69 102 140 184 241 297 351 413
#     4  11  25  46  67 103 140 175 228 295 347 413
#     4  12  26  43  69 100 144 181 232 293 354 414
#     4  11  24  45  74 101 136 181 234 282 349 426
#     4   9  22  41  69  98 136 181 237 288 351 416
#     4  11  22  46  72  98 139 186 232 289 348 428
#
# _framework density 21.747342
#
# number of rings (size 3 to 8) (size 9 to 14) (size 15 to 20)
#    0.000    1.143    2.857    3.000    6.000    3.429 
#    2.571    0.000    0.000    0.000    0.000    0.000 
#    0.000    0.000    0.000    0.000    0.000    0.000 
#
# Total GULP energy -313051.957739 kJ/mol
# GULP energy per Si atom -5590.213531 kJ/mol
# Density = 2.169784 g / cm^3
# Si number density = 21.747342 Si / 1000 Ang^3
#
#
#
# Elastic Constant Matrix: (Units=GPa)
#
#
# Indices 1 2 3 4 5 6 
#
# 1 78.5941 21.6154 24.9800 0.0000 0.0000 0.0000
# 2 21.6154 143.9927 64.1296 -0.0001 0.0000 0.0001
# 3 24.9800 64.1296 166.3076 -0.0004 0.0002 -0.0001
# 4 0.0000 -0.0001 -0.0004 26.0159 0.0000 0.0001
# 5 0.0000 0.0000 0.0002 0.0000 31.9576 0.0000
# 6 0.0000 0.0001 -0.0001 0.0001 0.0000 41.8507
#
#
#
# Elastic Compliance Matrix: (Units=1/GPa)
#
#
# Indices 1 2 3 4 5 6 
#
# 1 0.013580 -0.001364 -0.001514 0.000000 0.000000 0.000000
# 2 -0.001364 0.008522 -0.003081 0.000000 0.000000 0.000000
# 3 -0.001514 -0.003081 0.007428 0.000000 0.000000 0.000000
# 4 0.000000 0.000000 0.000000 0.038438 0.000000 0.000000
# 5 0.000000 0.000000 0.000000 0.000000 0.031291 0.000000
# 6 0.000000 0.000000 0.000000 0.000000 0.000000 0.023894
#
#
# Mechanical properties :
#
#
# Convention : Reuss Voigt Hill
#
# Bulk Modulus (GPa) = 56.78008 67.81604 62.29806
# Shear Modulus (GPa) = 35.47526 38.50945 36.99236
#
# Velocity S-wave (km/s) = 4.04325 4.21261 4.12880
# Velocity P-wave (km/s) = 6.92552 7.41031 7.17201
#
# Compressibility (1/GPa) = 0.01761181
#
# Stress axis : x y z
#
# Youngs Moduli (GPa) = 73.63805 117.34520 134.61805
#
# Poissons Ratio (x) = 0.16011 0.20376
# Poissons Ratio (y) = 0.10047 0.41478
# Poissons Ratio (z) = 0.11146 0.36156
#
# Static dielectric constant tensor:
#      x y z
#    x 1.825670 0.000000 0.000000 
#    y 0.000000 1.785750 0.000000 
#    z 0.000000 0.000000 1.827010 
# 
# From -- ./inp_files/11265.got.cif
#   From: 2010.05.17/outbox.cif.g08.bks.cpg/sg73_6_cif.got.tgz:11265.got - 2010.06.03 17:35:07.
