data_PCOD9533762
_publ_section_title
;
Structure prediction by ZEFSAII (Michael W. Deem and Ramdas Pophale) SiO2 
 PCOD9533762
Probable space group: I B C A 
;
_chemical_formula_sum "Si O2"
_cell_formula_units_Z 44
_cell_length_a 15.000000
_cell_length_b 24.000000
_cell_length_c 12.000000
_cell_angle_alpha 90.000000
_cell_angle_beta 90.000000
_cell_angle_gamma 90.000000
_cell_volume 4320.000000
_symmetry_space_group_name_H-M "I B C A "
_symmetry_group_IT_number 73
_symmetry_cell_setting 'orthorhombic'
loop_
_space_group_symop_operation_xyz
x,y,z
-x,1/2-y,z
x,-y,1/2-z
1/2-x,y,-z
-x,-y,-z
x,1/2+y,-z
-x,y,1/2+z
1/2+x,-y,z
1/2+x,1/2+y,1/2+z
1/2-x,-y,1/2+z
1/2+x,1/2-y,-z
-x,1/2+y,1/2-z
1/2-x,1/2-y,1/2-z
1/2+x,y,1/2-z
1/2-x,1/2+y,z
x,1/2-y,1/2+z
loop_
_atom_site_type_symbol
_atom_site_label
_atom_site_fract_x
_atom_site_fract_y
_atom_site_fract_z
Si Si1 0.907220 0.078747 0.824406
Si Si2 0.500000 0.500000 0.500000
Si Si3 0.000000 0.750000 0.610186
Si Si4 0.257550 0.000000 0.750000
Si Si5 0.929118 0.854441 0.249034
Si Si6 0.144113 0.172556 0.505808
Si Si7 0.665925 0.933308 0.925951
O O1 0.820723 0.053244 0.766200
O O2 0.979418 0.109408 0.746337
O O3 0.875851 0.121961 0.920210
O O4 0.956685 0.028790 0.888246
O O5 0.418664 0.452930 0.503556
O O6 0.956167 0.702989 0.688767
O O7 0.922316 0.778353 0.535625
O O8 0.196845 0.988373 0.642856
O O9 0.885182 0.845180 0.369427
O O10 0.864539 0.888159 0.165200
O O11 0.250000 0.185947 0.500000
O O12 0.750000 0.915289 0.000000
#
# Coordination Sequence:
#
# PCOD9533762 Si02
#       7
#    16   8   8   8  16  16  16
#     4  10  24  38  62  98 136 177 221 266 327 401
#     4  10  22  40  58  86 136 180 212 266 312 372
#     4  10  24  48  68 100 130 172 224 298 358 404
#     4  12  24  38  66  96 138 186 222 264 330 402
#     4  10  24  43  68  97 134 177 225 280 352 404
#     4  11  24  43  71  99 132 175 228 288 336 414
#     4  11  24  40  62  98 137 179 226 273 326 401
#
# _framework density 10.185185000000001
#
# number of rings (size 3 to 8) (size 9 to 14) (size 15 to 20)
#    0.000    1.455    1.818    1.636    7.636    4.364 
#    0.000    0.000    0.000    0.000    0.000    0.000 
#    0.000    0.000    0.000    0.000    0.000    0.000 
#
# Total GULP energy -245064.423733 kJ/mol
# GULP energy per Si atom -5569.645994 kJ/mol
# Density = 1.016200 g / cm^3
# Si number density = 10.185185 Si / 1000 Ang^3
#
#
#
# Elastic Constant Matrix: (Units=GPa)
#
#
# Indices 1 2 3 4 5 6 
#
# 1 108.9132 40.6086 52.6105 0.0000 0.0000 0.0000
# 2 40.6086 83.8754 47.8968 -0.0001 0.0000 0.0000
# 3 52.6105 47.8968 95.9656 -0.0004 0.0001 0.0000
# 4 0.0000 -0.0001 -0.0004 24.2725 0.0000 0.0000
# 5 0.0000 0.0000 0.0001 0.0000 26.9375 0.0000
# 6 0.0000 0.0000 0.0000 0.0000 0.0000 28.4545
#
#
#
# Elastic Compliance Matrix: (Units=1/GPa)
#
#
# Indices 1 2 3 4 5 6 
#
# 1 0.013049 -0.003122 -0.005595 0.000000 0.000000 0.000000
# 2 -0.003122 0.017422 -0.006984 0.000000 0.000000 0.000000
# 3 -0.005595 -0.006984 0.016973 0.000000 0.000000 0.000000
# 4 0.000000 0.000000 0.000000 0.041199 0.000000 0.000000
# 5 0.000000 0.000000 0.000000 0.000000 0.037123 0.000000
# 6 0.000000 0.000000 0.000000 0.000000 0.000000 0.035144
#
#
# Mechanical properties :
#
#
# Convention : Reuss Voigt Hill
#
# Bulk Modulus (GPa) = 62.33776 63.44290 62.89033
# Shear Modulus (GPa) = 25.29604 25.77546 25.53575
#
# Velocity S-wave (km/s) = 3.52775 3.56102 3.54442
# Velocity P-wave (km/s) = 6.87473 6.93687 6.90587
#
# Compressibility (1/GPa) = 0.01604164
#
# Stress axis : x y z
#
# Youngs Moduli (GPa) = 76.63695 57.39801 58.91592
#
# Poissons Ratio (x) = 0.17922 0.32964
# Poissons Ratio (y) = 0.23930 0.41145
# Poissons Ratio (z) = 0.42879 0.40085
#
# Static dielectric constant tensor:
#      x y z
#    x 1.743750 0.000000 0.000000 
#    y 0.000000 1.728870 0.000000 
#    z 0.000000 0.000000 1.741750 
# 
# From -- ./inp_files/11004.got.cif
#   From: 2010.05.17/outbox.ucp.g08.bks.cvg/sg73_6_cif.got.tgz:11004.got - 2010.06.11 16:36:03.
