data_PCOD9533193
_publ_section_title
;
Structure prediction by ZEFSAII (Michael W. Deem and Ramdas Pophale) SiO2 
 PCOD9533193
Probable space group: I B C A 
;
_chemical_formula_sum "Si O2"
_cell_formula_units_Z 112
_cell_length_a 25.538675
_cell_length_b 13.196247
_cell_length_c 14.641542
_cell_angle_alpha 90.000000
_cell_angle_beta 90.000000
_cell_angle_gamma 90.000000
_cell_volume 4934.414348
_symmetry_space_group_name_H-M "I B C A "
_symmetry_group_IT_number 73
_symmetry_cell_setting 'orthorhombic'
loop_
_space_group_symop_operation_xyz
x,y,z
-x,1/2-y,z
x,-y,1/2-z
1/2-x,y,-z
-x,-y,-z
x,1/2+y,-z
-x,y,1/2+z
1/2+x,-y,z
1/2+x,1/2+y,1/2+z
1/2-x,-y,1/2+z
1/2+x,1/2-y,-z
-x,1/2+y,1/2-z
1/2-x,1/2-y,1/2-z
1/2+x,y,1/2-z
1/2-x,1/2+y,z
x,1/2-y,1/2+z
loop_
_atom_site_type_symbol
_atom_site_label
_atom_site_fract_x
_atom_site_fract_y
_atom_site_fract_z
Si Si1 0.236943 0.689144 0.842174
Si Si2 0.127257 0.934341 0.340358
Si Si3 0.250000 0.847200 0.000000
Si Si4 0.546662 0.120852 0.741239
Si Si5 0.000000 0.250000 0.911847
Si Si6 0.141451 0.562932 0.492029
Si Si7 0.155292 0.081155 0.828319
Si Si8 0.572839 0.736639 0.084709
O O1 0.250000 0.750000 0.750000
O O2 0.186410 0.615324 0.838679
O O3 0.291397 0.632002 0.859764
O O4 0.232114 0.774321 0.918866
O O5 0.091181 0.837789 0.363965
O O6 0.119072 0.000000 0.250000
O O7 0.115648 0.016084 0.419288
O O8 0.299053 0.917288 0.978149
O O9 0.508687 0.159233 0.660938
O O10 0.607077 0.146851 0.710865
O O11 0.540007 0.171290 0.840808
O O12 0.544213 0.000000 0.750000
O O13 0.953584 0.254436 0.986111
O O14 0.134629 0.478857 0.414936
O O15 0.120176 0.664280 0.446137
O O16 0.169045 0.000000 0.750000
#
# Coordination Sequence:
#
# PCOD9533193 Si02
#       8
#    16  16   8  16   8  16  16  16
#     4  12  23  40  69 107 150 204 251 302 365 446
#     4  12  27  48  74 113 156 202 254 308 374 454
#     4  12  24  38  66 108 148 200 252 298 364 452
#     4  11  25  52  78 111 148 198 252 316 387 454
#     4  12  30  50  82 108 148 188 250 332 380 464
#     4  12  24  46  70 107 150 199 246 309 373 447
#     4  11  21  41  70 102 147 195 248 304 369 441
#     4  12  27  52  75 114 144 195 256 307 395 449
#
# _framework density 22.697728999999999
#
# number of rings (size 3 to 8) (size 9 to 14) (size 15 to 20)
#    0.000    0.286    4.286    6.000    4.000    0.571 
#    2.571    0.000    0.000    0.000    0.000    0.000 
#    0.000    0.000    0.000    0.000    0.000    0.000 
#
# Total GULP energy -312942.375558 kJ/mol
# GULP energy per Si atom -5588.256706 kJ/mol
# Density = 2.264607 g / cm^3
# Si number density = 22.697729 Si / 1000 Ang^3
#
#
#
# Elastic Constant Matrix: (Units=GPa)
#
#
# Indices 1 2 3 4 5 6 
#
# 1 44.8695 26.0539 7.3598 0.0000 0.0000 0.0000
# 2 26.0539 91.4714 60.7598 0.0000 0.0000 0.0000
# 3 7.3598 60.7598 170.1393 0.0000 0.0000 0.0000
# 4 0.0000 0.0000 0.0000 42.7668 0.0000 0.0000
# 5 0.0000 0.0000 0.0000 0.0000 35.1337 0.0000
# 6 0.0000 0.0000 0.0000 0.0000 0.0000 35.4262
#
#
#
# Elastic Compliance Matrix: (Units=1/GPa)
#
#
# Indices 1 2 3 4 5 6 
#
# 1 0.027258 -0.009152 0.002089 0.000000 0.000000 0.000000
# 2 -0.009152 0.017405 -0.005820 0.000000 0.000000 0.000000
# 3 0.002089 -0.005820 0.007865 0.000000 0.000000 0.000000
# 4 0.000000 0.000000 0.000000 0.023383 0.000000 0.000000
# 5 0.000000 0.000000 0.000000 0.000000 0.028463 0.000000
# 6 0.000000 0.000000 0.000000 0.000000 0.000000 0.028228
#
#
# Mechanical properties :
#
#
# Convention : Reuss Voigt Hill
#
# Bulk Modulus (GPa) = 37.36368 54.98079 46.17223
# Shear Modulus (GPa) = 29.88869 36.81910 33.35389
#
# Velocity S-wave (km/s) = 3.63273 4.03196 3.83754
# Velocity P-wave (km/s) = 5.83890 6.77873 6.32629
#
# Compressibility (1/GPa) = 0.02676396
#
# Stress axis : x y z
#
# Youngs Moduli (GPa) = 36.68624 57.45543 127.13773
#
# Poissons Ratio (x) = 0.52581 -0.26561
# Poissons Ratio (y) = 0.33574 0.73990
# Poissons Ratio (z) = -0.07664 0.33437
#
# Static dielectric constant tensor:
#      x y z
#    x 1.931640 0.000000 0.000000 
#    y 0.000000 1.770030 0.000000 
#    z 0.000000 0.000000 1.588010 
# 
# From -- ./inp_files/20097.got.cif
#   From: 2010.05.17/outbox.cif.g08.bks.cpg/sg73_11_cif.got.tgz:20097.got - 2010.06.03 17:35:07.
