data_PCOD9533561
_publ_section_title
;
Structure prediction by ZEFSAII (Michael W. Deem and Ramdas Pophale) SiO2 
 PCOD9533561
Probable space group: I B C A 
;
_chemical_formula_sum "Si O2"
_cell_formula_units_Z 56
_cell_length_a 18.009057
_cell_length_b 9.989600
_cell_length_c 12.785930
_cell_angle_alpha 90.000000
_cell_angle_beta 90.000000
_cell_angle_gamma 90.000000
_cell_volume 2300.230691
_symmetry_space_group_name_H-M "I B C A "
_symmetry_group_IT_number 73
_symmetry_cell_setting 'orthorhombic'
loop_
_space_group_symop_operation_xyz
x,y,z
-x,1/2-y,z
x,-y,1/2-z
1/2-x,y,-z
-x,-y,-z
x,1/2+y,-z
-x,y,1/2+z
1/2+x,-y,z
1/2+x,1/2+y,1/2+z
1/2-x,-y,1/2+z
1/2+x,1/2-y,-z
-x,1/2+y,1/2-z
1/2-x,1/2-y,1/2-z
1/2+x,y,1/2-z
1/2-x,1/2+y,z
x,1/2-y,1/2+z
loop_
_atom_site_type_symbol
_atom_site_label
_atom_site_fract_x
_atom_site_fract_y
_atom_site_fract_z
Si Si1 0.750000 0.198268 0.500000
Si Si2 0.989213 0.599726 0.152844
Si Si3 0.748162 0.376834 0.324321
Si Si4 0.374518 0.010132 0.478401
O O1 0.788148 0.303014 0.421080
O O2 0.684544 0.094714 0.469800
O O3 0.978660 0.500000 0.250000
O O4 0.000000 0.750000 0.193113
O O5 0.063619 0.567318 0.088762
O O6 0.923227 0.580083 0.068768
O O7 0.769984 0.500000 0.250000
O O8 0.750000 0.250000 0.250000
O O9 0.671803 0.415249 0.384990
#
# Coordination Sequence:
#
# PCOD9533561 Si02
#       4
#     8  16  16  16
#     4  12  26  50  78 126 162 206 274 348 422 506
#     4  11  27  52  82 114 161 226 281 347 416 512
#     4  12  26  48  78 118 162 212 261 342 422 503
#     4  11  26  52  80 116 167 212 284 346 419 509
#
# _framework density 24.345386000000001
#
# number of rings (size 3 to 8) (size 9 to 14) (size 15 to 20)
#    0.000    0.571    2.857    3.429    0.000    9.143 
#   10.286    0.000    0.000    0.000    0.000    0.000 
#    0.000    0.000    0.000    0.000    0.000    0.000 
#
# Total GULP energy -156083.858457 kJ/mol
# GULP energy per Si atom -5574.423516 kJ/mol
# Density = 2.428997 g / cm^3
# Si number density = 24.345386 Si / 1000 Ang^3
#
#
#
# Elastic Constant Matrix: (Units=GPa)
#
#
# Indices 1 2 3 4 5 6 
#
# 1 162.8250 44.2519 25.9668 0.0000 0.0000 0.0000
# 2 44.2519 217.1062 70.9064 0.0000 0.0000 0.0000
# 3 25.9668 70.9064 148.2199 0.0000 0.0000 0.0000
# 4 0.0000 0.0000 0.0000 44.0005 0.0000 0.0000
# 5 0.0000 0.0000 0.0000 0.0000 38.0609 0.0000
# 6 0.0000 0.0000 0.0000 0.0000 0.0000 31.8000
#
#
#
# Elastic Compliance Matrix: (Units=1/GPa)
#
#
# Indices 1 2 3 4 5 6 
#
# 1 0.006547 -0.001138 -0.000603 0.000000 0.000000 0.000000
# 2 -0.001138 0.005657 -0.002507 0.000000 0.000000 0.000000
# 3 -0.000603 -0.002507 0.008052 0.000000 0.000000 0.000000
# 4 0.000000 0.000000 0.000000 0.022727 0.000000 0.000000
# 5 0.000000 0.000000 0.000000 0.000000 0.026274 0.000000
# 6 0.000000 0.000000 0.000000 0.000000 0.000000 0.031447
#
#
# Mechanical properties :
#
#
# Convention : Reuss Voigt Hill
#
# Bulk Modulus (GPa) = 85.02792 90.04459 87.53625
# Shear Modulus (GPa) = 44.20216 48.57401 46.38808
#
# Velocity S-wave (km/s) = 4.26564 4.47162 4.36984
# Velocity P-wave (km/s) = 7.69821 7.98292 7.84186
#
# Compressibility (1/GPa) = 0.01176084
#
# Stress axis : x y z
#
# Youngs Moduli (GPa) = 152.74525 176.78444 124.19999
#
# Poissons Ratio (x) = 0.20110 0.07486
# Poissons Ratio (y) = 0.17376 0.31134
# Poissons Ratio (z) = 0.09207 0.44316
#
# Static dielectric constant tensor:
#      x y z
#    x 1.905450 0.000000 0.000000 
#    y 0.000000 2.249520 0.000000 
#    z 0.000000 0.000000 2.209010 
# 
# From -- ./inp_files/18393.got.cif
#   From: 2010.05.17/outbox.cif.g08.bks.cpg/sg73_10_cif.got.tgz:18393.got - 2010.06.03 17:35:07.
