data_PCOD9533873
_publ_section_title
;
Structure prediction by ZEFSAII (Michael W. Deem and Ramdas Pophale) SiO2 
 PCOD9533873
Probable space group: I M M A
;
_chemical_formula_sum "Si O2"
_cell_formula_units_Z 60
_cell_length_a 25.148552
_cell_length_b 7.834405
_cell_length_c 18.854396
_cell_angle_alpha 90.000000
_cell_angle_beta 90.000000
_cell_angle_gamma 90.000000
_cell_volume 3714.767415
_symmetry_space_group_name_H-M "I M M A"
_symmetry_group_IT_number 74
_symmetry_cell_setting 'orthorhombic'
loop_
_space_group_symop_operation_xyz
x,y,z
-x,1/2-y,z
x,-y,-z
-x,1/2+y,-z
-x,-y,-z
x,1/2+y,-z
-x,y,z
x,1/2-y,z
1/2+x,1/2+y,1/2+z
1/2-x,-y,1/2+z
1/2+x,1/2-y,1/2-z
1/2-x,y,1/2-z
1/2-x,1/2-y,1/2-z
1/2+x,y,1/2-z
1/2-x,1/2+y,1/2+z
1/2+x,-y,1/2+z
loop_
_atom_site_type_symbol
_atom_site_label
_atom_site_fract_x
_atom_site_fract_y
_atom_site_fract_z
Si Si1 0.276306 0.750000 0.672870
Si Si2 0.615121 0.250000 0.253774
Si Si3 0.386488 0.442893 0.111458
Si Si4 0.000000 0.250000 0.250937
Si Si5 0.500000 0.556587 0.135631
Si Si6 0.729770 0.055219 0.920294
O O1 0.250000 0.750000 0.750000
O O2 0.338807 0.750000 0.689251
O O3 0.256044 0.583261 0.631475
O O4 0.618823 0.092843 0.196979
O O5 0.556438 0.250000 0.287036
O O6 0.385338 0.250000 0.080932
O O7 0.443828 0.524488 0.096336
O O8 0.334259 0.540002 0.087411
O O9 0.000000 0.413331 0.303199
O O10 0.500000 0.750000 0.162164
O O11 0.745774 0.250000 0.906280
O O12 0.743503 0.000000 0.000000
#
# Coordination Sequence:
#
# PCOD9533873 Si02
#       6
#     8   8  16   4   8  16
#     4  12  20  40  56  84 117 140 191 236 268 328
#     4   8  16  32  58  76 110 146 170 236 268 320
#     4   9  16  33  50  71 107 142 184 227 271 314
#     4   8  16  32  48  78 110 138 176 216 294 308
#     4  10  16  26  47  73 101 145 186 225 262 314
#     4  12  23  37  56  78 112 154 185 226 287 333
#
# _framework density 16.151751000000001
#
# number of rings (size 3 to 8) (size 9 to 14) (size 15 to 20)
#    0.800    1.067    6.667    0.800    0.000    0.533 
#    0.000    2.000    0.000    0.000    0.000    0.933 
#    0.000    0.000    0.000    0.000    0.000    0.000 
#
# Total GULP energy -167014.712860 kJ/mol
# GULP energy per Si atom -5567.157095 kJ/mol
# Density = 1.611499 g / cm^3
# Si number density = 16.151751 Si / 1000 Ang^3
#
#
#
# Elastic Constant Matrix: (Units=GPa)
#
#
# Indices 1 2 3 4 5 6 
#
# 1 103.4593 30.1324 37.0803 0.0000 0.0000 0.0000
# 2 30.1324 137.3025 38.2997 0.0000 0.0000 0.0000
# 3 37.0803 38.2997 75.8324 0.0000 0.0000 0.0000
# 4 0.0000 0.0000 0.0000 19.9249 0.0000 0.0000
# 5 0.0000 0.0000 0.0000 0.0000 8.0210 0.0000
# 6 0.0000 0.0000 0.0000 0.0000 0.0000 6.3831
#
#
#
# Elastic Compliance Matrix: (Units=1/GPa)
#
#
# Indices 1 2 3 4 5 6 
#
# 1 0.011873 -0.001148 -0.005226 0.000000 0.000000 0.000000
# 2 -0.001148 0.008589 -0.003776 0.000000 0.000000 0.000000
# 3 -0.005226 -0.003776 0.017650 0.000000 0.000000 0.000000
# 4 0.000000 0.000000 0.000000 0.050189 0.000000 0.000000
# 5 0.000000 0.000000 0.000000 0.000000 0.124673 0.000000
# 6 0.000000 0.000000 0.000000 0.000000 0.000000 0.156664
#
#
# Mechanical properties :
#
#
# Convention : Reuss Voigt Hill
#
# Bulk Modulus (GPa) = 56.14584 58.62433 57.38508
# Shear Modulus (GPa) = 12.63028 20.93790 16.78409
#
# Velocity S-wave (km/s) = 2.79942 3.60436 3.22708
# Velocity P-wave (km/s) = 6.72948 7.32780 7.03500
#
# Compressibility (1/GPa) = 0.01781076
#
# Stress axis : x y z
#
# Youngs Moduli (GPa) = 84.22522 116.43462 56.65864
#
# Poissons Ratio (x) = 0.13366 0.29609
# Poissons Ratio (y) = 0.09668 0.21396
# Poissons Ratio (z) = 0.44015 0.43970
#
# Static dielectric constant tensor:
#      x y z
#    x 1.581370 0.000000 0.000000 
#    y 0.000000 1.554500 0.000000 
#    z 0.000000 0.000000 1.525720 
# 
# From -- ./inp_files/46411.got.cif
#   From: 2010.05.17/outbox.cif.g08.bks.cpg/sg74_24_cif.got.tgz:46411.got - 2010.06.03 17:57:02.
