data_PCOD9533541
_publ_section_title
;
Structure prediction by ZEFSAII (Michael W. Deem and Ramdas Pophale) SiO2 
 PCOD9533541
Probable space group: I B C A 
;
_chemical_formula_sum "Si O2"
_cell_formula_units_Z 64
_cell_length_a 9.460813
_cell_length_b 10.866368
_cell_length_c 24.878029
_cell_angle_alpha 90.000000
_cell_angle_beta 90.000000
_cell_angle_gamma 90.000000
_cell_volume 2557.577702
_symmetry_space_group_name_H-M "I B C A "
_symmetry_group_IT_number 73
_symmetry_cell_setting 'orthorhombic'
loop_
_space_group_symop_operation_xyz
x,y,z
-x,1/2-y,z
x,-y,1/2-z
1/2-x,y,-z
-x,-y,-z
x,1/2+y,-z
-x,y,1/2+z
1/2+x,-y,z
1/2+x,1/2+y,1/2+z
1/2-x,-y,1/2+z
1/2+x,1/2-y,-z
-x,1/2+y,1/2-z
1/2-x,1/2-y,1/2-z
1/2+x,y,1/2-z
1/2-x,1/2+y,z
x,1/2-y,1/2+z
loop_
_atom_site_type_symbol
_atom_site_label
_atom_site_fract_x
_atom_site_fract_y
_atom_site_fract_z
Si Si1 0.693131 0.586270 0.348108
Si Si2 0.051247 0.552589 0.915528
Si Si3 0.890682 0.833160 0.516513
Si Si4 0.359868 0.000000 0.750000
Si Si5 0.500000 0.250000 0.720056
O O1 0.828057 0.625387 0.383913
O O2 0.567108 0.513344 0.378543
O O3 0.762751 0.499226 0.302762
O O4 0.626038 0.701593 0.317571
O O5 0.970730 0.621827 0.963224
O O6 0.142007 0.447976 0.946391
O O7 0.750000 0.764431 0.500000
O O8 0.000000 0.750000 0.548125
O O9 0.449465 0.126973 0.751120
#
# Coordination Sequence:
#
# PCOD9533541 Si02
#       5
#    16  16  16   8   8
#     4  12  26  49  77 111 155 206 265 328 400 468
#     4  11  26  47  74 106 153 202 262 322 393 471
#     4  11  26  44  70 109 151 200 258 326 392 471
#     4  12  28  54  80 122 160 206 264 334 404 482
#     4  12  28  52  84 116 160 212 268 338 398 484
#
# _framework density 25.023678
#
# number of rings (size 3 to 8) (size 9 to 14) (size 15 to 20)
#    0.000    0.500    5.000    1.500    5.250    2.000 
#    2.250    0.000    0.000    0.000    0.000    0.000 
#    0.000    0.000    0.000    0.000    0.000    0.000 
#
# Total GULP energy -179166.042288 kJ/mol
# GULP energy per Si atom -5598.938821 kJ/mol
# Density = 2.496672 g / cm^3
# Si number density = 25.023678 Si / 1000 Ang^3
#
#
#
# Elastic Constant Matrix: (Units=GPa)
#
#
# Indices 1 2 3 4 5 6 
#
# 1 147.4112 31.1363 29.4526 0.0000 0.0000 0.0000
# 2 31.1363 108.2021 13.7290 0.0000 0.0000 0.0000
# 3 29.4526 13.7290 78.6048 0.0000 0.0000 0.0000
# 4 0.0000 0.0000 0.0000 21.9243 0.0000 0.0000
# 5 0.0000 0.0000 0.0000 0.0000 29.7242 0.0000
# 6 0.0000 0.0000 0.0000 0.0000 0.0000 42.7947
#
#
#
# Elastic Compliance Matrix: (Units=1/GPa)
#
#
# Indices 1 2 3 4 5 6 
#
# 1 0.007693 -0.001890 -0.002552 0.000000 0.000000 0.000000
# 2 -0.001890 0.009916 -0.001024 0.000000 0.000000 0.000000
# 3 -0.002552 -0.001024 0.013857 0.000000 0.000000 0.000000
# 4 0.000000 0.000000 0.000000 0.045612 0.000000 0.000000
# 5 0.000000 0.000000 0.000000 0.000000 0.033643 0.000000
# 6 0.000000 0.000000 0.000000 0.000000 0.000000 0.023367
#
#
# Mechanical properties :
#
#
# Convention : Reuss Voigt Hill
#
# Bulk Modulus (GPa) = 48.70059 53.65044 51.17552
# Shear Modulus (GPa) = 32.92429 36.21534 34.56981
#
# Velocity S-wave (km/s) = 3.63123 3.80839 3.72086
# Velocity P-wave (km/s) = 6.08976 6.38943 6.24139
#
# Compressibility (1/GPa) = 0.02053363
#
# Stress axis : x y z
#
# Youngs Moduli (GPa) = 129.99027 100.85031 72.16555
#
# Poissons Ratio (x) = 0.19059 0.18419
# Poissons Ratio (y) = 0.24566 0.07388
# Poissons Ratio (z) = 0.33178 0.10325
#
# Static dielectric constant tensor:
#      x y z
#    x 1.963870 0.000000 0.000000 
#    y 0.000000 2.000800 0.000000 
#    z 0.000000 0.000000 1.969320 
# 
# From -- ./inp_files/28730.got.cif
#   From: 2010.05.17/outbox.cif.g08.bks.cpg/sg73_15_cif.got.tgz:28730.got - 2010.06.03 17:35:07.
