data_PCOD9533164
_publ_section_title
;
Structure prediction by ZEFSAII (Michael W. Deem and Ramdas Pophale) SiO2 
 PCOD9533164
Probable space group: I B C A 
;
_chemical_formula_sum "Si O2"
_cell_formula_units_Z 128
_cell_length_a 12.110216
_cell_length_b 23.486904
_cell_length_c 25.164896
_cell_angle_alpha 90.000000
_cell_angle_beta 90.000000
_cell_angle_gamma 90.000000
_cell_volume 7157.688629
_symmetry_space_group_name_H-M "I B C A "
_symmetry_group_IT_number 73
_symmetry_cell_setting 'orthorhombic'
loop_
_space_group_symop_operation_xyz
x,y,z
-x,1/2-y,z
x,-y,1/2-z
1/2-x,y,-z
-x,-y,-z
x,1/2+y,-z
-x,y,1/2+z
1/2+x,-y,z
1/2+x,1/2+y,1/2+z
1/2-x,-y,1/2+z
1/2+x,1/2-y,-z
-x,1/2+y,1/2-z
1/2-x,1/2-y,1/2-z
1/2+x,y,1/2-z
1/2-x,1/2+y,z
x,1/2-y,1/2+z
loop_
_atom_site_type_symbol
_atom_site_label
_atom_site_fract_x
_atom_site_fract_y
_atom_site_fract_z
Si Si1 0.981332 0.318229 0.285337
Si Si2 0.361018 0.123878 0.915479
Si Si3 0.553094 0.809933 0.990904
Si Si4 0.474170 0.682257 0.665399
Si Si5 0.348138 0.377682 0.042212
Si Si6 0.720494 0.191804 0.145416
Si Si7 0.154899 0.680049 0.125188
Si Si8 0.875379 0.495927 0.028791
O O1 0.999544 0.337357 0.225401
O O2 0.067628 0.338368 0.330117
O O3 0.000000 0.250000 0.284652
O O4 0.858910 0.328076 0.307091
O O5 0.455213 0.147372 0.876808
O O6 0.245372 0.132418 0.885907
O O7 0.380145 0.060368 0.935637
O O8 0.361490 0.166563 0.966216
O O9 0.500000 0.750000 0.007324
O O10 0.456478 0.856171 0.987823
O O11 0.597619 0.805807 0.931051
O O12 0.500000 0.750000 0.660970
O O13 0.345543 0.674983 0.654196
O O14 0.324228 0.336328 0.091388
O O15 0.364514 0.443284 0.057974
O O16 0.250000 0.374021 0.000000
O O17 0.711165 0.260465 0.142581
O O18 0.750000 0.490880 0.000000
O O19 0.000000 0.500000 0.000000
#
# Coordination Sequence:
#
# PCOD9533164 Si02
#       8
#    16  16  16  16  16  16  16  16
#     4   9  21  37  60  87 125 167 201 245 304 372
#     4  12  25  38  60  91 124 158 204 253 304 361
#     4  12  21  34  55  92 128 156 193 244 314 373
#     4  11  23  38  60  94 125 159 204 251 306 365
#     4  11  23  38  60  86 124 161 199 249 301 370
#     4  11  21  38  58  90 124 161 201 245 310 365
#     4  11  21  36  57  92 126 160 197 245 309 370
#     4  11  25  45  63  87 123 170 216 247 299 373
#
# _framework density 17.882868999999999
#
# number of rings (size 3 to 8) (size 9 to 14) (size 15 to 20)
#    0.000    1.000    5.000    2.625    5.250    1.500 
#    0.000    0.000    0.000    0.750    0.000    0.000 
#    0.000    0.000    0.000    0.000    0.000    0.000 
#
# Total GULP energy -357020.990438 kJ/mol
# GULP energy per Si atom -5578.452976 kJ/mol
# Density = 1.784217 g / cm^3
# Si number density = 17.882869 Si / 1000 Ang^3
#
#
#
# Elastic Constant Matrix: (Units=GPa)
#
#
# Indices 1 2 3 4 5 6 
#
# 1 113.5439 19.8400 32.8808 0.0000 0.0000 0.0000
# 2 19.8400 86.7505 18.1336 0.0000 0.0000 0.0000
# 3 32.8808 18.1336 80.4718 0.0000 0.0000 0.0000
# 4 0.0000 0.0000 0.0000 11.5692 0.0000 0.0000
# 5 0.0000 0.0000 0.0000 0.0000 8.2705 0.0000
# 6 0.0000 0.0000 0.0000 0.0000 0.0000 19.4797
#
#
#
# Elastic Compliance Matrix: (Units=1/GPa)
#
#
# Indices 1 2 3 4 5 6 
#
# 1 0.010179 -0.001531 -0.003814 0.000000 0.000000 0.000000
# 2 -0.001531 0.012327 -0.002152 0.000000 0.000000 0.000000
# 3 -0.003814 -0.002152 0.014470 0.000000 0.000000 0.000000
# 4 0.000000 0.000000 0.000000 0.086436 0.000000 0.000000
# 5 0.000000 0.000000 0.000000 0.000000 0.120911 0.000000
# 6 0.000000 0.000000 0.000000 0.000000 0.000000 0.051336
#
#
# Mechanical properties :
#
#
# Convention : Reuss Voigt Hill
#
# Bulk Modulus (GPa) = 45.49183 46.94168 46.21675
# Shear Modulus (GPa) = 15.72417 21.85801 18.79109
#
# Velocity S-wave (km/s) = 2.96849 3.49992 3.24510
# Velocity P-wave (km/s) = 6.10273 6.52986 6.31990
#
# Compressibility (1/GPa) = 0.02198197
#
# Stress axis : x y z
#
# Youngs Moduli (GPa) = 98.23961 81.12074 69.10729
#
# Poissons Ratio (x) = 0.12417 0.26359
# Poissons Ratio (y) = 0.15037 0.14875
# Poissons Ratio (z) = 0.37471 0.17461
#
# Static dielectric constant tensor:
#      x y z
#    x 1.636990 0.000000 0.000000 
#    y 0.000000 1.585770 0.000000 
#    z 0.000000 0.000000 1.655210 
# 
# From -- ./inp_files/29147.got.cif
#   From: 2010.05.17/outbox.cif.g08.bks.cpg/sg73_15_cif.got.tgz:29147.got - 2010.06.03 17:35:07.
