data_PCOD9533596
_publ_section_title
;
Structure prediction by ZEFSAII (Michael W. Deem and Ramdas Pophale) SiO2 
 PCOD9533596
Probable space group: I B C A 
;
_chemical_formula_sum "Si O2"
_cell_formula_units_Z 72
_cell_length_a 29.731107
_cell_length_b 20.850781
_cell_length_c 5.485917
_cell_angle_alpha 90.000000
_cell_angle_beta 90.000000
_cell_angle_gamma 90.000000
_cell_volume 3400.812117
_symmetry_space_group_name_H-M "I B C A "
_symmetry_group_IT_number 73
_symmetry_cell_setting 'orthorhombic'
loop_
_space_group_symop_operation_xyz
x,y,z
-x,1/2-y,z
x,-y,1/2-z
1/2-x,y,-z
-x,-y,-z
x,1/2+y,-z
-x,y,1/2+z
1/2+x,-y,z
1/2+x,1/2+y,1/2+z
1/2-x,-y,1/2+z
1/2+x,1/2-y,-z
-x,1/2+y,1/2-z
1/2-x,1/2-y,1/2-z
1/2+x,y,1/2-z
1/2-x,1/2+y,z
x,1/2-y,1/2+z
loop_
_atom_site_type_symbol
_atom_site_label
_atom_site_fract_x
_atom_site_fract_y
_atom_site_fract_z
Si Si1 0.992734 0.891585 0.808079
Si Si2 0.575093 0.290354 0.314972
Si Si3 0.642137 0.094117 0.831101
Si Si4 0.778033 0.000000 0.250000
Si Si5 0.097216 0.066841 0.170969
O O1 0.029258 0.834268 0.816327
O O2 0.002797 0.927157 0.560910
O O3 0.939690 0.877704 0.801547
O O4 0.574484 0.248980 0.562433
O O5 0.620613 0.334352 0.315765
O O6 0.690985 0.064314 0.774775
O O7 0.614329 0.063318 0.603844
O O8 0.633266 0.076159 0.113967
O O9 0.750000 0.004987 0.500000
O O10 0.075518 0.000000 0.250000
#
# Coordination Sequence:
#
# PCOD9533596 Si02
#       5
#    16  16  16   8  16
#     4  12  23  40  56  94 133 187 253 269 320 354
#     4  12  26  44  66  92 141 196 241 282 313 368
#     4  12  24  47  68 104 136 171 228 272 352 422
#     4  12  26  48  82 110 132 160 198 288 374 438
#     4  12  22  41  64  93 141 193 222 284 332 397
#
# _framework density 21.171413999999999
#
# number of rings (size 3 to 8) (size 9 to 14) (size 15 to 20)
#    0.000    0.000    6.667    4.000    0.000    3.556 
#    2.000    0.000    0.000    4.000    0.000    0.000 
#    0.000    0.000    0.000    0.000    0.000    0.000 
#
# Total GULP energy -200487.633125 kJ/mol
# GULP energy per Si atom -5569.100920 kJ/mol
# Density = 2.112323 g / cm^3
# Si number density = 21.171414 Si / 1000 Ang^3
#
#
#
# Elastic Constant Matrix: (Units=GPa)
#
#
# Indices 1 2 3 4 5 6 
#
# 1 127.3686 46.2170 48.6744 0.0000 0.0000 0.0000
# 2 46.2170 103.2463 47.7880 0.0000 0.0000 0.0000
# 3 48.6744 47.7880 206.7079 0.0000 0.0000 0.0000
# 4 0.0000 0.0000 0.0000 28.3239 0.0000 0.0000
# 5 0.0000 0.0000 0.0000 0.0000 48.6999 0.0000
# 6 0.0000 0.0000 0.0000 0.0000 0.0000 37.6698
#
#
#
# Elastic Compliance Matrix: (Units=1/GPa)
#
#
# Indices 1 2 3 4 5 6 
#
# 1 0.009742 -0.003694 -0.001440 0.000000 0.000000 0.000000
# 2 -0.003694 0.012247 -0.001961 0.000000 0.000000 0.000000
# 3 -0.001440 -0.001961 0.005630 0.000000 0.000000 0.000000
# 4 0.000000 0.000000 0.000000 0.035306 0.000000 0.000000
# 5 0.000000 0.000000 0.000000 0.000000 0.020534 0.000000
# 6 0.000000 0.000000 0.000000 0.000000 0.000000 0.026546
#
#
# Mechanical properties :
#
#
# Convention : Reuss Voigt Hill
#
# Bulk Modulus (GPa) = 74.47149 80.29796 77.38472
# Shear Modulus (GPa) = 38.85808 42.58162 40.71985
#
# Velocity S-wave (km/s) = 4.28881 4.48959 4.39035
# Velocity P-wave (km/s) = 7.73156 8.05513 7.89500
#
# Compressibility (1/GPa) = 0.01342796
#
# Stress axis : x y z
#
# Youngs Moduli (GPa) = 102.64766 81.65123 177.61168
#
# Poissons Ratio (x) = 0.30166 0.25574
# Poissons Ratio (y) = 0.37923 0.34837
# Poissons Ratio (z) = 0.14780 0.16015
#
# Static dielectric constant tensor:
#      x y z
#    x 1.783740 0.000000 0.000000 
#    y 0.000000 1.869520 0.000000 
#    z 0.000000 0.000000 1.844630 
# 
# From -- ./inp_files/2530.got.cif
#   From: 2010.05.17/outbox.cif.g08.bks.cpg/sg73_2_cif.got.tgz:2530.got - 2010.06.03 17:35:07.
