data_PCOD9533112
_publ_section_title
;
Structure prediction by ZEFSAII (Michael W. Deem and Ramdas Pophale) SiO2 
 PCOD9533112
Probable space group: I B C A 
;
_chemical_formula_sum "Si O2"
_cell_formula_units_Z 88
_cell_length_a 23.588044
_cell_length_b 8.209123
_cell_length_c 18.262688
_cell_angle_alpha 90.000000
_cell_angle_beta 90.000000
_cell_angle_gamma 90.000000
_cell_volume 3536.334938
_symmetry_space_group_name_H-M "I B C A "
_symmetry_group_IT_number 73
_symmetry_cell_setting 'orthorhombic'
loop_
_space_group_symop_operation_xyz
x,y,z
-x,1/2-y,z
x,-y,1/2-z
1/2-x,y,-z
-x,-y,-z
x,1/2+y,-z
-x,y,1/2+z
1/2+x,-y,z
1/2+x,1/2+y,1/2+z
1/2-x,-y,1/2+z
1/2+x,1/2-y,-z
-x,1/2+y,1/2-z
1/2-x,1/2-y,1/2-z
1/2+x,y,1/2-z
1/2-x,1/2+y,z
x,1/2-y,1/2+z
loop_
_atom_site_type_symbol
_atom_site_label
_atom_site_fract_x
_atom_site_fract_y
_atom_site_fract_z
Si Si1 0.303996 0.148269 0.601433
Si Si2 0.383824 0.165216 0.282384
Si Si3 0.073581 0.410402 0.916274
Si Si4 0.500000 0.250000 0.198683
Si Si5 0.814575 0.000000 0.750000
Si Si6 0.063350 0.277677 0.076746
Si Si7 0.750000 0.093341 0.500000
O O1 0.370527 0.182649 0.611069
O O2 0.283272 0.069935 0.677794
O O3 0.271578 0.300999 0.568252
O O4 0.297630 0.021312 0.534584
O O5 0.445565 0.193116 0.244512
O O6 0.350791 0.338615 0.274963
O O7 0.397483 0.127032 0.367183
O O8 0.356918 0.000000 0.250000
O O9 0.088458 0.597760 0.924653
O O10 0.024286 0.385968 0.857093
O O11 0.057751 0.349149 0.996308
O O12 0.000000 0.250000 0.105328
#
# Coordination Sequence:
#
# PCOD9533112 Si02
#       7
#    16  16  16   8   8  16   8
#     4  11  24  49  77 106 145 186 246 317 382 451
#     4  12  26  42  67 101 149 201 242 289 357 431
#     4  12  25  41  69 100 146 186 242 296 352 440
#     4  12  24  42  66 104 148 202 242 294 352 440
#     4  12  26  50  72 112 148 188 242 318 362 452
#     4  12  24  40  60 100 142 194 241 288 344 425
#     4  10  26  50  78 108 136 192 242 320 406 446
#
# _framework density 24.884519999999998
#
# number of rings (size 3 to 8) (size 9 to 14) (size 15 to 20)
#    0.000    0.364    5.455    2.727    3.818    2.182 
#    3.273    0.000    0.000    0.000    0.000    0.000 
#    0.000    0.000    0.000    0.000    0.000    0.000 
#
# Total GULP energy -246142.008474 kJ/mol
# GULP energy per Si atom -5594.136556 kJ/mol
# Density = 2.482788 g / cm^3
# Si number density = 24.884520 Si / 1000 Ang^3
#
#
#
# Elastic Constant Matrix: (Units=GPa)
#
#
# Indices 1 2 3 4 5 6 
#
# 1 37.1734 -1.9553 -11.8848 0.0000 0.0000 0.0000
# 2 -1.9553 71.6626 -0.6765 0.0000 0.0000 0.0000
# 3 -11.8848 -0.6765 123.9797 0.0000 0.0000 0.0000
# 4 0.0000 0.0000 0.0000 27.0896 0.0000 0.0000
# 5 0.0000 0.0000 0.0000 0.0000 31.4280 0.0000
# 6 0.0000 0.0000 0.0000 0.0000 0.0000 -1.1019
#
#
#
# Elastic Compliance Matrix: (Units=1/GPa)
#
#
# Indices 1 2 3 4 5 6 
#
# 1 0.027795 0.000784 0.002669 0.000000 0.000000 0.000000
# 2 0.000784 0.013977 0.000151 0.000000 0.000000 0.000000
# 3 0.002669 0.000151 0.008322 0.000000 0.000000 0.000000
# 4 0.000000 0.000000 0.000000 0.036915 0.000000 0.000000
# 5 0.000000 0.000000 0.000000 0.000000 0.031819 0.000000
# 6 0.000000 0.000000 0.000000 0.000000 0.000000 -0.907536
#
#
# Mechanical properties :
#
#
# Convention : Reuss Voigt Hill
#
# Bulk Modulus (GPa) = 17.45124 22.64248 20.04686
# Shear Modulus (GPa) = -6.43654 27.97196 10.76771
#
# Velocity S-wave (km/s) = -1.61003 3.35635 2.08242
# Velocity P-wave (km/s) = 1.88994 4.91314 3.72228
#
# Compressibility (1/GPa) = 0.05730252
#
# Stress axis : x y z
#
# Youngs Moduli (GPa) = 35.97713 71.54567 120.15625
#
# Poissons Ratio (x) = -0.05606 -0.32067
# Poissons Ratio (y) = -0.02819 -0.01819
# Poissons Ratio (z) = -0.09601 -0.01083
#
# Static dielectric constant tensor:
#      x y z
#    x 1.992380 0.000000 0.000000 
#    y 0.000000 1.976010 0.000000 
#    z 0.000000 0.000000 1.981350 
# 
# From -- ./inp_files/27221.got.cif
#   From: 2010.05.17/outbox.cif.g08.bks.cpg/sg73_14_cif.got.tgz:27221.got - 2010.06.03 17:35:07.
