data_PCOD9533817
_publ_section_title
;
Structure prediction by ZEFSAII (Michael W. Deem and Ramdas Pophale) SiO2 
 PCOD9533817
Probable space group: I M M A
;
_chemical_formula_sum "Si O2"
_cell_formula_units_Z 112
_cell_length_a 21.541039
_cell_length_b 24.959915
_cell_length_c 9.590337
_cell_angle_alpha 90.000000
_cell_angle_beta 90.000000
_cell_angle_gamma 90.000000
_cell_volume 5156.364591
_symmetry_space_group_name_H-M "I M M A"
_symmetry_group_IT_number 74
_symmetry_cell_setting 'orthorhombic'
loop_
_space_group_symop_operation_xyz
x,y,z
-x,1/2-y,z
x,-y,-z
-x,1/2+y,-z
-x,-y,-z
x,1/2+y,-z
-x,y,z
x,1/2-y,z
1/2+x,1/2+y,1/2+z
1/2-x,-y,1/2+z
1/2+x,1/2-y,1/2-z
1/2-x,y,1/2-z
1/2-x,1/2-y,1/2-z
1/2+x,y,1/2-z
1/2-x,1/2+y,1/2+z
1/2+x,-y,1/2+z
loop_
_atom_site_type_symbol
_atom_site_label
_atom_site_fract_x
_atom_site_fract_y
_atom_site_fract_z
Si Si1 0.930719 0.551773 0.396330
Si Si2 0.148939 0.190261 0.792053
Si Si3 0.268518 0.309465 0.986454
Si Si4 0.354471 0.614953 0.894932
Si Si5 0.926877 0.190484 0.208362
Si Si6 0.072349 0.890083 0.051902
Si Si7 0.075294 0.035944 0.188826
O O1 0.932482 0.500000 0.500000
O O2 0.879847 0.589879 0.462347
O O3 0.919098 0.524440 0.246601
O O4 0.000000 0.575545 0.402370
O O5 0.119395 0.250000 0.805876
O O6 0.202807 0.186287 0.909288
O O7 0.182346 0.189464 0.642010
O O8 0.106394 0.139017 0.821097
O O9 0.272080 0.250000 0.052766
O O10 0.286296 0.360083 0.082677
O O11 0.392964 0.665930 0.841121
O O12 0.376053 0.570290 0.782345
O O13 0.904504 0.250000 0.178394
O O14 0.918686 0.153442 0.073637
O O15 0.000000 0.191275 0.237316
O O16 0.088402 0.944343 0.967377
O O17 0.000000 0.893252 0.084692
O O18 0.000000 0.049042 0.212865
#
# Coordination Sequence:
#
# PCOD9533817 Si02
#       7
#    16  16  16  16  16  16  16
#     4   8  13  23  41  66  93 121 153 187 224 275
#     4   9  18  34  50  63  85 122 165 199 228 275
#     4   9  19  33  47  64  87 122 163 198 233 277
#     4  10  15  24  43  66  87 120 155 192 225 280
#     4   9  16  24  36  60  96 127 148 186 246 291
#     4   9  16  28  48  70  91 121 158 195 240 289
#     4   8  15  27  44  70  99 123 150 192 242 287
#
# _framework density 21.720728999999999
#
# number of rings (size 3 to 8) (size 9 to 14) (size 15 to 20)
#    0.000    3.143    0.000    4.714    0.000    0.857 
#    0.000    5.000    0.000   11.143   22.286    3.000 
#    0.000    0.000    0.000    0.000    0.000    0.000 
#
# Total GULP energy -312034.569731 kJ/mol
# GULP energy per Si atom -5572.045888 kJ/mol
# Density = 2.167129 g / cm^3
# Si number density = 21.720729 Si / 1000 Ang^3
#
#
#
# Elastic Constant Matrix: (Units=GPa)
#
#
# Indices 1 2 3 4 5 6 
#
# 1 16.8103 12.6254 4.9659 0.0000 0.0000 0.0000
# 2 12.6254 85.3904 4.2742 0.0000 0.0000 0.0000
# 3 4.9659 4.2742 88.1920 0.0000 0.0000 0.0000
# 4 0.0000 0.0000 0.0000 30.9152 0.0000 0.0000
# 5 0.0000 0.0000 0.0000 0.0000 25.2244 0.0000
# 6 0.0000 0.0000 0.0000 0.0000 0.0000 14.4496
#
#
#
# Elastic Compliance Matrix: (Units=1/GPa)
#
#
# Indices 1 2 3 4 5 6 
#
# 1 0.067888 -0.009870 -0.003344 0.000000 0.000000 0.000000
# 2 -0.009870 0.013174 -0.000083 0.000000 0.000000 0.000000
# 3 -0.003344 -0.000083 0.011531 0.000000 0.000000 0.000000
# 4 0.000000 0.000000 0.000000 0.032347 0.000000 0.000000
# 5 0.000000 0.000000 0.000000 0.000000 0.039644 0.000000
# 6 0.000000 0.000000 0.000000 0.000000 0.000000 0.069206
#
#
# Mechanical properties :
#
#
# Convention : Reuss Voigt Hill
#
# Bulk Modulus (GPa) = 15.15162 26.01374 20.58268
# Shear Modulus (GPa) = 17.70635 25.35301 21.52968
#
# Velocity S-wave (km/s) = 2.85824 3.42018 3.15176
# Velocity P-wave (km/s) = 4.22889 5.25350 4.76879
#
# Compressibility (1/GPa) = 0.06599953
#
# Stress axis : x y z
#
# Youngs Moduli (GPa) = 14.73009 75.90474 86.72113
#
# Poissons Ratio (x) = 0.74919 0.29002
# Poissons Ratio (y) = 0.14539 0.00717
# Poissons Ratio (z) = 0.04926 0.00628
#
# Static dielectric constant tensor:
#      x y z
#    x 1.745320 0.000000 0.000000 
#    y 0.000000 1.853240 0.000000 
#    z 0.000000 0.000000 1.876540 
# 
# From -- ./inp_files/24357.got.cif
#   From: 2010.05.17/outbox.cif.g08.bks.cpg/sg74_13_cif.got.tgz:24357.got - 2010.06.03 17:57:02.
