data_PCOD9533313
_publ_section_title
;
Structure prediction by ZEFSAII (Michael W. Deem and Ramdas Pophale) SiO2 
 PCOD9533313
Probable space group: I B C A 
;
_chemical_formula_sum "Si O2"
_cell_formula_units_Z 64
_cell_length_a 4.904633
_cell_length_b 21.482144
_cell_length_c 23.095275
_cell_angle_alpha 90.000000
_cell_angle_beta 90.000000
_cell_angle_gamma 90.000000
_cell_volume 2433.365112
_symmetry_space_group_name_H-M "I B C A "
_symmetry_group_IT_number 73
_symmetry_cell_setting 'orthorhombic'
loop_
_space_group_symop_operation_xyz
x,y,z
-x,1/2-y,z
x,-y,1/2-z
1/2-x,y,-z
-x,-y,-z
x,1/2+y,-z
-x,y,1/2+z
1/2+x,-y,z
1/2+x,1/2+y,1/2+z
1/2-x,-y,1/2+z
1/2+x,1/2-y,-z
-x,1/2+y,1/2-z
1/2-x,1/2-y,1/2-z
1/2+x,y,1/2-z
1/2-x,1/2+y,z
x,1/2-y,1/2+z
loop_
_atom_site_type_symbol
_atom_site_label
_atom_site_fract_x
_atom_site_fract_y
_atom_site_fract_z
Si Si1 0.865074 0.105404 0.061360
Si Si2 0.639668 0.687831 0.412320
Si Si3 0.988579 0.038915 0.672183
Si Si4 0.858121 0.675543 0.287399
O O1 0.996187 0.054442 0.103428
O O2 0.100916 0.157814 0.055133
O O3 0.750000 0.083435 0.000000
O O4 0.895275 0.137635 0.907954
O O5 0.500000 0.750000 0.436797
O O6 0.755156 0.701878 0.348224
O O7 0.876489 0.101385 0.700502
O O8 0.292682 0.018144 0.686327
O O9 0.657888 0.690396 0.234755
#
# Coordination Sequence:
#
# PCOD9533313 Si02
#       4
#    16  16  16  16
#     4  11  24  43  66  95 132 172 221 278 333 399
#     4  11  24  43  66  95 132 172 221 278 333 399
#     4  11  23  40  63  93 128 168 216 269 325 389
#     4  11  23  40  63  93 128 168 216 269 325 389
#
# _framework density 26.301024999999999
#
# number of rings (size 3 to 8) (size 9 to 14) (size 15 to 20)
#    0.000    1.000    0.000    9.000    0.000    7.000 
#    0.000    0.000    0.000    0.000    0.000    0.000 
#    0.000    0.000    0.000    0.000    0.000    0.000 
#
# Total GULP energy -179465.817245 kJ/mol
# GULP energy per Si atom -5608.306789 kJ/mol
# Density = 2.624116 g / cm^3
# Si number density = 26.301025 Si / 1000 Ang^3
#
#
#
# Elastic Constant Matrix: (Units=GPa)
#
#
# Indices 1 2 3 4 5 6 
#
# 1 157.5163 30.9165 27.2196 0.0000 0.0000 0.0000
# 2 30.9165 65.2913 11.0269 0.0000 0.0000 0.0000
# 3 27.2196 11.0269 134.6445 0.0000 0.0000 0.0000
# 4 0.0000 0.0000 0.0000 31.1482 0.0000 0.0000
# 5 0.0000 0.0000 0.0000 0.0000 48.2701 0.0000
# 6 0.0000 0.0000 0.0000 0.0000 0.0000 46.6881
#
#
#
# Elastic Compliance Matrix: (Units=1/GPa)
#
#
# Indices 1 2 3 4 5 6 
#
# 1 0.007182 -0.003200 -0.001190 0.000000 0.000000 0.000000
# 2 -0.003200 0.016956 -0.000742 0.000000 0.000000 0.000000
# 3 -0.001190 -0.000742 0.007728 0.000000 0.000000 0.000000
# 4 0.000000 0.000000 0.000000 0.032105 0.000000 0.000000
# 5 0.000000 0.000000 0.000000 0.000000 0.020717 0.000000
# 6 0.000000 0.000000 0.000000 0.000000 0.000000 0.021419
#
#
# Mechanical properties :
#
#
# Convention : Reuss Voigt Hill
#
# Bulk Modulus (GPa) = 46.28827 55.08645 50.68736
# Shear Modulus (GPa) = 40.46241 44.44055 42.45148
#
# Velocity S-wave (km/s) = 3.92654 4.11504 4.02190
# Velocity P-wave (km/s) = 6.18018 6.60062 6.39386
#
# Compressibility (1/GPa) = 0.02160374
#
# Stress axis : x y z
#
# Youngs Moduli (GPa) = 139.23239 58.97454 129.39520
#
# Poissons Ratio (x) = 0.18872 0.15397
# Poissons Ratio (y) = 0.44554 0.09598
# Poissons Ratio (z) = 0.16567 0.04375
#
# Static dielectric constant tensor:
#      x y z
#    x 1.947840 0.000000 0.000000 
#    y 0.000000 2.102260 0.000000 
#    z 0.000000 0.000000 2.061800 
# 
# From -- ./inp_files/24398.got.cif
#   From: 2010.05.17/outbox.cif.g08.bks.cpg/sg73_13_cif.got.tgz:24398.got - 2010.06.03 17:35:07.
