data_PCOD9533374
_publ_section_title
;
Structure prediction by ZEFSAII (Michael W. Deem and Ramdas Pophale) SiO2 
 PCOD9533374
Probable space group: I B C A 
;
_chemical_formula_sum "Si O2"
_cell_formula_units_Z 112
_cell_length_a 10.542297
_cell_length_b 30.905797
_cell_length_c 14.479611
_cell_angle_alpha 90.000000
_cell_angle_beta 90.000000
_cell_angle_gamma 90.000000
_cell_volume 4717.719214
_symmetry_space_group_name_H-M "I B C A "
_symmetry_group_IT_number 73
_symmetry_cell_setting 'orthorhombic'
loop_
_space_group_symop_operation_xyz
x,y,z
-x,1/2-y,z
x,-y,1/2-z
1/2-x,y,-z
-x,-y,-z
x,1/2+y,-z
-x,y,1/2+z
1/2+x,-y,z
1/2+x,1/2+y,1/2+z
1/2-x,-y,1/2+z
1/2+x,1/2-y,-z
-x,1/2+y,1/2-z
1/2-x,1/2-y,1/2-z
1/2+x,y,1/2-z
1/2-x,1/2+y,z
x,1/2-y,1/2+z
loop_
_atom_site_type_symbol
_atom_site_label
_atom_site_fract_x
_atom_site_fract_y
_atom_site_fract_z
Si Si1 0.689930 0.151885 0.792135
Si Si2 0.128329 0.270821 0.561153
Si Si3 0.439339 0.397061 0.629231
Si Si4 0.820806 0.061719 0.820683
Si Si5 0.250000 0.515097 0.500000
Si Si6 0.250000 0.250000 0.250000
Si Si7 0.828229 0.440314 0.112888
Si Si8 0.010072 0.639041 0.939886
O O1 0.592441 0.134779 0.713402
O O2 0.785550 0.112114 0.804737
O O3 0.749919 0.196515 0.760542
O O4 0.612871 0.155273 0.887080
O O5 0.250000 0.259779 0.500000
O O6 0.152387 0.253344 0.662883
O O7 0.111091 0.322371 0.563969
O O8 0.000000 0.250000 0.520994
O O9 0.530464 0.436797 0.654872
O O10 0.304163 0.415148 0.594430
O O11 0.507553 0.372168 0.546462
O O12 0.737301 0.044191 0.907261
O O13 0.808896 0.042978 0.717484
O O14 0.150486 0.480216 0.543179
O O15 0.937761 0.404790 0.106580
#
# Coordination Sequence:
#
# PCOD9533374 Si02
#       8
#    16  16  16  16   8   8  16  16
#     4  11  25  45  74 108 146 201 254 324 396 480
#     4  12  27  48  75 116 154 203 267 332 404 504
#     4  11  23  44  77  98 147 203 240 320 390 474
#     4  11  25  45  68 111 149 193 256 314 395 461
#     4  12  24  46  72 108 148 200 246 332 378 474
#     4  12  26  48  74 110 152 204 264 326 406 496
#     4  11  23  45  72 105 146 199 256 313 385 473
#     4  12  22  48  74 106 146 198 261 312 407 468
#
# _framework density 23.740285
#
# number of rings (size 3 to 8) (size 9 to 14) (size 15 to 20)
#    0.000    0.571    4.286    4.714    0.000    2.286 
#    3.857    1.429    0.000    0.000    0.000    0.000 
#    0.000    0.000    0.000    0.000    0.000    0.000 
#
# Total GULP energy -311913.267146 kJ/mol
# GULP energy per Si atom -5569.879770 kJ/mol
# Density = 2.368625 g / cm^3
# Si number density = 23.740285 Si / 1000 Ang^3
#
#
#
# Elastic Constant Matrix: (Units=GPa)
#
#
# Indices 1 2 3 4 5 6 
#
# 1 58.5937 -0.3677 -14.3589 0.0001 0.0000 0.0000
# 2 -0.3677 132.2056 11.4727 0.0001 0.0000 0.0000
# 3 -14.3589 11.4727 78.0713 -0.0001 0.0000 0.0000
# 4 0.0001 0.0001 -0.0001 19.5882 0.0000 0.0000
# 5 0.0000 0.0000 0.0000 0.0000 38.9121 0.0000
# 6 0.0000 0.0000 0.0000 0.0000 0.0000 15.8658
#
#
#
# Elastic Compliance Matrix: (Units=1/GPa)
#
#
# Indices 1 2 3 4 5 6 
#
# 1 0.017880 -0.000239 0.003324 0.000000 0.000000 0.000000
# 2 -0.000239 0.007665 -0.001170 0.000000 0.000000 0.000000
# 3 0.003324 -0.001170 0.013592 0.000000 0.000000 0.000000
# 4 0.000000 0.000000 0.000000 0.051051 0.000000 0.000000
# 5 0.000000 0.000000 0.000000 0.000000 0.025699 0.000000
# 6 0.000000 0.000000 0.000000 0.000000 0.000000 0.063029
#
#
# Mechanical properties :
#
#
# Convention : Reuss Voigt Hill
#
# Bulk Modulus (GPa) = 23.27439 29.15142 26.21291
# Shear Modulus (GPa) = 26.39801 33.01484 29.70643
#
# Velocity S-wave (km/s) = 3.33821 3.73321 3.54122
# Velocity P-wave (km/s) = 4.96822 5.55774 5.27123
#
# Compressibility (1/GPa) = 0.04296567
#
# Stress axis : x y z
#
# Youngs Moduli (GPa) = 55.92950 130.46543 73.57252
#
# Poissons Ratio (x) = 0.03114 -0.24452
# Poissons Ratio (y) = 0.01335 0.08610
# Poissons Ratio (z) = -0.18588 0.15268
#
# Static dielectric constant tensor:
#      x y z
#    x 1.908960 0.000000 0.000000 
#    y 0.000000 1.909320 0.000000 
#    z 0.000000 0.000000 1.970280 
# 
# From -- ./inp_files/16411.got.cif
#   From: 2010.05.17/outbox.cif.g08.bks.cpg/sg73_9_cif.got.tgz:16411.got - 2010.06.03 17:35:07.
