data_PCOD9533675
_publ_section_title
;
Structure prediction by ZEFSAII (Michael W. Deem and Ramdas Pophale) SiO2 
 PCOD9533675
Probable space group: I B C A 
;
_chemical_formula_sum "Si O2"
_cell_formula_units_Z 56
_cell_length_a 16.245554
_cell_length_b 16.222702
_cell_length_c 9.089966
_cell_angle_alpha 90.000000
_cell_angle_beta 90.000000
_cell_angle_gamma 90.000000
_cell_volume 2395.631282
_symmetry_space_group_name_H-M "I B C A "
_symmetry_group_IT_number 73
_symmetry_cell_setting 'orthorhombic'
loop_
_space_group_symop_operation_xyz
x,y,z
-x,1/2-y,z
x,-y,1/2-z
1/2-x,y,-z
-x,-y,-z
x,1/2+y,-z
-x,y,1/2+z
1/2+x,-y,z
1/2+x,1/2+y,1/2+z
1/2-x,-y,1/2+z
1/2+x,1/2-y,-z
-x,1/2+y,1/2-z
1/2-x,1/2-y,1/2-z
1/2+x,y,1/2-z
1/2-x,1/2+y,z
x,1/2-y,1/2+z
loop_
_atom_site_type_symbol
_atom_site_label
_atom_site_fract_x
_atom_site_fract_y
_atom_site_fract_z
Si Si1 0.289218 0.000000 0.750000
Si Si2 0.540754 0.836002 0.718694
Si Si3 0.067595 0.437670 0.937893
Si Si4 0.213171 0.172554 0.838667
O O1 0.349622 0.982613 0.888119
O O2 0.238579 0.916698 0.725490
O O3 0.500000 0.750000 0.680385
O O4 0.579179 0.874446 0.571416
O O5 0.472240 0.893078 0.796052
O O6 0.614624 0.823050 0.833425
O O7 0.000000 0.500000 0.000000
O O8 0.250000 0.250000 0.750000
O O9 0.250000 0.177482 0.000000
#
# Coordination Sequence:
#
# PCOD9533675 Si02
#       4
#     8  16  16  16
#     4  12  28  50  82 112 164 202 270 334 402 474
#     4  12  28  48  80 111 158 203 265 325 395 480
#     4  12  25  48  78 113 146 207 262 317 391 477
#     4  12  32  50  77 117 159 208 262 331 411 474
#
# _framework density 23.375883000000002
#
# number of rings (size 3 to 8) (size 9 to 14) (size 15 to 20)
#    0.000    0.000    2.857    4.286   20.000    0.000 
#    0.000    0.000    0.000    0.000    0.000    0.000 
#    0.000    0.000    0.000    0.000    0.000    0.000 
#
# Total GULP energy -157097.389916 kJ/mol
# GULP energy per Si atom -5610.621068 kJ/mol
# Density = 2.332268 g / cm^3
# Si number density = 23.375883 Si / 1000 Ang^3
#
#
#
# Elastic Constant Matrix: (Units=GPa)
#
#
# Indices 1 2 3 4 5 6 
#
# 1 89.8921 33.2201 7.4010 0.0000 0.0000 0.0000
# 2 33.2201 167.1746 39.5470 0.0000 0.0000 0.0000
# 3 7.4010 39.5470 106.2790 0.0000 0.0000 0.0000
# 4 0.0000 0.0000 0.0000 38.8672 0.0000 0.0000
# 5 0.0000 0.0000 0.0000 0.0000 31.1016 0.0000
# 6 0.0000 0.0000 0.0000 0.0000 0.0000 38.2998
#
#
#
# Elastic Compliance Matrix: (Units=1/GPa)
#
#
# Indices 1 2 3 4 5 6 
#
# 1 0.012006 -0.002399 0.000057 0.000000 0.000000 0.000000
# 2 -0.002399 0.007039 -0.002452 0.000000 0.000000 0.000000
# 3 0.000057 -0.002452 0.010318 0.000000 0.000000 0.000000
# 4 0.000000 0.000000 0.000000 0.025729 0.000000 0.000000
# 5 0.000000 0.000000 0.000000 0.000000 0.032153 0.000000
# 6 0.000000 0.000000 0.000000 0.000000 0.000000 0.026110
#
#
# Mechanical properties :
#
#
# Convention : Reuss Voigt Hill
#
# Bulk Modulus (GPa) = 50.57276 58.18687 54.37982
# Shear Modulus (GPa) = 38.59985 40.53223 39.56604
#
# Velocity S-wave (km/s) = 4.06799 4.16857 4.11859
# Velocity P-wave (km/s) = 6.61410 6.93651 6.77722
#
# Compressibility (1/GPa) = 0.01977349
#
# Stress axis : x y z
#
# Youngs Moduli (GPa) = 83.28863 142.07379 96.92116
#
# Poissons Ratio (x) = 0.34087 -0.00549
# Poissons Ratio (y) = 0.19983 0.23765
# Poissons Ratio (z) = -0.00472 0.34837
#
# Static dielectric constant tensor:
#      x y z
#    x 1.836760 0.000000 0.000000 
#    y 0.000000 1.892250 0.000000 
#    z 0.000000 0.000000 1.900840 
# 
# From -- ./inp_files/5121.got.cif
#   From: 2010.05.17/outbox.cif.g08.bks.cpg/sg73_3_cif.got.tgz:5121.got - 2010.06.03 17:35:07.
