data_PCOD9533180
_publ_section_title
;
Structure prediction by ZEFSAII (Michael W. Deem and Ramdas Pophale) SiO2 
 PCOD9533180
Probable space group: I B C A 
;
_chemical_formula_sum "Si O2"
_cell_formula_units_Z 112
_cell_length_a 14.117532
_cell_length_b 14.002008
_cell_length_c 26.683104
_cell_angle_alpha 90.000000
_cell_angle_beta 90.000000
_cell_angle_gamma 90.000000
_cell_volume 5274.550457
_symmetry_space_group_name_H-M "I B C A "
_symmetry_group_IT_number 73
_symmetry_cell_setting 'orthorhombic'
loop_
_space_group_symop_operation_xyz
x,y,z
-x,1/2-y,z
x,-y,1/2-z
1/2-x,y,-z
-x,-y,-z
x,1/2+y,-z
-x,y,1/2+z
1/2+x,-y,z
1/2+x,1/2+y,1/2+z
1/2-x,-y,1/2+z
1/2+x,1/2-y,-z
-x,1/2+y,1/2-z
1/2-x,1/2-y,1/2-z
1/2+x,y,1/2-z
1/2-x,1/2+y,z
x,1/2-y,1/2+z
loop_
_atom_site_type_symbol
_atom_site_label
_atom_site_fract_x
_atom_site_fract_y
_atom_site_fract_z
Si Si1 0.668380 0.064327 0.796301
Si Si2 0.078817 0.042875 0.404654
Si Si3 0.110138 0.572890 0.707349
Si Si4 0.800713 0.142570 0.615070
Si Si5 0.754017 0.836129 0.442504
Si Si6 0.606547 0.773802 0.212150
Si Si7 0.625867 0.507294 0.402326
O O1 0.780194 0.048344 0.804487
O O2 0.657578 0.173702 0.782162
O O3 0.615023 0.042810 0.847796
O O4 0.637729 0.000000 0.750000
O O5 0.062382 0.067172 0.346020
O O6 0.152142 0.121792 0.425022
O O7 0.127993 0.937854 0.407377
O O8 0.973177 0.038757 0.425996
O O9 0.076109 0.500000 0.750000
O O10 0.102257 0.673492 0.734872
O O11 0.792163 0.246517 0.589485
O O12 0.837620 0.162848 0.671438
O O13 0.697920 0.093844 0.608921
O O14 0.750000 0.806548 0.500000
O O15 0.823155 0.926930 0.435629
O O16 0.500000 0.750000 0.194344
#
# Coordination Sequence:
#
# PCOD9533180 Si02
#       7
#    16  16  16  16  16  16  16
#     4  11  22  39  60  89 133 182 221 267 332 403
#     4  11  24  44  71 101 140 176 228 281 350 420
#     4  11  21  39  60  94 134 175 220 270 321 402
#     4  11  22  45  70  97 135 184 227 285 345 415
#     4  11  26  48  71 101 133 173 232 297 357 420
#     4  12  24  37  62  98 135 183 230 271 332 409
#     4  11  24  44  72  99 138 180 226 291 350 411
#
# _framework density 21.234037000000001
#
# number of rings (size 3 to 8) (size 9 to 14) (size 15 to 20)
#    0.000    0.857    5.714    2.143    2.000    4.571 
#    0.000    1.429    0.000    0.000    0.000    0.000 
#    0.000    0.000    0.000    0.000    0.000    0.000 
#
# Total GULP energy -313075.434705 kJ/mol
# GULP energy per Si atom -5590.632763 kJ/mol
# Density = 2.118571 g / cm^3
# Si number density = 21.234037 Si / 1000 Ang^3
#
#
#
# Elastic Constant Matrix: (Units=GPa)
#
#
# Indices 1 2 3 4 5 6 
#
# 1 121.1509 27.4586 5.3329 0.0000 0.0000 0.0000
# 2 27.4586 92.1114 11.7357 0.0000 0.0000 0.0000
# 3 5.3329 11.7357 39.5128 0.0000 0.0000 0.0000
# 4 0.0000 0.0000 0.0000 17.5581 0.0000 0.0000
# 5 0.0000 0.0000 0.0000 0.0000 -15.0473 0.0000
# 6 0.0000 0.0000 0.0000 0.0000 0.0000 15.0460
#
#
#
# Elastic Compliance Matrix: (Units=1/GPa)
#
#
# Indices 1 2 3 4 5 6 
#
# 1 0.008859 -0.002586 -0.000427 0.000000 0.000000 0.000000
# 2 -0.002586 0.012039 -0.003226 0.000000 0.000000 0.000000
# 3 -0.000427 -0.003226 0.026324 0.000000 0.000000 0.000000
# 4 0.000000 0.000000 0.000000 0.056954 0.000000 0.000000
# 5 0.000000 0.000000 0.000000 0.000000 -0.066457 0.000000
# 6 0.000000 0.000000 0.000000 0.000000 0.000000 0.066463
#
#
# Mechanical properties :
#
#
# Convention : Reuss Voigt Hill
#
# Bulk Modulus (GPa) = 28.78436 37.98106 33.38271
# Shear Modulus (GPa) = 38.98856 17.39456 28.19156
#
# Velocity S-wave (km/s) = 4.28966 2.86524 3.64766
# Velocity P-wave (km/s) = 6.17415 5.37325 5.78757
#
# Compressibility (1/GPa) = 0.03474109
#
# Stress axis : x y z
#
# Youngs Moduli (GPa) = 112.87698 83.06663 37.98779
#
# Poissons Ratio (x) = 0.21485 0.01624
# Poissons Ratio (y) = 0.29195 0.12257
# Poissons Ratio (z) = 0.04825 0.26801
#
# Static dielectric constant tensor:
#      x y z
#    x 1.849960 0.000000 0.000000 
#    y 0.000000 1.764680 0.000000 
#    z 0.000000 0.000000 1.716410 
# 
# From -- ./inp_files/32184.got.cif
#   From: 2010.05.17/outbox.cif.g08.bks.cpg/sg73_17_cif.got.tgz:32184.got - 2010.06.03 17:35:07.
