data_PCOD9533344
_publ_section_title
;
Structure prediction by ZEFSAII (Michael W. Deem and Ramdas Pophale) SiO2 
 PCOD9533344
Probable space group: I B C A 
;
_chemical_formula_sum "Si O2"
_cell_formula_units_Z 104
_cell_length_a 9.137873
_cell_length_b 26.494532
_cell_length_c 21.720443
_cell_angle_alpha 90.000000
_cell_angle_beta 90.000000
_cell_angle_gamma 90.000000
_cell_volume 5258.598934
_symmetry_space_group_name_H-M "I B C A "
_symmetry_group_IT_number 73
_symmetry_cell_setting 'orthorhombic'
loop_
_space_group_symop_operation_xyz
x,y,z
-x,1/2-y,z
x,-y,1/2-z
1/2-x,y,-z
-x,-y,-z
x,1/2+y,-z
-x,y,1/2+z
1/2+x,-y,z
1/2+x,1/2+y,1/2+z
1/2-x,-y,1/2+z
1/2+x,1/2-y,-z
-x,1/2+y,1/2-z
1/2-x,1/2-y,1/2-z
1/2+x,y,1/2-z
1/2-x,1/2+y,z
x,1/2-y,1/2+z
loop_
_atom_site_type_symbol
_atom_site_label
_atom_site_fract_x
_atom_site_fract_y
_atom_site_fract_z
Si Si1 0.225102 0.757972 0.678042
Si Si2 0.097045 0.534566 0.322204
Si Si3 0.590685 0.545065 0.031319
Si Si4 0.074326 0.065275 0.286187
Si Si5 0.571948 0.342713 0.499950
Si Si6 0.500000 0.750000 0.588682
Si Si7 0.991074 0.832253 0.642167
O O1 0.250000 0.750000 0.750000
O O2 0.363819 0.755652 0.634176
O O3 0.123558 0.711452 0.658250
O O4 0.143890 0.810842 0.666676
O O5 0.102238 0.540719 0.395234
O O6 0.259106 0.546461 0.295774
O O7 0.035706 0.478133 0.310873
O O8 0.979639 0.569186 0.284817
O O9 0.750000 0.543681 0.000000
O O10 0.500000 0.500000 0.000000
O O11 0.527983 0.600901 0.019598
O O12 0.052254 0.116127 0.324392
O O13 0.750000 0.340001 0.500000
O O14 0.516867 0.298906 0.454852
O O15 0.512606 0.336190 0.568785
#
# Coordination Sequence:
#
# PCOD9533344 Si02
#       7
#    16  16  16  16  16   8  16
#     4  11  26  45  67 100 134 171 228 287 337 408
#     4  11  23  43  67 101 137 180 230 279 336 409
#     4  11  24  44  68  99 138 180 226 279 338 407
#     4  11  24  43  71  98 139 181 225 281 342 406
#     4  11  23  43  71  96 136 182 219 283 341 408
#     4  12  24  44  72 100 130 182 236 274 350 418
#     4  11  24  45  68  96 139 174 221 282 346 398
#
# _framework density 19.77713
#
# number of rings (size 3 to 8) (size 9 to 14) (size 15 to 20)
#    0.000    0.923    1.538    7.385    2.154    1.231 
#    8.308    0.000    0.000    0.000    0.000    0.000 
#    0.000    0.000    0.000    0.000    0.000    0.000 
#
# Total GULP energy -290572.396103 kJ/mol
# GULP energy per Si atom -5587.930694 kJ/mol
# Density = 1.973212 g / cm^3
# Si number density = 19.777130 Si / 1000 Ang^3
#
#
#
# Elastic Constant Matrix: (Units=GPa)
#
#
# Indices 1 2 3 4 5 6 
#
# 1 107.5299 60.2594 60.0311 0.0000 0.0000 0.0000
# 2 60.2594 135.3816 49.5319 0.0000 0.0000 0.0000
# 3 60.0311 49.5319 186.4271 0.0001 0.0000 0.0000
# 4 0.0000 0.0000 0.0001 44.5404 0.0000 0.0000
# 5 0.0000 0.0000 0.0000 0.0000 33.7707 0.0000
# 6 0.0000 0.0000 0.0000 0.0000 0.0000 23.2402
#
#
#
# Elastic Compliance Matrix: (Units=1/GPa)
#
#
# Indices 1 2 3 4 5 6 
#
# 1 0.013863 -0.005026 -0.003129 0.000000 0.000000 0.000000
# 2 -0.005026 0.010004 -0.001040 0.000000 0.000000 0.000000
# 3 -0.003129 -0.001040 0.006648 0.000000 0.000000 0.000000
# 4 0.000000 0.000000 0.000000 0.022452 0.000000 0.000000
# 5 0.000000 0.000000 0.000000 0.000000 0.029611 0.000000
# 6 0.000000 0.000000 0.000000 0.000000 0.000000 0.043029
#
#
# Mechanical properties :
#
#
# Convention : Reuss Voigt Hill
#
# Bulk Modulus (GPa) = 82.46494 85.44260 83.95377
# Shear Modulus (GPa) = 33.77548 37.61135 35.69341
#
# Velocity S-wave (km/s) = 4.13704 4.36565 4.25288
# Velocity P-wave (km/s) = 8.03790 8.28905 8.16444
#
# Compressibility (1/GPa) = 0.01212637
#
# Stress axis : x y z
#
# Youngs Moduli (GPa) = 72.13548 99.96106 150.42822
#
# Poissons Ratio (x) = 0.50238 0.47064
# Poissons Ratio (y) = 0.36254 0.15638
# Poissons Ratio (z) = 0.22569 0.10392
#
# Static dielectric constant tensor:
#      x y z
#    x 1.788170 0.000000 0.000000 
#    y 0.000000 1.687260 0.000000 
#    z 0.000000 0.000000 1.704210 
# 
# From -- ./inp_files/24970.got.cif
#   From: 2010.05.17/outbox.cif.g08.bks.cpg/sg73_13_cif.got.tgz:24970.got - 2010.06.03 17:35:07.
