data_PCOD9533138
_publ_section_title
;
Structure prediction by ZEFSAII (Michael W. Deem and Ramdas Pophale) SiO2 
 PCOD9533138
Probable space group: I B C A 
;
_chemical_formula_sum "Si O2"
_cell_formula_units_Z 80
_cell_length_a 13.934488
_cell_length_b 14.165029
_cell_length_c 18.870525
_cell_angle_alpha 90.000000
_cell_angle_beta 90.000000
_cell_angle_gamma 90.000000
_cell_volume 3724.710016
_symmetry_space_group_name_H-M "I B C A "
_symmetry_group_IT_number 73
_symmetry_cell_setting 'orthorhombic'
loop_
_space_group_symop_operation_xyz
x,y,z
-x,1/2-y,z
x,-y,1/2-z
1/2-x,y,-z
-x,-y,-z
x,1/2+y,-z
-x,y,1/2+z
1/2+x,-y,z
1/2+x,1/2+y,1/2+z
1/2-x,-y,1/2+z
1/2+x,1/2-y,-z
-x,1/2+y,1/2-z
1/2-x,1/2-y,1/2-z
1/2+x,y,1/2-z
1/2-x,1/2+y,z
x,1/2-y,1/2+z
loop_
_atom_site_type_symbol
_atom_site_label
_atom_site_fract_x
_atom_site_fract_y
_atom_site_fract_z
Si Si1 0.353159 0.896330 0.961837
Si Si2 0.636582 0.680649 0.478835
Si Si3 0.588428 0.500669 0.100680
Si Si4 0.445346 0.342646 0.365951
Si Si5 0.796900 0.479189 0.168118
O O1 0.369447 0.786341 0.949718
O O2 0.352744 0.956172 0.890001
O O3 0.250000 0.900855 0.000000
O O4 0.411505 0.945742 0.024559
O O5 0.750000 0.656686 0.500000
O O6 0.586333 0.608011 0.424947
O O7 0.579780 0.677691 0.552296
O O8 0.513951 0.565967 0.143282
O O9 0.688041 0.498410 0.144049
O O10 0.500000 0.250000 0.337645
O O11 0.340739 0.373942 0.338381
O O12 0.809273 0.500000 0.250000
#
# Coordination Sequence:
#
# PCOD9533138 Si02
#       5
#    16  16  16  16  16
#     4   9  19  36  65  96 127 167 220 276 328 391
#     4  11  19  37  67 104 129 163 220 289 339 388
#     4  11  21  40  69  96 132 177 231 282 338 391
#     4  12  24  41  71 102 133 176 227 289 343 400
#     4  11  25  45  64  97 144 184 224 277 343 416
#
# _framework density 21.478180999999999
#
# number of rings (size 3 to 8) (size 9 to 14) (size 15 to 20)
#    0.000    1.200    6.000    1.200    0.000    0.800 
#    0.000    6.000    0.000    0.000    0.000    0.000 
#    0.000    0.000    0.000    0.000    0.000    0.000 
#
# Total GULP energy -222870.228080 kJ/mol
# GULP energy per Si atom -5571.755702 kJ/mol
# Density = 2.142930 g / cm^3
# Si number density = 21.478181 Si / 1000 Ang^3
#
#
#
# Elastic Constant Matrix: (Units=GPa)
#
#
# Indices 1 2 3 4 5 6 
#
# 1 97.1232 39.9303 -9.6022 0.0000 0.0000 0.0000
# 2 39.9303 117.7529 9.2666 0.0000 0.0000 0.0000
# 3 -9.6022 9.2666 79.6288 0.0000 0.0000 0.0000
# 4 0.0000 0.0000 0.0000 7.2721 0.0000 0.0000
# 5 0.0000 0.0000 0.0000 0.0000 5.2301 0.0000
# 6 0.0000 0.0000 0.0000 0.0000 0.0000 31.9638
#
#
#
# Elastic Compliance Matrix: (Units=1/GPa)
#
#
# Indices 1 2 3 4 5 6 
#
# 1 0.012266 -0.004315 0.001981 0.000000 0.000000 0.000000
# 2 -0.004315 0.010089 -0.001694 0.000000 0.000000 0.000000
# 3 0.001981 -0.001694 0.012994 0.000000 0.000000 0.000000
# 4 0.000000 0.000000 0.000000 0.137512 0.000000 0.000000
# 5 0.000000 0.000000 0.000000 0.000000 0.191200 0.000000
# 6 0.000000 0.000000 0.000000 0.000000 0.000000 0.031285
#
#
# Mechanical properties :
#
#
# Convention : Reuss Voigt Hill
#
# Bulk Modulus (GPa) = 36.63993 41.52157 39.08075
# Shear Modulus (GPa) = 12.12118 25.88722 19.00420
#
# Velocity S-wave (km/s) = 2.37818 3.47548 2.97781
# Velocity P-wave (km/s) = 4.96358 5.95644 5.48254
#
# Compressibility (1/GPa) = 0.02729263
#
# Stress axis : x y z
#
# Youngs Moduli (GPa) = 81.52413 99.11696 76.95629
#
# Poissons Ratio (x) = 0.42773 -0.15248
# Poissons Ratio (y) = 0.35181 0.13040
# Poissons Ratio (z) = -0.16153 0.16795
#
# Static dielectric constant tensor:
#      x y z
#    x 1.967440 0.000000 0.000000 
#    y 0.000000 1.812610 0.000000 
#    z 0.000000 0.000000 1.722230 
# 
# From -- ./inp_files/25890.got.cif
#   From: 2010.05.17/outbox.cif.g08.bks.cpg/sg73_13_cif.got.tgz:25890.got - 2010.06.03 17:35:07.
