data_PCOD9533666
_publ_section_title
;
Structure prediction by ZEFSAII (Michael W. Deem and Ramdas Pophale) SiO2 
 PCOD9533666
Probable space group: I B C A 
;
_chemical_formula_sum "Si O2"
_cell_formula_units_Z 72
_cell_length_a 8.873388
_cell_length_b 20.133377
_cell_length_c 17.386358
_cell_angle_alpha 90.000000
_cell_angle_beta 90.000000
_cell_angle_gamma 90.000000
_cell_volume 3106.094866
_symmetry_space_group_name_H-M "I B C A "
_symmetry_group_IT_number 73
_symmetry_cell_setting 'orthorhombic'
loop_
_space_group_symop_operation_xyz
x,y,z
-x,1/2-y,z
x,-y,1/2-z
1/2-x,y,-z
-x,-y,-z
x,1/2+y,-z
-x,y,1/2+z
1/2+x,-y,z
1/2+x,1/2+y,1/2+z
1/2-x,-y,1/2+z
1/2+x,1/2-y,-z
-x,1/2+y,1/2-z
1/2-x,1/2-y,1/2-z
1/2+x,y,1/2-z
1/2-x,1/2+y,z
x,1/2-y,1/2+z
loop_
_atom_site_type_symbol
_atom_site_label
_atom_site_fract_x
_atom_site_fract_y
_atom_site_fract_z
Si Si1 0.265591 0.553149 0.676713
Si Si2 0.068325 0.626041 0.796839
Si Si3 0.713494 0.326029 0.079180
Si Si4 0.524498 0.956717 0.923310
Si Si5 0.500000 0.750000 0.307039
O O1 0.163450 0.567394 0.754319
O O2 0.395723 0.607130 0.689934
O O3 0.374433 0.494059 0.642413
O O4 0.138319 0.559178 0.612201
O O5 0.143841 0.643638 0.877190
O O6 0.068005 0.690694 0.743369
O O7 0.608180 0.388509 0.058542
O O8 0.628021 0.280433 0.139269
O O9 0.750000 0.289864 0.000000
O O10 0.500000 0.000000 0.000000
#
# Coordination Sequence:
#
# PCOD9533666 Si02
#       5
#    16  16  16  16   8
#     4  12  25  45  75 110 150 209 252 326 400 467
#     4  12  26  48  79 111 156 203 270 322 394 473
#     4  12  27  50  76 116 158 207 260 331 396 476
#     4  12  26  48  75 113 162 200 261 329 403 477
#     4  12  26  54  76 112 158 208 278 322 388 472
#
# _framework density 23.180232
#
# number of rings (size 3 to 8) (size 9 to 14) (size 15 to 20)
#    0.000    0.000    4.444    5.333    0.000    8.000 
#    4.000    0.000    0.000    0.000    0.000    0.000 
#    0.000    0.000    0.000    0.000    0.000    0.000 
#
# Total GULP energy -201349.730628 kJ/mol
# GULP energy per Si atom -5593.048073 kJ/mol
# Density = 2.312747 g / cm^3
# Si number density = 23.180232 Si / 1000 Ang^3
#
#
#
# Elastic Constant Matrix: (Units=GPa)
#
#
# Indices 1 2 3 4 5 6 
#
# 1 167.3294 20.5844 64.5281 0.0000 0.0000 0.0000
# 2 20.5844 92.9911 45.9152 0.0000 0.0000 0.0000
# 3 64.5281 45.9152 158.9759 0.0000 0.0000 0.0000
# 4 0.0000 0.0000 0.0000 19.2994 0.0000 0.0000
# 5 0.0000 0.0000 0.0000 0.0000 33.0734 0.0000
# 6 0.0000 0.0000 0.0000 0.0000 0.0000 11.9923
#
#
#
# Elastic Compliance Matrix: (Units=1/GPa)
#
#
# Indices 1 2 3 4 5 6 
#
# 1 0.007088 -0.000173 -0.002827 0.000000 0.000000 0.000000
# 2 -0.000173 0.012547 -0.003553 0.000000 0.000000 0.000000
# 3 -0.002827 -0.003553 0.008464 0.000000 0.000000 0.000000
# 4 0.000000 0.000000 0.000000 0.051815 0.000000 0.000000
# 5 0.000000 0.000000 0.000000 0.000000 0.030236 0.000000
# 6 0.000000 0.000000 0.000000 0.000000 0.000000 0.083387
#
#
# Mechanical properties :
#
#
# Convention : Reuss Voigt Hill
#
# Bulk Modulus (GPa) = 66.70492 75.70576 71.20534
# Shear Modulus (GPa) = 23.62505 32.09095 27.85800
#
# Velocity S-wave (km/s) = 3.19594 3.72480 3.47046
# Velocity P-wave (km/s) = 6.51597 7.15747 6.84424
#
# Compressibility (1/GPa) = 0.01499140
#
# Stress axis : x y z
#
# Youngs Moduli (GPa) = 141.08996 79.70305 118.14779
#
# Poissons Ratio (x) = 0.01380 0.33399
# Poissons Ratio (y) = 0.02443 0.41983
# Poissons Ratio (z) = 0.39884 0.28322
#
# Static dielectric constant tensor:
#      x y z
#    x 1.827150 0.000000 0.000000 
#    y 0.000000 1.967780 0.000000 
#    z 0.000000 0.000000 1.867530 
# 
# From -- ./inp_files/20603.got.cif
#   From: 2010.05.17/outbox.cif.g08.bks.cpg/sg73_11_cif.got.tgz:20603.got - 2010.06.03 17:35:07.
