data_PCOD9533461
_publ_section_title
;
Structure prediction by ZEFSAII (Michael W. Deem and Ramdas Pophale) SiO2 
 PCOD9533461
Probable space group: I B C A 
;
_chemical_formula_sum "Si O2"
_cell_formula_units_Z 88
_cell_length_a 23.406448
_cell_length_b 11.584280
_cell_length_c 14.403777
_cell_angle_alpha 90.000000
_cell_angle_beta 90.000000
_cell_angle_gamma 90.000000
_cell_volume 3905.538725
_symmetry_space_group_name_H-M "I B C A "
_symmetry_group_IT_number 73
_symmetry_cell_setting 'orthorhombic'
loop_
_space_group_symop_operation_xyz
x,y,z
-x,1/2-y,z
x,-y,1/2-z
1/2-x,y,-z
-x,-y,-z
x,1/2+y,-z
-x,y,1/2+z
1/2+x,-y,z
1/2+x,1/2+y,1/2+z
1/2-x,-y,1/2+z
1/2+x,1/2-y,-z
-x,1/2+y,1/2-z
1/2-x,1/2-y,1/2-z
1/2+x,y,1/2-z
1/2-x,1/2+y,z
x,1/2-y,1/2+z
loop_
_atom_site_type_symbol
_atom_site_label
_atom_site_fract_x
_atom_site_fract_y
_atom_site_fract_z
Si Si1 0.412887 0.834715 0.782555
Si Si2 0.250000 0.876281 0.000000
Si Si3 0.553042 0.104108 0.818975
Si Si4 0.354192 0.981755 0.431424
Si Si5 0.440433 0.037763 0.902761
Si Si6 0.293665 0.234988 0.165903
O O1 0.441083 0.715747 0.745867
O O2 0.410269 0.905566 0.686585
O O3 0.349330 0.810356 0.814410
O O4 0.442562 0.903892 0.867837
O O5 0.194615 0.955221 0.989202
O O6 0.258040 0.791266 0.915580
O O7 0.613085 0.072934 0.865820
O O8 0.503217 0.097005 0.897123
O O9 0.538017 0.000000 0.750000
O O10 0.403407 0.940856 0.504648
O O11 0.321797 0.886121 0.368628
O O12 0.250000 0.250000 0.250000
#
# Coordination Sequence:
#
# PCOD9533461 Si02
#       6
#    16   8  16  16  16  16
#     4  11  24  46  71 108 145 195 249 309 381 451
#     4  12  28  48  74 108 150 200 252 318 376 454
#     4  12  24  46  75 107 148 196 247 312 389 459
#     4  12  28  48  72 112 146 196 258 311 382 461
#     4  11  26  46  75 107 149 192 250 314 378 462
#     4  12  28  47  75 108 155 199 252 315 379 456
#
# _framework density 22.532102999999999
#
# number of rings (size 3 to 8) (size 9 to 14) (size 15 to 20)
#    0.000    0.364    5.455    2.727    7.636    0.000 
#    0.000    0.000    0.000    0.000    0.000    0.000 
#    0.000    0.000    0.000    0.000    0.000    0.000 
#
# Total GULP energy -245686.730678 kJ/mol
# GULP energy per Si atom -5583.789334 kJ/mol
# Density = 2.248082 g / cm^3
# Si number density = 22.532103 Si / 1000 Ang^3
#
#
#
# Elastic Constant Matrix: (Units=GPa)
#
#
# Indices 1 2 3 4 5 6 
#
# 1 78.2885 15.5021 44.8176 0.0000 0.0000 0.0000
# 2 15.5021 88.7230 34.9593 0.0000 0.0000 0.0000
# 3 44.8176 34.9593 107.2542 0.0000 0.0000 0.0000
# 4 0.0000 0.0000 0.0000 33.6885 0.0000 0.0000
# 5 0.0000 0.0000 0.0000 0.0000 41.6136 0.0000
# 6 0.0000 0.0000 0.0000 0.0000 0.0000 -51.3737
#
#
#
# Elastic Compliance Matrix: (Units=1/GPa)
#
#
# Indices 1 2 3 4 5 6 
#
# 1 0.016792 -0.000194 -0.006954 0.000000 0.000000 0.000000
# 2 -0.000194 0.012934 -0.004135 0.000000 0.000000 0.000000
# 3 -0.006954 -0.004135 0.013577 0.000000 0.000000 0.000000
# 4 0.000000 0.000000 0.000000 0.029684 0.000000 0.000000
# 5 0.000000 0.000000 0.000000 0.000000 0.024031 0.000000
# 6 0.000000 0.000000 0.000000 0.000000 0.000000 -0.019465
#
#
# Mechanical properties :
#
#
# Convention : Reuss Voigt Hill
#
# Bulk Modulus (GPa) = 48.21933 51.64707 49.93320
# Shear Modulus (GPa) = 46.71557 16.71814 31.71685
#
# Velocity S-wave (km/s) = 4.55828 2.72687 3.75591
# Velocity P-wave (km/s) = 7.01075 5.73461 6.40454
#
# Compressibility (1/GPa) = 0.02073857
#
# Stress axis : x y z
#
# Youngs Moduli (GPa) = 59.55055 77.31463 73.65372
#
# Poissons Ratio (x) = 0.01501 0.51216
# Poissons Ratio (y) = 0.01156 0.30454
# Poissons Ratio (z) = 0.41410 0.31968
#
# Static dielectric constant tensor:
#      x y z
#    x 1.828790 0.000000 0.000000 
#    y 0.000000 2.024380 0.000000 
#    z 0.000000 0.000000 1.729750 
# 
# From -- ./inp_files/19267.got.cif
#   From: 2010.05.17/outbox.cif.g08.bks.cpg/sg73_10_cif.got.tgz:19267.got - 2010.06.03 17:35:07.
