data_PCOD9533747
_publ_section_title
;
Structure prediction by ZEFSAII (Michael W. Deem and Ramdas Pophale) SiO2 
 PCOD9533747
Probable space group: I B C A 
;
_chemical_formula_sum "Si O2"
_cell_formula_units_Z 52
_cell_length_a 21.000000
_cell_length_b 18.000000
_cell_length_c 15.000000
_cell_angle_alpha 90.000000
_cell_angle_beta 90.000000
_cell_angle_gamma 90.000000
_cell_volume 5670.000000
_symmetry_space_group_name_H-M "I B C A "
_symmetry_group_IT_number 73
_symmetry_cell_setting 'orthorhombic'
loop_
_space_group_symop_operation_xyz
x,y,z
-x,1/2-y,z
x,-y,1/2-z
1/2-x,y,-z
-x,-y,-z
x,1/2+y,-z
-x,y,1/2+z
1/2+x,-y,z
1/2+x,1/2+y,1/2+z
1/2-x,-y,1/2+z
1/2+x,1/2-y,-z
-x,1/2+y,1/2-z
1/2-x,1/2-y,1/2-z
1/2+x,y,1/2-z
1/2-x,1/2+y,z
x,1/2-y,1/2+z
loop_
_atom_site_type_symbol
_atom_site_label
_atom_site_fract_x
_atom_site_fract_y
_atom_site_fract_z
Si Si1 0.495434 0.084507 0.391868
Si Si2 0.501084 0.410101 0.599681
Si Si3 0.250000 0.659611 0.000000
Si Si4 0.557053 0.311144 0.759534
Si Si5 0.146262 0.906045 0.829152
Si Si6 0.150545 0.428845 0.379031
Si Si7 0.805352 0.752078 0.826083
O O1 0.484516 0.104710 0.495448
O O2 0.546982 0.134871 0.343859
O O3 0.430242 0.098016 0.337688
O O4 0.514219 0.997847 0.384884
O O5 0.540179 0.358766 0.669328
O O6 0.423844 0.405729 0.609176
O O7 0.195195 0.611604 0.049807
O O8 0.282318 0.703316 0.084862
O O9 0.500000 0.250000 0.762994
O O10 0.628672 0.279124 0.775697
O O11 0.164870 0.911950 0.724906
O O12 0.178800 0.830930 0.860689
O O13 0.160076 0.981871 0.882723
O O14 0.750000 0.750000 0.750000
#
# Coordination Sequence:
#
# PCOD9533747 Si02
#       7
#    16  16   8  16  16  16  16
#     4  10  20  39  64  99 129 172 220 276 337 392
#     4  10  21  38  67  96 133 170 220 284 333 391
#     4  12  26  42  70  96 142 182 230 286 340 420
#     4  12  23  40  66  98 131 167 226 275 333 402
#     4  10  20  42  67  88 131 182 223 271 341 410
#     4  10  20  41  69  92 126 186 229 268 339 413
#     4  12  26  45  64 101 142 180 223 280 348 408
#
# _framework density 9.1710759999999993
#
# number of rings (size 3 to 8) (size 9 to 14) (size 15 to 20)
#    0.000    1.231    4.615    1.385    0.000    2.462 
#    0.000    6.154    0.000    0.000    0.000    0.000 
#    0.000    0.000    0.000    0.000    0.000    0.000 
#
# Total GULP energy -289982.723649 kJ/mol
# GULP energy per Si atom -5576.590839 kJ/mol
# Density = 0.915020 g / cm^3
# Si number density = 9.171076 Si / 1000 Ang^3
#
#
#
# Elastic Constant Matrix: (Units=GPa)
#
#
# Indices 1 2 3 4 5 6 
#
# 1 119.0716 60.1967 52.1858 0.0000 0.0000 0.0000
# 2 60.1967 101.6881 52.3206 0.0000 0.0000 0.0000
# 3 52.1858 52.3206 125.0337 0.0000 0.0000 0.0000
# 4 0.0000 0.0000 0.0000 33.8194 0.0000 0.0000
# 5 0.0000 0.0000 0.0000 0.0000 37.7007 0.0000
# 6 0.0000 0.0000 0.0000 0.0000 0.0000 30.1591
#
#
#
# Elastic Compliance Matrix: (Units=1/GPa)
#
#
# Indices 1 2 3 4 5 6 
#
# 1 0.012682 -0.006097 -0.002742 0.000000 0.000000 0.000000
# 2 -0.006097 0.015463 -0.003926 0.000000 0.000000 0.000000
# 3 -0.002742 -0.003926 0.010785 0.000000 0.000000 0.000000
# 4 0.000000 0.000000 0.000000 0.029569 0.000000 0.000000
# 5 0.000000 0.000000 0.000000 0.000000 0.026525 0.000000
# 6 0.000000 0.000000 0.000000 0.000000 0.000000 0.033158
#
#
# Mechanical properties :
#
#
# Convention : Reuss Voigt Hill
#
# Bulk Modulus (GPa) = 74.62120 75.02216 74.82168
# Shear Modulus (GPa) = 31.60995 32.40851 32.00923
#
# Velocity S-wave (km/s) = 4.15583 4.20800 4.18199
# Velocity P-wave (km/s) = 7.98743 8.03741 8.01246
#
# Compressibility (1/GPa) = 0.01340102
#
# Stress axis : x y z
#
# Youngs Moduli (GPa) = 78.85017 64.67025 92.72032
#
# Poissons Ratio (x) = 0.39428 0.25424
# Poissons Ratio (y) = 0.48073 0.36401
# Poissons Ratio (z) = 0.21621 0.25389
#
# Static dielectric constant tensor:
#      x y z
#    x 1.629810 0.000000 0.000000 
#    y 0.000000 1.681640 0.000000 
#    z 0.000000 0.000000 1.624260 
# 
# From -- ./inp_files/18793.got.cif
#   From: 2010.05.17/outbox.ucp.g08.bks.cvg/sg73_10_cif.got.tgz:18793.got - 2010.06.11 16:36:03.
