data_PCOD9533491
_publ_section_title
;
Structure prediction by ZEFSAII (Michael W. Deem and Ramdas Pophale) SiO2 
 PCOD9533491
Probable space group: I B C A 
;
_chemical_formula_sum "Si O2"
_cell_formula_units_Z 96
_cell_length_a 13.321547
_cell_length_b 14.255458
_cell_length_c 21.609881
_cell_angle_alpha 90.000000
_cell_angle_beta 90.000000
_cell_angle_gamma 90.000000
_cell_volume 4103.819130
_symmetry_space_group_name_H-M "I B C A "
_symmetry_group_IT_number 73
_symmetry_cell_setting 'orthorhombic'
loop_
_space_group_symop_operation_xyz
x,y,z
-x,1/2-y,z
x,-y,1/2-z
1/2-x,y,-z
-x,-y,-z
x,1/2+y,-z
-x,y,1/2+z
1/2+x,-y,z
1/2+x,1/2+y,1/2+z
1/2-x,-y,1/2+z
1/2+x,1/2-y,-z
-x,1/2+y,1/2-z
1/2-x,1/2-y,1/2-z
1/2+x,y,1/2-z
1/2-x,1/2+y,z
x,1/2-y,1/2+z
loop_
_atom_site_type_symbol
_atom_site_label
_atom_site_fract_x
_atom_site_fract_y
_atom_site_fract_z
Si Si1 0.726442 0.475097 0.361603
Si Si2 0.978485 0.992004 0.071976
Si Si3 0.750000 0.208808 0.500000
Si Si4 0.140556 0.864174 0.378636
Si Si5 0.841838 0.696494 0.784374
Si Si6 0.500000 0.250000 0.196346
Si Si7 0.116848 0.331567 0.911204
O O1 0.633826 0.498336 0.405390
O O2 0.783307 0.568593 0.340991
O O3 0.692818 0.403711 0.309033
O O4 0.805281 0.415395 0.401619
O O5 0.042217 0.072722 0.107819
O O6 0.012059 0.884785 0.081541
O O7 0.000000 0.000000 0.000000
O O8 0.805886 0.154173 0.555108
O O9 0.836288 0.269659 0.465277
O O10 0.129802 0.766547 0.341912
O O11 0.750000 0.750000 0.750000
O O12 0.941229 0.681128 0.742680
O O13 0.407438 0.280696 0.152989
#
# Coordination Sequence:
#
# PCOD9533491 Si02
#       7
#    16  16   8  16  16   8  16
#     4  11  24  50  71 106 152 193 257 316 384 459
#     4  11  25  43  70 110 150 192 244 310 388 471
#     4  12  22  48  78 106 162 198 250 324 396 478
#     4  11  26  44  73 113 143 203 254 309 398 462
#     4  12  25  49  74 104 149 205 259 323 374 455
#     4  12  26  48  74 108 148 200 272 308 378 466
#     4  11  26  46  74 109 151 200 252 316 391 459
#
# _framework density 23.392844
#
# number of rings (size 3 to 8) (size 9 to 14) (size 15 to 20)
#    0.000    0.667    3.333    3.000    7.000    3.333 
#    0.000    1.667    0.000    0.000    0.000    0.000 
#    0.000    0.000    0.000    0.000    0.000    0.000 
#
# Total GULP energy -268263.631132 kJ/mol
# GULP energy per Si atom -5588.825649 kJ/mol
# Density = 2.333960 g / cm^3
# Si number density = 23.392844 Si / 1000 Ang^3
#
#
#
# Elastic Constant Matrix: (Units=GPa)
#
#
# Indices 1 2 3 4 5 6 
#
# 1 112.3669 25.1468 21.6401 0.0000 0.0000 0.0000
# 2 25.1468 89.7969 27.4365 0.0000 0.0000 0.0000
# 3 21.6401 27.4365 78.1606 0.0000 0.0000 0.0000
# 4 0.0000 0.0000 0.0000 28.4995 0.0000 0.0000
# 5 0.0000 0.0000 0.0000 0.0000 47.4454 0.0000
# 6 0.0000 0.0000 0.0000 0.0000 0.0000 39.2976
#
#
#
# Elastic Compliance Matrix: (Units=1/GPa)
#
#
# Indices 1 2 3 4 5 6 
#
# 1 0.009753 -0.002135 -0.001951 0.000000 0.000000 0.000000
# 2 -0.002135 0.012942 -0.003952 0.000000 0.000000 0.000000
# 3 -0.001951 -0.003952 0.014721 0.000000 0.000000 0.000000
# 4 0.000000 0.000000 0.000000 0.035088 0.000000 0.000000
# 5 0.000000 0.000000 0.000000 0.000000 0.021077 0.000000
# 6 0.000000 0.000000 0.000000 0.000000 0.000000 0.025447
#
#
# Mechanical properties :
#
#
# Convention : Reuss Voigt Hill
#
# Bulk Modulus (GPa) = 46.85887 47.64124 47.25006
# Shear Modulus (GPa) = 35.15760 36.78858 35.97309
#
# Velocity S-wave (km/s) = 3.88096 3.96996 3.92571
# Velocity P-wave (km/s) = 6.33697 6.43615 6.38675
#
# Compressibility (1/GPa) = 0.02134068
#
# Stress axis : x y z
#
# Youngs Moduli (GPa) = 102.53313 77.27037 67.92822
#
# Poissons Ratio (x) = 0.16499 0.13251
# Poissons Ratio (y) = 0.21893 0.26843
# Poissons Ratio (z) = 0.20002 0.30535
#
# Static dielectric constant tensor:
#      x y z
#    x 1.903660 0.000000 0.000000 
#    y 0.000000 1.867750 0.000000 
#    z 0.000000 0.000000 1.811080 
# 
# From -- ./inp_files/26019.got.cif
#   From: 2010.05.17/outbox.cif.g08.bks.cpg/sg73_14_cif.got.tgz:26019.got - 2010.06.03 17:35:07.
