data_PCOD9533717
_publ_section_title
;
Structure prediction by ZEFSAII (Michael W. Deem and Ramdas Pophale) SiO2 
 PCOD9533717
Probable space group: I B C A 
;
_chemical_formula_sum "Si O2"
_cell_formula_units_Z 64
_cell_length_a 17.217414
_cell_length_b 10.130294
_cell_length_c 13.672151
_cell_angle_alpha 90.000000
_cell_angle_beta 90.000000
_cell_angle_gamma 90.000000
_cell_volume 2384.661929
_symmetry_space_group_name_H-M "I B C A "
_symmetry_group_IT_number 73
_symmetry_cell_setting 'orthorhombic'
loop_
_space_group_symop_operation_xyz
x,y,z
-x,1/2-y,z
x,-y,1/2-z
1/2-x,y,-z
-x,-y,-z
x,1/2+y,-z
-x,y,1/2+z
1/2+x,-y,z
1/2+x,1/2+y,1/2+z
1/2-x,-y,1/2+z
1/2+x,1/2-y,-z
-x,1/2+y,1/2-z
1/2-x,1/2-y,1/2-z
1/2+x,y,1/2-z
1/2-x,1/2+y,z
x,1/2-y,1/2+z
loop_
_atom_site_type_symbol
_atom_site_label
_atom_site_fract_x
_atom_site_fract_y
_atom_site_fract_z
Si Si1 0.103201 0.294710 0.740805
Si Si2 0.776572 0.407772 0.098082
Si Si3 0.500000 0.250000 0.916017
Si Si4 0.574906 0.074118 0.052147
Si Si5 0.844805 0.000000 0.250000
O O1 0.184667 0.334325 0.691136
O O2 0.076108 0.361210 0.840291
O O3 0.107453 0.136493 0.749549
O O4 0.042424 0.345973 0.659721
O O5 0.844124 0.498773 0.052719
O O6 0.708345 0.487904 0.152771
O O7 0.750000 0.330167 0.000000
O O8 0.570372 0.200379 0.980974
O O9 0.500000 0.000000 0.000000
#
# Coordination Sequence:
#
# PCOD9533717 Si02
#       5
#    16  16   8  16   8
#     4  12  28  51  82 125 173 225 289 363 434 524
#     4  12  27  50  86 121 170 225 288 357 439 523
#     4  12  28  44  82 120 164 224 278 354 428 504
#     4  12  27  54  83 123 169 224 286 356 433 521
#     4  12  28  54  82 126 170 222 288 364 438 520
#
# _framework density 26.838186
#
# number of rings (size 3 to 8) (size 9 to 14) (size 15 to 20)
#    0.000    0.000    5.000    3.000    3.500    7.000 
#    0.000    0.000    0.000    0.000    0.000    0.000 
#    0.000    0.000    0.000    0.000    0.000    0.000 
#
# Total GULP energy -178703.298105 kJ/mol
# GULP energy per Si atom -5584.478066 kJ/mol
# Density = 2.677710 g / cm^3
# Si number density = 26.838186 Si / 1000 Ang^3
#
#
#
# Elastic Constant Matrix: (Units=GPa)
#
#
# Indices 1 2 3 4 5 6 
#
# 1 119.1296 42.5239 76.9470 0.0000 0.0000 0.0000
# 2 42.5239 118.7380 65.9990 0.0000 0.0000 0.0000
# 3 76.9470 65.9990 272.9284 0.0000 0.0000 0.0000
# 4 0.0000 0.0000 0.0000 21.8505 0.0000 0.0000
# 5 0.0000 0.0000 0.0000 0.0000 60.0621 0.0000
# 6 0.0000 0.0000 0.0000 0.0000 0.0000 45.2169
#
#
#
# Elastic Compliance Matrix: (Units=1/GPa)
#
#
# Indices 1 2 3 4 5 6 
#
# 1 0.010885 -0.002533 -0.002456 0.000000 0.000000 0.000000
# 2 -0.002533 0.010319 -0.001781 0.000000 0.000000 0.000000
# 3 -0.002456 -0.001781 0.004787 0.000000 0.000000 0.000000
# 4 0.000000 0.000000 0.000000 0.045765 0.000000 0.000000
# 5 0.000000 0.000000 0.000000 0.000000 0.016649 0.000000
# 6 0.000000 0.000000 0.000000 0.000000 0.000000 0.022116
#
#
# Mechanical properties :
#
#
# Convention : Reuss Voigt Hill
#
# Bulk Modulus (GPa) = 80.31935 97.97066 89.14501
# Shear Modulus (GPa) = 38.99769 47.11431 43.05600
#
# Velocity S-wave (km/s) = 3.81605 4.19441 4.00969
# Velocity P-wave (km/s) = 7.02912 7.74860 7.39761
#
# Compressibility (1/GPa) = 0.01245030
#
# Stress axis : x y z
#
# Youngs Moduli (GPa) = 91.87039 96.90763 208.89025
#
# Poissons Ratio (x) = 0.24546 0.51309
# Poissons Ratio (y) = 0.23270 0.37208
# Poissons Ratio (z) = 0.22566 0.17262
#
# Static dielectric constant tensor:
#      x y z
#    x 2.211670 0.000000 0.000000 
#    y 0.000000 2.470780 0.000000 
#    z 0.000000 0.000000 2.175790 
# 
# From -- ./inp_files/12489.got.cif
#   From: 2010.05.17/outbox.cif.g08.bks.cpg/sg73_7_cif.got.tgz:12489.got - 2010.06.03 17:35:07.
