data_PCOD9533720
_publ_section_title
;
Structure prediction by ZEFSAII (Michael W. Deem and Ramdas Pophale) SiO2 
 PCOD9533720
Probable space group: I B C A 
;
_chemical_formula_sum "Si O2"
_cell_formula_units_Z 40
_cell_length_a 6.585695
_cell_length_b 17.144327
_cell_length_c 13.263203
_cell_angle_alpha 90.000000
_cell_angle_beta 90.000000
_cell_angle_gamma 90.000000
_cell_volume 1497.512554
_symmetry_space_group_name_H-M "I B C A "
_symmetry_group_IT_number 73
_symmetry_cell_setting 'orthorhombic'
loop_
_space_group_symop_operation_xyz
x,y,z
-x,1/2-y,z
x,-y,1/2-z
1/2-x,y,-z
-x,-y,-z
x,1/2+y,-z
-x,y,1/2+z
1/2+x,-y,z
1/2+x,1/2+y,1/2+z
1/2-x,-y,1/2+z
1/2+x,1/2-y,-z
-x,1/2+y,1/2-z
1/2-x,1/2-y,1/2-z
1/2+x,y,1/2-z
1/2-x,1/2+y,z
x,1/2-y,1/2+z
loop_
_atom_site_type_symbol
_atom_site_label
_atom_site_fract_x
_atom_site_fract_y
_atom_site_fract_z
Si Si1 0.250000 0.071276 0.000000
Si Si2 0.064755 0.160158 0.360142
Si Si3 0.950425 0.930912 0.329954
O O1 0.398550 0.121624 0.068462
O O2 0.102641 0.033788 0.085750
O O3 0.284463 0.123244 0.385742
O O4 0.000000 0.250000 0.361658
O O5 0.055605 0.130486 0.244540
O O6 0.888860 0.000000 0.250000
#
# Coordination Sequence:
#
# PCOD9533720 Si02
#       3
#     8  16  16
#     4  12  30  50  88 118 166 226 286 344 438 496
#     4  12  28  51  83 120 173 223 287 352 423 503
#     4  12  28  55  81 125 173 224 283 355 424 512
#
# _framework density 26.710961999999999
#
# number of rings (size 3 to 8) (size 9 to 14) (size 15 to 20)
#    0.000    0.000    4.000    3.600    5.600    3.200 
#    0.000    0.000    0.000    0.000    0.000    0.000 
#    0.000    0.000    0.000    0.000    0.000    0.000 
#
# Total GULP energy -111782.979338 kJ/mol
# GULP energy per Si atom -5589.148967 kJ/mol
# Density = 2.665017 g / cm^3
# Si number density = 26.710962 Si / 1000 Ang^3
#
#
#
# Elastic Constant Matrix: (Units=GPa)
#
#
# Indices 1 2 3 4 5 6 
#
# 1 121.8840 50.4667 70.3608 0.0000 0.0000 0.0000
# 2 50.4667 197.4670 57.0954 0.0000 0.0000 0.0000
# 3 70.3608 57.0954 202.1108 0.0000 0.0000 0.0000
# 4 0.0000 0.0000 0.0000 30.9845 0.0000 0.0000
# 5 0.0000 0.0000 0.0000 0.0000 85.6464 0.0000
# 6 0.0000 0.0000 0.0000 0.0000 0.0000 -5.2709
#
#
#
# Elastic Compliance Matrix: (Units=1/GPa)
#
#
# Indices 1 2 3 4 5 6 
#
# 1 0.010843 -0.001829 -0.003258 0.000000 0.000000 0.000000
# 2 -0.001829 0.005823 -0.001008 0.000000 0.000000 0.000000
# 3 -0.003258 -0.001008 0.006367 0.000000 0.000000 0.000000
# 4 0.000000 0.000000 0.000000 0.032274 0.000000 0.000000
# 5 0.000000 0.000000 0.000000 0.000000 0.011676 0.000000
# 6 0.000000 0.000000 0.000000 0.000000 0.000000 -0.189722
#
#
# Mechanical properties :
#
#
# Convention : Reuss Voigt Hill
#
# Bulk Modulus (GPa) = 92.23376 97.47862 94.85619
# Shear Modulus (GPa) = -46.75723 45.17460 -0.79132
#
# Velocity S-wave (km/s) = -4.18842 4.11693 -0.54488
# Velocity P-wave (km/s) = 3.34884 7.69233 5.93240
#
# Compressibility (1/GPa) = 0.01084202
#
# Stress axis : x y z
#
# Youngs Moduli (GPa) = 92.22902 171.72938 157.06507
#
# Poissons Ratio (x) = 0.31410 0.51171
# Poissons Ratio (y) = 0.16869 0.15836
# Poissons Ratio (z) = 0.30048 0.17315
#
# Static dielectric constant tensor:
#      x y z
#    x 2.266520 0.000000 0.000000 
#    y 0.000000 2.039660 0.000000 
#    z 0.000000 0.000000 2.076370 
# 
# From -- ./inp_files/8872.got.cif
#   From: 2010.05.17/outbox.cif.g08.bks.cpg/sg73_5_cif.got.tgz:8872.got - 2010.06.03 17:35:07.
