data_PCOD9533512
_publ_section_title
;
Structure prediction by ZEFSAII (Michael W. Deem and Ramdas Pophale) SiO2 
 PCOD9533512
Probable space group: I B C A 
;
_chemical_formula_sum "Si O2"
_cell_formula_units_Z 80
_cell_length_a 23.673300
_cell_length_b 11.157353
_cell_length_c 13.928776
_cell_angle_alpha 90.000000
_cell_angle_beta 90.000000
_cell_angle_gamma 90.000000
_cell_volume 3679.026615
_symmetry_space_group_name_H-M "I B C A "
_symmetry_group_IT_number 73
_symmetry_cell_setting 'orthorhombic'
loop_
_space_group_symop_operation_xyz
x,y,z
-x,1/2-y,z
x,-y,1/2-z
1/2-x,y,-z
-x,-y,-z
x,1/2+y,-z
-x,y,1/2+z
1/2+x,-y,z
1/2+x,1/2+y,1/2+z
1/2-x,-y,1/2+z
1/2+x,1/2-y,-z
-x,1/2+y,1/2-z
1/2-x,1/2-y,1/2-z
1/2+x,y,1/2-z
1/2-x,1/2+y,z
x,1/2-y,1/2+z
loop_
_atom_site_type_symbol
_atom_site_label
_atom_site_fract_x
_atom_site_fract_y
_atom_site_fract_z
Si Si1 0.826888 0.113166 0.290576
Si Si2 0.628893 0.683620 0.914579
Si Si3 0.041675 0.636706 0.740265
Si Si4 0.858222 0.226571 0.620591
Si Si5 0.279250 0.008017 0.902319
O O1 0.858816 0.185042 0.372536
O O2 0.821887 0.200100 0.199059
O O3 0.861109 0.000000 0.250000
O O4 0.769526 0.059036 0.333992
O O5 0.572863 0.639090 0.862778
O O6 0.680217 0.601350 0.874187
O O7 0.626399 0.690651 0.029523
O O8 0.019686 0.500000 0.750000
O O9 0.089528 0.668323 0.820923
O O10 0.000000 0.750000 0.744642
O O11 0.820259 0.119661 0.580551
O O12 0.250000 0.968129 0.000000
#
# Coordination Sequence:
#
# PCOD9533512 Si02
#       5
#    16  16  16  16  16
#     4  11  26  37  65 102 144 196 235 284 350 442
#     4  11  26  47  68 106 147 189 243 303 362 452
#     4  11  26  52  79 104 141 193 256 327 384 434
#     4  11  25  46  69 105 144 189 246 296 367 448
#     4  12  24  40  67 103 153 193 233 280 359 443
#
# _framework density 21.744883000000002
#
# number of rings (size 3 to 8) (size 9 to 14) (size 15 to 20)
#    0.000    0.800    4.000    1.800   11.200    4.000 
#    0.000    2.000    0.000    0.000    0.000    0.000 
#    0.000    0.000    0.000    0.000    0.000    0.000 
#
# Total GULP energy -223438.413658 kJ/mol
# GULP energy per Si atom -5585.960341 kJ/mol
# Density = 2.169539 g / cm^3
# Si number density = 21.744883 Si / 1000 Ang^3
#
#
#
# Elastic Constant Matrix: (Units=GPa)
#
#
# Indices 1 2 3 4 5 6 
#
# 1 63.1628 34.9340 12.5950 0.0000 0.0000 0.0000
# 2 34.9340 127.8047 18.2069 0.0000 0.0000 0.0000
# 3 12.5950 18.2069 106.6421 0.0000 0.0000 0.0000
# 4 0.0000 0.0000 0.0000 28.3291 0.0000 0.0000
# 5 0.0000 0.0000 0.0000 0.0000 19.0337 0.0000
# 6 0.0000 0.0000 0.0000 0.0000 0.0000 -2.8707
#
#
#
# Elastic Compliance Matrix: (Units=1/GPa)
#
#
# Indices 1 2 3 4 5 6 
#
# 1 0.018848 -0.004955 -0.001380 0.000000 0.000000 0.000000
# 2 -0.004955 0.009322 -0.001006 0.000000 0.000000 0.000000
# 3 -0.001380 -0.001006 0.009712 0.000000 0.000000 0.000000
# 4 0.000000 0.000000 0.000000 0.035299 0.000000 0.000000
# 5 0.000000 0.000000 0.000000 0.000000 0.052538 0.000000
# 6 0.000000 0.000000 0.000000 0.000000 0.000000 -0.348346
#
#
# Mechanical properties :
#
#
# Convention : Reuss Voigt Hill
#
# Bulk Modulus (GPa) = 43.10554 47.67573 45.39064
# Shear Modulus (GPa) = -24.97381 24.35666 -0.30857
#
# Velocity S-wave (km/s) = -3.39262 3.35044 -0.37711
# Velocity P-wave (km/s) = 2.12600 6.07782 4.55301
#
# Compressibility (1/GPa) = 0.02319887
#
# Stress axis : x y z
#
# Youngs Moduli (GPa) = 53.05619 107.26999 102.96587
#
# Poissons Ratio (x) = 0.53155 0.14210
# Poissons Ratio (y) = 0.26291 0.10362
# Poissons Ratio (z) = 0.07322 0.10795
#
# Static dielectric constant tensor:
#      x y z
#    x 1.782000 0.000000 0.000000 
#    y 0.000000 1.837510 0.000000 
#    z 0.000000 0.000000 1.813310 
# 
# From -- ./inp_files/19181.got.cif
#   From: 2010.05.17/outbox.cif.g08.bks.cpg/sg73_10_cif.got.tgz:19181.got - 2010.06.03 17:35:07.
