data_PCOD9533736
_publ_section_title
;
Structure prediction by ZEFSAII (Michael W. Deem and Ramdas Pophale) SiO2 
 PCOD9533736
Probable space group: I B C A 
;
_chemical_formula_sum "Si O2"
_cell_formula_units_Z 56
_cell_length_a 12.000000
_cell_length_b 15.000000
_cell_length_c 30.000000
_cell_angle_alpha 90.000000
_cell_angle_beta 90.000000
_cell_angle_gamma 90.000000
_cell_volume 5400.000000
_symmetry_space_group_name_H-M "I B C A "
_symmetry_group_IT_number 73
_symmetry_cell_setting 'orthorhombic'
loop_
_space_group_symop_operation_xyz
x,y,z
-x,1/2-y,z
x,-y,1/2-z
1/2-x,y,-z
-x,-y,-z
x,1/2+y,-z
-x,y,1/2+z
1/2+x,-y,z
1/2+x,1/2+y,1/2+z
1/2-x,-y,1/2+z
1/2+x,1/2-y,-z
-x,1/2+y,1/2-z
1/2-x,1/2-y,1/2-z
1/2+x,y,1/2-z
1/2-x,1/2+y,z
x,1/2-y,1/2+z
loop_
_atom_site_type_symbol
_atom_site_label
_atom_site_fract_x
_atom_site_fract_y
_atom_site_fract_z
Si Si1 0.742455 0.426745 0.389974
Si Si2 0.636641 0.575253 0.973885
Si Si3 0.983510 0.591300 0.943252
Si Si4 0.021249 0.024636 0.801843
Si Si5 0.183943 0.345693 0.801647
Si Si6 0.781532 0.353271 0.794718
Si Si7 0.612208 0.399929 0.863797
O O1 0.804629 0.520289 0.379444
O O2 0.623524 0.438503 0.413862
O O3 0.742521 0.369742 0.344786
O O4 0.820126 0.380865 0.428282
O O5 0.558688 0.492959 0.958697
O O6 0.750000 0.545191 0.000000
O O7 0.566813 0.629859 0.010888
O O8 0.060867 0.643482 0.908092
O O9 0.928355 0.099948 0.808384
O O10 0.140007 0.067669 0.811036
O O11 0.017465 0.000000 0.750000
O O12 0.984109 0.945617 0.833974
O O13 0.159035 0.241756 0.795094
O O14 0.241464 0.374682 0.755272
O O15 0.679742 0.342052 0.828663
#
# Coordination Sequence:
#
# PCOD9533736 Si02
#       7
#    16  16  16  16  16  16  16
#     4   9  18  31  53  79 110 146 194 241 281 343
#     4   8  15  29  50  82 115 143 182 243 300 345
#     4   9  16  29  51  82 113 142 184 237 298 336
#     4  11  22  35  58  78 109 149 196 235 274 329
#     4  10  23  39  52  80 115 155 194 226 289 342
#     4  11  23  37  54  77 118 154 187 240 281 337
#     4  10  20  33  52  85 107 144 196 236 283 330
#
# _framework density 10.370369999999999
#
# number of rings (size 3 to 8) (size 9 to 14) (size 15 to 20)
#    0.000    2.286    1.429    1.286    6.000    0.000 
#    0.000    0.714    0.000    0.000    0.000   88.000 
#    0.000    0.000    0.000    0.000    0.000    0.000 
#
# Total GULP energy -311975.943203 kJ/mol
# GULP energy per Si atom -5570.998986 kJ/mol
# Density = 1.034677 g / cm^3
# Si number density = 10.370370 Si / 1000 Ang^3
#
#
#
# Elastic Constant Matrix: (Units=GPa)
#
#
# Indices 1 2 3 4 5 6 
#
# 1 74.3769 7.3917 52.1631 0.0000 0.0000 0.0000
# 2 7.3917 13.2027 6.5689 0.0000 0.0000 0.0000
# 3 52.1631 6.5689 131.3638 0.0000 0.0000 0.0000
# 4 0.0000 0.0000 0.0000 -3.5243 0.0000 0.0000
# 5 0.0000 0.0000 0.0000 0.0000 35.7835 0.0000
# 6 0.0000 0.0000 0.0000 0.0000 0.0000 12.9707
#
#
#
# Elastic Compliance Matrix: (Units=1/GPa)
#
#
# Indices 1 2 3 4 5 6 
#
# 1 0.019273 -0.007161 -0.007295 0.000000 0.000000 0.000000
# 2 -0.007161 0.080335 -0.001174 0.000000 0.000000 0.000000
# 3 -0.007295 -0.001174 0.010568 0.000000 0.000000 0.000000
# 4 0.000000 0.000000 0.000000 -0.283742 0.000000 0.000000
# 5 0.000000 0.000000 0.000000 0.000000 0.027946 0.000000
# 6 0.000000 0.000000 0.000000 0.000000 0.000000 0.077097
#
#
# Mechanical properties :
#
#
# Convention : Reuss Voigt Hill
#
# Bulk Modulus (GPa) = 12.67152 39.02120 25.84636
# Shear Modulus (GPa) = -456.24681 19.23395 -218.50643
#
# Velocity S-wave (km/s) = -14.84768 3.04855 -10.27521
# Velocity P-wave (km/s) = 16.96513 5.58983 11.32628
#
# Compressibility (1/GPa) = 0.07891713
#
# Stress axis : x y z
#
# Youngs Moduli (GPa) = 51.88629 12.44785 94.62623
#
# Poissons Ratio (x) = 0.08914 0.69030
# Poissons Ratio (y) = 0.37154 0.11106
# Poissons Ratio (z) = 0.37851 0.01461
#
# Static dielectric constant tensor:
#      x y z
#    x 1.786810 0.000000 0.000000 
#    y 0.000000 1.729700 0.000000 
#    z 0.000000 0.000000 1.794500 
# 
# From -- ./inp_files/34042.got.cif
#   From: 2010.05.17/outbox.ucp.g08.bks.cvg/sg73_18_cif.got.tgz:34042.got - 2010.06.11 16:36:03.
