data_PCOD9533672
_publ_section_title
;
Structure prediction by ZEFSAII (Michael W. Deem and Ramdas Pophale) SiO2 
 PCOD9533672
Probable space group: I B C A 
;
_chemical_formula_sum "Si O2"
_cell_formula_units_Z 48
_cell_length_a 14.250943
_cell_length_b 18.165390
_cell_length_c 8.055480
_cell_angle_alpha 90.000000
_cell_angle_beta 90.000000
_cell_angle_gamma 90.000000
_cell_volume 2085.353826
_symmetry_space_group_name_H-M "I B C A "
_symmetry_group_IT_number 73
_symmetry_cell_setting 'orthorhombic'
loop_
_space_group_symop_operation_xyz
x,y,z
-x,1/2-y,z
x,-y,1/2-z
1/2-x,y,-z
-x,-y,-z
x,1/2+y,-z
-x,y,1/2+z
1/2+x,-y,z
1/2+x,1/2+y,1/2+z
1/2-x,-y,1/2+z
1/2+x,1/2-y,-z
-x,1/2+y,1/2-z
1/2-x,1/2-y,1/2-z
1/2+x,y,1/2-z
1/2-x,1/2+y,z
x,1/2-y,1/2+z
loop_
_atom_site_type_symbol
_atom_site_label
_atom_site_fract_x
_atom_site_fract_y
_atom_site_fract_z
Si Si1 0.212633 0.171426 0.312413
Si Si2 0.624171 0.584703 0.298832
Si Si3 0.469887 0.332925 0.393335
O O1 0.250000 0.164479 0.500000
O O2 0.250000 0.250000 0.250000
O O3 0.267818 0.108169 0.213346
O O4 0.103631 0.169820 0.261451
O O5 0.612890 0.500000 0.250000
O O6 0.564671 0.628327 0.161721
O O7 0.581160 0.617620 0.468043
O O8 0.500000 0.250000 0.442426
#
# Coordination Sequence:
#
# PCOD9533672 Si02
#       3
#    16  16  16
#     4  12  26  46  74 107 145 194 251 309 374 447
#     4  12  27  46  73 112 151 194 247 314 381 443
#     4  12  25  46  77 109 152 200 256 306 375 458
#
# _framework density 23.017675000000001
#
# number of rings (size 3 to 8) (size 9 to 14) (size 15 to 20)
#    0.000    0.000    3.333    7.000    0.000    4.000 
#    0.000    0.000    0.000    0.000    0.000    0.000 
#    0.000    0.000    0.000    0.000    0.000    0.000 
#
# Total GULP energy -134299.707771 kJ/mol
# GULP energy per Si atom -5595.821157 kJ/mol
# Density = 2.296529 g / cm^3
# Si number density = 23.017675 Si / 1000 Ang^3
#
#
#
# Elastic Constant Matrix: (Units=GPa)
#
#
# Indices 1 2 3 4 5 6 
#
# 1 134.3649 46.6903 30.3780 0.0000 0.0000 0.0000
# 2 46.6903 181.8190 33.6549 0.0000 0.0000 0.0000
# 3 30.3780 33.6549 130.4109 0.0000 0.0000 0.0000
# 4 0.0000 0.0000 0.0000 22.0765 0.0000 0.0000
# 5 0.0000 0.0000 0.0000 0.0000 31.6354 0.0000
# 6 0.0000 0.0000 0.0000 0.0000 0.0000 34.4113
#
#
#
# Elastic Compliance Matrix: (Units=1/GPa)
#
#
# Indices 1 2 3 4 5 6 
#
# 1 0.008434 -0.001893 -0.001476 0.000000 0.000000 0.000000
# 2 -0.001893 0.006201 -0.001159 0.000000 0.000000 0.000000
# 3 -0.001476 -0.001159 0.008311 0.000000 0.000000 0.000000
# 4 0.000000 0.000000 0.000000 0.045297 0.000000 0.000000
# 5 0.000000 0.000000 0.000000 0.000000 0.031610 0.000000
# 6 0.000000 0.000000 0.000000 0.000000 0.000000 0.029060
#
#
# Mechanical properties :
#
#
# Convention : Reuss Voigt Hill
#
# Bulk Modulus (GPa) = 71.99719 74.22682 73.11200
# Shear Modulus (GPa) = 35.06341 40.01607 37.53974
#
# Velocity S-wave (km/s) = 3.90721 4.17405 4.04283
# Velocity P-wave (km/s) = 7.19042 7.45305 7.32291
#
# Compressibility (1/GPa) = 0.01388943
#
# Stress axis : x y z
#
# Youngs Moduli (GPa) = 118.57065 161.27574 120.32083
#
# Poissons Ratio (x) = 0.30522 0.17761
# Poissons Ratio (y) = 0.22440 0.13949
# Poissons Ratio (z) = 0.17503 0.18697
#
# Static dielectric constant tensor:
#      x y z
#    x 1.863450 0.000000 0.000000 
#    y 0.000000 1.726000 0.000000 
#    z 0.000000 0.000000 1.951110 
# 
# From -- ./inp_files/4285.got.cif
#   From: 2010.05.17/outbox.cif.g08.bks.cpg/sg73_3_cif.got.tgz:4285.got - 2010.06.03 17:35:07.
