data_PCOD9533089
_publ_section_title
;
Structure prediction by ZEFSAII (Michael W. Deem and Ramdas Pophale) SiO2 
 PCOD9533089
Probable space group: I B C A 
;
_chemical_formula_sum "Si O2"
_cell_formula_units_Z 40
_cell_length_a 9.206416
_cell_length_b 11.775481
_cell_length_c 13.742392
_cell_angle_alpha 90.000000
_cell_angle_beta 90.000000
_cell_angle_gamma 90.000000
_cell_volume 1489.812396
_symmetry_space_group_name_H-M "I B C A "
_symmetry_group_IT_number 73
_symmetry_cell_setting 'orthorhombic'
loop_
_space_group_symop_operation_xyz
x,y,z
-x,1/2-y,z
x,-y,1/2-z
1/2-x,y,-z
-x,-y,-z
x,1/2+y,-z
-x,y,1/2+z
1/2+x,-y,z
1/2+x,1/2+y,1/2+z
1/2-x,-y,1/2+z
1/2+x,1/2-y,-z
-x,1/2+y,1/2-z
1/2-x,1/2-y,1/2-z
1/2+x,y,1/2-z
1/2-x,1/2+y,z
x,1/2-y,1/2+z
loop_
_atom_site_type_symbol
_atom_site_label
_atom_site_fract_x
_atom_site_fract_y
_atom_site_fract_z
Si Si1 0.985113 0.870987 0.570983
Si Si2 0.000000 0.250000 0.118707
Si Si3 0.222909 0.060213 0.154491
O O1 0.149406 0.913158 0.579740
O O2 0.000000 0.750000 0.624371
O O3 0.934421 0.837976 0.461901
O O4 0.883839 0.962740 0.617679
O O5 0.875246 0.325280 0.169651
O O6 0.290931 0.000000 0.250000
#
# Coordination Sequence:
#
# PCOD9533089 Si02
#       3
#    16   8  16
#     4  10  27  47  75 109 161 211 267 314 405 485
#     4  10  26  46  76 106 158 212 260 314 400 482
#     4  12  26  47  78 117 158 204 268 336 401 464
#
# _framework density 26.849018000000001
#
# number of rings (size 3 to 8) (size 9 to 14) (size 15 to 20)
#    1.200    0.000    0.000    3.600    8.400    1.600 
#    0.000    0.000    0.000    0.000    0.000    0.000 
#    0.000    0.000    0.000    0.000    0.000    0.000 
#
# Total GULP energy -111828.000726 kJ/mol
# GULP energy per Si atom -5591.400036 kJ/mol
# Density = 2.678791 g / cm^3
# Si number density = 26.849018 Si / 1000 Ang^3
#
#
#
# Elastic Constant Matrix: (Units=GPa)
#
#
# Indices 1 2 3 4 5 6 
#
# 1 120.7728 77.8008 9.7817 0.0000 0.0000 0.0000
# 2 77.8008 187.4838 32.9399 0.0000 0.0000 0.0000
# 3 9.7817 32.9399 67.5813 0.0000 0.0000 0.0000
# 4 0.0000 0.0000 0.0000 39.3879 0.0000 0.0000
# 5 0.0000 0.0000 0.0000 0.0000 -7.3298 0.0000
# 6 0.0000 0.0000 0.0000 0.0000 0.0000 32.7608
#
#
#
# Elastic Compliance Matrix: (Units=1/GPa)
#
#
# Indices 1 2 3 4 5 6 
#
# 1 0.011332 -0.004828 0.000713 0.000000 0.000000 0.000000
# 2 -0.004828 0.007890 -0.003147 0.000000 0.000000 0.000000
# 3 0.000713 -0.003147 0.016228 0.000000 0.000000 0.000000
# 4 0.000000 0.000000 0.000000 0.025388 0.000000 0.000000
# 5 0.000000 0.000000 0.000000 0.000000 -0.136429 0.000000
# 6 0.000000 0.000000 0.000000 0.000000 0.000000 0.030524
#
#
# Mechanical properties :
#
#
# Convention : Reuss Voigt Hill
#
# Bulk Modulus (GPa) = 47.78668 68.54252 58.16460
# Shear Modulus (GPa) = -212.16435 29.98481 -91.08977
#
# Velocity S-wave (km/s) = -8.89903 3.34547 -5.83098
# Velocity P-wave (km/s) = 9.36768 6.36453 4.86036
#
# Compressibility (1/GPa) = 0.02092633
#
# Stress axis : x y z
#
# Youngs Moduli (GPa) = 88.24296 126.74039 61.62313
#
# Poissons Ratio (x) = 0.61189 -0.04393
# Poissons Ratio (y) = 0.42603 0.19393
# Poissons Ratio (z) = -0.06291 0.39885
#
# Static dielectric constant tensor:
#      x y z
#    x 1.981900 0.000000 0.000000 
#    y 0.000000 2.157580 0.000000 
#    z 0.000000 0.000000 2.164960 
# 
# From -- ./inp_files/3647.got.cif
#   From: 2010.05.17/outbox.cif.g08.bks.cpg/sg73_2_cif.got.tgz:3647.got - 2010.06.03 17:35:07.
