data_PCOD9533110
_publ_section_title
;
Structure prediction by ZEFSAII (Michael W. Deem and Ramdas Pophale) SiO2 
 PCOD9533110
Probable space group: I B C A 
;
_chemical_formula_sum "Si O2"
_cell_formula_units_Z 88
_cell_length_a 20.936562
_cell_length_b 9.162121
_cell_length_c 22.691493
_cell_angle_alpha 90.000000
_cell_angle_beta 90.000000
_cell_angle_gamma 90.000000
_cell_volume 4352.757395
_symmetry_space_group_name_H-M "I B C A "
_symmetry_group_IT_number 73
_symmetry_cell_setting 'orthorhombic'
loop_
_space_group_symop_operation_xyz
x,y,z
-x,1/2-y,z
x,-y,1/2-z
1/2-x,y,-z
-x,-y,-z
x,1/2+y,-z
-x,y,1/2+z
1/2+x,-y,z
1/2+x,1/2+y,1/2+z
1/2-x,-y,1/2+z
1/2+x,1/2-y,-z
-x,1/2+y,1/2-z
1/2-x,1/2-y,1/2-z
1/2+x,y,1/2-z
1/2-x,1/2+y,z
x,1/2-y,1/2+z
loop_
_atom_site_type_symbol
_atom_site_label
_atom_site_fract_x
_atom_site_fract_y
_atom_site_fract_z
Si Si1 0.395620 0.471077 0.004003
Si Si2 0.504887 0.084628 0.407182
Si Si3 0.808834 0.785230 0.042909
Si Si4 0.042957 0.385569 0.302494
Si Si5 0.769425 0.500000 0.250000
Si Si6 0.684159 0.230114 0.677308
O O1 0.429455 0.557969 0.057397
O O2 0.366488 0.325012 0.030251
O O3 0.449310 0.437426 0.955638
O O4 0.338509 0.558464 0.973126
O O5 0.500000 0.250000 0.384609
O O6 0.492499 0.968474 0.355929
O O7 0.790374 0.767151 0.110720
O O8 0.750000 0.755911 0.000000
O O9 0.052984 0.500000 0.250000
O O10 0.111129 0.323431 0.323205
O O11 0.000000 0.250000 0.282577
O O12 0.809017 0.388106 0.291316
O O13 0.725083 0.608965 0.287779
#
# Coordination Sequence:
#
# PCOD9533110 Si02
#       6
#    16  16  16  16   8  16
#     4  11  24  43  66 101 136 182 226 274 352 419
#     4  11  23  44  70  95 138 186 223 282 347 421
#     4  12  26  43  69 106 142 178 230 289 348 415
#     4  12  26  46  70 104 139 177 237 293 348 406
#     4  10  26  50  74  96 134 196 234 280 358 400
#     4  11  25  49  73 100 140 183 237 291 340 425
#
# _framework density 20.217068000000001
#
# number of rings (size 3 to 8) (size 9 to 14) (size 15 to 20)
#    0.000    0.727    4.545    2.182    6.364    0.000 
#    3.273    0.000    0.000    0.000    0.000    0.000 
#    0.000    0.000    0.000    0.000    0.000    0.000 
#
# Total GULP energy -246079.725246 kJ/mol
# GULP energy per Si atom -5592.721028 kJ/mol
# Density = 2.017105 g / cm^3
# Si number density = 20.217068 Si / 1000 Ang^3
#
#
#
# Elastic Constant Matrix: (Units=GPa)
#
#
# Indices 1 2 3 4 5 6 
#
# 1 57.8483 9.8019 27.0943 0.0000 0.0000 0.0000
# 2 9.8019 106.6934 34.1620 0.0000 0.0000 0.0000
# 3 27.0943 34.1620 123.4719 0.0000 0.0000 0.0000
# 4 0.0000 0.0000 0.0000 31.4036 0.0000 0.0000
# 5 0.0000 0.0000 0.0000 0.0000 25.1892 0.0000
# 6 0.0000 0.0000 0.0000 0.0000 0.0000 10.4591
#
#
#
# Elastic Compliance Matrix: (Units=1/GPa)
#
#
# Indices 1 2 3 4 5 6 
#
# 1 0.019287 -0.000457 -0.004106 0.000000 0.000000 0.000000
# 2 -0.000457 0.010295 -0.002748 0.000000 0.000000 0.000000
# 3 -0.004106 -0.002748 0.009760 0.000000 0.000000 0.000000
# 4 0.000000 0.000000 0.000000 0.031844 0.000000 0.000000
# 5 0.000000 0.000000 0.000000 0.000000 0.039699 0.000000
# 6 0.000000 0.000000 0.000000 0.000000 0.000000 0.095610
#
#
# Mechanical properties :
#
#
# Convention : Reuss Voigt Hill
#
# Bulk Modulus (GPa) = 40.45322 47.79221 44.12272
# Shear Modulus (GPa) = 21.80005 27.87408 24.83706
#
# Velocity S-wave (km/s) = 3.28731 3.71717 3.50883
# Velocity P-wave (km/s) = 5.87038 6.48953 6.18770
#
# Compressibility (1/GPa) = 0.02471991
#
# Stress axis : x y z
#
# Youngs Moduli (GPa) = 51.84812 97.13909 102.45629
#
# Poissons Ratio (x) = 0.04442 0.42066
# Poissons Ratio (y) = 0.02371 0.28154
# Poissons Ratio (z) = 0.21288 0.26693
#
# Static dielectric constant tensor:
#      x y z
#    x 1.682750 0.000000 0.000000 
#    y 0.000000 1.708700 0.000000 
#    z 0.000000 0.000000 1.697670 
# 
# From -- ./inp_files/6315.got.cif
#   From: 2010.05.17/outbox.cif.g08.bks.cpg/sg73_4_cif.got.tgz:6315.got - 2010.06.03 17:35:07.
