data_PCOD9533156
_publ_section_title
;
Structure prediction by ZEFSAII (Michael W. Deem and Ramdas Pophale) SiO2 
 PCOD9533156
Probable space group: I B C A 
;
_chemical_formula_sum "Si O2"
_cell_formula_units_Z 64
_cell_length_a 10.528594
_cell_length_b 17.347265
_cell_length_c 14.486357
_cell_angle_alpha 90.000000
_cell_angle_beta 90.000000
_cell_angle_gamma 90.000000
_cell_volume 2645.821709
_symmetry_space_group_name_H-M "I B C A "
_symmetry_group_IT_number 73
_symmetry_cell_setting 'orthorhombic'
loop_
_space_group_symop_operation_xyz
x,y,z
-x,1/2-y,z
x,-y,1/2-z
1/2-x,y,-z
-x,-y,-z
x,1/2+y,-z
-x,y,1/2+z
1/2+x,-y,z
1/2+x,1/2+y,1/2+z
1/2-x,-y,1/2+z
1/2+x,1/2-y,-z
-x,1/2+y,1/2-z
1/2-x,1/2-y,1/2-z
1/2+x,y,1/2-z
1/2-x,1/2+y,z
x,1/2-y,1/2+z
loop_
_atom_site_type_symbol
_atom_site_label
_atom_site_fract_x
_atom_site_fract_y
_atom_site_fract_z
Si Si1 0.381571 0.808844 0.616299
Si Si2 0.955524 0.161229 0.412281
Si Si3 0.944890 0.588835 0.768172
Si Si4 0.233830 0.340900 0.891769
O O1 0.500000 0.750000 0.613362
O O2 0.390653 0.845991 0.512721
O O3 0.427469 0.868411 0.694153
O O4 0.267576 0.748332 0.637783
O O5 0.093475 0.123013 0.392174
O O6 0.000000 0.250000 0.402765
O O7 0.885056 0.126468 0.324554
O O8 0.966680 0.500000 0.750000
O O9 0.838499 0.605133 0.845890
O O10 0.250000 0.331704 0.000000
#
# Coordination Sequence:
#
# PCOD9533156 Si02
#       4
#    16  16  16  16
#     4   9  19  39  64  96 128 167 228 283 332 390
#     4  11  21  39  71  98 125 175 228 291 335 388
#     4  11  25  40  62 100 142 176 218 273 348 419
#     4  11  20  44  71  94 131 178 232 286 333 396
#
# _framework density 24.189084999999999
#
# number of rings (size 3 to 8) (size 9 to 14) (size 15 to 20)
#    0.000    1.500    7.500    2.250    0.000    6.000 
#    0.000    0.000    0.000    0.000    0.000    0.000 
#    0.000    0.000    0.000    0.000    0.000    0.000 
#
# Total GULP energy -178326.023604 kJ/mol
# GULP energy per Si atom -5572.688238 kJ/mol
# Density = 2.413403 g / cm^3
# Si number density = 24.189085 Si / 1000 Ang^3
#
#
#
# Elastic Constant Matrix: (Units=GPa)
#
#
# Indices 1 2 3 4 5 6 
#
# 1 90.5900 5.0582 -23.6886 0.0000 0.0000 0.0000
# 2 5.0582 115.2790 59.5030 0.0000 0.0000 0.0000
# 3 -23.6886 59.5030 127.2892 0.0002 -0.0002 0.0000
# 4 0.0000 0.0000 0.0002 -22.2463 -0.0001 0.0000
# 5 0.0000 0.0000 -0.0002 -0.0001 52.7485 0.0000
# 6 0.0000 0.0000 0.0000 0.0000 0.0000 20.4605
#
#
#
# Elastic Compliance Matrix: (Units=1/GPa)
#
#
# Indices 1 2 3 4 5 6 
#
# 1 0.012018 -0.002217 0.003273 0.000000 0.000000 0.000000
# 2 -0.002217 0.011842 -0.005948 0.000000 0.000000 0.000000
# 3 0.003273 -0.005948 0.011246 0.000000 0.000000 0.000000
# 4 0.000000 0.000000 0.000000 -0.044951 0.000000 0.000000
# 5 0.000000 0.000000 0.000000 0.000000 0.018958 0.000000
# 6 0.000000 0.000000 0.000000 0.000000 0.000000 0.048875
#
#
# Mechanical properties :
#
#
# Convention : Reuss Voigt Hill
#
# Bulk Modulus (GPa) = 39.49126 46.10037 42.79581
# Shear Modulus (GPa) = 65.60587 29.67823 47.64205
#
# Velocity S-wave (km/s) = 5.21354 3.50655 4.44280
# Velocity P-wave (km/s) = 7.25278 5.95770 6.63691
#
# Compressibility (1/GPa) = 0.02532206
#
# Stress axis : x y z
#
# Youngs Moduli (GPa) = 83.20623 84.44396 88.92200
#
# Poissons Ratio (x) = 0.18718 -0.29103
# Poissons Ratio (y) = 0.18444 0.52893
# Poissons Ratio (z) = -0.27232 0.50230
#
# Static dielectric constant tensor:
#      x y z
#    x 2.261010 0.000000 0.000000 
#    y 0.000000 1.877690 0.000000 
#    z 0.000000 0.000000 2.055380 
# 
# From -- ./inp_files/11506.got.cif
#   From: 2010.05.17/outbox.cif.g08.bks.cpg/sg73_6_cif.got.tgz:11506.got - 2010.06.03 17:35:07.
