data_PCOD9533011
_publ_section_title
;
Structure prediction by ZEFSAII (Michael W. Deem and Ramdas Pophale) SiO2 
 PCOD9533011
Probable space group: I B C A 
;
_chemical_formula_sum "Si O2"
_cell_formula_units_Z 56
_cell_length_a 18.082250
_cell_length_b 27.689927
_cell_length_c 5.269169
_cell_angle_alpha 90.000000
_cell_angle_beta 90.000000
_cell_angle_gamma 90.000000
_cell_volume 2638.252803
_symmetry_space_group_name_H-M "I B C A "
_symmetry_group_IT_number 73
_symmetry_cell_setting 'orthorhombic'
loop_
_space_group_symop_operation_xyz
x,y,z
-x,1/2-y,z
x,-y,1/2-z
1/2-x,y,-z
-x,-y,-z
x,1/2+y,-z
-x,y,1/2+z
1/2+x,-y,z
1/2+x,1/2+y,1/2+z
1/2-x,-y,1/2+z
1/2+x,1/2-y,-z
-x,1/2+y,1/2-z
1/2-x,1/2-y,1/2-z
1/2+x,y,1/2-z
1/2-x,1/2+y,z
x,1/2-y,1/2+z
loop_
_atom_site_type_symbol
_atom_site_label
_atom_site_fract_x
_atom_site_fract_y
_atom_site_fract_z
Si Si1 0.250000 0.217444 0.000000
Si Si2 0.198206 0.052642 0.251828
Si Si3 0.530542 0.305179 0.394060
Si Si4 0.328565 0.343456 0.152613
O O1 0.250000 0.250000 0.250000
O O2 0.183679 0.181892 0.075226
O O3 0.250000 0.049832 0.500000
O O4 0.150983 0.101043 0.295096
O O5 0.160132 0.000000 0.250000
O O6 0.250000 0.058972 0.000000
O O7 0.500000 0.250000 0.365257
O O8 0.517480 0.327722 0.120588
O O9 0.613222 0.311923 0.494711
O O10 0.250000 0.344229 0.000000
#
# Coordination Sequence:
#
# PCOD9533011 Si02
#       4
#     8  16  16  16
#     4  12  26  34  56  90 124 152 200 258 290 354
#     4   9  18  34  58  92 123 147 189 260 322 359
#     4  10  25  41  57  79 122 166 203 247 304 363
#     4  11  24  41  66  92 122 162 216 255 307 365
#
# _framework density 21.226168000000001
#
# number of rings (size 3 to 8) (size 9 to 14) (size 15 to 20)
#    0.000    1.714    2.857    0.000   12.000    0.000 
#    0.000    0.000    0.000    1.714    0.000    0.000 
#    0.000    0.000    0.000    0.000    0.000    0.000 
#
# Total GULP energy -155983.166298 kJ/mol
# GULP energy per Si atom -5570.827368 kJ/mol
# Density = 2.117786 g / cm^3
# Si number density = 21.226168 Si / 1000 Ang^3
#
#
#
# Elastic Constant Matrix: (Units=GPa)
#
#
# Indices 1 2 3 4 5 6 
#
# 1 82.7345 17.6783 5.2279 0.0000 0.0000 0.0000
# 2 17.6783 160.5192 7.9679 0.0000 0.0000 0.0000
# 3 5.2279 7.9679 130.6036 0.0001 0.0000 0.0000
# 4 0.0000 0.0000 0.0001 2.2903 0.0000 0.0000
# 5 0.0000 0.0000 0.0000 0.0000 32.3891 0.0000
# 6 0.0000 0.0000 0.0000 0.0000 0.0000 15.1692
#
#
#
# Elastic Compliance Matrix: (Units=1/GPa)
#
#
# Indices 1 2 3 4 5 6 
#
# 1 0.012400 -0.001345 -0.000414 0.000000 0.000000 0.000000
# 2 -0.001345 0.006395 -0.000336 0.000000 0.000000 0.000000
# 3 -0.000414 -0.000336 0.007694 0.000000 0.000000 0.000000
# 4 0.000000 0.000000 0.000000 0.436621 0.000000 0.000000
# 5 0.000000 0.000000 0.000000 0.000000 0.030875 0.000000
# 6 0.000000 0.000000 0.000000 0.000000 0.000000 0.065923
#
#
# Mechanical properties :
#
#
# Convention : Reuss Voigt Hill
#
# Bulk Modulus (GPa) = 44.84807 48.40061 46.62434
# Shear Modulus (GPa) = 8.74843 32.83527 20.79185
#
# Velocity S-wave (km/s) = 2.03236 3.93736 3.13315
# Velocity P-wave (km/s) = 5.16545 6.59714 5.92470
#
# Compressibility (1/GPa) = 0.02229750
#
# Stress axis : x y z
#
# Youngs Moduli (GPa) = 80.64219 156.38146 129.97378
#
# Poissons Ratio (x) = 0.21035 0.05385
# Poissons Ratio (y) = 0.10847 0.04371
# Poissons Ratio (z) = 0.03341 0.05259
#
# Static dielectric constant tensor:
#      x y z
#    x 1.883870 0.000000 0.000000 
#    y 0.000000 2.140960 0.000000 
#    z 0.000000 0.000000 1.853170 
# 
# From -- ./inp_files/716.got.cif
#   From: 2010.05.17/outbox.cif.g08.bks.cpg/sg73_1_cif.got.tgz:716.got - 2010.06.03 17:35:07.
