data_PCOD9533495
_publ_section_title
;
Structure prediction by ZEFSAII (Michael W. Deem and Ramdas Pophale) SiO2 
 PCOD9533495
Probable space group: I B C A 
;
_chemical_formula_sum "Si O2"
_cell_formula_units_Z 80
_cell_length_a 17.893119
_cell_length_b 7.629230
_cell_length_c 25.659890
_cell_angle_alpha 90.000000
_cell_angle_beta 90.000000
_cell_angle_gamma 90.000000
_cell_volume 3502.850066
_symmetry_space_group_name_H-M "I B C A "
_symmetry_group_IT_number 73
_symmetry_cell_setting 'orthorhombic'
loop_
_space_group_symop_operation_xyz
x,y,z
-x,1/2-y,z
x,-y,1/2-z
1/2-x,y,-z
-x,-y,-z
x,1/2+y,-z
-x,y,1/2+z
1/2+x,-y,z
1/2+x,1/2+y,1/2+z
1/2-x,-y,1/2+z
1/2+x,1/2-y,-z
-x,1/2+y,1/2-z
1/2-x,1/2-y,1/2-z
1/2+x,y,1/2-z
1/2-x,1/2+y,z
x,1/2-y,1/2+z
loop_
_atom_site_type_symbol
_atom_site_label
_atom_site_fract_x
_atom_site_fract_y
_atom_site_fract_z
Si Si1 0.910862 0.781782 0.697553
Si Si2 0.654843 0.842385 0.079583
Si Si3 0.673477 0.739521 0.405095
Si Si4 0.913917 0.800017 0.812180
Si Si5 0.560214 0.866079 0.979013
O O1 0.854249 0.709984 0.654029
O O2 0.890565 0.721334 0.756232
O O3 0.000000 0.750000 0.688852
O O4 0.904519 0.991636 0.694301
O O5 0.741134 0.788158 0.079156
O O6 0.625287 0.760764 0.133497
O O7 0.603249 0.792596 0.030232
O O8 0.652795 0.057206 0.081403
O O9 0.626385 0.603262 0.439570
O O10 0.000000 0.750000 0.818180
O O11 0.500000 0.750000 0.947381
O O12 0.500000 0.000000 0.000000
#
# Coordination Sequence:
#
# PCOD9533495 Si02
#       5
#    16  16  16  16  16
#     4   9  19  37  64  90 125 163 211 261 311 372
#     4  11  25  41  61  91 129 162 207 258 316 376
#     4  11  25  41  61  92 128 166 204 260 317 374
#     4   9  19  38  62  93 122 164 212 260 310 373
#     4  12  25  43  67  92 121 163 212 262 313 376
#
# _framework density 22.838543000000001
#
# number of rings (size 3 to 8) (size 9 to 14) (size 15 to 20)
#    0.000    1.600    2.000    1.800    5.600    4.000 
#    0.000    0.000    0.000    0.000    0.000    0.000 
#    0.000    0.000    0.000    0.000    0.000    0.000 
#
# Total GULP energy -223054.164635 kJ/mol
# GULP energy per Si atom -5576.354116 kJ/mol
# Density = 2.278656 g / cm^3
# Si number density = 22.838543 Si / 1000 Ang^3
#
#
#
# Elastic Constant Matrix: (Units=GPa)
#
#
# Indices 1 2 3 4 5 6 
#
# 1 153.3316 9.3034 90.9430 0.0000 0.0000 0.0000
# 2 9.3034 40.4284 18.9947 0.0000 0.0000 0.0000
# 3 90.9430 18.9947 154.8604 0.0000 0.0000 0.0000
# 4 0.0000 0.0000 0.0000 10.6346 0.0000 0.0000
# 5 0.0000 0.0000 0.0000 0.0000 -26.2345 0.0000
# 6 0.0000 0.0000 0.0000 0.0000 0.0000 37.0152
#
#
#
# Elastic Compliance Matrix: (Units=1/GPa)
#
#
# Indices 1 2 3 4 5 6 
#
# 1 0.010017 0.000487 -0.005942 0.000000 0.000000 0.000000
# 2 0.000487 0.026271 -0.003508 0.000000 0.000000 0.000000
# 3 -0.005942 -0.003508 0.010377 0.000000 0.000000 0.000000
# 4 0.000000 0.000000 0.000000 0.094033 0.000000 0.000000
# 5 0.000000 0.000000 0.000000 0.000000 -0.038118 0.000000
# 6 0.000000 0.000000 0.000000 0.000000 0.000000 0.027016
#
#
# Mechanical properties :
#
#
# Convention : Reuss Voigt Hill
#
# Bulk Modulus (GPa) = 34.79692 65.23365 50.01529
# Shear Modulus (GPa) = 31.82630 19.57500 25.70065
#
# Velocity S-wave (km/s) = 3.73706 2.93081 3.35822
# Velocity P-wave (km/s) = 5.82151 6.33071 6.08144
#
# Compressibility (1/GPa) = 0.02873818
#
# Stress axis : x y z
#
# Youngs Moduli (GPa) = 99.83461 38.06430 96.36485
#
# Poissons Ratio (x) = -0.01853 0.57260
# Poissons Ratio (y) = -0.04859 0.33807
# Poissons Ratio (z) = 0.59322 0.13354
#
# Static dielectric constant tensor:
#      x y z
#    x 1.776320 0.000000 0.000000 
#    y 0.000000 2.124660 0.000000 
#    z 0.000000 0.000000 1.892770 
# 
# From -- ./inp_files/5591.got.cif
#   From: 2010.05.17/outbox.cif.g08.bks.cpg/sg73_3_cif.got.tgz:5591.got - 2010.06.03 17:35:07.
