data_PCOD9533537
_publ_section_title
;
Structure prediction by ZEFSAII (Michael W. Deem and Ramdas Pophale) SiO2 
 PCOD9533537
Probable space group: I B C A 
;
_chemical_formula_sum "Si O2"
_cell_formula_units_Z 56
_cell_length_a 11.572784
_cell_length_b 12.413218
_cell_length_c 15.214948
_cell_angle_alpha 90.000000
_cell_angle_beta 90.000000
_cell_angle_gamma 90.000000
_cell_volume 2185.710820
_symmetry_space_group_name_H-M "I B C A "
_symmetry_group_IT_number 73
_symmetry_cell_setting 'orthorhombic'
loop_
_space_group_symop_operation_xyz
x,y,z
-x,1/2-y,z
x,-y,1/2-z
1/2-x,y,-z
-x,-y,-z
x,1/2+y,-z
-x,y,1/2+z
1/2+x,-y,z
1/2+x,1/2+y,1/2+z
1/2-x,-y,1/2+z
1/2+x,1/2-y,-z
-x,1/2+y,1/2-z
1/2-x,1/2-y,1/2-z
1/2+x,y,1/2-z
1/2-x,1/2+y,z
x,1/2-y,1/2+z
loop_
_atom_site_type_symbol
_atom_site_label
_atom_site_fract_x
_atom_site_fract_y
_atom_site_fract_z
Si Si1 0.595036 0.162777 0.683749
Si Si2 0.056430 0.010717 0.095339
Si Si3 0.841430 0.236435 0.630253
Si Si4 0.750000 0.108588 0.000000
O O1 0.500000 0.250000 0.656519
O O2 0.528765 0.052795 0.660922
O O3 0.712827 0.184850 0.631915
O O4 0.633634 0.194084 0.782589
O O5 0.077494 0.132720 0.124646
O O6 0.182714 0.956817 0.076320
O O7 0.000000 0.000000 0.000000
O O8 0.842095 0.314851 0.547702
#
# Coordination Sequence:
#
# PCOD9533537 Si02
#       4
#    16  16  16   8
#     4  11  25  53  75 114 163 207 265 337 414 488
#     4  12  27  48  82 119 157 219 273 332 422 488
#     4  11  27  50  78 115 160 210 272 340 407 497
#     4  12  24  50  78 118 164 206 280 346 402 508
#
# _framework density 25.620956
#
# number of rings (size 3 to 8) (size 9 to 14) (size 15 to 20)
#    0.000    0.571    2.857    4.286    4.000    1.143 
#    5.143    0.000    0.000    0.000    0.000    0.000 
#    0.000    0.000    0.000    0.000    0.000    0.000 
#
# Total GULP energy -156903.659323 kJ/mol
# GULP energy per Si atom -5603.702119 kJ/mol
# Density = 2.556264 g / cm^3
# Si number density = 25.620956 Si / 1000 Ang^3
#
#
#
# Elastic Constant Matrix: (Units=GPa)
#
#
# Indices 1 2 3 4 5 6 
#
# 1 143.5275 18.5118 20.1887 0.0000 0.0000 0.0000
# 2 18.5118 112.2380 66.7046 0.0000 0.0000 0.0000
# 3 20.1887 66.7046 110.0420 0.0000 0.0000 0.0000
# 4 0.0000 0.0000 0.0000 44.0850 0.0000 0.0000
# 5 0.0000 0.0000 0.0000 0.0000 47.7465 0.0000
# 6 0.0000 0.0000 0.0000 0.0000 0.0000 48.0080
#
#
#
# Elastic Compliance Matrix: (Units=1/GPa)
#
#
# Indices 1 2 3 4 5 6 
#
# 1 0.007180 -0.000627 -0.000937 0.000000 0.000000 0.000000
# 2 -0.000627 0.013982 -0.008360 0.000000 0.000000 0.000000
# 3 -0.000937 -0.008360 0.014327 0.000000 0.000000 0.000000
# 4 0.000000 0.000000 0.000000 0.022683 0.000000 0.000000
# 5 0.000000 0.000000 0.000000 0.000000 0.020944 0.000000
# 6 0.000000 0.000000 0.000000 0.000000 0.000000 0.020830
#
#
# Mechanical properties :
#
#
# Convention : Reuss Voigt Hill
#
# Bulk Modulus (GPa) = 63.94005 64.06863 64.00434
# Shear Modulus (GPa) = 39.99726 45.32806 42.66266
#
# Velocity S-wave (km/s) = 3.95538 4.21072 4.08505
# Velocity P-wave (km/s) = 6.77277 6.97860 6.87646
#
# Compressibility (1/GPa) = 0.01563965
#
# Stress axis : x y z
#
# Youngs Moduli (GPa) = 139.27537 71.52188 69.79775
#
# Poissons Ratio (x) = 0.04487 0.06540
# Poissons Ratio (y) = 0.08738 0.58353
# Poissons Ratio (z) = 0.13050 0.59794
#
# Static dielectric constant tensor:
#      x y z
#    x 2.207640 0.000000 0.000000 
#    y 0.000000 2.071000 0.000000 
#    z 0.000000 0.000000 2.006960 
# 
# From -- ./inp_files/16535.got.cif
#   From: 2010.05.17/outbox.cif.g08.bks.cpg/sg73_9_cif.got.tgz:16535.got - 2010.06.03 17:35:07.
