data_PCOD9533898
_publ_section_title
;
Structure prediction by ZEFSAII (Michael W. Deem and Ramdas Pophale) SiO2 
 PCOD9533898
Probable space group: I M M A
;
_chemical_formula_sum "Si O2"
_cell_formula_units_Z 64
_cell_length_a 12.904103
_cell_length_b 16.218769
_cell_length_c 13.245063
_cell_angle_alpha 90.000000
_cell_angle_beta 90.000000
_cell_angle_gamma 90.000000
_cell_volume 2772.041563
_symmetry_space_group_name_H-M "I M M A"
_symmetry_group_IT_number 74
_symmetry_cell_setting 'orthorhombic'
loop_
_space_group_symop_operation_xyz
x,y,z
-x,1/2-y,z
x,-y,-z
-x,1/2+y,-z
-x,-y,-z
x,1/2+y,-z
-x,y,z
x,1/2-y,z
1/2+x,1/2+y,1/2+z
1/2-x,-y,1/2+z
1/2+x,1/2-y,1/2-z
1/2-x,y,1/2-z
1/2-x,1/2-y,1/2-z
1/2+x,y,1/2-z
1/2-x,1/2+y,1/2+z
1/2+x,-y,1/2+z
loop_
_atom_site_type_symbol
_atom_site_label
_atom_site_fract_x
_atom_site_fract_y
_atom_site_fract_z
Si Si1 0.215232 0.344664 0.587579
Si Si2 0.722988 0.117908 0.149741
Si Si3 0.000000 0.915377 0.433807
Si Si4 0.882264 0.026397 0.881904
Si Si5 0.500000 0.155654 0.137462
O O1 0.203504 0.250000 0.618925
O O2 0.228952 0.347317 0.464268
O O3 0.319375 0.388251 0.627682
O O4 0.112947 0.399600 0.615070
O O5 0.750000 0.168291 0.250000
O O6 0.601052 0.104774 0.163697
O O7 0.801625 0.042243 0.155022
O O8 0.000000 0.841601 0.516471
O O9 0.000000 0.000000 0.500000
O O10 0.000000 0.027947 0.841648
O O11 0.891029 0.000000 0.000000
O O12 0.500000 0.250000 0.176177
#
# Coordination Sequence:
#
# PCOD9533898 Si02
#       5
#    16  16   8  16   8
#     4  10  19  32  52  79 109 141 176 225 281 327
#     4  10  20  33  54  75 108 146 184 224 270 326
#     4  10  16  28  50  74 104 135 172 215 263 315
#     4   9  19  35  53  74 103 142 189 227 259 321
#     4  10  20  32  46  72 107 137 170 215 271 327
#
# _framework density 23.087676999999999
#
# number of rings (size 3 to 8) (size 9 to 14) (size 15 to 20)
#    0.000    2.250    0.000    7.125    1.750    2.500 
#    0.000    0.000    0.000    0.750    0.000    0.000 
#    0.000    0.000    0.000    0.000    0.000    0.000 
#
# Total GULP energy -178187.950902 kJ/mol
# GULP energy per Si atom -5568.373466 kJ/mol
# Density = 2.303513 g / cm^3
# Si number density = 23.087677 Si / 1000 Ang^3
#
#
#
# Elastic Constant Matrix: (Units=GPa)
#
#
# Indices 1 2 3 4 5 6 
#
# 1 257.4729 94.5081 20.4743 0.0000 0.0000 0.0000
# 2 94.5081 172.0541 -3.9458 0.0000 0.0000 0.0000
# 3 20.4743 -3.9458 45.0780 0.0000 0.0000 0.0000
# 4 0.0000 0.0000 0.0000 -27.9164 0.0000 0.0000
# 5 0.0000 0.0000 0.0000 0.0000 22.2744 0.0000
# 6 0.0000 0.0000 0.0000 0.0000 0.0000 -20.7708
#
#
#
# Elastic Compliance Matrix: (Units=1/GPa)
#
#
# Indices 1 2 3 4 5 6 
#
# 1 0.005150 -0.002888 -0.002592 0.000000 0.000000 0.000000
# 2 -0.002888 0.007444 0.001963 0.000000 0.000000 0.000000
# 3 -0.002592 0.001963 0.023533 0.000000 0.000000 0.000000
# 4 0.000000 0.000000 0.000000 -0.035821 0.000000 0.000000
# 5 0.000000 0.000000 0.000000 0.000000 0.044895 0.000000
# 6 0.000000 0.000000 0.000000 0.000000 0.000000 -0.048144
#
#
# Mechanical properties :
#
#
# Convention : Reuss Voigt Hill
#
# Bulk Modulus (GPa) = 34.37262 77.40869 55.89065
# Shear Modulus (GPa) = 362.64528 18.95532 190.80030
#
# Velocity S-wave (km/s) = 12.54648 2.86844 9.10061
# Velocity P-wave (km/s) = 14.99352 6.67619 11.60554
#
# Compressibility (1/GPa) = 0.02909293
#
# Stress axis : x y z
#
# Youngs Moduli (GPa) = 194.16495 134.34077 42.49362
#
# Poissons Ratio (x) = 0.38804 0.11015
# Poissons Ratio (y) = 0.56083 -0.08344
# Poissons Ratio (z) = 0.50329 -0.26378
#
# Static dielectric constant tensor:
#      x y z
#    x 1.949550 0.000000 0.000000 
#    y 0.000000 1.851360 0.000000 
#    z 0.000000 0.000000 1.953480 
# 
# From -- ./inp_files/50316.got.cif
#   From: 2010.05.17/outbox.cif.g08.bks.cpg/sg74_26_cif.got.tgz:50316.got - 2010.06.03 17:57:02.
