data_PCOD9533706
_publ_section_title
;
Structure prediction by ZEFSAII (Michael W. Deem and Ramdas Pophale) SiO2 
 PCOD9533706
Probable space group: I B C A 
;
_chemical_formula_sum "Si O2"
_cell_formula_units_Z 56
_cell_length_a 9.291915
_cell_length_b 16.443136
_cell_length_c 14.221390
_cell_angle_alpha 90.000000
_cell_angle_beta 90.000000
_cell_angle_gamma 90.000000
_cell_volume 2172.860893
_symmetry_space_group_name_H-M "I B C A "
_symmetry_group_IT_number 73
_symmetry_cell_setting 'orthorhombic'
loop_
_space_group_symop_operation_xyz
x,y,z
-x,1/2-y,z
x,-y,1/2-z
1/2-x,y,-z
-x,-y,-z
x,1/2+y,-z
-x,y,1/2+z
1/2+x,-y,z
1/2+x,1/2+y,1/2+z
1/2-x,-y,1/2+z
1/2+x,1/2-y,-z
-x,1/2+y,1/2-z
1/2-x,1/2-y,1/2-z
1/2+x,y,1/2-z
1/2-x,1/2+y,z
x,1/2-y,1/2+z
loop_
_atom_site_type_symbol
_atom_site_label
_atom_site_fract_x
_atom_site_fract_y
_atom_site_fract_z
Si Si1 0.395289 0.821295 0.172330
Si Si2 0.750000 0.269594 0.000000
Si Si3 0.848905 0.895859 0.141808
Si Si4 0.939926 0.019527 0.603675
O O1 0.500000 0.750000 0.207197
O O2 0.305593 0.851022 0.262176
O O3 0.485868 0.897783 0.136481
O O4 0.315919 0.784909 0.081777
O O5 0.645012 0.331321 0.056694
O O6 0.999038 0.941596 0.158619
O O7 0.728805 0.963275 0.115353
O O8 0.000000 0.000000 0.500000
#
# Coordination Sequence:
#
# PCOD9533706 Si02
#       4
#    16   8  16  16
#     4  12  28  49  80 120 161 209 274 341 410 480
#     4  12  26  52  80 114 160 214 262 346 402 488
#     4  12  27  53  81 117 160 209 274 328 409 483
#     4  12  26  52  78 116 162 216 266 329 403 488
#
# _framework density 25.772475
#
# number of rings (size 3 to 8) (size 9 to 14) (size 15 to 20)
#    0.000    0.000    5.714    1.714    4.000    8.000 
#    0.000    0.000    0.000    0.000    0.000    0.000 
#    0.000    0.000    0.000    0.000    0.000    0.000 
#
# Total GULP energy -157051.646128 kJ/mol
# GULP energy per Si atom -5608.987362 kJ/mol
# Density = 2.571382 g / cm^3
# Si number density = 25.772475 Si / 1000 Ang^3
#
#
#
# Elastic Constant Matrix: (Units=GPa)
#
#
# Indices 1 2 3 4 5 6 
#
# 1 71.2713 26.8891 63.0048 0.0000 0.0000 0.0000
# 2 26.8891 113.7616 66.7005 0.0000 0.0000 0.0000
# 3 63.0048 66.7005 175.1975 0.0000 0.0000 0.0000
# 4 0.0000 0.0000 0.0000 50.5690 0.0000 0.0000
# 5 0.0000 0.0000 0.0000 0.0000 38.4629 0.0000
# 6 0.0000 0.0000 0.0000 0.0000 0.0000 46.4328
#
#
#
# Elastic Compliance Matrix: (Units=1/GPa)
#
#
# Indices 1 2 3 4 5 6 
#
# 1 0.020611 -0.000677 -0.007154 0.000000 0.000000 0.000000
# 2 -0.000677 0.011339 -0.004073 0.000000 0.000000 0.000000
# 3 -0.007154 -0.004073 0.009832 0.000000 0.000000 0.000000
# 4 0.000000 0.000000 0.000000 0.019775 0.000000 0.000000
# 5 0.000000 0.000000 0.000000 0.000000 0.025999 0.000000
# 6 0.000000 0.000000 0.000000 0.000000 0.000000 0.021537
#
#
# Mechanical properties :
#
#
# Convention : Reuss Voigt Hill
#
# Bulk Modulus (GPa) = 55.64319 74.82436 65.23377
# Shear Modulus (GPa) = 35.99933 40.66865 38.33399
#
# Velocity S-wave (km/s) = 3.74145 3.97670 3.86087
# Velocity P-wave (km/s) = 6.34836 7.08387 6.72617
#
# Compressibility (1/GPa) = 0.01797165
#
# Stress axis : x y z
#
# Youngs Moduli (GPa) = 48.51803 88.19444 101.71371
#
# Poissons Ratio (x) = 0.05970 0.72770
# Poissons Ratio (y) = 0.03284 0.41432
# Poissons Ratio (z) = 0.34712 0.35925
#
# Static dielectric constant tensor:
#      x y z
#    x 2.095850 0.000000 0.000000 
#    y 0.000000 1.995840 0.000000 
#    z 0.000000 0.000000 2.081880 
# 
# From -- ./inp_files/15774.got.cif
#   From: 2010.05.17/outbox.cif.g08.bks.cpg/sg73_8_cif.got.tgz:15774.got - 2010.06.03 17:35:07.
