data_PCOD9533120
_publ_section_title
;
Structure prediction by ZEFSAII (Michael W. Deem and Ramdas Pophale) SiO2 
 PCOD9533120
Probable space group: I B C A 
;
_chemical_formula_sum "Si O2"
_cell_formula_units_Z 96
_cell_length_a 21.606909
_cell_length_b 9.690236
_cell_length_c 18.555947
_cell_angle_alpha 90.000000
_cell_angle_beta 90.000000
_cell_angle_gamma 90.000000
_cell_volume 3885.170839
_symmetry_space_group_name_H-M "I B C A "
_symmetry_group_IT_number 73
_symmetry_cell_setting 'orthorhombic'
loop_
_space_group_symop_operation_xyz
x,y,z
-x,1/2-y,z
x,-y,1/2-z
1/2-x,y,-z
-x,-y,-z
x,1/2+y,-z
-x,y,1/2+z
1/2+x,-y,z
1/2+x,1/2+y,1/2+z
1/2-x,-y,1/2+z
1/2+x,1/2-y,-z
-x,1/2+y,1/2-z
1/2-x,1/2-y,1/2-z
1/2+x,y,1/2-z
1/2-x,1/2+y,z
x,1/2-y,1/2+z
loop_
_atom_site_type_symbol
_atom_site_label
_atom_site_fract_x
_atom_site_fract_y
_atom_site_fract_z
Si Si1 0.730526 0.565026 0.926621
Si Si2 0.892053 0.763782 0.172763
Si Si3 0.968836 0.500000 0.750000
Si Si4 0.517201 0.404409 0.407710
Si Si5 0.243416 0.828924 0.657954
Si Si6 0.407800 0.598073 0.462205
Si Si7 0.344445 0.500000 0.250000
O O1 0.762232 0.420256 0.913529
O O2 0.750257 0.669075 0.863124
O O3 0.657792 0.537919 0.936898
O O4 0.750000 0.634544 0.000000
O O5 0.824884 0.829789 0.190228
O O6 0.906102 0.738279 0.087361
O O7 0.887209 0.610510 0.208053
O O8 0.937915 0.869987 0.208184
O O9 0.989764 0.419999 0.677752
O O10 0.500000 0.250000 0.429717
O O11 0.466907 0.512983 0.435946
O O12 0.583088 0.412001 0.450936
O O13 0.298013 0.904803 0.701488
#
# Coordination Sequence:
#
# PCOD9533120 Si02
#       7
#    16  16   8  16  16  16   8
#     4  11  25  43  75 107 152 196 252 311 376 467
#     4  11  27  45  77 112 155 202 253 325 377 471
#     4  12  31  47  80 120 148 198 266 324 386 462
#     4  11  29  50  83 107 148 203 257 327 391 457
#     4  11  23  44  66 110 147 203 246 304 377 450
#     4  10  26  52  74 108 151 202 254 317 386 460
#     4  12  23  45  72 104 162 208 250 308 392 452
#
# _framework density 24.709337999999999
#
# number of rings (size 3 to 8) (size 9 to 14) (size 15 to 20)
#    0.000    1.000    3.333    1.500   14.000    2.667 
#    0.000    0.000    0.000    0.000    0.000    0.000 
#    0.000    0.000    0.000    0.000    0.000    0.000 
#
# Total GULP energy -267443.361409 kJ/mol
# GULP energy per Si atom -5571.736696 kJ/mol
# Density = 2.465310 g / cm^3
# Si number density = 24.709338 Si / 1000 Ang^3
#
#
#
# Elastic Constant Matrix: (Units=GPa)
#
#
# Indices 1 2 3 4 5 6 
#
# 1 28.8191 31.2525 6.7700 0.0000 0.0000 0.0000
# 2 31.2525 83.2026 -6.3926 0.0000 0.0000 0.0000
# 3 6.7700 -6.3926 71.3623 0.0000 0.0000 0.0000
# 4 0.0000 0.0000 0.0000 12.9899 0.0000 0.0000
# 5 0.0000 0.0000 0.0000 0.0000 17.3589 0.0000
# 6 0.0000 0.0000 0.0000 0.0000 0.0000 12.1117
#
#
#
# Elastic Compliance Matrix: (Units=1/GPa)
#
#
# Indices 1 2 3 4 5 6 
#
# 1 0.062920 -0.024259 -0.008142 0.000000 0.000000 0.000000
# 2 -0.024259 0.021456 0.004223 0.000000 0.000000 0.000000
# 3 -0.008142 0.004223 0.015164 0.000000 0.000000 0.000000
# 4 0.000000 0.000000 0.000000 0.076983 0.000000 0.000000
# 5 0.000000 0.000000 0.000000 0.000000 0.057607 0.000000
# 6 0.000000 0.000000 0.000000 0.000000 0.000000 0.082565
#
#
# Mechanical properties :
#
#
# Convention : Reuss Voigt Hill
#
# Bulk Modulus (GPa) = 23.15741 27.40487 25.28114
# Shear Modulus (GPa) = 12.90504 18.60903 15.75703
#
# Velocity S-wave (km/s) = 2.28781 2.74728 2.52800
# Velocity P-wave (km/s) = 4.04611 4.60199 4.33298
#
# Compressibility (1/GPa) = 0.04318272
#
# Stress axis : x y z
#
# Youngs Moduli (GPa) = 15.89323 46.60769 65.94664
#
# Poissons Ratio (x) = 1.13068 0.53695
# Poissons Ratio (y) = 0.38556 -0.27852
# Poissons Ratio (z) = 0.12941 -0.19684
#
# Static dielectric constant tensor:
#      x y z
#    x 1.988670 0.000000 0.000000 
#    y 0.000000 1.174110 0.000000 
#    z 0.000000 0.000000 2.207600 
# 
# From -- ./inp_files/30306.got.cif
#   From: 2010.05.17/outbox.cif.g08.bks.cpg/sg73_16_cif.got.tgz:30306.got - 2010.06.03 17:35:07.
