data_PCOD9533121
_publ_section_title
;
Structure prediction by ZEFSAII (Michael W. Deem and Ramdas Pophale) SiO2 
 PCOD9533121
Probable space group: I B C A 
;
_chemical_formula_sum "Si O2"
_cell_formula_units_Z 80
_cell_length_a 24.831265
_cell_length_b 6.937056
_cell_length_c 17.875478
_cell_angle_alpha 90.000000
_cell_angle_beta 90.000000
_cell_angle_gamma 90.000000
_cell_volume 3079.156119
_symmetry_space_group_name_H-M "I B C A "
_symmetry_group_IT_number 73
_symmetry_cell_setting 'orthorhombic'
loop_
_space_group_symop_operation_xyz
x,y,z
-x,1/2-y,z
x,-y,1/2-z
1/2-x,y,-z
-x,-y,-z
x,1/2+y,-z
-x,y,1/2+z
1/2+x,-y,z
1/2+x,1/2+y,1/2+z
1/2-x,-y,1/2+z
1/2+x,1/2-y,-z
-x,1/2+y,1/2-z
1/2-x,1/2-y,1/2-z
1/2+x,y,1/2-z
1/2-x,1/2+y,z
x,1/2-y,1/2+z
loop_
_atom_site_type_symbol
_atom_site_label
_atom_site_fract_x
_atom_site_fract_y
_atom_site_fract_z
Si Si1 0.927585 0.321696 0.396136
Si Si2 0.547357 0.092352 0.938801
Si Si3 0.750000 0.132421 0.000000
Si Si4 0.436071 0.198263 0.801831
Si Si5 0.186509 0.883399 0.596858
Si Si6 0.646568 0.500000 0.250000
O O1 0.936850 0.429355 0.475659
O O2 0.934564 0.472652 0.326943
O O3 0.960916 0.117605 0.401079
O O4 0.867602 0.239372 0.404752
O O5 0.500000 0.250000 0.939567
O O6 0.584891 0.198043 0.879524
O O7 0.764092 0.243521 0.923637
O O8 0.696048 0.020873 0.974812
O O9 0.500000 0.250000 0.787734
O O10 0.394500 0.316578 0.749882
O O11 0.183907 0.983126 0.677101
#
# Coordination Sequence:
#
# PCOD9533121 Si02
#       6
#    16  16   8  16  16   8
#     4  12  23  43  75 112 154 213 263 334 384 463
#     4  11  23  39  69 114 157 205 269 325 373 448
#     4  10  26  52  82 120 136 196 244 352 408 488
#     4  11  28  45  71 109 164 215 268 311 374 460
#     4  11  26  48  82 111 156 187 261 318 418 479
#     4  12  28  52  72 116 156 218 256 324 394 492
#
# _framework density 25.981144
#
# number of rings (size 3 to 8) (size 9 to 14) (size 15 to 20)
#    0.000    0.800    4.000    1.800    2.800    4.800 
#    0.000    0.000    0.000    0.000    0.000    0.000 
#    0.000    0.000    0.000    0.000    0.000    0.000 
#
# Total GULP energy -222909.784319 kJ/mol
# GULP energy per Si atom -5572.744608 kJ/mol
# Density = 2.592201 g / cm^3
# Si number density = 25.981144 Si / 1000 Ang^3
#
#
#
# Elastic Constant Matrix: (Units=GPa)
#
#
# Indices 1 2 3 4 5 6 
#
# 1 94.5554 55.1151 67.9279 0.0000 0.0000 0.0000
# 2 55.1151 179.9088 52.7205 0.0000 0.0000 0.0000
# 3 67.9279 52.7205 120.7511 0.0000 0.0000 0.0000
# 4 0.0000 0.0000 0.0000 36.7460 0.0000 0.0000
# 5 0.0000 0.0000 0.0000 0.0000 51.3646 0.0000
# 6 0.0000 0.0000 0.0000 0.0000 0.0000 5.5107
#
#
#
# Elastic Compliance Matrix: (Units=1/GPa)
#
#
# Indices 1 2 3 4 5 6 
#
# 1 0.019153 -0.003108 -0.009417 0.000000 0.000000 0.000000
# 2 -0.003108 0.006878 -0.001255 0.000000 0.000000 0.000000
# 3 -0.009417 -0.001255 0.014127 0.000000 0.000000 0.000000
# 4 0.000000 0.000000 0.000000 0.027214 0.000000 0.000000
# 5 0.000000 0.000000 0.000000 0.000000 0.019469 0.000000
# 6 0.000000 0.000000 0.000000 0.000000 0.000000 0.181465
#
#
# Mechanical properties :
#
#
# Convention : Reuss Voigt Hill
#
# Bulk Modulus (GPa) = 79.37749 82.97134 81.17441
# Shear Modulus (GPa) = 16.66311 33.35437 25.00874
#
# Velocity S-wave (km/s) = 2.53524 3.58689 3.10590
# Velocity P-wave (km/s) = 6.26005 7.01134 6.64632
#
# Compressibility (1/GPa) = 0.01259803
#
# Stress axis : x y z
#
# Youngs Moduli (GPa) = 52.21217 145.38833 70.78637
#
# Poissons Ratio (x) = 0.45183 0.66662
# Poissons Ratio (y) = 0.16226 0.08882
# Poissons Ratio (z) = 0.49170 0.18243
#
# Static dielectric constant tensor:
#      x y z
#    x 2.129130 0.000000 0.000000 
#    y 0.000000 2.275220 0.000000 
#    z 0.000000 0.000000 2.172030 
# 
# From -- ./inp_files/23844.got.cif
#   From: 2010.05.17/outbox.cif.g08.bks.cpg/sg73_12_cif.got.tgz:23844.got - 2010.06.03 17:35:07.
