data_PCOD9533082
_publ_section_title
;
Structure prediction by ZEFSAII (Michael W. Deem and Ramdas Pophale) SiO2 
 PCOD9533082
Probable space group: I B C A 
;
_chemical_formula_sum "Si O2"
_cell_formula_units_Z 72
_cell_length_a 16.521240
_cell_length_b 8.343821
_cell_length_c 20.461062
_cell_angle_alpha 90.000000
_cell_angle_beta 90.000000
_cell_angle_gamma 90.000000
_cell_volume 2820.562906
_symmetry_space_group_name_H-M "I B C A "
_symmetry_group_IT_number 73
_symmetry_cell_setting 'orthorhombic'
loop_
_space_group_symop_operation_xyz
x,y,z
-x,1/2-y,z
x,-y,1/2-z
1/2-x,y,-z
-x,-y,-z
x,1/2+y,-z
-x,y,1/2+z
1/2+x,-y,z
1/2+x,1/2+y,1/2+z
1/2-x,-y,1/2+z
1/2+x,1/2-y,-z
-x,1/2+y,1/2-z
1/2-x,1/2-y,1/2-z
1/2+x,y,1/2-z
1/2-x,1/2+y,z
x,1/2-y,1/2+z
loop_
_atom_site_type_symbol
_atom_site_label
_atom_site_fract_x
_atom_site_fract_y
_atom_site_fract_z
Si Si1 0.779959 0.481086 0.105827
Si Si2 0.056383 0.121118 0.456734
Si Si3 0.357802 0.667132 0.580482
Si Si4 0.191758 0.500000 0.750000
Si Si5 0.585946 0.178968 0.778044
O O1 0.869144 0.548923 0.085322
O O2 0.698655 0.516639 0.066017
O O3 0.790205 0.293196 0.099947
O O4 0.762917 0.522378 0.181499
O O5 0.098778 0.217332 0.515361
O O6 0.000000 0.250000 0.419577
O O7 0.000000 0.000000 0.500000
O O8 0.414456 0.653687 0.643105
O O9 0.144243 0.669807 0.760406
O O10 0.500000 0.250000 0.756931
O O11 0.599726 0.000000 0.750000
#
# Coordination Sequence:
#
# PCOD9533082 Si02
#       5
#    16  16  16   8  16
#     4  11  27  47  73 103 150 188 245 299 367 441
#     4  12  26  46  74 103 141 187 241 301 365 427
#     4  11  27  46  70 106 145 187 244 301 359 447
#     4  10  26  46  68 112 142 192 246 296 366 444
#     4  11  24  43  72 103 148 191 240 303 364 433
#
# _framework density 25.526817999999999
#
# number of rings (size 3 to 8) (size 9 to 14) (size 15 to 20)
#    0.000    0.889    3.333    1.333   10.889    4.444 
#    0.000    0.000    0.000    0.000    0.000    0.000 
#    0.000    0.000    0.000    0.000    0.000    0.000 
#
# Total GULP energy -201041.925035 kJ/mol
# GULP energy per Si atom -5584.497918 kJ/mol
# Density = 2.546872 g / cm^3
# Si number density = 25.526818 Si / 1000 Ang^3
#
#
#
# Elastic Constant Matrix: (Units=GPa)
#
#
# Indices 1 2 3 4 5 6 
#
# 1 94.1800 31.9032 11.4741 0.0000 0.0000 0.0000
# 2 31.9032 121.4647 16.8339 0.0000 0.0000 0.0000
# 3 11.4741 16.8339 85.4380 0.0000 0.0000 0.0000
# 4 0.0000 0.0000 0.0000 27.3968 0.0000 0.0000
# 5 0.0000 0.0000 0.0000 0.0000 26.6963 0.0000
# 6 0.0000 0.0000 0.0000 0.0000 0.0000 26.8913
#
#
#
# Elastic Compliance Matrix: (Units=1/GPa)
#
#
# Indices 1 2 3 4 5 6 
#
# 1 0.011737 -0.002945 -0.000996 0.000000 0.000000 0.000000
# 2 -0.002945 0.009203 -0.001418 0.000000 0.000000 0.000000
# 3 -0.000996 -0.001418 0.012117 0.000000 0.000000 0.000000
# 4 0.000000 0.000000 0.000000 0.036501 0.000000 0.000000
# 5 0.000000 0.000000 0.000000 0.000000 0.037458 0.000000
# 6 0.000000 0.000000 0.000000 0.000000 0.000000 0.037187
#
#
# Mechanical properties :
#
#
# Convention : Reuss Voigt Hill
#
# Bulk Modulus (GPa) = 44.76249 46.83390 45.79819
# Shear Modulus (GPa) = 30.79452 32.25497 31.52475
#
# Velocity S-wave (km/s) = 3.47704 3.55853 3.51802
# Velocity P-wave (km/s) = 5.80459 5.93894 5.87215
#
# Compressibility (1/GPa) = 0.02234013
#
# Stress axis : x y z
#
# Youngs Moduli (GPa) = 85.20197 108.66293 82.52529
#
# Poissons Ratio (x) = 0.31998 0.08220
# Poissons Ratio (y) = 0.25089 0.11700
# Poissons Ratio (z) = 0.08486 0.15406
#
# Static dielectric constant tensor:
#      x y z
#    x 2.039300 0.000000 0.000000 
#    y 0.000000 2.048540 0.000000 
#    z 0.000000 0.000000 1.989220 
# 
# From -- ./inp_files/5356.got.cif
#   From: 2010.05.17/outbox.cif.g08.bks.cpg/sg73_3_cif.got.tgz:5356.got - 2010.06.03 17:35:07.
