data_PCOD9533332
_publ_section_title
;
Structure prediction by ZEFSAII (Michael W. Deem and Ramdas Pophale) SiO2 
 PCOD9533332
Probable space group: I B C A 
;
_chemical_formula_sum "Si O2"
_cell_formula_units_Z 80
_cell_length_a 13.529966
_cell_length_b 24.162749
_cell_length_c 11.053622
_cell_angle_alpha 90.000000
_cell_angle_beta 90.000000
_cell_angle_gamma 90.000000
_cell_volume 3613.663064
_symmetry_space_group_name_H-M "I B C A "
_symmetry_group_IT_number 73
_symmetry_cell_setting 'orthorhombic'
loop_
_space_group_symop_operation_xyz
x,y,z
-x,1/2-y,z
x,-y,1/2-z
1/2-x,y,-z
-x,-y,-z
x,1/2+y,-z
-x,y,1/2+z
1/2+x,-y,z
1/2+x,1/2+y,1/2+z
1/2-x,-y,1/2+z
1/2+x,1/2-y,-z
-x,1/2+y,1/2-z
1/2-x,1/2-y,1/2-z
1/2+x,y,1/2-z
1/2-x,1/2+y,z
x,1/2-y,1/2+z
loop_
_atom_site_type_symbol
_atom_site_label
_atom_site_fract_x
_atom_site_fract_y
_atom_site_fract_z
Si Si1 0.800446 0.000000 0.250000
Si Si2 0.015654 0.192287 0.125818
Si Si3 0.904129 0.139564 0.940021
Si Si4 0.591486 0.887094 0.805465
Si Si5 0.718775 0.688067 0.713024
Si Si6 0.750000 0.050437 0.000000
O O1 0.867192 0.052699 0.280412
O O2 0.742948 0.984145 0.374731
O O3 0.132846 0.187434 0.111869
O O4 0.000000 0.250000 0.196257
O O5 0.973447 0.140635 0.199362
O O6 0.939906 0.193378 0.014012
O O7 0.836098 0.159351 0.828449
O O8 0.841650 0.092767 0.007524
O O9 0.010477 0.113116 0.910366
O O10 0.685612 0.847208 0.821188
O O11 0.750000 0.750000 0.750000
#
# Coordination Sequence:
#
# PCOD9533332 Si02
#       6
#     8  16  16  16  16   8
#     4  12  26  50  80 108 156 206 268 316 398 456
#     4  11  23  41  71 107 145 196 249 307 399 472
#     4  11  25  45  73 104 149 196 258 312 400 467
#     4  11  25  47  69 105 146 197 248 317 382 465
#     4  11  23  43  68 104 152 187 250 323 388 476
#     4  12  26  52  80 110 156 210 258 336 388 472
#
# _framework density 22.138200999999999
#
# number of rings (size 3 to 8) (size 9 to 14) (size 15 to 20)
#    0.000    0.800    6.000    0.000    2.800    4.000 
#    0.000    0.000    0.000    0.000    0.000    0.000 
#    0.000    0.000    0.000    0.000    0.000    0.000 
#
# Total GULP energy -223199.650198 kJ/mol
# GULP energy per Si atom -5579.991255 kJ/mol
# Density = 2.208781 g / cm^3
# Si number density = 22.138201 Si / 1000 Ang^3
#
#
#
# Elastic Constant Matrix: (Units=GPa)
#
#
# Indices 1 2 3 4 5 6 
#
# 1 184.5527 56.5734 36.2125 0.0000 0.0000 0.0000
# 2 56.5734 140.2630 19.5875 0.0001 0.0000 0.0000
# 3 36.2125 19.5875 76.4424 0.0007 -0.0002 0.0001
# 4 0.0000 0.0001 0.0007 26.4314 -0.0001 0.0000
# 5 0.0000 0.0000 -0.0002 -0.0001 39.5591 0.0000
# 6 0.0000 0.0000 0.0001 0.0000 0.0000 27.8044
#
#
#
# Elastic Compliance Matrix: (Units=1/GPa)
#
#
# Indices 1 2 3 4 5 6 
#
# 1 0.006629 -0.002318 -0.002546 0.000000 0.000000 0.000000
# 2 -0.002318 0.008205 -0.001004 0.000000 0.000000 0.000000
# 3 -0.002546 -0.001004 0.014545 0.000000 0.000000 0.000000
# 4 0.000000 0.000000 0.000000 0.037834 0.000000 0.000000
# 5 0.000000 0.000000 0.000000 0.000000 0.025279 0.000000
# 6 0.000000 0.000000 0.000000 0.000000 0.000000 0.035966
#
#
# Mechanical properties :
#
#
# Convention : Reuss Voigt Hill
#
# Bulk Modulus (GPa) = 56.68398 69.55610 63.12004
# Shear Modulus (GPa) = 34.22921 38.01796 36.12358
#
# Velocity S-wave (km/s) = 3.93639 4.14853 4.04385
# Velocity P-wave (km/s) = 6.80591 7.37796 7.09770
#
# Compressibility (1/GPa) = 0.01764167
#
# Stress axis : x y z
#
# Youngs Moduli (GPa) = 150.85938 121.88199 68.75091
#
# Poissons Ratio (x) = 0.28253 0.17505
# Poissons Ratio (y) = 0.34970 0.06904
# Poissons Ratio (z) = 0.38412 0.12240
#
# Static dielectric constant tensor:
#      x y z
#    x 1.793400 0.000000 0.000000 
#    y 0.000000 1.811540 0.000000 
#    z 0.000000 0.000000 2.044040 
# 
# From -- ./inp_files/10889.got.cif
#   From: 2010.05.17/outbox.cif.g08.bks.cpg/sg73_6_cif.got.tgz:10889.got - 2010.06.03 17:35:07.
