data_PCOD9533658
_publ_section_title
;
Structure prediction by ZEFSAII (Michael W. Deem and Ramdas Pophale) SiO2 
 PCOD9533658
Probable space group: I B C A 
;
_chemical_formula_sum "Si O2"
_cell_formula_units_Z 88
_cell_length_a 12.245123
_cell_length_b 12.835286
_cell_length_c 26.567677
_cell_angle_alpha 90.000000
_cell_angle_beta 90.000000
_cell_angle_gamma 90.000000
_cell_volume 4175.632650
_symmetry_space_group_name_H-M "I B C A "
_symmetry_group_IT_number 73
_symmetry_cell_setting 'orthorhombic'
loop_
_space_group_symop_operation_xyz
x,y,z
-x,1/2-y,z
x,-y,1/2-z
1/2-x,y,-z
-x,-y,-z
x,1/2+y,-z
-x,y,1/2+z
1/2+x,-y,z
1/2+x,1/2+y,1/2+z
1/2-x,-y,1/2+z
1/2+x,1/2-y,-z
-x,1/2+y,1/2-z
1/2-x,1/2-y,1/2-z
1/2+x,y,1/2-z
1/2-x,1/2+y,z
x,1/2-y,1/2+z
loop_
_atom_site_type_symbol
_atom_site_label
_atom_site_fract_x
_atom_site_fract_y
_atom_site_fract_z
Si Si1 0.250000 0.160313 0.500000
Si Si2 0.571405 0.516382 0.050234
Si Si3 0.405751 0.167152 0.759710
Si Si4 0.248635 0.814847 0.175323
Si Si5 0.524807 0.625793 0.146027
Si Si6 0.376655 0.712782 0.916797
O O1 0.170619 0.090915 0.534345
O O2 0.325371 0.230608 0.535118
O O3 0.498480 0.566818 0.094776
O O4 0.618804 0.409213 0.071846
O O5 0.500000 0.500000 0.000000
O O6 0.500000 0.250000 0.743618
O O7 0.316172 0.231900 0.791343
O O8 0.340837 0.129760 0.710760
O O9 0.463677 0.095942 0.802076
O O10 0.345301 0.887612 0.154659
O O11 0.191629 0.751002 0.131057
O O12 0.500000 0.750000 0.139047
O O13 0.500000 0.750000 0.909591
#
# Coordination Sequence:
#
# PCOD9533658 Si02
#       6
#     8  16  16  16  16  16
#     4  12  26  46  66 100 134 186 232 282 350 410
#     4  12  26  43  68 100 138 182 237 279 349 418
#     4   8  16  32  64  95 120 176 214 274 339 400
#     4   9  17  36  62  92 132 168 217 273 343 394
#     4   9  20  37  66  98 132 177 230 281 339 412
#     4  12  25  42  67  99 137 179 221 292 340 411
#
# _framework density 21.074649999999998
#
# number of rings (size 3 to 8) (size 9 to 14) (size 15 to 20)
#    0.000    2.182    3.636    1.091    2.545    2.909 
#    0.000    0.000    0.000   36.000    0.000    0.000 
#    0.000    0.000    0.000    0.000    0.000    0.000 
#
# Total GULP energy -245559.563872 kJ/mol
# GULP energy per Si atom -5580.899179 kJ/mol
# Density = 2.102668 g / cm^3
# Si number density = 21.074650 Si / 1000 Ang^3
#
#
#
# Elastic Constant Matrix: (Units=GPa)
#
#
# Indices 1 2 3 4 5 6 
#
# 1 111.5330 18.0788 50.0055 0.0000 0.0000 0.0000
# 2 18.0788 73.0360 30.0802 0.0000 0.0000 0.0000
# 3 50.0055 30.0802 129.2928 0.0000 0.0000 0.0000
# 4 0.0000 0.0000 0.0000 17.2899 0.0000 0.0000
# 5 0.0000 0.0000 0.0000 0.0000 150.4369 0.0000
# 6 0.0000 0.0000 0.0000 0.0000 0.0000 22.5189
#
#
#
# Elastic Compliance Matrix: (Units=1/GPa)
#
#
# Indices 1 2 3 4 5 6 
#
# 1 0.010921 -0.001066 -0.003976 0.000000 0.000000 0.000000
# 2 -0.001066 0.015247 -0.003135 0.000000 0.000000 0.000000
# 3 -0.003976 -0.003135 0.010001 0.000000 0.000000 0.000000
# 4 0.000000 0.000000 0.000000 0.057837 0.000000 0.000000
# 5 0.000000 0.000000 0.000000 0.000000 0.006647 0.000000
# 6 0.000000 0.000000 0.000000 0.000000 0.000000 0.044407
#
#
# Mechanical properties :
#
#
# Convention : Reuss Voigt Hill
#
# Bulk Modulus (GPa) = 50.46409 56.68786 53.57597
# Shear Modulus (GPa) = 29.75832 52.42898 41.09365
#
# Velocity S-wave (km/s) = 3.76179 4.99317 4.42057
# Velocity P-wave (km/s) = 6.54717 7.75882 7.17861
#
# Compressibility (1/GPa) = 0.01981607
#
# Stress axis : x y z
#
# Youngs Moduli (GPa) = 91.56388 65.58723 99.98509
#
# Poissons Ratio (x) = 0.06991 0.39754
# Poissons Ratio (y) = 0.09759 0.31345
# Poissons Ratio (z) = 0.36406 0.20561
#
# Static dielectric constant tensor:
#      x y z
#    x 1.767150 0.000000 0.000000 
#    y 0.000000 2.059410 0.000000 
#    z 0.000000 0.000000 1.783500 
# 
# From -- ./inp_files/33896.got.cif
#   From: 2010.05.17/outbox.cif.g08.bks.cpg/sg73_17_cif.got.tgz:33896.got - 2010.06.03 17:35:07.
