data_PCOD9533906
_publ_section_title
;
Structure prediction by ZEFSAII (Michael W. Deem and Ramdas Pophale) SiO2 
 PCOD9533906
Probable space group: I M M A
;
_chemical_formula_sum "Si O2"
_cell_formula_units_Z 64
_cell_length_a 23.503058
_cell_length_b 14.469204
_cell_length_c 7.184394
_cell_angle_alpha 90.000000
_cell_angle_beta 90.000000
_cell_angle_gamma 90.000000
_cell_volume 2443.200753
_symmetry_space_group_name_H-M "I M M A"
_symmetry_group_IT_number 74
_symmetry_cell_setting 'orthorhombic'
loop_
_space_group_symop_operation_xyz
x,y,z
-x,1/2-y,z
x,-y,-z
-x,1/2+y,-z
-x,-y,-z
x,1/2+y,-z
-x,y,z
x,1/2-y,z
1/2+x,1/2+y,1/2+z
1/2-x,-y,1/2+z
1/2+x,1/2-y,1/2-z
1/2-x,y,1/2-z
1/2-x,1/2-y,1/2-z
1/2+x,y,1/2-z
1/2-x,1/2+y,1/2+z
1/2+x,-y,1/2+z
loop_
_atom_site_type_symbol
_atom_site_label
_atom_site_fract_x
_atom_site_fract_y
_atom_site_fract_z
Si Si1 0.294726 0.891039 0.498606
Si Si2 0.914409 0.645445 0.116822
Si Si3 0.437217 0.445815 0.216176
Si Si4 0.829077 0.352521 0.420910
O O1 0.345415 0.852527 0.373554
O O2 0.227791 0.877075 0.463457
O O3 0.307515 0.854812 0.706060
O O4 0.304375 0.000000 0.500000
O O5 0.934582 0.750000 0.157459
O O6 0.934112 0.554020 0.226951
O O7 0.929858 0.615663 0.904559
O O8 0.500000 0.425449 0.140692
O O9 0.384509 0.415443 0.088895
O O10 0.847386 0.250000 0.469232
#
# Coordination Sequence:
#
# PCOD9533906 Si02
#       4
#    16  16  16  16
#     4  10  16  29  49  71  99 126 157 208 249 293
#     4  10  17  28  46  71  97 127 159 198 254 307
#     4  10  19  30  44  70 100 129 164 203 245 297
#     4  10  19  31  49  74  98 134 170 202 245 294
#
# _framework density 26.195145
#
# number of rings (size 3 to 8) (size 9 to 14) (size 15 to 20)
#    0.000    2.000    5.000    6.750    0.000    3.500 
#    0.000    0.000    0.000    6.750    0.000    0.000 
#    0.000    0.000    0.000    0.000    0.000    0.000 
#
# Total GULP energy -179013.493466 kJ/mol
# GULP energy per Si atom -5594.171671 kJ/mol
# Density = 2.613552 g / cm^3
# Si number density = 26.195145 Si / 1000 Ang^3
#
#
#
# Elastic Constant Matrix: (Units=GPa)
#
#
# Indices 1 2 3 4 5 6 
#
# 1 268.2846 59.9660 28.7789 0.0000 0.0000 0.0000
# 2 59.9660 244.3253 1.1836 0.0000 0.0000 0.0000
# 3 28.7789 1.1836 55.1401 0.0000 0.0000 0.0000
# 4 0.0000 0.0000 0.0000 11.0342 0.0000 0.0000
# 5 0.0000 0.0000 0.0000 0.0000 20.8668 0.0000
# 6 0.0000 0.0000 0.0000 0.0000 0.0000 -41.5927
#
#
#
# Elastic Compliance Matrix: (Units=1/GPa)
#
#
# Indices 1 2 3 4 5 6 
#
# 1 0.004187 -0.001017 -0.002163 0.000000 0.000000 0.000000
# 2 -0.001017 0.004340 0.000438 0.000000 0.000000 0.000000
# 3 -0.002163 0.000438 0.019255 0.000000 0.000000 0.000000
# 4 0.000000 0.000000 0.000000 0.090627 0.000000 0.000000
# 5 0.000000 0.000000 0.000000 0.000000 0.047923 0.000000
# 6 0.000000 0.000000 0.000000 0.000000 0.000000 -0.024043
#
#
# Mechanical properties :
#
#
# Convention : Reuss Voigt Hill
#
# Bulk Modulus (GPa) = 44.84909 83.06744 63.95827
# Shear Modulus (GPa) = 32.21480 29.91642 31.06561
#
# Velocity S-wave (km/s) = 3.51066 3.38310 3.44747
# Velocity P-wave (km/s) = 5.79580 6.85860 6.34947
#
# Compressibility (1/GPa) = 0.02229700
#
# Stress axis : x y z
#
# Youngs Moduli (GPa) = 238.84659 230.39258 51.93364
#
# Poissons Ratio (x) = 0.23433 0.11235
# Poissons Ratio (y) = 0.24293 -0.02273
# Poissons Ratio (z) = 0.51671 -0.10084
#
# Static dielectric constant tensor:
#      x y z
#    x 2.073920 0.000000 0.000000 
#    y 0.000000 2.087390 0.000000 
#    z 0.000000 0.000000 2.106050 
# 
# From -- ./inp_files/23348.got.cif
#   From: 2010.05.17/outbox.cif.g08.bks.cpg/sg74_12_cif.got.tgz:23348.got - 2010.06.03 17:57:02.
