data_PCOD9533565
_publ_section_title
;
Structure prediction by ZEFSAII (Michael W. Deem and Ramdas Pophale) SiO2 
 PCOD9533565
Probable space group: I B C A 
;
_chemical_formula_sum "Si O2"
_cell_formula_units_Z 48
_cell_length_a 25.640727
_cell_length_b 8.869465
_cell_length_c 9.380810
_cell_angle_alpha 90.000000
_cell_angle_beta 90.000000
_cell_angle_gamma 90.000000
_cell_volume 2133.379408
_symmetry_space_group_name_H-M "I B C A "
_symmetry_group_IT_number 73
_symmetry_cell_setting 'orthorhombic'
loop_
_space_group_symop_operation_xyz
x,y,z
-x,1/2-y,z
x,-y,1/2-z
1/2-x,y,-z
-x,-y,-z
x,1/2+y,-z
-x,y,1/2+z
1/2+x,-y,z
1/2+x,1/2+y,1/2+z
1/2-x,-y,1/2+z
1/2+x,1/2-y,-z
-x,1/2+y,1/2-z
1/2-x,1/2-y,1/2-z
1/2+x,y,1/2-z
1/2-x,1/2+y,z
x,1/2-y,1/2+z
loop_
_atom_site_type_symbol
_atom_site_label
_atom_site_fract_x
_atom_site_fract_y
_atom_site_fract_z
Si Si1 0.601374 0.618231 0.381499
Si Si2 0.952736 0.566026 0.095522
Si Si3 0.718464 0.641843 0.352690
O O1 0.593069 0.500000 0.250000
O O2 0.596296 0.515501 0.521364
O O3 0.560208 0.756470 0.390554
O O4 0.658833 0.690203 0.379719
O O5 0.961346 0.500000 0.250000
O O6 0.000000 0.500000 0.000000
O O7 0.712341 0.500000 0.250000
O O8 0.750000 0.617036 0.500000
O O9 0.750000 0.750000 0.250000
#
# Coordination Sequence:
#
# PCOD9533565 Si02
#       3
#    16  16  16
#     4  11  27  47  76 112 152 206 256 320 396 467
#     4  12  27  48  76 108 152 199 260 322 394 470
#     4  11  27  45  74 112 158 208 267 328 396 473
#
# _framework density 22.499514999999999
#
# number of rings (size 3 to 8) (size 9 to 14) (size 15 to 20)
#    0.000    0.667    0.000    5.000   18.667    2.667 
#    0.000    0.000    0.000    0.000    0.000    0.000 
#    0.000    0.000    0.000    0.000    0.000    0.000 
#
# Total GULP energy -134089.086851 kJ/mol
# GULP energy per Si atom -5587.045285 kJ/mol
# Density = 2.244830 g / cm^3
# Si number density = 22.499515 Si / 1000 Ang^3
#
#
#
# Elastic Constant Matrix: (Units=GPa)
#
#
# Indices 1 2 3 4 5 6 
#
# 1 154.4395 61.7718 53.5981 0.0000 0.0000 0.0000
# 2 61.7718 152.8166 50.4887 0.0000 0.0000 0.0000
# 3 53.5981 50.4887 195.6105 0.0000 0.0000 0.0000
# 4 0.0000 0.0000 0.0000 40.1001 0.0000 0.0000
# 5 0.0000 0.0000 0.0000 0.0000 28.3190 0.0000
# 6 0.0000 0.0000 0.0000 0.0000 0.0000 37.1513
#
#
#
# Elastic Compliance Matrix: (Units=1/GPa)
#
#
# Indices 1 2 3 4 5 6 
#
# 1 0.008109 -0.002781 -0.001504 0.000000 0.000000 0.000000
# 2 -0.002781 0.008108 -0.001331 0.000000 0.000000 0.000000
# 3 -0.001504 -0.001331 0.005868 0.000000 0.000000 0.000000
# 4 0.000000 0.000000 0.000000 0.024938 0.000000 0.000000
# 5 0.000000 0.000000 0.000000 0.000000 0.035312 0.000000
# 6 0.000000 0.000000 0.000000 0.000000 0.000000 0.026917
#
#
# Mechanical properties :
#
#
# Convention : Reuss Voigt Hill
#
# Bulk Modulus (GPa) = 92.13982 92.73153 92.43567
# Shear Modulus (GPa) = 40.28987 43.58128 41.93558
#
# Velocity S-wave (km/s) = 4.23626 4.40590 4.32191
# Velocity P-wave (km/s) = 8.06031 8.19676 8.12882
#
# Compressibility (1/GPa) = 0.01085307
#
# Stress axis : x y z
#
# Youngs Moduli (GPa) = 123.31369 123.34165 170.42158
#
# Poissons Ratio (x) = 0.34302 0.25635
# Poissons Ratio (y) = 0.34294 0.22677
# Poissons Ratio (z) = 0.18549 0.16412
#
# Static dielectric constant tensor:
#      x y z
#    x 2.184510 0.000000 0.000000 
#    y 0.000000 1.795170 0.000000 
#    z 0.000000 0.000000 1.890930 
# 
# From -- ./inp_files/3439.got.cif
#   From: 2010.05.17/outbox.cif.g08.bks.cpg/sg73_2_cif.got.tgz:3439.got - 2010.06.03 17:35:07.
