data_PCOD9533613
_publ_section_title
;
Structure prediction by ZEFSAII (Michael W. Deem and Ramdas Pophale) SiO2 
 PCOD9533613
Probable space group: I B C A 
;
_chemical_formula_sum "Si O2"
_cell_formula_units_Z 64
_cell_length_a 7.562740
_cell_length_b 18.267224
_cell_length_c 21.552440
_cell_angle_alpha 90.000000
_cell_angle_beta 90.000000
_cell_angle_gamma 90.000000
_cell_volume 2977.475311
_symmetry_space_group_name_H-M "I B C A "
_symmetry_group_IT_number 73
_symmetry_cell_setting 'orthorhombic'
loop_
_space_group_symop_operation_xyz
x,y,z
-x,1/2-y,z
x,-y,1/2-z
1/2-x,y,-z
-x,-y,-z
x,1/2+y,-z
-x,y,1/2+z
1/2+x,-y,z
1/2+x,1/2+y,1/2+z
1/2-x,-y,1/2+z
1/2+x,1/2-y,-z
-x,1/2+y,1/2-z
1/2-x,1/2-y,1/2-z
1/2+x,y,1/2-z
1/2-x,1/2+y,z
x,1/2-y,1/2+z
loop_
_atom_site_type_symbol
_atom_site_label
_atom_site_fract_x
_atom_site_fract_y
_atom_site_fract_z
Si Si1 0.029205 0.459029 0.434762
Si Si2 0.338145 0.897049 0.105916
Si Si3 0.817445 0.669292 0.436719
Si Si4 0.207882 0.765627 0.178895
O O1 0.849636 0.415854 0.423645
O O2 0.000000 0.500000 0.500000
O O3 0.068828 0.523844 0.385406
O O4 0.192133 0.402787 0.433935
O O5 0.477483 0.853357 0.063030
O O6 0.284526 0.845988 0.163259
O O7 0.750000 0.707397 0.500000
O O8 0.792891 0.713897 0.373619
O O9 0.250000 0.750000 0.250000
O O10 0.000000 0.750000 0.170144
#
# Coordination Sequence:
#
# PCOD9533613 Si02
#       4
#    16  16  16  16
#     4  12  23  40  72 108 154 192 230 302 371 437
#     4  12  24  44  72 106 147 195 242 295 371 436
#     4  12  25  42  74 114 148 190 245 301 371 435
#     4  12  28  52  77 102 148 201 252 310 371 444
#
# _framework density 21.494721999999999
#
# number of rings (size 3 to 8) (size 9 to 14) (size 15 to 20)
#    0.000    0.000    7.500    3.000    0.000    4.000 
#    0.000    1.250    0.000    0.000    0.000    0.000 
#    0.000    0.000    0.000    0.000    0.000    0.000 
#
# Total GULP energy -178829.372941 kJ/mol
# GULP energy per Si atom -5588.417904 kJ/mol
# Density = 2.144580 g / cm^3
# Si number density = 21.494722 Si / 1000 Ang^3
#
#
#
# Elastic Constant Matrix: (Units=GPa)
#
#
# Indices 1 2 3 4 5 6 
#
# 1 177.4246 49.9727 48.7553 0.0000 0.0000 0.0000
# 2 49.9727 107.7331 83.4166 0.0000 0.0000 0.0000
# 3 48.7553 83.4166 154.1099 0.0000 0.0000 0.0000
# 4 0.0000 0.0000 0.0000 40.5997 0.0000 0.0000
# 5 0.0000 0.0000 0.0000 0.0000 29.0999 0.0000
# 6 0.0000 0.0000 0.0000 0.0000 0.0000 38.2834
#
#
#
# Elastic Compliance Matrix: (Units=1/GPa)
#
#
# Indices 1 2 3 4 5 6 
#
# 1 0.006531 -0.002461 -0.000734 0.000000 0.000000 0.000000
# 2 -0.002461 0.016907 -0.008373 0.000000 0.000000 0.000000
# 3 -0.000734 -0.008373 0.011253 0.000000 0.000000 0.000000
# 4 0.000000 0.000000 0.000000 0.024631 0.000000 0.000000
# 5 0.000000 0.000000 0.000000 0.000000 0.034364 0.000000
# 6 0.000000 0.000000 0.000000 0.000000 0.000000 0.026121
#
#
# Mechanical properties :
#
#
# Convention : Reuss Voigt Hill
#
# Bulk Modulus (GPa) = 86.54125 89.28409 87.91267
# Shear Modulus (GPa) = 34.06132 38.73814 36.39973
#
# Velocity S-wave (km/s) = 3.98507 4.24986 4.11959
# Velocity P-wave (km/s) = 7.84368 8.10614 7.97599
#
# Compressibility (1/GPa) = 0.01155518
#
# Stress axis : x y z
#
# Youngs Moduli (GPa) = 153.11353 59.14851 88.86497
#
# Poissons Ratio (x) = 0.14557 0.06523
# Poissons Ratio (y) = 0.37683 0.74403
# Poissons Ratio (z) = 0.11240 0.49523
#
# Static dielectric constant tensor:
#      x y z
#    x 1.795550 0.000000 0.000000 
#    y 0.000000 1.909360 0.000000 
#    z 0.000000 0.000000 1.766960 
# 
# From -- ./inp_files/20557.got.cif
#   From: 2010.05.17/outbox.cif.g08.bks.cpg/sg73_11_cif.got.tgz:20557.got - 2010.06.03 17:35:07.
