data_PCOD9533555
_publ_section_title
;
Structure prediction by ZEFSAII (Michael W. Deem and Ramdas Pophale) SiO2 
 PCOD9533555
Probable space group: I B C A 
;
_chemical_formula_sum "Si O2"
_cell_formula_units_Z 72
_cell_length_a 9.751872
_cell_length_b 20.527670
_cell_length_c 15.280011
_cell_angle_alpha 90.000000
_cell_angle_beta 90.000000
_cell_angle_gamma 90.000000
_cell_volume 3058.801655
_symmetry_space_group_name_H-M "I B C A "
_symmetry_group_IT_number 73
_symmetry_cell_setting 'orthorhombic'
loop_
_space_group_symop_operation_xyz
x,y,z
-x,1/2-y,z
x,-y,1/2-z
1/2-x,y,-z
-x,-y,-z
x,1/2+y,-z
-x,y,1/2+z
1/2+x,-y,z
1/2+x,1/2+y,1/2+z
1/2-x,-y,1/2+z
1/2+x,1/2-y,-z
-x,1/2+y,1/2-z
1/2-x,1/2-y,1/2-z
1/2+x,y,1/2-z
1/2-x,1/2+y,z
x,1/2-y,1/2+z
loop_
_atom_site_type_symbol
_atom_site_label
_atom_site_fract_x
_atom_site_fract_y
_atom_site_fract_z
Si Si1 0.872980 0.000000 0.250000
Si Si2 0.307996 0.114698 0.806650
Si Si3 0.530246 0.321460 0.188553
Si Si4 0.409261 0.187825 0.494147
Si Si5 0.003105 0.948149 0.422803
O O1 0.774063 0.938710 0.246710
O O2 0.958588 0.989670 0.337836
O O3 0.193322 0.169589 0.816680
O O4 0.445050 0.133147 0.754452
O O5 0.349347 0.082050 0.898206
O O6 0.500000 0.250000 0.222207
O O7 0.467846 0.327032 0.091310
O O8 0.500000 0.250000 0.460654
O O9 0.250000 0.207195 0.500000
O O10 0.419326 0.118716 0.442879
O O11 0.000000 0.000000 0.500000
#
# Coordination Sequence:
#
# PCOD9533555 Si02
#       5
#     8  16  16  16  16
#     4  12  26  50  72 116 154 208 266 326 400 484
#     4  12  26  48  77 113 160 206 265 333 403 481
#     4  11  26  48  79 114 158 207 271 325 405 488
#     4  11  28  50  78 115 160 205 266 327 400 477
#     4  12  29  48  83 116 161 210 268 334 404 474
#
# _framework density 23.538629
#
# number of rings (size 3 to 8) (size 9 to 14) (size 15 to 20)
#    0.000    0.444    2.222    4.000   12.444    2.667 
#    0.000    0.000    0.000    0.000    0.000    0.000 
#    0.000    0.000    0.000    0.000    0.000    0.000 
#
# Total GULP energy -201330.413712 kJ/mol
# GULP energy per Si atom -5592.511492 kJ/mol
# Density = 2.348505 g / cm^3
# Si number density = 23.538629 Si / 1000 Ang^3
#
#
#
# Elastic Constant Matrix: (Units=GPa)
#
#
# Indices 1 2 3 4 5 6 
#
# 1 145.4815 38.0728 38.1708 0.0000 0.0000 0.0000
# 2 38.0728 122.0636 50.3754 0.0000 0.0000 0.0000
# 3 38.1708 50.3754 127.0325 -0.0001 0.0000 0.0000
# 4 0.0000 0.0000 -0.0001 23.3592 0.0000 0.0000
# 5 0.0000 0.0000 0.0000 0.0000 26.5550 0.0000
# 6 0.0000 0.0000 0.0000 0.0000 0.0000 30.8001
#
#
#
# Elastic Compliance Matrix: (Units=1/GPa)
#
#
# Indices 1 2 3 4 5 6 
#
# 1 0.007760 -0.001744 -0.001640 0.000000 0.000000 0.000000
# 2 -0.001744 0.010187 -0.003516 0.000000 0.000000 0.000000
# 3 -0.001640 -0.003516 0.009759 0.000000 0.000000 0.000000
# 4 0.000000 0.000000 0.000000 0.042810 0.000000 0.000000
# 5 0.000000 0.000000 0.000000 0.000000 0.037658 0.000000
# 6 0.000000 0.000000 0.000000 0.000000 0.000000 0.032467
#
#
# Mechanical properties :
#
#
# Convention : Reuss Voigt Hill
#
# Bulk Modulus (GPa) = 71.90584 71.97951 71.94268
# Shear Modulus (GPa) = 31.43127 34.00677 32.71902
#
# Velocity S-wave (km/s) = 3.65815 3.80507 3.73233
# Velocity P-wave (km/s) = 6.96111 7.06756 7.01454
#
# Compressibility (1/GPa) = 0.01390708
#
# Stress axis : x y z
#
# Youngs Moduli (GPa) = 128.85891 98.16156 102.46760
#
# Poissons Ratio (x) = 0.17115 0.16809
# Poissons Ratio (y) = 0.22467 0.36027
# Poissons Ratio (z) = 0.21139 0.34513
#
# Static dielectric constant tensor:
#      x y z
#    x 1.337190 0.000000 0.000000 
#    y 0.000000 1.974810 0.000000 
#    z 0.000000 0.000000 1.900830 
# 
# From -- ./inp_files/20600.got.cif
#   From: 2010.05.17/outbox.cif.g08.bks.cpg/sg73_11_cif.got.tgz:20600.got - 2010.06.03 17:35:07.
