data_PCOD9533450
_publ_section_title
;
Structure prediction by ZEFSAII (Michael W. Deem and Ramdas Pophale) SiO2 
 PCOD9533450
Probable space group: I B C A 
;
_chemical_formula_sum "Si O2"
_cell_formula_units_Z 72
_cell_length_a 16.172284
_cell_length_b 9.329359
_cell_length_c 17.334859
_cell_angle_alpha 90.000000
_cell_angle_beta 90.000000
_cell_angle_gamma 90.000000
_cell_volume 2615.432272
_symmetry_space_group_name_H-M "I B C A "
_symmetry_group_IT_number 73
_symmetry_cell_setting 'orthorhombic'
loop_
_space_group_symop_operation_xyz
x,y,z
-x,1/2-y,z
x,-y,1/2-z
1/2-x,y,-z
-x,-y,-z
x,1/2+y,-z
-x,y,1/2+z
1/2+x,-y,z
1/2+x,1/2+y,1/2+z
1/2-x,-y,1/2+z
1/2+x,1/2-y,-z
-x,1/2+y,1/2-z
1/2-x,1/2-y,1/2-z
1/2+x,y,1/2-z
1/2-x,1/2+y,z
x,1/2-y,1/2+z
loop_
_atom_site_type_symbol
_atom_site_label
_atom_site_fract_x
_atom_site_fract_y
_atom_site_fract_z
Si Si1 0.144077 0.821074 0.579355
Si Si2 0.414743 0.187393 0.817774
Si Si3 0.478947 0.569418 0.418867
Si Si4 0.297670 0.896751 0.100084
Si Si5 0.288239 0.000000 0.750000
O O1 0.081446 0.696536 0.553211
O O2 0.225904 0.721229 0.587058
O O3 0.064971 0.892768 0.626752
O O4 0.177717 0.971311 0.544376
O O5 0.500000 0.250000 0.786804
O O6 0.375346 0.301516 0.875441
O O7 0.345695 0.141357 0.755918
O O8 0.431348 0.042023 0.864810
O O9 0.500000 0.500000 0.500000
O O10 0.267147 0.988153 0.174556
#
# Coordination Sequence:
#
# PCOD9533450 Si02
#       5
#    16  16  16  16   8
#     4  11  24  45  77 104 149 195 245 314 384 446
#     4  12  26  45  73 109 151 199 260 307 389 462
#     4  11  26  49  76 106 150 198 253 316 381 455
#     4  12  24  45  74 109 152 192 255 311 377 460
#     4  12  26  44  74 106 156 204 246 316 378 450
#
# _framework density 27.528911000000001
#
# number of rings (size 3 to 8) (size 9 to 14) (size 15 to 20)
#    0.000    0.444    6.667    0.667    3.111    2.667 
#    0.000    8.889    0.000    0.000    0.000    0.000 
#    0.000    0.000    0.000    0.000    0.000    0.000 
#
# Total GULP energy -200647.737491 kJ/mol
# GULP energy per Si atom -5573.548264 kJ/mol
# Density = 2.746625 g / cm^3
# Si number density = 27.528911 Si / 1000 Ang^3
#
#
#
# Elastic Constant Matrix: (Units=GPa)
#
#
# Indices 1 2 3 4 5 6 
#
# 1 172.6096 69.6019 12.7351 0.0000 0.0000 0.0000
# 2 69.6019 211.2249 4.2863 0.0000 0.0000 0.0000
# 3 12.7351 4.2863 39.4082 0.0000 0.0000 0.0000
# 4 0.0000 0.0000 0.0000 18.9299 0.0000 0.0000
# 5 0.0000 0.0000 0.0000 0.0000 34.7756 0.0000
# 6 0.0000 0.0000 0.0000 0.0000 0.0000 74.4182
#
#
#
# Elastic Compliance Matrix: (Units=1/GPa)
#
#
# Indices 1 2 3 4 5 6 
#
# 1 0.006830 -0.002211 -0.001967 0.000000 0.000000 0.000000
# 2 -0.002211 0.005460 0.000120 0.000000 0.000000 0.000000
# 3 -0.001967 0.000120 0.025998 0.000000 0.000000 0.000000
# 4 0.000000 0.000000 0.000000 0.052826 0.000000 0.000000
# 5 0.000000 0.000000 0.000000 0.000000 0.028756 0.000000
# 6 0.000000 0.000000 0.000000 0.000000 0.000000 0.013438
#
#
# Mechanical properties :
#
#
# Convention : Reuss Voigt Hill
#
# Bulk Modulus (GPa) = 33.14070 66.27658 49.70864
# Shear Modulus (GPa) = 33.00772 48.06604 40.53688
#
# Velocity S-wave (km/s) = 3.46644 4.18307 3.84151
# Velocity P-wave (km/s) = 5.29965 6.88900 6.14592
#
# Compressibility (1/GPa) = 0.03017438
#
# Stress axis : x y z
#
# Youngs Moduli (GPa) = 146.41431 183.14036 38.46466
#
# Poissons Ratio (x) = 0.40486 0.07565
# Poissons Ratio (y) = 0.32367 -0.00463
# Poissons Ratio (z) = 0.28795 -0.02207
#
# Static dielectric constant tensor:
#      x y z
#    x 2.032340 0.000000 0.000000 
#    y 0.000000 2.416030 0.000000 
#    z 0.000000 0.000000 2.259700 
# 
# From -- ./inp_files/29741.got.cif
#   From: 2010.05.17/outbox.cif.g08.bks.cpg/sg73_15_cif.got.tgz:29741.got - 2010.06.03 17:35:07.
