data_PCOD9533460
_publ_section_title
;
Structure prediction by ZEFSAII (Michael W. Deem and Ramdas Pophale) SiO2 
 PCOD9533460
Probable space group: I B C A 
;
_chemical_formula_sum "Si O2"
_cell_formula_units_Z 88
_cell_length_a 23.264739
_cell_length_b 11.557780
_cell_length_c 13.664803
_cell_angle_alpha 90.000000
_cell_angle_beta 90.000000
_cell_angle_gamma 90.000000
_cell_volume 3674.311594
_symmetry_space_group_name_H-M "I B C A "
_symmetry_group_IT_number 73
_symmetry_cell_setting 'orthorhombic'
loop_
_space_group_symop_operation_xyz
x,y,z
-x,1/2-y,z
x,-y,1/2-z
1/2-x,y,-z
-x,-y,-z
x,1/2+y,-z
-x,y,1/2+z
1/2+x,-y,z
1/2+x,1/2+y,1/2+z
1/2-x,-y,1/2+z
1/2+x,1/2-y,-z
-x,1/2+y,1/2-z
1/2-x,1/2-y,1/2-z
1/2+x,y,1/2-z
1/2-x,1/2+y,z
x,1/2-y,1/2+z
loop_
_atom_site_type_symbol
_atom_site_label
_atom_site_fract_x
_atom_site_fract_y
_atom_site_fract_z
Si Si1 0.750000 0.028204 0.000000
Si Si2 0.758638 0.378713 0.699965
Si Si3 0.650546 0.351975 0.031942
Si Si4 0.873495 0.306775 0.628923
Si Si5 0.568241 0.780402 0.315840
Si Si6 0.936644 0.536113 0.027435
O O1 0.730412 0.106962 0.091719
O O2 0.702659 0.940702 0.954137
O O3 0.739276 0.500000 0.750000
O O4 0.750000 0.250000 0.750000
O O5 0.827648 0.382820 0.687592
O O6 0.666544 0.261318 0.947882
O O7 0.614279 0.296471 0.120944
O O8 0.602521 0.425798 0.977032
O O9 0.909683 0.232729 0.705894
O O10 0.915081 0.378810 0.558771
O O11 0.500000 0.750000 0.323071
O O12 0.570305 0.903275 0.368636
O O13 0.000000 0.500000 0.000000
#
# Coordination Sequence:
#
# PCOD9533460 Si02
#       6
#     8  16  16  16  16  16
#     4  12  26  52  80 106 158 214 248 326 396 454
#     4  12  28  49  78 115 153 201 266 322 385 480
#     4  11  25  49  72 107 154 197 260 310 391 468
#     4  11  27  44  72 109 146 197 251 318 390 465
#     4  11  25  44  72 107 148 195 249 316 392 464
#     4  11  24  46  71 102 146 194 251 322 382 470
#
# _framework density 23.950064999999999
#
# number of rings (size 3 to 8) (size 9 to 14) (size 15 to 20)
#    0.000    0.727    3.636    2.182    5.091    3.636 
#    0.000    0.000    0.000    0.000    0.000    0.000 
#    0.000    0.000    0.000    0.000    0.000    0.000 
#
# Total GULP energy -245703.939556 kJ/mol
# GULP energy per Si atom -5584.180444 kJ/mol
# Density = 2.389555 g / cm^3
# Si number density = 23.950065 Si / 1000 Ang^3
#
#
#
# Elastic Constant Matrix: (Units=GPa)
#
#
# Indices 1 2 3 4 5 6 
#
# 1 85.0739 10.3135 7.9524 0.0000 0.0000 0.0000
# 2 10.3135 105.7119 66.5099 0.0000 0.0000 0.0000
# 3 7.9524 66.5099 146.7832 0.0000 0.0000 0.0000
# 4 0.0000 0.0000 0.0000 26.8947 0.0000 0.0000
# 5 0.0000 0.0000 0.0000 0.0000 29.4616 0.0000
# 6 0.0000 0.0000 0.0000 0.0000 0.0000 46.8729
#
#
#
# Elastic Compliance Matrix: (Units=1/GPa)
#
#
# Indices 1 2 3 4 5 6 
#
# 1 0.011898 -0.001056 -0.000166 0.000000 0.000000 0.000000
# 2 -0.001056 0.013326 -0.005981 0.000000 0.000000 0.000000
# 3 -0.000166 -0.005981 0.009532 0.000000 0.000000 0.000000
# 4 0.000000 0.000000 0.000000 0.037182 0.000000 0.000000
# 5 0.000000 0.000000 0.000000 0.000000 0.033942 0.000000
# 6 0.000000 0.000000 0.000000 0.000000 0.000000 0.021334
#
#
# Mechanical properties :
#
#
# Convention : Reuss Voigt Hill
#
# Bulk Modulus (GPa) = 49.14214 56.34673 52.74443
# Shear Modulus (GPa) = 33.69187 37.49872 35.59529
#
# Velocity S-wave (km/s) = 3.75474 3.96119 3.85935
# Velocity P-wave (km/s) = 6.27380 6.67077 6.47533
#
# Compressibility (1/GPa) = 0.02034914
#
# Stress axis : x y z
#
# Youngs Moduli (GPa) = 84.04730 75.04321 104.91223
#
# Poissons Ratio (x) = 0.07928 0.01741
# Poissons Ratio (y) = 0.08879 0.62746
# Poissons Ratio (z) = 0.01395 0.44882
#
# Static dielectric constant tensor:
#      x y z
#    x 1.890680 0.000000 0.000000 
#    y 0.000000 2.015880 0.000000 
#    z 0.000000 0.000000 1.957060 
# 
# From -- ./inp_files/10988.got.cif
#   From: 2010.05.17/outbox.cif.g08.bks.cpg/sg73_6_cif.got.tgz:10988.got - 2010.06.03 17:35:07.
