data_PCOD9533813
_publ_section_title
;
Structure prediction by ZEFSAII (Michael W. Deem and Ramdas Pophale) SiO2 
 PCOD9533813
Probable space group: I M M A
;
_chemical_formula_sum "Si O2"
_cell_formula_units_Z 84
_cell_length_a 22.945662
_cell_length_b 23.568534
_cell_length_c 6.767866
_cell_angle_alpha 90.000000
_cell_angle_beta 90.000000
_cell_angle_gamma 90.000000
_cell_volume 3660.032256
_symmetry_space_group_name_H-M "I M M A"
_symmetry_group_IT_number 74
_symmetry_cell_setting 'orthorhombic'
loop_
_space_group_symop_operation_xyz
x,y,z
-x,1/2-y,z
x,-y,-z
-x,1/2+y,-z
-x,-y,-z
x,1/2+y,-z
-x,y,z
x,1/2-y,z
1/2+x,1/2+y,1/2+z
1/2-x,-y,1/2+z
1/2+x,1/2-y,1/2-z
1/2-x,y,1/2-z
1/2-x,1/2-y,1/2-z
1/2+x,y,1/2-z
1/2-x,1/2+y,1/2+z
1/2+x,-y,1/2+z
loop_
_atom_site_type_symbol
_atom_site_label
_atom_site_fract_x
_atom_site_fract_y
_atom_site_fract_z
Si Si1 0.931624 0.544611 0.722589
Si Si2 0.500000 0.750000 0.944758
Si Si3 0.762092 0.317460 0.468070
Si Si4 0.639188 0.683993 0.410571
Si Si5 0.567972 0.422488 0.687117
Si Si6 0.391152 0.334836 0.123222
O O1 0.909598 0.479860 0.706426
O O2 0.902855 0.597994 0.617136
O O3 0.000000 0.543607 0.673646
O O4 0.928425 0.560976 0.954786
O O5 0.447942 0.700818 0.935200
O O6 0.751603 0.250000 0.461432
O O7 0.750000 0.342538 0.250000
O O8 0.706872 0.335691 0.598988
O O9 0.831069 0.323044 0.493007
O O10 0.631255 0.750000 0.351206
O O11 0.599331 0.637835 0.303096
O O12 0.622028 0.681512 0.645378
O O13 0.500000 0.415341 0.734979
#
# Coordination Sequence:
#
# PCOD9533813 Si02
#       6
#    16   4  16  16  16  16
#     4   8  13  20  26  36  53  73  97 125 151 175
#     4  12  16  16  26  46  56  76 108 138 134 174
#     4   8  13  21  26  35  52  74  99 128 145 172
#     4   9  15  20  28  37  52  74 105 130 144 171
#     4   8  14  20  27  37  52  72 101 128 149 171
#     4  10  15  19  27  39  56  75 105 129 149 163
#
# _framework density 22.950614999999999
#
# number of rings (size 3 to 8) (size 9 to 14) (size 15 to 20)
#    0.000    3.238    2.857    2.286    1.333    0.381 
#    0.000    0.000    0.000    0.000    0.000    0.000 
#    0.000    0.000    0.000    0.000    7.238   61.905 
#
# Total GULP energy -234050.162532 kJ/mol
# GULP energy per Si atom -5572.622917 kJ/mol
# Density = 2.289838 g / cm^3
# Si number density = 22.950615 Si / 1000 Ang^3
#
#
#
# Elastic Constant Matrix: (Units=GPa)
#
#
# Indices 1 2 3 4 5 6 
#
# 1 170.8725 88.8838 38.5333 0.0000 0.0000 0.0000
# 2 88.8838 203.2382 49.3277 0.0000 0.0000 0.0000
# 3 38.5333 49.3277 84.1994 0.0000 0.0000 0.0000
# 4 0.0000 0.0000 0.0000 38.7249 0.0000 0.0000
# 5 0.0000 0.0000 0.0000 0.0000 19.0542 0.0000
# 6 0.0000 0.0000 0.0000 0.0000 0.0000 31.5727
#
#
#
# Elastic Compliance Matrix: (Units=1/GPa)
#
#
# Indices 1 2 3 4 5 6 
#
# 1 0.007811 -0.002971 -0.001834 0.000000 0.000000 0.000000
# 2 -0.002971 0.006866 -0.002663 0.000000 0.000000 0.000000
# 3 -0.001834 -0.002663 0.014276 0.000000 0.000000 0.000000
# 4 0.000000 0.000000 0.000000 0.025823 0.000000 0.000000
# 5 0.000000 0.000000 0.000000 0.000000 0.052482 0.000000
# 6 0.000000 0.000000 0.000000 0.000000 0.000000 0.031673
#
#
# Mechanical properties :
#
#
# Convention : Reuss Voigt Hill
#
# Bulk Modulus (GPa) = 71.34051 90.19996 80.77024
# Shear Modulus (GPa) = 31.53785 36.64138 34.08962
#
# Velocity S-wave (km/s) = 3.71099 4.00000 3.85820
# Velocity P-wave (km/s) = 7.03660 7.79233 7.42409
#
# Compressibility (1/GPa) = 0.01401728
#
# Stress axis : x y z
#
# Youngs Moduli (GPa) = 128.01753 145.64650 70.04789
#
# Poissons Ratio (x) = 0.43272 0.12849
# Poissons Ratio (y) = 0.38034 0.18652
# Poissons Ratio (z) = 0.23482 0.38781
#
# Static dielectric constant tensor:
#      x y z
#    x 1.808040 0.000000 0.000000 
#    y 0.000000 1.817120 0.000000 
#    z 0.000000 0.000000 2.052400 
# 
# From -- ./inp_files/24024.got.cif
#   From: 2010.05.17/outbox.cif.g08.bks.cpg/sg74_13_cif.got.tgz:24024.got - 2010.06.03 17:57:02.
