data_PCOD9533739
_publ_section_title
;
Structure prediction by ZEFSAII (Michael W. Deem and Ramdas Pophale) SiO2 
 PCOD9533739
Probable space group: I B C A 
;
_chemical_formula_sum "Si O2"
_cell_formula_units_Z 56
_cell_length_a 24.000000
_cell_length_b 15.000000
_cell_length_c 15.000000
_cell_angle_alpha 90.000000
_cell_angle_beta 90.000000
_cell_angle_gamma 90.000000
_cell_volume 5400.000000
_symmetry_space_group_name_H-M "I B C A "
_symmetry_group_IT_number 73
_symmetry_cell_setting 'orthorhombic'
loop_
_space_group_symop_operation_xyz
x,y,z
-x,1/2-y,z
x,-y,1/2-z
1/2-x,y,-z
-x,-y,-z
x,1/2+y,-z
-x,y,1/2+z
1/2+x,-y,z
1/2+x,1/2+y,1/2+z
1/2-x,-y,1/2+z
1/2+x,1/2-y,-z
-x,1/2+y,1/2-z
1/2-x,1/2-y,1/2-z
1/2+x,y,1/2-z
1/2-x,1/2+y,z
x,1/2-y,1/2+z
loop_
_atom_site_type_symbol
_atom_site_label
_atom_site_fract_x
_atom_site_fract_y
_atom_site_fract_z
Si Si1 0.598201 0.143276 0.297664
Si Si2 0.028066 0.386540 0.429553
Si Si3 0.882908 0.807729 0.411988
Si Si4 0.586963 0.215826 0.105159
Si Si5 0.741769 0.271858 0.390145
Si Si6 0.280715 0.102221 0.764427
Si Si7 0.510929 0.573940 0.129063
O O1 0.599424 0.209043 0.381767
O O2 0.603251 0.198527 0.206087
O O3 0.655245 0.088101 0.297523
O O4 0.538209 0.096417 0.302304
O O5 0.078477 0.320224 0.411983
O O6 0.031105 0.473190 0.369433
O O7 0.972157 0.333382 0.405773
O O8 0.019352 0.413255 0.532523
O O9 0.880028 0.819535 0.518959
O O10 0.820334 0.812976 0.376811
O O11 0.933425 0.866402 0.372700
O O12 0.750000 0.265371 0.500000
O O13 0.743721 0.174115 0.339126
O O14 0.777653 0.341246 0.329155
O O15 0.258008 0.000000 0.750000
#
# Coordination Sequence:
#
# PCOD9533739 Si02
#       7
#    16  16  16  16  16  16  16
#     4  11  22  36  62  90 125 168 211 255 326 390
#     4   9  20  35  53  80 127 165 203 255 302 378
#     4  10  21  40  61  87 126 166 209 272 322 384
#     4  10  20  36  55  84 122 170 210 249 319 387
#     4  10  22  46  71  97 129 175 229 285 342 399
#     4  10  24  44  69  99 133 171 224 291 335 404
#     4  10  20  37  57  88 130 164 203 262 315 382
#
# _framework density 10.370369999999999
#
# number of rings (size 3 to 8) (size 9 to 14) (size 15 to 20)
#    0.000    2.000    1.429    1.286    6.000    0.571 
#    2.571    5.714    0.000    0.000    0.000    0.000 
#    0.000    0.000    0.000    0.000    0.000    0.000 
#
# Total GULP energy -311763.115386 kJ/mol
# GULP energy per Si atom -5567.198489 kJ/mol
# Density = 1.034677 g / cm^3
# Si number density = 10.370370 Si / 1000 Ang^3
#
#
#
# Elastic Constant Matrix: (Units=GPa)
#
#
# Indices 1 2 3 4 5 6 
#
# 1 86.0374 32.3083 6.4729 0.0000 0.0000 0.0000
# 2 32.3083 115.2401 25.1658 0.0000 0.0000 0.0000
# 3 6.4729 25.1658 102.5964 0.0000 0.0000 0.0000
# 4 0.0000 0.0000 0.0000 24.4408 0.0000 0.0000
# 5 0.0000 0.0000 0.0000 0.0000 24.7174 0.0000
# 6 0.0000 0.0000 0.0000 0.0000 0.0000 14.4266
#
#
#
# Elastic Compliance Matrix: (Units=1/GPa)
#
#
# Indices 1 2 3 4 5 6 
#
# 1 0.012991 -0.003659 0.000078 0.000000 0.000000 0.000000
# 2 -0.003659 0.010199 -0.002271 0.000000 0.000000 0.000000
# 3 0.000078 -0.002271 0.010299 0.000000 0.000000 0.000000
# 4 0.000000 0.000000 0.000000 0.040915 0.000000 0.000000
# 5 0.000000 0.000000 0.000000 0.000000 0.040457 0.000000
# 6 0.000000 0.000000 0.000000 0.000000 0.000000 0.069316
#
#
# Mechanical properties :
#
#
# Convention : Reuss Voigt Hill
#
# Bulk Modulus (GPa) = 45.90284 47.97421 46.93853
# Shear Modulus (GPa) = 24.61306 28.71210 26.66258
#
# Velocity S-wave (km/s) = 3.44859 3.72470 3.58930
# Velocity P-wave (km/s) = 6.16740 6.45589 6.31329
#
# Compressibility (1/GPa) = 0.02178514
#
# Stress axis : x y z
#
# Youngs Moduli (GPa) = 76.97609 98.04584 97.09636
#
# Poissons Ratio (x) = 0.35876 -0.00757
# Poissons Ratio (y) = 0.28167 0.22050
# Poissons Ratio (z) = -0.00600 0.22265
#
# Static dielectric constant tensor:
#      x y z
#    x 1.808550 0.000000 0.000000 
#    y 0.000000 1.767900 0.000000 
#    z 0.000000 0.000000 1.770630 
# 
# From -- ./inp_files/19406.got.cif
#   From: 2010.05.17/outbox.ucp.g08.bks.cvg/sg73_10_cif.got.tgz:19406.got - 2010.06.11 16:36:03.
