data_PCOD9533215
_publ_section_title
;
Structure prediction by ZEFSAII (Michael W. Deem and Ramdas Pophale) SiO2 
 PCOD9533215
Probable space group: I B C A 
;
_chemical_formula_sum "Si O2"
_cell_formula_units_Z 120
_cell_length_a 18.577549
_cell_length_b 10.768306
_cell_length_c 24.810715
_cell_angle_alpha 90.000000
_cell_angle_beta 90.000000
_cell_angle_gamma 90.000000
_cell_volume 4963.352085
_symmetry_space_group_name_H-M "I B C A "
_symmetry_group_IT_number 73
_symmetry_cell_setting 'orthorhombic'
loop_
_space_group_symop_operation_xyz
x,y,z
-x,1/2-y,z
x,-y,1/2-z
1/2-x,y,-z
-x,-y,-z
x,1/2+y,-z
-x,y,1/2+z
1/2+x,-y,z
1/2+x,1/2+y,1/2+z
1/2-x,-y,1/2+z
1/2+x,1/2-y,-z
-x,1/2+y,1/2-z
1/2-x,1/2-y,1/2-z
1/2+x,y,1/2-z
1/2-x,1/2+y,z
x,1/2-y,1/2+z
loop_
_atom_site_type_symbol
_atom_site_label
_atom_site_fract_x
_atom_site_fract_y
_atom_site_fract_z
Si Si1 0.675669 0.857900 0.475406
Si Si2 0.471457 0.624660 0.146985
Si Si3 0.693475 0.153290 0.604807
Si Si4 0.860408 0.000000 0.250000
Si Si5 0.255506 0.662135 0.302272
Si Si6 0.330088 0.007488 0.870816
Si Si7 0.530511 0.376278 0.473595
Si Si8 0.548373 0.628207 0.330408
O O1 0.750000 0.905345 0.500000
O O2 0.689160 0.719303 0.452889
O O3 0.643726 0.927692 0.422317
O O4 0.615678 0.868047 0.520650
O O5 0.500000 0.750000 0.174492
O O6 0.385626 0.617626 0.140111
O O7 0.505898 0.624178 0.087668
O O8 0.498848 0.494155 0.169669
O O9 0.733113 0.249832 0.646176
O O10 0.612229 0.128092 0.624831
O O11 0.750222 0.042910 0.609283
O O12 0.810717 0.932491 0.294256
O O13 0.906158 0.890132 0.223946
O O14 0.250000 0.750000 0.250000
O O15 0.321847 0.568951 0.315115
O O16 0.500000 0.250000 0.500243
O O17 0.500000 0.500000 0.500000
O O18 0.500000 0.750000 0.334538
#
# Coordination Sequence:
#
# PCOD9533215 Si02
#       8
#    16  16  16   8  16  16  16  16
#     4  11  27  41  69 107 148 195 255 321 376 453
#     4  11  28  47  75 108 157 203 252 318 389 466
#     4  11  26  44  76 103 148 197 258 311 381 460
#     4  12  26  46  74 118 142 200 246 322 394 460
#     4  11  21  44  74 107 142 190 254 316 380 464
#     4  11  24  46  70 109 142 205 258 316 389 460
#     4  11  26  46  70 104 146 200 250 303 384 454
#     4  12  27  51  78 112 153 199 257 317 389 470
#
# _framework density 24.177209999999999
#
# number of rings (size 3 to 8) (size 9 to 14) (size 15 to 20)
#    0.000    0.800    4.000    1.600    9.333    1.067 
#    0.000    1.333    0.000    0.000    0.000    0.000 
#    0.000    0.000    0.000    0.000    0.000    0.000 
#
# Total GULP energy -335275.067679 kJ/mol
# GULP energy per Si atom -5587.917795 kJ/mol
# Density = 2.412218 g / cm^3
# Si number density = 24.177210 Si / 1000 Ang^3
#
#
#
# Elastic Constant Matrix: (Units=GPa)
#
#
# Indices 1 2 3 4 5 6 
#
# 1 150.4292 39.9935 18.3576 0.0000 0.0000 0.0000
# 2 39.9935 116.3579 3.9757 0.0000 0.0000 0.0000
# 3 18.3576 3.9757 53.8419 0.0000 0.0000 0.0000
# 4 0.0000 0.0000 0.0000 16.6852 0.0000 0.0000
# 5 0.0000 0.0000 0.0000 0.0000 29.4063 0.0000
# 6 0.0000 0.0000 0.0000 0.0000 0.0000 23.5697
#
#
#
# Elastic Compliance Matrix: (Units=1/GPa)
#
#
# Indices 1 2 3 4 5 6 
#
# 1 0.007616 -0.002535 -0.002409 0.000000 0.000000 0.000000
# 2 -0.002535 0.009460 0.000166 0.000000 0.000000 0.000000
# 3 -0.002409 0.000166 0.019382 0.000000 0.000000 0.000000
# 4 0.000000 0.000000 0.000000 0.059933 0.000000 0.000000
# 5 0.000000 0.000000 0.000000 0.000000 0.034006 0.000000
# 6 0.000000 0.000000 0.000000 0.000000 0.000000 0.042427
#
#
# Mechanical properties :
#
#
# Convention : Reuss Voigt Hill
#
# Bulk Modulus (GPa) = 37.17449 49.47586 43.32518
# Shear Modulus (GPa) = 26.13025 31.15239 28.64132
#
# Velocity S-wave (km/s) = 3.29109 3.59347 3.44560
# Velocity P-wave (km/s) = 5.46360 6.14212 5.81277
#
# Compressibility (1/GPa) = 0.02690017
#
# Stress axis : x y z
#
# Youngs Moduli (GPa) = 131.30742 105.70919 51.59389
#
# Poissons Ratio (x) = 0.26800 0.12431
# Poissons Ratio (y) = 0.33290 -0.00856
# Poissons Ratio (z) = 0.31637 -0.01754
#
# Static dielectric constant tensor:
#      x y z
#    x 1.891700 0.000000 0.000000 
#    y 0.000000 2.033010 0.000000 
#    z 0.000000 0.000000 1.831800 
# 
# From -- ./inp_files/32476.got.cif
#   From: 2010.05.17/outbox.cif.g08.bks.cpg/sg73_17_cif.got.tgz:32476.got - 2010.06.03 17:35:07.
