data_PCOD9533909
_publ_section_title
;
Structure prediction by ZEFSAII (Michael W. Deem and Ramdas Pophale) SiO2 
 PCOD9533909
Probable space group: I M M A
;
_chemical_formula_sum "Si O2"
_cell_formula_units_Z 104
_cell_length_a 17.321354
_cell_length_b 13.418467
_cell_length_c 26.359427
_cell_angle_alpha 90.000000
_cell_angle_beta 90.000000
_cell_angle_gamma 90.000000
_cell_volume 6126.616629
_symmetry_space_group_name_H-M "I M M A"
_symmetry_group_IT_number 74
_symmetry_cell_setting 'orthorhombic'
loop_
_space_group_symop_operation_xyz
x,y,z
-x,1/2-y,z
x,-y,-z
-x,1/2+y,-z
-x,-y,-z
x,1/2+y,-z
-x,y,z
x,1/2-y,z
1/2+x,1/2+y,1/2+z
1/2-x,-y,1/2+z
1/2+x,1/2-y,1/2-z
1/2-x,y,1/2-z
1/2-x,1/2-y,1/2-z
1/2+x,y,1/2-z
1/2-x,1/2+y,1/2+z
1/2+x,-y,1/2+z
loop_
_atom_site_type_symbol
_atom_site_label
_atom_site_fract_x
_atom_site_fract_y
_atom_site_fract_z
Si Si1 0.912468 0.868858 0.552933
Si Si2 0.830926 0.549006 0.262865
Si Si3 0.157426 0.865207 0.444333
Si Si4 0.000000 0.361094 0.204426
Si Si5 0.168775 0.634203 0.815574
Si Si6 0.201333 0.973369 0.625615
Si Si7 0.000000 0.364278 0.620219
Si Si8 0.000000 0.056125 0.729480
O O1 0.917729 0.750000 0.555315
O O2 0.863959 0.890405 0.502060
O O3 0.866264 0.908269 0.600979
O O4 0.000000 0.908695 0.549807
O O5 0.750000 0.603764 0.250000
O O6 0.826219 0.445499 0.230606
O O7 0.826439 0.522955 0.322068
O O8 0.915492 0.596651 0.253010
O O9 0.181891 0.750000 0.441578
O O10 0.076084 0.874430 0.414011
O O11 0.214701 0.939860 0.415748
O O12 0.922163 0.369756 0.172010
O O13 0.000000 0.250000 0.227573
O O14 0.000000 0.443967 0.248312
O O15 0.187307 0.750000 0.802801
O O16 0.225515 0.593397 0.858790
O O17 0.000000 0.434736 0.668831
O O18 0.000000 0.250000 0.640144
#
# Coordination Sequence:
#
# PCOD9533909 Si02
#       8
#    16  16  16   8  16  16   8   8
#     4  10  21  33  45  68 101 133 164 201 240 282
#     4   9  19  29  44  67  94 125 157 192 243 283
#     4  10  20  34  48  65  94 133 172 204 240 282
#     4   8  16  32  54  73  95 129 157 188 240 301
#     4   9  18  33  50  71  98 126 155 191 241 296
#     4  11  20  29  49  71  94 124 165 200 242 280
#     4  10  18  30  50  66  85 128 175 205 238 278
#     4  10  16  30  49  66  94 122 167 203 227 287
#
# _framework density 16.975111999999999
#
# number of rings (size 3 to 8) (size 9 to 14) (size 15 to 20)
#    0.000    2.308    2.308    0.923    2.154    4.000 
#    0.000    0.000    0.000   12.923    0.000    2.154 
#    0.000    2.462    0.000    0.000    0.000    0.000 
#
# Total GULP energy -289504.047722 kJ/mol
# GULP energy per Si atom -5567.385533 kJ/mol
# Density = 1.693648 g / cm^3
# Si number density = 16.975112 Si / 1000 Ang^3
#
#
#
# Elastic Constant Matrix: (Units=GPa)
#
#
# Indices 1 2 3 4 5 6 
#
# 1 109.1609 9.4353 29.2744 0.0000 0.0000 0.0000
# 2 9.4353 29.0446 7.8096 0.0000 0.0000 0.0000
# 3 29.2744 7.8096 82.0609 0.0000 0.0000 0.0000
# 4 0.0000 0.0000 0.0000 16.7913 0.0000 0.0000
# 5 0.0000 0.0000 0.0000 0.0000 13.7205 0.0000
# 6 0.0000 0.0000 0.0000 0.0000 0.0000 17.5866
#
#
#
# Elastic Compliance Matrix: (Units=1/GPa)
#
#
# Indices 1 2 3 4 5 6 
#
# 1 0.010293 -0.002418 -0.003442 0.000000 0.000000 0.000000
# 2 -0.002418 0.035902 -0.002554 0.000000 0.000000 0.000000
# 3 -0.003442 -0.002554 0.013657 0.000000 0.000000 0.000000
# 4 0.000000 0.000000 0.000000 0.059554 0.000000 0.000000
# 5 0.000000 0.000000 0.000000 0.000000 0.072884 0.000000
# 6 0.000000 0.000000 0.000000 0.000000 0.000000 0.056862
#
#
# Mechanical properties :
#
#
# Convention : Reuss Voigt Hill
#
# Bulk Modulus (GPa) = 23.24294 34.81167 29.02730
# Shear Modulus (GPa) = 17.83671 21.20283 19.51977
#
# Velocity S-wave (km/s) = 3.24505 3.53803 3.39470
# Velocity P-wave (km/s) = 5.26902 6.10264 5.70109
#
# Compressibility (1/GPa) = 0.04302382
#
# Stress axis : x y z
#
# Youngs Moduli (GPa) = 97.15534 27.85351 73.22288
#
# Poissons Ratio (x) = 0.06736 0.25201
# Poissons Ratio (y) = 0.23495 0.18702
# Poissons Ratio (z) = 0.33438 0.07114
#
# Static dielectric constant tensor:
#      x y z
#    x 1.631440 0.000000 0.000000 
#    y 0.000000 1.627510 0.000000 
#    z 0.000000 0.000000 1.547510 
# 
# From -- ./inp_files/60996.got.cif
#   From: 2010.05.17/outbox.cif.g08.bks.cpg/sg74_31_cif.got.tgz:60996.got - 2010.06.03 17:57:02.
