data_PCOD9533192
_publ_section_title
;
Structure prediction by ZEFSAII (Michael W. Deem and Ramdas Pophale) SiO2 
 PCOD9533192
Probable space group: I B C A 
;
_chemical_formula_sum "Si O2"
_cell_formula_units_Z 112
_cell_length_a 29.529574
_cell_length_b 13.186290
_cell_length_c 12.031838
_cell_angle_alpha 90.000000
_cell_angle_beta 90.000000
_cell_angle_gamma 90.000000
_cell_volume 4685.023572
_symmetry_space_group_name_H-M "I B C A "
_symmetry_group_IT_number 73
_symmetry_cell_setting 'orthorhombic'
loop_
_space_group_symop_operation_xyz
x,y,z
-x,1/2-y,z
x,-y,1/2-z
1/2-x,y,-z
-x,-y,-z
x,1/2+y,-z
-x,y,1/2+z
1/2+x,-y,z
1/2+x,1/2+y,1/2+z
1/2-x,-y,1/2+z
1/2+x,1/2-y,-z
-x,1/2+y,1/2-z
1/2-x,1/2-y,1/2-z
1/2+x,y,1/2-z
1/2-x,1/2+y,z
x,1/2-y,1/2+z
loop_
_atom_site_type_symbol
_atom_site_label
_atom_site_fract_x
_atom_site_fract_y
_atom_site_fract_z
Si Si1 0.952084 0.725673 0.227510
Si Si2 0.300546 0.276650 0.718738
Si Si3 0.425953 0.082095 0.550176
Si Si4 0.668422 0.574326 0.448465
Si Si5 0.670357 0.059175 0.139919
Si Si6 0.375003 0.749978 0.101598
Si Si7 0.929096 0.056262 0.361287
O O1 0.958025 0.636675 0.138151
O O2 0.912673 0.704823 0.314981
O O3 0.936778 0.825333 0.158518
O O4 0.000000 0.750000 0.283173
O O5 0.250000 0.250000 0.750000
O O6 0.299172 0.372119 0.637871
O O7 0.320427 0.177541 0.655780
O O8 0.334777 0.294547 0.821478
O O9 0.383275 0.041898 0.620690
O O10 0.402176 0.166917 0.470415
O O11 0.447429 0.996570 0.472457
O O12 0.689715 0.489684 0.527470
O O13 0.647781 0.662818 0.527844
O O14 0.624723 0.537944 0.379300
O O15 0.685291 0.000000 0.250000
O O16 0.944552 0.000000 0.250000
#
# Coordination Sequence:
#
# PCOD9533192 Si02
#       7
#    16  16  16  16  16  16  16
#     4  12  25  42  67 102 141 181 231 295 353 411
#     4  12  25  44  71 104 140 180 227 293 352 420
#     4  11  22  41  71  96 132 190 229 280 355 417
#     4  11  22  42  75  98 134 190 227 280 354 419
#     4  11  21  42  71 102 135 178 234 283 344 422
#     4  12  20  46  69  94 143 179 231 280 357 417
#     4  11  21  41  69  98 134 179 236 280 342 426
#
# _framework density 23.905964000000001
#
# number of rings (size 3 to 8) (size 9 to 14) (size 15 to 20)
#    0.000    0.571    8.571    0.000    0.000    1.714 
#    0.000    8.571    0.000    0.000    0.000    0.000 
#    0.000    0.000    0.000    0.000    0.000    0.000 
#
# Total GULP energy -313456.873165 kJ/mol
# GULP energy per Si atom -5597.444164 kJ/mol
# Density = 2.385155 g / cm^3
# Si number density = 23.905964 Si / 1000 Ang^3
#
#
#
# Elastic Constant Matrix: (Units=GPa)
#
#
# Indices 1 2 3 4 5 6 
#
# 1 83.3137 -23.3108 25.6005 0.0000 0.0000 0.0000
# 2 -23.3108 41.5132 1.2242 0.0000 0.0000 0.0000
# 3 25.6005 1.2242 75.6898 0.0000 0.0000 0.0000
# 4 0.0000 0.0000 0.0000 37.9330 0.0000 0.0000
# 5 0.0000 0.0000 0.0000 0.0000 14.8079 0.0000
# 6 0.0000 0.0000 0.0000 0.0000 0.0000 15.7006
#
#
#
# Elastic Compliance Matrix: (Units=1/GPa)
#
#
# Indices 1 2 3 4 5 6 
#
# 1 0.016369 0.009360 -0.005688 0.000000 0.000000 0.000000
# 2 0.009360 0.029452 -0.003642 0.000000 0.000000 0.000000
# 3 -0.005688 -0.003642 0.015195 0.000000 0.000000 0.000000
# 4 0.000000 0.000000 0.000000 0.026362 0.000000 0.000000
# 5 0.000000 0.000000 0.000000 0.000000 0.067532 0.000000
# 6 0.000000 0.000000 0.000000 0.000000 0.000000 0.063692
#
#
# Mechanical properties :
#
#
# Convention : Reuss Voigt Hill
#
# Bulk Modulus (GPa) = 16.37335 23.06052 19.71694
# Shear Modulus (GPa) = 20.92920 26.82181 23.87551
#
# Velocity S-wave (km/s) = 2.96206 3.35322 3.16369
# Velocity P-wave (km/s) = 4.30840 4.96582 4.64875
#
# Compressibility (1/GPa) = 0.06107484
#
# Stress axis : x y z
#
# Youngs Moduli (GPa) = 61.08963 33.95379 65.81295
#
# Poissons Ratio (x) = -0.31779 0.37434
# Poissons Ratio (y) = -0.57177 0.23969
# Poissons Ratio (z) = 0.34748 0.12366
#
# Static dielectric constant tensor:
#      x y z
#    x 1.896040 0.000000 0.000000 
#    y 0.000000 1.961850 0.000000 
#    z 0.000000 0.000000 1.924060 
# 
# From -- ./inp_files/14802.got.cif
#   From: 2010.05.17/outbox.cif.g08.bks.cpg/sg73_8_cif.got.tgz:14802.got - 2010.06.03 17:35:07.
