data_PCOD9533946
_publ_section_title
;
Structure prediction by ZEFSAII (Michael W. Deem and Ramdas Pophale) SiO2 
 PCOD9533946
Probable space group: I M M A
;
_chemical_formula_sum "Si O2"
_cell_formula_units_Z 80
_cell_length_a 8.453813
_cell_length_b 23.917467
_cell_length_c 29.942628
_cell_angle_alpha 90.000000
_cell_angle_beta 90.000000
_cell_angle_gamma 90.000000
_cell_volume 6054.213541
_symmetry_space_group_name_H-M "I M M A"
_symmetry_group_IT_number 74
_symmetry_cell_setting 'orthorhombic'
loop_
_space_group_symop_operation_xyz
x,y,z
-x,1/2-y,z
x,-y,-z
-x,1/2+y,-z
-x,-y,-z
x,1/2+y,-z
-x,y,z
x,1/2-y,z
1/2+x,1/2+y,1/2+z
1/2-x,-y,1/2+z
1/2+x,1/2-y,1/2-z
1/2-x,y,1/2-z
1/2-x,1/2-y,1/2-z
1/2+x,y,1/2-z
1/2-x,1/2+y,1/2+z
1/2+x,-y,1/2+z
loop_
_atom_site_type_symbol
_atom_site_label
_atom_site_fract_x
_atom_site_fract_y
_atom_site_fract_z
Si Si1 0.310724 0.882435 0.116656
Si Si2 0.692918 0.186307 0.971692
Si Si3 0.314372 0.021331 0.564034
Si Si4 0.686603 0.082239 0.023561
Si Si5 0.689632 0.814655 0.299500
O O1 0.500000 0.887287 0.114897
O O2 0.259574 0.841841 0.075466
O O3 0.235454 0.943095 0.107021
O O4 0.258583 0.854484 0.162587
O O5 0.500000 0.186534 0.971838
O O6 0.747710 0.250000 0.975266
O O7 0.741944 0.145006 0.011972
O O8 0.500000 0.028217 0.555505
O O9 0.218385 0.050752 0.523629
O O10 0.271476 0.955980 0.560380
O O11 0.500000 0.082508 0.032587
O O12 0.500000 0.817176 0.300277
O O13 0.738056 0.750000 0.308424
O O14 0.750000 0.828950 0.250000
#
# Coordination Sequence:
#
# PCOD9533946 Si02
#       5
#    16  16  16  16  16
#     4  10  18  28  42  57  73  94 124 160 194 227
#     4   8  14  23  36  54  73  94 121 153 187 221
#     4  10  17  25  37  52  71  93 119 152 189 225
#     4   9  15  24  37  52  71  94 121 151 184 223
#     4  10  20  32  44  58  76  98 124 154 190 230
#
# _framework density 13.213938000000001
#
# number of rings (size 3 to 8) (size 9 to 14) (size 15 to 20)
#    0.000    2.600    0.000    6.600    0.000    2.000 
#    0.000    0.000    0.000   12.000    0.000    0.000 
#    0.000    0.000    0.000    0.000    0.000    1.000 
#
# Total GULP energy -222713.599850 kJ/mol
# GULP energy per Si atom -5567.839996 kJ/mol
# Density = 1.318386 g / cm^3
# Si number density = 13.213938 Si / 1000 Ang^3
#
#
#
# Elastic Constant Matrix: (Units=GPa)
#
#
# Indices 1 2 3 4 5 6 
#
# 1 25.3121 14.1595 13.8191 0.0000 0.0000 0.0000
# 2 14.1595 91.9923 51.7530 0.0000 0.0000 0.0000
# 3 13.8191 51.7530 60.3138 0.0000 0.0000 0.0000
# 4 0.0000 0.0000 0.0000 25.4611 0.0000 0.0000
# 5 0.0000 0.0000 0.0000 0.0000 15.8286 0.0000
# 6 0.0000 0.0000 0.0000 0.0000 0.0000 11.7087
#
#
#
# Elastic Compliance Matrix: (Units=1/GPa)
#
#
# Indices 1 2 3 4 5 6 
#
# 1 0.045383 -0.002195 -0.008514 0.000000 0.000000 0.000000
# 2 -0.002195 0.021121 -0.017620 0.000000 0.000000 0.000000
# 3 -0.008514 -0.017620 0.033650 0.000000 0.000000 0.000000
# 4 0.000000 0.000000 0.000000 0.039276 0.000000 0.000000
# 5 0.000000 0.000000 0.000000 0.000000 0.063177 0.000000
# 6 0.000000 0.000000 0.000000 0.000000 0.000000 0.085407
#
#
# Mechanical properties :
#
#
# Convention : Reuss Voigt Hill
#
# Bulk Modulus (GPa) = 22.99145 37.45348 30.22247
# Shear Modulus (GPa) = 13.92089 17.12544 15.52316
#
# Velocity S-wave (km/s) = 3.24929 3.60392 3.43119
# Velocity P-wave (km/s) = 5.61376 6.76189 6.21440
#
# Compressibility (1/GPa) = 0.04349442
#
# Stress axis : x y z
#
# Youngs Moduli (GPa) = 22.03451 47.34567 29.71752
#
# Poissons Ratio (x) = 0.10394 0.25303
# Poissons Ratio (y) = 0.04837 0.52363
# Poissons Ratio (z) = 0.18761 0.83425
#
# Static dielectric constant tensor:
#      x y z
#    x 1.441680 0.000000 0.000000 
#    y 0.000000 1.474880 0.000000 
#    z 0.000000 0.000000 1.410660 
# 
# From -- ./inp_files/70691.got.cif
#   From: 2010.05.17/outbox.cif.g08.bks.cpg/sg74_36_cif.got.tgz:70691.got - 2010.06.03 17:57:02.
