data_PCOD9533556
_publ_section_title
;
Structure prediction by ZEFSAII (Michael W. Deem and Ramdas Pophale) SiO2 
 PCOD9533556
Probable space group: I B C A 
;
_chemical_formula_sum "Si O2"
_cell_formula_units_Z 72
_cell_length_a 12.982278
_cell_length_b 25.375878
_cell_length_c 9.311837
_cell_angle_alpha 90.000000
_cell_angle_beta 90.000000
_cell_angle_gamma 90.000000
_cell_volume 3067.660877
_symmetry_space_group_name_H-M "I B C A "
_symmetry_group_IT_number 73
_symmetry_cell_setting 'orthorhombic'
loop_
_space_group_symop_operation_xyz
x,y,z
-x,1/2-y,z
x,-y,1/2-z
1/2-x,y,-z
-x,-y,-z
x,1/2+y,-z
-x,y,1/2+z
1/2+x,-y,z
1/2+x,1/2+y,1/2+z
1/2-x,-y,1/2+z
1/2+x,1/2-y,-z
-x,1/2+y,1/2-z
1/2-x,1/2-y,1/2-z
1/2+x,y,1/2-z
1/2-x,1/2+y,z
x,1/2-y,1/2+z
loop_
_atom_site_type_symbol
_atom_site_label
_atom_site_fract_x
_atom_site_fract_y
_atom_site_fract_z
Si Si1 0.446089 0.578458 0.547437
Si Si2 0.500000 0.750000 0.463570
Si Si3 0.989789 0.650280 0.221611
Si Si4 0.840467 0.982387 0.913613
Si Si5 0.318683 0.720043 0.132551
O O1 0.431209 0.621298 0.672233
O O2 0.457779 0.608615 0.398205
O O3 0.365269 0.532517 0.516994
O O4 0.554453 0.550940 0.588246
O O5 0.471260 0.799161 0.365568
O O6 0.598226 0.760445 0.562751
O O7 0.889916 0.673510 0.304375
O O8 0.817181 0.000000 0.750000
O O9 0.750000 0.953231 0.000000
O O10 0.250000 0.750000 0.250000
O O11 0.250000 0.701333 0.000000
#
# Coordination Sequence:
#
# PCOD9533556 Si02
#       5
#    16   8  16  16  16
#     4  11  26  49  74 105 150 186 248 301 377 443
#     4  12  26  48  76 104 160 200 256 310 374 440
#     4  12  25  47  74 107 143 205 245 305 370 440
#     4  11  26  49  77 112 144 187 237 311 379 453
#     4  12  27  46  72 107 152 207 255 314 370 436
#
# _framework density 23.470651
#
# number of rings (size 3 to 8) (size 9 to 14) (size 15 to 20)
#    0.000    0.444    6.667    0.667    3.111    0.889 
#    8.000    0.000    0.000    0.000    0.000    0.000 
#    0.000    0.000    0.000    0.000    0.000    0.000 
#
# Total GULP energy -201438.919479 kJ/mol
# GULP energy per Si atom -5595.525541 kJ/mol
# Density = 2.341723 g / cm^3
# Si number density = 23.470651 Si / 1000 Ang^3
#
#
#
# Elastic Constant Matrix: (Units=GPa)
#
#
# Indices 1 2 3 4 5 6 
#
# 1 87.7293 -1.6770 41.3323 0.0001 0.0000 -0.0001
# 2 -1.6770 79.0347 24.9270 0.0001 0.0000 0.0000
# 3 41.3323 24.9270 138.6538 0.0001 0.0004 -0.0003
# 4 0.0001 0.0001 0.0001 51.6674 0.0001 -0.0001
# 5 0.0000 0.0000 0.0004 0.0001 52.5552 0.0000
# 6 -0.0001 0.0000 -0.0003 -0.0001 0.0000 -7.2139
#
#
#
# Elastic Compliance Matrix: (Units=1/GPa)
#
#
# Indices 1 2 3 4 5 6 
#
# 1 0.013460 0.001644 -0.004308 0.000000 0.000000 0.000000
# 2 0.001644 0.013614 -0.002938 0.000000 0.000000 0.000000
# 3 -0.004308 -0.002938 0.009025 0.000000 0.000000 0.000000
# 4 0.000000 0.000000 0.000000 0.019355 0.000000 0.000000
# 5 0.000000 0.000000 0.000000 0.000000 0.019028 0.000000
# 6 0.000000 0.000000 0.000000 0.000000 0.000000 -0.138622
#
#
# Mechanical properties :
#
#
# Convention : Reuss Voigt Hill
#
# Bulk Modulus (GPa) = 40.16758 48.28696 44.22727
# Shear Modulus (GPa) = -112.00674 35.45745 -38.27465
#
# Velocity S-wave (km/s) = -6.91561 3.89101 -4.04263
# Velocity P-wave (km/s) = 6.82762 6.38785 1.70467
#
# Compressibility (1/GPa) = 0.02489570
#
# Stress axis : x y z
#
# Youngs Moduli (GPa) = 74.29564 73.45338 110.80925
#
# Poissons Ratio (x) = -0.12078 0.47736
# Poissons Ratio (y) = -0.12216 0.32552
# Poissons Ratio (z) = 0.32006 0.21578
#
# Static dielectric constant tensor:
#      x y z
#    x 1.925260 0.000000 0.000000 
#    y 0.000000 1.887260 0.000000 
#    z 0.000000 0.000000 1.887600 
# 
# From -- ./inp_files/4812.got.cif
#   From: 2010.05.17/outbox.cif.g08.bks.cpg/sg73_3_cif.got.tgz:4812.got - 2010.06.03 17:35:07.
