data_PCOD9533957
_publ_section_title
;
Structure prediction by ZEFSAII (Michael W. Deem and Ramdas Pophale) SiO2 
 PCOD9533957
Probable space group: I M M A
;
_chemical_formula_sum "Si O2"
_cell_formula_units_Z 112
_cell_length_a 14.171726
_cell_length_b 30.660605
_cell_length_c 11.718377
_cell_angle_alpha 90.000000
_cell_angle_beta 90.000000
_cell_angle_gamma 90.000000
_cell_volume 5091.795267
_symmetry_space_group_name_H-M "I M M A"
_symmetry_group_IT_number 74
_symmetry_cell_setting 'orthorhombic'
loop_
_space_group_symop_operation_xyz
x,y,z
-x,1/2-y,z
x,-y,-z
-x,1/2+y,-z
-x,-y,-z
x,1/2+y,-z
-x,y,z
x,1/2-y,z
1/2+x,1/2+y,1/2+z
1/2-x,-y,1/2+z
1/2+x,1/2-y,1/2-z
1/2-x,y,1/2-z
1/2-x,1/2-y,1/2-z
1/2+x,y,1/2-z
1/2-x,1/2+y,1/2+z
1/2+x,-y,1/2+z
loop_
_atom_site_type_symbol
_atom_site_label
_atom_site_fract_x
_atom_site_fract_y
_atom_site_fract_z
Si Si1 0.384946 0.700636 0.373219
Si Si2 0.609997 0.486039 0.722900
Si Si3 0.388270 0.895734 0.331063
Si Si4 0.114294 0.203203 0.139668
Si Si5 0.109569 0.385812 0.236368
Si Si6 0.311263 0.053598 0.452438
Si Si7 0.604465 0.553009 0.934496
O O1 0.500000 0.701002 0.366134
O O2 0.355154 0.750000 0.334599
O O3 0.351259 0.653996 0.321162
O O4 0.359144 0.696841 0.507353
O O5 0.500000 0.484861 0.690462
O O6 0.641844 0.436595 0.747920
O O7 0.659503 0.508392 0.612859
O O8 0.613535 0.516848 0.833413
O O9 0.500000 0.890833 0.315347
O O10 0.369838 0.919049 0.453642
O O11 0.148893 0.250000 0.178948
O O12 0.139552 0.163355 0.218783
O O13 0.000000 0.204245 0.138765
O O14 0.175894 0.415001 0.157812
O O15 0.106709 0.401796 0.365400
O O16 0.000000 0.392010 0.194858
O O17 0.203973 0.050904 0.495905
O O18 0.500000 0.548579 0.988952
#
# Coordination Sequence:
#
# PCOD9533957 Si02
#       7
#    16  16  16  16  16  16  16
#     4   8  13  21  33  53  84 115 133 149 187 243
#     4   9  17  27  40  61  86 105 128 167 210 248
#     4  10  17  25  41  66  89 107 131 167 207 244
#     4   8  12  18  30  48  72 101 127 152 188 234
#     4   9  14  22  36  53  72  94 126 162 195 233
#     4  11  17  25  40  57  79 106 136 167 201 241
#     4   9  19  31  41  53  74 109 145 172 200 238
#
# _framework density 21.996171
#
# number of rings (size 3 to 8) (size 9 to 14) (size 15 to 20)
#    0.000    2.857    1.429    5.143    0.000    1.143 
#    0.000    0.000    0.000    4.286    0.000    0.000 
#    0.000    2.286    0.000    0.571    0.000    0.286 
#
# Total GULP energy -311840.503478 kJ/mol
# GULP energy per Si atom -5568.580419 kJ/mol
# Density = 2.194611 g / cm^3
# Si number density = 21.996171 Si / 1000 Ang^3
#
#
#
# Elastic Constant Matrix: (Units=GPa)
#
#
# Indices 1 2 3 4 5 6 
#
# 1 94.0372 12.5206 13.6556 0.0001 0.0000 0.0000
# 2 12.5206 198.4666 11.2199 0.0000 0.0000 0.0000
# 3 13.6556 11.2199 20.8662 0.0003 0.0003 0.0000
# 4 0.0001 0.0000 0.0003 19.9255 0.0000 0.0000
# 5 0.0000 0.0000 0.0003 0.0000 20.0246 0.0000
# 6 0.0000 0.0000 0.0000 0.0000 0.0000 -6.4953
#
#
#
# Elastic Compliance Matrix: (Units=1/GPa)
#
#
# Indices 1 2 3 4 5 6 
#
# 1 0.011770 -0.000317 -0.007532 0.000000 0.000000 0.000000
# 2 -0.000317 0.005205 -0.002592 0.000000 0.000000 0.000000
# 3 -0.007532 -0.002592 0.054247 -0.000001 -0.000001 0.000000
# 4 0.000000 0.000000 -0.000001 0.050187 0.000000 0.000000
# 5 0.000000 0.000000 -0.000001 0.000000 0.049939 0.000000
# 6 0.000000 0.000000 0.000000 0.000000 0.000000 -0.153958
#
#
# Mechanical properties :
#
#
# Convention : Reuss Voigt Hill
#
# Bulk Modulus (GPa) = 19.86446 43.12912 31.49679
# Shear Modulus (GPa) = 90.82273 25.08922 57.95597
#
# Velocity S-wave (km/s) = 6.43272 3.38097 5.13862
# Velocity P-wave (km/s) = 8.01397 5.90689 7.03971
#
# Compressibility (1/GPa) = 0.05034115
#
# Stress axis : x y z
#
# Youngs Moduli (GPa) = 84.96117 192.11857 18.43405
#
# Poissons Ratio (x) = 0.06084 0.13885
# Poissons Ratio (y) = 0.02691 0.04777
# Poissons Ratio (z) = 0.63997 0.49789
#
# Static dielectric constant tensor:
#      x y z
#    x 1.835320 0.000000 0.000000 
#    y 0.000000 1.907960 0.000000 
#    z 0.000000 0.000000 1.840670 
# 
# From -- ./inp_files/33163.got.cif
#   From: 2010.05.17/outbox.cif.g08.bks.cpg/sg74_17_cif.got.tgz:33163.got - 2010.06.03 17:57:02.
