data_PCOD9533444
_publ_section_title
;
Structure prediction by ZEFSAII (Michael W. Deem and Ramdas Pophale) SiO2 
 PCOD9533444
Probable space group: I B C A 
;
_chemical_formula_sum "Si O2"
_cell_formula_units_Z 112
_cell_length_a 13.858152
_cell_length_b 30.418324
_cell_length_c 11.310743
_cell_angle_alpha 90.000000
_cell_angle_beta 90.000000
_cell_angle_gamma 90.000000
_cell_volume 4767.950484
_symmetry_space_group_name_H-M "I B C A "
_symmetry_group_IT_number 73
_symmetry_cell_setting 'orthorhombic'
loop_
_space_group_symop_operation_xyz
x,y,z
-x,1/2-y,z
x,-y,1/2-z
1/2-x,y,-z
-x,-y,-z
x,1/2+y,-z
-x,y,1/2+z
1/2+x,-y,z
1/2+x,1/2+y,1/2+z
1/2-x,-y,1/2+z
1/2+x,1/2-y,-z
-x,1/2+y,1/2-z
1/2-x,1/2-y,1/2-z
1/2+x,y,1/2-z
1/2-x,1/2+y,z
x,1/2-y,1/2+z
loop_
_atom_site_type_symbol
_atom_site_label
_atom_site_fract_x
_atom_site_fract_y
_atom_site_fract_z
Si Si1 0.338274 0.697402 0.652586
Si Si2 0.222382 0.461148 0.673512
Si Si3 0.268179 0.206188 0.874084
Si Si4 0.413685 0.967146 0.460808
Si Si5 0.030750 0.664581 0.878867
Si Si6 0.228945 0.106819 0.378396
Si Si7 0.997910 0.119644 0.868708
O O1 0.282295 0.741508 0.618004
O O2 0.322999 0.697281 0.793108
O O3 0.446754 0.700702 0.609637
O O4 0.290908 0.651446 0.615518
O O5 0.176601 0.500000 0.750000
O O6 0.319711 0.481474 0.615474
O O7 0.142392 0.448303 0.576563
O O8 0.247247 0.420771 0.759760
O O9 0.368524 0.184695 0.833776
O O10 0.250000 0.186056 0.000000
O O11 0.461786 0.929100 0.383939
O O12 0.500000 0.000000 0.500000
O O13 0.989625 0.636058 0.767318
O O14 0.036302 0.643753 0.010618
O O15 0.250000 0.080813 0.500000
O O16 0.117096 0.118584 0.381897
#
# Coordination Sequence:
#
# PCOD9533444 Si02
#       7
#    16  16  16  16  16  16  16
#     4  11  24  45  69 104 143 194 242 310 370 448
#     4  11  27  47  75 108 149 195 245 304 379 440
#     4  11  25  44  70 103 148 190 250 308 381 439
#     4  11  27  48  73 109 150 192 248 307 369 448
#     4  12  25  45  72 108 143 195 248 302 377 447
#     4  12  24  45  73 100 148 192 245 304 374 440
#     4  12  26  44  74 106 146 193 249 303 372 445
#
# _framework density 23.490178
#
# number of rings (size 3 to 8) (size 9 to 14) (size 15 to 20)
#    0.000    0.571    2.857    4.286    4.000    1.714 
#    0.000    2.857    0.000    0.000    0.000    0.000 
#    0.000    0.000    0.000    0.000    0.000    0.000 
#
# Total GULP energy -312628.959822 kJ/mol
# GULP energy per Si atom -5582.659997 kJ/mol
# Density = 2.343671 g / cm^3
# Si number density = 23.490178 Si / 1000 Ang^3
#
#
#
# Elastic Constant Matrix: (Units=GPa)
#
#
# Indices 1 2 3 4 5 6 
#
# 1 92.6692 21.0158 7.1875 0.0000 0.0000 0.0000
# 2 21.0158 80.1007 30.6781 -0.0003 0.0000 0.0000
# 3 7.1875 30.6781 130.1395 -0.0016 0.0004 -0.0002
# 4 0.0000 -0.0003 -0.0016 3.2716 0.0000 -0.0001
# 5 0.0000 0.0000 0.0004 0.0000 41.6530 0.0000
# 6 0.0000 0.0000 -0.0002 -0.0001 0.0000 23.3555
#
#
#
# Elastic Compliance Matrix: (Units=1/GPa)
#
#
# Indices 1 2 3 4 5 6 
#
# 1 0.011475 -0.003043 0.000083 0.000000 0.000000 0.000000
# 2 -0.003043 0.014530 -0.003257 0.000000 0.000000 0.000000
# 3 0.000083 -0.003257 0.008447 0.000004 0.000000 0.000000
# 4 0.000000 0.000000 0.000004 0.305665 0.000000 0.000002
# 5 0.000000 0.000000 0.000000 0.000000 0.024008 0.000000
# 6 0.000000 0.000000 0.000000 0.000002 0.000000 0.042817
#
#
# Mechanical properties :
#
#
# Convention : Reuss Voigt Hill
#
# Bulk Modulus (GPa) = 45.41437 46.74138 46.07787
# Shear Modulus (GPa) = 11.71746 29.92454 20.82100
#
# Velocity S-wave (km/s) = 2.23586 3.57307 2.98043
# Velocity P-wave (km/s) = 5.10301 6.07979 5.61269
#
# Compressibility (1/GPa) = 0.02201946
#
# Stress axis : x y z
#
# Youngs Moduli (GPa) = 87.14909 68.82299 118.38149
#
# Poissons Ratio (x) = 0.20940 -0.00988
# Poissons Ratio (y) = 0.26515 0.38559
# Poissons Ratio (z) = -0.00728 0.22417
#
# Static dielectric constant tensor:
#      x y z
#    x 1.886270 0.000000 0.000000 
#    y 0.000000 1.890680 0.000000 
#    z 0.000000 0.000000 2.347470 
# 
# From -- ./inp_files/11236.got.cif
#   From: 2010.05.17/outbox.cif.g08.bks.cpg/sg73_6_cif.got.tgz:11236.got - 2010.06.03 17:35:07.
