data_PCOD9533059
_publ_section_title
;
Structure prediction by ZEFSAII (Michael W. Deem and Ramdas Pophale) SiO2 
 PCOD9533059
Probable space group: I B C A 
;
_chemical_formula_sum "Si O2"
_cell_formula_units_Z 120
_cell_length_a 12.364513
_cell_length_b 15.842812
_cell_length_c 28.641297
_cell_angle_alpha 90.000000
_cell_angle_beta 90.000000
_cell_angle_gamma 90.000000
_cell_volume 5610.505145
_symmetry_space_group_name_H-M "I B C A "
_symmetry_group_IT_number 73
_symmetry_cell_setting 'orthorhombic'
loop_
_space_group_symop_operation_xyz
x,y,z
-x,1/2-y,z
x,-y,1/2-z
1/2-x,y,-z
-x,-y,-z
x,1/2+y,-z
-x,y,1/2+z
1/2+x,-y,z
1/2+x,1/2+y,1/2+z
1/2-x,-y,1/2+z
1/2+x,1/2-y,-z
-x,1/2+y,1/2-z
1/2-x,1/2-y,1/2-z
1/2+x,y,1/2-z
1/2-x,1/2+y,z
x,1/2-y,1/2+z
loop_
_atom_site_type_symbol
_atom_site_label
_atom_site_fract_x
_atom_site_fract_y
_atom_site_fract_z
Si Si1 0.448703 0.341709 0.315975
Si Si2 0.339167 0.000000 0.250000
Si Si3 0.126748 0.777344 0.405394
Si Si4 0.112733 0.984836 0.848549
Si Si5 0.303672 0.336710 0.230656
Si Si6 0.633741 0.914276 0.017294
Si Si7 0.986338 0.068767 0.931817
Si Si8 0.793163 0.637778 0.124703
O O1 0.500000 0.250000 0.309162
O O2 0.361638 0.330725 0.357252
O O3 0.537045 0.404121 0.337046
O O4 0.398929 0.363320 0.266116
O O5 0.392371 0.970070 0.298319
O O6 0.275813 0.083341 0.266008
O O7 0.151974 0.834472 0.449525
O O8 0.204890 0.698315 0.399061
O O9 0.000000 0.750000 0.408311
O O10 0.229713 0.950231 0.864767
O O11 0.062581 0.038413 0.889853
O O12 0.250000 0.250000 0.250000
O O13 0.328427 0.327914 0.175769
O O14 0.571870 0.986155 0.046488
O O15 0.750000 0.946518 0.000000
O O16 0.558281 0.892636 0.973096
O O17 0.893574 0.125542 0.909240
#
# Coordination Sequence:
#
# PCOD9533059 Si02
#       8
#    16   8  16  16  16  16  16  16
#     4  11  20  38  65  94 134 187 230 265 346 424
#     4  10  26  38  68 104 134 190 238 272 352 426
#     4  11  21  42  69  92 127 182 229 275 347 431
#     4  11  22  41  67  99 138 180 231 280 343 431
#     4  11  23  41  63 101 148 185 232 288 347 427
#     4  11  25  45  68  95 129 173 222 285 368 422
#     4  11  25  43  69 100 130 172 227 298 347 412
#     4  11  23  43  66 102 137 180 232 286 349 420
#
# _framework density 21.388448
#
# number of rings (size 3 to 8) (size 9 to 14) (size 15 to 20)
#    0.000    1.067    5.333    1.600    5.600    3.200 
#    0.000    0.000    0.000    0.000    0.000    0.000 
#    0.000    0.000    0.000    0.000    0.000    0.000 
#
# Total GULP energy -335166.853836 kJ/mol
# GULP energy per Si atom -5586.114231 kJ/mol
# Density = 2.133977 g / cm^3
# Si number density = 21.388448 Si / 1000 Ang^3
#
#
#
# Elastic Constant Matrix: (Units=GPa)
#
#
# Indices 1 2 3 4 5 6 
#
# 1 56.1140 1.6378 56.8793 0.0000 0.0000 0.0000
# 2 1.6378 42.0142 34.0553 0.0000 0.0000 0.0000
# 3 56.8793 34.0553 174.8015 0.0000 0.0000 0.0000
# 4 0.0000 0.0000 0.0000 33.3125 0.0000 0.0000
# 5 0.0000 0.0000 0.0000 0.0000 44.3390 0.0000
# 6 0.0000 0.0000 0.0000 0.0000 0.0000 24.1485
#
#
#
# Elastic Compliance Matrix: (Units=1/GPa)
#
#
# Indices 1 2 3 4 5 6 
#
# 1 0.028502 0.007608 -0.010757 0.000000 0.000000 0.000000
# 2 0.007608 0.030296 -0.008378 0.000000 0.000000 0.000000
# 3 -0.010757 -0.008378 0.010853 0.000000 0.000000 0.000000
# 4 0.000000 0.000000 0.000000 0.030019 0.000000 0.000000
# 5 0.000000 0.000000 0.000000 0.000000 0.022553 0.000000
# 6 0.000000 0.000000 0.000000 0.000000 0.000000 0.041410
#
#
# Mechanical properties :
#
#
# Convention : Reuss Voigt Hill
#
# Bulk Modulus (GPa) = 21.46026 50.89717 36.17872
# Shear Modulus (GPa) = 24.72564 32.38384 28.55474
#
# Velocity S-wave (km/s) = 3.40373 3.89534 3.65780
# Velocity P-wave (km/s) = 5.05000 6.63926 5.89840
#
# Compressibility (1/GPa) = 0.04659775
#
# Stress axis : x y z
#
# Youngs Moduli (GPa) = 35.08515 33.00797 92.13964
#
# Poissons Ratio (x) = -0.25112 0.99111
# Poissons Ratio (y) = -0.26692 0.77193
# Poissons Ratio (z) = 0.37740 0.27654
#
# Static dielectric constant tensor:
#      x y z
#    x 1.844960 0.000000 0.000000 
#    y 0.000000 1.947020 0.000000 
#    z 0.000000 0.000000 1.825140 
# 
# From -- ./inp_files/31834.got.cif
#   From: 2010.05.17/outbox.cif.g08.bks.cpg/sg73_16_cif.got.tgz:31834.got - 2010.06.03 17:35:07.
