data_PCOD9533433
_publ_section_title
;
Structure prediction by ZEFSAII (Michael W. Deem and Ramdas Pophale) SiO2 
 PCOD9533433
Probable space group: I B C A 
;
_chemical_formula_sum "Si O2"
_cell_formula_units_Z 48
_cell_length_a 14.430330
_cell_length_b 7.967162
_cell_length_c 14.842735
_cell_angle_alpha 90.000000
_cell_angle_beta 90.000000
_cell_angle_gamma 90.000000
_cell_volume 1706.451088
_symmetry_space_group_name_H-M "I B C A "
_symmetry_group_IT_number 73
_symmetry_cell_setting 'orthorhombic'
loop_
_space_group_symop_operation_xyz
x,y,z
-x,1/2-y,z
x,-y,1/2-z
1/2-x,y,-z
-x,-y,-z
x,1/2+y,-z
-x,y,1/2+z
1/2+x,-y,z
1/2+x,1/2+y,1/2+z
1/2-x,-y,1/2+z
1/2+x,1/2-y,-z
-x,1/2+y,1/2-z
1/2-x,1/2-y,1/2-z
1/2+x,y,1/2-z
1/2-x,1/2+y,z
x,1/2-y,1/2+z
loop_
_atom_site_type_symbol
_atom_site_label
_atom_site_fract_x
_atom_site_fract_y
_atom_site_fract_z
Si Si1 0.612166 0.873733 0.916056
Si Si2 0.446207 0.597750 0.122671
Si Si3 0.733893 0.060349 0.158558
O O1 0.671418 0.720040 0.872959
O O2 0.516152 0.940514 0.872791
O O3 0.686737 0.025668 0.913994
O O4 0.580387 0.855901 0.019556
O O5 0.500000 0.750000 0.165705
O O6 0.346974 0.578243 0.165843
O O7 0.786958 0.000000 0.250000
#
# Coordination Sequence:
#
# PCOD9533433 Si02
#       3
#    16  16  16
#     4  11  24  45  68 100 143 189 244 292 351 429
#     4  11  24  44  71 100 136 188 242 295 348 421
#     4  12  26  44  71 106 144 186 233 301 371 428
#
# _framework density 28.128551000000002
#
# number of rings (size 3 to 8) (size 9 to 14) (size 15 to 20)
#    0.000    0.667    0.000    9.000    0.000    6.667 
#    0.000    0.000    0.000    0.000    0.000    0.000 
#    0.000    0.000    0.000    0.000    0.000    0.000 
#
# Total GULP energy -134044.986261 kJ/mol
# GULP energy per Si atom -5585.207761 kJ/mol
# Density = 2.806453 g / cm^3
# Si number density = 28.128551 Si / 1000 Ang^3
#
#
#
# Elastic Constant Matrix: (Units=GPa)
#
#
# Indices 1 2 3 4 5 6 
#
# 1 183.2492 33.0292 16.9499 0.0000 0.0000 0.0000
# 2 33.0292 105.5955 28.9813 0.0000 0.0000 0.0000
# 3 16.9499 28.9813 92.7815 0.0000 0.0000 0.0000
# 4 0.0000 0.0000 0.0000 40.1061 0.0000 0.0000
# 5 0.0000 0.0000 0.0000 0.0000 56.6294 0.0000
# 6 0.0000 0.0000 0.0000 0.0000 0.0000 18.6902
#
#
#
# Elastic Compliance Matrix: (Units=1/GPa)
#
#
# Indices 1 2 3 4 5 6 
#
# 1 0.005808 -0.001668 -0.000540 0.000000 0.000000 0.000000
# 2 -0.001668 0.010837 -0.003080 0.000000 0.000000 0.000000
# 3 -0.000540 -0.003080 0.011839 0.000000 0.000000 0.000000
# 4 0.000000 0.000000 0.000000 0.024934 0.000000 0.000000
# 5 0.000000 0.000000 0.000000 0.000000 0.017659 0.000000
# 6 0.000000 0.000000 0.000000 0.000000 0.000000 0.053504
#
#
# Mechanical properties :
#
#
# Convention : Reuss Voigt Hill
#
# Bulk Modulus (GPa) = 55.84524 59.94968 57.89746
# Shear Modulus (GPa) = 35.42916 43.26287 39.34601
#
# Velocity S-wave (km/s) = 3.55286 3.92604 3.74410
# Velocity P-wave (km/s) = 6.06029 6.47385 6.27048
#
# Compressibility (1/GPa) = 0.01790663
#
# Stress axis : x y z
#
# Youngs Moduli (GPa) = 172.18510 92.27306 84.46787
#
# Poissons Ratio (x) = 0.15395 0.04560
# Poissons Ratio (y) = 0.28728 0.26019
# Poissons Ratio (z) = 0.09295 0.28424
#
# Static dielectric constant tensor:
#      x y z
#    x 2.006380 0.000000 0.000000 
#    y 0.000000 2.458650 0.000000 
#    z 0.000000 0.000000 2.219690 
# 
# From -- ./inp_files/4404.got.cif
#   From: 2010.05.17/outbox.cif.g08.bks.cpg/sg73_3_cif.got.tgz:4404.got - 2010.06.03 17:35:07.
