data_PCOD9533049
_publ_section_title
;
Structure prediction by ZEFSAII (Michael W. Deem and Ramdas Pophale) SiO2 
 PCOD9533049
Probable space group: I B C A 
;
_chemical_formula_sum "Si O2"
_cell_formula_units_Z 72
_cell_length_a 11.523957
_cell_length_b 25.916522
_cell_length_c 10.910241
_cell_angle_alpha 90.000000
_cell_angle_beta 90.000000
_cell_angle_gamma 90.000000
_cell_volume 3258.462234
_symmetry_space_group_name_H-M "I B C A "
_symmetry_group_IT_number 73
_symmetry_cell_setting 'orthorhombic'
loop_
_space_group_symop_operation_xyz
x,y,z
-x,1/2-y,z
x,-y,1/2-z
1/2-x,y,-z
-x,-y,-z
x,1/2+y,-z
-x,y,1/2+z
1/2+x,-y,z
1/2+x,1/2+y,1/2+z
1/2-x,-y,1/2+z
1/2+x,1/2-y,-z
-x,1/2+y,1/2-z
1/2-x,1/2-y,1/2-z
1/2+x,y,1/2-z
1/2-x,1/2+y,z
x,1/2-y,1/2+z
loop_
_atom_site_type_symbol
_atom_site_label
_atom_site_fract_x
_atom_site_fract_y
_atom_site_fract_z
Si Si1 0.447184 0.973697 0.875422
Si Si2 0.101401 0.884479 0.617913
Si Si3 0.773046 0.193158 0.196269
Si Si4 0.250000 0.024853 0.000000
Si Si5 0.945008 0.695249 0.029305
O O1 0.482100 0.914900 0.850976
O O2 0.486022 0.000000 0.750000
O O3 0.500000 0.000000 0.000000
O O4 0.313959 0.987675 0.903311
O O5 0.176264 0.850027 0.711267
O O6 0.173389 0.933675 0.573940
O O7 0.052558 0.844106 0.518578
O O8 0.750000 0.250000 0.250000
O O9 0.651884 0.179638 0.129670
O O10 0.873663 0.199181 0.095201
O O11 0.000000 0.750000 0.064544
#
# Coordination Sequence:
#
# PCOD9533049 Si02
#       5
#    16  16  16   8  16
#     4  10  25  49  74 109 145 194 251 316 376 450
#     4  11  26  45  76  99 146 195 238 307 376 441
#     4  11  26  44  69 106 143 193 244 301 366 452
#     4  10  26  46  74 108 148 190 256 310 378 456
#     4  11  26  44  69 105 146 188 247 298 367 455
#
# _framework density 22.096312000000001
#
# number of rings (size 3 to 8) (size 9 to 14) (size 15 to 20)
#    0.000    1.333    2.222    0.000   15.556    5.333 
#    0.000    0.000    0.000    0.000    0.000    0.000 
#    0.000    0.000    0.000    0.000    0.000    0.000 
#
# Total GULP energy -200462.984843 kJ/mol
# GULP energy per Si atom -5568.416246 kJ/mol
# Density = 2.204602 g / cm^3
# Si number density = 22.096312 Si / 1000 Ang^3
#
#
#
# Elastic Constant Matrix: (Units=GPa)
#
#
# Indices 1 2 3 4 5 6 
#
# 1 97.1159 51.9905 38.2929 0.0002 0.0005 0.0030
# 2 51.9905 127.1831 35.6514 0.0003 0.0005 0.0034
# 3 38.2929 35.6514 98.3750 0.0003 0.0012 0.0034
# 4 0.0002 0.0003 0.0003 40.1680 0.0003 0.0014
# 5 0.0005 0.0005 0.0012 0.0003 22.3286 0.0027
# 6 0.0030 0.0034 0.0034 0.0014 0.0027 42.9951
#
#
#
# Elastic Compliance Matrix: (Units=1/GPa)
#
#
# Indices 1 2 3 4 5 6 
#
# 1 0.014389 -0.004800 -0.003862 0.000000 0.000000 0.000000
# 2 -0.004800 0.010353 -0.001884 0.000000 0.000000 0.000000
# 3 -0.003862 -0.001884 0.012351 0.000000 -0.000001 -0.000001
# 4 0.000000 0.000000 0.000000 0.024895 0.000000 -0.000001
# 5 0.000000 0.000000 -0.000001 0.000000 0.044786 -0.000003
# 6 0.000000 0.000000 -0.000001 -0.000001 -0.000003 0.023258
#
#
# Mechanical properties :
#
#
# Convention : Reuss Voigt Hill
#
# Bulk Modulus (GPa) = 62.48776 63.83816 63.16296
# Shear Modulus (GPa) = 31.95786 34.21429 33.08607
#
# Velocity S-wave (km/s) = 3.80715 3.93926 3.87377
# Velocity P-wave (km/s) = 6.90413 7.04585 6.97535
#
# Compressibility (1/GPa) = 0.01600313
#
# Stress axis : x y z
#
# Youngs Moduli (GPa) = 69.49739 96.59357 80.96534
#
# Poissons Ratio (x) = 0.46360 0.31266
# Poissons Ratio (y) = 0.33356 0.15251
# Poissons Ratio (z) = 0.26837 0.18194
#
# Static dielectric constant tensor:
#      x y z
#    x -18.042450 -0.000080 -0.000030 
#    y -0.000080 1.967680 0.000000 
#    z -0.000030 0.000000 1.804890 
# 
# From -- ./inp_files/9677.got.cif
#   From: 2010.05.17/outbox.cif.g08.bks.cpg/sg73_5_cif.got.tgz:9677.got - 2010.06.03 17:35:07.
