data_PCOD9533972
_publ_section_title
;
Structure prediction by ZEFSAII (Michael W. Deem and Ramdas Pophale) SiO2 
 PCOD9533972
Probable space group: I M M A
;
_chemical_formula_sum "Si O2"
_cell_formula_units_Z 72
_cell_length_a 14.748371
_cell_length_b 8.025591
_cell_length_c 32.870689
_cell_angle_alpha 90.000000
_cell_angle_beta 90.000000
_cell_angle_gamma 90.000000
_cell_volume 3890.719169
_symmetry_space_group_name_H-M "I M M A"
_symmetry_group_IT_number 74
_symmetry_cell_setting 'orthorhombic'
loop_
_space_group_symop_operation_xyz
x,y,z
-x,1/2-y,z
x,-y,-z
-x,1/2+y,-z
-x,-y,-z
x,1/2+y,-z
-x,y,z
x,1/2-y,z
1/2+x,1/2+y,1/2+z
1/2-x,-y,1/2+z
1/2+x,1/2-y,1/2-z
1/2-x,y,1/2-z
1/2-x,1/2-y,1/2-z
1/2+x,y,1/2-z
1/2-x,1/2+y,1/2+z
1/2+x,-y,1/2+z
loop_
_atom_site_type_symbol
_atom_site_label
_atom_site_fract_x
_atom_site_fract_y
_atom_site_fract_z
Si Si1 0.000000 0.549015 0.046921
Si Si2 0.194472 0.450009 0.132017
Si Si3 0.000000 0.046219 0.166287
Si Si4 0.500000 0.449530 0.239019
Si Si5 0.800517 0.941381 0.953104
Si Si6 0.695571 0.551745 0.210527
O O1 0.906442 0.465047 0.059299
O O2 0.000000 0.750000 0.052436
O O3 0.000000 0.500000 0.000000
O O4 0.185913 0.250000 0.127338
O O5 0.237191 0.516940 0.089216
O O6 0.260518 0.482292 0.169641
O O7 0.093597 0.512954 0.145247
O O8 0.000000 0.250000 0.165040
O O9 0.000000 0.994667 0.213613
O O10 0.500000 0.250000 0.239467
O O11 0.590776 0.510103 0.217207
O O12 0.774227 0.750000 0.955348
O O13 0.788583 0.000000 0.000000
O O14 0.706996 0.750000 0.209352
O O15 0.750000 0.485698 0.250000
#
# Coordination Sequence:
#
# PCOD9533972 Si02
#       6
#     8  16   8   8  16  16
#     4  10  17  26  42  63  93 133 174 213 258 311
#     4  10  20  35  54  77 104 142 188 224 260 314
#     4   9  17  30  51  76 102 137 184 227 256 297
#     4  11  21  36  60  79 102 144 185 219 259 315
#     4  10  19  31  48  69  99 135 176 223 265 312
#     4  11  23  37  54  80 113 141 171 220 274 319
#
# _framework density 18.505578
#
# number of rings (size 3 to 8) (size 9 to 14) (size 15 to 20)
#    0.000    1.778    2.222    4.667    0.000    4.444 
#    0.000    0.556    0.000    0.000    0.000    0.778 
#    0.000    0.000    0.000    0.000    0.000    0.000 
#
# Total GULP energy -200434.697142 kJ/mol
# GULP energy per Si atom -5567.630476 kJ/mol
# Density = 1.846346 g / cm^3
# Si number density = 18.505578 Si / 1000 Ang^3
#
#
#
# Elastic Constant Matrix: (Units=GPa)
#
#
# Indices 1 2 3 4 5 6 
#
# 1 81.1284 -2.2717 58.8716 0.0000 0.0000 0.0000
# 2 -2.2717 23.0929 13.2586 0.0000 0.0000 0.0000
# 3 58.8716 13.2586 207.4024 0.0000 0.0000 0.0000
# 4 0.0000 0.0000 0.0000 16.4490 0.0000 0.0000
# 5 0.0000 0.0000 0.0000 0.0000 5.6278 0.0000
# 6 0.0000 0.0000 0.0000 0.0000 0.0000 14.5301
#
#
#
# Elastic Compliance Matrix: (Units=1/GPa)
#
#
# Indices 1 2 3 4 5 6 
#
# 1 0.015929 0.004321 -0.004798 0.000000 0.000000 0.000000
# 2 0.004321 0.046126 -0.004175 0.000000 0.000000 0.000000
# 3 -0.004798 -0.004175 0.006450 0.000000 0.000000 0.000000
# 4 0.000000 0.000000 0.000000 0.060794 0.000000 0.000000
# 5 0.000000 0.000000 0.000000 0.000000 0.177688 0.000000
# 6 0.000000 0.000000 0.000000 0.000000 0.000000 0.068822
#
#
# Mechanical properties :
#
#
# Convention : Reuss Voigt Hill
#
# Bulk Modulus (GPa) = 16.89144 50.14898 33.52021
# Shear Modulus (GPa) = 12.35038 23.43907 17.89473
#
# Velocity S-wave (km/s) = 2.58619 3.56279 3.11302
# Velocity P-wave (km/s) = 4.25034 6.63949 5.57441
#
# Compressibility (1/GPa) = 0.05920160
#
# Stress axis : x y z
#
# Youngs Moduli (GPa) = 62.78026 21.67985 155.03214
#
# Poissons Ratio (x) = -0.09369 0.74378
# Poissons Ratio (y) = -0.27130 0.64731
# Poissons Ratio (z) = 0.30120 0.09052
#
# Static dielectric constant tensor:
#      x y z
#    x 1.547360 0.000000 0.000000 
#    y 0.000000 1.655940 0.000000 
#    z 0.000000 0.000000 1.692670 
# 
# From -- ./inp_files/72293.got.cif
#   From: 2010.05.17/outbox.cif.g08.bks.cpg/sg74_37_cif.got.tgz:72293.got - 2010.06.03 17:57:02.
