data_PCOD9533464
_publ_section_title
;
Structure prediction by ZEFSAII (Michael W. Deem and Ramdas Pophale) SiO2 
 PCOD9533464
Probable space group: I B C A 
;
_chemical_formula_sum "Si O2"
_cell_formula_units_Z 88
_cell_length_a 12.400397
_cell_length_b 10.377469
_cell_length_c 28.467363
_cell_angle_alpha 90.000000
_cell_angle_beta 90.000000
_cell_angle_gamma 90.000000
_cell_volume 3663.315077
_symmetry_space_group_name_H-M "I B C A "
_symmetry_group_IT_number 73
_symmetry_cell_setting 'orthorhombic'
loop_
_space_group_symop_operation_xyz
x,y,z
-x,1/2-y,z
x,-y,1/2-z
1/2-x,y,-z
-x,-y,-z
x,1/2+y,-z
-x,y,1/2+z
1/2+x,-y,z
1/2+x,1/2+y,1/2+z
1/2-x,-y,1/2+z
1/2+x,1/2-y,-z
-x,1/2+y,1/2-z
1/2-x,1/2-y,1/2-z
1/2+x,y,1/2-z
1/2-x,1/2+y,z
x,1/2-y,1/2+z
loop_
_atom_site_type_symbol
_atom_site_label
_atom_site_fract_x
_atom_site_fract_y
_atom_site_fract_z
Si Si1 0.444201 0.130261 0.676717
Si Si2 0.231319 0.381584 0.220900
Si Si3 0.000000 0.750000 0.006743
Si Si4 0.676607 0.343466 0.580463
Si Si5 0.366243 0.366154 0.425990
Si Si6 0.957037 0.129784 0.159241
O O1 0.500000 0.250000 0.700800
O O2 0.348033 0.069526 0.705577
O O3 0.390059 0.179584 0.628339
O O4 0.529100 0.019880 0.668594
O O5 0.180300 0.500000 0.250000
O O6 0.250000 0.250000 0.250000
O O7 0.168861 0.354728 0.171917
O O8 0.907319 0.688757 0.038845
O O9 0.937592 0.849964 0.972819
O O10 0.696069 0.497858 0.577324
O O11 0.781700 0.252500 0.576131
O O12 0.500000 0.250000 0.310103
O O13 0.455355 0.361051 0.384131
#
# Coordination Sequence:
#
# PCOD9533464 Si02
#       6
#    16  16   8  16  16  16
#     4  11  25  46  73 105 147 196 242 315 382 450
#     4  12  27  46  74 111 144 189 252 311 382 462
#     4  12  24  46  76 114 148 200 266 316 382 446
#     4  11  26  47  72 111 153 201 261 313 382 457
#     4  11  26  46  75 107 152 207 252 320 385 452
#     4  11  24  46  72 105 144 196 246 303 383 452
#
# _framework density 24.021958000000001
#
# number of rings (size 3 to 8) (size 9 to 14) (size 15 to 20)
#    0.000    0.727    1.818    4.364    0.000   14.545 
#    0.000    0.000    0.000    0.000    0.000    0.000 
#    0.000    0.000    0.000    0.000    0.000    0.000 
#
# Total GULP energy -245343.294258 kJ/mol
# GULP energy per Si atom -5575.983960 kJ/mol
# Density = 2.396728 g / cm^3
# Si number density = 24.021958 Si / 1000 Ang^3
#
#
#
# Elastic Constant Matrix: (Units=GPa)
#
#
# Indices 1 2 3 4 5 6 
#
# 1 113.0983 40.4234 64.5511 0.0000 0.0000 0.0000
# 2 40.4234 152.4943 32.4051 0.0000 0.0000 0.0000
# 3 64.5511 32.4051 132.5575 0.0000 0.0000 0.0000
# 4 0.0000 0.0000 0.0000 14.5318 0.0000 0.0000
# 5 0.0000 0.0000 0.0000 0.0000 31.5677 0.0000
# 6 0.0000 0.0000 0.0000 0.0000 0.0000 39.2522
#
#
#
# Elastic Compliance Matrix: (Units=1/GPa)
#
#
# Indices 1 2 3 4 5 6 
#
# 1 0.012909 -0.002200 -0.005748 0.000000 0.000000 0.000000
# 2 -0.002200 0.007292 -0.000711 0.000000 0.000000 0.000000
# 3 -0.005748 -0.000711 0.010517 0.000000 0.000000 0.000000
# 4 0.000000 0.000000 0.000000 0.068814 0.000000 0.000000
# 5 0.000000 0.000000 0.000000 0.000000 0.031678 0.000000
# 6 0.000000 0.000000 0.000000 0.000000 0.000000 0.025476
#
#
# Mechanical properties :
#
#
# Convention : Reuss Voigt Hill
#
# Bulk Modulus (GPa) = 74.63596 74.76771 74.70183
# Shear Modulus (GPa) = 28.01541 34.45504 31.23523
#
# Velocity S-wave (km/s) = 3.41873 3.79134 3.60985
# Velocity P-wave (km/s) = 6.83528 7.09634 6.96703
#
# Compressibility (1/GPa) = 0.01339837
#
# Stress axis : x y z
#
# Youngs Moduli (GPa) = 77.46342 137.13614 95.08377
#
# Poissons Ratio (x) = 0.30176 0.54659
# Poissons Ratio (y) = 0.17046 0.06761
# Poissons Ratio (z) = 0.44530 0.09751
#
# Static dielectric constant tensor:
#      x y z
#    x 1.843580 0.000000 0.000000 
#    y 0.000000 1.929930 0.000000 
#    z 0.000000 0.000000 2.002520 
# 
# From -- ./inp_files/33895.got.cif
#   From: 2010.05.17/outbox.cif.g08.bks.cpg/sg73_17_cif.got.tgz:33895.got - 2010.06.03 17:35:07.
