data_PCOD9533969
_publ_section_title
;
Structure prediction by ZEFSAII (Michael W. Deem and Ramdas Pophale) SiO2 
 PCOD9533969
Probable space group: I M M A
;
_chemical_formula_sum "Si O2"
_cell_formula_units_Z 96
_cell_length_a 9.101446
_cell_length_b 27.105437
_cell_length_c 29.671637
_cell_angle_alpha 90.000000
_cell_angle_beta 90.000000
_cell_angle_gamma 90.000000
_cell_volume 7319.953419
_symmetry_space_group_name_H-M "I M M A"
_symmetry_group_IT_number 74
_symmetry_cell_setting 'orthorhombic'
loop_
_space_group_symop_operation_xyz
x,y,z
-x,1/2-y,z
x,-y,-z
-x,1/2+y,-z
-x,-y,-z
x,1/2+y,-z
-x,y,z
x,1/2-y,z
1/2+x,1/2+y,1/2+z
1/2-x,-y,1/2+z
1/2+x,1/2-y,1/2-z
1/2-x,y,1/2-z
1/2-x,1/2-y,1/2-z
1/2+x,y,1/2-z
1/2-x,1/2+y,1/2+z
1/2+x,-y,1/2+z
loop_
_atom_site_type_symbol
_atom_site_label
_atom_site_fract_x
_atom_site_fract_y
_atom_site_fract_z
Si Si1 0.824576 0.652000 0.796837
Si Si2 0.175775 0.306144 0.385533
Si Si3 0.830324 0.450955 0.531675
Si Si4 0.177232 0.100782 0.444837
Si Si5 0.175103 0.465085 0.203868
Si Si6 0.676049 0.991365 0.605634
O O1 0.750000 0.667984 0.750000
O O2 0.758228 0.679800 0.839596
O O3 0.791947 0.593377 0.802353
O O4 0.000000 0.658091 0.794525
O O5 0.209459 0.250000 0.398621
O O6 0.213103 0.346430 0.423587
O O7 0.000000 0.309818 0.377625
O O8 0.825442 0.500000 0.500000
O O9 0.782370 0.408132 0.497173
O O10 0.734454 0.463943 0.574999
O O11 0.000000 0.443525 0.544847
O O12 0.255116 0.058434 0.415503
O O13 0.000000 0.093326 0.442174
O O14 0.250000 0.481685 0.250000
O O15 0.219932 0.492627 0.158104
O O16 0.000000 0.469275 0.208719
O O17 0.500000 0.988277 0.603065
#
# Coordination Sequence:
#
# PCOD9533969 Si02
#       6
#    16  16  16  16  16  16
#     4  10  19  32  45  57  72  94 125 162 202 240
#     4  10  20  32  45  59  73  95 127 162 201 237
#     4   8  15  26  39  57  76  97 121 144 181 226
#     4   9  17  29  42  55  75  98 121 153 188 229
#     4   9  18  28  39  56  76  98 125 154 187 226
#     4  10  17  26  40  60  79  95 120 154 187 221
#
# _framework density 13.114837
#
# number of rings (size 3 to 8) (size 9 to 14) (size 15 to 20)
#    0.000    2.667    1.667    2.000    0.000    5.667 
#    0.000    0.000    0.000    0.000    0.000    0.000 
#    0.000    0.000    0.000    0.000    0.000    0.833 
#
# Total GULP energy -267351.714428 kJ/mol
# GULP energy per Si atom -5569.827384 kJ/mol
# Density = 1.308499 g / cm^3
# Si number density = 13.114837 Si / 1000 Ang^3
#
#
#
# Elastic Constant Matrix: (Units=GPa)
#
#
# Indices 1 2 3 4 5 6 
#
# 1 27.3488 24.1552 42.1843 0.0000 0.0000 0.0000
# 2 24.1552 54.1629 56.4902 0.0000 0.0000 0.0000
# 3 42.1843 56.4902 116.3108 0.0000 0.0000 0.0000
# 4 0.0000 0.0000 0.0000 16.4373 0.0000 0.0000
# 5 0.0000 0.0000 0.0000 0.0000 23.4351 0.0000
# 6 0.0000 0.0000 0.0000 0.0000 0.0000 9.1776
#
#
#
# Elastic Compliance Matrix: (Units=1/GPa)
#
#
# Indices 1 2 3 4 5 6 
#
# 1 0.086610 -0.011883 -0.025641 0.000000 0.000000 0.000000
# 2 -0.011883 0.039046 -0.014654 0.000000 0.000000 0.000000
# 3 -0.025641 -0.014654 0.025015 0.000000 0.000000 0.000000
# 4 0.000000 0.000000 0.000000 0.060837 0.000000 0.000000
# 5 0.000000 0.000000 0.000000 0.000000 0.042671 0.000000
# 6 0.000000 0.000000 0.000000 0.000000 0.000000 0.108961
#
#
# Mechanical properties :
#
#
# Convention : Reuss Voigt Hill
#
# Bulk Modulus (GPa) = 21.59158 49.27574 35.43366
# Shear Modulus (GPa) = 10.35338 14.80953 12.58146
#
# Velocity S-wave (km/s) = 2.81275 3.36403 3.10067
# Velocity P-wave (km/s) = 5.20076 7.26244 6.31629
#
# Compressibility (1/GPa) = 0.04631436
#
# Stress axis : x y z
#
# Youngs Moduli (GPa) = 11.54603 25.61059 39.97675
#
# Poissons Ratio (x) = 0.30433 1.02503
# Poissons Ratio (y) = 0.13720 0.58583
# Poissons Ratio (z) = 0.29605 0.37531
#
# Static dielectric constant tensor:
#      x y z
#    x 1.437620 0.000000 0.000000 
#    y 0.000000 1.419210 0.000000 
#    z 0.000000 0.000000 1.437180 
# 
# From -- ./inp_files/64901.got.cif
#   From: 2010.05.17/outbox.cif.g08.bks.cpg/sg74_33_cif.got.tgz:64901.got - 2010.06.03 17:57:02.
