data_PCOD9533940
_publ_section_title
;
Structure prediction by ZEFSAII (Michael W. Deem and Ramdas Pophale) SiO2 
 PCOD9533940
Probable space group: I M M A
;
_chemical_formula_sum "Si O2"
_cell_formula_units_Z 104
_cell_length_a 13.949269
_cell_length_b 24.176514
_cell_length_c 23.197978
_cell_angle_alpha 90.000000
_cell_angle_beta 90.000000
_cell_angle_gamma 90.000000
_cell_volume 7823.395068
_symmetry_space_group_name_H-M "I M M A"
_symmetry_group_IT_number 74
_symmetry_cell_setting 'orthorhombic'
loop_
_space_group_symop_operation_xyz
x,y,z
-x,1/2-y,z
x,-y,-z
-x,1/2+y,-z
-x,-y,-z
x,1/2+y,-z
-x,y,z
x,1/2-y,z
1/2+x,1/2+y,1/2+z
1/2-x,-y,1/2+z
1/2+x,1/2-y,1/2-z
1/2-x,y,1/2-z
1/2-x,1/2-y,1/2-z
1/2+x,y,1/2-z
1/2-x,1/2+y,1/2+z
1/2+x,-y,1/2+z
loop_
_atom_site_type_symbol
_atom_site_label
_atom_site_fract_x
_atom_site_fract_y
_atom_site_fract_z
Si Si1 0.385055 0.134401 0.995359
Si Si2 0.890726 0.528762 0.563088
Si Si3 0.300059 0.750000 0.025477
Si Si4 0.384116 0.250000 0.845202
Si Si5 0.387017 0.632757 0.350551
Si Si6 0.111526 0.250000 0.913078
Si Si7 0.884913 0.135967 0.715322
Si Si8 0.206647 0.928538 0.385751
O O1 0.500000 0.138621 0.988901
O O2 0.338855 0.194253 0.003071
O O3 0.343295 0.107659 0.936505
O O4 0.365516 0.091774 0.047579
O O5 0.893349 0.500000 0.500000
O O6 0.818425 0.491913 0.600112
O O7 0.000000 0.525400 0.586105
O O8 0.341699 0.750000 0.090943
O O9 0.186134 0.750000 0.034614
O O10 0.500000 0.250000 0.849820
O O11 0.354908 0.304842 0.810895
O O12 0.500000 0.620085 0.356881
O O13 0.371793 0.694475 0.375725
O O14 0.362314 0.632297 0.282716
O O15 0.316988 0.590040 0.382422
O O16 0.000000 0.250000 0.930421
O O17 0.839788 0.089718 0.674609
O O18 0.000000 0.133002 0.710278
#
# Coordination Sequence:
#
# PCOD9533940 Si02
#       8
#    16  16   8   8  16   8  16  16
#     4  10  18  28  42  62  81  95 122 161 207 248
#     4   8  16  28  42  58  76  98 121 156 203 251
#     4  12  18  26  43  63  78 102 128 172 203 229
#     4  10  17  24  36  55  81 104 130 163 202 236
#     4  10  20  30  39  53  77 109 143 173 199 224
#     4  10  19  32  40  48  75 115 146 165 194 231
#     4  10  18  26  38  57  79 104 134 169 201 232
#     4  11  17  27  42  55  75 103 137 163 196 234
#
# _framework density 13.293462
#
# number of rings (size 3 to 8) (size 9 to 14) (size 15 to 20)
#    0.000    2.000    3.077    3.923    0.000    1.846 
#    0.000    2.308    0.000    5.077    0.000    0.000 
#    0.000    0.000    0.000    2.769    0.000    9.538 
#
# Total GULP energy -289928.675620 kJ/mol
# GULP energy per Si atom -5575.551454 kJ/mol
# Density = 1.326321 g / cm^3
# Si number density = 13.293462 Si / 1000 Ang^3
#
#
#
# Elastic Constant Matrix: (Units=GPa)
#
#
# Indices 1 2 3 4 5 6 
#
# 1 77.0135 52.6008 32.1172 0.0000 0.0000 0.0000
# 2 52.6008 101.4609 36.5381 0.0000 0.0000 0.0000
# 3 32.1172 36.5381 27.8684 0.0000 0.0000 0.0000
# 4 0.0000 0.0000 0.0000 14.0997 0.0000 0.0000
# 5 0.0000 0.0000 0.0000 0.0000 15.9517 0.0000
# 6 0.0000 0.0000 0.0000 0.0000 0.0000 19.4990
#
#
#
# Elastic Compliance Matrix: (Units=1/GPa)
#
#
# Indices 1 2 3 4 5 6 
#
# 1 0.026354 -0.005163 -0.023603 0.000000 0.000000 0.000000
# 2 -0.005163 0.019684 -0.019857 0.000000 0.000000 0.000000
# 3 -0.023603 -0.019857 0.089119 0.000000 0.000000 0.000000
# 4 0.000000 0.000000 0.000000 0.070923 0.000000 0.000000
# 5 0.000000 0.000000 0.000000 0.000000 0.062689 0.000000
# 6 0.000000 0.000000 0.000000 0.000000 0.000000 0.051285
#
#
# Mechanical properties :
#
#
# Convention : Reuss Voigt Hill
#
# Bulk Modulus (GPa) = 26.37776 49.87278 38.12527
# Shear Modulus (GPa) = 11.62963 15.58255 13.60609
#
# Velocity S-wave (km/s) = 2.96098 3.42745 3.20272
# Velocity P-wave (km/s) = 5.61921 7.29804 6.51295
#
# Compressibility (1/GPa) = 0.03791072
#
# Stress axis : x y z
#
# Youngs Moduli (GPa) = 37.94427 50.80383 11.22101
#
# Poissons Ratio (x) = 0.26231 0.26485
# Poissons Ratio (y) = 0.19591 0.22281
# Poissons Ratio (z) = 0.89560 1.00880
#
# Static dielectric constant tensor:
#      x y z
#    x 1.470350 0.000000 0.000000 
#    y 0.000000 1.445690 0.000000 
#    z 0.000000 0.000000 1.408880 
# 
# From -- ./inp_files/52386.got.cif
#   From: 2010.05.17/outbox.cif.g08.bks.cpg/sg74_27_cif.got.tgz:52386.got - 2010.06.03 17:57:02.
