data_PCOD9533246
_publ_section_title
;
Structure prediction by ZEFSAII (Michael W. Deem and Ramdas Pophale) SiO2 
 PCOD9533246
Probable space group: I B C A 
;
_chemical_formula_sum "Si O2"
_cell_formula_units_Z 112
_cell_length_a 15.175727
_cell_length_b 12.079373
_cell_length_c 27.360919
_cell_angle_alpha 90.000000
_cell_angle_beta 90.000000
_cell_angle_gamma 90.000000
_cell_volume 5015.619449
_symmetry_space_group_name_H-M "I B C A "
_symmetry_group_IT_number 73
_symmetry_cell_setting 'orthorhombic'
loop_
_space_group_symop_operation_xyz
x,y,z
-x,1/2-y,z
x,-y,1/2-z
1/2-x,y,-z
-x,-y,-z
x,1/2+y,-z
-x,y,1/2+z
1/2+x,-y,z
1/2+x,1/2+y,1/2+z
1/2-x,-y,1/2+z
1/2+x,1/2-y,-z
-x,1/2+y,1/2-z
1/2-x,1/2-y,1/2-z
1/2+x,y,1/2-z
1/2-x,1/2+y,z
x,1/2-y,1/2+z
loop_
_atom_site_type_symbol
_atom_site_label
_atom_site_fract_x
_atom_site_fract_y
_atom_site_fract_z
Si Si1 0.002490 0.118769 0.943715
Si Si2 0.356051 0.959365 0.803276
Si Si3 0.703513 0.374875 0.880682
Si Si4 0.150451 0.967859 0.480811
Si Si5 0.819423 0.666015 0.816646
Si Si6 0.105061 0.540217 0.146608
Si Si7 0.093414 0.733662 0.223190
O O1 0.029935 0.065920 0.892198
O O2 0.000000 0.250000 0.939306
O O3 0.082899 0.085709 0.980232
O O4 0.908012 0.071545 0.961489
O O5 0.254010 0.922892 0.801228
O O6 0.397930 0.838978 0.812417
O O7 0.386297 0.000000 0.750000
O O8 0.357865 0.052993 0.844064
O O9 0.666394 0.386004 0.934948
O O10 0.709182 0.252036 0.858282
O O11 0.800863 0.429657 0.878583
O O12 0.250000 0.994505 0.500000
O O13 0.896249 0.586758 0.836312
O O14 0.840303 0.733399 0.767968
O O15 0.099994 0.621525 0.192980
O O16 0.000000 0.750000 0.247658
#
# Coordination Sequence:
#
# PCOD9533246 Si02
#       7
#    16  16  16  16  16  16  16
#     4  11  27  49  75 106 148 190 237 311 369 435
#     4  11  22  40  68  96 133 179 234 283 346 428
#     4  11  23  42  74 104 133 186 239 295 362 436
#     4  11  26  50  75 108 144 185 250 304 372 444
#     4  11  23  43  68  98 139 185 235 291 352 430
#     4  11  24  43  69 105 140 184 238 291 363 435
#     4  12  25  40  64  95 144 185 232 292 351 425
#
# _framework density 22.330242999999999
#
# number of rings (size 3 to 8) (size 9 to 14) (size 15 to 20)
#    0.000    0.857    4.286    3.000    4.000    5.143 
#    0.000    0.000    0.000    0.000    0.000    0.000 
#    0.000    0.000    0.000    0.000    0.000    0.000 
#
# Total GULP energy -312857.295067 kJ/mol
# GULP energy per Si atom -5586.737412 kJ/mol
# Density = 2.227942 g / cm^3
# Si number density = 22.330243 Si / 1000 Ang^3
#
#
#
# Elastic Constant Matrix: (Units=GPa)
#
#
# Indices 1 2 3 4 5 6 
#
# 1 109.1639 21.5053 35.5959 0.0000 0.0000 0.0000
# 2 21.5053 96.7064 22.2593 0.0000 0.0000 0.0000
# 3 35.5959 22.2593 97.4482 0.0000 0.0000 0.0000
# 4 0.0000 0.0000 0.0000 29.8776 0.0000 0.0000
# 5 0.0000 0.0000 0.0000 0.0000 23.0955 0.0000
# 6 0.0000 0.0000 0.0000 0.0000 0.0000 8.9313
#
#
#
# Elastic Compliance Matrix: (Units=1/GPa)
#
#
# Indices 1 2 3 4 5 6 
#
# 1 0.010615 -0.001549 -0.003523 0.000000 0.000000 0.000000
# 2 -0.001549 0.011141 -0.001979 0.000000 0.000000 0.000000
# 3 -0.003523 -0.001979 0.012001 0.000000 0.000000 0.000000
# 4 0.000000 0.000000 0.000000 0.033470 0.000000 0.000000
# 5 0.000000 0.000000 0.000000 0.000000 0.043298 0.000000
# 6 0.000000 0.000000 0.000000 0.000000 0.000000 0.111966
#
#
# Mechanical properties :
#
#
# Convention : Reuss Voigt Hill
#
# Bulk Modulus (GPa) = 50.88308 51.33772 51.11040
# Shear Modulus (GPa) = 20.56386 27.31141 23.93764
#
# Velocity S-wave (km/s) = 3.03792 3.50103 3.27767
# Velocity P-wave (km/s) = 5.92802 6.27560 6.10428
#
# Compressibility (1/GPa) = 0.01965290
#
# Stress axis : x y z
#
# Youngs Moduli (GPa) = 94.20908 89.76177 83.32719
#
# Poissons Ratio (x) = 0.13908 0.29360
# Poissons Ratio (y) = 0.14597 0.16488
# Poissons Ratio (z) = 0.33194 0.17762
#
# Static dielectric constant tensor:
#      x y z
#    x 1.917300 0.000000 0.000000 
#    y 0.000000 1.781840 0.000000 
#    z 0.000000 0.000000 1.806470 
# 
# From -- ./inp_files/34307.got.cif
#   From: 2010.05.17/outbox.cif.g08.bks.cpg/sg73_18_cif.got.tgz:34307.got - 2010.06.03 17:35:07.
