data_PCOD9533548
_publ_section_title
;
Structure prediction by ZEFSAII (Michael W. Deem and Ramdas Pophale) SiO2 
 PCOD9533548
Probable space group: I B C A 
;
_chemical_formula_sum "Si O2"
_cell_formula_units_Z 80
_cell_length_a 10.263853
_cell_length_b 14.557806
_cell_length_c 23.085729
_cell_angle_alpha 90.000000
_cell_angle_beta 90.000000
_cell_angle_gamma 90.000000
_cell_volume 3449.450715
_symmetry_space_group_name_H-M "I B C A "
_symmetry_group_IT_number 73
_symmetry_cell_setting 'orthorhombic'
loop_
_space_group_symop_operation_xyz
x,y,z
-x,1/2-y,z
x,-y,1/2-z
1/2-x,y,-z
-x,-y,-z
x,1/2+y,-z
-x,y,1/2+z
1/2+x,-y,z
1/2+x,1/2+y,1/2+z
1/2-x,-y,1/2+z
1/2+x,1/2-y,-z
-x,1/2+y,1/2-z
1/2-x,1/2-y,1/2-z
1/2+x,y,1/2-z
1/2-x,1/2+y,z
x,1/2-y,1/2+z
loop_
_atom_site_type_symbol
_atom_site_label
_atom_site_fract_x
_atom_site_fract_y
_atom_site_fract_z
Si Si1 0.649694 0.713473 0.056049
Si Si2 0.786147 0.734824 0.181127
Si Si3 0.631127 0.025396 0.185420
Si Si4 0.626431 0.501703 0.463096
Si Si5 0.128467 0.920321 0.648823
O O1 0.500000 0.750000 0.046051
O O2 0.696269 0.745764 0.121622
O O3 0.647191 0.601767 0.060506
O O4 0.750000 0.732690 0.000000
O O5 0.750000 0.750000 0.250000
O O6 0.837085 0.631585 0.175528
O O7 0.881303 0.820854 0.174819
O O8 0.477293 0.011968 0.177190
O O9 0.668512 0.000000 0.250000
O O10 0.726073 0.961071 0.149156
O O11 0.750000 0.527871 0.500000
O O12 0.500000 0.500000 0.500000
O O13 0.593711 0.579816 0.417371
#
# Coordination Sequence:
#
# PCOD9533548 Si02
#       5
#    16  16  16  16  16
#     4  11  29  50  79 116 161 205 273 337 410 490
#     4  12  28  49  77 119 158 212 266 331 408 488
#     4  12  26  49  74 112 153 199 256 320 397 476
#     4  11  26  47  76 109 148 201 260 316 397 473
#     4  12  27  47  78 108 155 200 259 330 392 475
#
# _framework density 23.1921
#
# number of rings (size 3 to 8) (size 9 to 14) (size 15 to 20)
#    0.000    0.400    4.000    2.400   11.200    1.600 
#    0.000    0.000    0.000    0.000    0.000    0.000 
#    0.000    0.000    0.000    0.000    0.000    0.000 
#
# Total GULP energy -222914.753372 kJ/mol
# GULP energy per Si atom -5572.868834 kJ/mol
# Density = 2.313931 g / cm^3
# Si number density = 23.192100 Si / 1000 Ang^3
#
#
#
# Elastic Constant Matrix: (Units=GPa)
#
#
# Indices 1 2 3 4 5 6 
#
# 1 108.3729 25.1682 49.6568 0.0000 0.0000 0.0000
# 2 25.1682 99.6369 20.2651 0.0000 0.0000 0.0000
# 3 49.6568 20.2651 154.2098 0.0000 0.0000 0.0000
# 4 0.0000 0.0000 0.0000 52.7409 0.0000 0.0000
# 5 0.0000 0.0000 0.0000 0.0000 36.5101 0.0000
# 6 0.0000 0.0000 0.0000 0.0000 0.0000 122.0205
#
#
#
# Elastic Compliance Matrix: (Units=1/GPa)
#
#
# Indices 1 2 3 4 5 6 
#
# 1 0.011261 -0.002165 -0.003342 0.000000 0.000000 0.000000
# 2 -0.002165 0.010728 -0.000713 0.000000 0.000000 0.000000
# 3 -0.003342 -0.000713 0.007654 0.000000 0.000000 0.000000
# 4 0.000000 0.000000 0.000000 0.018961 0.000000 0.000000
# 5 0.000000 0.000000 0.000000 0.000000 0.027390 0.000000
# 6 0.000000 0.000000 0.000000 0.000000 0.000000 0.008195
#
#
# Mechanical properties :
#
#
# Convention : Reuss Voigt Hill
#
# Bulk Modulus (GPa) = 58.12177 61.37775 59.74976
# Shear Modulus (GPa) = 48.84549 60.06292 54.45421
#
# Velocity S-wave (km/s) = 4.59423 5.09453 4.85084
# Velocity P-wave (km/s) = 7.29781 7.81844 7.56261
#
# Compressibility (1/GPa) = 0.01720526
#
# Stress axis : x y z
#
# Youngs Moduli (GPa) = 88.79908 93.21173 130.64378
#
# Poissons Ratio (x) = 0.20180 0.43658
# Poissons Ratio (y) = 0.19224 0.09311
# Poissons Ratio (z) = 0.29674 0.06643
#
# Static dielectric constant tensor:
#      x y z
#    x 1.937760 0.000000 0.000000 
#    y 0.000000 1.907760 0.000000 
#    z 0.000000 0.000000 1.569130 
# 
# From -- ./inp_files/28780.got.cif
#   From: 2010.05.17/outbox.cif.g08.bks.cpg/sg73_15_cif.got.tgz:28780.got - 2010.06.03 17:35:07.
