data_PCOD9533966
_publ_section_title
;
Structure prediction by ZEFSAII (Michael W. Deem and Ramdas Pophale) SiO2 
 PCOD9533966
Probable space group: I M M A
;
_chemical_formula_sum "Si O2"
_cell_formula_units_Z 96
_cell_length_a 34.910059
_cell_length_b 8.027284
_cell_length_c 30.425884
_cell_angle_alpha 90.000000
_cell_angle_beta 90.000000
_cell_angle_gamma 90.000000
_cell_volume 8526.335475
_symmetry_space_group_name_H-M "I M M A"
_symmetry_group_IT_number 74
_symmetry_cell_setting 'orthorhombic'
loop_
_space_group_symop_operation_xyz
x,y,z
-x,1/2-y,z
x,-y,-z
-x,1/2+y,-z
-x,-y,-z
x,1/2+y,-z
-x,y,z
x,1/2-y,z
1/2+x,1/2+y,1/2+z
1/2-x,-y,1/2+z
1/2+x,1/2-y,1/2-z
1/2-x,y,1/2-z
1/2-x,1/2-y,1/2-z
1/2+x,y,1/2-z
1/2-x,1/2+y,1/2+z
1/2+x,-y,1/2+z
loop_
_atom_site_type_symbol
_atom_site_label
_atom_site_fract_x
_atom_site_fract_y
_atom_site_fract_z
Si Si1 0.686811 0.250000 0.264074
Si Si2 0.237652 0.059841 0.871197
Si Si3 0.765734 0.750000 0.678388
Si Si4 0.043594 0.548918 0.950420
Si Si5 0.339998 0.933893 0.312189
Si Si6 0.113361 0.053807 0.107583
Si Si7 0.315309 0.448511 0.550225
O O1 0.725977 0.250000 0.293356
O O2 0.700504 0.250000 0.213923
O O3 0.663944 0.415085 0.278290
O O4 0.252832 0.250000 0.871499
O O5 0.199302 0.063343 0.840858
O O6 0.221362 0.012865 0.919223
O O7 0.264163 0.916810 0.850975
O O8 0.043451 0.750000 0.948553
O O9 0.074675 0.489712 0.915215
O O10 0.000000 0.489646 0.942993
O O11 0.054815 0.500000 0.000000
O O12 0.343471 0.750000 0.292339
O O13 0.373112 0.964896 0.348012
O O14 0.109461 0.250000 0.117181
O O15 0.147670 0.032370 0.072365
O O16 0.310756 0.500000 0.500000
O O17 0.321130 0.250000 0.553287
#
# Coordination Sequence:
#
# PCOD9533966 Si02
#       7
#     8  16   8  16  16  16  16
#     4   9  16  26  36  56  65  82 108 120 155 188
#     4   8  16  26  34  48  66  85 105 128 156 184
#     4   9  16  24  40  48  66  88 102 126 150 193
#     4   9  18  29  38  49  65  84 107 136 165 198
#     4   9  16  26  38  51  69  83 100 129 155 190
#     4  10  17  26  39  50  65  85 105 133 168 203
#     4  10  19  26  35  50  65  83 109 137 164 196
#
# _framework density 11.259233
#
# number of rings (size 3 to 8) (size 9 to 14) (size 15 to 20)
#    0.000    2.833    0.833    2.500    4.667    3.333 
#    0.000    3.333    0.000    0.000    0.000    0.000 
#    0.000    0.000    0.000    0.000    0.000    0.000 
#
# Total GULP energy -267271.456389 kJ/mol
# GULP energy per Si atom -5568.155341 kJ/mol
# Density = 1.123361 g / cm^3
# Si number density = 11.259233 Si / 1000 Ang^3
#
#
#
# Elastic Constant Matrix: (Units=GPa)
#
#
# Indices 1 2 3 4 5 6 
#
# 1 33.6829 23.7820 27.5686 0.0000 0.0000 0.0000
# 2 23.7820 59.6162 25.9006 0.0000 0.0000 0.0000
# 3 27.5686 25.9006 38.8627 0.0000 0.0000 0.0000
# 4 0.0000 0.0000 0.0000 13.1330 0.0000 0.0000
# 5 0.0000 0.0000 0.0000 0.0000 18.7647 0.0000
# 6 0.0000 0.0000 0.0000 0.0000 0.0000 6.1072
#
#
#
# Elastic Compliance Matrix: (Units=1/GPa)
#
#
# Indices 1 2 3 4 5 6 
#
# 1 0.074430 -0.009504 -0.046465 0.000000 0.000000 0.000000
# 2 -0.009504 0.024824 -0.009802 0.000000 0.000000 0.000000
# 3 -0.046465 -0.009802 0.065226 0.000000 0.000000 0.000000
# 4 0.000000 0.000000 0.000000 0.076144 0.000000 0.000000
# 5 0.000000 0.000000 0.000000 0.000000 0.053291 0.000000
# 6 0.000000 0.000000 0.000000 0.000000 0.000000 0.163741
#
#
# Mechanical properties :
#
#
# Convention : Reuss Voigt Hill
#
# Bulk Modulus (GPa) = 30.36120 31.85158 31.10639
# Shear Modulus (GPa) = 8.33086 11.26169 9.79628
#
# Velocity S-wave (km/s) = 2.72309 3.16605 2.95289
# Velocity P-wave (km/s) = 6.07545 6.45879 6.27005
#
# Compressibility (1/GPa) = 0.03293678
#
# Stress axis : x y z
#
# Youngs Moduli (GPa) = 13.43546 40.28363 15.33132
#
# Poissons Ratio (x) = 0.38287 0.71237
# Poissons Ratio (y) = 0.12770 0.15028
# Poissons Ratio (z) = 0.62428 0.39486
#
# Static dielectric constant tensor:
#      x y z
#    x 1.345750 0.000000 0.000000 
#    y 0.000000 1.400820 0.000000 
#    z 0.000000 0.000000 1.352010 
# 
# From -- ./inp_files/74004.got.cif
#   From: 2010.05.17/outbox.cif.g08.bks.cpg/sg74_38_cif.got.tgz:74004.got - 2010.06.03 17:57:02.
