data_PCOD9533797
_publ_section_title
;
Structure prediction by ZEFSAII (Michael W. Deem and Ramdas Pophale) SiO2 
 PCOD9533797
Probable space group: I M M A
;
_chemical_formula_sum "Si O2"
_cell_formula_units_Z 104
_cell_length_a 21.265477
_cell_length_b 28.909273
_cell_length_c 7.338948
_cell_angle_alpha 90.000000
_cell_angle_beta 90.000000
_cell_angle_gamma 90.000000
_cell_volume 4511.761246
_symmetry_space_group_name_H-M "I M M A"
_symmetry_group_IT_number 74
_symmetry_cell_setting 'orthorhombic'
loop_
_space_group_symop_operation_xyz
x,y,z
-x,1/2-y,z
x,-y,-z
-x,1/2+y,-z
-x,-y,-z
x,1/2+y,-z
-x,y,z
x,1/2-y,z
1/2+x,1/2+y,1/2+z
1/2-x,-y,1/2+z
1/2+x,1/2-y,1/2-z
1/2-x,y,1/2-z
1/2-x,1/2-y,1/2-z
1/2+x,y,1/2-z
1/2-x,1/2+y,1/2+z
1/2+x,-y,1/2+z
loop_
_atom_site_type_symbol
_atom_site_label
_atom_site_fract_x
_atom_site_fract_y
_atom_site_fract_z
Si Si1 0.615512 0.430126 0.344113
Si Si2 0.725938 0.371182 0.456815
Si Si3 0.926560 0.697298 0.567506
Si Si4 0.500000 0.630296 0.495105
Si Si5 0.115755 0.303505 0.012258
Si Si6 0.427727 0.523512 0.200715
Si Si7 0.637928 0.389413 0.938648
O O1 0.680024 0.415255 0.439917
O O2 0.555533 0.405363 0.431364
O O3 0.604040 0.484190 0.320318
O O4 0.622204 0.408885 0.140705
O O5 0.750000 0.360064 0.250000
O O6 0.680842 0.330134 0.525199
O O7 0.787915 0.382178 0.570678
O O8 0.922941 0.750000 0.502312
O O9 0.893744 0.695296 0.765789
O O10 0.895559 0.660074 0.436562
O O11 0.000000 0.685082 0.599347
O O12 0.444514 0.668397 0.444420
O O13 0.116446 0.250000 0.957064
O O14 0.500000 0.532480 0.252305
O O15 0.428981 0.500000 0.000000
O O16 0.391363 0.571863 0.191037
#
# Coordination Sequence:
#
# PCOD9533797 Si02
#       7
#    16  16  16   8  16  16  16
#     4   9  15  23  34  47  63  86 114 148 188 219
#     4   9  16  24  30  41  64  93 114 151 178 207
#     4  10  16  21  30  43  60  87 118 149 177 197
#     4  10  13  22  33  44  66  82 112 155 183 202
#     4  10  16  20  30  43  59  90 124 150 174 198
#     4   9  16  22  36  51  63  84 114 151 188 221
#     4  10  16  24  31  44  65  91 116 151 180 213
#
# _framework density 23.050865000000002
#
# number of rings (size 3 to 8) (size 9 to 14) (size 15 to 20)
#    0.000    2.462    6.154    0.692    1.077    0.923 
#    0.000    0.000    0.000    0.000    0.000    0.000 
#    0.000    0.000   20.923  144.154    0.000   45.385 
#
# Total GULP energy -289958.605423 kJ/mol
# GULP energy per Si atom -5576.127027 kJ/mol
# Density = 2.299840 g / cm^3
# Si number density = 23.050865 Si / 1000 Ang^3
#
#
#
# Elastic Constant Matrix: (Units=GPa)
#
#
# Indices 1 2 3 4 5 6 
#
# 1 193.2588 104.3988 30.2499 0.0000 0.0000 0.0000
# 2 104.3988 144.3965 39.8891 0.0000 0.0000 0.0000
# 3 30.2499 39.8891 71.4707 0.0000 0.0000 0.0000
# 4 0.0000 0.0000 0.0000 -9.9583 0.0000 0.0000
# 5 0.0000 0.0000 0.0000 0.0000 3.7268 0.0000
# 6 0.0000 0.0000 0.0000 0.0000 0.0000 15.2921
#
#
#
# Elastic Compliance Matrix: (Units=1/GPa)
#
#
# Indices 1 2 3 4 5 6 
#
# 1 0.008493 -0.006086 -0.000198 0.000000 0.000000 0.000000
# 2 -0.006086 0.012548 -0.004428 0.000000 0.000000 0.000000
# 3 -0.000198 -0.004428 0.016547 0.000000 0.000000 0.000000
# 4 0.000000 0.000000 0.000000 -0.100419 0.000000 0.000000
# 5 0.000000 0.000000 0.000000 0.000000 0.268329 0.000000
# 6 0.000000 0.000000 0.000000 0.000000 0.000000 0.065393
#
#
# Mechanical properties :
#
#
# Convention : Reuss Voigt Hill
#
# Bulk Modulus (GPa) = 61.86161 84.24464 73.05312
# Shear Modulus (GPa) = 16.79529 17.45133 17.12331
#
# Velocity S-wave (km/s) = 2.70222 2.75449 2.72848
# Velocity P-wave (km/s) = 6.05238 6.83688 6.45655
#
# Compressibility (1/GPa) = 0.01616511
#
# Stress axis : x y z
#
# Youngs Moduli (GPa) = 117.74550 79.69101 60.43458
#
# Poissons Ratio (x) = 0.48497 0.01197
# Poissons Ratio (y) = 0.71656 0.26759
# Poissons Ratio (z) = 0.02333 0.35285
#
# Static dielectric constant tensor:
#      x y z
#    x 1.781630 0.000000 0.000000 
#    y 0.000000 1.847080 0.000000 
#    z 0.000000 0.000000 2.062260 
# 
# From -- ./inp_files/35747.got.cif
#   From: 2010.05.17/outbox.cif.g08.bks.cpg/sg74_18_cif.got.tgz:35747.got - 2010.06.03 17:57:02.
