data_PCOD9533815
_publ_section_title
;
Structure prediction by ZEFSAII (Michael W. Deem and Ramdas Pophale) SiO2 
 PCOD9533815
Probable space group: I M M A
;
_chemical_formula_sum "Si O2"
_cell_formula_units_Z 104
_cell_length_a 24.068325
_cell_length_b 26.612959
_cell_length_c 7.229153
_cell_angle_alpha 90.000000
_cell_angle_beta 90.000000
_cell_angle_gamma 90.000000
_cell_volume 4630.484646
_symmetry_space_group_name_H-M "I M M A"
_symmetry_group_IT_number 74
_symmetry_cell_setting 'orthorhombic'
loop_
_space_group_symop_operation_xyz
x,y,z
-x,1/2-y,z
x,-y,-z
-x,1/2+y,-z
-x,-y,-z
x,1/2+y,-z
-x,y,z
x,1/2-y,z
1/2+x,1/2+y,1/2+z
1/2-x,-y,1/2+z
1/2+x,1/2-y,1/2-z
1/2-x,y,1/2-z
1/2-x,1/2-y,1/2-z
1/2+x,y,1/2-z
1/2-x,1/2+y,1/2+z
1/2+x,-y,1/2+z
loop_
_atom_site_type_symbol
_atom_site_label
_atom_site_fract_x
_atom_site_fract_y
_atom_site_fract_z
Si Si1 0.859678 0.750000 0.304359
Si Si2 0.782477 0.161553 0.538772
Si Si3 0.847787 0.570215 0.343894
Si Si4 0.682487 0.463927 0.254729
Si Si5 0.062929 0.691017 0.759038
Si Si6 0.935851 0.155124 0.664790
Si Si7 0.670206 0.356708 0.375118
O O1 0.814573 0.793028 0.371220
O O2 0.905589 0.794883 0.263603
O O3 0.798768 0.111010 0.646018
O O4 0.716860 0.166912 0.506208
O O5 0.807880 0.155234 0.332228
O O6 0.845222 0.551308 0.557890
O O7 0.837473 0.521014 0.220295
O O8 0.901542 0.603990 0.299193
O O9 0.750000 0.465278 0.250000
O O10 0.668902 0.416925 0.386717
O O11 0.076351 0.750000 0.726554
O O12 0.065230 0.664135 0.559226
O O13 0.109707 0.666766 0.885671
O O14 0.000000 0.687450 0.828533
O O15 0.000000 0.151708 0.721242
#
# Coordination Sequence:
#
# PCOD9533815 Si02
#       7
#     8  16  16  16  16  16  16
#     4  10  15  23  36  58  82 114 140 156 195 245
#     4   9  16  23  36  58  80 104 135 170 201 241
#     4   9  17  27  39  58  81 104 143 174 202 252
#     4  10  16  28  41  54  75 106 134 178 216 242
#     4  10  17  24  34  51  81 117 142 159 193 251
#     4  10  16  25  36  54  84 116 141 161 191 244
#     4  10  15  25  35  53  78 105 140 171 203 238
#
# _framework density 22.459849999999999
#
# number of rings (size 3 to 8) (size 9 to 14) (size 15 to 20)
#    0.000    2.308    8.462    0.231    1.077    0.615 
#    0.000    2.308    0.000    0.000    0.000    8.615 
#    0.000    4.923    0.000    0.000    8.615    1.077 
#
# Total GULP energy -289529.788405 kJ/mol
# GULP energy per Si atom -5567.880546 kJ/mol
# Density = 2.240873 g / cm^3
# Si number density = 22.459850 Si / 1000 Ang^3
#
#
#
# Elastic Constant Matrix: (Units=GPa)
#
#
# Indices 1 2 3 4 5 6 
#
# 1 143.2204 84.5284 32.0386 0.0000 0.0000 0.0000
# 2 84.5284 164.2933 21.1133 0.0000 0.0000 0.0000
# 3 32.0386 21.1133 61.7653 0.0000 0.0000 0.0000
# 4 0.0000 0.0000 0.0000 -34.8773 0.0000 0.0000
# 5 0.0000 0.0000 0.0000 0.0000 -1.3197 0.0000
# 6 0.0000 0.0000 0.0000 0.0000 0.0000 210.6695
#
#
#
# Elastic Compliance Matrix: (Units=1/GPa)
#
#
# Indices 1 2 3 4 5 6 
#
# 1 0.010853 -0.005084 -0.003892 0.000000 0.000000 0.000000
# 2 -0.005084 0.008748 -0.000353 0.000000 0.000000 0.000000
# 3 -0.003892 -0.000353 0.018330 0.000000 0.000000 0.000000
# 4 0.000000 0.000000 0.000000 -0.028672 0.000000 0.000000
# 5 0.000000 0.000000 0.000000 0.000000 -0.757771 0.000000
# 6 0.000000 0.000000 0.000000 0.000000 0.000000 0.004747
#
#
# Mechanical properties :
#
#
# Convention : Reuss Voigt Hill
#
# Bulk Modulus (GPa) = 51.88625 71.62661 61.75643
# Shear Modulus (GPa) = -6.95717 50.33440 21.68862
#
# Velocity S-wave (km/s) = -1.76191 4.73914 3.11088
# Velocity P-wave (km/s) = 4.36037 7.86805 6.36078
#
# Compressibility (1/GPa) = 0.01927293
#
# Stress axis : x y z
#
# Youngs Moduli (GPa) = 92.13716 114.31579 54.55572
#
# Poissons Ratio (x) = 0.58117 0.21233
# Poissons Ratio (y) = 0.46841 0.01927
# Poissons Ratio (z) = 0.35860 0.04037
#
# Static dielectric constant tensor:
#      x y z
#    x 1.822320 0.000000 0.000000 
#    y 0.000000 1.802300 0.000000 
#    z 0.000000 0.000000 1.967700 
# 
# From -- ./inp_files/25625.got.cif
#   From: 2010.05.17/outbox.cif.g08.bks.cpg/sg74_13_cif.got.tgz:25625.got - 2010.06.03 17:57:02.
