data_PCOD9533902
_publ_section_title
;
Structure prediction by ZEFSAII (Michael W. Deem and Ramdas Pophale) SiO2 
 PCOD9533902
Probable space group: I M M A
;
_chemical_formula_sum "Si O2"
_cell_formula_units_Z 88
_cell_length_a 19.885125
_cell_length_b 9.156823
_cell_length_c 28.341884
_cell_angle_alpha 90.000000
_cell_angle_beta 90.000000
_cell_angle_gamma 90.000000
_cell_volume 5160.619760
_symmetry_space_group_name_H-M "I M M A"
_symmetry_group_IT_number 74
_symmetry_cell_setting 'orthorhombic'
loop_
_space_group_symop_operation_xyz
x,y,z
-x,1/2-y,z
x,-y,-z
-x,1/2+y,-z
-x,-y,-z
x,1/2+y,-z
-x,y,z
x,1/2-y,z
1/2+x,1/2+y,1/2+z
1/2-x,-y,1/2+z
1/2+x,1/2-y,1/2-z
1/2-x,y,1/2-z
1/2-x,1/2-y,1/2-z
1/2+x,y,1/2-z
1/2-x,1/2+y,1/2+z
1/2+x,-y,1/2+z
loop_
_atom_site_type_symbol
_atom_site_label
_atom_site_fract_x
_atom_site_fract_y
_atom_site_fract_z
Si Si1 0.000000 0.079644 0.397753
Si Si2 0.000000 0.007131 0.710103
Si Si3 0.361837 0.074907 0.677165
Si Si4 0.136230 0.427042 0.448786
Si Si5 0.773818 0.925902 0.373758
Si Si6 0.500000 0.084759 0.316248
Si Si7 0.848263 0.414408 0.719081
O O1 0.068429 0.021871 0.421097
O O2 0.000000 0.250000 0.409143
O O3 0.000000 0.064865 0.341347
O O4 0.000000 0.915662 0.758664
O O5 0.928898 0.089577 0.712882
O O6 0.372274 0.250000 0.681528
O O7 0.304047 0.050153 0.639012
O O8 0.336315 0.021377 0.728978
O O9 0.432746 0.998767 0.668239
O O10 0.135749 0.500000 0.500000
O O11 0.137850 0.250000 0.451507
O O12 0.198172 0.488190 0.418324
O O13 0.784699 0.750000 0.379545
O O14 0.815288 0.980277 0.327492
O O15 0.500000 0.250000 0.333103
O O16 0.820729 0.250000 0.720485
#
# Coordination Sequence:
#
# PCOD9533902 Si02
#       7
#     8   8  16  16  16   8  16
#     4  10  20  34  51  69  98 137 180 220 263 302
#     4  10  16  29  46  69 104 140 179 214 258 292
#     4   9  18  32  51  74 105 138 170 207 254 308
#     4  11  23  39  55  74 100 135 176 225 270 312
#     4  10  19  33  53  77 101 132 171 215 262 312
#     4  10  20  31  49  74 107 140 175 213 250 301
#     4   9  16  27  46  73 102 135 175 213 249 297
#
# _framework density 17.052216000000001
#
# number of rings (size 3 to 8) (size 9 to 14) (size 15 to 20)
#    0.000    2.182    1.818    2.182    0.000    5.091 
#    0.000    1.364    0.000    3.273    0.000    0.636 
#    0.000    0.000    0.000    0.000    0.000    0.000 
#
# Total GULP energy -245127.630241 kJ/mol
# GULP energy per Si atom -5571.082505 kJ/mol
# Density = 1.701340 g / cm^3
# Si number density = 17.052216 Si / 1000 Ang^3
#
#
#
# Elastic Constant Matrix: (Units=GPa)
#
#
# Indices 1 2 3 4 5 6 
#
# 1 103.6355 42.6689 55.3086 0.0000 0.0000 0.0000
# 2 42.6689 52.0593 26.0708 0.0000 0.0000 0.0000
# 3 55.3086 26.0708 72.4433 0.0000 0.0000 0.0000
# 4 0.0000 0.0000 0.0000 16.9824 0.0000 0.0000
# 5 0.0000 0.0000 0.0000 0.0000 23.8483 0.0000
# 6 0.0000 0.0000 0.0000 0.0000 0.0000 17.5843
#
#
#
# Elastic Compliance Matrix: (Units=1/GPa)
#
#
# Indices 1 2 3 4 5 6 
#
# 1 0.020298 -0.010827 -0.011600 0.000000 0.000000 0.000000
# 2 -0.010827 0.029207 -0.002245 0.000000 0.000000 0.000000
# 3 -0.011600 -0.002245 0.023468 0.000000 0.000000 0.000000
# 4 0.000000 0.000000 0.000000 0.058884 0.000000 0.000000
# 5 0.000000 0.000000 0.000000 0.000000 0.041932 0.000000
# 6 0.000000 0.000000 0.000000 0.000000 0.000000 0.056869
#
#
# Mechanical properties :
#
#
# Convention : Reuss Voigt Hill
#
# Bulk Modulus (GPa) = 42.32144 52.91497 47.61820
# Shear Modulus (GPa) = 17.36835 18.62232 17.99533
#
# Velocity S-wave (km/s) = 3.19492 3.30824 3.25207
# Velocity P-wave (km/s) = 6.20344 6.75952 6.48744
#
# Compressibility (1/GPa) = 0.02362869
#
# Stress axis : x y z
#
# Youngs Moduli (GPa) = 49.26595 34.23802 42.61049
#
# Poissons Ratio (x) = 0.37070 0.49430
# Poissons Ratio (y) = 0.53342 0.09565
# Poissons Ratio (z) = 0.57151 0.07686
#
# Static dielectric constant tensor:
#      x y z
#    x 1.593460 0.000000 0.000000 
#    y 0.000000 1.586720 0.000000 
#    z 0.000000 0.000000 1.575470 
# 
# From -- ./inp_files/70508.got.cif
#   From: 2010.05.17/outbox.cif.g08.bks.cpg/sg74_36_cif.got.tgz:70508.got - 2010.06.03 17:57:02.
