data_PCOD9533254
_publ_section_title
;
Structure prediction by ZEFSAII (Michael W. Deem and Ramdas Pophale) SiO2 
 PCOD9533254
Probable space group: I B C A 
;
_chemical_formula_sum "Si O2"
_cell_formula_units_Z 96
_cell_length_a 23.450455
_cell_length_b 19.031467
_cell_length_c 11.193361
_cell_angle_alpha 90.000000
_cell_angle_beta 90.000000
_cell_angle_gamma 90.000000
_cell_volume 4995.558514
_symmetry_space_group_name_H-M "I B C A "
_symmetry_group_IT_number 73
_symmetry_cell_setting 'orthorhombic'
loop_
_space_group_symop_operation_xyz
x,y,z
-x,1/2-y,z
x,-y,1/2-z
1/2-x,y,-z
-x,-y,-z
x,1/2+y,-z
-x,y,1/2+z
1/2+x,-y,z
1/2+x,1/2+y,1/2+z
1/2-x,-y,1/2+z
1/2+x,1/2-y,-z
-x,1/2+y,1/2-z
1/2-x,1/2-y,1/2-z
1/2+x,y,1/2-z
1/2-x,1/2+y,z
x,1/2-y,1/2+z
loop_
_atom_site_type_symbol
_atom_site_label
_atom_site_fract_x
_atom_site_fract_y
_atom_site_fract_z
Si Si1 0.308579 0.171630 0.779832
Si Si2 0.394819 0.928887 0.329753
Si Si3 0.359807 0.605578 0.428941
Si Si4 0.181020 0.329581 0.176733
Si Si5 0.518240 0.041963 0.121820
Si Si6 0.813820 0.540798 0.448708
O O1 0.347268 0.167257 0.663073
O O2 0.320085 0.245833 0.842388
O O3 0.243907 0.161236 0.733018
O O4 0.322098 0.106221 0.862759
O O5 0.363228 0.863541 0.269371
O O6 0.461254 0.913927 0.350604
O O7 0.360314 0.949897 0.447577
O O8 0.392343 0.000000 0.250000
O O9 0.333931 0.629406 0.555395
O O10 0.425703 0.584144 0.417893
O O11 0.325344 0.535202 0.392225
O O12 0.529575 0.000000 0.250000
O O13 0.500000 0.000000 0.000000
O O14 0.750000 0.542751 0.500000
#
# Coordination Sequence:
#
# PCOD9533254 Si02
#       6
#    16  16  16  16  16  16
#     4  11  26  39  66  95 135 171 216 271 337 405
#     4  11  22  41  67  94 129 176 221 268 332 400
#     4  12  24  41  67  99 128 166 225 278 327 397
#     4  11  24  45  62  92 136 181 209 267 349 406
#     4  11  22  42  68  99 134 175 222 285 341 394
#     4  12  22  37  67  97 129 162 218 278 325 390
#
# _framework density 19.217071000000001
#
# number of rings (size 3 to 8) (size 9 to 14) (size 15 to 20)
#    0.000    0.667    5.000    4.000    2.333    0.000 
#    0.000    0.833    0.000    0.000    0.000    0.000 
#    0.000    0.000    0.000    0.000    0.000    0.000 
#
# Total GULP energy -267839.225749 kJ/mol
# GULP energy per Si atom -5579.983870 kJ/mol
# Density = 1.917333 g / cm^3
# Si number density = 19.217071 Si / 1000 Ang^3
#
#
#
# Elastic Constant Matrix: (Units=GPa)
#
#
# Indices 1 2 3 4 5 6 
#
# 1 57.9330 22.5694 6.0474 0.0000 0.0000 0.0000
# 2 22.5694 96.3622 36.4288 0.0000 0.0000 0.0000
# 3 6.0474 36.4288 72.3629 0.0000 0.0000 0.0000
# 4 0.0000 0.0000 0.0000 28.0677 0.0000 0.0000
# 5 0.0000 0.0000 0.0000 0.0000 27.0621 0.0000
# 6 0.0000 0.0000 0.0000 0.0000 0.0000 13.1559
#
#
#
# Elastic Compliance Matrix: (Units=1/GPa)
#
#
# Indices 1 2 3 4 5 6 
#
# 1 0.019033 -0.004763 0.000807 0.000000 0.000000 0.000000
# 2 -0.004763 0.014009 -0.006654 0.000000 0.000000 0.000000
# 3 0.000807 -0.006654 0.017102 0.000000 0.000000 0.000000
# 4 0.000000 0.000000 0.000000 0.035628 0.000000 0.000000
# 5 0.000000 0.000000 0.000000 0.000000 0.036952 0.000000
# 6 0.000000 0.000000 0.000000 0.000000 0.000000 0.076012
#
#
# Mechanical properties :
#
#
# Convention : Reuss Voigt Hill
#
# Bulk Modulus (GPa) = 34.57449 39.63882 37.10665
# Shear Modulus (GPa) = 21.77746 24.43130 23.10438
#
# Velocity S-wave (km/s) = 3.37001 3.56944 3.47116
# Velocity P-wave (km/s) = 5.75962 6.13674 5.95117
#
# Compressibility (1/GPa) = 0.02892306
#
# Stress axis : x y z
#
# Youngs Moduli (GPa) = 52.54152 71.38483 58.47403
#
# Poissons Ratio (x) = 0.33999 -0.04720
# Poissons Ratio (y) = 0.25025 0.38909
# Poissons Ratio (z) = -0.04241 0.47500
#
# Static dielectric constant tensor:
#      x y z
#    x 1.660510 0.000000 0.000000 
#    y 0.000000 1.665150 0.000000 
#    z 0.000000 0.000000 1.666280 
# 
# From -- ./inp_files/13621.got.cif
#   From: 2010.05.17/outbox.cif.g08.bks.cpg/sg73_7_cif.got.tgz:13621.got - 2010.06.03 17:35:07.
