data_PCOD9533928
_publ_section_title
;
Structure prediction by ZEFSAII (Michael W. Deem and Ramdas Pophale) SiO2 
 PCOD9533928
Probable space group: I M M A
;
_chemical_formula_sum "Si O2"
_cell_formula_units_Z 120
_cell_length_a 9.194259
_cell_length_b 29.406807
_cell_length_c 25.140807
_cell_angle_alpha 90.000000
_cell_angle_beta 90.000000
_cell_angle_gamma 90.000000
_cell_volume 6797.415522
_symmetry_space_group_name_H-M "I M M A"
_symmetry_group_IT_number 74
_symmetry_cell_setting 'orthorhombic'
loop_
_space_group_symop_operation_xyz
x,y,z
-x,1/2-y,z
x,-y,-z
-x,1/2+y,-z
-x,-y,-z
x,1/2+y,-z
-x,y,z
x,1/2-y,z
1/2+x,1/2+y,1/2+z
1/2-x,-y,1/2+z
1/2+x,1/2-y,1/2-z
1/2-x,y,1/2-z
1/2-x,1/2-y,1/2-z
1/2+x,y,1/2-z
1/2-x,1/2+y,1/2+z
1/2+x,-y,1/2+z
loop_
_atom_site_type_symbol
_atom_site_label
_atom_site_fract_x
_atom_site_fract_y
_atom_site_fract_z
Si Si1 0.327668 0.945861 0.193828
Si Si2 0.662145 0.030686 0.115972
Si Si3 0.250653 0.500000 0.000000
Si Si4 0.675942 0.368326 0.624211
Si Si5 0.832445 0.304466 0.696690
Si Si6 0.824690 0.802933 0.806663
Si Si7 0.832279 0.396262 0.991157
Si Si8 0.175392 0.878220 0.892813
O O1 0.500000 0.936277 0.200035
O O2 0.250000 0.952264 0.250000
O O3 0.245482 0.906070 0.162501
O O4 0.313520 0.990715 0.157732
O O5 0.500000 0.049436 0.122942
O O6 0.773580 0.071691 0.124458
O O7 0.671137 0.009604 0.056331
O O8 0.171638 0.451421 0.992135
O O9 0.500000 0.369641 0.626583
O O10 0.740781 0.321828 0.646791
O O11 0.729104 0.378864 0.564438
O O12 0.834552 0.250000 0.697946
O O13 0.750000 0.320650 0.750000
O O14 0.000000 0.320388 0.695647
O O15 0.791393 0.750000 0.820005
O O16 0.750000 0.813217 0.750000
O O17 0.778482 0.838285 0.852731
O O18 0.000000 0.806426 0.800928
O O19 0.000000 0.382220 0.990816
O O20 0.768296 0.376414 0.045957
O O21 0.000000 0.877308 0.894363
#
# Coordination Sequence:
#
# PCOD9533928 Si02
#       8
#    16  16   8  16  16  16  16  16
#     4  11  23  38  52  74 106 144 182 220 267 320
#     4  10  21  34  52  77 106 139 178 222 268 318
#     4  10  16  34  54  76 103 138 185 224 265 310
#     4  11  21  35  55  81 109 140 178 222 270 318
#     4  10  21  38  59  81 105 137 177 222 272 324
#     4   9  18  34  57  82 107 138 177 220 267 321
#     4   9  18  31  52  80 108 140 180 222 265 314
#     4   9  19  35  54  78 108 141 178 219 266 319
#
# _framework density 17.653769
#
# number of rings (size 3 to 8) (size 9 to 14) (size 15 to 20)
#    0.000    2.133    1.333    2.000    0.000    3.467 
#    0.000    4.000    0.000    2.400    0.000    1.867 
#    0.000    0.000    0.000    0.000    0.000    0.000 
#
# Total GULP energy -334288.139606 kJ/mol
# GULP energy per Si atom -5571.468993 kJ/mol
# Density = 1.761359 g / cm^3
# Si number density = 17.653769 Si / 1000 Ang^3
#
#
#
# Elastic Constant Matrix: (Units=GPa)
#
#
# Indices 1 2 3 4 5 6 
#
# 1 63.9420 29.0586 42.5548 0.0000 0.0000 0.0000
# 2 29.0586 72.7391 63.1442 0.0000 0.0000 0.0000
# 3 42.5548 63.1442 134.4901 0.0000 0.0000 0.0000
# 4 0.0000 0.0000 0.0000 31.6416 0.0000 0.0000
# 5 0.0000 0.0000 0.0000 0.0000 20.6701 0.0000
# 6 0.0000 0.0000 0.0000 0.0000 0.0000 21.7796
#
#
#
# Elastic Compliance Matrix: (Units=1/GPa)
#
#
# Indices 1 2 3 4 5 6 
#
# 1 0.020591 -0.004338 -0.004479 0.000000 0.000000 0.000000
# 2 -0.004338 0.024120 -0.009952 0.000000 0.000000 0.000000
# 3 -0.004479 -0.009952 0.013525 0.000000 0.000000 0.000000
# 4 0.000000 0.000000 0.000000 0.031604 0.000000 0.000000
# 5 0.000000 0.000000 0.000000 0.000000 0.048379 0.000000
# 6 0.000000 0.000000 0.000000 0.000000 0.000000 0.045914
#
#
# Mechanical properties :
#
#
# Convention : Reuss Voigt Hill
#
# Bulk Modulus (GPa) = 48.31142 60.07626 54.19384
# Shear Modulus (GPa) = 21.87507 23.91249 22.89378
#
# Velocity S-wave (km/s) = 3.52393 3.68438 3.60505
# Velocity P-wave (km/s) = 6.63196 7.22521 6.93493
#
# Compressibility (1/GPa) = 0.02069904
#
# Stress axis : x y z
#
# Youngs Moduli (GPa) = 48.56425 41.45952 73.93686
#
# Poissons Ratio (x) = 0.17986 0.33113
# Poissons Ratio (y) = 0.21068 0.73581
# Poissons Ratio (z) = 0.21750 0.41260
#
# Static dielectric constant tensor:
#      x y z
#    x 1.609120 0.000000 0.000000 
#    y 0.000000 1.603170 0.000000 
#    z 0.000000 0.000000 1.615960 
# 
# From -- ./inp_files/65116.got.cif
#   From: 2010.05.17/outbox.cif.g08.bks.cpg/sg74_33_cif.got.tgz:65116.got - 2010.06.03 17:57:02.
