data_PCOD9533921
_publ_section_title
;
Structure prediction by ZEFSAII (Michael W. Deem and Ramdas Pophale) SiO2 
 PCOD9533921
Probable space group: I M M A
;
_chemical_formula_sum "Si O2"
_cell_formula_units_Z 88
_cell_length_a 15.087323
_cell_length_b 27.357070
_cell_length_c 11.108419
_cell_angle_alpha 90.000000
_cell_angle_beta 90.000000
_cell_angle_gamma 90.000000
_cell_volume 4584.943861
_symmetry_space_group_name_H-M "I M M A"
_symmetry_group_IT_number 74
_symmetry_cell_setting 'orthorhombic'
loop_
_space_group_symop_operation_xyz
x,y,z
-x,1/2-y,z
x,-y,-z
-x,1/2+y,-z
-x,-y,-z
x,1/2+y,-z
-x,y,z
x,1/2-y,z
1/2+x,1/2+y,1/2+z
1/2-x,-y,1/2+z
1/2+x,1/2-y,1/2-z
1/2-x,y,1/2-z
1/2-x,1/2-y,1/2-z
1/2+x,y,1/2-z
1/2-x,1/2+y,1/2+z
1/2+x,-y,1/2+z
loop_
_atom_site_type_symbol
_atom_site_label
_atom_site_fract_x
_atom_site_fract_y
_atom_site_fract_z
Si Si1 0.500000 0.607065 0.800176
Si Si2 0.000000 0.191052 0.093799
Si Si3 0.000000 0.451821 0.080763
Si Si4 0.341310 0.358225 0.040757
Si Si5 0.399525 0.250000 0.757823
Si Si6 0.892120 0.144517 0.738251
Si Si7 0.898734 0.750000 0.548006
Si Si8 0.144091 0.377576 0.991121
O O1 0.500000 0.655250 0.711584
O O2 0.500000 0.556469 0.724923
O O3 0.412396 0.612514 0.880861
O O4 0.000000 0.250000 0.110652
O O5 0.086029 0.171240 0.020765
O O6 0.000000 0.500000 0.000000
O O7 0.913474 0.421256 0.043582
O O8 0.352341 0.301039 0.077607
O O9 0.366850 0.364287 0.899483
O O10 0.239731 0.373366 0.049845
O O11 0.500000 0.250000 0.708651
O O12 0.357294 0.301144 0.727987
O O13 0.405754 0.250000 0.902767
O O14 0.853444 0.113543 0.847305
O O15 0.000000 0.143791 0.744662
O O16 0.000000 0.750000 0.593943
#
# Coordination Sequence:
#
# PCOD9533921 Si02
#       8
#     8   8   8  16   8  16   8  16
#     4  10  22  40  64  88 120 166 210 264 304 371
#     4  10  24  37  49  77 121 170 210 254 301 357
#     4  10  24  49  71  80 105 157 207 264 346 401
#     4  11  20  33  60  95 132 165 210 252 297 358
#     4   7  14  21  41  71 109 167 208 229 268 327
#     4  10  16  31  54  85 127 166 201 243 297 361
#     4   9  16  29  45  83 132 187 204 221 286 354
#     4  10  22  37  61  90 118 160 208 257 315 376
#
# _framework density 19.193254
#
# number of rings (size 3 to 8) (size 9 to 14) (size 15 to 20)
#    0.000    2.364    3.636    1.636    3.818    2.909 
#    0.000    3.636    8.000    1.091    0.000    0.000 
#    0.000    0.000    0.000    0.000    0.000    0.000 
#
# Total GULP energy -245111.068155 kJ/mol
# GULP energy per Si atom -5570.706094 kJ/mol
# Density = 1.914957 g / cm^3
# Si number density = 19.193254 Si / 1000 Ang^3
#
#
#
# Elastic Constant Matrix: (Units=GPa)
#
#
# Indices 1 2 3 4 5 6 
#
# 1 154.6233 57.8368 38.6677 0.0001 0.0000 0.0000
# 2 57.8368 49.1598 17.6373 0.0000 0.0000 0.0000
# 3 38.6677 17.6373 90.7461 -0.0001 -0.0001 -0.0002
# 4 0.0001 0.0000 -0.0001 8.6040 0.0000 0.0000
# 5 0.0000 0.0000 -0.0001 0.0000 3.4453 0.0000
# 6 0.0000 0.0000 -0.0002 0.0000 0.0000 2.0565
#
#
#
# Elastic Compliance Matrix: (Units=1/GPa)
#
#
# Indices 1 2 3 4 5 6 
#
# 1 0.012081 -0.013293 -0.002564 0.000000 0.000000 -0.000001
# 2 -0.013293 0.036494 -0.001429 0.000000 0.000000 0.000001
# 3 -0.002564 -0.001429 0.012390 0.000000 0.000000 0.000001
# 4 0.000000 0.000000 0.000000 0.116225 0.000001 0.000001
# 5 0.000000 0.000000 0.000000 0.000001 0.290247 -0.000004
# 6 -0.000001 0.000001 0.000001 0.000001 -0.000004 0.486263
#
#
# Mechanical properties :
#
#
# Convention : Reuss Voigt Hill
#
# Bulk Modulus (GPa) = 37.88888 58.09033 47.98960
# Shear Modulus (GPa) = 5.01470 14.84700 9.93085
#
# Velocity S-wave (km/s) = 1.61815 2.78430 2.27714
# Velocity P-wave (km/s) = 4.82440 6.37716 5.65433
#
# Compressibility (1/GPa) = 0.02639297
#
# Stress axis : x y z
#
# Youngs Moduli (GPa) = 82.77515 27.40177 80.71028
#
# Poissons Ratio (x) = 0.36426 0.20695
# Poissons Ratio (y) = 1.10036 0.11530
# Poissons Ratio (z) = 0.21224 0.03914
#
# Static dielectric constant tensor:
#      x y z
#    x 1.686800 0.000000 0.000000 
#    y 0.000000 1.683430 0.000000 
#    z 0.000000 0.000000 1.740850 
# 
# From -- ./inp_files/20952.got.cif
#   From: 2010.05.17/outbox.cif.g08.bks.cpg/sg74_11_cif.got.tgz:20952.got - 2010.06.03 17:57:02.
