data_PCOD9533895
_publ_section_title
;
Structure prediction by ZEFSAII (Michael W. Deem and Ramdas Pophale) SiO2 
 PCOD9533895
Probable space group: I M M A
;
_chemical_formula_sum "Si O2"
_cell_formula_units_Z 88
_cell_length_a 38.172374
_cell_length_b 14.211674
_cell_length_c 7.345536
_cell_angle_alpha 90.000000
_cell_angle_beta 90.000000
_cell_angle_gamma 90.000000
_cell_volume 3984.904323
_symmetry_space_group_name_H-M "I M M A"
_symmetry_group_IT_number 74
_symmetry_cell_setting 'orthorhombic'
loop_
_space_group_symop_operation_xyz
x,y,z
-x,1/2-y,z
x,-y,-z
-x,1/2+y,-z
-x,-y,-z
x,1/2+y,-z
-x,y,z
x,1/2-y,z
1/2+x,1/2+y,1/2+z
1/2-x,-y,1/2+z
1/2+x,1/2-y,1/2-z
1/2-x,y,1/2-z
1/2-x,1/2-y,1/2-z
1/2+x,y,1/2-z
1/2-x,1/2+y,1/2+z
1/2+x,-y,1/2+z
loop_
_atom_site_type_symbol
_atom_site_label
_atom_site_fract_x
_atom_site_fract_y
_atom_site_fract_z
Si Si1 0.303340 0.854786 0.133175
Si Si2 0.860200 0.984283 0.285923
Si Si3 0.000000 0.144880 0.782320
Si Si4 0.000000 0.356550 0.226849
Si Si5 0.557982 0.502436 0.281634
Si Si6 0.310651 0.142748 0.305728
Si Si7 0.750000 0.015878 0.250000
O O1 0.292300 0.750000 0.192525
O O2 0.338737 0.887197 0.239403
O O3 0.277591 0.942158 0.166921
O O4 0.307626 0.849285 0.914801
O O5 0.901717 0.986634 0.266641
O O6 0.853422 0.000000 0.500000
O O7 0.842844 0.069997 0.172206
O O8 0.965548 0.090044 0.721636
O O9 0.000000 0.250000 0.718883
O O10 0.000000 0.143681 0.004343
O O11 0.035215 0.412505 0.281274
O O12 0.000000 0.250000 0.288711
O O13 0.556992 0.500000 0.500000
O O14 0.313757 0.250000 0.374205
O O15 0.275137 0.087858 0.363405
#
# Coordination Sequence:
#
# PCOD9533895 Si02
#       7
#    16  16   8   8  16  16   8
#     4   9  18  32  48  66  91 125 160 192 235 291
#     4   9  18  32  49  68  94 128 161 192 231 283
#     4   8  15  29  48  68  92 124 156 186 230 286
#     4   8  15  29  48  68  92 124 156 186 230 286
#     4   9  17  30  49  71  93 119 155 196 234 275
#     4   9  18  32  48  66  91 125 160 192 235 291
#     4  10  16  28  50  70  86 110 152 202 236 268
#
# _framework density 22.083341999999998
#
# number of rings (size 3 to 8) (size 9 to 14) (size 15 to 20)
#    0.000    3.091    0.000    3.273    0.000    1.455 
#    0.000    9.091    0.000    5.455    0.000    0.000 
#    0.000    0.000    0.000    0.000    0.000    0.000 
#
# Total GULP energy -245350.231274 kJ/mol
# GULP energy per Si atom -5576.141620 kJ/mol
# Density = 2.203308 g / cm^3
# Si number density = 22.083342 Si / 1000 Ang^3
#
#
#
# Elastic Constant Matrix: (Units=GPa)
#
#
# Indices 1 2 3 4 5 6 
#
# 1 191.0789 89.6771 -4.4128 0.0000 -0.0001 0.0000
# 2 89.6771 208.7149 8.1469 0.0000 0.0000 0.0000
# 3 -4.4128 8.1469 63.1795 -0.0004 0.0001 0.0000
# 4 0.0000 0.0000 -0.0004 11.7570 0.0001 0.0000
# 5 -0.0001 0.0000 0.0001 0.0001 30.1226 0.0001
# 6 0.0000 0.0000 0.0000 0.0000 0.0001 3.9042
#
#
#
# Elastic Compliance Matrix: (Units=1/GPa)
#
#
# Indices 1 2 3 4 5 6 
#
# 1 0.006598 -0.002868 0.000831 0.000000 0.000000 0.000000
# 2 -0.002868 0.006062 -0.000982 0.000000 0.000000 0.000000
# 3 0.000831 -0.000982 0.016013 0.000001 0.000000 0.000000
# 4 0.000000 0.000000 0.000001 0.085056 0.000000 0.000000
# 5 0.000000 0.000000 0.000000 0.000000 0.033198 -0.000001
# 6 0.000000 0.000000 0.000000 0.000000 -0.000001 0.256134
#
#
# Mechanical properties :
#
#
# Convention : Reuss Voigt Hill
#
# Bulk Modulus (GPa) = 44.17945 72.19954 58.18949
# Shear Modulus (GPa) = 12.00069 33.79423 22.89746
#
# Velocity S-wave (km/s) = 2.33368 3.91615 3.22353
# Velocity P-wave (km/s) = 5.22596 7.29475 6.34524
#
# Compressibility (1/GPa) = 0.02263496
#
# Stress axis : x y z
#
# Youngs Moduli (GPa) = 151.55182 164.97246 62.45104
#
# Poissons Ratio (x) = 0.47306 -0.05187
# Poissons Ratio (y) = 0.43458 0.06132
# Poissons Ratio (z) = -0.12588 0.16199
#
# Static dielectric constant tensor:
#      x y z
#    x 1.809250 0.000000 0.000000 
#    y 0.000000 1.803490 0.000000 
#    z 0.000000 0.000000 1.937490 
# 
# From -- ./inp_files/27119.got.cif
#   From: 2010.05.17/outbox.cif.g08.bks.cpg/sg74_14_cif.got.tgz:27119.got - 2010.06.03 17:57:02.
