data_PCOD9533462
_publ_section_title
;
Structure prediction by ZEFSAII (Michael W. Deem and Ramdas Pophale) SiO2 
 PCOD9533462
Probable space group: I B C A 
;
_chemical_formula_sum "Si O2"
_cell_formula_units_Z 112
_cell_length_a 30.745947
_cell_length_b 13.600554
_cell_length_c 12.794072
_cell_angle_alpha 90.000000
_cell_angle_beta 90.000000
_cell_angle_gamma 90.000000
_cell_volume 5349.993616
_symmetry_space_group_name_H-M "I B C A "
_symmetry_group_IT_number 73
_symmetry_cell_setting 'orthorhombic'
loop_
_space_group_symop_operation_xyz
x,y,z
-x,1/2-y,z
x,-y,1/2-z
1/2-x,y,-z
-x,-y,-z
x,1/2+y,-z
-x,y,1/2+z
1/2+x,-y,z
1/2+x,1/2+y,1/2+z
1/2-x,-y,1/2+z
1/2+x,1/2-y,-z
-x,1/2+y,1/2-z
1/2-x,1/2-y,1/2-z
1/2+x,y,1/2-z
1/2-x,1/2+y,z
x,1/2-y,1/2+z
loop_
_atom_site_type_symbol
_atom_site_label
_atom_site_fract_x
_atom_site_fract_y
_atom_site_fract_z
Si Si1 0.750000 0.944784 0.500000
Si Si2 0.100538 0.600598 0.805489
Si Si3 0.152247 0.606309 0.199762
Si Si4 0.180554 0.107831 0.035902
Si Si5 0.282897 0.285284 0.838923
Si Si6 0.502159 0.597697 0.177636
Si Si7 0.067296 0.213798 0.820425
Si Si8 0.000000 0.750000 0.500680
O O1 0.765693 0.876638 0.405301
O O2 0.789811 0.010496 0.543746
O O3 0.114841 0.500000 0.750000
O O4 0.134687 0.611550 0.900683
O O5 0.093963 0.692314 0.725132
O O6 0.049945 0.588049 0.835266
O O7 0.158844 0.500000 0.250000
O O8 0.173154 0.681905 0.281006
O O9 0.102016 0.627031 0.178221
O O10 0.174151 0.618897 0.087564
O O11 0.207720 0.196856 0.083221
O O12 0.250000 0.250000 0.750000
O O13 0.512484 0.500000 0.250000
O O14 0.529217 0.677227 0.244472
O O15 0.510852 0.649437 0.063830
O O16 0.042678 0.233857 0.928150
#
# Coordination Sequence:
#
# PCOD9533462 Si02
#       8
#     8  16  16  16  16  16  16   8
#     4  12  26  48  78 110 146 196 254 306 388 466
#     4  11  24  46  71 108 151 192 254 312 371 452
#     4  12  26  49  72 112 154 195 247 320 372 461
#     4  12  27  48  76 110 151 202 252 308 396 455
#     4  12  27  47  78 108 149 195 251 321 381 458
#     4  11  24  47  70 107 151 194 252 313 373 452
#     4  12  24  47  72 109 153 195 259 310 378 450
#     4  12  22  44  80 104 144 210 248 312 380 450
#
# _framework density 20.934605000000001
#
# number of rings (size 3 to 8) (size 9 to 14) (size 15 to 20)
#    0.000    0.286    5.714    3.429    2.000    1.714 
#    5.143    0.000    0.000    0.000    0.000    0.000 
#    0.000    0.000    0.000    0.000    0.000    0.000 
#
# Total GULP energy -311980.682252 kJ/mol
# GULP energy per Si atom -5571.083612 kJ/mol
# Density = 2.088696 g / cm^3
# Si number density = 20.934605 Si / 1000 Ang^3
#
#
#
# Elastic Constant Matrix: (Units=GPa)
#
#
# Indices 1 2 3 4 5 6 
#
# 1 106.9806 48.8919 56.0892 0.0000 0.0000 0.0000
# 2 48.8919 112.8348 71.1587 0.0000 0.0000 0.0000
# 3 56.0892 71.1587 147.7163 0.0000 0.0000 0.0000
# 4 0.0000 0.0000 0.0000 11.7756 0.0000 0.0000
# 5 0.0000 0.0000 0.0000 0.0000 -30.8404 0.0000
# 6 0.0000 0.0000 0.0000 0.0000 0.0000 38.6661
#
#
#
# Elastic Compliance Matrix: (Units=1/GPa)
#
#
# Indices 1 2 3 4 5 6 
#
# 1 0.012564 -0.003498 -0.003085 0.000000 0.000000 0.000000
# 2 -0.003498 0.013704 -0.005273 0.000000 0.000000 0.000000
# 3 -0.003085 -0.005273 0.010482 0.000000 0.000000 0.000000
# 4 0.000000 0.000000 0.000000 0.084921 0.000000 0.000000
# 5 0.000000 0.000000 0.000000 0.000000 -0.032425 0.000000
# 6 0.000000 0.000000 0.000000 0.000000 0.000000 0.025862
#
#
# Mechanical properties :
#
#
# Convention : Reuss Voigt Hill
#
# Bulk Modulus (GPa) = 76.71300 79.97903 78.34602
# Shear Modulus (GPa) = 34.92433 16.67973 25.80203
#
# Velocity S-wave (km/s) = 4.08886 2.82575 3.51452
# Velocity P-wave (km/s) = 7.68215 6.99526 7.34673
#
# Compressibility (1/GPa) = 0.01303560
#
# Stress axis : x y z
#
# Youngs Moduli (GPa) = 79.59317 72.97248 95.40584
#
# Poissons Ratio (x) = 0.25527 0.29437
# Poissons Ratio (y) = 0.27843 0.50309
# Poissons Ratio (z) = 0.24558 0.38480
#
# Static dielectric constant tensor:
#      x y z
#    x 1.763490 0.000000 0.000000 
#    y 0.000000 1.834200 0.000000 
#    z 0.000000 0.000000 1.721130 
# 
# From -- ./inp_files/14838.got.cif
#   From: 2010.05.17/outbox.cif.g08.bks.cpg/sg73_8_cif.got.tgz:14838.got - 2010.06.03 17:35:07.
