data_PCOD9533044
_publ_section_title
;
Structure prediction by ZEFSAII (Michael W. Deem and Ramdas Pophale) SiO2 
 PCOD9533044
Probable space group: I B C A 
;
_chemical_formula_sum "Si O2"
_cell_formula_units_Z 56
_cell_length_a 11.367009
_cell_length_b 20.513586
_cell_length_c 9.299616
_cell_angle_alpha 90.000000
_cell_angle_beta 90.000000
_cell_angle_gamma 90.000000
_cell_volume 2168.466945
_symmetry_space_group_name_H-M "I B C A "
_symmetry_group_IT_number 73
_symmetry_cell_setting 'orthorhombic'
loop_
_space_group_symop_operation_xyz
x,y,z
-x,1/2-y,z
x,-y,1/2-z
1/2-x,y,-z
-x,-y,-z
x,1/2+y,-z
-x,y,1/2+z
1/2+x,-y,z
1/2+x,1/2+y,1/2+z
1/2-x,-y,1/2+z
1/2+x,1/2-y,-z
-x,1/2+y,1/2-z
1/2-x,1/2-y,1/2-z
1/2+x,y,1/2-z
1/2-x,1/2+y,z
x,1/2-y,1/2+z
loop_
_atom_site_type_symbol
_atom_site_label
_atom_site_fract_x
_atom_site_fract_y
_atom_site_fract_z
Si Si1 0.402762 0.611996 0.762396
Si Si2 0.909969 0.000000 0.750000
Si Si3 0.626681 0.739584 0.427442
Si Si4 0.250000 0.961344 0.500000
Si Si5 0.250000 0.138396 0.500000
O O1 0.516307 0.566693 0.748299
O O2 0.406851 0.688465 0.803417
O O3 0.330248 0.580364 0.892790
O O4 0.336506 0.605526 0.611445
O O5 0.833260 0.999487 0.606956
O O6 0.500000 0.750000 0.506723
O O7 0.750000 0.714352 0.500000
O O8 0.671202 0.813013 0.398736
#
# Coordination Sequence:
#
# PCOD9533044 Si02
#       5
#    16   8  16   8   8
#     4  12  27  53  83 123 172 219 282 357 425 514
#     4  12  32  52  86 120 164 226 288 350 440 508
#     4  10  25  48  83 125 172 227 283 346 428 504
#     4  12  29  53  80 118 160 216 280 348 432 510
#     4  10  27  49  84 126 170 224 286 346 428 510
#
# _framework density 25.824695999999999
#
# number of rings (size 3 to 8) (size 9 to 14) (size 15 to 20)
#    0.857    0.000    1.429    2.571    8.000    5.714 
#    2.571    0.000    0.000    0.000    0.000    0.000 
#    0.000    0.000    0.000    0.000    0.000    0.000 
#
# Total GULP energy -156485.101212 kJ/mol
# GULP energy per Si atom -5588.753615 kJ/mol
# Density = 2.576592 g / cm^3
# Si number density = 25.824696 Si / 1000 Ang^3
#
#
#
# Elastic Constant Matrix: (Units=GPa)
#
#
# Indices 1 2 3 4 5 6 
#
# 1 181.3594 69.1679 80.6173 0.0000 -0.0032 0.0000
# 2 69.1679 106.5711 89.1513 0.0000 -0.0012 0.0000
# 3 80.6173 89.1513 194.6319 0.0005 -0.0402 -0.0001
# 4 0.0000 0.0000 0.0005 29.2814 -0.0108 0.0000
# 5 -0.0032 -0.0012 -0.0402 -0.0108 6394.9104 0.0030
# 6 0.0000 0.0000 -0.0001 0.0000 0.0030 73.2080
#
#
#
# Elastic Compliance Matrix: (Units=1/GPa)
#
#
# Indices 1 2 3 4 5 6 
#
# 1 0.007567 -0.003711 -0.001434 0.000000 0.000000 0.000000
# 2 -0.003711 0.017033 -0.006265 0.000000 0.000000 0.000000
# 3 -0.001434 -0.006265 0.008602 0.000000 0.000000 0.000000
# 4 0.000000 0.000000 0.000000 0.034151 0.000000 0.000000
# 5 0.000000 0.000000 0.000000 0.000000 0.000156 0.000000
# 6 0.000000 0.000000 0.000000 0.000000 0.000000 0.013660
#
#
# Mechanical properties :
#
#
# Convention : Reuss Voigt Hill
#
# Bulk Modulus (GPa) = 96.33217 106.71505 101.52361
# Shear Modulus (GPa) = 46.53346 1315.72168 681.12757
#
# Velocity S-wave (km/s) = 4.24948 22.59619 16.25801
# Velocity P-wave (km/s) = 7.83969 26.87372 19.79466
#
# Compressibility (1/GPa) = 0.01038075
#
# Stress axis : x y z
#
# Youngs Moduli (GPa) = 132.15420 58.71012 116.25858
#
# Poissons Ratio (x) = 0.21789 0.16675
# Poissons Ratio (y) = 0.49047 0.72832
# Poissons Ratio (z) = 0.18954 0.36780
#
# Static dielectric constant tensor:
#      x y z
#    x 2.137300 0.000000 0.000000 
#    y 0.000000 2.147160 0.000000 
#    z 0.000000 0.000000 1.955760 
# 
# From -- ./inp_files/3929.got.cif
#   From: 2010.05.17/outbox.cif.g08.bks.cpg/sg73_2_cif.got.tgz:3929.got - 2010.06.03 17:35:07.
