data_PCOD9533805
_publ_section_title
;
Structure prediction by ZEFSAII (Michael W. Deem and Ramdas Pophale) SiO2 
 PCOD9533805
Probable space group: I M M A
;
_chemical_formula_sum "Si O2"
_cell_formula_units_Z 72
_cell_length_a 17.828009
_cell_length_b 15.465022
_cell_length_c 14.073958
_cell_angle_alpha 90.000000
_cell_angle_beta 90.000000
_cell_angle_gamma 90.000000
_cell_volume 3880.338721
_symmetry_space_group_name_H-M "I M M A"
_symmetry_group_IT_number 74
_symmetry_cell_setting 'orthorhombic'
loop_
_space_group_symop_operation_xyz
x,y,z
-x,1/2-y,z
x,-y,-z
-x,1/2+y,-z
-x,-y,-z
x,1/2+y,-z
-x,y,z
x,1/2-y,z
1/2+x,1/2+y,1/2+z
1/2-x,-y,1/2+z
1/2+x,1/2-y,1/2-z
1/2-x,y,1/2-z
1/2-x,1/2-y,1/2-z
1/2+x,y,1/2-z
1/2-x,1/2+y,1/2+z
1/2+x,-y,1/2+z
loop_
_atom_site_type_symbol
_atom_site_label
_atom_site_fract_x
_atom_site_fract_y
_atom_site_fract_z
Si Si1 0.084745 0.395537 0.019741
Si Si2 0.337547 0.343454 0.877811
Si Si3 0.289878 0.423332 0.344201
Si Si4 0.176809 0.000000 0.500000
Si Si5 0.163187 0.381237 0.831299
O O1 0.144582 0.372832 0.101148
O O2 0.000000 0.373839 0.045003
O O3 0.089372 0.500000 0.000000
O O4 0.109973 0.359094 0.918476
O O5 0.354373 0.250000 0.920875
O O6 0.363382 0.425206 0.939632
O O7 0.246920 0.351785 0.862248
O O8 0.364339 0.346597 0.769098
O O9 0.250000 0.387051 0.250000
O O10 0.229236 0.448699 0.424813
O O11 0.326690 0.515591 0.315486
#
# Coordination Sequence:
#
# PCOD9533805 Si02
#       5
#    16  16  16   8  16
#     4   9  16  25  40  68 103 132 162 203 255 310
#     4  10  17  26  45  71  97 124 162 212 256 302
#     4  10  14  24  43  66  93 129 171 202 247 300
#     4  10  16  28  43  68  95 130 162 208 258 298
#     4   9  14  25  42  67  94 122 160 205 255 303
#
# _framework density 18.555081000000001
#
# number of rings (size 3 to 8) (size 9 to 14) (size 15 to 20)
#    0.000    2.444   10.000    1.333    0.000    0.000 
#    0.000    0.000    0.000    3.333    0.000    3.111 
#    0.000    0.000    0.000    0.000    0.000    0.000 
#
# Total GULP energy -200414.865293 kJ/mol
# GULP energy per Si atom -5567.079591 kJ/mol
# Density = 1.851285 g / cm^3
# Si number density = 18.555081 Si / 1000 Ang^3
#
#
#
# Elastic Constant Matrix: (Units=GPa)
#
#
# Indices 1 2 3 4 5 6 
#
# 1 51.2652 1.6886 48.9146 0.0000 0.0000 0.0000
# 2 1.6886 68.0917 28.4906 0.0000 0.0000 0.0000
# 3 48.9146 28.4906 137.5861 0.0000 0.0000 0.0000
# 4 0.0000 0.0000 0.0000 2.0939 0.0000 0.0000
# 5 0.0000 0.0000 0.0000 0.0000 15.4784 0.0000
# 6 0.0000 0.0000 0.0000 0.0000 0.0000 1.8197
#
#
#
# Elastic Compliance Matrix: (Units=1/GPa)
#
#
# Indices 1 2 3 4 5 6 
#
# 1 0.030553 0.004147 -0.011721 0.000000 0.000000 0.000000
# 2 0.004147 0.016642 -0.004920 0.000000 0.000000 0.000000
# 3 -0.011721 -0.004920 0.012454 0.000000 0.000000 0.000000
# 4 0.000000 0.000000 0.000000 0.477583 0.000000 0.000000
# 5 0.000000 0.000000 0.000000 0.000000 0.064606 0.000000
# 6 0.000000 0.000000 0.000000 0.000000 0.000000 0.549529
#
#
# Mechanical properties :
#
#
# Convention : Reuss Voigt Hill
#
# Bulk Modulus (GPa) = 28.85171 46.12562 37.48867
# Shear Modulus (GPa) = 4.20907 15.73502 9.97204
#
# Velocity S-wave (km/s) = 1.50776 2.91523 2.32077
# Velocity P-wave (km/s) = 4.31441 6.02031 5.23728
#
# Compressibility (1/GPa) = 0.03465999
#
# Stress axis : x y z
#
# Youngs Moduli (GPa) = 32.72955 60.08896 80.29477
#
# Poissons Ratio (x) = -0.24916 0.94114
# Poissons Ratio (y) = -0.13572 0.39508
# Poissons Ratio (z) = 0.38362 0.29566
#
# Static dielectric constant tensor:
#      x y z
#    x 1.627540 0.000000 0.000000 
#    y 0.000000 1.686400 0.000000 
#    z 0.000000 0.000000 1.665040 
# 
# From -- ./inp_files/23530.got.cif
#   From: 2010.05.17/outbox.cif.g08.bks.cpg/sg74_12_cif.got.tgz:23530.got - 2010.06.03 17:57:02.
