data_PCOD9533113
_publ_section_title
;
Structure prediction by ZEFSAII (Michael W. Deem and Ramdas Pophale) SiO2 
 PCOD9533113
Probable space group: I B C A 
;
_chemical_formula_sum "Si O2"
_cell_formula_units_Z 72
_cell_length_a 8.434613
_cell_length_b 25.283925
_cell_length_c 13.961638
_cell_angle_alpha 90.000000
_cell_angle_beta 90.000000
_cell_angle_gamma 90.000000
_cell_volume 2977.460630
_symmetry_space_group_name_H-M "I B C A "
_symmetry_group_IT_number 73
_symmetry_cell_setting 'orthorhombic'
loop_
_space_group_symop_operation_xyz
x,y,z
-x,1/2-y,z
x,-y,1/2-z
1/2-x,y,-z
-x,-y,-z
x,1/2+y,-z
-x,y,1/2+z
1/2+x,-y,z
1/2+x,1/2+y,1/2+z
1/2-x,-y,1/2+z
1/2+x,1/2-y,-z
-x,1/2+y,1/2-z
1/2-x,1/2-y,1/2-z
1/2+x,y,1/2-z
1/2-x,1/2+y,z
x,1/2-y,1/2+z
loop_
_atom_site_type_symbol
_atom_site_label
_atom_site_fract_x
_atom_site_fract_y
_atom_site_fract_z
Si Si1 0.080928 0.885111 0.131928
Si Si2 0.431200 0.056924 0.968772
Si Si3 0.113927 0.939998 0.784262
Si Si4 0.765439 0.271639 0.357434
Si Si5 0.500000 0.750000 0.505225
O O1 0.227862 0.922359 0.161760
O O2 0.139038 0.826051 0.146137
O O3 0.932759 0.901488 0.197991
O O4 0.029129 0.898511 0.024867
O O5 0.466296 0.062547 0.857357
O O6 0.250000 0.059361 0.000000
O O7 0.500000 0.000000 0.000000
O O8 0.130288 0.000000 0.750000
O O9 0.750000 0.250000 0.250000
O O10 0.604234 0.282793 0.417425
O O11 0.865968 0.232668 0.427531
#
# Coordination Sequence:
#
# PCOD9533113 Si02
#       5
#    16  16  16  16   8
#     4  12  28  46  79 114 150 207 264 319 401 483
#     4  12  26  48  74 108 156 207 257 319 383 472
#     4  12  26  46  73 110 156 202 255 313 388 475
#     4  11  27  51  80 113 156 207 264 352 417 497
#     4  10  26  50  78 108 152 194 264 326 426 484
#
# _framework density 24.181678999999999
#
# number of rings (size 3 to 8) (size 9 to 14) (size 15 to 20)
#    0.000    0.444    2.222    4.667   12.444    0.000 
#    4.000    0.000    0.000    0.000    0.000    0.000 
#    0.000    0.000    0.000    0.000    0.000    0.000 
#
# Total GULP energy -201463.096321 kJ/mol
# GULP energy per Si atom -5596.197120 kJ/mol
# Density = 2.412664 g / cm^3
# Si number density = 24.181679 Si / 1000 Ang^3
#
#
#
# Elastic Constant Matrix: (Units=GPa)
#
#
# Indices 1 2 3 4 5 6 
#
# 1 129.5443 45.4983 41.3280 0.0000 0.0000 0.0000
# 2 45.4983 129.2807 56.8720 0.0000 0.0000 0.0000
# 3 41.3280 56.8720 166.1254 0.0000 0.0000 0.0000
# 4 0.0000 0.0000 0.0000 30.2131 0.0000 0.0000
# 5 0.0000 0.0000 0.0000 0.0000 39.2530 0.0000
# 6 0.0000 0.0000 0.0000 0.0000 0.0000 8.1028
#
#
#
# Elastic Compliance Matrix: (Units=1/GPa)
#
#
# Indices 1 2 3 4 5 6 
#
# 1 0.009065 -0.002588 -0.001369 0.000000 0.000000 0.000000
# 2 -0.002588 0.009845 -0.002727 0.000000 0.000000 0.000000
# 3 -0.001369 -0.002727 0.007294 0.000000 0.000000 0.000000
# 4 0.000000 0.000000 0.000000 0.033098 0.000000 0.000000
# 5 0.000000 0.000000 0.000000 0.000000 0.025476 0.000000
# 6 0.000000 0.000000 0.000000 0.000000 0.000000 0.123415
#
#
# Mechanical properties :
#
#
# Convention : Reuss Voigt Hill
#
# Bulk Modulus (GPa) = 77.90340 79.14965 78.52653
# Shear Modulus (GPa) = 22.13964 34.26391 28.20177
#
# Velocity S-wave (km/s) = 3.02910 3.76831 3.41874
# Velocity P-wave (km/s) = 6.67231 7.19276 6.93742
#
# Compressibility (1/GPa) = 0.01283641
#
# Stress axis : x y z
#
# Youngs Moduli (GPa) = 110.31278 101.57014 137.10582
#
# Poissons Ratio (x) = 0.26286 0.18772
# Poissons Ratio (y) = 0.28549 0.37384
# Poissons Ratio (z) = 0.15104 0.27695
#
# Static dielectric constant tensor:
#      x y z
#    x 1.966260 0.000000 0.000000 
#    y 0.000000 1.910850 0.000000 
#    z 0.000000 0.000000 2.126840 
# 
# From -- ./inp_files/15526.got.cif
#   From: 2010.05.17/outbox.cif.g08.bks.cpg/sg73_8_cif.got.tgz:15526.got - 2010.06.03 17:35:07.
