data_PCOD9533308
_publ_section_title
;
Structure prediction by ZEFSAII (Michael W. Deem and Ramdas Pophale) SiO2 
 PCOD9533308
Probable space group: I B C A 
;
_chemical_formula_sum "Si O2"
_cell_formula_units_Z 96
_cell_length_a 9.971474
_cell_length_b 18.578727
_cell_length_c 25.311093
_cell_angle_alpha 90.000000
_cell_angle_beta 90.000000
_cell_angle_gamma 90.000000
_cell_volume 4689.064578
_symmetry_space_group_name_H-M "I B C A "
_symmetry_group_IT_number 73
_symmetry_cell_setting 'orthorhombic'
loop_
_space_group_symop_operation_xyz
x,y,z
-x,1/2-y,z
x,-y,1/2-z
1/2-x,y,-z
-x,-y,-z
x,1/2+y,-z
-x,y,1/2+z
1/2+x,-y,z
1/2+x,1/2+y,1/2+z
1/2-x,-y,1/2+z
1/2+x,1/2-y,-z
-x,1/2+y,1/2-z
1/2-x,1/2-y,1/2-z
1/2+x,y,1/2-z
1/2-x,1/2+y,z
x,1/2-y,1/2+z
loop_
_atom_site_type_symbol
_atom_site_label
_atom_site_fract_x
_atom_site_fract_y
_atom_site_fract_z
Si Si1 0.852806 0.713344 0.621764
Si Si2 0.418174 0.823582 0.264067
Si Si3 0.395945 0.047819 0.704208
Si Si4 0.804140 0.150631 0.150264
Si Si5 0.715279 0.569610 0.438410
Si Si6 0.502896 0.037929 0.887857
O O1 0.839497 0.678465 0.680499
O O2 0.752554 0.780590 0.620047
O O3 0.828917 0.649021 0.581152
O O4 0.000000 0.750000 0.617495
O O5 0.500000 0.750000 0.263039
O O6 0.519357 0.890082 0.267644
O O7 0.336577 0.827313 0.210417
O O8 0.303887 0.087604 0.661059
O O9 0.326873 0.000000 0.750000
O O10 0.493496 0.997759 0.670087
O O11 0.927449 0.114936 0.120200
O O12 0.750000 0.568914 0.500000
O O13 0.596973 0.513709 0.423145
O O14 0.853055 0.547855 0.409094
#
# Coordination Sequence:
#
# PCOD9533308 Si02
#       6
#    16  16  16  16  16  16
#     4  11  24  47  70  96 145 185 233 292 356 408
#     4  11  23  38  62  99 144 186 223 273 341 423
#     4  12  24  39  65 104 143 190 221 275 345 427
#     4  12  25  40  67 104 141 187 228 278 347 430
#     4  12  28  51  76 103 133 185 241 304 359 408
#     4  12  26  46  74 103 144 177 236 294 354 422
#
# _framework density 20.473165000000002
#
# number of rings (size 3 to 8) (size 9 to 14) (size 15 to 20)
#    0.000    0.333    8.333    1.000    7.000    0.000 
#    3.000    0.000    0.000    0.000    0.000    0.000 
#    0.000    0.000    0.000    0.000    0.000    0.000 
#
# Total GULP energy -268389.911106 kJ/mol
# GULP energy per Si atom -5591.456481 kJ/mol
# Density = 2.042657 g / cm^3
# Si number density = 20.473165 Si / 1000 Ang^3
#
#
#
# Elastic Constant Matrix: (Units=GPa)
#
#
# Indices 1 2 3 4 5 6 
#
# 1 73.8111 32.3008 13.1847 0.0000 0.0000 0.0000
# 2 32.3008 91.0736 39.6880 0.0000 0.0000 0.0000
# 3 13.1847 39.6880 78.0091 0.0000 0.0000 0.0000
# 4 0.0000 0.0000 0.0000 19.3879 0.0000 0.0000
# 5 0.0000 0.0000 0.0000 0.0000 1.9001 0.0000
# 6 0.0000 0.0000 0.0000 0.0000 0.0000 40.2585
#
#
#
# Elastic Compliance Matrix: (Units=1/GPa)
#
#
# Indices 1 2 3 4 5 6 
#
# 1 0.016041 -0.005792 0.000235 0.000000 0.000000 0.000000
# 2 -0.005792 0.016199 -0.007263 0.000000 0.000000 0.000000
# 3 0.000235 -0.007263 0.016474 0.000000 0.000000 0.000000
# 4 0.000000 0.000000 0.000000 0.051579 0.000000 0.000000
# 5 0.000000 0.000000 0.000000 0.000000 0.526293 0.000000
# 6 0.000000 0.000000 0.000000 0.000000 0.000000 0.024839
#
#
# Mechanical properties :
#
#
# Convention : Reuss Voigt Hill
#
# Bulk Modulus (GPa) = 43.33463 45.91565 44.62514
# Shear Modulus (GPa) = 7.30188 22.82398 15.06293
#
# Velocity S-wave (km/s) = 1.89058 3.34252 2.71540
# Velocity P-wave (km/s) = 5.09689 6.11331 5.62809
#
# Compressibility (1/GPa) = 0.02307623
#
# Stress axis : x y z
#
# Youngs Moduli (GPa) = 62.34203 61.73169 60.70112
#
# Poissons Ratio (x) = 0.35753 -0.01429
# Poissons Ratio (y) = 0.36106 0.44085
# Poissons Ratio (z) = -0.01468 0.44833
#
# Static dielectric constant tensor:
#      x y z
#    x 1.785100 0.000000 0.000000 
#    y 0.000000 1.771050 0.000000 
#    z 0.000000 0.000000 1.709980 
# 
# From -- ./inp_files/21359.got.cif
#   From: 2010.05.17/outbox.cif.g08.bks.cpg/sg73_11_cif.got.tgz:21359.got - 2010.06.03 17:35:07.
