data_PCOD9533312
_publ_section_title
;
Structure prediction by ZEFSAII (Michael W. Deem and Ramdas Pophale) SiO2 
 PCOD9533312
Probable space group: I B C A 
;
_chemical_formula_sum "Si O2"
_cell_formula_units_Z 96
_cell_length_a 14.272291
_cell_length_b 13.906634
_cell_length_c 20.841827
_cell_angle_alpha 90.000000
_cell_angle_beta 90.000000
_cell_angle_gamma 90.000000
_cell_volume 4136.675971
_symmetry_space_group_name_H-M "I B C A "
_symmetry_group_IT_number 73
_symmetry_cell_setting 'orthorhombic'
loop_
_space_group_symop_operation_xyz
x,y,z
-x,1/2-y,z
x,-y,1/2-z
1/2-x,y,-z
-x,-y,-z
x,1/2+y,-z
-x,y,1/2+z
1/2+x,-y,z
1/2+x,1/2+y,1/2+z
1/2-x,-y,1/2+z
1/2+x,1/2-y,-z
-x,1/2+y,1/2-z
1/2-x,1/2-y,1/2-z
1/2+x,y,1/2-z
1/2-x,1/2+y,z
x,1/2-y,1/2+z
loop_
_atom_site_type_symbol
_atom_site_label
_atom_site_fract_x
_atom_site_fract_y
_atom_site_fract_z
Si Si1 0.105585 0.261617 0.499361
Si Si2 0.362025 0.739121 0.744553
Si Si3 0.134365 0.906339 0.098483
Si Si4 0.999381 0.404263 0.289235
Si Si5 0.832539 0.855311 0.385478
Si Si6 0.607057 0.519010 0.479277
O O1 0.107934 0.189105 0.440213
O O2 0.171203 0.222084 0.556289
O O3 0.123842 0.368326 0.475207
O O4 0.000000 0.250000 0.526805
O O5 0.250000 0.750000 0.750000
O O6 0.420287 0.837183 0.754737
O O7 0.409000 0.663129 0.794048
O O8 0.382654 0.692066 0.674901
O O9 0.048679 0.932515 0.143758
O O10 0.228541 0.884069 0.136569
O O11 0.160407 0.981545 0.042927
O O12 0.020300 0.500000 0.250000
O O13 0.874002 0.950577 0.418863
O O14 0.500000 0.500000 0.500000
#
# Coordination Sequence:
#
# PCOD9533312 Si02
#       6
#    16  16  16  16  16  16
#     4  11  23  39  72 102 139 187 235 299 376 432
#     4  11  26  50  74 106 143 196 251 306 377 445
#     4  11  25  46  67 104 145 186 240 295 365 446
#     4  11  28  47  76 106 145 192 249 308 375 446
#     4  11  25  45  68 104 148 182 244 307 358 454
#     4  11  23  40  70 108 139 186 241 296 378 434
#
# _framework density 23.207039999999999
#
# number of rings (size 3 to 8) (size 9 to 14) (size 15 to 20)
#    0.000    1.000    5.000    2.000    9.333    3.333 
#    0.000    0.000    0.000    0.000    0.000    0.000 
#    0.000    0.000    0.000    0.000    0.000    0.000 
#
# Total GULP energy -268488.898320 kJ/mol
# GULP energy per Si atom -5593.518715 kJ/mol
# Density = 2.315422 g / cm^3
# Si number density = 23.207040 Si / 1000 Ang^3
#
#
#
# Elastic Constant Matrix: (Units=GPa)
#
#
# Indices 1 2 3 4 5 6 
#
# 1 115.5643 5.0084 1.9533 0.0000 0.0000 0.0000
# 2 5.0084 143.2586 19.1285 0.0000 0.0000 0.0000
# 3 1.9533 19.1285 85.6295 0.0000 0.0000 0.0000
# 4 0.0000 0.0000 0.0000 24.1938 0.0000 0.0000
# 5 0.0000 0.0000 0.0000 0.0000 31.8188 0.0000
# 6 0.0000 0.0000 0.0000 0.0000 0.0000 22.7175
#
#
#
# Elastic Compliance Matrix: (Units=1/GPa)
#
#
# Indices 1 2 3 4 5 6 
#
# 1 0.008668 -0.000285 -0.000134 0.000000 0.000000 0.000000
# 2 -0.000285 0.007204 -0.001603 0.000000 0.000000 0.000000
# 3 -0.000134 -0.001603 0.012039 0.000000 0.000000 0.000000
# 4 0.000000 0.000000 0.000000 0.041333 0.000000 0.000000
# 5 0.000000 0.000000 0.000000 0.000000 0.031428 0.000000
# 6 0.000000 0.000000 0.000000 0.000000 0.000000 0.044019
#
#
# Mechanical properties :
#
#
# Convention : Reuss Voigt Hill
#
# Bulk Modulus (GPa) = 41.89801 44.07030 42.98415
# Shear Modulus (GPa) = 31.90991 36.97017 34.44004
#
# Velocity S-wave (km/s) = 3.71214 3.99564 3.85650
# Velocity P-wave (km/s) = 6.03875 6.34966 6.19615
#
# Compressibility (1/GPa) = 0.02386748
#
# Stress axis : x y z
#
# Youngs Moduli (GPa) = 115.36929 138.80458 83.06108
#
# Poissons Ratio (x) = 0.03958 0.01113
# Poissons Ratio (y) = 0.03290 0.13313
# Poissons Ratio (z) = 0.01546 0.22248
#
# Static dielectric constant tensor:
#      x y z
#    x 1.987680 0.000000 0.000000 
#    y 0.000000 1.849950 0.000000 
#    z 0.000000 0.000000 1.906000 
# 
# From -- ./inp_files/18612.got.cif
#   From: 2010.05.17/outbox.cif.g08.bks.cpg/sg73_10_cif.got.tgz:18612.got - 2010.06.03 17:35:07.
