data_PCOD9533382
_publ_section_title
;
Structure prediction by ZEFSAII (Michael W. Deem and Ramdas Pophale) SiO2 
 PCOD9533382
Probable space group: I B C A 
;
_chemical_formula_sum "Si O2"
_cell_formula_units_Z 112
_cell_length_a 15.576582
_cell_length_b 24.541162
_cell_length_c 13.939647
_cell_angle_alpha 90.000000
_cell_angle_beta 90.000000
_cell_angle_gamma 90.000000
_cell_volume 5328.672926
_symmetry_space_group_name_H-M "I B C A "
_symmetry_group_IT_number 73
_symmetry_cell_setting 'orthorhombic'
loop_
_space_group_symop_operation_xyz
x,y,z
-x,1/2-y,z
x,-y,1/2-z
1/2-x,y,-z
-x,-y,-z
x,1/2+y,-z
-x,y,1/2+z
1/2+x,-y,z
1/2+x,1/2+y,1/2+z
1/2-x,-y,1/2+z
1/2+x,1/2-y,-z
-x,1/2+y,1/2-z
1/2-x,1/2-y,1/2-z
1/2+x,y,1/2-z
1/2-x,1/2+y,z
x,1/2-y,1/2+z
loop_
_atom_site_type_symbol
_atom_site_label
_atom_site_fract_x
_atom_site_fract_y
_atom_site_fract_z
Si Si1 0.079290 0.781137 0.527659
Si Si2 0.895431 0.638926 0.703867
Si Si3 0.456281 0.927874 0.027883
Si Si4 0.449191 0.522518 0.850548
Si Si5 0.220626 0.686596 0.740295
Si Si6 0.341202 0.172120 0.531814
Si Si7 0.056659 0.647291 0.848942
O O1 0.108573 0.825134 0.606047
O O2 0.144224 0.733778 0.496205
O O3 0.044260 0.807712 0.431123
O O4 0.000000 0.750000 0.576570
O O5 0.894238 0.575569 0.675250
O O6 0.810767 0.654795 0.762695
O O7 0.982980 0.649452 0.765886
O O8 0.537597 0.908918 0.093263
O O9 0.406809 0.971637 0.093538
O O10 0.482665 0.955380 0.928025
O O11 0.407700 0.872682 0.002356
O O12 0.484340 0.500000 0.750000
O O13 0.250000 0.750000 0.750000
O O14 0.164874 0.679985 0.644911
O O15 0.154118 0.660053 0.816247
O O16 0.250000 0.151171 0.500000
#
# Coordination Sequence:
#
# PCOD9533382 Si02
#       7
#    16  16  16  16  16  16  16
#     4  12  24  40  70 101 138 187 230 287 362 433
#     4  12  26  46  70 103 146 188 240 298 356 431
#     4  11  24  45  74 103 131 192 240 297 362 425
#     4  11  23  45  76  97 134 183 246 298 358 417
#     4  12  27  42  71 110 147 190 236 291 361 442
#     4  12  25  45  66 102 147 182 235 293 356 433
#     4  12  25  43  71 103 141 191 235 289 361 429
#
# _framework density 21.018367000000001
#
# number of rings (size 3 to 8) (size 9 to 14) (size 15 to 20)
#    0.000    0.286    5.714    3.429    2.000    0.000 
#    0.000    2.857    3.143    0.000    0.000    0.000 
#    0.000    0.000    0.000    0.000    0.000    0.000 
#
# Total GULP energy -312313.217621 kJ/mol
# GULP energy per Si atom -5577.021743 kJ/mol
# Density = 2.097053 g / cm^3
# Si number density = 21.018367 Si / 1000 Ang^3
#
#
#
# Elastic Constant Matrix: (Units=GPa)
#
#
# Indices 1 2 3 4 5 6 
#
# 1 80.6321 26.4195 13.8539 0.0000 0.0000 0.0000
# 2 26.4195 139.5313 52.1978 -0.0001 0.0000 0.0000
# 3 13.8539 52.1978 86.9411 -0.0002 0.0000 0.0000
# 4 0.0000 -0.0001 -0.0002 46.4396 0.0000 0.0000
# 5 0.0000 0.0000 0.0000 0.0000 22.6780 0.0000
# 6 0.0000 0.0000 0.0000 0.0000 0.0000 13.5208
#
#
#
# Elastic Compliance Matrix: (Units=1/GPa)
#
#
# Indices 1 2 3 4 5 6 
#
# 1 0.013263 -0.002219 -0.000781 0.000000 0.000000 0.000000
# 2 -0.002219 0.009614 -0.005418 0.000000 0.000000 0.000000
# 3 -0.000781 -0.005418 0.014880 0.000000 0.000000 0.000000
# 4 0.000000 0.000000 0.000000 0.021533 0.000000 0.000000
# 5 0.000000 0.000000 0.000000 0.000000 0.044096 0.000000
# 6 0.000000 0.000000 0.000000 0.000000 0.000000 0.073960
#
#
# Mechanical properties :
#
#
# Convention : Reuss Voigt Hill
#
# Bulk Modulus (GPa) = 47.80224 54.67188 51.23706
# Shear Modulus (GPa) = 24.85622 30.83656 27.84639
#
# Velocity S-wave (km/s) = 3.44262 3.83446 3.64381
# Velocity P-wave (km/s) = 6.21246 6.75811 6.49102
#
# Compressibility (1/GPa) = 0.02091952
#
# Stress axis : x y z
#
# Youngs Moduli (GPa) = 75.39583 104.01441 67.20577
#
# Poissons Ratio (x) = 0.23082 0.05250
# Poissons Ratio (y) = 0.16731 0.36415
# Poissons Ratio (z) = 0.05890 0.56360
#
# Static dielectric constant tensor:
#      x y z
#    x 1.770030 0.000000 0.000000 
#    y 0.000000 1.816920 0.000000 
#    z 0.000000 0.000000 1.831390 
# 
# From -- ./inp_files/17372.got.cif
#   From: 2010.05.17/outbox.cif.g08.bks.cpg/sg73_9_cif.got.tgz:17372.got - 2010.06.03 17:35:07.
