data_PCOD9533381
_publ_section_title
;
Structure prediction by ZEFSAII (Michael W. Deem and Ramdas Pophale) SiO2 
 PCOD9533381
Probable space group: I B C A 
;
_chemical_formula_sum "Si O2"
_cell_formula_units_Z 104
_cell_length_a 19.543256
_cell_length_b 8.403908
_cell_length_c 28.673338
_cell_angle_alpha 90.000000
_cell_angle_beta 90.000000
_cell_angle_gamma 90.000000
_cell_volume 4709.301161
_symmetry_space_group_name_H-M "I B C A "
_symmetry_group_IT_number 73
_symmetry_cell_setting 'orthorhombic'
loop_
_space_group_symop_operation_xyz
x,y,z
-x,1/2-y,z
x,-y,1/2-z
1/2-x,y,-z
-x,-y,-z
x,1/2+y,-z
-x,y,1/2+z
1/2+x,-y,z
1/2+x,1/2+y,1/2+z
1/2-x,-y,1/2+z
1/2+x,1/2-y,-z
-x,1/2+y,1/2-z
1/2-x,1/2-y,1/2-z
1/2+x,y,1/2-z
1/2-x,1/2+y,z
x,1/2-y,1/2+z
loop_
_atom_site_type_symbol
_atom_site_label
_atom_site_fract_x
_atom_site_fract_y
_atom_site_fract_z
Si Si1 0.178072 0.686107 0.732271
Si Si2 0.073551 0.833368 0.577475
Si Si3 0.414508 0.500000 0.750000
Si Si4 0.943268 0.614267 0.848966
Si Si5 0.666916 0.693646 0.604080
Si Si6 0.944101 0.623493 0.476711
Si Si7 0.801745 0.153307 0.876903
O O1 0.164219 0.500000 0.750000
O O2 0.250000 0.750000 0.750000
O O3 0.189939 0.696827 0.676905
O O4 0.125004 0.829236 0.745210
O O5 0.097834 0.850504 0.524227
O O6 0.130077 0.724604 0.600742
O O7 0.000000 0.750000 0.574962
O O8 0.060066 0.989365 0.608374
O O9 0.451990 0.476226 0.799802
O O10 0.872469 0.708511 0.856006
O O11 0.000000 0.750000 0.852708
O O12 0.612775 0.634887 0.564340
O O13 0.734707 0.795578 0.593758
O O14 0.698004 0.534795 0.624125
O O15 0.000000 0.750000 0.460786
O O16 0.000000 0.500000 0.500000
#
# Coordination Sequence:
#
# PCOD9533381 Si02
#       7
#    16  16   8  16  16  16  16
#     4  12  24  43  73 103 145 199 253 305 379 467
#     4  11  24  45  75 103 143 191 246 305 375 457
#     4  12  26  46  70 108 148 200 258 306 388 458
#     4  12  25  47  71 104 150 195 254 318 384 458
#     4  12  26  44  72 106 146 193 246 315 385 455
#     4  11  23  45  74 105 137 190 248 295 376 466
#     4  12  25  45  68 105 143 185 245 311 377 446
#
# _framework density 22.083957999999999
#
# number of rings (size 3 to 8) (size 9 to 14) (size 15 to 20)
#    0.000    0.308    2.308    8.769    0.000    1.231 
#    4.154    1.538    0.000    0.000    0.000    0.000 
#    0.000    0.000    0.000    0.000    0.000    0.000 
#
# Total GULP energy -289596.876060 kJ/mol
# GULP energy per Si atom -5569.170693 kJ/mol
# Density = 2.203369 g / cm^3
# Si number density = 22.083958 Si / 1000 Ang^3
#
#
#
# Elastic Constant Matrix: (Units=GPa)
#
#
# Indices 1 2 3 4 5 6 
#
# 1 55.2205 8.5386 4.8357 0.0000 0.0000 0.0000
# 2 8.5386 107.3062 11.2038 0.0000 0.0000 0.0000
# 3 4.8357 11.2038 132.3463 0.0000 0.0000 0.0000
# 4 0.0000 0.0000 0.0000 47.0990 0.0000 0.0000
# 5 0.0000 0.0000 0.0000 0.0000 29.5077 0.0000
# 6 0.0000 0.0000 0.0000 0.0000 0.0000 19.7578
#
#
#
# Elastic Compliance Matrix: (Units=1/GPa)
#
#
# Indices 1 2 3 4 5 6 
#
# 1 0.018375 -0.001404 -0.000552 0.000000 0.000000 0.000000
# 2 -0.001404 0.009510 -0.000754 0.000000 0.000000 0.000000
# 3 -0.000552 -0.000754 0.007640 0.000000 0.000000 0.000000
# 4 0.000000 0.000000 0.000000 0.021232 0.000000 0.000000
# 5 0.000000 0.000000 0.000000 0.000000 0.033890 0.000000
# 6 0.000000 0.000000 0.000000 0.000000 0.000000 0.050613
#
#
# Mechanical properties :
#
#
# Convention : Reuss Voigt Hill
#
# Bulk Modulus (GPa) = 33.21932 38.22548 35.72240
# Shear Modulus (GPa) = 31.90523 37.29256 34.59889
#
# Velocity S-wave (km/s) = 3.80508 4.11380 3.96245
# Velocity P-wave (km/s) = 5.86342 6.31753 6.09471
#
# Compressibility (1/GPa) = 0.03010297
#
# Stress axis : x y z
#
# Youngs Moduli (GPa) = 54.42245 105.15719 130.89126
#
# Poissons Ratio (x) = 0.14769 0.07232
# Poissons Ratio (y) = 0.07643 0.09866
# Poissons Ratio (z) = 0.03007 0.07926
#
# Static dielectric constant tensor:
#      x y z
#    x 1.819300 0.000000 0.000000 
#    y 0.000000 1.954900 0.000000 
#    z 0.000000 0.000000 1.788690 
# 
# From -- ./inp_files/32690.got.cif
#   From: 2010.05.17/outbox.cif.g08.bks.cpg/sg73_17_cif.got.tgz:32690.got - 2010.06.03 17:35:07.
