data_PCOD9533423
_publ_section_title
;
Structure prediction by ZEFSAII (Michael W. Deem and Ramdas Pophale) SiO2 
 PCOD9533423
Probable space group: I B C A 
;
_chemical_formula_sum "Si O2"
_cell_formula_units_Z 88
_cell_length_a 25.373266
_cell_length_b 11.694403
_cell_length_c 13.721239
_cell_angle_alpha 90.000000
_cell_angle_beta 90.000000
_cell_angle_gamma 90.000000
_cell_volume 4071.437359
_symmetry_space_group_name_H-M "I B C A "
_symmetry_group_IT_number 73
_symmetry_cell_setting 'orthorhombic'
loop_
_space_group_symop_operation_xyz
x,y,z
-x,1/2-y,z
x,-y,1/2-z
1/2-x,y,-z
-x,-y,-z
x,1/2+y,-z
-x,y,1/2+z
1/2+x,-y,z
1/2+x,1/2+y,1/2+z
1/2-x,-y,1/2+z
1/2+x,1/2-y,-z
-x,1/2+y,1/2-z
1/2-x,1/2-y,1/2-z
1/2+x,y,1/2-z
1/2-x,1/2+y,z
x,1/2-y,1/2+z
loop_
_atom_site_type_symbol
_atom_site_label
_atom_site_fract_x
_atom_site_fract_y
_atom_site_fract_z
Si Si1 0.307265 0.386147 0.976510
Si Si2 0.083766 0.005801 0.963169
Si Si3 0.863753 0.713402 0.604925
Si Si4 0.216242 0.868607 0.757456
Si Si5 0.966371 0.500000 0.750000
Si Si6 0.037986 0.650331 0.627335
O O1 0.358203 0.461891 0.990794
O O2 0.306855 0.356853 0.864286
O O3 0.250000 0.437102 0.000000
O O4 0.319060 0.277227 0.043475
O O5 0.096266 0.140502 0.961689
O O6 0.066012 0.978086 0.850873
O O7 0.047156 0.945877 0.044010
O O8 0.831437 0.636976 0.680393
O O9 0.904419 0.801322 0.655050
O O10 0.250000 0.750000 0.750000
O O11 0.239984 0.000000 0.750000
O O12 0.005504 0.601365 0.718349
O O13 0.000000 0.750000 0.588378
#
# Coordination Sequence:
#
# PCOD9533423 Si02
#       6
#    16  16  16  16   8  16
#     4  11  24  43  71 103 140 188 231 291 354 426
#     4  11  24  45  72  99 141 184 233 294 357 435
#     4  11  24  45  69 104 138 186 243 289 363 433
#     4  12  25  47  73 105 144 193 245 300 367 435
#     4  12  24  46  70 100 142 184 232 292 364 424
#     4  11  26  44  69 103 138 179 242 292 359 427
#
# _framework density 21.613989
#
# number of rings (size 3 to 8) (size 9 to 14) (size 15 to 20)
#    0.000    0.727    5.455    1.636    0.000    4.364 
#    1.636    0.000    0.000    0.000    0.000    0.000 
#    0.000    0.000    0.000    0.000    0.000    0.000 
#
# Total GULP energy -245044.101410 kJ/mol
# GULP energy per Si atom -5569.184123 kJ/mol
# Density = 2.156479 g / cm^3
# Si number density = 21.613989 Si / 1000 Ang^3
#
#
#
# Elastic Constant Matrix: (Units=GPa)
#
#
# Indices 1 2 3 4 5 6 
#
# 1 87.4414 41.7970 6.4059 0.0000 0.0000 0.0000
# 2 41.7970 71.4350 -1.6666 0.0000 0.0000 0.0000
# 3 6.4059 -1.6666 40.7692 0.0000 0.0000 0.0000
# 4 0.0000 0.0000 0.0000 23.6212 0.0000 0.0000
# 5 0.0000 0.0000 0.0000 0.0000 102.2446 0.0000
# 6 0.0000 0.0000 0.0000 0.0000 0.0000 32.8944
#
#
#
# Elastic Compliance Matrix: (Units=1/GPa)
#
#
# Indices 1 2 3 4 5 6 
#
# 1 0.016221 -0.009560 -0.002940 0.000000 0.000000 0.000000
# 2 -0.009560 0.019646 0.002305 0.000000 0.000000 0.000000
# 3 -0.002940 0.002305 0.025084 0.000000 0.000000 0.000000
# 4 0.000000 0.000000 0.000000 0.042335 0.000000 0.000000
# 5 0.000000 0.000000 0.000000 0.000000 0.009780 0.000000
# 6 0.000000 0.000000 0.000000 0.000000 0.000000 0.030400
#
#
# Mechanical properties :
#
#
# Convention : Reuss Voigt Hill
#
# Bulk Modulus (GPa) = 24.65276 32.52424 28.58850
# Shear Modulus (GPa) = 28.18869 41.95933 35.07401
#
# Velocity S-wave (km/s) = 3.61527 4.41080 4.03270
# Velocity P-wave (km/s) = 5.37193 6.40474 5.91093
#
# Compressibility (1/GPa) = 0.04056340
#
# Stress axis : x y z
#
# Youngs Moduli (GPa) = 61.64827 50.90126 39.86541
#
# Poissons Ratio (x) = 0.48660 0.11719
# Poissons Ratio (y) = 0.58933 -0.09190
# Poissons Ratio (z) = 0.18122 -0.11734
#
# Static dielectric constant tensor:
#      x y z
#    x 1.915850 0.000000 0.000000 
#    y 0.000000 1.943400 0.000000 
#    z 0.000000 0.000000 2.146330 
# 
# From -- ./inp_files/19236.got.cif
#   From: 2010.05.17/outbox.cif.g08.bks.cpg/sg73_10_cif.got.tgz:19236.got - 2010.06.03 17:35:07.
