data_PCOD9533288
_publ_section_title
;
Structure prediction by ZEFSAII (Michael W. Deem and Ramdas Pophale) SiO2 
 PCOD9533288
Probable space group: I B C A 
;
_chemical_formula_sum "Si O2"
_cell_formula_units_Z 88
_cell_length_a 21.444374
_cell_length_b 19.585612
_cell_length_c 9.548868
_cell_angle_alpha 90.000000
_cell_angle_beta 90.000000
_cell_angle_gamma 90.000000
_cell_volume 4010.535911
_symmetry_space_group_name_H-M "I B C A "
_symmetry_group_IT_number 73
_symmetry_cell_setting 'orthorhombic'
loop_
_space_group_symop_operation_xyz
x,y,z
-x,1/2-y,z
x,-y,1/2-z
1/2-x,y,-z
-x,-y,-z
x,1/2+y,-z
-x,y,1/2+z
1/2+x,-y,z
1/2+x,1/2+y,1/2+z
1/2-x,-y,1/2+z
1/2+x,1/2-y,-z
-x,1/2+y,1/2-z
1/2-x,1/2-y,1/2-z
1/2+x,y,1/2-z
1/2-x,1/2+y,z
x,1/2-y,1/2+z
loop_
_atom_site_type_symbol
_atom_site_label
_atom_site_fract_x
_atom_site_fract_y
_atom_site_fract_z
Si Si1 0.171218 0.314259 0.281999
Si Si2 0.500000 0.250000 0.978801
Si Si3 0.607558 0.856726 0.052409
Si Si4 0.196441 0.341026 0.785037
Si Si5 0.564218 0.503132 0.418554
Si Si6 0.106112 0.353847 0.021190
O O1 0.152876 0.317785 0.443669
O O2 0.232408 0.359155 0.247584
O O3 0.187439 0.237485 0.240181
O O4 0.113458 0.333554 0.183719
O O5 0.448643 0.304696 0.042257
O O6 0.451432 0.193173 0.915317
O O7 0.591758 0.924847 0.966872
O O8 0.645219 0.878345 0.189961
O O9 0.171390 0.343013 0.942152
O O10 0.559260 0.500000 0.250000
O O11 0.500000 0.500000 0.500000
O O12 0.596467 0.434548 0.474691
#
# Coordination Sequence:
#
# PCOD9533288 Si02
#       6
#    16   8  16  16  16  16
#     4  11  22  45  68 101 139 176 230 282 340 395
#     4  12  24  40  70 102 132 168 228 280 348 400
#     4  12  25  43  69 102 137 177 226 285 342 414
#     4  11  24  41  72 103 133 180 228 286 336 405
#     4  12  28  46  67  99 146 182 221 278 352 416
#     4  12  25  43  69 102 137 177 226 285 342 414
#
# _framework density 21.942204
#
# number of rings (size 3 to 8) (size 9 to 14) (size 15 to 20)
#    0.000    0.364    7.273    1.091    2.545    5.818 
#    0.000    5.455    0.000    0.000    0.000    0.000 
#    0.000    0.000    0.000    0.000    0.000    0.000 
#
# Total GULP energy -245157.784998 kJ/mol
# GULP energy per Si atom -5571.767841 kJ/mol
# Density = 2.189226 g / cm^3
# Si number density = 21.942204 Si / 1000 Ang^3
#
#
#
# Elastic Constant Matrix: (Units=GPa)
#
#
# Indices 1 2 3 4 5 6 
#
# 1 86.1395 18.4160 7.8346 0.0000 0.0000 0.0000
# 2 18.4160 114.9857 17.2177 0.0000 0.0000 0.0000
# 3 7.8346 17.2177 71.0349 0.0000 0.0000 0.0000
# 4 0.0000 0.0000 0.0000 28.0296 0.0000 0.0000
# 5 0.0000 0.0000 0.0000 0.0000 24.5582 0.0000
# 6 0.0000 0.0000 0.0000 0.0000 0.0000 11.3383
#
#
#
# Elastic Compliance Matrix: (Units=1/GPa)
#
#
# Indices 1 2 3 4 5 6 
#
# 1 0.012075 -0.001800 -0.000896 0.000000 0.000000 0.000000
# 2 -0.001800 0.009293 -0.002054 0.000000 0.000000 0.000000
# 3 -0.000896 -0.002054 0.014674 0.000000 0.000000 0.000000
# 4 0.000000 0.000000 0.000000 0.035677 0.000000 0.000000
# 5 0.000000 0.000000 0.000000 0.000000 0.040720 0.000000
# 6 0.000000 0.000000 0.000000 0.000000 0.000000 0.088197
#
#
# Mechanical properties :
#
#
# Convention : Reuss Voigt Hill
#
# Bulk Modulus (GPa) = 37.67400 39.89962 38.78681
# Shear Modulus (GPa) = 22.83301 28.03133 25.43217
#
# Velocity S-wave (km/s) = 3.22933 3.57810 3.40818
# Velocity P-wave (km/s) = 5.57779 5.94086 5.76218
#
# Compressibility (1/GPa) = 0.02654350
#
# Stress axis : x y z
#
# Youngs Moduli (GPa) = 82.81351 107.61320 68.14692
#
# Poissons Ratio (x) = 0.19369 0.06103
# Poissons Ratio (y) = 0.14905 0.13996
# Poissons Ratio (z) = 0.07416 0.22102
#
# Static dielectric constant tensor:
#      x y z
#    x 1.863090 0.000000 0.000000 
#    y 0.000000 1.728750 0.000000 
#    z 0.000000 0.000000 1.812640 
# 
# From -- ./inp_files/6303.got.cif
#   From: 2010.05.17/outbox.cif.g08.bks.cpg/sg73_4_cif.got.tgz:6303.got - 2010.06.03 17:35:07.
