data_PCOD9533820
_publ_section_title
;
Structure prediction by ZEFSAII (Michael W. Deem and Ramdas Pophale) SiO2 
 PCOD9533820
Probable space group: I M M A
;
_chemical_formula_sum "Si O2"
_cell_formula_units_Z 96
_cell_length_a 25.667101
_cell_length_b 22.723931
_cell_length_c 7.151482
_cell_angle_alpha 90.000000
_cell_angle_beta 90.000000
_cell_angle_gamma 90.000000
_cell_volume 4171.155027
_symmetry_space_group_name_H-M "I M M A"
_symmetry_group_IT_number 74
_symmetry_cell_setting 'orthorhombic'
loop_
_space_group_symop_operation_xyz
x,y,z
-x,1/2-y,z
x,-y,-z
-x,1/2+y,-z
-x,-y,-z
x,1/2+y,-z
-x,y,z
x,1/2-y,z
1/2+x,1/2+y,1/2+z
1/2-x,-y,1/2+z
1/2+x,1/2-y,1/2-z
1/2-x,y,1/2-z
1/2-x,1/2-y,1/2-z
1/2+x,y,1/2-z
1/2-x,1/2+y,1/2+z
1/2+x,-y,1/2+z
loop_
_atom_site_type_symbol
_atom_site_label
_atom_site_fract_x
_atom_site_fract_y
_atom_site_fract_z
Si Si1 0.832165 0.163916 0.868195
Si Si2 0.440833 0.928949 0.948557
Si Si3 0.279933 0.185989 0.035970
Si Si4 0.810184 0.546518 0.246912
Si Si5 0.664771 0.077198 0.174984
Si Si6 0.940554 0.183764 0.733232
O O1 0.781175 0.183532 0.982113
O O2 0.812683 0.178657 0.656714
O O3 0.836198 0.093400 0.886990
O O4 0.891669 0.184595 0.876314
O O5 0.500000 0.923157 0.882290
O O6 0.396410 0.915589 0.797149
O O7 0.434208 0.875710 0.103927
O O8 0.435417 0.000000 0.000000
O O9 0.292442 0.250000 0.112324
O O10 0.301257 0.135242 0.169780
O O11 0.750000 0.563521 0.250000
O O12 0.813617 0.477751 0.210953
O O13 0.831750 0.557928 0.454607
O O14 0.937668 0.250000 0.640285
O O15 0.000000 0.179714 0.808085
#
# Coordination Sequence:
#
# PCOD9533820 Si02
#       6
#    16  16  16  16  16  16
#     4  10  15  25  38  56  78 106 130 164 196 235
#     4  10  17  25  36  51  76 108 136 159 186 232
#     4  10  17  24  38  58  79 106 131 160 198 240
#     4  10  16  27  39  57  80 101 132 170 200 234
#     4  10  17  26  40  58  80 108 132 168 198 234
#     4  10  18  25  35  53  80 109 134 162 198 240
#
# _framework density 23.015207
#
# number of rings (size 3 to 8) (size 9 to 14) (size 15 to 20)
#    0.000    2.000    8.333    2.000    0.000    0.000 
#    0.000    0.000    0.000    0.500    0.000    0.000 
#    0.000    5.333    0.000    0.000    0.000    0.000 
#
# Total GULP energy -267310.072850 kJ/mol
# GULP energy per Si atom -5568.959851 kJ/mol
# Density = 2.296282 g / cm^3
# Si number density = 23.015207 Si / 1000 Ang^3
#
#
#
# Elastic Constant Matrix: (Units=GPa)
#
#
# Indices 1 2 3 4 5 6 
#
# 1 203.7747 49.8937 4.1685 0.0000 0.0000 0.0000
# 2 49.8937 231.8957 19.2785 0.0000 0.0000 0.0000
# 3 4.1685 19.2785 24.5416 0.0000 0.0000 0.0000
# 4 0.0000 0.0000 0.0000 20.2703 0.0000 0.0000
# 5 0.0000 0.0000 0.0000 0.0000 10.9717 0.0000
# 6 0.0000 0.0000 0.0000 0.0000 0.0000 26.4721
#
#
#
# Elastic Compliance Matrix: (Units=1/GPa)
#
#
# Indices 1 2 3 4 5 6 
#
# 1 0.005180 -0.001114 -0.000005 0.000000 0.000000 0.000000
# 2 -0.001114 0.004853 -0.003623 0.000000 0.000000 0.000000
# 3 -0.000005 -0.003623 0.043594 0.000000 0.000000 0.000000
# 4 0.000000 0.000000 0.000000 0.049333 0.000000 0.000000
# 5 0.000000 0.000000 0.000000 0.000000 0.091143 0.000000
# 6 0.000000 0.000000 0.000000 0.000000 0.000000 0.037776
#
#
# Mechanical properties :
#
#
# Convention : Reuss Voigt Hill
#
# Bulk Modulus (GPa) = 22.65338 67.43261 45.04299
# Shear Modulus (GPa) = 19.52527 37.33425 28.42976
#
# Velocity S-wave (km/s) = 2.91583 4.03197 3.51844
# Velocity P-wave (km/s) = 4.60437 7.14412 6.00994
#
# Compressibility (1/GPa) = 0.04414352
#
# Stress axis : x y z
#
# Youngs Moduli (GPa) = 193.03981 206.04899 22.93892
#
# Poissons Ratio (x) = 0.22958 0.00011
# Poissons Ratio (y) = 0.21508 0.08311
# Poissons Ratio (z) = 0.00090 0.74655
#
# Static dielectric constant tensor:
#      x y z
#    x 1.947360 0.000000 0.000000 
#    y 0.000000 1.949250 0.000000 
#    z 0.000000 0.000000 1.895660 
# 
# From -- ./inp_files/25492.got.cif
#   From: 2010.05.17/outbox.cif.g08.bks.cpg/sg74_13_cif.got.tgz:25492.got - 2010.06.03 17:57:02.
