data_PCOD9533060
_publ_section_title
;
Structure prediction by ZEFSAII (Michael W. Deem and Ramdas Pophale) SiO2 
 PCOD9533060
Probable space group: I B C A 
;
_chemical_formula_sum "Si O2"
_cell_formula_units_Z 72
_cell_length_a 12.191979
_cell_length_b 13.048320
_cell_length_c 19.144575
_cell_angle_alpha 90.000000
_cell_angle_beta 90.000000
_cell_angle_gamma 90.000000
_cell_volume 3045.611716
_symmetry_space_group_name_H-M "I B C A "
_symmetry_group_IT_number 73
_symmetry_cell_setting 'orthorhombic'
loop_
_space_group_symop_operation_xyz
x,y,z
-x,1/2-y,z
x,-y,1/2-z
1/2-x,y,-z
-x,-y,-z
x,1/2+y,-z
-x,y,1/2+z
1/2+x,-y,z
1/2+x,1/2+y,1/2+z
1/2-x,-y,1/2+z
1/2+x,1/2-y,-z
-x,1/2+y,1/2-z
1/2-x,1/2-y,1/2-z
1/2+x,y,1/2-z
1/2-x,1/2+y,z
x,1/2-y,1/2+z
loop_
_atom_site_type_symbol
_atom_site_label
_atom_site_fract_x
_atom_site_fract_y
_atom_site_fract_z
Si Si1 0.603866 0.047319 0.450904
Si Si2 0.562193 0.641788 0.139567
Si Si3 0.325367 0.363863 0.136767
Si Si4 0.943637 0.500000 0.250000
Si Si5 0.201049 0.671744 0.068494
O O1 0.487589 0.093372 0.431056
O O2 0.692711 0.112241 0.403494
O O3 0.629736 0.933549 0.426775
O O4 0.367728 0.915174 0.471359
O O5 0.500000 0.750000 0.149187
O O6 0.693243 0.644408 0.138458
O O7 0.520073 0.564353 0.198438
O O8 0.371577 0.419703 0.205116
O O9 0.358244 0.246113 0.121186
O O10 0.250000 0.732354 0.000000
#
# Coordination Sequence:
#
# PCOD9533060 Si02
#       5
#    16  16  16   8  16
#     4   8  20  36  59  92 123 157 206 251 316 373
#     4  11  20  42  63  91 123 164 220 254 312 380
#     4  11  20  40  66  87 130 169 203 263 316 371
#     4  10  26  40  60  96 124 170 214 264 310 364
#     4   8  18  35  59  88 119 162 194 244 317 369
#
# _framework density 23.640571000000001
#
# number of rings (size 3 to 8) (size 9 to 14) (size 15 to 20)
#    1.333    0.889    2.222    0.667    3.111    0.889 
#    4.000    8.889    0.000    0.000    0.000    0.000 
#    0.000    0.000    0.000    0.000    0.000    0.000 
#
# Total GULP energy -200835.857263 kJ/mol
# GULP energy per Si atom -5578.773813 kJ/mol
# Density = 2.358676 g / cm^3
# Si number density = 23.640571 Si / 1000 Ang^3
#
#
#
# Elastic Constant Matrix: (Units=GPa)
#
#
# Indices 1 2 3 4 5 6 
#
# 1 63.4115 -7.9525 37.9905 0.0000 0.0000 0.0000
# 2 -7.9525 68.7248 11.5949 0.0000 0.0000 0.0000
# 3 37.9905 11.5949 58.3103 0.0000 0.0000 0.0000
# 4 0.0000 0.0000 0.0000 -22.4163 0.0000 0.0000
# 5 0.0000 0.0000 0.0000 0.0000 15.1050 0.0000
# 6 0.0000 0.0000 0.0000 0.0000 0.0000 34.6518
#
#
#
# Elastic Compliance Matrix: (Units=1/GPa)
#
#
# Indices 1 2 3 4 5 6 
#
# 1 0.028539 0.006663 -0.019919 0.000000 0.000000 0.000000
# 2 0.006663 0.016612 -0.007644 0.000000 0.000000 0.000000
# 3 -0.019919 -0.007644 0.031647 0.000000 0.000000 0.000000
# 4 0.000000 0.000000 0.000000 -0.044610 0.000000 0.000000
# 5 0.000000 0.000000 0.000000 0.000000 0.066203 0.000000
# 6 0.000000 0.000000 0.000000 0.000000 0.000000 0.028859
#
#
# Mechanical properties :
#
#
# Convention : Reuss Voigt Hill
#
# Bulk Modulus (GPa) = 28.57325 30.41248 29.49286
# Shear Modulus (GPa) = 27.66776 15.38901 21.52838
#
# Velocity S-wave (km/s) = 3.42475 2.55415 3.02098
# Velocity P-wave (km/s) = 5.26795 4.64658 4.96699
#
# Compressibility (1/GPa) = 0.03499777
#
# Stress axis : x y z
#
# Youngs Moduli (GPa) = 35.03943 60.19913 31.59822
#
# Poissons Ratio (x) = -0.40111 0.62940
# Poissons Ratio (y) = -0.23347 0.24155
# Poissons Ratio (z) = 0.69795 0.46018
#
# Static dielectric constant tensor:
#      x y z
#    x 1.945030 0.000000 0.000000 
#    y 0.000000 1.907210 0.000000 
#    z 0.000000 0.000000 1.952870 
# 
# From -- ./inp_files/31631.got.cif
#   From: 2010.05.17/outbox.cif.g08.bks.cpg/sg73_16_cif.got.tgz:31631.got - 2010.06.03 17:35:07.
