data_PCOD9533293
_publ_section_title
;
Structure prediction by ZEFSAII (Michael W. Deem and Ramdas Pophale) SiO2 
 PCOD9533293
Probable space group: I B C A 
;
_chemical_formula_sum "Si O2"
_cell_formula_units_Z 96
_cell_length_a 17.621000
_cell_length_b 22.387408
_cell_length_c 11.741085
_cell_angle_alpha 90.000000
_cell_angle_beta 90.000000
_cell_angle_gamma 90.000000
_cell_volume 4631.723202
_symmetry_space_group_name_H-M "I B C A "
_symmetry_group_IT_number 73
_symmetry_cell_setting 'orthorhombic'
loop_
_space_group_symop_operation_xyz
x,y,z
-x,1/2-y,z
x,-y,1/2-z
1/2-x,y,-z
-x,-y,-z
x,1/2+y,-z
-x,y,1/2+z
1/2+x,-y,z
1/2+x,1/2+y,1/2+z
1/2-x,-y,1/2+z
1/2+x,1/2-y,-z
-x,1/2+y,1/2-z
1/2-x,1/2-y,1/2-z
1/2+x,y,1/2-z
1/2-x,1/2+y,z
x,1/2-y,1/2+z
loop_
_atom_site_type_symbol
_atom_site_label
_atom_site_fract_x
_atom_site_fract_y
_atom_site_fract_z
Si Si1 0.172796 0.531409 0.049332
Si Si2 0.076183 0.916514 0.948480
Si Si3 0.144576 0.147391 0.339377
Si Si4 0.591307 0.868245 0.085919
Si Si5 0.171236 0.779666 0.570450
Si Si6 0.809046 0.380710 0.742610
O O1 0.104024 0.484943 0.057966
O O2 0.185181 0.563628 0.170431
O O3 0.250000 0.502488 0.000000
O O4 0.152642 0.583945 0.960373
O O5 0.125639 0.884134 0.851121
O O6 0.989285 0.899868 0.929129
O O7 0.099487 0.892887 0.072116
O O8 0.105836 0.147845 0.216135
O O9 0.151208 0.213524 0.390549
O O10 0.228685 0.121616 0.319868
O O11 0.606617 0.810453 0.007324
O O12 0.250000 0.779331 0.500000
O O13 0.183376 0.821804 0.679908
#
# Coordination Sequence:
#
# PCOD9533293 Si02
#       6
#    16  16  16  16  16  16
#     4  11  22  48  74  99 140 193 238 294 345 426
#     4  12  28  41  68 106 144 183 240 287 360 425
#     4  12  25  45  72 104 138 185 243 292 346 434
#     4  11  26  47  65 106 143 188 231 293 369 416
#     4  11  23  45  75  99 139 188 237 292 350 423
#     4  11  22  45  73 104 139 185 239 292 348 423
#
# _framework density 20.726628000000002
#
# number of rings (size 3 to 8) (size 9 to 14) (size 15 to 20)
#    0.000    0.667    3.333    5.000    7.000    1.333 
#    3.000    0.000    0.000    0.000    0.000    0.000 
#    0.000    0.000    0.000    0.000    0.000    0.000 
#
# Total GULP energy -268678.577983 kJ/mol
# GULP energy per Si atom -5597.470375 kJ/mol
# Density = 2.067945 g / cm^3
# Si number density = 20.726628 Si / 1000 Ang^3
#
#
#
# Elastic Constant Matrix: (Units=GPa)
#
#
# Indices 1 2 3 4 5 6 
#
# 1 108.5869 25.4760 30.5658 0.0000 0.0000 0.0000
# 2 25.4760 112.1952 27.9250 0.0000 0.0000 0.0000
# 3 30.5658 27.9250 99.7748 0.0000 0.0000 0.0000
# 4 0.0000 0.0000 0.0000 13.6125 0.0000 0.0000
# 5 0.0000 0.0000 0.0000 0.0000 12.7153 0.0000
# 6 0.0000 0.0000 0.0000 0.0000 0.0000 44.2815
#
#
#
# Elastic Compliance Matrix: (Units=1/GPa)
#
#
# Indices 1 2 3 4 5 6 
#
# 1 0.010365 -0.001680 -0.002705 0.000000 0.000000 0.000000
# 2 -0.001680 0.009853 -0.002243 0.000000 0.000000 0.000000
# 3 -0.002705 -0.002243 0.011479 0.000000 0.000000 0.000000
# 4 0.000000 0.000000 0.000000 0.073462 0.000000 0.000000
# 5 0.000000 0.000000 0.000000 0.000000 0.078645 0.000000
# 6 0.000000 0.000000 0.000000 0.000000 0.000000 0.022583
#
#
# Mechanical properties :
#
#
# Convention : Reuss Voigt Hill
#
# Bulk Modulus (GPa) = 54.22870 54.27671 54.25270
# Shear Modulus (GPa) = 22.14452 29.89454 26.01953
#
# Velocity S-wave (km/s) = 3.27220 3.80192 3.54696
# Velocity P-wave (km/s) = 6.36372 6.74660 6.55795
#
# Compressibility (1/GPa) = 0.01844042
#
# Stress axis : x y z
#
# Youngs Moduli (GPa) = 96.47998 101.49385 87.11587
#
# Poissons Ratio (x) = 0.17054 0.23565
# Poissons Ratio (y) = 0.16211 0.19539
# Poissons Ratio (z) = 0.26098 0.22764
#
# Static dielectric constant tensor:
#      x y z
#    x 1.736610 0.000000 0.000000 
#    y 0.000000 1.737680 0.000000 
#    z 0.000000 0.000000 1.708980 
# 
# From -- ./inp_files/12008.got.cif
#   From: 2010.05.17/outbox.cif.g08.bks.cpg/sg73_7_cif.got.tgz:12008.got - 2010.06.03 17:35:07.
