data_PCOD9533534
_publ_section_title
;
Structure prediction by ZEFSAII (Michael W. Deem and Ramdas Pophale) SiO2 
 PCOD9533534
Probable space group: I B C A 
;
_chemical_formula_sum "Si O2"
_cell_formula_units_Z 88
_cell_length_a 13.337925
_cell_length_b 21.623991
_cell_length_c 14.122634
_cell_angle_alpha 90.000000
_cell_angle_beta 90.000000
_cell_angle_gamma 90.000000
_cell_volume 4073.238379
_symmetry_space_group_name_H-M "I B C A "
_symmetry_group_IT_number 73
_symmetry_cell_setting 'orthorhombic'
loop_
_space_group_symop_operation_xyz
x,y,z
-x,1/2-y,z
x,-y,1/2-z
1/2-x,y,-z
-x,-y,-z
x,1/2+y,-z
-x,y,1/2+z
1/2+x,-y,z
1/2+x,1/2+y,1/2+z
1/2-x,-y,1/2+z
1/2+x,1/2-y,-z
-x,1/2+y,1/2-z
1/2-x,1/2-y,1/2-z
1/2+x,y,1/2-z
1/2-x,1/2+y,z
x,1/2-y,1/2+z
loop_
_atom_site_type_symbol
_atom_site_label
_atom_site_fract_x
_atom_site_fract_y
_atom_site_fract_z
Si Si1 0.780353 0.636185 0.610194
Si Si2 0.750000 0.358035 0.500000
Si Si3 0.891123 0.233858 0.882298
Si Si4 0.935630 0.916429 0.418806
Si Si5 0.026158 0.444070 0.374525
Si Si6 0.577609 0.637518 0.723428
O O1 0.750000 0.630171 0.500000
O O2 0.827343 0.703925 0.626873
O O3 0.866798 0.588395 0.637079
O O4 0.682112 0.626322 0.672034
O O5 0.673356 0.314197 0.556432
O O6 0.819416 0.399885 0.567438
O O7 0.914628 0.200280 0.783171
O O8 0.000000 0.250000 0.925931
O O9 0.984513 0.923598 0.522663
O O10 0.991433 0.865107 0.356194
O O11 0.957317 0.982810 0.371855
O O12 0.950600 0.415667 0.298483
#
# Coordination Sequence:
#
# PCOD9533534 Si02
#       6
#    16   8  16  16  16  16
#     4  12  25  48  76 109 147 204 252 310 384 454
#     4  12  26  46  78 108 144 204 256 310 378 452
#     4  12  26  49  72 107 153 193 258 311 379 456
#     4  11  26  47  74 109 150 197 246 317 372 448
#     4  11  25  49  73 109 151 195 251 307 380 442
#     4  12  26  46  74 109 150 194 249 312 373 455
#
# _framework density 21.604431000000002
#
# number of rings (size 3 to 8) (size 9 to 14) (size 15 to 20)
#    0.000    0.364    6.364    1.091    3.818    1.455 
#    3.273    0.000    0.000    0.000    0.000    0.000 
#    0.000    0.000    0.000    0.000    0.000    0.000 
#
# Total GULP energy -246374.019136 kJ/mol
# GULP energy per Si atom -5599.409526 kJ/mol
# Density = 2.155526 g / cm^3
# Si number density = 21.604431 Si / 1000 Ang^3
#
#
#
# Elastic Constant Matrix: (Units=GPa)
#
#
# Indices 1 2 3 4 5 6 
#
# 1 162.2027 53.6749 55.2583 -0.0001 0.0000 0.0000
# 2 53.6749 28.5424 40.2909 -0.0003 -0.0001 0.0001
# 3 55.2583 40.2909 98.1876 -0.0004 0.0000 0.0001
# 4 -0.0001 -0.0003 -0.0004 11.4909 0.0000 0.0001
# 5 0.0000 -0.0001 0.0000 0.0000 50.8735 0.0000
# 6 0.0000 0.0001 0.0001 0.0001 0.0000 -3.1127
#
#
#
# Elastic Compliance Matrix: (Units=1/GPa)
#
#
# Indices 1 2 3 4 5 6 
#
# 1 0.019576 -0.050533 0.009719 -0.000001 0.000000 -0.000002
# 2 -0.050533 0.213714 -0.059258 0.000003 0.000000 0.000008
# 3 0.009719 -0.059258 0.029031 0.000000 0.000000 -0.000002
# 4 -0.000001 0.000003 0.000000 0.087025 0.000000 0.000004
# 5 0.000000 0.000000 0.000000 0.000000 0.019657 0.000000
# 6 -0.000002 0.000008 -0.000002 0.000004 0.000000 -0.321269
#
#
# Mechanical properties :
#
#
# Convention : Reuss Voigt Hill
#
# Bulk Modulus (GPa) = 16.08295 65.26457 40.67376
# Shear Modulus (GPa) = 18.61482 21.16426 19.88954
#
# Velocity S-wave (km/s) = 2.93852 3.13329 3.03747
# Velocity P-wave (km/s) = 4.35588 6.58517 5.58293
#
# Compressibility (1/GPa) = 0.06217766
#
# Stress axis : x y z
#
# Youngs Moduli (GPa) = 51.08254 4.67915 34.44585
#
# Poissons Ratio (x) = 0.23645 -0.33478
# Poissons Ratio (y) = 2.58136 2.04118
# Poissons Ratio (z) = -0.49647 0.27728
#
# Static dielectric constant tensor:
#      x y z
#    x 1.748980 0.000000 0.000000 
#    y 0.000000 1.784250 0.000000 
#    z 0.000000 0.000000 1.804900 
# 
# From -- ./inp_files/16103.got.cif
#   From: 2010.05.17/outbox.cif.g08.bks.cpg/sg73_9_cif.got.tgz:16103.got - 2010.06.03 17:35:07.
