data_PCOD9533995
_publ_section_title
;
Structure prediction by ZEFSAII (Michael W. Deem and Ramdas Pophale) SiO2 
 PCOD9533995
Probable space group: I M M A
;
_chemical_formula_sum "Si O2"
_cell_formula_units_Z 80
_cell_length_a 18.145677
_cell_length_b 12.167344
_cell_length_c 26.819398
_cell_angle_alpha 90.000000
_cell_angle_beta 90.000000
_cell_angle_gamma 90.000000
_cell_volume 5921.312585
_symmetry_space_group_name_H-M "I M M A"
_symmetry_group_IT_number 74
_symmetry_cell_setting 'orthorhombic'
loop_
_space_group_symop_operation_xyz
x,y,z
-x,1/2-y,z
x,-y,-z
-x,1/2+y,-z
-x,-y,-z
x,1/2+y,-z
-x,y,z
x,1/2-y,z
1/2+x,1/2+y,1/2+z
1/2-x,-y,1/2+z
1/2+x,1/2-y,1/2-z
1/2-x,y,1/2-z
1/2-x,1/2-y,1/2-z
1/2+x,y,1/2-z
1/2-x,1/2+y,1/2+z
1/2+x,-y,1/2+z
loop_
_atom_site_type_symbol
_atom_site_label
_atom_site_fract_x
_atom_site_fract_y
_atom_site_fract_z
Si Si1 0.149291 0.382062 0.850881
Si Si2 0.410557 0.250000 0.284322
Si Si3 0.910879 0.484193 0.057510
Si Si4 0.587600 0.492075 0.253940
Si Si5 0.410505 0.250000 0.398611
Si Si6 0.797356 0.874915 0.301470
O O1 0.138956 0.250000 0.846438
O O2 0.121597 0.428813 0.903332
O O3 0.106830 0.444189 0.805740
O O4 0.236306 0.405303 0.842391
O O5 0.500000 0.250000 0.285232
O O6 0.388749 0.364960 0.259749
O O7 0.385146 0.250000 0.341544
O O8 0.888166 0.362307 0.074896
O O9 0.000000 0.491864 0.060668
O O10 0.889952 0.500000 0.000000
O O11 0.500000 0.497661 0.246346
O O12 0.634078 0.547844 0.209946
O O13 0.500000 0.250000 0.398082
O O14 0.822288 0.750000 0.310027
O O15 0.750000 0.875205 0.250000
#
# Coordination Sequence:
#
# PCOD9533995 Si02
#       6
#    16   8  16  16   8  16
#     4  10  19  30  42  58  83 111 138 169 208 246
#     4   9  16  26  40  58  82 110 134 163 205 240
#     4  10  20  30  43  61  80 106 142 178 205 237
#     4  10  17  27  43  61  81 108 140 168 199 243
#     4   9  16  30  41  53  83 109 129 173 217 230
#     4   8  16  29  41  56  81 107 132 169 208 239
#
# _framework density 13.510517999999999
#
# number of rings (size 3 to 8) (size 9 to 14) (size 15 to 20)
#    0.000    2.600    2.000    2.400    1.400    2.800 
#    0.000    5.500    0.000    0.000    0.000    0.000 
#    0.000    0.800    0.000    0.000    0.000    0.000 
#
# Total GULP energy -222701.472618 kJ/mol
# GULP energy per Si atom -5567.536815 kJ/mol
# Density = 1.347977 g / cm^3
# Si number density = 13.510518 Si / 1000 Ang^3
#
#
#
# Elastic Constant Matrix: (Units=GPa)
#
#
# Indices 1 2 3 4 5 6 
#
# 1 53.0131 44.2545 28.6172 0.0000 0.0000 0.0000
# 2 44.2545 99.4538 29.2612 0.0000 0.0000 0.0000
# 3 28.6172 29.2612 48.8640 0.0000 0.0000 0.0000
# 4 0.0000 0.0000 0.0000 4.1977 0.0000 0.0000
# 5 0.0000 0.0000 0.0000 0.0000 19.2361 0.0000
# 6 0.0000 0.0000 0.0000 0.0000 0.0000 7.7278
#
#
#
# Elastic Compliance Matrix: (Units=1/GPa)
#
#
# Indices 1 2 3 4 5 6 
#
# 1 0.036660 -0.012134 -0.014204 0.000000 0.000000 0.000000
# 2 -0.012134 0.016221 -0.002608 0.000000 0.000000 0.000000
# 3 -0.014204 -0.002608 0.030345 0.000000 0.000000 0.000000
# 4 0.000000 0.000000 0.000000 0.238225 0.000000 0.000000
# 5 0.000000 0.000000 0.000000 0.000000 0.051986 0.000000
# 6 0.000000 0.000000 0.000000 0.000000 0.000000 0.129403
#
#
# Mechanical properties :
#
#
# Convention : Reuss Voigt Hill
#
# Bulk Modulus (GPa) = 39.47001 45.06633 42.26817
# Shear Modulus (GPa) = 8.78465 12.84552 10.81508
#
# Velocity S-wave (km/s) = 2.55268 3.08682 2.83237
# Velocity P-wave (km/s) = 6.16165 6.79216 6.48458
#
# Compressibility (1/GPa) = 0.02533569
#
# Stress axis : x y z
#
# Youngs Moduli (GPa) = 27.27805 61.64715 32.95443
#
# Poissons Ratio (x) = 0.74800 0.46807
# Poissons Ratio (y) = 0.33098 0.08594
# Poissons Ratio (z) = 0.38745 0.16076
#
# Static dielectric constant tensor:
#      x y z
#    x 1.439840 0.000000 0.000000 
#    y 0.000000 1.463840 0.000000 
#    z 0.000000 0.000000 1.426870 
# 
# From -- ./inp_files/58764.got.cif
#   From: 2010.05.17/outbox.cif.g08.bks.cpg/sg74_30_cif.got.tgz:58764.got - 2010.06.03 17:57:02.
