data_PCOD9533850
_publ_section_title
;
Structure prediction by ZEFSAII (Michael W. Deem and Ramdas Pophale) SiO2 
 PCOD9533850
Probable space group: I M M A
;
_chemical_formula_sum "Si O2"
_cell_formula_units_Z 80
_cell_length_a 27.323875
_cell_length_b 8.310406
_cell_length_c 20.609053
_cell_angle_alpha 90.000000
_cell_angle_beta 90.000000
_cell_angle_gamma 90.000000
_cell_volume 4679.749079
_symmetry_space_group_name_H-M "I M M A"
_symmetry_group_IT_number 74
_symmetry_cell_setting 'orthorhombic'
loop_
_space_group_symop_operation_xyz
x,y,z
-x,1/2-y,z
x,-y,-z
-x,1/2+y,-z
-x,-y,-z
x,1/2+y,-z
-x,y,z
x,1/2-y,z
1/2+x,1/2+y,1/2+z
1/2-x,-y,1/2+z
1/2+x,1/2-y,1/2-z
1/2-x,y,1/2-z
1/2-x,1/2-y,1/2-z
1/2+x,y,1/2-z
1/2-x,1/2+y,1/2+z
1/2+x,-y,1/2+z
loop_
_atom_site_type_symbol
_atom_site_label
_atom_site_fract_x
_atom_site_fract_y
_atom_site_fract_z
Si Si1 0.000000 0.945969 0.074403
Si Si2 0.741882 0.750000 0.328241
Si Si3 0.058354 0.250000 0.769004
Si Si4 0.635874 0.750000 0.387111
Si Si5 0.894842 0.572563 0.895869
Si Si6 0.390372 0.928593 0.756223
Si Si7 0.283071 0.425680 0.184596
O O1 0.000000 0.750000 0.076638
O O2 0.047760 0.028565 0.104514
O O3 0.000000 0.000000 0.000000
O O4 0.750000 0.750000 0.250000
O O5 0.685233 0.750000 0.346027
O O6 0.765606 0.584194 0.352580
O O7 0.090694 0.250000 0.835327
O O8 0.075334 0.415788 0.734487
O O9 0.000000 0.250000 0.779641
O O10 0.630552 0.584232 0.426031
O O11 0.887429 0.750000 0.923781
O O12 0.877942 0.575875 0.820767
O O13 0.411266 0.750000 0.771237
O O14 0.339299 0.946472 0.793796
O O15 0.277282 0.250000 0.152750
O O16 0.250000 0.419617 0.250000
#
# Coordination Sequence:
#
# PCOD9533850 Si02
#       7
#     8   8   8   8  16  16  16
#     4  12  24  38  50  61  73  88 123 163 208 257
#     4  10  16  24  38  56  76  96 118 136 166 210
#     4  10  18  24  34  46  66  90 118 144 180 208
#     4  10  20  28  40  60  76  98 116 146 180 226
#     4  10  19  31  44  57  73  90 112 145 187 227
#     4   9  18  27  38  55  73  93 117 143 177 223
#     4   9  15  24  37  53  73  96 116 136 164 205
#
# _framework density 17.094933999999999
#
# number of rings (size 3 to 8) (size 9 to 14) (size 15 to 20)
#    0.000    2.200    1.000    6.300    5.600    2.800 
#    0.000    0.000    0.000    0.000    0.000    0.000 
#    0.000    0.000    0.000    0.000    0.000    0.000 
#
# Total GULP energy -222723.529213 kJ/mol
# GULP energy per Si atom -5568.088230 kJ/mol
# Density = 1.705603 g / cm^3
# Si number density = 17.094934 Si / 1000 Ang^3
#
#
#
# Elastic Constant Matrix: (Units=GPa)
#
#
# Indices 1 2 3 4 5 6 
#
# 1 83.7629 61.0648 14.7711 0.0000 0.0000 0.0000
# 2 61.0648 227.5898 11.7987 0.0000 0.0000 0.0000
# 3 14.7711 11.7987 6.7650 0.0000 0.0000 0.0000
# 4 0.0000 0.0000 0.0000 9.3722 0.0000 0.0000
# 5 0.0000 0.0000 0.0000 0.0000 -18.3874 0.0000
# 6 0.0000 0.0000 0.0000 0.0000 0.0000 26.2921
#
#
#
# Elastic Compliance Matrix: (Units=1/GPa)
#
#
# Indices 1 2 3 4 5 6 
#
# 1 0.021983 -0.003749 -0.041460 0.000000 0.000000 0.000000
# 2 -0.003749 0.005470 -0.001355 0.000000 0.000000 0.000000
# 3 -0.041460 -0.001355 0.240710 0.000000 0.000000 0.000000
# 4 0.000000 0.000000 0.000000 0.106699 0.000000 0.000000
# 5 0.000000 0.000000 0.000000 0.000000 -0.054385 0.000000
# 6 0.000000 0.000000 0.000000 0.000000 0.000000 0.038034
#
#
# Mechanical properties :
#
#
# Convention : Reuss Voigt Hill
#
# Bulk Modulus (GPa) = 5.71314 54.82077 30.26695
# Shear Modulus (GPa) = 9.80426 18.82091 14.31258
#
# Velocity S-wave (km/s) = 2.39742 3.32168 2.89665
# Velocity P-wave (km/s) = 3.31855 6.84467 5.37876
#
# Compressibility (1/GPa) = 0.17503513
#
# Stress axis : x y z
#
# Youngs Moduli (GPa) = 45.49042 182.81721 4.15438
#
# Poissons Ratio (x) = 0.68535 0.17224
# Poissons Ratio (y) = 0.17053 0.00563
# Poissons Ratio (z) = 1.88604 0.24767
#
# Static dielectric constant tensor:
#      x y z
#    x 1.575460 0.000000 0.000000 
#    y 0.000000 1.741780 0.000000 
#    z 0.000000 0.000000 1.536820 
# 
# From -- ./inp_files/48669.got.cif
#   From: 2010.05.17/outbox.cif.g08.bks.cpg/sg74_25_cif.got.tgz:48669.got - 2010.06.03 17:57:02.
