data_PCOD9533967
_publ_section_title
;
Structure prediction by ZEFSAII (Michael W. Deem and Ramdas Pophale) SiO2 
 PCOD9533967
Probable space group: I M M A
;
_chemical_formula_sum "Si O2"
_cell_formula_units_Z 80
_cell_length_a 8.626192
_cell_length_b 23.554905
_cell_length_c 30.236652
_cell_angle_alpha 90.000000
_cell_angle_beta 90.000000
_cell_angle_gamma 90.000000
_cell_volume 6143.759107
_symmetry_space_group_name_H-M "I M M A"
_symmetry_group_IT_number 74
_symmetry_cell_setting 'orthorhombic'
loop_
_space_group_symop_operation_xyz
x,y,z
-x,1/2-y,z
x,-y,-z
-x,1/2+y,-z
-x,-y,-z
x,1/2+y,-z
-x,y,z
x,1/2-y,z
1/2+x,1/2+y,1/2+z
1/2-x,-y,1/2+z
1/2+x,1/2-y,1/2-z
1/2-x,y,1/2-z
1/2-x,1/2-y,1/2-z
1/2+x,y,1/2-z
1/2-x,1/2+y,1/2+z
1/2+x,-y,1/2+z
loop_
_atom_site_type_symbol
_atom_site_label
_atom_site_fract_x
_atom_site_fract_y
_atom_site_fract_z
Si Si1 0.813420 0.617085 0.615162
Si Si2 0.814967 0.984004 0.933369
Si Si3 0.314360 0.816517 0.529947
Si Si4 0.185064 0.083562 0.519143
Si Si5 0.813189 0.815509 0.702212
O O1 0.744886 0.554400 0.606910
O O2 0.754651 0.657260 0.575187
O O3 0.765163 0.644968 0.661512
O O4 0.000000 0.614464 0.612868
O O5 0.000000 0.984631 0.934973
O O6 0.749925 0.047483 0.939669
O O7 0.749770 0.949581 0.975913
O O8 0.500000 0.823961 0.530908
O O9 0.278308 0.750000 0.526946
O O10 0.245593 0.853062 0.489374
O O11 0.000000 0.081660 0.518867
O O12 0.763295 0.750000 0.694418
O O13 0.750000 0.833165 0.750000
O O14 0.000000 0.815867 0.703670
#
# Coordination Sequence:
#
# PCOD9533967 Si02
#       5
#    16  16  16  16  16
#     4  10  18  28  41  56  73  93 122 157 191 225
#     4  10  17  26  39  54  72  92 117 149 185 221
#     4  10  19  28  38  54  75  98 124 154 187 221
#     4  10  17  26  39  53  71  94 120 149 182 218
#     4   9  18  30  42  55  72  95 122 154 191 229
#
# _framework density 13.021345
#
# number of rings (size 3 to 8) (size 9 to 14) (size 15 to 20)
#    0.000    2.200    0.000    9.000    0.000    4.000 
#    0.000    2.000    0.000    0.000    0.000    0.000 
#    0.000    0.000    0.000    0.000    0.000    1.000 
#
# Total GULP energy -222866.678923 kJ/mol
# GULP energy per Si atom -5571.666973 kJ/mol
# Density = 1.299171 g / cm^3
# Si number density = 13.021345 Si / 1000 Ang^3
#
#
#
# Elastic Constant Matrix: (Units=GPa)
#
#
# Indices 1 2 3 4 5 6 
#
# 1 81.0295 42.1622 28.7959 0.0000 0.0000 0.0000
# 2 42.1622 90.7822 58.2268 0.0000 0.0000 0.0000
# 3 28.7959 58.2268 68.9922 0.0000 0.0000 0.0000
# 4 0.0000 0.0000 0.0000 24.8026 0.0000 0.0000
# 5 0.0000 0.0000 0.0000 0.0000 16.1884 0.0000
# 6 0.0000 0.0000 0.0000 0.0000 0.0000 22.4003
#
#
#
# Elastic Compliance Matrix: (Units=1/GPa)
#
#
# Indices 1 2 3 4 5 6 
#
# 1 0.016300 -0.006991 -0.000903 0.000000 0.000000 0.000000
# 2 -0.006991 0.027013 -0.019880 0.000000 0.000000 0.000000
# 3 -0.000903 -0.019880 0.031650 0.000000 0.000000 0.000000
# 4 0.000000 0.000000 0.000000 0.040318 0.000000 0.000000
# 5 0.000000 0.000000 0.000000 0.000000 0.061772 0.000000
# 6 0.000000 0.000000 0.000000 0.000000 0.000000 0.044642
#
#
# Mechanical properties :
#
#
# Convention : Reuss Voigt Hill
#
# Bulk Modulus (GPa) = 51.50949 55.46377 53.48663
# Shear Modulus (GPa) = 17.62330 20.11954 18.87142
#
# Velocity S-wave (km/s) = 3.68287 3.93507 3.81106
# Velocity P-wave (km/s) = 7.59792 7.95822 7.78016
#
# Compressibility (1/GPa) = 0.01941390
#
# Stress axis : x y z
#
# Youngs Moduli (GPa) = 61.35081 37.01896 31.59599
#
# Poissons Ratio (x) = 0.25879 0.02854
# Poissons Ratio (y) = 0.42889 0.62814
# Poissons Ratio (z) = 0.05541 0.73595
#
# Static dielectric constant tensor:
#      x y z
#    x 1.436790 0.000000 0.000000 
#    y 0.000000 1.460670 0.000000 
#    z 0.000000 0.000000 1.413620 
# 
# From -- ./inp_files/70682.got.cif
#   From: 2010.05.17/outbox.cif.g08.bks.cpg/sg74_36_cif.got.tgz:70682.got - 2010.06.03 17:57:02.
