data_PCOD9533892
_publ_section_title
;
Structure prediction by ZEFSAII (Michael W. Deem and Ramdas Pophale) SiO2 
 PCOD9533892
Probable space group: I M M A
;
_chemical_formula_sum "Si O2"
_cell_formula_units_Z 88
_cell_length_a 15.015396
_cell_length_b 14.452140
_cell_length_c 18.231656
_cell_angle_alpha 90.000000
_cell_angle_beta 90.000000
_cell_angle_gamma 90.000000
_cell_volume 3956.353311
_symmetry_space_group_name_H-M "I M M A"
_symmetry_group_IT_number 74
_symmetry_cell_setting 'orthorhombic'
loop_
_space_group_symop_operation_xyz
x,y,z
-x,1/2-y,z
x,-y,-z
-x,1/2+y,-z
-x,-y,-z
x,1/2+y,-z
-x,y,z
x,1/2-y,z
1/2+x,1/2+y,1/2+z
1/2-x,-y,1/2+z
1/2+x,1/2-y,1/2-z
1/2-x,y,1/2-z
1/2-x,1/2-y,1/2-z
1/2+x,y,1/2-z
1/2-x,1/2+y,1/2+z
1/2+x,-y,1/2+z
loop_
_atom_site_type_symbol
_atom_site_label
_atom_site_fract_x
_atom_site_fract_y
_atom_site_fract_z
Si Si1 0.356442 0.046799 0.744364
Si Si2 0.346531 0.645059 0.400475
Si Si3 0.848585 0.000000 0.500000
Si Si4 0.895774 0.851050 0.791636
Si Si5 0.870760 0.145633 0.611949
Si Si6 0.706524 0.142093 0.444316
O O1 0.250000 0.055438 0.750000
O O2 0.382865 0.078129 0.662353
O O3 0.394514 0.113097 0.806632
O O4 0.378825 0.940015 0.757867
O O5 0.376621 0.750000 0.386078
O O6 0.238130 0.644361 0.393343
O O7 0.358966 0.622802 0.486303
O O8 0.899293 0.069214 0.553441
O O9 0.784906 0.067485 0.451605
O O10 0.872345 0.750000 0.759524
O O11 0.840479 0.863927 0.866241
O O12 0.000000 0.849854 0.809804
O O13 0.898760 0.250000 0.596895
O O14 0.735896 0.250000 0.453873
#
# Coordination Sequence:
#
# PCOD9533892 Si02
#       6
#    16  16   8  16  16  16
#     4  10  18  30  49  71  95 127 169 213 254 297
#     4   8  14  25  43  68  96 128 169 211 244 279
#     4  10  16  28  47  74 105 130 164 204 246 300
#     4  10  21  35  48  66  98 139 177 211 249 292
#     4   9  17  28  45  70  99 128 156 198 254 298
#     4   9  16  27  43  62  91 133 173 207 241 280
#
# _framework density 22.242704
#
# number of rings (size 3 to 8) (size 9 to 14) (size 15 to 20)
#    0.000    2.727    0.000    5.455    0.000    2.545 
#    0.000    5.909    0.000    3.273    0.000    0.636 
#    0.000    0.000    0.000    0.000    0.000    0.000 
#
# Total GULP energy -245620.660588 kJ/mol
# GULP energy per Si atom -5582.287741 kJ/mol
# Density = 2.219208 g / cm^3
# Si number density = 22.242704 Si / 1000 Ang^3
#
#
#
# Elastic Constant Matrix: (Units=GPa)
#
#
# Indices 1 2 3 4 5 6 
#
# 1 51.7910 8.7666 -0.4658 0.0000 0.0000 0.0000
# 2 8.7666 180.0743 53.5620 0.0000 0.0000 0.0000
# 3 -0.4658 53.5620 46.2012 0.0000 0.0000 0.0000
# 4 0.0000 0.0000 0.0000 38.9875 0.0000 0.0000
# 5 0.0000 0.0000 0.0000 0.0000 -1.7962 0.0000
# 6 0.0000 0.0000 0.0000 0.0000 0.0000 -9.8703
#
#
#
# Elastic Compliance Matrix: (Units=1/GPa)
#
#
# Indices 1 2 3 4 5 6 
#
# 1 0.019588 -0.001545 0.001989 0.000000 0.000000 0.000000
# 2 -0.001545 0.008598 -0.009983 0.000000 0.000000 0.000000
# 3 0.001989 -0.009983 0.033238 0.000000 0.000000 0.000000
# 4 0.000000 0.000000 0.000000 0.025649 0.000000 0.000000
# 5 0.000000 0.000000 0.000000 0.000000 -0.556732 0.000000
# 6 0.000000 0.000000 0.000000 0.000000 0.000000 -0.101314
#
#
# Mechanical properties :
#
#
# Convention : Reuss Voigt Hill
#
# Bulk Modulus (GPa) = 23.61567 44.64358 34.12963
# Shear Modulus (GPa) = -9.29753 19.87778 5.29013
#
# Velocity S-wave (km/s) = -2.04673 2.99269 1.54387
# Velocity P-wave (km/s) = 2.24830 5.66182 4.30761
#
# Compressibility (1/GPa) = 0.04234476
#
# Stress axis : x y z
#
# Youngs Moduli (GPa) = 51.05220 116.30630 30.08565
#
# Poissons Ratio (x) = 0.17971 -0.05984
# Poissons Ratio (y) = 0.07888 0.30036
# Poissons Ratio (z) = -0.10153 1.16113
#
# Static dielectric constant tensor:
#      x y z
#    x 1.831540 0.000000 0.000000 
#    y 0.000000 1.841770 0.000000 
#    z 0.000000 0.000000 1.830780 
# 
# From -- ./inp_files/43935.got.cif
#   From: 2010.05.17/outbox.cif.g08.bks.cpg/sg74_22_cif.got.tgz:43935.got - 2010.06.03 17:57:02.
