data_PCOD9533671
_publ_section_title
;
Structure prediction by ZEFSAII (Michael W. Deem and Ramdas Pophale) SiO2 
 PCOD9533671
Probable space group: I B C A 
;
_chemical_formula_sum "Si O2"
_cell_formula_units_Z 56
_cell_length_a 16.016765
_cell_length_b 17.494640
_cell_length_c 9.211654
_cell_angle_alpha 90.000000
_cell_angle_beta 90.000000
_cell_angle_gamma 90.000000
_cell_volume 2581.174885
_symmetry_space_group_name_H-M "I B C A "
_symmetry_group_IT_number 73
_symmetry_cell_setting 'orthorhombic'
loop_
_space_group_symop_operation_xyz
x,y,z
-x,1/2-y,z
x,-y,1/2-z
1/2-x,y,-z
-x,-y,-z
x,1/2+y,-z
-x,y,1/2+z
1/2+x,-y,z
1/2+x,1/2+y,1/2+z
1/2-x,-y,1/2+z
1/2+x,1/2-y,-z
-x,1/2+y,1/2-z
1/2-x,1/2-y,1/2-z
1/2+x,y,1/2-z
1/2-x,1/2+y,z
x,1/2-y,1/2+z
loop_
_atom_site_type_symbol
_atom_site_label
_atom_site_fract_x
_atom_site_fract_y
_atom_site_fract_z
Si Si1 0.085498 0.706167 0.919125
Si Si2 0.250000 0.061524 0.500000
Si Si3 0.585538 0.025607 0.423299
Si Si4 0.685836 0.294624 0.651383
O O1 0.157136 0.752130 0.005872
O O2 0.000000 0.750000 0.948558
O O3 0.088200 0.616443 0.951599
O O4 0.102786 0.705198 0.747681
O O5 0.274505 0.122006 0.626011
O O6 0.333449 0.010947 0.496702
O O7 0.586179 0.000000 0.250000
O O8 0.500000 0.000000 0.500000
O O9 0.750000 0.250000 0.750000
#
# Coordination Sequence:
#
# PCOD9533671 Si02
#       4
#    16   8  16  16
#     4  12  27  48  76 108 152 200 257 319 381 471
#     4  12  26  50  74 110 158 194 256 322 392 460
#     4  12  30  49  75 115 155 204 257 323 399 463
#     4  12  25  46  77 108 143 200 258 307 384 463
#
# _framework density 21.695546
#
# number of rings (size 3 to 8) (size 9 to 14) (size 15 to 20)
#    0.000    0.000    5.714    2.571    8.000    1.143 
#    0.000    0.000    0.000    0.000    0.000    0.000 
#    0.000    0.000    0.000    0.000    0.000    0.000 
#
# Total GULP energy -156202.185012 kJ/mol
# GULP energy per Si atom -5578.649465 kJ/mol
# Density = 2.164617 g / cm^3
# Si number density = 21.695546 Si / 1000 Ang^3
#
#
#
# Elastic Constant Matrix: (Units=GPa)
#
#
# Indices 1 2 3 4 5 6 
#
# 1 191.2826 87.6737 63.8877 0.0000 0.0000 0.0000
# 2 87.6737 184.1926 39.7866 0.0000 0.0000 0.0000
# 3 63.8877 39.7866 103.8545 0.0000 0.0000 0.0000
# 4 0.0000 0.0000 0.0000 26.7971 0.0000 0.0000
# 5 0.0000 0.0000 0.0000 0.0000 43.7231 0.0000
# 6 0.0000 0.0000 0.0000 0.0000 0.0000 44.9889
#
#
#
# Elastic Compliance Matrix: (Units=1/GPa)
#
#
# Indices 1 2 3 4 5 6 
#
# 1 0.007792 -0.002915 -0.003677 0.000000 0.000000 0.000000
# 2 -0.002915 0.007009 -0.000892 0.000000 0.000000 0.000000
# 3 -0.003677 -0.000892 0.012232 0.000000 0.000000 0.000000
# 4 0.000000 0.000000 0.000000 0.037317 0.000000 0.000000
# 5 0.000000 0.000000 0.000000 0.000000 0.022871 0.000000
# 6 0.000000 0.000000 0.000000 0.000000 0.000000 0.022228
#
#
# Mechanical properties :
#
#
# Convention : Reuss Voigt Hill
#
# Bulk Modulus (GPa) = 82.87505 95.78061 89.32783
# Shear Modulus (GPa) = 38.92907 42.30062 40.61485
#
# Velocity S-wave (km/s) = 4.24055 4.42037 4.33140
# Velocity P-wave (km/s) = 7.89040 8.38429 8.14109
#
# Compressibility (1/GPa) = 0.01206636
#
# Stress axis : x y z
#
# Youngs Moduli (GPa) = 128.34087 142.67062 81.75010
#
# Poissons Ratio (x) = 0.41583 0.30056
# Poissons Ratio (y) = 0.37406 0.07294
# Poissons Ratio (z) = 0.47186 0.12730
#
# Static dielectric constant tensor:
#      x y z
#    x 1.862400 0.000000 0.000000 
#    y 0.000000 1.786310 0.000000 
#    z 0.000000 0.000000 1.912190 
# 
# From -- ./inp_files/4531.got.cif
#   From: 2010.05.17/outbox.cif.g08.bks.cpg/sg73_3_cif.got.tgz:4531.got - 2010.06.03 17:35:07.
