data_PCOD9533483
_publ_section_title
;
Structure prediction by ZEFSAII (Michael W. Deem and Ramdas Pophale) SiO2 
 PCOD9533483
Probable space group: I B C A 
;
_chemical_formula_sum "Si O2"
_cell_formula_units_Z 104
_cell_length_a 20.997331
_cell_length_b 18.039482
_cell_length_c 13.560027
_cell_angle_alpha 90.000000
_cell_angle_beta 90.000000
_cell_angle_gamma 90.000000
_cell_volume 5136.280243
_symmetry_space_group_name_H-M "I B C A "
_symmetry_group_IT_number 73
_symmetry_cell_setting 'orthorhombic'
loop_
_space_group_symop_operation_xyz
x,y,z
-x,1/2-y,z
x,-y,1/2-z
1/2-x,y,-z
-x,-y,-z
x,1/2+y,-z
-x,y,1/2+z
1/2+x,-y,z
1/2+x,1/2+y,1/2+z
1/2-x,-y,1/2+z
1/2+x,1/2-y,-z
-x,1/2+y,1/2-z
1/2-x,1/2-y,1/2-z
1/2+x,y,1/2-z
1/2-x,1/2+y,z
x,1/2-y,1/2+z
loop_
_atom_site_type_symbol
_atom_site_label
_atom_site_fract_x
_atom_site_fract_y
_atom_site_fract_z
Si Si1 0.550914 0.615169 0.791463
Si Si2 0.572921 0.991184 0.472645
Si Si3 0.500000 0.750000 0.927893
Si Si4 0.618060 0.341121 0.993916
Si Si5 0.179246 0.326771 0.702507
Si Si6 0.180702 0.332533 0.293604
Si Si7 0.079940 0.927144 0.816599
O O1 0.529616 0.686169 0.857504
O O2 0.615733 0.631700 0.735159
O O3 0.491954 0.596988 0.717284
O O4 0.569735 0.551074 0.869067
O O5 0.594495 0.944592 0.569004
O O6 0.500000 0.000000 0.500000
O O7 0.603010 0.072710 0.470391
O O8 0.445975 0.708305 0.992564
O O9 0.652471 0.342138 0.098476
O O10 0.664574 0.308367 0.911245
O O11 0.247952 0.365072 0.712237
O O12 0.183541 0.254026 0.769166
O O13 0.130131 0.367152 0.219431
O O14 0.091319 0.000000 0.750000
#
# Coordination Sequence:
#
# PCOD9533483 Si02
#       7
#    16  16   8  16  16  16  16
#     4  12  24  42  65 104 135 169 229 276 333 406
#     4  12  23  40  64 101 139 170 219 278 342 398
#     4  12  22  40  68 100 134 160 228 284 320 404
#     4  12  24  44  65 100 137 176 225 281 337 405
#     4  11  27  43  71  94 137 182 221 289 335 398
#     4  11  24  48  65  99 133 177 235 274 340 405
#     4  12  22  41  71  92 134 181 213 281 341 399
#
# _framework density 20.248116
#
# number of rings (size 3 to 8) (size 9 to 14) (size 15 to 20)
#    0.000    0.308    7.692    1.385    2.154    0.615 
#    2.769    0.769    0.000    0.000    0.000    0.000 
#    0.000    0.000    0.000    0.000    0.000    0.000 
#
# Total GULP energy -290435.641103 kJ/mol
# GULP energy per Si atom -5585.300790 kJ/mol
# Density = 2.020203 g / cm^3
# Si number density = 20.248116 Si / 1000 Ang^3
#
#
#
# Elastic Constant Matrix: (Units=GPa)
#
#
# Indices 1 2 3 4 5 6 
#
# 1 123.1567 27.1865 23.5216 0.0000 0.0000 0.0000
# 2 27.1865 75.3194 19.6313 0.0000 0.0000 0.0000
# 3 23.5216 19.6313 64.9237 0.0000 0.0000 0.0000
# 4 0.0000 0.0000 0.0000 18.2403 0.0000 0.0000
# 5 0.0000 0.0000 0.0000 0.0000 7.9610 0.0000
# 6 0.0000 0.0000 0.0000 0.0000 0.0000 40.9470
#
#
#
# Elastic Compliance Matrix: (Units=1/GPa)
#
#
# Indices 1 2 3 4 5 6 
#
# 1 0.009189 -0.002659 -0.002525 0.000000 0.000000 0.000000
# 2 -0.002659 0.015182 -0.003627 0.000000 0.000000 0.000000
# 3 -0.002525 -0.003627 0.017414 0.000000 0.000000 0.000000
# 4 0.000000 0.000000 0.000000 0.054824 0.000000 0.000000
# 5 0.000000 0.000000 0.000000 0.000000 0.125612 0.000000
# 6 0.000000 0.000000 0.000000 0.000000 0.000000 0.024422
#
#
# Mechanical properties :
#
#
# Convention : Reuss Voigt Hill
#
# Bulk Modulus (GPa) = 41.38601 44.89763 43.14182
# Shear Modulus (GPa) = 18.36077 26.30033 22.33055
#
# Velocity S-wave (km/s) = 3.01456 3.60794 3.32452
# Velocity P-wave (km/s) = 5.70969 6.29112 6.00744
#
# Compressibility (1/GPa) = 0.02416276
#
# Stress axis : x y z
#
# Youngs Moduli (GPa) = 108.82694 65.86806 57.42371
#
# Poissons Ratio (x) = 0.17511 0.14501
# Poissons Ratio (y) = 0.28932 0.20830
# Poissons Ratio (z) = 0.27481 0.23893
#
# Static dielectric constant tensor:
#      x y z
#    x 1.719920 0.000000 0.000000 
#    y 0.000000 1.735770 0.000000 
#    z 0.000000 0.000000 1.749100 
# 
# From -- ./inp_files/18780.got.cif
#   From: 2010.05.17/outbox.cif.g08.bks.cpg/sg73_10_cif.got.tgz:18780.got - 2010.06.03 17:35:07.
