data_PCOD9533642
_publ_section_title
;
Structure prediction by ZEFSAII (Michael W. Deem and Ramdas Pophale) SiO2 
 PCOD9533642
Probable space group: I B C A 
;
_chemical_formula_sum "Si O2"
_cell_formula_units_Z 64
_cell_length_a 15.376656
_cell_length_b 11.171074
_cell_length_c 16.709945
_cell_angle_alpha 90.000000
_cell_angle_beta 90.000000
_cell_angle_gamma 90.000000
_cell_volume 2870.330116
_symmetry_space_group_name_H-M "I B C A "
_symmetry_group_IT_number 73
_symmetry_cell_setting 'orthorhombic'
loop_
_space_group_symop_operation_xyz
x,y,z
-x,1/2-y,z
x,-y,1/2-z
1/2-x,y,-z
-x,-y,-z
x,1/2+y,-z
-x,y,1/2+z
1/2+x,-y,z
1/2+x,1/2+y,1/2+z
1/2-x,-y,1/2+z
1/2+x,1/2-y,-z
-x,1/2+y,1/2-z
1/2-x,1/2-y,1/2-z
1/2+x,y,1/2-z
1/2-x,1/2+y,z
x,1/2-y,1/2+z
loop_
_atom_site_type_symbol
_atom_site_label
_atom_site_fract_x
_atom_site_fract_y
_atom_site_fract_z
Si Si1 0.152537 0.253641 0.276927
Si Si2 0.500000 0.750000 0.528709
Si Si3 0.410401 0.570602 0.145775
Si Si4 0.336520 0.142434 0.556581
Si Si5 0.943528 0.500000 0.750000
O O1 0.250000 0.250000 0.250000
O O2 0.111817 0.142659 0.227354
O O3 0.156979 0.239421 0.372218
O O4 0.109454 0.377430 0.250784
O O5 0.562740 0.668864 0.582046
O O6 0.569946 0.837409 0.485824
O O7 0.339963 0.483298 0.105710
O O8 0.496926 0.499191 0.170743
O O9 0.250000 0.150770 0.500000
#
# Coordination Sequence:
#
# PCOD9533642 Si02
#       5
#    16   8  16  16   8
#     4  12  27  47  77 111 145 201 265 313 380 466
#     4  12  26  48  72 116 154 202 254 320 410 452
#     4  12  25  48  79 109 148 206 260 310 387 477
#     4  12  28  48  75 114 161 201 253 331 396 466
#     4  12  24  46  84 106 146 196 270 320 372 454
#
# _framework density 22.297087999999999
#
# number of rings (size 3 to 8) (size 9 to 14) (size 15 to 20)
#    0.000    0.000    5.000    3.750    3.500    3.000 
#    0.000    0.000    0.000    0.000    0.000    0.000 
#    0.000    0.000    0.000    0.000    0.000    0.000 
#
# Total GULP energy -178687.343241 kJ/mol
# GULP energy per Si atom -5583.979476 kJ/mol
# Density = 2.224634 g / cm^3
# Si number density = 22.297088 Si / 1000 Ang^3
#
#
#
# Elastic Constant Matrix: (Units=GPa)
#
#
# Indices 1 2 3 4 5 6 
#
# 1 106.0333 44.2978 41.7344 0.0000 0.0000 0.0000
# 2 44.2978 103.4203 32.1146 0.0000 0.0000 0.0000
# 3 41.7344 32.1146 111.9993 0.0000 0.0000 0.0000
# 4 0.0000 0.0000 0.0000 32.5756 0.0000 0.0000
# 5 0.0000 0.0000 0.0000 0.0000 58.3478 0.0000
# 6 0.0000 0.0000 0.0000 0.0000 0.0000 31.8643
#
#
#
# Elastic Compliance Matrix: (Units=1/GPa)
#
#
# Indices 1 2 3 4 5 6 
#
# 1 0.012597 -0.004323 -0.003454 0.000000 0.000000 0.000000
# 2 -0.004323 0.012098 -0.001858 0.000000 0.000000 0.000000
# 3 -0.003454 -0.001858 0.010749 0.000000 0.000000 0.000000
# 4 0.000000 0.000000 0.000000 0.030698 0.000000 0.000000
# 5 0.000000 0.000000 0.000000 0.000000 0.017139 0.000000
# 6 0.000000 0.000000 0.000000 0.000000 0.000000 0.031383
#
#
# Mechanical properties :
#
#
# Convention : Reuss Voigt Hill
#
# Bulk Modulus (GPa) = 61.83339 61.97184 61.90261
# Shear Modulus (GPa) = 35.88759 38.11129 36.99944
#
# Velocity S-wave (km/s) = 4.01623 4.13879 4.07797
# Velocity P-wave (km/s) = 7.02130 7.11994 7.07079
#
# Compressibility (1/GPa) = 0.01617249
#
# Stress axis : x y z
#
# Youngs Moduli (GPa) = 79.38667 82.65934 93.03514
#
# Poissons Ratio (x) = 0.35732 0.32138
# Poissons Ratio (y) = 0.34317 0.17287
# Poissons Ratio (z) = 0.27423 0.15359
#
# Static dielectric constant tensor:
#      x y z
#    x 1.958010 0.000000 0.000000 
#    y 0.000000 1.643740 0.000000 
#    z 0.000000 0.000000 2.547790 
# 
# From -- ./inp_files/10494.got.cif
#   From: 2010.05.17/outbox.cif.g08.bks.cpg/sg73_6_cif.got.tgz:10494.got - 2010.06.03 17:35:07.
