data_PCOD9533045
_publ_section_title
;
Structure prediction by ZEFSAII (Michael W. Deem and Ramdas Pophale) SiO2 
 PCOD9533045
Probable space group: I B C A 
;
_chemical_formula_sum "Si O2"
_cell_formula_units_Z 96
_cell_length_a 18.189565
_cell_length_b 14.154889
_cell_length_c 15.630080
_cell_angle_alpha 90.000000
_cell_angle_beta 90.000000
_cell_angle_gamma 90.000000
_cell_volume 4024.296603
_symmetry_space_group_name_H-M "I B C A "
_symmetry_group_IT_number 73
_symmetry_cell_setting 'orthorhombic'
loop_
_space_group_symop_operation_xyz
x,y,z
-x,1/2-y,z
x,-y,1/2-z
1/2-x,y,-z
-x,-y,-z
x,1/2+y,-z
-x,y,1/2+z
1/2+x,-y,z
1/2+x,1/2+y,1/2+z
1/2-x,-y,1/2+z
1/2+x,1/2-y,-z
-x,1/2+y,1/2-z
1/2-x,1/2-y,1/2-z
1/2+x,y,1/2-z
1/2-x,1/2+y,z
x,1/2-y,1/2+z
loop_
_atom_site_type_symbol
_atom_site_label
_atom_site_fract_x
_atom_site_fract_y
_atom_site_fract_z
Si Si1 0.393763 0.780862 0.601523
Si Si2 0.028080 0.435771 0.858533
Si Si3 0.749095 0.678227 0.327392
Si Si4 0.166424 0.412116 0.465448
Si Si5 0.061575 0.076295 0.557381
Si Si6 0.164476 0.000000 0.250000
Si Si7 0.000000 0.250000 0.257332
O O1 0.306594 0.770309 0.610550
O O2 0.390981 0.867646 0.534503
O O3 0.427719 0.686547 0.566604
O O4 0.432763 0.782717 0.694477
O O5 0.108208 0.454165 0.818524
O O6 0.991658 0.343437 0.816405
O O7 0.981652 0.533746 0.859684
O O8 0.032650 0.427422 0.960404
O O9 0.750000 0.750000 0.250000
O O10 0.676775 0.653244 0.381314
O O11 0.786134 0.580067 0.295093
O O12 0.250000 0.421193 0.500000
O O13 0.135387 0.513980 0.442098
#
# Coordination Sequence:
#
# PCOD9533045 Si02
#       7
#    16  16  16  16  16   8   8
#     4  11  26  46  70 104 147 189 251 304 382 444
#     4  11  26  45  72 111 142 197 241 309 391 448
#     4  11  27  46  74 106 142 203 250 310 382 452
#     4  10  25  49  69 104 146 196 251 306 374 458
#     4  11  27  43  77 109 143 193 251 312 375 460
#     4  12  24  50  74 102 154 192 248 318 390 450
#     4  12  26  46  74 108 156 196 244 320 376 466
#
# _framework density 23.8551
#
# number of rings (size 3 to 8) (size 9 to 14) (size 15 to 20)
#    0.000    1.000    1.667    3.000   14.000    2.000 
#    0.000    0.000    0.000    0.000    0.000    0.000 
#    0.000    0.000    0.000    0.000    0.000    0.000 
#
# Total GULP energy -267859.317990 kJ/mol
# GULP energy per Si atom -5580.402458 kJ/mol
# Density = 2.380081 g / cm^3
# Si number density = 23.855100 Si / 1000 Ang^3
#
#
#
# Elastic Constant Matrix: (Units=GPa)
#
#
# Indices 1 2 3 4 5 6 
#
# 1 65.4801 28.2104 31.2922 0.0000 0.0000 0.0000
# 2 28.2104 122.3767 46.6355 0.0000 0.0000 0.0000
# 3 31.2922 46.6355 110.7326 0.0000 0.0000 0.0000
# 4 0.0000 0.0000 0.0000 44.5607 0.0000 0.0000
# 5 0.0000 0.0000 0.0000 0.0000 43.4089 0.0000
# 6 0.0000 0.0000 0.0000 0.0000 0.0000 33.0161
#
#
#
# Elastic Compliance Matrix: (Units=1/GPa)
#
#
# Indices 1 2 3 4 5 6 
#
# 1 0.018370 -0.002688 -0.004059 0.000000 0.000000 0.000000
# 2 -0.002688 0.010127 -0.003505 0.000000 0.000000 0.000000
# 3 -0.004059 -0.003505 0.011654 0.000000 0.000000 0.000000
# 4 0.000000 0.000000 0.000000 0.022441 0.000000 0.000000
# 5 0.000000 0.000000 0.000000 0.000000 0.023037 0.000000
# 6 0.000000 0.000000 0.000000 0.000000 0.000000 0.030288
#
#
# Mechanical properties :
#
#
# Convention : Reuss Voigt Hill
#
# Bulk Modulus (GPa) = 50.90087 56.76282 53.83185
# Shear Modulus (GPa) = 34.97227 37.02722 35.99974
#
# Velocity S-wave (km/s) = 3.83303 3.94404 3.88893
# Velocity P-wave (km/s) = 6.40104 6.67735 6.54066
#
# Compressibility (1/GPa) = 0.01964603
#
# Stress axis : x y z
#
# Youngs Moduli (GPa) = 54.43783 98.74655 85.80598
#
# Poissons Ratio (x) = 0.26540 0.34830
# Poissons Ratio (y) = 0.14631 0.30079
# Poissons Ratio (z) = 0.22097 0.34615
#
# Static dielectric constant tensor:
#      x y z
#    x 2.000700 0.000000 0.000000 
#    y 0.000000 2.037700 0.000000 
#    z 0.000000 0.000000 2.029530 
# 
# From -- ./inp_files/18690.got.cif
#   From: 2010.05.17/outbox.cif.g08.bks.cpg/sg73_10_cif.got.tgz:18690.got - 2010.06.03 17:35:07.
