data_PCOD9533573
_publ_section_title
;
Structure prediction by ZEFSAII (Michael W. Deem and Ramdas Pophale) SiO2 
 PCOD9533573
Probable space group: I B C A 
;
_chemical_formula_sum "Si O2"
_cell_formula_units_Z 64
_cell_length_a 10.465560
_cell_length_b 9.332143
_cell_length_c 27.418372
_cell_angle_alpha 90.000000
_cell_angle_beta 90.000000
_cell_angle_gamma 90.000000
_cell_volume 2677.845530
_symmetry_space_group_name_H-M "I B C A "
_symmetry_group_IT_number 73
_symmetry_cell_setting 'orthorhombic'
loop_
_space_group_symop_operation_xyz
x,y,z
-x,1/2-y,z
x,-y,1/2-z
1/2-x,y,-z
-x,-y,-z
x,1/2+y,-z
-x,y,1/2+z
1/2+x,-y,z
1/2+x,1/2+y,1/2+z
1/2-x,-y,1/2+z
1/2+x,1/2-y,-z
-x,1/2+y,1/2-z
1/2-x,1/2-y,1/2-z
1/2+x,y,1/2-z
1/2-x,1/2+y,z
x,1/2-y,1/2+z
loop_
_atom_site_type_symbol
_atom_site_label
_atom_site_fract_x
_atom_site_fract_y
_atom_site_fract_z
Si Si1 0.403785 0.865326 0.505542
Si Si2 0.500000 0.250000 0.721292
Si Si3 0.824035 0.434773 0.842828
Si Si4 0.366654 0.281637 0.889178
Si Si5 0.166869 0.500000 0.750000
O O1 0.500000 0.750000 0.477587
O O2 0.250000 0.904902 0.500000
O O3 0.382768 0.786737 0.557746
O O4 0.500000 0.000000 0.500000
O O5 0.556788 0.130626 0.685189
O O6 0.593098 0.348602 0.753161
O O7 0.746580 0.302260 0.863872
O O8 0.848373 0.548723 0.885397
O O9 0.748206 0.512233 0.799259
O O10 0.500000 0.250000 0.862563
#
# Coordination Sequence:
#
# PCOD9533573 Si02
#       5
#    16   8  16  16   8
#     4  11  27  52  84 119 163 212 264 340 427 524
#     4  12  26  44  76 104 154 218 272 338 414 482
#     4  12  26  49  71 111 153 210 267 343 399 481
#     4  11  28  47  76 112 153 198 272 329 410 501
#     4  12  26  46  70 108 158 212 272 334 408 484
#
# _framework density 23.899809999999999
#
# number of rings (size 3 to 8) (size 9 to 14) (size 15 to 20)
#    0.000    0.500    2.500    3.750   15.750    0.000 
#    2.250    0.000    0.000    0.000    0.000    0.000 
#    0.000    0.000    0.000    0.000    0.000    0.000 
#
# Total GULP energy -178255.027206 kJ/mol
# GULP energy per Si atom -5570.469600 kJ/mol
# Density = 2.384541 g / cm^3
# Si number density = 23.899810 Si / 1000 Ang^3
#
#
#
# Elastic Constant Matrix: (Units=GPa)
#
#
# Indices 1 2 3 4 5 6 
#
# 1 124.2854 49.2055 5.8047 0.0000 0.0000 0.0000
# 2 49.2055 176.1124 10.0750 0.0000 0.0000 0.0000
# 3 5.8047 10.0750 63.6249 0.0000 0.0000 0.0000
# 4 0.0000 0.0000 0.0000 32.5295 0.0000 0.0000
# 5 0.0000 0.0000 0.0000 0.0000 14.9669 0.0000
# 6 0.0000 0.0000 0.0000 0.0000 0.0000 42.8249
#
#
#
# Elastic Compliance Matrix: (Units=1/GPa)
#
#
# Indices 1 2 3 4 5 6 
#
# 1 0.009058 -0.002506 -0.000430 0.000000 0.000000 0.000000
# 2 -0.002506 0.006424 -0.000789 0.000000 0.000000 0.000000
# 3 -0.000430 -0.000789 0.015881 0.000000 0.000000 0.000000
# 4 0.000000 0.000000 0.000000 0.030741 0.000000 0.000000
# 5 0.000000 0.000000 0.000000 0.000000 0.066814 0.000000
# 6 0.000000 0.000000 0.000000 0.000000 0.000000 0.023351
#
#
# Mechanical properties :
#
#
# Convention : Reuss Voigt Hill
#
# Bulk Modulus (GPa) = 41.81596 54.91035 48.36316
# Shear Modulus (GPa) = 29.81702 37.99343 33.90523
#
# Velocity S-wave (km/s) = 3.53595 3.99142 3.77057
# Velocity P-wave (km/s) = 5.84850 6.65335 6.26386
#
# Compressibility (1/GPa) = 0.02391431
#
# Stress axis : x y z
#
# Youngs Moduli (GPa) = 110.39569 155.67694 62.96770
#
# Poissons Ratio (x) = 0.39017 0.02705
# Poissons Ratio (y) = 0.27669 0.04965
# Poissons Ratio (z) = 0.04742 0.12275
#
# Static dielectric constant tensor:
#      x y z
#    x 2.155920 0.000000 0.000000 
#    y 0.000000 1.692240 0.000000 
#    z 0.000000 0.000000 1.799320 
# 
# From -- ./inp_files/4003.got.cif
#   From: 2010.05.17/outbox.cif.g08.bks.cpg/sg73_3_cif.got.tgz:4003.got - 2010.06.03 17:35:07.
