data_PCOD9533361
_publ_section_title
;
Structure prediction by ZEFSAII (Michael W. Deem and Ramdas Pophale) SiO2 
 PCOD9533361
Probable space group: I B C A 
;
_chemical_formula_sum "Si O2"
_cell_formula_units_Z 88
_cell_length_a 18.236435
_cell_length_b 14.058231
_cell_length_c 14.579307
_cell_angle_alpha 90.000000
_cell_angle_beta 90.000000
_cell_angle_gamma 90.000000
_cell_volume 3737.726325
_symmetry_space_group_name_H-M "I B C A "
_symmetry_group_IT_number 73
_symmetry_cell_setting 'orthorhombic'
loop_
_space_group_symop_operation_xyz
x,y,z
-x,1/2-y,z
x,-y,1/2-z
1/2-x,y,-z
-x,-y,-z
x,1/2+y,-z
-x,y,1/2+z
1/2+x,-y,z
1/2+x,1/2+y,1/2+z
1/2-x,-y,1/2+z
1/2+x,1/2-y,-z
-x,1/2+y,1/2-z
1/2-x,1/2-y,1/2-z
1/2+x,y,1/2-z
1/2-x,1/2+y,z
x,1/2-y,1/2+z
loop_
_atom_site_type_symbol
_atom_site_label
_atom_site_fract_x
_atom_site_fract_y
_atom_site_fract_z
Si Si1 0.144220 0.068625 0.556389
Si Si2 0.178112 0.404437 0.573810
Si Si3 0.007738 0.853930 0.435929
Si Si4 0.750000 0.766883 0.500000
Si Si5 0.630780 0.500000 0.750000
Si Si6 0.381244 0.500000 0.750000
Si Si7 0.498651 0.857859 0.782109
O O1 0.057763 0.078316 0.530622
O O2 0.182410 0.160975 0.511167
O O3 0.180209 0.976934 0.511018
O O4 0.155946 0.058529 0.666769
O O5 0.230990 0.312785 0.577012
O O6 0.179516 0.459045 0.669271
O O7 0.093214 0.373780 0.562189
O O8 0.990815 0.849411 0.327445
O O9 0.000000 0.750000 0.477819
O O10 0.576235 0.581411 0.791538
O O11 0.433731 0.573513 0.807336
O O12 0.500000 0.750000 0.817890
#
# Coordination Sequence:
#
# PCOD9533361 Si02
#       7
#    16  16  16   8   8   8  16
#     4  11  23  44  68 100 135 180 231 290 349 424
#     4  11  23  44  68 100 135 180 231 290 349 424
#     4   9  16  35  69 100 134 173 218 284 351 410
#     4  12  26  46  70  90 144 192 234 284 354 422
#     4   9  20  38  65  98 136 179 225 296 352 417
#     4   9  20  38  65  98 136 179 225 296 352 417
#     4   8  15  31  61 103 142 170 214 286 368 431
#
# _framework density 23.543724999999998
#
# number of rings (size 3 to 8) (size 9 to 14) (size 15 to 20)
#    0.000    2.182    1.818    2.182    2.545    0.000 
#    3.273    7.273    0.000    0.000    0.000    0.000 
#    0.000    1.455    0.000    0.000    0.000    0.000 
#
# Total GULP energy -245095.532481 kJ/mol
# GULP energy per Si atom -5570.353011 kJ/mol
# Density = 2.349014 g / cm^3
# Si number density = 23.543725 Si / 1000 Ang^3
#
#
#
# Elastic Constant Matrix: (Units=GPa)
#
#
# Indices 1 2 3 4 5 6 
#
# 1 79.9759 24.7974 25.7336 0.0000 0.0000 0.0000
# 2 24.7974 122.7111 14.1801 0.0000 0.0000 0.0000
# 3 25.7336 14.1801 88.4038 0.0000 0.0000 0.0000
# 4 0.0000 0.0000 0.0000 17.1511 0.0000 0.0000
# 5 0.0000 0.0000 0.0000 0.0000 41.6060 0.0000
# 6 0.0000 0.0000 0.0000 0.0000 0.0000 -54.7273
#
#
#
# Elastic Compliance Matrix: (Units=1/GPa)
#
#
# Indices 1 2 3 4 5 6 
#
# 1 0.014506 -0.002490 -0.003823 0.000000 0.000000 0.000000
# 2 -0.002490 0.008730 -0.000676 0.000000 0.000000 0.000000
# 3 -0.003823 -0.000676 0.012533 0.000000 0.000000 0.000000
# 4 0.000000 0.000000 0.000000 0.058305 0.000000 0.000000
# 5 0.000000 0.000000 0.000000 0.000000 0.024035 0.000000
# 6 0.000000 0.000000 0.000000 0.000000 0.000000 -0.018272
#
#
# Mechanical properties :
#
#
# Convention : Reuss Voigt Hill
#
# Bulk Modulus (GPa) = 45.88756 46.72368 46.30562
# Shear Modulus (GPa) = 41.29566 15.89794 28.59680
#
# Velocity S-wave (km/s) = 4.19262 2.60138 3.48893
# Velocity P-wave (km/s) = 6.55516 5.37694 5.99506
#
# Compressibility (1/GPa) = 0.02179240
#
# Stress axis : x y z
#
# Youngs Moduli (GPa) = 68.93763 114.54247 79.78930
#
# Poissons Ratio (x) = 0.28516 0.30505
# Poissons Ratio (y) = 0.17162 0.05391
# Poissons Ratio (z) = 0.26356 0.07739
#
# Static dielectric constant tensor:
#      x y z
#    x 2.014900 0.000000 0.000000 
#    y 0.000000 1.937040 0.000000 
#    z 0.000000 0.000000 1.918410 
# 
# From -- ./inp_files/18587.got.cif
#   From: 2010.05.17/outbox.cif.g08.bks.cpg/sg73_10_cif.got.tgz:18587.got - 2010.06.03 17:35:07.
