data_PCOD9533544
_publ_section_title
;
Structure prediction by ZEFSAII (Michael W. Deem and Ramdas Pophale) SiO2 
 PCOD9533544
Probable space group: I B C A 
;
_chemical_formula_sum "Si O2"
_cell_formula_units_Z 88
_cell_length_a 9.018903
_cell_length_b 19.723209
_cell_length_c 22.890841
_cell_angle_alpha 90.000000
_cell_angle_beta 90.000000
_cell_angle_gamma 90.000000
_cell_volume 4071.861913
_symmetry_space_group_name_H-M "I B C A "
_symmetry_group_IT_number 73
_symmetry_cell_setting 'orthorhombic'
loop_
_space_group_symop_operation_xyz
x,y,z
-x,1/2-y,z
x,-y,1/2-z
1/2-x,y,-z
-x,-y,-z
x,1/2+y,-z
-x,y,1/2+z
1/2+x,-y,z
1/2+x,1/2+y,1/2+z
1/2-x,-y,1/2+z
1/2+x,1/2-y,-z
-x,1/2+y,1/2-z
1/2-x,1/2-y,1/2-z
1/2+x,y,1/2-z
1/2-x,1/2+y,z
x,1/2-y,1/2+z
loop_
_atom_site_type_symbol
_atom_site_label
_atom_site_fract_x
_atom_site_fract_y
_atom_site_fract_z
Si Si1 0.709477 0.579194 0.734592
Si Si2 0.570597 0.045008 0.388295
Si Si3 0.259037 0.071021 0.567240
Si Si4 0.750000 0.597879 0.500000
Si Si5 0.514462 0.329133 0.198736
Si Si6 0.487068 0.324702 0.061977
O O1 0.744699 0.500000 0.750000
O O2 0.612704 0.572477 0.675123
O O3 0.622871 0.623478 0.782588
O O4 0.850152 0.625960 0.722004
O O5 0.400581 0.060213 0.404061
O O6 0.682600 0.070901 0.438311
O O7 0.611523 0.965810 0.395621
O O8 0.250000 0.044724 0.500000
O O9 0.320322 0.146740 0.561486
O O10 0.599477 0.631584 0.475814
O O11 0.500000 0.250000 0.220176
O O12 0.534451 0.323629 0.129385
O O13 0.500000 0.250000 0.037477
#
# Coordination Sequence:
#
# PCOD9533544 Si02
#       6
#    16  16  16   8  16  16
#     4  12  27  45  75 110 143 193 254 309 361 434
#     4  12  26  42  72 105 143 180 239 299 366 428
#     4  12  24  43  68 105 140 186 228 295 366 436
#     4  12  22  46  68 106 142 182 240 286 368 432
#     4  11  26  50  71 103 149 196 242 303 373 433
#     4  11  26  45  71 100 148 189 240 297 356 437
#
# _framework density 21.611733999999998
#
# number of rings (size 3 to 8) (size 9 to 14) (size 15 to 20)
#    0.000    0.364    4.545    3.818    8.909    0.000 
#    0.000    0.909    0.000    0.000    0.000    0.000 
#    0.000    0.000    0.000    0.000    0.000    0.000 
#
# Total GULP energy -245469.464822 kJ/mol
# GULP energy per Si atom -5578.851473 kJ/mol
# Density = 2.156255 g / cm^3
# Si number density = 21.611734 Si / 1000 Ang^3
#
#
#
# Elastic Constant Matrix: (Units=GPa)
#
#
# Indices 1 2 3 4 5 6 
#
# 1 106.4580 32.8814 1.1284 0.0000 0.0000 0.0000
# 2 32.8814 96.6332 24.3304 0.0000 0.0000 0.0000
# 3 1.1284 24.3304 73.7871 0.0000 0.0000 0.0000
# 4 0.0000 0.0000 0.0000 -387.6508 0.0000 0.0000
# 5 0.0000 0.0000 0.0000 0.0000 20.8817 0.0000
# 6 0.0000 0.0000 0.0000 0.0000 0.0000 26.8252
#
#
#
# Elastic Compliance Matrix: (Units=1/GPa)
#
#
# Indices 1 2 3 4 5 6 
#
# 1 0.010580 -0.003882 0.001118 0.000000 0.000000 0.000000
# 2 -0.003882 0.012709 -0.004131 0.000000 0.000000 0.000000
# 3 0.001118 -0.004131 0.014898 0.000000 0.000000 0.000000
# 4 0.000000 0.000000 0.000000 -0.002580 0.000000 0.000000
# 5 0.000000 0.000000 0.000000 0.000000 0.047889 0.000000
# 6 0.000000 0.000000 0.000000 0.000000 0.000000 0.037278
#
#
# Mechanical properties :
#
#
# Convention : Reuss Voigt Hill
#
# Bulk Modulus (GPa) = 40.98768 43.72875 42.35821
# Shear Modulus (GPa) = 35.03910 -53.41958 -9.19024
#
# Velocity S-wave (km/s) = 4.03091 -4.97710 -2.06438
# Velocity P-wave (km/s) = 6.37737 3.57085 3.73630
#
# Compressibility (1/GPa) = 0.02439758
#
# Stress axis : x y z
#
# Youngs Moduli (GPa) = 94.51376 78.68155 67.12452
#
# Poissons Ratio (x) = 0.30542 -0.07506
# Poissons Ratio (y) = 0.36688 0.27732
# Poissons Ratio (z) = -0.10568 0.32507
#
# Static dielectric constant tensor:
#      x y z
#    x 1.774440 0.000000 0.000000 
#    y 0.000000 1.954480 0.000000 
#    z 0.000000 0.000000 1.790870 
# 
# From -- ./inp_files/24799.got.cif
#   From: 2010.05.17/outbox.cif.g08.bks.cpg/sg73_13_cif.got.tgz:24799.got - 2010.06.03 17:35:07.
