data_PCOD9533069
_publ_section_title
;
Structure prediction by ZEFSAII (Michael W. Deem and Ramdas Pophale) SiO2 
 PCOD9533069
Probable space group: I B C A 
;
_chemical_formula_sum "Si O2"
_cell_formula_units_Z 120
_cell_length_a 24.323498
_cell_length_b 18.791883
_cell_length_c 11.859743
_cell_angle_alpha 90.000000
_cell_angle_beta 90.000000
_cell_angle_gamma 90.000000
_cell_volume 5420.902666
_symmetry_space_group_name_H-M "I B C A "
_symmetry_group_IT_number 73
_symmetry_cell_setting 'orthorhombic'
loop_
_space_group_symop_operation_xyz
x,y,z
-x,1/2-y,z
x,-y,1/2-z
1/2-x,y,-z
-x,-y,-z
x,1/2+y,-z
-x,y,1/2+z
1/2+x,-y,z
1/2+x,1/2+y,1/2+z
1/2-x,-y,1/2+z
1/2+x,1/2-y,-z
-x,1/2+y,1/2-z
1/2-x,1/2-y,1/2-z
1/2+x,y,1/2-z
1/2-x,1/2+y,z
x,1/2-y,1/2+z
loop_
_atom_site_type_symbol
_atom_site_label
_atom_site_fract_x
_atom_site_fract_y
_atom_site_fract_z
Si Si1 0.099693 0.671965 0.074084
Si Si2 0.477599 0.830264 0.624655
Si Si3 0.750000 0.390420 0.500000
Si Si4 0.577464 0.923878 0.708822
Si Si5 0.365096 0.541792 0.479594
Si Si6 0.598109 0.327250 0.655455
Si Si7 0.223623 0.322882 0.785474
Si Si8 0.191556 0.398465 0.557905
O O1 0.100578 0.624682 0.188307
O O2 0.081060 0.753751 0.095418
O O3 0.052477 0.645543 0.989011
O O4 0.158739 0.663557 0.010723
O O5 0.500000 0.750000 0.616739
O O6 0.528675 0.879337 0.654443
O O7 0.433940 0.832831 0.727313
O O8 0.697067 0.432863 0.535600
O O9 0.737442 0.348123 0.386718
O O10 0.619661 0.946213 0.610092
O O11 0.555813 0.000000 0.750000
O O12 0.403157 0.596808 0.409373
O O13 0.355476 0.460172 0.443151
O O14 0.662462 0.310889 0.669873
O O15 0.250000 0.250000 0.750000
O O16 0.211636 0.375340 0.681467
O O17 0.250000 0.417426 0.500000
#
# Coordination Sequence:
#
# PCOD9533069 Si02
#       8
#    16  16   8  16  16  16  16  16
#     4  12  27  49  74 111 150 197 261 320 388 464
#     4  12  27  48  75 110 148 200 259 320 394 467
#     4  10  26  44  68 104 152 192 248 306 376 444
#     4  12  28  46  76 109 149 198 253 325 391 460
#     4  11  26  48  72 109 148 200 251 317 378 465
#     4  11  26  46  73 105 147 195 257 317 381 461
#     4  11  26  44  72 108 148 196 248 312 377 449
#     4  12  26  48  76 110 153 204 252 312 392 469
#
# _framework density 22.136534000000001
#
# number of rings (size 3 to 8) (size 9 to 14) (size 15 to 20)
#    0.000    0.533    4.667    1.600   12.133    3.733 
#    0.000    0.000    0.000    0.000    0.000    0.000 
#    0.000    0.000    0.000    0.000    0.000    0.000 
#
# Total GULP energy -334918.540992 kJ/mol
# GULP energy per Si atom -5581.975683 kJ/mol
# Density = 2.208615 g / cm^3
# Si number density = 22.136534 Si / 1000 Ang^3
#
#
#
# Elastic Constant Matrix: (Units=GPa)
#
#
# Indices 1 2 3 4 5 6 
#
# 1 32.3481 5.8329 1.1048 0.0000 0.0000 0.0000
# 2 5.8329 113.2266 45.9046 0.0000 0.0000 0.0000
# 3 1.1048 45.9046 119.2394 0.0000 0.0000 0.0000
# 4 0.0000 0.0000 0.0000 -55.7296 0.0000 0.0000
# 5 0.0000 0.0000 0.0000 0.0000 45.5032 0.0000
# 6 0.0000 0.0000 0.0000 0.0000 0.0000 45.5382
#
#
#
# Elastic Compliance Matrix: (Units=1/GPa)
#
#
# Indices 1 2 3 4 5 6 
#
# 1 0.031219 -0.001767 0.000391 0.000000 0.000000 0.000000
# 2 -0.001767 0.010565 -0.004051 0.000000 0.000000 0.000000
# 3 0.000391 -0.004051 0.009942 0.000000 0.000000 0.000000
# 4 0.000000 0.000000 0.000000 -0.017944 0.000000 0.000000
# 5 0.000000 0.000000 0.000000 0.000000 0.021976 0.000000
# 6 0.000000 0.000000 0.000000 0.000000 0.000000 0.021960
#
#
# Mechanical properties :
#
#
# Convention : Reuss Voigt Hill
#
# Bulk Modulus (GPa) = 24.46609 41.16654 32.81631
# Shear Modulus (GPa) = 48.92515 21.19380 35.05947
#
# Velocity S-wave (km/s) = 4.70633 3.09757 3.98399
# Velocity P-wave (km/s) = 6.37252 5.60627 6.00164
#
# Compressibility (1/GPa) = 0.04087291
#
# Stress axis : x y z
#
# Youngs Moduli (GPa) = 32.03181 94.65006 100.57914
#
# Poissons Ratio (x) = 0.16722 -0.03932
# Poissons Ratio (y) = 0.05659 0.40745
# Poissons Ratio (z) = -0.01252 0.38343
#
# Static dielectric constant tensor:
#      x y z
#    x 1.750660 0.000000 0.000000 
#    y 0.000000 -2.984940 0.000000 
#    z 0.000000 0.000000 3.590790 
# 
# From -- ./inp_files/12254.got.cif
#   From: 2010.05.17/outbox.cif.g08.bks.cpg/sg73_7_cif.got.tgz:12254.got - 2010.06.03 17:35:07.
