data_PCOD9533791
_publ_section_title
;
Structure prediction by ZEFSAII (Michael W. Deem and Ramdas Pophale) SiO2 
 PCOD9533791
Probable space group: I M M A
;
_chemical_formula_sum "Si O2"
_cell_formula_units_Z 52
_cell_length_a 15.041565
_cell_length_b 20.026803
_cell_length_c 7.362504
_cell_angle_alpha 90.000000
_cell_angle_beta 90.000000
_cell_angle_gamma 90.000000
_cell_volume 2217.839910
_symmetry_space_group_name_H-M "I M M A"
_symmetry_group_IT_number 74
_symmetry_cell_setting 'orthorhombic'
loop_
_space_group_symop_operation_xyz
x,y,z
-x,1/2-y,z
x,-y,-z
-x,1/2+y,-z
-x,-y,-z
x,1/2+y,-z
-x,y,z
x,1/2-y,z
1/2+x,1/2+y,1/2+z
1/2-x,-y,1/2+z
1/2+x,1/2-y,1/2-z
1/2-x,y,1/2-z
1/2-x,1/2-y,1/2-z
1/2+x,y,1/2-z
1/2-x,1/2+y,1/2+z
1/2+x,-y,1/2+z
loop_
_atom_site_type_symbol
_atom_site_label
_atom_site_fract_x
_atom_site_fract_y
_atom_site_fract_z
Si Si1 0.174190 0.672427 0.499254
Si Si2 0.000000 0.899150 0.609260
Si Si3 0.500000 0.035915 0.707900
Si Si4 0.637522 0.362866 0.579150
Si Si5 0.500000 0.750000 0.533323
O O1 0.187768 0.750000 0.542773
O O2 0.089797 0.644001 0.606510
O O3 0.266884 0.633260 0.516416
O O4 0.150929 0.666132 0.284417
O O5 0.000000 0.933587 0.410854
O O6 0.000000 0.957255 0.757548
O O7 0.413789 0.067845 0.612031
O O8 0.576216 0.308704 0.483240
#
# Coordination Sequence:
#
# PCOD9533791 Si02
#       5
#    16   8   8  16   4
#     4  10  15  22  34  58  82 112 130 173 217 262
#     4   9  17  24  35  51  86 117 138 163 215 259
#     4   8  16  26  34  51  77 122 140 166 203 256
#     4   9  15  21  36  52  80 110 140 167 211 252
#     4  10  12  20  32  54  78 102 124 174 198 250
#
# _framework density 23.446237
#
# number of rings (size 3 to 8) (size 9 to 14) (size 15 to 20)
#    0.000    2.769    3.077    2.308    0.000    0.000 
#    0.000    0.000    0.000    0.000    0.000    4.308 
#    0.000   39.385   41.846  102.154    0.000    0.000 
#
# Total GULP energy -144891.619639 kJ/mol
# GULP energy per Si atom -5572.754601 kJ/mol
# Density = 2.339287 g / cm^3
# Si number density = 23.446237 Si / 1000 Ang^3
#
#
#
# Elastic Constant Matrix: (Units=GPa)
#
#
# Indices 1 2 3 4 5 6 
#
# 1 240.4033 79.9945 55.0259 0.0000 0.0000 0.0000
# 2 79.9945 114.0074 49.0728 0.0000 0.0000 0.0000
# 3 55.0259 49.0728 94.2885 0.0000 0.0000 0.0000
# 4 0.0000 0.0000 0.0000 3.2826 0.0000 0.0000
# 5 0.0000 0.0000 0.0000 0.0000 -3.3880 0.0000
# 6 0.0000 0.0000 0.0000 0.0000 0.0000 1.2877
#
#
#
# Elastic Compliance Matrix: (Units=1/GPa)
#
#
# Indices 1 2 3 4 5 6 
#
# 1 0.005603 -0.003253 -0.001577 0.000000 0.000000 0.000000
# 2 -0.003253 0.013192 -0.004968 0.000000 0.000000 0.000000
# 3 -0.001577 -0.004968 0.014111 0.000000 0.000000 0.000000
# 4 0.000000 0.000000 0.000000 0.304639 0.000000 0.000000
# 5 0.000000 0.000000 0.000000 0.000000 -0.295158 0.000000
# 6 0.000000 0.000000 0.000000 0.000000 0.000000 0.776573
#
#
# Mechanical properties :
#
#
# Convention : Reuss Voigt Hill
#
# Bulk Modulus (GPa) = 75.12060 90.76506 82.94283
# Shear Modulus (GPa) = 5.93126 17.87685 11.90405
#
# Velocity S-wave (km/s) = 1.59224 2.76427 2.25570
# Velocity P-wave (km/s) = 5.95729 6.99888 6.49898
#
# Compressibility (1/GPa) = 0.01331193
#
# Stress axis : x y z
#
# Youngs Moduli (GPa) = 178.47799 75.80496 70.86442
#
# Poissons Ratio (x) = 0.24656 0.11175
# Poissons Ratio (y) = 0.58051 0.35202
# Poissons Ratio (z) = 0.28146 0.37656
#
# Static dielectric constant tensor:
#      x y z
#    x 1.864020 0.000000 0.000000 
#    y 0.000000 1.805580 0.000000 
#    z 0.000000 0.000000 1.954090 
# 
# From -- ./inp_files/8359.got.cif
#   From: 2010.05.17/outbox.cif.g08.bks.cpg/sg74_5_cif.got.tgz:8359.got - 2010.06.03 17:57:02.
