data_PCOD9533550
_publ_section_title
;
Structure prediction by ZEFSAII (Michael W. Deem and Ramdas Pophale) SiO2 
 PCOD9533550
Probable space group: I B C A 
;
_chemical_formula_sum "Si O2"
_cell_formula_units_Z 72
_cell_length_a 10.084091
_cell_length_b 13.111174
_cell_length_c 21.469204
_cell_angle_alpha 90.000000
_cell_angle_beta 90.000000
_cell_angle_gamma 90.000000
_cell_volume 2838.535172
_symmetry_space_group_name_H-M "I B C A "
_symmetry_group_IT_number 73
_symmetry_cell_setting 'orthorhombic'
loop_
_space_group_symop_operation_xyz
x,y,z
-x,1/2-y,z
x,-y,1/2-z
1/2-x,y,-z
-x,-y,-z
x,1/2+y,-z
-x,y,1/2+z
1/2+x,-y,z
1/2+x,1/2+y,1/2+z
1/2-x,-y,1/2+z
1/2+x,1/2-y,-z
-x,1/2+y,1/2-z
1/2-x,1/2-y,1/2-z
1/2+x,y,1/2-z
1/2-x,1/2+y,z
x,1/2-y,1/2+z
loop_
_atom_site_type_symbol
_atom_site_label
_atom_site_fract_x
_atom_site_fract_y
_atom_site_fract_z
Si Si1 0.778237 0.252693 0.640373
Si Si2 0.586750 0.586537 0.423588
Si Si3 0.118479 0.867853 0.969676
Si Si4 0.000000 0.250000 0.231263
Si Si5 0.076260 0.920001 0.195755
O O1 0.688282 0.168286 0.605576
O O2 0.881934 0.306895 0.593980
O O3 0.688805 0.342394 0.670711
O O4 0.873812 0.211059 0.693588
O O5 0.648432 0.484909 0.451799
O O6 0.499539 0.633455 0.480230
O O7 0.490333 0.543650 0.368655
O O8 0.250000 0.823416 0.000000
O O9 0.035447 0.346644 0.273374
O O10 0.113171 0.000000 0.250000
#
# Coordination Sequence:
#
# PCOD9533550 Si02
#       5
#    16  16  16   8  16
#     4  12  27  49  80 112 155 204 259 327 388 469
#     4  11  26  52  75 113 159 200 257 324 391 461
#     4  11  26  47  77 116 149 204 257 315 397 461
#     4  12  28  48  72 120 148 210 262 310 402 456
#     4  12  26  48  78 110 157 204 258 319 382 474
#
# _framework density 25.365196000000001
#
# number of rings (size 3 to 8) (size 9 to 14) (size 15 to 20)
#    0.000    0.444    4.444    2.000    3.111    7.111 
#    0.000    0.000    0.000    0.000    0.000    0.000 
#    0.000    0.000    0.000    0.000    0.000    0.000 
#
# Total GULP energy -201309.228117 kJ/mol
# GULP energy per Si atom -5591.923003 kJ/mol
# Density = 2.530746 g / cm^3
# Si number density = 25.365196 Si / 1000 Ang^3
#
#
#
# Elastic Constant Matrix: (Units=GPa)
#
#
# Indices 1 2 3 4 5 6 
#
# 1 96.7990 46.4492 58.3241 0.0000 0.0000 0.0000
# 2 46.4492 117.9941 65.6389 0.0000 0.0000 0.0000
# 3 58.3241 65.6389 156.3993 0.0000 0.0000 0.0000
# 4 0.0000 0.0000 0.0000 54.6163 0.0000 0.0000
# 5 0.0000 0.0000 0.0000 0.0000 31.6029 0.0000
# 6 0.0000 0.0000 0.0000 0.0000 0.0000 28.3783
#
#
#
# Elastic Compliance Matrix: (Units=1/GPa)
#
#
# Indices 1 2 3 4 5 6 
#
# 1 0.014345 -0.003485 -0.003887 0.000000 0.000000 0.000000
# 2 -0.003485 0.011903 -0.003696 0.000000 0.000000 0.000000
# 3 -0.003887 -0.003696 0.009395 0.000000 0.000000 0.000000
# 4 0.000000 0.000000 0.000000 0.018310 0.000000 0.000000
# 5 0.000000 0.000000 0.000000 0.000000 0.031643 0.000000
# 6 0.000000 0.000000 0.000000 0.000000 0.000000 0.035238
#
#
# Mechanical properties :
#
#
# Convention : Reuss Voigt Hill
#
# Bulk Modulus (GPa) = 74.03578 79.11297 76.57437
# Shear Modulus (GPa) = 33.90519 36.30485 35.10502
#
# Velocity S-wave (km/s) = 3.66003 3.78734 3.72423
# Velocity P-wave (km/s) = 6.86385 7.09807 6.98194
#
# Compressibility (1/GPa) = 0.01350698
#
# Stress axis : x y z
#
# Youngs Moduli (GPa) = 69.71164 84.01392 106.44457
#
# Poissons Ratio (x) = 0.29276 0.41375
# Poissons Ratio (y) = 0.24292 0.39342
# Poissons Ratio (z) = 0.27097 0.31051
#
# Static dielectric constant tensor:
#      x y z
#    x 1.976230 0.000000 0.000000 
#    y 0.000000 1.985830 0.000000 
#    z 0.000000 0.000000 2.085530 
# 
# From -- ./inp_files/25258.got.cif
#   From: 2010.05.17/outbox.cif.g08.bks.cpg/sg73_13_cif.got.tgz:25258.got - 2010.06.03 17:35:07.
