data_PCOD9533920
_publ_section_title
;
Structure prediction by ZEFSAII (Michael W. Deem and Ramdas Pophale) SiO2 
 PCOD9533920
Probable space group: I M M A
;
_chemical_formula_sum "Si O2"
_cell_formula_units_Z 88
_cell_length_a 22.793339
_cell_length_b 15.058662
_cell_length_c 13.162447
_cell_angle_alpha 90.000000
_cell_angle_beta 90.000000
_cell_angle_gamma 90.000000
_cell_volume 4517.841294
_symmetry_space_group_name_H-M "I M M A"
_symmetry_group_IT_number 74
_symmetry_cell_setting 'orthorhombic'
loop_
_space_group_symop_operation_xyz
x,y,z
-x,1/2-y,z
x,-y,-z
-x,1/2+y,-z
-x,-y,-z
x,1/2+y,-z
-x,y,z
x,1/2-y,z
1/2+x,1/2+y,1/2+z
1/2-x,-y,1/2+z
1/2+x,1/2-y,1/2-z
1/2-x,y,1/2-z
1/2-x,1/2-y,1/2-z
1/2+x,y,1/2-z
1/2-x,1/2+y,1/2+z
1/2+x,-y,1/2+z
loop_
_atom_site_type_symbol
_atom_site_label
_atom_site_fract_x
_atom_site_fract_y
_atom_site_fract_z
Si Si1 0.000000 0.858383 0.168833
Si Si2 0.185240 0.389527 0.710757
Si Si3 0.791907 0.914057 0.666150
Si Si4 0.377514 0.149877 0.593405
Si Si5 0.500000 0.354472 0.903667
Si Si6 0.372827 0.106585 0.996374
Si Si7 0.205252 0.500000 0.000000
O O1 0.943495 0.883869 0.103349
O O2 0.000000 0.891972 0.286928
O O3 0.000000 0.750000 0.173263
O O4 0.250000 0.366431 0.750000
O O5 0.180193 0.497111 0.716875
O O6 0.141130 0.346461 0.788734
O O7 0.168327 0.362650 0.596993
O O8 0.750000 0.868637 0.750000
O O9 0.842510 0.864167 0.602370
O O10 0.747350 0.956780 0.584084
O O11 0.373824 0.250000 0.550469
O O12 0.334603 0.079550 0.542013
O O13 0.500000 0.250000 0.889996
O O14 0.559763 0.375020 0.966050
O O15 0.368947 0.000000 0.000000
#
# Coordination Sequence:
#
# PCOD9533920 Si02
#       7
#     8  16  16  16   8  16   8
#     4   9  20  36  54  83 122 151 185 248 308 344
#     4  10  16  31  53  86 115 151 181 242 297 352
#     4  10  18  34  57  83 117 157 186 245 293 350
#     4  11  22  36  58  88 122 154 195 250 301 355
#     4  11  21  35  56  83 119 153 191 250 301 349
#     4  10  19  32  55  85 116 152 192 228 297 359
#     4  12  20  37  60  87 120 154 204 240 300 360
#
# _framework density 19.47833
#
# number of rings (size 3 to 8) (size 9 to 14) (size 15 to 20)
#    0.000    1.636    8.182    0.273    0.000    0.727 
#    0.000    2.727    0.000    2.182    0.000    1.273 
#    0.000    0.000    0.000    0.000    0.000    0.000 
#
# Total GULP energy -245147.145501 kJ/mol
# GULP energy per Si atom -5571.526034 kJ/mol
# Density = 1.943400 g / cm^3
# Si number density = 19.478330 Si / 1000 Ang^3
#
#
#
# Elastic Constant Matrix: (Units=GPa)
#
#
# Indices 1 2 3 4 5 6 
#
# 1 125.5567 21.3906 28.3143 0.0000 0.0000 0.0000
# 2 21.3906 53.5831 18.0538 0.0000 0.0000 0.0000
# 3 28.3143 18.0538 63.8672 0.0000 0.0000 0.0000
# 4 0.0000 0.0000 0.0000 14.6100 0.0000 0.0000
# 5 0.0000 0.0000 0.0000 0.0000 10.7620 0.0000
# 6 0.0000 0.0000 0.0000 0.0000 0.0000 2.4482
#
#
#
# Elastic Compliance Matrix: (Units=1/GPa)
#
#
# Indices 1 2 3 4 5 6 
#
# 1 0.009148 -0.002526 -0.003342 0.000000 0.000000 0.000000
# 2 -0.002526 0.021325 -0.004908 0.000000 0.000000 0.000000
# 3 -0.003342 -0.004908 0.018526 0.000000 0.000000 0.000000
# 4 0.000000 0.000000 0.000000 0.068446 0.000000 0.000000
# 5 0.000000 0.000000 0.000000 0.000000 0.092920 0.000000
# 6 0.000000 0.000000 0.000000 0.000000 0.000000 0.408464
#
#
# Mechanical properties :
#
#
# Convention : Reuss Voigt Hill
#
# Bulk Modulus (GPa) = 36.43299 42.05827 39.24563
# Shear Modulus (GPa) = 7.69786 17.24725 12.47255
#
# Velocity S-wave (km/s) = 1.99012 2.97889 2.53322
# Velocity P-wave (km/s) = 4.90161 5.78541 5.36175
#
# Compressibility (1/GPa) = 0.02744765
#
# Stress axis : x y z
#
# Youngs Moduli (GPa) = 109.30761 46.89388 53.97715
#
# Poissons Ratio (x) = 0.11846 0.18038
# Poissons Ratio (y) = 0.27613 0.26492
# Poissons Ratio (z) = 0.36527 0.23016
#
# Static dielectric constant tensor:
#      x y z
#    x 1.800950 0.000000 0.000000 
#    y 0.000000 1.698290 0.000000 
#    z 0.000000 0.000000 1.726190 
# 
# From -- ./inp_files/25024.got.cif
#   From: 2010.05.17/outbox.cif.g08.bks.cpg/sg74_13_cif.got.tgz:25024.got - 2010.06.03 17:57:02.
