data_PCOD9533235
_publ_section_title
;
Structure prediction by ZEFSAII (Michael W. Deem and Ramdas Pophale) SiO2 
 PCOD9533235
Probable space group: I B C A 
;
_chemical_formula_sum "Si O2"
_cell_formula_units_Z 96
_cell_length_a 21.898658
_cell_length_b 20.670862
_cell_length_c 9.148714
_cell_angle_alpha 90.000000
_cell_angle_beta 90.000000
_cell_angle_gamma 90.000000
_cell_volume 4141.294732
_symmetry_space_group_name_H-M "I B C A "
_symmetry_group_IT_number 73
_symmetry_cell_setting 'orthorhombic'
loop_
_space_group_symop_operation_xyz
x,y,z
-x,1/2-y,z
x,-y,1/2-z
1/2-x,y,-z
-x,-y,-z
x,1/2+y,-z
-x,y,1/2+z
1/2+x,-y,z
1/2+x,1/2+y,1/2+z
1/2-x,-y,1/2+z
1/2+x,1/2-y,-z
-x,1/2+y,1/2-z
1/2-x,1/2-y,1/2-z
1/2+x,y,1/2-z
1/2-x,1/2+y,z
x,1/2-y,1/2+z
loop_
_atom_site_type_symbol
_atom_site_label
_atom_site_fract_x
_atom_site_fract_y
_atom_site_fract_z
Si Si1 0.684478 0.796251 0.926536
Si Si2 0.477908 0.908647 0.080738
Si Si3 0.488401 0.334694 0.676586
Si Si4 0.196841 0.554737 0.121764
Si Si5 0.904449 0.997258 0.913467
Si Si6 0.104873 0.221918 0.215240
O O1 0.632840 0.792153 0.055702
O O2 0.750000 0.783513 0.000000
O O3 0.690253 0.867336 0.848790
O O4 0.662873 0.741146 0.813848
O O5 0.459011 0.896721 0.246751
O O6 0.532654 0.958358 0.092987
O O7 0.502463 0.844700 0.994724
O O8 0.422925 0.934764 0.984393
O O9 0.443124 0.280078 0.739798
O O10 0.558279 0.333591 0.735606
O O11 0.204395 0.500000 0.250000
O O12 0.250000 0.548947 0.000000
O O13 0.137922 0.536953 0.028628
O O14 0.878299 0.000000 0.750000
#
# Coordination Sequence:
#
# PCOD9533235 Si02
#       6
#    16  16  16  16  16  16
#     4  11  25  46  70  98 138 182 233 290 345 421
#     4  11  23  37  60  97 134 178 223 276 354 409
#     4  11  22  39  64  97 135 176 223 285 349 420
#     4  11  26  48  73 101 136 182 238 295 350 407
#     4  11  23  39  63  95 136 181 229 285 342 422
#     4  11  23  42  68 100 134 179 228 285 351 413
#
# _framework density 23.181156999999999
#
# number of rings (size 3 to 8) (size 9 to 14) (size 15 to 20)
#    0.000    1.000    1.667    5.000    4.667    2.667 
#    0.000    0.833    0.000    0.000    0.000    0.000 
#    0.000    0.000    0.000    0.000    0.000    0.000 
#
# Total GULP energy -267423.717526 kJ/mol
# GULP energy per Si atom -5571.327448 kJ/mol
# Density = 2.312840 g / cm^3
# Si number density = 23.181157 Si / 1000 Ang^3
#
#
#
# Elastic Constant Matrix: (Units=GPa)
#
#
# Indices 1 2 3 4 5 6 
#
# 1 64.5626 1.7698 8.6435 0.0000 0.0000 0.0000
# 2 1.7698 34.3977 20.7453 0.0000 0.0000 0.0000
# 3 8.6435 20.7453 108.7694 0.0000 0.0000 0.0000
# 4 0.0000 0.0000 0.0000 33.5863 0.0000 0.0000
# 5 0.0000 0.0000 0.0000 0.0000 -27.7740 0.0000
# 6 0.0000 0.0000 0.0000 0.0000 0.0000 20.5122
#
#
#
# Elastic Compliance Matrix: (Units=1/GPa)
#
#
# Indices 1 2 3 4 5 6 
#
# 1 0.015656 -0.000062 -0.001232 0.000000 0.000000 0.000000
# 2 -0.000062 0.032851 -0.006261 0.000000 0.000000 0.000000
# 3 -0.001232 -0.006261 0.010486 0.000000 0.000000 0.000000
# 4 0.000000 0.000000 0.000000 0.029774 0.000000 0.000000
# 5 0.000000 0.000000 0.000000 0.000000 -0.036005 0.000000
# 6 0.000000 0.000000 0.000000 0.000000 0.000000 0.048752
#
#
# Mechanical properties :
#
#
# Convention : Reuss Voigt Hill
#
# Bulk Modulus (GPa) = 22.78855 30.00521 26.39688
# Shear Modulus (GPa) = 38.09521 17.03629 27.56575
#
# Velocity S-wave (km/s) = 4.05825 2.71388 3.45214
# Velocity P-wave (km/s) = 5.64014 4.77411 5.22509
#
# Compressibility (1/GPa) = 0.04388169
#
# Stress axis : x y z
#
# Youngs Moduli (GPa) = 63.87522 30.44082 95.36760
#
# Poissons Ratio (x) = 0.00190 0.11751
# Poissons Ratio (y) = 0.00398 0.59705
# Poissons Ratio (z) = 0.07871 0.19058
#
# Static dielectric constant tensor:
#      x y z
#    x 1.910510 0.000000 0.000000 
#    y 0.000000 2.117560 0.000000 
#    z 0.000000 0.000000 1.864220 
# 
# From -- ./inp_files/7158.got.cif
#   From: 2010.05.17/outbox.cif.g08.bks.cpg/sg73_4_cif.got.tgz:7158.got - 2010.06.03 17:35:07.
