data_PCOD9533947
_publ_section_title
;
Structure prediction by ZEFSAII (Michael W. Deem and Ramdas Pophale) SiO2 
 PCOD9533947
Probable space group: I M M A
;
_chemical_formula_sum "Si O2"
_cell_formula_units_Z 72
_cell_length_a 8.637412
_cell_length_b 23.661375
_cell_length_c 24.430290
_cell_angle_alpha 90.000000
_cell_angle_beta 90.000000
_cell_angle_gamma 90.000000
_cell_volume 4992.892742
_symmetry_space_group_name_H-M "I M M A"
_symmetry_group_IT_number 74
_symmetry_cell_setting 'orthorhombic'
loop_
_space_group_symop_operation_xyz
x,y,z
-x,1/2-y,z
x,-y,-z
-x,1/2+y,-z
-x,-y,-z
x,1/2+y,-z
-x,y,z
x,1/2-y,z
1/2+x,1/2+y,1/2+z
1/2-x,-y,1/2+z
1/2+x,1/2-y,1/2-z
1/2-x,y,1/2-z
1/2-x,1/2-y,1/2-z
1/2+x,y,1/2-z
1/2-x,1/2+y,1/2+z
1/2+x,-y,1/2+z
loop_
_atom_site_type_symbol
_atom_site_label
_atom_site_fract_x
_atom_site_fract_y
_atom_site_fract_z
Si Si1 0.814735 0.685617 0.987677
Si Si2 0.186308 0.348556 0.606788
Si Si3 0.313667 0.750000 0.189073
Si Si4 0.684725 0.573373 0.955968
Si Si5 0.684817 0.038084 0.575722
O O1 0.780116 0.750000 0.971333
O O2 0.742331 0.637408 0.949052
O O3 0.000000 0.678115 0.989788
O O4 0.748376 0.675534 0.048874
O O5 0.233207 0.305283 0.654334
O O6 0.253405 0.411583 0.613824
O O7 0.000000 0.351254 0.603633
O O8 0.500000 0.750000 0.191001
O O9 0.250000 0.750000 0.250000
O O10 0.500000 0.570801 0.957876
O O11 0.749261 0.524890 0.915915
O O12 0.752646 0.556730 0.015745
O O13 0.500000 0.036954 0.574939
#
# Coordination Sequence:
#
# PCOD9533947 Si02
#       5
#    16  16   8  16  16
#     4  10  18  26  38  56  77 102 130 161 194 231
#     4  10  18  30  43  57  73  95 126 160 200 240
#     4  10  22  34  46  60  78 100 128 168 208 248
#     4  10  17  25  37  53  74  99 124 156 190 225
#     4  10  17  26  39  55  73  94 121 156 193 231
#
# _framework density 14.420499
#
# number of rings (size 3 to 8) (size 9 to 14) (size 15 to 20)
#    0.000    2.000    1.111    9.333    0.000    3.111 
#    0.000    0.000    0.000    0.000    0.000    0.000 
#    0.000    0.000    0.000    0.000    0.000    1.111 
#
# Total GULP energy -200584.091760 kJ/mol
# GULP energy per Si atom -5571.780327 kJ/mol
# Density = 1.438768 g / cm^3
# Si number density = 14.420499 Si / 1000 Ang^3
#
#
#
# Elastic Constant Matrix: (Units=GPa)
#
#
# Indices 1 2 3 4 5 6 
#
# 1 103.7882 63.3352 16.2004 0.0000 0.0000 0.0000
# 2 63.3352 166.0849 41.1689 0.0000 0.0000 0.0000
# 3 16.2004 41.1689 31.0010 0.0000 0.0000 0.0000
# 4 0.0000 0.0000 0.0000 10.5442 0.0000 0.0000
# 5 0.0000 0.0000 0.0000 0.0000 12.5562 0.0000
# 6 0.0000 0.0000 0.0000 0.0000 0.0000 30.5305
#
#
#
# Elastic Compliance Matrix: (Units=1/GPa)
#
#
# Indices 1 2 3 4 5 6 
#
# 1 0.012559 -0.004714 -0.000303 0.000000 0.000000 0.000000
# 2 -0.004714 0.010745 -0.011806 0.000000 0.000000 0.000000
# 3 -0.000303 -0.011806 0.048093 0.000000 0.000000 0.000000
# 4 0.000000 0.000000 0.000000 0.094839 0.000000 0.000000
# 5 0.000000 0.000000 0.000000 0.000000 0.079642 0.000000
# 6 0.000000 0.000000 0.000000 0.000000 0.000000 0.032754
#
#
# Mechanical properties :
#
#
# Convention : Reuss Voigt Hill
#
# Bulk Modulus (GPa) = 26.48864 60.25368 43.37116
# Shear Modulus (GPa) = 15.39113 22.73748 19.06430
#
# Velocity S-wave (km/s) = 3.27051 3.97514 3.63991
# Velocity P-wave (km/s) = 5.71579 7.93366 6.91424
#
# Compressibility (1/GPa) = 0.03775203
#
# Stress axis : x y z
#
# Youngs Moduli (GPa) = 79.62369 93.06457 20.79291
#
# Poissons Ratio (x) = 0.43874 0.00629
# Poissons Ratio (y) = 0.37537 0.24548
# Poissons Ratio (z) = 0.02409 1.09871
#
# Static dielectric constant tensor:
#      x y z
#    x 1.482210 0.000000 0.000000 
#    y 0.000000 1.559130 0.000000 
#    z 0.000000 0.000000 1.428030 
# 
# From -- ./inp_files/57124.got.cif
#   From: 2010.05.17/outbox.cif.g08.bks.cpg/sg74_29_cif.got.tgz:57124.got - 2010.06.03 17:57:02.
