data_PCOD9533067
_publ_section_title
;
Structure prediction by ZEFSAII (Michael W. Deem and Ramdas Pophale) SiO2 
 PCOD9533067
Probable space group: I B C A 
;
_chemical_formula_sum "Si O2"
_cell_formula_units_Z 72
_cell_length_a 9.299687
_cell_length_b 24.886643
_cell_length_c 13.634052
_cell_angle_alpha 90.000000
_cell_angle_beta 90.000000
_cell_angle_gamma 90.000000
_cell_volume 3155.437596
_symmetry_space_group_name_H-M "I B C A "
_symmetry_group_IT_number 73
_symmetry_cell_setting 'orthorhombic'
loop_
_space_group_symop_operation_xyz
x,y,z
-x,1/2-y,z
x,-y,1/2-z
1/2-x,y,-z
-x,-y,-z
x,1/2+y,-z
-x,y,1/2+z
1/2+x,-y,z
1/2+x,1/2+y,1/2+z
1/2-x,-y,1/2+z
1/2+x,1/2-y,-z
-x,1/2+y,1/2-z
1/2-x,1/2-y,1/2-z
1/2+x,y,1/2-z
1/2-x,1/2+y,z
x,1/2-y,1/2+z
loop_
_atom_site_type_symbol
_atom_site_label
_atom_site_fract_x
_atom_site_fract_y
_atom_site_fract_z
Si Si1 0.114910 0.370106 0.069813
Si Si2 0.495284 0.000000 0.750000
Si Si3 0.630169 0.446750 0.916643
Si Si4 0.161434 0.112141 0.789517
Si Si5 0.908587 0.699605 0.547000
O O1 0.165632 0.364364 0.181268
O O2 0.023911 0.424943 0.049805
O O3 0.250000 0.368578 0.000000
O O4 0.004905 0.323769 0.040599
O O5 0.397579 0.996662 0.652988
O O6 0.586540 0.946128 0.770585
O O7 0.687174 0.402398 0.839307
O O8 0.750000 0.452365 0.000000
O O9 0.096360 0.153441 0.868830
O O10 0.750000 0.710116 0.500000
O O11 0.000000 0.750000 0.585380
#
# Coordination Sequence:
#
# PCOD9533067 Si02
#       5
#    16   8  16  16  16
#     4  11  25  44  76 110 148 199 257 317 392 464
#     4  10  26  42  74 120 148 212 262 320 410 482
#     4  11  22  48  71 104 159 200 259 330 387 469
#     4  11  24  48  75 111 162 203 260 324 397 472
#     4  12  26  52  78 113 157 208 268 328 388 465
#
# _framework density 22.817754000000001
#
# number of rings (size 3 to 8) (size 9 to 14) (size 15 to 20)
#    0.000    0.889    4.444    1.333    6.222    1.778 
#    4.000    7.778    0.000    1.333    0.000    0.000 
#    0.000    0.000    0.000    0.000    0.000    0.000 
#
# Total GULP energy -201172.421885 kJ/mol
# GULP energy per Si atom -5588.122830 kJ/mol
# Density = 2.276582 g / cm^3
# Si number density = 22.817754 Si / 1000 Ang^3
#
#
#
# Elastic Constant Matrix: (Units=GPa)
#
#
# Indices 1 2 3 4 5 6 
#
# 1 149.4600 35.5530 61.3213 0.0000 0.0000 0.0000
# 2 35.5530 85.9702 41.0312 0.0000 0.0000 0.0000
# 3 61.3213 41.0312 114.3054 -0.0001 0.0001 0.0000
# 4 0.0000 0.0000 -0.0001 30.6743 0.0000 0.0000
# 5 0.0000 0.0000 0.0001 0.0000 31.4858 0.0000
# 6 0.0000 0.0000 0.0000 0.0000 0.0000 21.1513
#
#
#
# Elastic Compliance Matrix: (Units=1/GPa)
#
#
# Indices 1 2 3 4 5 6 
#
# 1 0.008773 -0.001667 -0.004108 0.000000 0.000000 0.000000
# 2 -0.001667 0.014354 -0.004258 0.000000 0.000000 0.000000
# 3 -0.004108 -0.004258 0.012481 0.000000 0.000000 0.000000
# 4 0.000000 0.000000 0.000000 0.032601 0.000000 0.000000
# 5 0.000000 0.000000 0.000000 0.000000 0.031760 0.000000
# 6 0.000000 0.000000 0.000000 0.000000 0.000000 0.047279
#
#
# Mechanical properties :
#
#
# Convention : Reuss Voigt Hill
#
# Bulk Modulus (GPa) = 64.34659 69.50521 66.92590
# Shear Modulus (GPa) = 28.98670 30.78429 29.88550
#
# Velocity S-wave (km/s) = 3.56807 3.67705 3.62297
# Velocity P-wave (km/s) = 6.72580 6.96812 6.84803
#
# Compressibility (1/GPa) = 0.01554084
#
# Stress axis : x y z
#
# Youngs Moduli (GPa) = 113.98926 69.66857 80.12441
#
# Poissons Ratio (x) = 0.11617 0.32913
# Poissons Ratio (y) = 0.19007 0.34116
# Poissons Ratio (z) = 0.46824 0.29664
#
# Static dielectric constant tensor:
#      x y z
#    x 1.937110 0.000000 0.000000 
#    y 0.000000 1.947240 0.000000 
#    z 0.000000 0.000000 1.860340 
# 
# From -- ./inp_files/15507.got.cif
#   From: 2010.05.17/outbox.cif.g08.bks.cpg/sg73_8_cif.got.tgz:15507.got - 2010.06.03 17:35:07.
