data_PCOD9533247
_publ_section_title
;
Structure prediction by ZEFSAII (Michael W. Deem and Ramdas Pophale) SiO2 
 PCOD9533247
Probable space group: I B C A 
;
_chemical_formula_sum "Si O2"
_cell_formula_units_Z 72
_cell_length_a 8.980950
_cell_length_b 22.950043
_cell_length_c 14.623930
_cell_angle_alpha 90.000000
_cell_angle_beta 90.000000
_cell_angle_gamma 90.000000
_cell_volume 3014.184843
_symmetry_space_group_name_H-M "I B C A "
_symmetry_group_IT_number 73
_symmetry_cell_setting 'orthorhombic'
loop_
_space_group_symop_operation_xyz
x,y,z
-x,1/2-y,z
x,-y,1/2-z
1/2-x,y,-z
-x,-y,-z
x,1/2+y,-z
-x,y,1/2+z
1/2+x,-y,z
1/2+x,1/2+y,1/2+z
1/2-x,-y,1/2+z
1/2+x,1/2-y,-z
-x,1/2+y,1/2-z
1/2-x,1/2-y,1/2-z
1/2+x,y,1/2-z
1/2-x,1/2+y,z
x,1/2-y,1/2+z
loop_
_atom_site_type_symbol
_atom_site_label
_atom_site_fract_x
_atom_site_fract_y
_atom_site_fract_z
Si Si1 0.437055 0.434938 0.663910
Si Si2 0.894424 0.173750 0.891933
Si Si3 0.428611 0.843505 0.091915
Si Si4 0.500000 0.750000 0.745081
Si Si5 0.912008 0.047436 0.638276
O O1 0.472759 0.369271 0.634961
O O2 0.263644 0.449871 0.655349
O O3 0.499235 0.440075 0.767100
O O4 0.531671 0.483786 0.609365
O O5 0.741206 0.137413 0.888323
O O6 0.880445 0.225955 0.819294
O O7 0.918595 0.191296 0.996674
O O8 0.474171 0.803451 0.176563
O O9 0.535390 0.898451 0.077524
#
# Coordination Sequence:
#
# PCOD9533247 Si02
#       5
#    16  16  16   8  16
#     4  11  22  40  69 101 137 177 222 274 337 406
#     4  11  25  44  68 101 139 179 226 279 338 402
#     4  11  25  44  68 101 139 179 226 279 338 402
#     4  12  24  44  74  96 134 184 228 286 334 402
#     4  11  22  40  69 101 137 177 222 274 337 406
#
# _framework density 23.887055
#
# number of rings (size 3 to 8) (size 9 to 14) (size 15 to 20)
#    0.000    0.889    2.222    6.667    0.000    3.556 
#    0.000    0.000    0.000    0.000    0.000    0.000 
#    0.000    0.000    0.000    0.000    0.000    0.000 
#
# Total GULP energy -201168.067007 kJ/mol
# GULP energy per Si atom -5588.001861 kJ/mol
# Density = 2.383269 g / cm^3
# Si number density = 23.887055 Si / 1000 Ang^3
#
#
#
# Elastic Constant Matrix: (Units=GPa)
#
#
# Indices 1 2 3 4 5 6 
#
# 1 129.0469 19.5095 -5.8177 0.0000 0.0000 0.0000
# 2 19.5095 95.3559 20.9671 0.0000 0.0000 0.0000
# 3 -5.8177 20.9671 127.3491 0.0001 0.0000 0.0000
# 4 0.0000 0.0000 0.0001 25.3905 0.0000 0.0000
# 5 0.0000 0.0000 0.0000 0.0000 18.7854 0.0000
# 6 0.0000 0.0000 0.0000 0.0000 0.0000 31.6242
#
#
#
# Elastic Compliance Matrix: (Units=1/GPa)
#
#
# Indices 1 2 3 4 5 6 
#
# 1 0.008050 -0.001793 0.000663 0.000000 0.000000 0.000000
# 2 -0.001793 0.011280 -0.001939 0.000000 0.000000 0.000000
# 3 0.000663 -0.001939 0.008202 0.000000 0.000000 0.000000
# 4 0.000000 0.000000 0.000000 0.039385 0.000000 0.000000
# 5 0.000000 0.000000 0.000000 0.000000 0.053233 0.000000
# 6 0.000000 0.000000 0.000000 0.000000 0.000000 0.031621
#
#
# Mechanical properties :
#
#
# Convention : Reuss Voigt Hill
#
# Bulk Modulus (GPa) = 46.74145 46.78554 46.76349
# Shear Modulus (GPa) = 30.29560 36.29955 33.29758
#
# Velocity S-wave (km/s) = 3.56516 3.90248 3.73763
# Velocity P-wave (km/s) = 6.04627 6.31937 6.18433
#
# Compressibility (1/GPa) = 0.02139429
#
# Stress axis : x y z
#
# Youngs Moduli (GPa) = 124.22298 88.65092 121.92185
#
# Poissons Ratio (x) = 0.15893 -0.08082
# Poissons Ratio (y) = 0.22270 0.23642
# Poissons Ratio (z) = -0.08235 0.17190
#
# Static dielectric constant tensor:
#      x y z
#    x 1.903950 0.000000 0.000000 
#    y 0.000000 1.979670 0.000000 
#    z 0.000000 0.000000 1.963980 
# 
# From -- ./inp_files/15528.got.cif
#   From: 2010.05.17/outbox.cif.g08.bks.cpg/sg73_8_cif.got.tgz:15528.got - 2010.06.03 17:35:07.
