data_PCOD9533403
_publ_section_title
;
Structure prediction by ZEFSAII (Michael W. Deem and Ramdas Pophale) SiO2 
 PCOD9533403
Probable space group: I B C A 
;
_chemical_formula_sum "Si O2"
_cell_formula_units_Z 80
_cell_length_a 15.149849
_cell_length_b 24.703545
_cell_length_c 9.959885
_cell_angle_alpha 90.000000
_cell_angle_beta 90.000000
_cell_angle_gamma 90.000000
_cell_volume 3727.536527
_symmetry_space_group_name_H-M "I B C A "
_symmetry_group_IT_number 73
_symmetry_cell_setting 'orthorhombic'
loop_
_space_group_symop_operation_xyz
x,y,z
-x,1/2-y,z
x,-y,1/2-z
1/2-x,y,-z
-x,-y,-z
x,1/2+y,-z
-x,y,1/2+z
1/2+x,-y,z
1/2+x,1/2+y,1/2+z
1/2-x,-y,1/2+z
1/2+x,1/2-y,-z
-x,1/2+y,1/2-z
1/2-x,1/2-y,1/2-z
1/2+x,y,1/2-z
1/2-x,1/2+y,z
x,1/2-y,1/2+z
loop_
_atom_site_type_symbol
_atom_site_label
_atom_site_fract_x
_atom_site_fract_y
_atom_site_fract_z
Si Si1 0.880722 0.472479 0.386710
Si Si2 0.104755 0.353729 0.953853
Si Si3 0.307876 0.742046 0.881340
Si Si4 0.436001 0.845998 0.268353
Si Si5 0.595597 0.959539 0.865699
O O1 0.849879 0.500000 0.250000
O O2 0.850035 0.412232 0.428021
O O3 0.864817 0.517168 0.499375
O O4 0.988157 0.464687 0.377387
O O5 0.162572 0.300291 0.936853
O O6 0.031823 0.348604 0.836180
O O7 0.064989 0.351110 0.105977
O O8 0.250000 0.750000 0.750000
O O9 0.389381 0.706539 0.829431
O O10 0.250000 0.715441 0.000000
O O11 0.385066 0.898555 0.325052
O O12 0.623468 0.000000 0.750000
#
# Coordination Sequence:
#
# PCOD9533403 Si02
#       5
#    16  16  16  16  16
#     4   9  18  31  56  93 129 160 197 251 313 370
#     4  11  24  41  65  97 130 161 211 266 310 369
#     4  12  27  46  66  86 124 173 215 261 321 374
#     4  11  24  40  66  97 128 163 212 264 310 373
#     4   9  16  31  56  89 127 158 194 245 316 366
#
# _framework density 21.461897
#
# number of rings (size 3 to 8) (size 9 to 14) (size 15 to 20)
#    0.000    1.600    4.000    0.600   11.200    1.600 
#    0.000    0.000    0.000    7.200    0.000    0.000 
#    0.000    0.000    0.000    0.000    0.000    0.000 
#
# Total GULP energy -223332.353783 kJ/mol
# GULP energy per Si atom -5583.308845 kJ/mol
# Density = 2.141305 g / cm^3
# Si number density = 21.461897 Si / 1000 Ang^3
#
#
#
# Elastic Constant Matrix: (Units=GPa)
#
#
# Indices 1 2 3 4 5 6 
#
# 1 34.3533 18.0259 17.1779 0.0000 0.0003 0.0000
# 2 18.0259 123.5846 39.8565 0.0002 -0.0006 0.0001
# 3 17.1779 39.8565 171.3513 0.0019 0.0036 -0.0003
# 4 0.0000 0.0002 0.0019 33.7023 0.0003 0.0000
# 5 0.0003 -0.0006 0.0036 0.0003 99.1117 -0.0005
# 6 0.0000 0.0001 -0.0003 0.0000 -0.0005 -23.4497
#
#
#
# Elastic Compliance Matrix: (Units=1/GPa)
#
#
# Indices 1 2 3 4 5 6 
#
# 1 0.032353 -0.003971 -0.002320 0.000000 0.000000 0.000000
# 2 -0.003971 0.009235 -0.001750 0.000000 0.000000 0.000000
# 3 -0.002320 -0.001750 0.006476 0.000000 0.000000 0.000000
# 4 0.000000 0.000000 0.000000 0.029672 0.000000 0.000000
# 5 0.000000 0.000000 0.000000 0.000000 0.010090 0.000000
# 6 0.000000 0.000000 0.000000 0.000000 0.000000 -0.042644
#
#
# Mechanical properties :
#
#
# Convention : Reuss Voigt Hill
#
# Bulk Modulus (GPa) = 31.26720 53.26776 42.26748
# Shear Modulus (GPa) = 69.51937 38.82145 54.17041
#
# Velocity S-wave (km/s) = 5.69757 4.25768 5.02942
# Velocity P-wave (km/s) = 7.60812 7.00314 7.31189
#
# Compressibility (1/GPa) = 0.03198240
#
# Stress axis : x y z
#
# Youngs Moduli (GPa) = 30.90920 108.28138 154.42629
#
# Poissons Ratio (x) = 0.42996 0.35823
# Poissons Ratio (y) = 0.12273 0.27025
# Poissons Ratio (z) = 0.07170 0.18950
#
# Static dielectric constant tensor:
#      x y z
#    x 1.845680 0.000000 0.000000 
#    y 0.000000 1.798880 0.000000 
#    z 0.000000 0.000000 1.712680 
# 
# From -- ./inp_files/5582.got.cif
#   From: 2010.05.17/outbox.cif.g08.bks.cpg/sg73_3_cif.got.tgz:5582.got - 2010.06.03 17:35:07.
