data_PCOD9533018
_publ_section_title
;
Structure prediction by ZEFSAII (Michael W. Deem and Ramdas Pophale) SiO2 
 PCOD9533018
Probable space group: I B C A 
;
_chemical_formula_sum "Si O2"
_cell_formula_units_Z 56
_cell_length_a 23.774001
_cell_length_b 16.930869
_cell_length_c 5.393827
_cell_angle_alpha 90.000000
_cell_angle_beta 90.000000
_cell_angle_gamma 90.000000
_cell_volume 2171.093559
_symmetry_space_group_name_H-M "I B C A "
_symmetry_group_IT_number 73
_symmetry_cell_setting 'orthorhombic'
loop_
_space_group_symop_operation_xyz
x,y,z
-x,1/2-y,z
x,-y,1/2-z
1/2-x,y,-z
-x,-y,-z
x,1/2+y,-z
-x,y,1/2+z
1/2+x,-y,z
1/2+x,1/2+y,1/2+z
1/2-x,-y,1/2+z
1/2+x,1/2-y,-z
-x,1/2+y,1/2-z
1/2-x,1/2-y,1/2-z
1/2+x,y,1/2-z
1/2-x,1/2+y,z
x,1/2-y,1/2+z
loop_
_atom_site_type_symbol
_atom_site_label
_atom_site_fract_x
_atom_site_fract_y
_atom_site_fract_z
Si Si1 0.684705 0.298789 0.475770
Si Si2 0.868599 0.409066 0.201047
Si Si3 0.250000 0.450456 0.500000
Si Si4 0.022273 0.158705 0.967024
O O1 0.750000 0.323417 0.500000
O O2 0.675705 0.243397 0.716456
O O3 0.644224 0.371196 0.531272
O O4 0.884310 0.500000 0.250000
O O5 0.915136 0.357425 0.062402
O O6 0.808474 0.406645 0.057987
O O7 0.240588 0.500000 0.250000
O O8 0.000000 0.250000 0.943232
O O9 0.986448 0.123600 0.195000
#
# Coordination Sequence:
#
# PCOD9533018 Si02
#       4
#    16  16   8  16
#     4  10  25  44  68 104 149 197 247 296 368 460
#     4  11  27  46  80 114 155 202 254 320 389 460
#     4  10  26  46  70 114 166 198 234 306 398 470
#     4  10  25  48  75 104 144 201 259 317 377 443
#
# _framework density 25.793451000000001
#
# number of rings (size 3 to 8) (size 9 to 14) (size 15 to 20)
#    0.000    1.714    0.000    0.000   22.000    5.714 
#    0.000    0.000    0.000    0.000    0.000    0.000 
#    0.000    0.000    0.000    0.000    0.000    0.000 
#
# Total GULP energy -156783.357606 kJ/mol
# GULP energy per Si atom -5599.405629 kJ/mol
# Density = 2.573474 g / cm^3
# Si number density = 25.793451 Si / 1000 Ang^3
#
#
#
# Elastic Constant Matrix: (Units=GPa)
#
#
# Indices 1 2 3 4 5 6 
#
# 1 156.4697 39.1431 15.3186 0.0000 0.0000 0.0000
# 2 39.1431 108.8254 33.2905 0.0000 0.0000 0.0000
# 3 15.3186 33.2905 149.4646 0.0000 0.0000 0.0000
# 4 0.0000 0.0000 0.0000 35.5461 0.0000 0.0000
# 5 0.0000 0.0000 0.0000 0.0000 48.5823 0.0000
# 6 0.0000 0.0000 0.0000 0.0000 0.0000 38.0797
#
#
#
# Elastic Compliance Matrix: (Units=1/GPa)
#
#
# Indices 1 2 3 4 5 6 
#
# 1 0.007027 -0.002476 -0.000169 0.000000 0.000000 0.000000
# 2 -0.002476 0.010733 -0.002137 0.000000 0.000000 0.000000
# 3 -0.000169 -0.002137 0.007184 0.000000 0.000000 0.000000
# 4 0.000000 0.000000 0.000000 0.028132 0.000000 0.000000
# 5 0.000000 0.000000 0.000000 0.000000 0.020584 0.000000
# 6 0.000000 0.000000 0.000000 0.000000 0.000000 0.026261
#
#
# Mechanical properties :
#
#
# Convention : Reuss Voigt Hill
#
# Bulk Modulus (GPa) = 65.01535 65.58490 65.30012
# Shear Modulus (GPa) = 43.62592 46.24212 44.93402
#
# Velocity S-wave (km/s) = 4.11707 4.23872 4.17834
# Velocity P-wave (km/s) = 6.91818 7.03121 6.97492
#
# Compressibility (1/GPa) = 0.01538098
#
# Stress axis : x y z
#
# Youngs Moduli (GPa) = 142.31011 93.16830 139.20224
#
# Poissons Ratio (x) = 0.23067 0.02349
# Poissons Ratio (y) = 0.35234 0.29746
# Poissons Ratio (z) = 0.02401 0.19909
#
# Static dielectric constant tensor:
#      x y z
#    x 2.085350 0.000000 0.000000 
#    y 0.000000 1.978660 0.000000 
#    z 0.000000 0.000000 2.029920 
# 
# From -- ./inp_files/2004.got.cif
#   From: 2010.05.17/outbox.cif.g08.bks.cpg/sg73_2_cif.got.tgz:2004.got - 2010.06.03 17:35:07.
