data_PCOD9533631
_publ_section_title
;
Structure prediction by ZEFSAII (Michael W. Deem and Ramdas Pophale) SiO2 
 PCOD9533631
Probable space group: I B C A 
;
_chemical_formula_sum "Si O2"
_cell_formula_units_Z 72
_cell_length_a 12.145501
_cell_length_b 24.032914
_cell_length_c 11.223217
_cell_angle_alpha 90.000000
_cell_angle_beta 90.000000
_cell_angle_gamma 90.000000
_cell_volume 3275.964799
_symmetry_space_group_name_H-M "I B C A "
_symmetry_group_IT_number 73
_symmetry_cell_setting 'orthorhombic'
loop_
_space_group_symop_operation_xyz
x,y,z
-x,1/2-y,z
x,-y,1/2-z
1/2-x,y,-z
-x,-y,-z
x,1/2+y,-z
-x,y,1/2+z
1/2+x,-y,z
1/2+x,1/2+y,1/2+z
1/2-x,-y,1/2+z
1/2+x,1/2-y,-z
-x,1/2+y,1/2-z
1/2-x,1/2-y,1/2-z
1/2+x,y,1/2-z
1/2-x,1/2+y,z
x,1/2-y,1/2+z
loop_
_atom_site_type_symbol
_atom_site_label
_atom_site_fract_x
_atom_site_fract_y
_atom_site_fract_z
Si Si1 0.284490 0.000000 0.250000
Si Si2 0.000000 0.750000 0.415007
Si Si3 0.689264 0.307938 0.772687
Si Si4 0.420214 0.855690 0.957730
Si Si5 0.250000 0.055846 0.500000
Si Si6 0.162641 0.102018 0.898614
O O1 0.226976 0.023651 0.373241
O O2 0.350119 0.052014 0.195051
O O3 0.920510 0.710360 0.340807
O O4 0.926671 0.793854 0.487429
O O5 0.750000 0.250000 0.750000
O O6 0.646616 0.344493 0.663098
O O7 0.775417 0.345460 0.842623
O O8 0.352673 0.903140 0.025583
O O9 0.543878 0.877888 0.941690
O O10 0.250000 0.083753 0.000000
#
# Coordination Sequence:
#
# PCOD9533631 Si02
#       6
#     8   8  16  16   8  16
#     4  12  28  52  80 108 154 208 272 328 392 460
#     4  12  24  42  74 110 152 204 244 314 398 472
#     4  12  25  44  72 109 157 198 255 314 392 474
#     4  12  27  46  75 112 153 202 256 321 395 473
#     4  12  28  52  78 114 154 204 270 324 398 470
#     4  12  26  50  73 109 153 201 259 328 385 466
#
# _framework density 21.978259999999999
#
# number of rings (size 3 to 8) (size 9 to 14) (size 15 to 20)
#    0.000    0.000    5.556    4.667    3.111    1.778 
#    0.000    0.000    0.000    0.000    0.000    0.000 
#    0.000    0.000    0.000    0.000    0.000    0.000 
#
# Total GULP energy -200999.716626 kJ/mol
# GULP energy per Si atom -5583.325462 kJ/mol
# Density = 2.192824 g / cm^3
# Si number density = 21.978260 Si / 1000 Ang^3
#
#
#
# Elastic Constant Matrix: (Units=GPa)
#
#
# Indices 1 2 3 4 5 6 
#
# 1 106.5374 18.8983 31.6704 -0.0001 0.0001 0.0003
# 2 18.8983 128.0679 42.6516 -0.0004 0.0001 0.0005
# 3 31.6704 42.6516 93.3245 -0.0002 0.0002 0.0005
# 4 -0.0001 -0.0004 -0.0002 49.9791 0.0001 0.0004
# 5 0.0001 0.0001 0.0002 0.0001 -12.6230 -0.0003
# 6 0.0003 0.0005 0.0005 0.0004 -0.0003 29.4170
#
#
#
# Elastic Compliance Matrix: (Units=1/GPa)
#
#
# Indices 1 2 3 4 5 6 
#
# 1 0.010459 -0.000426 -0.003355 0.000000 0.000000 0.000000
# 2 -0.000426 0.009228 -0.004073 0.000000 0.000000 0.000000
# 3 -0.003355 -0.004073 0.013715 0.000000 0.000000 0.000000
# 4 0.000000 0.000000 0.000000 0.020008 0.000000 0.000000
# 5 0.000000 0.000000 0.000000 0.000000 -0.079221 -0.000001
# 6 0.000000 0.000000 0.000000 0.000000 -0.000001 0.033994
#
#
# Mechanical properties :
#
#
# Convention : Reuss Voigt Hill
#
# Bulk Modulus (GPa) = 56.51331 57.15225 56.83278
# Shear Modulus (GPa) = 167.84965 29.00192 98.42579
#
# Velocity S-wave (km/s) = 8.74852 3.63653 6.69929
# Velocity P-wave (km/s) = 11.30566 6.61006 9.26042
#
# Compressibility (1/GPa) = 0.01769495
#
# Stress axis : x y z
#
# Youngs Moduli (GPa) = 95.60948 108.37071 72.91285
#
# Poissons Ratio (x) = 0.04619 0.24460
# Poissons Ratio (y) = 0.04075 0.29695
# Poissons Ratio (z) = 0.32074 0.44135
#
# Static dielectric constant tensor:
#      x y z
#    x 1.311440 0.000000 0.000000 
#    y 0.000000 2.111300 0.000000 
#    z 0.000000 0.000000 1.922550 
# 
# From -- ./inp_files/9712.got.cif
#   From: 2010.05.17/outbox.cif.g08.bks.cpg/sg73_5_cif.got.tgz:9712.got - 2010.06.03 17:35:07.
