data_PCOD9533366
_publ_section_title
;
Structure prediction by ZEFSAII (Michael W. Deem and Ramdas Pophale) SiO2 
 PCOD9533366
Probable space group: I B C A 
;
_chemical_formula_sum "Si O2"
_cell_formula_units_Z 88
_cell_length_a 9.404538
_cell_length_b 26.968612
_cell_length_c 15.900262
_cell_angle_alpha 90.000000
_cell_angle_beta 90.000000
_cell_angle_gamma 90.000000
_cell_volume 4032.741099
_symmetry_space_group_name_H-M "I B C A "
_symmetry_group_IT_number 73
_symmetry_cell_setting 'orthorhombic'
loop_
_space_group_symop_operation_xyz
x,y,z
-x,1/2-y,z
x,-y,1/2-z
1/2-x,y,-z
-x,-y,-z
x,1/2+y,-z
-x,y,1/2+z
1/2+x,-y,z
1/2+x,1/2+y,1/2+z
1/2-x,-y,1/2+z
1/2+x,1/2-y,-z
-x,1/2+y,1/2-z
1/2-x,1/2-y,1/2-z
1/2+x,y,1/2-z
1/2-x,1/2+y,z
x,1/2-y,1/2+z
loop_
_atom_site_type_symbol
_atom_site_label
_atom_site_fract_x
_atom_site_fract_y
_atom_site_fract_z
Si Si1 0.834287 0.839799 0.586237
Si Si2 0.541876 0.474832 0.411524
Si Si3 0.887579 0.607029 0.313710
Si Si4 0.500000 0.750000 0.352112
Si Si5 0.149061 0.445789 0.850712
Si Si6 0.347009 0.830402 0.256293
O O1 0.750000 0.838143 0.500000
O O2 0.891176 0.895586 0.599110
O O3 0.735081 0.830493 0.667729
O O4 0.944728 0.795182 0.591702
O O5 0.500000 0.500000 0.500000
O O6 0.458369 0.423768 0.389181
O O7 0.708194 0.466232 0.394879
O O8 0.478675 0.515930 0.349480
O O9 0.821744 0.569365 0.245069
O O10 0.756805 0.644463 0.325469
O O11 0.012462 0.637320 0.265308
O O12 0.389263 0.776870 0.290213
#
# Coordination Sequence:
#
# PCOD9533366 Si02
#       6
#    16  16  16   8  16  16
#     4  11  24  45  68 102 150 185 233 307 366 410
#     4  12  25  43  69 103 140 180 235 292 359 422
#     4  11  23  44  71 101 137 190 234 288 352 426
#     4  12  24  46  72 110 138 190 256 296 354 436
#     4  11  25  44  66  99 139 186 232 288 351 429
#     4  11  23  45  76 103 139 189 245 295 352 433
#
# _framework density 21.821386
#
# number of rings (size 3 to 8) (size 9 to 14) (size 15 to 20)
#    0.000    0.727    7.273    2.727    2.545    2.182 
#    0.000    0.000    0.000    0.000    0.000    0.000 
#    0.000    0.000    0.000    0.000    0.000    0.000 
#
# Total GULP energy -245767.836587 kJ/mol
# GULP energy per Si atom -5585.632650 kJ/mol
# Density = 2.177172 g / cm^3
# Si number density = 21.821386 Si / 1000 Ang^3
#
#
#
# Elastic Constant Matrix: (Units=GPa)
#
#
# Indices 1 2 3 4 5 6 
#
# 1 91.3224 59.9666 6.4621 0.0000 0.0000 0.0000
# 2 59.9666 135.6282 10.9995 -0.0001 0.0000 0.0000
# 3 6.4621 10.9995 63.9065 -0.0003 0.0001 0.0000
# 4 0.0000 -0.0001 -0.0003 26.1054 0.0000 0.0000
# 5 0.0000 0.0000 0.0001 0.0000 28.2507 0.0000
# 6 0.0000 0.0000 0.0000 0.0000 0.0000 60.6861
#
#
#
# Elastic Compliance Matrix: (Units=1/GPa)
#
#
# Indices 1 2 3 4 5 6 
#
# 1 0.015440 -0.006795 -0.000392 0.000000 0.000000 0.000000
# 2 -0.006795 0.010468 -0.001115 0.000000 0.000000 0.000000
# 3 -0.000392 -0.001115 0.015879 0.000000 0.000000 0.000000
# 4 0.000000 0.000000 0.000000 0.038306 0.000000 0.000000
# 5 0.000000 0.000000 0.000000 0.000000 0.035397 0.000000
# 6 0.000000 0.000000 0.000000 0.000000 0.000000 0.016478
#
#
# Mechanical properties :
#
#
# Convention : Reuss Voigt Hill
#
# Bulk Modulus (GPa) = 39.70688 49.52373 44.61530
# Shear Modulus (GPa) = 31.85412 37.23703 34.54558
#
# Velocity S-wave (km/s) = 3.82483 4.13540 3.98314
# Velocity P-wave (km/s) = 6.14342 6.74880 6.45321
#
# Compressibility (1/GPa) = 0.02518456
#
# Stress axis : x y z
#
# Youngs Moduli (GPa) = 64.76824 95.53191 62.97500
#
# Poissons Ratio (x) = 0.64911 0.02467
# Poissons Ratio (y) = 0.44008 0.07019
# Poissons Ratio (z) = 0.02537 0.10648
#
# Static dielectric constant tensor:
#      x y z
#    x 1.837950 0.000000 0.000000 
#    y 0.000000 1.854700 0.000000 
#    z 0.000000 0.000000 1.845210 
# 
# From -- ./inp_files/20823.got.cif
#   From: 2010.05.17/outbox.cif.g08.bks.cpg/sg73_11_cif.got.tgz:20823.got - 2010.06.03 17:35:07.
