data_PCOD9533900
_publ_section_title
;
Structure prediction by ZEFSAII (Michael W. Deem and Ramdas Pophale) SiO2 
 PCOD9533900
Probable space group: I M M A
;
_chemical_formula_sum "Si O2"
_cell_formula_units_Z 80
_cell_length_a 14.936579
_cell_length_b 14.108047
_cell_length_c 22.978482
_cell_angle_alpha 90.000000
_cell_angle_beta 90.000000
_cell_angle_gamma 90.000000
_cell_volume 4842.162646
_symmetry_space_group_name_H-M "I M M A"
_symmetry_group_IT_number 74
_symmetry_cell_setting 'orthorhombic'
loop_
_space_group_symop_operation_xyz
x,y,z
-x,1/2-y,z
x,-y,-z
-x,1/2+y,-z
-x,-y,-z
x,1/2+y,-z
-x,y,z
x,1/2-y,z
1/2+x,1/2+y,1/2+z
1/2-x,-y,1/2+z
1/2+x,1/2-y,1/2-z
1/2-x,y,1/2-z
1/2-x,1/2-y,1/2-z
1/2+x,y,1/2-z
1/2-x,1/2+y,1/2+z
1/2+x,-y,1/2+z
loop_
_atom_site_type_symbol
_atom_site_label
_atom_site_fract_x
_atom_site_fract_y
_atom_site_fract_z
Si Si1 0.000000 0.037202 0.684636
Si Si2 0.339641 0.137137 0.027204
Si Si3 0.147002 0.640175 0.096622
Si Si4 0.000000 0.139228 0.805950
Si Si5 0.500000 0.860978 0.883903
Si Si6 0.859373 0.360098 0.605081
Si Si7 0.183535 0.500000 0.000000
O O1 0.085296 0.079169 0.650267
O O2 0.000000 0.072580 0.750255
O O3 0.000000 0.925752 0.672661
O O4 0.318397 0.250000 0.027053
O O5 0.413159 0.118772 0.076113
O O6 0.378466 0.115978 0.962609
O O7 0.251020 0.073552 0.032480
O O8 0.132526 0.750000 0.077569
O O9 0.085525 0.624327 0.152479
O O10 0.252332 0.630851 0.111235
O O11 0.130060 0.564246 0.045717
O O12 0.000000 0.250000 0.787117
O O13 0.500000 0.750000 0.870663
O O14 0.883211 0.250000 0.613667
#
# Coordination Sequence:
#
# PCOD9533900 Si02
#       7
#     8  16  16   8   8  16   8
#     4  12  21  30  48  70  94 131 169 193 225 277
#     4   9  17  28  44  71 103 128 152 189 238 287
#     4   9  19  34  51  73 100 124 150 192 240 282
#     4  10  22  38  51  67  93 124 161 203 241 275
#     4  10  19  29  43  65  97 132 160 190 230 279
#     4   9  17  29  47  74 102 125 153 191 234 283
#     4  10  16  28  52  74  94 120 152 191 236 287
#
# _framework density 16.521543000000001
#
# number of rings (size 3 to 8) (size 9 to 14) (size 15 to 20)
#    0.000    2.400    0.000    5.700    0.000    4.000 
#    0.000    3.000    0.000    2.400    0.000    4.200 
#    0.000    0.000    0.000    0.000    0.000    0.000 
#
# Total GULP energy -223119.796216 kJ/mol
# GULP energy per Si atom -5577.994905 kJ/mol
# Density = 1.648394 g / cm^3
# Si number density = 16.521543 Si / 1000 Ang^3
#
#
#
# Elastic Constant Matrix: (Units=GPa)
#
#
# Indices 1 2 3 4 5 6 
#
# 1 41.6936 28.4160 42.2586 0.0000 0.0000 0.0000
# 2 28.4160 100.2148 74.3708 0.0000 0.0000 0.0000
# 3 42.2586 74.3708 108.9522 0.0000 0.0000 0.0000
# 4 0.0000 0.0000 0.0000 34.0198 0.0000 0.0000
# 5 0.0000 0.0000 0.0000 0.0000 12.6495 0.0000
# 6 0.0000 0.0000 0.0000 0.0000 0.0000 11.1012
#
#
#
# Elastic Compliance Matrix: (Units=1/GPa)
#
#
# Indices 1 2 3 4 5 6 
#
# 1 0.039527 0.000343 -0.015565 0.000000 0.000000 0.000000
# 2 0.000343 0.020226 -0.013939 0.000000 0.000000 0.000000
# 3 -0.015565 -0.013939 0.024731 0.000000 0.000000 0.000000
# 4 0.000000 0.000000 0.000000 0.029395 0.000000 0.000000
# 5 0.000000 0.000000 0.000000 0.000000 0.079054 0.000000
# 6 0.000000 0.000000 0.000000 0.000000 0.000000 0.090081
#
#
# Mechanical properties :
#
#
# Convention : Reuss Voigt Hill
#
# Bulk Modulus (GPa) = 38.22557 60.10570 49.16564
# Shear Modulus (GPa) = 14.28347 18.60847 16.44597
#
# Velocity S-wave (km/s) = 2.94349 3.35970 3.15846
# Velocity P-wave (km/s) = 5.89400 7.17700 6.56691
#
# Compressibility (1/GPa) = 0.02616050
#
# Stress axis : x y z
#
# Youngs Moduli (GPa) = 25.29936 49.44200 40.43583
#
# Poissons Ratio (x) = -0.01698 0.62940
# Poissons Ratio (y) = -0.00869 0.56365
# Poissons Ratio (z) = 0.39379 0.68919
#
# Static dielectric constant tensor:
#      x y z
#    x 1.566590 0.000000 0.000000 
#    y 0.000000 1.592290 0.000000 
#    z 0.000000 0.000000 1.528780 
# 
# From -- ./inp_files/52984.got.cif
#   From: 2010.05.17/outbox.cif.g08.bks.cpg/sg74_27_cif.got.tgz:52984.got - 2010.06.03 17:57:02.
