data_PCOD9533633
_publ_section_title
;
Structure prediction by ZEFSAII (Michael W. Deem and Ramdas Pophale) SiO2 
 PCOD9533633
Probable space group: I B C A 
;
_chemical_formula_sum "Si O2"
_cell_formula_units_Z 72
_cell_length_a 24.056613
_cell_length_b 11.881020
_cell_length_c 13.513357
_cell_angle_alpha 90.000000
_cell_angle_beta 90.000000
_cell_angle_gamma 90.000000
_cell_volume 3862.348512
_symmetry_space_group_name_H-M "I B C A "
_symmetry_group_IT_number 73
_symmetry_cell_setting 'orthorhombic'
loop_
_space_group_symop_operation_xyz
x,y,z
-x,1/2-y,z
x,-y,1/2-z
1/2-x,y,-z
-x,-y,-z
x,1/2+y,-z
-x,y,1/2+z
1/2+x,-y,z
1/2+x,1/2+y,1/2+z
1/2-x,-y,1/2+z
1/2+x,1/2-y,-z
-x,1/2+y,1/2-z
1/2-x,1/2-y,1/2-z
1/2+x,y,1/2-z
1/2-x,1/2+y,z
x,1/2-y,1/2+z
loop_
_atom_site_type_symbol
_atom_site_label
_atom_site_fract_x
_atom_site_fract_y
_atom_site_fract_z
Si Si1 0.356352 0.497253 0.856252
Si Si2 0.500000 0.750000 0.649539
Si Si3 0.554208 0.577905 0.003351
Si Si4 0.310482 0.197782 0.245845
Si Si5 0.910328 0.873307 0.717663
O O1 0.390227 0.500000 0.750000
O O2 0.395583 0.493075 0.949150
O O3 0.318439 0.607151 0.843468
O O4 0.322091 0.382172 0.841345
O O5 0.459913 0.677482 0.579371
O O6 0.538117 0.670768 0.717183
O O7 0.500000 0.500000 0.000000
O O8 0.570912 0.623596 0.896467
O O9 0.250000 0.250000 0.250000
O O10 0.358385 0.290550 0.234738
O O11 0.896238 0.000000 0.750000
#
# Coordination Sequence:
#
# PCOD9533633 Si02
#       5
#    16   8  16  16  16
#     4   8  21  41  67  91 131 168 222 265 328 388
#     4  12  24  44  62  98 138 174 214 276 334 404
#     4  12  25  40  65  96 136 177 214 266 341 399
#     4   9  21  43  70  87 127 176 217 277 330 375
#     4  12  26  38  66  98 134 169 225 268 328 402
#
# _framework density 18.641508000000002
#
# number of rings (size 3 to 8) (size 9 to 14) (size 15 to 20)
#    1.333    0.000    4.444    0.667   12.444    0.000 
#    0.000    1.111    0.000    0.000    0.000    0.000 
#    0.000    0.000    0.000    0.000    0.000    0.000 
#
# Total GULP energy -200674.695393 kJ/mol
# GULP energy per Si atom -5574.297094 kJ/mol
# Density = 1.859908 g / cm^3
# Si number density = 18.641508 Si / 1000 Ang^3
#
#
#
# Elastic Constant Matrix: (Units=GPa)
#
#
# Indices 1 2 3 4 5 6 
#
# 1 123.4904 75.8847 44.3620 0.0000 0.0000 0.0000
# 2 75.8847 142.2259 41.2737 0.0000 0.0000 0.0000
# 3 44.3620 41.2737 103.3389 0.0000 0.0000 0.0000
# 4 0.0000 0.0000 0.0000 21.3686 0.0000 0.0000
# 5 0.0000 0.0000 0.0000 0.0000 21.8020 0.0000
# 6 0.0000 0.0000 0.0000 0.0000 0.0000 30.2472
#
#
#
# Elastic Compliance Matrix: (Units=1/GPa)
#
#
# Indices 1 2 3 4 5 6 
#
# 1 0.012897 -0.005966 -0.003154 0.000000 0.000000 0.000000
# 2 -0.005966 0.010713 -0.001718 0.000000 0.000000 0.000000
# 3 -0.003154 -0.001718 0.011717 0.000000 0.000000 0.000000
# 4 0.000000 0.000000 0.000000 0.046798 0.000000 0.000000
# 5 0.000000 0.000000 0.000000 0.000000 0.045867 0.000000
# 6 0.000000 0.000000 0.000000 0.000000 0.000000 0.033061
#
#
# Mechanical properties :
#
#
# Convention : Reuss Voigt Hill
#
# Bulk Modulus (GPa) = 73.24974 76.89955 75.07465
# Shear Modulus (GPa) = 26.69849 28.51922 27.60885
#
# Velocity S-wave (km/s) = 3.78856 3.91561 3.85261
# Velocity P-wave (km/s) = 7.64962 7.86028 7.75567
#
# Compressibility (1/GPa) = 0.01365192
#
# Stress axis : x y z
#
# Youngs Moduli (GPa) = 77.53920 93.34810 85.34830
#
# Poissons Ratio (x) = 0.55690 0.26916
# Poissons Ratio (y) = 0.46259 0.14659
# Poissons Ratio (z) = 0.24453 0.16033
#
# Static dielectric constant tensor:
#      x y z
#    x 1.612860 0.000000 0.000000 
#    y 0.000000 1.688900 0.000000 
#    z 0.000000 0.000000 1.643450 
# 
# From -- ./inp_files/18469.got.cif
#   From: 2010.05.17/outbox.cif.g08.bks.cpg/sg73_10_cif.got.tgz:18469.got - 2010.06.03 17:35:07.
