data_PCOD9533244
_publ_section_title
;
Structure prediction by ZEFSAII (Michael W. Deem and Ramdas Pophale) SiO2 
 PCOD9533244
Probable space group: I B C A 
;
_chemical_formula_sum "Si O2"
_cell_formula_units_Z 120
_cell_length_a 23.318956
_cell_length_b 10.888952
_cell_length_c 20.845916
_cell_angle_alpha 90.000000
_cell_angle_beta 90.000000
_cell_angle_gamma 90.000000
_cell_volume 5293.173990
_symmetry_space_group_name_H-M "I B C A "
_symmetry_group_IT_number 73
_symmetry_cell_setting 'orthorhombic'
loop_
_space_group_symop_operation_xyz
x,y,z
-x,1/2-y,z
x,-y,1/2-z
1/2-x,y,-z
-x,-y,-z
x,1/2+y,-z
-x,y,1/2+z
1/2+x,-y,z
1/2+x,1/2+y,1/2+z
1/2-x,-y,1/2+z
1/2+x,1/2-y,-z
-x,1/2+y,1/2-z
1/2-x,1/2-y,1/2-z
1/2+x,y,1/2-z
1/2-x,1/2+y,z
x,1/2-y,1/2+z
loop_
_atom_site_type_symbol
_atom_site_label
_atom_site_fract_x
_atom_site_fract_y
_atom_site_fract_z
Si Si1 0.087478 0.606683 0.632348
Si Si2 0.474097 0.000000 0.750000
Si Si3 0.921695 0.675444 0.727391
Si Si4 0.615417 0.129861 0.994758
Si Si5 0.371668 0.218397 0.361834
Si Si6 0.683440 0.467233 0.822477
Si Si7 0.815086 0.376295 0.976195
Si Si8 0.816201 0.538671 0.663681
O O1 0.073923 0.730760 0.669219
O O2 0.074130 0.618335 0.556979
O O3 0.155676 0.577960 0.637101
O O4 0.059176 0.505329 0.680980
O O5 0.518955 0.109536 0.740706
O O6 0.905785 0.732096 0.795642
O O7 0.867758 0.590836 0.706554
O O8 0.658324 0.245689 0.003992
O O9 0.592440 0.170606 0.923851
O O10 0.647375 0.997863 0.993287
O O11 0.337720 0.346826 0.361696
O O12 0.328693 0.103655 0.352140
O O13 0.662825 0.500000 0.750000
O O14 0.751074 0.453834 0.814192
O O15 0.816793 0.380959 0.899936
O O16 0.750000 0.390133 0.000000
#
# Coordination Sequence:
#
# PCOD9533244 Si02
#       8
#    16   8  16  16  16  16  16  16
#     4  12  25  46  71 105 139 190 245 310 378 455
#     4  12  26  48  74 100 126 178 256 308 376 434
#     4  12  23  46  73  97 137 183 243 310 371 443
#     4  11  24  41  68 101 152 193 248 303 374 459
#     4  11  23  42  65 104 147 188 234 304 363 448
#     4  12  24  39  67 106 149 187 239 300 371 449
#     4  11  22  40  65 102 152 207 246 298 373 465
#     4  11  24  39  67 105 144 194 243 295 372 456
#
# _framework density 22.670708000000001
#
# number of rings (size 3 to 8) (size 9 to 14) (size 15 to 20)
#    0.000    0.533    4.667    4.000    1.867    3.200 
#    0.000    0.667    0.000    3.200    0.000    0.000 
#    0.000    0.000    0.000    0.000    0.000    0.000 
#
# Total GULP energy -334439.146001 kJ/mol
# GULP energy per Si atom -5573.985767 kJ/mol
# Density = 2.261911 g / cm^3
# Si number density = 22.670708 Si / 1000 Ang^3
#
#
#
# Elastic Constant Matrix: (Units=GPa)
#
#
# Indices 1 2 3 4 5 6 
#
# 1 49.7707 13.2516 20.5041 0.0000 0.0000 0.0000
# 2 13.2516 117.2338 11.7616 0.0000 0.0000 0.0000
# 3 20.5041 11.7616 160.5996 0.0000 0.0000 0.0000
# 4 0.0000 0.0000 0.0000 34.7966 0.0000 0.0000
# 5 0.0000 0.0000 0.0000 0.0000 16.7190 0.0000
# 6 0.0000 0.0000 0.0000 0.0000 0.0000 11.5050
#
#
#
# Elastic Compliance Matrix: (Units=1/GPa)
#
#
# Indices 1 2 3 4 5 6 
#
# 1 0.021755 -0.002197 -0.002617 0.000000 0.000000 0.000000
# 2 -0.002197 0.008815 -0.000365 0.000000 0.000000 0.000000
# 3 -0.002617 -0.000365 0.006587 0.000000 0.000000 0.000000
# 4 0.000000 0.000000 0.000000 0.028738 0.000000 0.000000
# 5 0.000000 0.000000 0.000000 0.000000 0.059812 0.000000
# 6 0.000000 0.000000 0.000000 0.000000 0.000000 0.086919
#
#
# Mechanical properties :
#
#
# Convention : Reuss Voigt Hill
#
# Bulk Modulus (GPa) = 37.31251 46.51540 41.91396
# Shear Modulus (GPa) = 21.55946 31.40991 26.48468
#
# Velocity S-wave (km/s) = 3.08715 3.72625 3.42165
# Velocity P-wave (km/s) = 5.40384 6.25105 5.84282
#
# Compressibility (1/GPa) = 0.02680067
#
# Stress axis : x y z
#
# Youngs Moduli (GPa) = 45.96657 113.44445 151.80324
#
# Poissons Ratio (x) = 0.24919 0.39721
# Poissons Ratio (y) = 0.10097 0.05543
# Poissons Ratio (z) = 0.12028 0.04142
#
# Static dielectric constant tensor:
#      x y z
#    x 1.893880 0.000000 0.000000 
#    y 0.000000 1.940620 0.000000 
#    z 0.000000 0.000000 1.986550 
# 
# From -- ./inp_files/27355.got.cif
#   From: 2010.05.17/outbox.cif.g08.bks.cpg/sg73_14_cif.got.tgz:27355.got - 2010.06.03 17:35:07.
