data_PCOD9533722
_publ_section_title
;
Structure prediction by ZEFSAII (Michael W. Deem and Ramdas Pophale) SiO2 
 PCOD9533722
Probable space group: I B C A 
;
_chemical_formula_sum "Si O2"
_cell_formula_units_Z 40
_cell_length_a 14.621051
_cell_length_b 12.375322
_cell_length_c 7.676558
_cell_angle_alpha 90.000000
_cell_angle_beta 90.000000
_cell_angle_gamma 90.000000
_cell_volume 1388.998048
_symmetry_space_group_name_H-M "I B C A "
_symmetry_group_IT_number 73
_symmetry_cell_setting 'orthorhombic'
loop_
_space_group_symop_operation_xyz
x,y,z
-x,1/2-y,z
x,-y,1/2-z
1/2-x,y,-z
-x,-y,-z
x,1/2+y,-z
-x,y,1/2+z
1/2+x,-y,z
1/2+x,1/2+y,1/2+z
1/2-x,-y,1/2+z
1/2+x,1/2-y,-z
-x,1/2+y,1/2-z
1/2-x,1/2-y,1/2-z
1/2+x,y,1/2-z
1/2-x,1/2+y,z
x,1/2-y,1/2+z
loop_
_atom_site_type_symbol
_atom_site_label
_atom_site_fract_x
_atom_site_fract_y
_atom_site_fract_z
Si Si1 0.906374 0.067459 0.025663
Si Si2 0.250000 0.392471 0.500000
Si Si3 0.393849 0.257214 0.282207
O O1 0.902439 0.165337 0.884911
O O2 0.880869 0.126956 0.210083
O O3 0.829660 0.982257 0.988244
O O4 0.000000 0.000000 0.000000
O O5 0.307357 0.305961 0.382445
O O6 0.500000 0.250000 0.349329
#
# Coordination Sequence:
#
# PCOD9533722 Si02
#       3
#    16   8  16
#     4  12  29  58  89 132 185 243 303 381 463 546
#     4  12  28  52  90 134 176 242 300 376 456 546
#     4  12  28  56  88 133 182 238 307 375 452 561
#
# _framework density 28.797737000000001
#
# number of rings (size 3 to 8) (size 9 to 14) (size 15 to 20)
#    0.000    0.000    4.000    3.600    0.000    9.600 
#    0.000    0.000    0.000    0.000    0.000    0.000 
#    0.000    0.000    0.000    0.000    0.000    0.000 
#
# Total GULP energy -111381.190338 kJ/mol
# GULP energy per Si atom -5569.059517 kJ/mol
# Density = 2.873219 g / cm^3
# Si number density = 28.797737 Si / 1000 Ang^3
#
#
#
# Elastic Constant Matrix: (Units=GPa)
#
#
# Indices 1 2 3 4 5 6 
#
# 1 248.4219 81.9325 58.4159 0.0000 0.0000 0.0000
# 2 81.9325 247.8827 72.9127 0.0000 0.0000 0.0000
# 3 58.4159 72.9127 107.6941 0.0000 0.0000 0.0000
# 4 0.0000 0.0000 0.0000 69.1544 0.0000 0.0000
# 5 0.0000 0.0000 0.0000 0.0000 -20.0610 0.0000
# 6 0.0000 0.0000 0.0000 0.0000 0.0000 73.5056
#
#
#
# Elastic Compliance Matrix: (Units=1/GPa)
#
#
# Indices 1 2 3 4 5 6 
#
# 1 0.004815 -0.001028 -0.001916 0.000000 0.000000 0.000000
# 2 -0.001028 0.005257 -0.003001 0.000000 0.000000 0.000000
# 3 -0.001916 -0.003001 0.012357 0.000000 0.000000 0.000000
# 4 0.000000 0.000000 0.000000 0.014460 0.000000 0.000000
# 5 0.000000 0.000000 0.000000 0.000000 -0.049848 0.000000
# 6 0.000000 0.000000 0.000000 0.000000 0.000000 0.013604
#
#
# Mechanical properties :
#
#
# Convention : Reuss Voigt Hill
#
# Bulk Modulus (GPa) = 94.89306 114.50232 104.69769
# Shear Modulus (GPa) = 311.55712 50.56897 181.06305
#
# Velocity S-wave (km/s) = 10.41263 4.19502 7.93792
# Velocity P-wave (km/s) = 13.32618 7.95685 10.97494
#
# Compressibility (1/GPa) = 0.01053818
#
# Stress axis : x y z
#
# Youngs Moduli (GPa) = 207.68711 190.23022 80.92710
#
# Poissons Ratio (x) = 0.19555 0.15504
# Poissons Ratio (y) = 0.21350 0.24290
# Poissons Ratio (z) = 0.39788 0.57096
#
# Static dielectric constant tensor:
#      x y z
#    x 2.412090 0.000000 0.000000 
#    y 0.000000 0.814340 0.000000 
#    z 0.000000 0.000000 2.618930 
# 
# From -- ./inp_files/4957.got.cif
#   From: 2010.05.17/outbox.cif.g08.bks.cpg/sg73_3_cif.got.tgz:4957.got - 2010.06.03 17:35:07.
