data_PCOD9533504
_publ_section_title
;
Structure prediction by ZEFSAII (Michael W. Deem and Ramdas Pophale) SiO2 
 PCOD9533504
Probable space group: I B C A 
;
_chemical_formula_sum "Si O2"
_cell_formula_units_Z 72
_cell_length_a 23.031319
_cell_length_b 9.696583
_cell_length_c 13.907879
_cell_angle_alpha 90.000000
_cell_angle_beta 90.000000
_cell_angle_gamma 90.000000
_cell_volume 3105.978417
_symmetry_space_group_name_H-M "I B C A "
_symmetry_group_IT_number 73
_symmetry_cell_setting 'orthorhombic'
loop_
_space_group_symop_operation_xyz
x,y,z
-x,1/2-y,z
x,-y,1/2-z
1/2-x,y,-z
-x,-y,-z
x,1/2+y,-z
-x,y,1/2+z
1/2+x,-y,z
1/2+x,1/2+y,1/2+z
1/2-x,-y,1/2+z
1/2+x,1/2-y,-z
-x,1/2+y,1/2-z
1/2-x,1/2-y,1/2-z
1/2+x,y,1/2-z
1/2-x,1/2+y,z
x,1/2-y,1/2+z
loop_
_atom_site_type_symbol
_atom_site_label
_atom_site_fract_x
_atom_site_fract_y
_atom_site_fract_z
Si Si1 0.310604 0.353794 0.858304
Si Si2 0.916553 0.241859 0.402602
Si Si3 0.938132 0.081651 0.081696
Si Si4 0.000000 0.750000 0.271127
Si Si5 0.209933 0.840037 0.627713
O O1 0.378978 0.350766 0.876211
O O2 0.270435 0.231717 0.896536
O O3 0.291776 0.500742 0.902048
O O4 0.298966 0.349958 0.743736
O O5 0.943764 0.345895 0.479184
O O6 0.846485 0.246626 0.404805
O O7 0.945504 0.270815 0.299619
O O8 0.930211 0.081504 0.424765
O O9 0.987548 0.123233 0.157205
#
# Coordination Sequence:
#
# PCOD9533504 Si02
#       5
#    16  16  16   8  16
#     4   9  18  37  64  93 128 167 210 259 319 384
#     4  11  25  44  67  97 131 170 216 270 327 387
#     4  11  25  44  67  97 131 170 216 270 327 387
#     4  12  24  44  70  88 124 172 220 272 320 378
#     4   9  18  37  64  93 128 167 210 259 319 384
#
# _framework density 23.181101000000002
#
# number of rings (size 3 to 8) (size 9 to 14) (size 15 to 20)
#    0.000    1.778    2.222    1.333    0.000    8.000 
#    0.000    4.444    0.000    0.000    0.000    0.000 
#    0.000    0.000    0.000    0.000    0.000    0.000 
#
# Total GULP energy -201399.749115 kJ/mol
# GULP energy per Si atom -5594.437475 kJ/mol
# Density = 2.312834 g / cm^3
# Si number density = 23.181101 Si / 1000 Ang^3
#
#
#
# Elastic Constant Matrix: (Units=GPa)
#
#
# Indices 1 2 3 4 5 6 
#
# 1 106.8087 34.6052 14.3147 0.0000 0.0000 0.0000
# 2 34.6052 51.2040 26.0081 0.0000 0.0000 0.0000
# 3 14.3147 26.0081 98.6873 0.0000 0.0000 0.0000
# 4 0.0000 0.0000 0.0000 -6.0227 0.0000 0.0000
# 5 0.0000 0.0000 0.0000 0.0000 33.1328 0.0000
# 6 0.0000 0.0000 0.0000 0.0000 0.0000 40.3519
#
#
#
# Elastic Compliance Matrix: (Units=1/GPa)
#
#
# Indices 1 2 3 4 5 6 
#
# 1 0.012005 -0.008346 0.000458 0.000000 0.000000 0.000000
# 2 -0.008346 0.028350 -0.006261 0.000000 0.000000 0.000000
# 3 0.000458 -0.006261 0.011717 0.000000 0.000000 0.000000
# 4 0.000000 0.000000 0.000000 -0.166039 0.000000 0.000000
# 5 0.000000 0.000000 0.000000 0.000000 0.030182 0.000000
# 6 0.000000 0.000000 0.000000 0.000000 0.000000 0.024782
#
#
# Mechanical properties :
#
#
# Convention : Reuss Voigt Hill
#
# Bulk Modulus (GPa) = 42.06198 45.17288 43.61743
# Shear Modulus (GPa) = -219.48959 25.61053 -96.93953
#
# Velocity S-wave (km/s) = -9.74116 3.32746 -6.47373
# Velocity P-wave (km/s) = 10.40846 5.85593 6.08457
#
# Compressibility (1/GPa) = 0.02377444
#
# Stress axis : x y z
#
# Youngs Moduli (GPa) = 83.29700 35.27283 85.34935
#
# Poissons Ratio (x) = 0.29439 -0.03911
# Poissons Ratio (y) = 0.69522 0.53436
# Poissons Ratio (z) = -0.03817 0.22084
#
# Static dielectric constant tensor:
#      x y z
#    x 1.887340 0.000000 0.000000 
#    y 0.000000 1.826180 0.000000 
#    z 0.000000 0.000000 1.909830 
# 
# From -- ./inp_files/19673.got.cif
#   From: 2010.05.17/outbox.cif.g08.bks.cpg/sg73_10_cif.got.tgz:19673.got - 2010.06.03 17:35:07.
