data_PCOD9533198
_publ_section_title
;
Structure prediction by ZEFSAII (Michael W. Deem and Ramdas Pophale) SiO2 
 PCOD9533198
Probable space group: I B C A 
;
_chemical_formula_sum "Si O2"
_cell_formula_units_Z 88
_cell_length_a 22.881040
_cell_length_b 14.328607
_cell_length_c 11.771826
_cell_angle_alpha 90.000000
_cell_angle_beta 90.000000
_cell_angle_gamma 90.000000
_cell_volume 3859.433530
_symmetry_space_group_name_H-M "I B C A "
_symmetry_group_IT_number 73
_symmetry_cell_setting 'orthorhombic'
loop_
_space_group_symop_operation_xyz
x,y,z
-x,1/2-y,z
x,-y,1/2-z
1/2-x,y,-z
-x,-y,-z
x,1/2+y,-z
-x,y,1/2+z
1/2+x,-y,z
1/2+x,1/2+y,1/2+z
1/2-x,-y,1/2+z
1/2+x,1/2-y,-z
-x,1/2+y,1/2-z
1/2-x,1/2-y,1/2-z
1/2+x,y,1/2-z
1/2-x,1/2+y,z
x,1/2-y,1/2+z
loop_
_atom_site_type_symbol
_atom_site_label
_atom_site_fract_x
_atom_site_fract_y
_atom_site_fract_z
Si Si1 0.860303 0.825190 0.627397
Si Si2 0.697343 0.404764 0.853246
Si Si3 0.906930 0.004163 0.965629
Si Si4 0.805972 0.500000 0.750000
Si Si5 0.750000 0.754920 0.500000
Si Si6 0.091703 0.122560 0.809967
Si Si7 0.491283 0.000000 0.750000
O O1 0.841574 0.880968 0.741810
O O2 0.797811 0.809256 0.570210
O O3 0.892901 0.728325 0.657784
O O4 0.899077 0.884391 0.538890
O O5 0.656349 0.466766 0.929901
O O6 0.758707 0.458464 0.837222
O O7 0.713964 0.309143 0.913295
O O8 0.952598 0.989759 0.863400
O O9 0.916674 0.943949 0.078311
O O10 0.852323 0.415520 0.738238
O O11 0.031989 0.093002 0.749056
#
# Coordination Sequence:
#
# PCOD9533198 Si02
#       7
#    16  16  16   8   8  16   8
#     4  12  25  40  72 104 142 181 228 279 349 427
#     4  12  22  43  67 101 146 184 218 285 351 416
#     4  12  24  49  69  99 140 185 231 289 359 409
#     4  11  21  42  66 100 147 183 216 282 344 419
#     4  12  26  38  68 106 148 178 234 276 344 444
#     4  11  27  44  70 104 135 182 239 287 352 413
#     4  11  25  52  72  88 137 179 236 310 332 413
#
# _framework density 22.801272999999998
#
# number of rings (size 3 to 8) (size 9 to 14) (size 15 to 20)
#    0.000    0.364    7.273    1.091    2.545    2.909 
#    0.000    0.000    0.000    0.000    0.000    0.000 
#    0.000    0.000    0.000    0.000    0.000    0.000 
#
# Total GULP energy -245573.573004 kJ/mol
# GULP energy per Si atom -5581.217568 kJ/mol
# Density = 2.274938 g / cm^3
# Si number density = 22.801273 Si / 1000 Ang^3
#
#
#
# Elastic Constant Matrix: (Units=GPa)
#
#
# Indices 1 2 3 4 5 6 
#
# 1 85.5891 33.0353 -13.5507 0.0000 0.0000 0.0000
# 2 33.0353 109.7982 20.3135 0.0000 0.0000 0.0000
# 3 -13.5507 20.3135 31.6283 0.0000 0.0000 0.0000
# 4 0.0000 0.0000 0.0000 140.4571 0.0000 0.0000
# 5 0.0000 0.0000 0.0000 0.0000 183.2685 0.0000
# 6 0.0000 0.0000 0.0000 0.0000 0.0000 52.4028
#
#
#
# Elastic Compliance Matrix: (Units=1/GPa)
#
#
# Indices 1 2 3 4 5 6 
#
# 1 0.016187 -0.006983 0.011420 0.000000 0.000000 0.000000
# 2 -0.006983 0.013348 -0.011565 0.000000 0.000000 0.000000
# 3 0.011420 -0.011565 0.043937 0.000000 0.000000 0.000000
# 4 0.000000 0.000000 0.000000 0.007120 0.000000 0.000000
# 5 0.000000 0.000000 0.000000 0.000000 0.005456 0.000000
# 6 0.000000 0.000000 0.000000 0.000000 0.000000 0.019083
#
#
# Mechanical properties :
#
#
# Convention : Reuss Voigt Hill
#
# Bulk Modulus (GPa) = 16.88699 34.06798 25.47748
# Shear Modulus (GPa) = 35.93859 87.70686 61.82272
#
# Velocity S-wave (km/s) = 3.97440 6.20881 5.21273
# Velocity P-wave (km/s) = 5.33698 8.14695 6.88680
#
# Compressibility (1/GPa) = 0.05921719
#
# Stress axis : x y z
#
# Youngs Moduli (GPa) = 61.77780 74.91665 22.75963
#
# Poissons Ratio (x) = 0.52314 -0.25991
# Poissons Ratio (y) = 0.43140 0.26321
# Poissons Ratio (z) = -0.70550 0.86639
#
# Static dielectric constant tensor:
#      x y z
#    x 1.827360 0.000000 0.000000 
#    y 0.000000 1.877810 0.000000 
#    z 0.000000 0.000000 2.138620 
# 
# From -- ./inp_files/13577.got.cif
#   From: 2010.05.17/outbox.cif.g08.bks.cpg/sg73_7_cif.got.tgz:13577.got - 2010.06.03 17:35:07.
