data_PCOD9533960
_publ_section_title
;
Structure prediction by ZEFSAII (Michael W. Deem and Ramdas Pophale) SiO2 
 PCOD9533960
Probable space group: I M M A
;
_chemical_formula_sum "Si O2"
_cell_formula_units_Z 104
_cell_length_a 22.461283
_cell_length_b 8.803623
_cell_length_c 31.478643
_cell_angle_alpha 90.000000
_cell_angle_beta 90.000000
_cell_angle_gamma 90.000000
_cell_volume 6224.607883
_symmetry_space_group_name_H-M "I M M A"
_symmetry_group_IT_number 74
_symmetry_cell_setting 'orthorhombic'
loop_
_space_group_symop_operation_xyz
x,y,z
-x,1/2-y,z
x,-y,-z
-x,1/2+y,-z
-x,-y,-z
x,1/2+y,-z
-x,y,z
x,1/2-y,z
1/2+x,1/2+y,1/2+z
1/2-x,-y,1/2+z
1/2+x,1/2-y,1/2-z
1/2-x,y,1/2-z
1/2-x,1/2-y,1/2-z
1/2+x,y,1/2-z
1/2-x,1/2+y,1/2+z
1/2+x,-y,1/2+z
loop_
_atom_site_type_symbol
_atom_site_label
_atom_site_fract_x
_atom_site_fract_y
_atom_site_fract_z
Si Si1 0.000000 0.431219 0.952159
Si Si2 0.172234 0.569008 0.712213
Si Si3 0.348590 0.932242 0.124758
Si Si4 0.708924 0.070722 0.609243
Si Si5 0.805201 0.930792 0.204161
Si Si6 0.430506 0.433085 0.954454
Si Si7 0.120227 0.428899 0.046593
O O1 0.938633 0.493717 0.933291
O O2 0.000000 0.250000 0.953612
O O3 0.000000 0.500000 0.000000
O O4 0.171954 0.750000 0.713568
O O5 0.138795 0.509303 0.670273
O O6 0.155170 0.501226 0.758308
O O7 0.239794 0.506757 0.706860
O O8 0.354194 0.750000 0.130107
O O9 0.279334 0.962330 0.113314
O O10 0.390585 0.980850 0.085760
O O11 0.703109 0.250000 0.598756
O O12 0.678102 0.045525 0.655143
O O13 0.676874 0.969544 0.574657
O O14 0.799223 0.750000 0.210842
O O15 0.500000 0.475338 0.948123
O O16 0.427152 0.250000 0.956987
O O17 0.411188 0.500000 0.000000
O O18 0.110663 0.250000 0.042762
O O19 0.128412 0.500000 0.000000
#
# Coordination Sequence:
#
# PCOD9533960 Si02
#       7
#     8  16  16  16  16  16  16
#     4  10  18  32  52  70  90 116 154 196 228 266
#     4  10  17  25  42  68  95 121 155 195 233 276
#     4   9  18  32  48  68  97 129 160 196 243 296
#     4   9  18  31  46  68  97 128 160 194 239 290
#     4   9  16  28  45  64  93 128 157 188 232 283
#     4   9  18  33  52  72  94 124 164 208 252 298
#     4  11  21  33  49  69  95 125 159 197 237 278
#
# _framework density 16.707879999999999
#
# number of rings (size 3 to 8) (size 9 to 14) (size 15 to 20)
#    0.000    2.462    0.000    6.692    0.000    4.308 
#    0.000    1.538    0.000    0.000    2.000    0.000 
#    0.000    0.000    0.000    0.000    0.000    0.000 
#
# Total GULP energy -289640.281597 kJ/mol
# GULP energy per Si atom -5570.005415 kJ/mol
# Density = 1.666985 g / cm^3
# Si number density = 16.707880 Si / 1000 Ang^3
#
#
#
# Elastic Constant Matrix: (Units=GPa)
#
#
# Indices 1 2 3 4 5 6 
#
# 1 39.8682 29.9021 43.8988 0.0000 0.0000 0.0000
# 2 29.9021 95.1073 54.0244 0.0000 0.0000 0.0000
# 3 43.8988 54.0244 126.9566 0.0000 0.0000 0.0000
# 4 0.0000 0.0000 0.0000 26.9708 0.0000 0.0000
# 5 0.0000 0.0000 0.0000 0.0000 10.0399 0.0000
# 6 0.0000 0.0000 0.0000 0.0000 0.0000 28.0035
#
#
#
# Elastic Compliance Matrix: (Units=1/GPa)
#
#
# Indices 1 2 3 4 5 6 
#
# 1 0.043587 -0.006782 -0.012185 0.000000 0.000000 0.000000
# 2 -0.006782 0.014921 -0.004004 0.000000 0.000000 0.000000
# 3 -0.012185 -0.004004 0.013794 0.000000 0.000000 0.000000
# 4 0.000000 0.000000 0.000000 0.037077 0.000000 0.000000
# 5 0.000000 0.000000 0.000000 0.000000 0.099603 0.000000
# 6 0.000000 0.000000 0.000000 0.000000 0.000000 0.035710
#
#
# Mechanical properties :
#
#
# Convention : Reuss Voigt Hill
#
# Bulk Modulus (GPa) = 37.93853 57.50922 47.72388
# Shear Modulus (GPa) = 16.69886 21.94329 19.32107
#
# Velocity S-wave (km/s) = 3.16485 3.62795 3.40428
# Velocity P-wave (km/s) = 6.00927 7.21419 6.63912
#
# Compressibility (1/GPa) = 0.02635843
#
# Stress axis : x y z
#
# Youngs Moduli (GPa) = 22.94287 67.01757 72.49447
#
# Poissons Ratio (x) = 0.45452 0.88336
# Poissons Ratio (y) = 0.15560 0.29030
# Poissons Ratio (z) = 0.27956 0.26837
#
# Static dielectric constant tensor:
#      x y z
#    x 1.569100 0.000000 0.000000 
#    y 0.000000 1.558420 0.000000 
#    z 0.000000 0.000000 1.604800 
# 
# From -- ./inp_files/73666.got.cif
#   From: 2010.05.17/outbox.cif.g08.bks.cpg/sg74_37_cif.got.tgz:73666.got - 2010.06.03 17:57:02.
