data_PCOD9533876
_publ_section_title
;
Structure prediction by ZEFSAII (Michael W. Deem and Ramdas Pophale) SiO2 
 PCOD9533876
Probable space group: I M M A
;
_chemical_formula_sum "Si O2"
_cell_formula_units_Z 68
_cell_length_a 20.346577
_cell_length_b 20.203571
_cell_length_c 7.671281
_cell_angle_alpha 90.000000
_cell_angle_beta 90.000000
_cell_angle_gamma 90.000000
_cell_volume 3153.460430
_symmetry_space_group_name_H-M "I M M A"
_symmetry_group_IT_number 74
_symmetry_cell_setting 'orthorhombic'
loop_
_space_group_symop_operation_xyz
x,y,z
-x,1/2-y,z
x,-y,-z
-x,1/2+y,-z
-x,-y,-z
x,1/2+y,-z
-x,y,z
x,1/2-y,z
1/2+x,1/2+y,1/2+z
1/2-x,-y,1/2+z
1/2+x,1/2-y,1/2-z
1/2-x,y,1/2-z
1/2-x,1/2-y,1/2-z
1/2+x,y,1/2-z
1/2-x,1/2+y,1/2+z
1/2+x,-y,1/2+z
loop_
_atom_site_type_symbol
_atom_site_label
_atom_site_fract_x
_atom_site_fract_y
_atom_site_fract_z
Si Si1 0.889866 0.652933 0.329931
Si Si2 0.843922 0.750000 0.851971
Si Si3 0.000000 0.750000 0.198553
Si Si4 0.924585 0.867999 0.722060
Si Si5 0.923395 0.987805 0.206662
Si Si6 0.713825 0.250000 0.958207
O O1 0.921710 0.656967 0.524015
O O2 0.886333 0.577898 0.264788
O O3 0.819593 0.687684 0.362022
O O4 0.941448 0.693116 0.213217
O O5 0.886580 0.816728 0.843735
O O6 0.791319 0.750000 0.006443
O O7 0.811322 0.750000 0.658858
O O8 0.000000 0.871017 0.781670
O O9 0.898115 0.942760 0.717150
O O10 0.000000 0.978918 0.261526
O O11 0.922023 0.000000 0.000000
#
# Coordination Sequence:
#
# PCOD9533876 Si02
#       6
#    16   8   4  16  16   8
#     4  10  17  30  54  80 113 146 200 239 294 354
#     4   9  17  32  51  81 116 140 193 253 301 344
#     4  10  16  26  50  80 108 144 184 246 276 340
#     4  10  18  29  55  82 109 150 193 243 303 361
#     4  10  20  33  49  77 118 152 182 240 304 356
#     4   8  18  30  53  80 107 155 190 247 294 349
#
# _framework density 21.563614000000001
#
# number of rings (size 3 to 8) (size 9 to 14) (size 15 to 20)
#    0.000    2.353    2.353    1.765    0.000    1.882 
#    0.000    2.353    0.000   14.118    0.000    0.000 
#    0.000    0.000    0.000    0.000    0.000    3.059 
#
# Total GULP energy -189358.349174 kJ/mol
# GULP energy per Si atom -5569.363211 kJ/mol
# Density = 2.151453 g / cm^3
# Si number density = 21.563614 Si / 1000 Ang^3
#
#
#
# Elastic Constant Matrix: (Units=GPa)
#
#
# Indices 1 2 3 4 5 6 
#
# 1 94.2837 82.1482 39.6909 0.0000 0.0000 0.0000
# 2 82.1482 205.4800 33.6508 0.0000 0.0000 0.0000
# 3 39.6909 33.6508 82.9953 0.0000 0.0000 0.0000
# 4 0.0000 0.0000 0.0000 -32.7478 0.0000 0.0000
# 5 0.0000 0.0000 0.0000 0.0000 22.4457 0.0000
# 6 0.0000 0.0000 0.0000 0.0000 0.0000 11.2305
#
#
#
# Elastic Compliance Matrix: (Units=1/GPa)
#
#
# Indices 1 2 3 4 5 6 
#
# 1 0.019027 -0.006552 -0.006443 0.000000 0.000000 0.000000
# 2 -0.006552 0.007469 0.000105 0.000000 0.000000 0.000000
# 3 -0.006443 0.000105 0.015088 0.000000 0.000000 0.000000
# 4 0.000000 0.000000 0.000000 -0.030536 0.000000 0.000000
# 5 0.000000 0.000000 0.000000 0.000000 0.044552 0.000000
# 6 0.000000 0.000000 0.000000 0.000000 0.000000 0.089043
#
#
# Mechanical properties :
#
#
# Convention : Reuss Voigt Hill
#
# Bulk Modulus (GPa) = 63.27480 77.08209 70.17844
# Shear Modulus (GPa) = 28.45937 15.33694 21.89815
#
# Velocity S-wave (km/s) = 3.63683 2.66980 3.19017
# Velocity P-wave (km/s) = 6.85874 6.73259 6.79596
#
# Compressibility (1/GPa) = 0.01580408
#
# Stress axis : x y z
#
# Youngs Moduli (GPa) = 52.55733 133.89221 66.28003
#
# Poissons Ratio (x) = 0.87720 0.42703
# Poissons Ratio (y) = 0.34433 -0.00696
# Poissons Ratio (z) = 0.33862 -0.01405
#
# Static dielectric constant tensor:
#      x y z
#    x 1.782320 0.000000 0.000000 
#    y 0.000000 1.797060 0.000000 
#    z 0.000000 0.000000 1.851540 
# 
# From -- ./inp_files/10483.got.cif
#   From: 2010.05.17/outbox.cif.g08.bks.cpg/sg74_6_cif.got.tgz:10483.got - 2010.06.03 17:57:02.
