data_PCOD9533019
_publ_section_title
;
Structure prediction by ZEFSAII (Michael W. Deem and Ramdas Pophale) SiO2 
 PCOD9533019
Probable space group: I B C A 
;
_chemical_formula_sum "Si O2"
_cell_formula_units_Z 96
_cell_length_a 13.847766
_cell_length_b 13.982078
_cell_length_c 22.356782
_cell_angle_alpha 90.000000
_cell_angle_beta 90.000000
_cell_angle_gamma 90.000000
_cell_volume 4328.732300
_symmetry_space_group_name_H-M "I B C A "
_symmetry_group_IT_number 73
_symmetry_cell_setting 'orthorhombic'
loop_
_space_group_symop_operation_xyz
x,y,z
-x,1/2-y,z
x,-y,1/2-z
1/2-x,y,-z
-x,-y,-z
x,1/2+y,-z
-x,y,1/2+z
1/2+x,-y,z
1/2+x,1/2+y,1/2+z
1/2-x,-y,1/2+z
1/2+x,1/2-y,-z
-x,1/2+y,1/2-z
1/2-x,1/2-y,1/2-z
1/2+x,y,1/2-z
1/2-x,1/2+y,z
x,1/2-y,1/2+z
loop_
_atom_site_type_symbol
_atom_site_label
_atom_site_fract_x
_atom_site_fract_y
_atom_site_fract_z
Si Si1 0.144417 0.252370 0.495777
Si Si2 0.361060 0.746093 0.732165
Si Si3 0.147972 0.905651 0.107303
Si Si4 0.990255 0.600938 0.220910
Si Si5 0.864002 0.868017 0.385702
Si Si6 0.542904 0.567413 0.550403
O O1 0.250000 0.300400 0.500000
O O2 0.133912 0.189002 0.435301
O O3 0.148687 0.175254 0.548597
O O4 0.069762 0.333275 0.517573
O O5 0.250000 0.750000 0.750000
O O6 0.418196 0.672259 0.775710
O O7 0.410170 0.848575 0.737535
O O8 0.378587 0.709605 0.665423
O O9 0.065709 0.901165 0.158035
O O10 0.258673 0.909813 0.130178
O O11 0.132533 0.006191 0.073946
O O12 0.017188 0.500000 0.250000
O O13 0.963581 0.924077 0.396454
O O14 0.500000 0.500000 0.500000
#
# Coordination Sequence:
#
# PCOD9533019 Si02
#       6
#    16  16  16  16  16  16
#     4  10  25  44  71 101 145 191 236 301 380 442
#     4  11  25  49  75 103 150 197 250 315 381 450
#     4  11  25  50  70 108 149 188 251 304 369 460
#     4  11  26  47  77 109 146 195 253 308 384 457
#     4  11  24  48  71 105 150 189 245 311 370 455
#     4  12  26  41  73 104 145 189 242 304 375 443
#
# _framework density 22.177392999999999
#
# number of rings (size 3 to 8) (size 9 to 14) (size 15 to 20)
#    0.000    1.000    3.333    1.500    9.333    3.333 
#    3.000    0.000    0.000    0.000    0.000    0.000 
#    0.000    0.000    0.000    0.000    0.000    0.000 
#
# Total GULP energy -267876.708987 kJ/mol
# GULP energy per Si atom -5580.764771 kJ/mol
# Density = 2.212692 g / cm^3
# Si number density = 22.177393 Si / 1000 Ang^3
#
#
#
# Elastic Constant Matrix: (Units=GPa)
#
#
# Indices 1 2 3 4 5 6 
#
# 1 117.7615 21.1952 6.2777 0.0000 0.0000 0.0000
# 2 21.1952 59.9992 4.2053 0.0000 0.0000 0.0000
# 3 6.2777 4.2053 86.5714 0.0000 0.0000 0.0000
# 4 0.0000 0.0000 0.0000 38.8324 0.0000 0.0000
# 5 0.0000 0.0000 0.0000 0.0000 32.4242 0.0000
# 6 0.0000 0.0000 0.0000 0.0000 0.0000 25.0614
#
#
#
# Elastic Compliance Matrix: (Units=1/GPa)
#
#
# Indices 1 2 3 4 5 6 
#
# 1 0.009090 -0.003176 -0.000505 0.000000 0.000000 0.000000
# 2 -0.003176 0.017833 -0.000636 0.000000 0.000000 0.000000
# 3 -0.000505 -0.000636 0.011619 0.000000 0.000000 0.000000
# 4 0.000000 0.000000 0.000000 0.025752 0.000000 0.000000
# 5 0.000000 0.000000 0.000000 0.000000 0.030841 0.000000
# 6 0.000000 0.000000 0.000000 0.000000 0.000000 0.039902
#
#
# Mechanical properties :
#
#
# Convention : Reuss Voigt Hill
#
# Bulk Modulus (GPa) = 33.43491 36.40983 34.92237
# Shear Modulus (GPa) = 32.54355 34.77383 33.65869
#
# Velocity S-wave (km/s) = 3.83485 3.96408 3.90000
# Velocity P-wave (km/s) = 5.89211 6.11597 6.00508
#
# Compressibility (1/GPa) = 0.02990886
#
# Stress axis : x y z
#
# Youngs Moduli (GPa) = 110.00789 56.07467 86.06838
#
# Poissons Ratio (x) = 0.17808 0.04346
# Poissons Ratio (y) = 0.34937 0.05474
# Poissons Ratio (z) = 0.05554 0.03566
#
# Static dielectric constant tensor:
#      x y z
#    x 1.998540 0.000000 0.000000 
#    y 0.000000 1.810280 0.000000 
#    z 0.000000 0.000000 1.859440 
# 
# From -- ./inp_files/25986.got.cif
#   From: 2010.05.17/outbox.cif.g08.bks.cpg/sg73_13_cif.got.tgz:25986.got - 2010.06.03 17:35:07.
