data_PCOD9533415
_publ_section_title
;
Structure prediction by ZEFSAII (Michael W. Deem and Ramdas Pophale) SiO2 
 PCOD9533415
Probable space group: I B C A 
;
_chemical_formula_sum "Si O2"
_cell_formula_units_Z 64
_cell_length_a 31.518318
_cell_length_b 10.259307
_cell_length_c 8.008316
_cell_angle_alpha 90.000000
_cell_angle_beta 90.000000
_cell_angle_gamma 90.000000
_cell_volume 2589.537833
_symmetry_space_group_name_H-M "I B C A "
_symmetry_group_IT_number 73
_symmetry_cell_setting 'orthorhombic'
loop_
_space_group_symop_operation_xyz
x,y,z
-x,1/2-y,z
x,-y,1/2-z
1/2-x,y,-z
-x,-y,-z
x,1/2+y,-z
-x,y,1/2+z
1/2+x,-y,z
1/2+x,1/2+y,1/2+z
1/2-x,-y,1/2+z
1/2+x,1/2-y,-z
-x,1/2+y,1/2-z
1/2-x,1/2-y,1/2-z
1/2+x,y,1/2-z
1/2-x,1/2+y,z
x,1/2-y,1/2+z
loop_
_atom_site_type_symbol
_atom_site_label
_atom_site_fract_x
_atom_site_fract_y
_atom_site_fract_z
Si Si1 0.966100 0.363742 0.799924
Si Si2 0.211337 0.120141 0.624630
Si Si3 0.156625 0.818321 0.154028
Si Si4 0.907355 0.185427 0.584162
O O1 0.986001 0.500000 0.750000
O O2 0.932132 0.310833 0.662830
O O3 0.000000 0.250000 0.820505
O O4 0.941795 0.386405 0.973757
O O5 0.250000 0.156930 0.500000
O O6 0.176891 0.084793 0.481271
O O7 0.191563 0.239720 0.733783
O O8 0.220557 0.000000 0.750000
O O9 0.118296 0.871488 0.262798
O O10 0.131003 0.716226 0.041383
#
# Coordination Sequence:
#
# PCOD9533415 Si02
#       4
#    16  16  16  16
#     4  11  24  43  67 101 142 184 234 292 358 430
#     4  11  24  42  66  99 136 181 233 283 347 419
#     4   9  21  44  68  94 132 177 224 289 351 406
#     4   9  21  41  66  96 127 176 231 286 357 418
#
# _framework density 24.714836999999999
#
# number of rings (size 3 to 8) (size 9 to 14) (size 15 to 20)
#    0.000    2.000    0.000    1.500    0.000   18.000 
#    0.000   13.750    0.000    0.000    0.000    0.000 
#    0.000    0.000    0.000    0.000    0.000    0.000 
#
# Total GULP energy -178462.459706 kJ/mol
# GULP energy per Si atom -5576.951866 kJ/mol
# Density = 2.465858 g / cm^3
# Si number density = 24.714837 Si / 1000 Ang^3
#
#
#
# Elastic Constant Matrix: (Units=GPa)
#
#
# Indices 1 2 3 4 5 6 
#
# 1 89.6801 21.0490 40.5575 0.0000 0.0000 0.0000
# 2 21.0490 90.6162 26.8807 0.0000 0.0000 0.0000
# 3 40.5575 26.8807 131.9867 0.0000 0.0000 0.0000
# 4 0.0000 0.0000 0.0000 17.0103 0.0000 0.0000
# 5 0.0000 0.0000 0.0000 0.0000 65.6588 0.0000
# 6 0.0000 0.0000 0.0000 0.0000 0.0000 -37.2430
#
#
#
# Elastic Compliance Matrix: (Units=1/GPa)
#
#
# Indices 1 2 3 4 5 6 
#
# 1 0.013281 -0.001995 -0.003675 0.000000 0.000000 0.000000
# 2 -0.001995 0.012045 -0.001840 0.000000 0.000000 0.000000
# 3 -0.003675 -0.001840 0.009080 0.000000 0.000000 0.000000
# 4 0.000000 0.000000 0.000000 0.058788 0.000000 0.000000
# 5 0.000000 0.000000 0.000000 0.000000 0.015230 0.000000
# 6 0.000000 0.000000 0.000000 0.000000 0.000000 -0.026851
#
#
# Mechanical properties :
#
#
# Convention : Reuss Voigt Hill
#
# Bulk Modulus (GPa) = 51.58166 54.36193 52.97180
# Shear Modulus (GPa) = 48.51768 24.00494 36.26131
#
# Velocity S-wave (km/s) = 4.43549 3.11991 3.83454
# Velocity P-wave (km/s) = 6.86641 5.91793 6.40973
#
# Compressibility (1/GPa) = 0.01938674
#
# Stress axis : x y z
#
# Youngs Moduli (GPa) = 75.29636 83.02349 110.12669
#
# Poissons Ratio (x) = 0.16562 0.40468
# Poissons Ratio (y) = 0.15021 0.20264
# Poissons Ratio (z) = 0.27669 0.15277
#
# Static dielectric constant tensor:
#      x y z
#    x 2.008070 0.000000 0.000000 
#    y 0.000000 1.892610 0.000000 
#    z 0.000000 0.000000 2.079520 
# 
# From -- ./inp_files/8236.got.cif
#   From: 2010.05.17/outbox.cif.g08.bks.cpg/sg73_5_cif.got.tgz:8236.got - 2010.06.03 17:35:07.
