data_PCOD9533659
_publ_section_title
;
Structure prediction by ZEFSAII (Michael W. Deem and Ramdas Pophale) SiO2 
 PCOD9533659
Probable space group: I B C A 
;
_chemical_formula_sum "Si O2"
_cell_formula_units_Z 80
_cell_length_a 20.051605
_cell_length_b 8.712346
_cell_length_c 21.581041
_cell_angle_alpha 90.000000
_cell_angle_beta 90.000000
_cell_angle_gamma 90.000000
_cell_volume 3770.132774
_symmetry_space_group_name_H-M "I B C A "
_symmetry_group_IT_number 73
_symmetry_cell_setting 'orthorhombic'
loop_
_space_group_symop_operation_xyz
x,y,z
-x,1/2-y,z
x,-y,1/2-z
1/2-x,y,-z
-x,-y,-z
x,1/2+y,-z
-x,y,1/2+z
1/2+x,-y,z
1/2+x,1/2+y,1/2+z
1/2-x,-y,1/2+z
1/2+x,1/2-y,-z
-x,1/2+y,1/2-z
1/2-x,1/2-y,1/2-z
1/2+x,y,1/2-z
1/2-x,1/2+y,z
x,1/2-y,1/2+z
loop_
_atom_site_type_symbol
_atom_site_label
_atom_site_fract_x
_atom_site_fract_y
_atom_site_fract_z
Si Si1 0.825990 0.020329 0.974611
Si Si2 0.794405 0.536253 0.818225
Si Si3 0.447867 0.000000 0.750000
Si Si4 0.661342 0.380870 0.842162
Si Si5 0.500000 0.250000 0.658111
Si Si6 0.869804 0.338138 0.918495
O O1 0.834841 0.194800 0.952378
O O2 0.844799 0.918329 0.914820
O O3 0.750000 0.998036 0.000000
O O4 0.875292 0.970250 0.029626
O O5 0.820171 0.500000 0.750000
O O6 0.715632 0.505857 0.819908
O O7 0.811216 0.709582 0.835067
O O8 0.824878 0.415031 0.865772
O O9 0.401632 0.097513 0.797370
O O10 0.489245 0.107455 0.704141
O O11 0.563495 0.220642 0.614355
#
# Coordination Sequence:
#
# PCOD9533659 Si02
#       6
#    16  16   8  16   8  16
#     4  12  25  46  77 112 149 188 245 315 385 451
#     4  12  25  42  75 111 148 189 236 311 384 449
#     4  12  28  52  74 106 150 200 256 310 360 446
#     4  12  25  45  75 113 150 187 240 310 386 443
#     4  12  30  52  72 104 150 206 260 302 364 446
#     4  12  27  48  72 109 150 199 248 303 372 452
#
# _framework density 21.219411999999998
#
# number of rings (size 3 to 8) (size 9 to 14) (size 15 to 20)
#    0.000    0.000    5.000    4.800    4.200    0.800 
#    0.000    0.000    0.000    0.000    0.000    0.000 
#    0.000    0.000    0.000    0.000    0.000    0.000 
#
# Total GULP energy -223864.751970 kJ/mol
# GULP energy per Si atom -5596.618799 kJ/mol
# Density = 2.117112 g / cm^3
# Si number density = 21.219412 Si / 1000 Ang^3
#
#
#
# Elastic Constant Matrix: (Units=GPa)
#
#
# Indices 1 2 3 4 5 6 
#
# 1 42.3208 3.8274 25.3353 0.0000 0.0000 0.0000
# 2 3.8274 112.3883 40.0394 0.0000 0.0000 0.0000
# 3 25.3353 40.0394 172.4630 0.0000 0.0000 0.0000
# 4 0.0000 0.0000 0.0000 117.3142 0.0000 0.0000
# 5 0.0000 0.0000 0.0000 0.0000 23.5481 0.0000
# 6 0.0000 0.0000 0.0000 0.0000 0.0000 18.5530
#
#
#
# Elastic Compliance Matrix: (Units=1/GPa)
#
#
# Indices 1 2 3 4 5 6 
#
# 1 0.025935 0.000517 -0.003930 0.000000 0.000000 0.000000
# 2 0.000517 0.009710 -0.002330 0.000000 0.000000 0.000000
# 3 -0.003930 -0.002330 0.006917 0.000000 0.000000 0.000000
# 4 0.000000 0.000000 0.000000 0.008524 0.000000 0.000000
# 5 0.000000 0.000000 0.000000 0.000000 0.042466 0.000000
# 6 0.000000 0.000000 0.000000 0.000000 0.000000 0.053900
#
#
# Mechanical properties :
#
#
# Convention : Reuss Voigt Hill
#
# Bulk Modulus (GPa) = 32.18001 51.73070 41.95535
# Shear Modulus (GPa) = 29.53387 49.08106 39.30746
#
# Velocity S-wave (km/s) = 3.73477 4.81461 4.30866
# Velocity P-wave (km/s) = 5.81346 7.43903 6.67591
#
# Compressibility (1/GPa) = 0.03107520
#
# Stress axis : x y z
#
# Youngs Moduli (GPa) = 38.55805 102.98328 144.57829
#
# Poissons Ratio (x) = -0.05323 0.56818
# Poissons Ratio (y) = -0.01993 0.33691
# Poissons Ratio (z) = 0.15153 0.23998
#
# Static dielectric constant tensor:
#      x y z
#    x 1.779280 0.000000 0.000000 
#    y 0.000000 1.756900 0.000000 
#    z 0.000000 0.000000 1.802900 
# 
# From -- ./inp_files/30035.got.cif
#   From: 2010.05.17/outbox.cif.g08.bks.cpg/sg73_16_cif.got.tgz:30035.got - 2010.06.03 17:35:07.
