data_PCOD9533678
_publ_section_title
;
Structure prediction by ZEFSAII (Michael W. Deem and Ramdas Pophale) SiO2 
 PCOD9533678
Probable space group: I B C A 
;
_chemical_formula_sum "Si O2"
_cell_formula_units_Z 112
_cell_length_a 28.273419
_cell_length_b 15.240200
_cell_length_c 10.714341
_cell_angle_alpha 90.000000
_cell_angle_beta 90.000000
_cell_angle_gamma 90.000000
_cell_volume 4616.729825
_symmetry_space_group_name_H-M "I B C A "
_symmetry_group_IT_number 73
_symmetry_cell_setting 'orthorhombic'
loop_
_space_group_symop_operation_xyz
x,y,z
-x,1/2-y,z
x,-y,1/2-z
1/2-x,y,-z
-x,-y,-z
x,1/2+y,-z
-x,y,1/2+z
1/2+x,-y,z
1/2+x,1/2+y,1/2+z
1/2-x,-y,1/2+z
1/2+x,1/2-y,-z
-x,1/2+y,1/2-z
1/2-x,1/2-y,1/2-z
1/2+x,y,1/2-z
1/2-x,1/2+y,z
x,1/2-y,1/2+z
loop_
_atom_site_type_symbol
_atom_site_label
_atom_site_fract_x
_atom_site_fract_y
_atom_site_fract_z
Si Si1 0.750000 0.132095 0.500000
Si Si2 0.603807 0.569688 0.660695
Si Si3 0.011389 0.647304 0.953736
Si Si4 0.539715 0.633216 0.291138
Si Si5 0.679213 0.479336 0.477663
Si Si6 0.322213 0.218975 0.451334
Si Si7 0.378622 0.241641 0.704259
Si Si8 0.116047 0.500000 0.250000
O O1 0.716533 0.203335 0.430273
O O2 0.715128 0.058552 0.560230
O O3 0.578573 0.500000 0.750000
O O4 0.565042 0.619932 0.577607
O O5 0.645833 0.521363 0.585275
O O6 0.624098 0.641006 0.755644
O O7 0.000000 0.750000 0.944908
O O8 0.979593 0.608923 0.844157
O O9 0.003142 0.622088 0.096842
O O10 0.566300 0.727440 0.295406
O O11 0.583648 0.571425 0.313399
O O12 0.696249 0.377909 0.496386
O O13 0.646869 0.464383 0.359612
O O14 0.354877 0.251826 0.568223
O O15 0.351236 0.214450 0.321334
#
# Coordination Sequence:
#
# PCOD9533678 Si02
#       8
#     8  16  16  16  16  16  16   8
#     4  12  28  50  76 122 158 194 262 328 404 482
#     4  12  25  49  78 110 152 205 264 318 388 465
#     4  12  27  46  73 113 154 200 259 321 377 456
#     4  12  27  45  75 111 153 207 260 317 384 453
#     4  12  26  52  76 114 157 204 255 329 396 473
#     4  12  27  49  80 114 153 208 259 322 395 476
#     4  12  25  49  79 108 152 208 262 313 389 469
#     4  12  26  48  78 106 152 204 260 312 390 462
#
# _framework density 24.259594
#
# number of rings (size 3 to 8) (size 9 to 14) (size 15 to 20)
#    0.000    0.000    7.143    2.571    1.000    2.286 
#    3.857    0.000    0.000    0.000    0.000    0.000 
#    0.000    0.000    0.000    0.000    0.000    0.000 
#
# Total GULP energy -312501.591151 kJ/mol
# GULP energy per Si atom -5580.385556 kJ/mol
# Density = 2.420438 g / cm^3
# Si number density = 24.259594 Si / 1000 Ang^3
#
#
#
# Elastic Constant Matrix: (Units=GPa)
#
#
# Indices 1 2 3 4 5 6 
#
# 1 81.7861 37.8651 44.1362 0.0000 0.0000 0.0000
# 2 37.8651 155.4988 31.2135 0.0000 0.0000 0.0000
# 3 44.1362 31.2135 110.4015 0.0000 0.0000 0.0000
# 4 0.0000 0.0000 0.0000 22.2765 0.0000 0.0000
# 5 0.0000 0.0000 0.0000 0.0000 -0.8946 0.0000
# 6 0.0000 0.0000 0.0000 0.0000 0.0000 43.1249
#
#
#
# Elastic Compliance Matrix: (Units=1/GPa)
#
#
# Indices 1 2 3 4 5 6 
#
# 1 0.016737 -0.002897 -0.005872 0.000000 0.000000 0.000000
# 2 -0.002897 0.007319 -0.000911 0.000000 0.000000 0.000000
# 3 -0.005872 -0.000911 0.011663 0.000000 0.000000 0.000000
# 4 0.000000 0.000000 0.000000 0.044890 0.000000 0.000000
# 5 0.000000 0.000000 0.000000 0.000000 -1.117756 0.000000
# 6 0.000000 0.000000 0.000000 0.000000 0.000000 0.023188
#
#
# Mechanical properties :
#
#
# Convention : Reuss Voigt Hill
#
# Bulk Modulus (GPa) = 61.12880 63.79068 62.45974
# Shear Modulus (GPa) = -5.05487 28.53279 11.73896
#
# Velocity S-wave (km/s) = -1.44505 3.43322 2.20213
# Velocity P-wave (km/s) = 4.74007 6.48599 5.68051
#
# Compressibility (1/GPa) = 0.01635890
#
# Stress axis : x y z
#
# Youngs Moduli (GPa) = 59.74744 136.62607 85.74104
#
# Poissons Ratio (x) = 0.39579 0.50348
# Poissons Ratio (y) = 0.17308 0.07813
# Poissons Ratio (z) = 0.35084 0.12450
#
# Static dielectric constant tensor:
#      x y z
#    x 1.956880 0.000000 0.000000 
#    y 0.000000 2.061670 0.000000 
#    z 0.000000 0.000000 1.929650 
# 
# From -- ./inp_files/14857.got.cif
#   From: 2010.05.17/outbox.cif.g08.bks.cpg/sg73_8_cif.got.tgz:14857.got - 2010.06.03 17:35:07.
