data_PCOD9533137
_publ_section_title
;
Structure prediction by ZEFSAII (Michael W. Deem and Ramdas Pophale) SiO2 
 PCOD9533137
Probable space group: I B C A 
;
_chemical_formula_sum "Si O2"
_cell_formula_units_Z 96
_cell_length_a 14.297417
_cell_length_b 22.368284
_cell_length_c 13.888707
_cell_angle_alpha 90.000000
_cell_angle_beta 90.000000
_cell_angle_gamma 90.000000
_cell_volume 4441.729107
_symmetry_space_group_name_H-M "I B C A "
_symmetry_group_IT_number 73
_symmetry_cell_setting 'orthorhombic'
loop_
_space_group_symop_operation_xyz
x,y,z
-x,1/2-y,z
x,-y,1/2-z
1/2-x,y,-z
-x,-y,-z
x,1/2+y,-z
-x,y,1/2+z
1/2+x,-y,z
1/2+x,1/2+y,1/2+z
1/2-x,-y,1/2+z
1/2+x,1/2-y,-z
-x,1/2+y,1/2-z
1/2-x,1/2-y,1/2-z
1/2+x,y,1/2-z
1/2-x,1/2+y,z
x,1/2-y,1/2+z
loop_
_atom_site_type_symbol
_atom_site_label
_atom_site_fract_x
_atom_site_fract_y
_atom_site_fract_z
Si Si1 0.847558 0.115177 0.612091
Si Si2 0.474690 0.596299 0.299326
Si Si3 0.900696 0.487984 0.451978
Si Si4 0.511055 0.180088 0.515177
Si Si5 0.310396 0.070679 0.236962
Si Si6 0.829150 0.875646 0.436072
O O1 0.891224 0.162673 0.537207
O O2 0.743251 0.107847 0.654139
O O3 0.916342 0.116448 0.706028
O O4 0.856994 0.051918 0.559032
O O5 0.417618 0.542994 0.349735
O O6 0.491488 0.644699 0.384845
O O7 0.577716 0.572962 0.273781
O O8 0.848738 0.440580 0.517673
O O9 0.000000 0.500000 0.500000
O O10 0.500000 0.250000 0.531089
O O11 0.427186 0.158275 0.444262
O O12 0.290755 0.109444 0.332014
O O13 0.283971 0.000000 0.250000
O O14 0.750000 0.844482 0.500000
#
# Coordination Sequence:
#
# PCOD9533137 Si02
#       6
#    16  16  16  16  16  16
#     4  12  23  42  67  99 135 174 223 277 341 414
#     4  11  22  41  66  95 133 170 225 277 343 408
#     4  11  19  37  65  95 136 174 204 267 343 416
#     4  11  26  48  67  88 132 186 234 288 334 386
#     4  12  23  37  66 107 139 169 212 276 351 422
#     4  11  22  42  66  97 133 175 222 270 336 416
#
# _framework density 21.613205000000001
#
# number of rings (size 3 to 8) (size 9 to 14) (size 15 to 20)
#    0.000    0.667    5.000    6.500    0.000    1.333 
#    3.000    0.833    0.000    0.000    0.000    0.000 
#    0.000    0.000    0.000    0.000    0.000    0.000 
#
# Total GULP energy -268257.776775 kJ/mol
# GULP energy per Si atom -5588.703683 kJ/mol
# Density = 2.156401 g / cm^3
# Si number density = 21.613205 Si / 1000 Ang^3
#
#
#
# Elastic Constant Matrix: (Units=GPa)
#
#
# Indices 1 2 3 4 5 6 
#
# 1 73.5341 0.8782 0.1566 0.0001 0.0000 0.0000
# 2 0.8782 86.0960 12.7106 0.0001 0.0000 0.0000
# 3 0.1566 12.7106 57.1993 0.0001 0.0000 -0.0001
# 4 0.0001 0.0001 0.0001 5.0070 0.0000 -0.0001
# 5 0.0000 0.0000 0.0000 0.0000 46.9860 0.0000
# 6 0.0000 0.0000 -0.0001 -0.0001 0.0000 3.9531
#
#
#
# Elastic Compliance Matrix: (Units=1/GPa)
#
#
# Indices 1 2 3 4 5 6 
#
# 1 0.013601 -0.000138 -0.000007 0.000000 0.000000 0.000000
# 2 -0.000138 0.012010 -0.002669 0.000000 0.000000 0.000000
# 3 -0.000007 -0.002669 0.018076 0.000000 0.000000 0.000000
# 4 0.000000 0.000000 0.000000 0.199721 0.000000 0.000003
# 5 0.000000 0.000000 0.000000 0.000000 0.021283 0.000000
# 6 0.000000 0.000000 0.000000 0.000003 0.000000 0.252965
#
#
# Mechanical properties :
#
#
# Convention : Reuss Voigt Hill
#
# Bulk Modulus (GPa) = 26.27356 27.14669 26.71012
# Shear Modulus (GPa) = 9.32890 24.72815 17.02853
#
# Velocity S-wave (km/s) = 2.07982 3.38616 2.80996
# Velocity P-wave (km/s) = 4.23677 5.27973 4.78674
#
# Compressibility (1/GPa) = 0.03806107
#
# Stress axis : x y z
#
# Youngs Moduli (GPa) = 73.52512 83.26180 55.32277
#
# Poissons Ratio (x) = 0.01147 0.00037
# Poissons Ratio (y) = 0.01013 0.14763
# Poissons Ratio (z) = 0.00049 0.22219
#
# Static dielectric constant tensor:
#      x y z
#    x 2.136770 0.000000 0.000000 
#    y 0.000000 1.710710 0.000000 
#    z 0.000000 0.000000 1.850920 
# 
# From -- ./inp_files/17002.got.cif
#   From: 2010.05.17/outbox.cif.g08.bks.cpg/sg73_9_cif.got.tgz:17002.got - 2010.06.03 17:35:07.
