data_PCOD9533442
_publ_section_title
;
Structure prediction by ZEFSAII (Michael W. Deem and Ramdas Pophale) SiO2 
 PCOD9533442
Probable space group: I B C A 
;
_chemical_formula_sum "Si O2"
_cell_formula_units_Z 64
_cell_length_a 17.148002
_cell_length_b 12.459358
_cell_length_c 12.836840
_cell_angle_alpha 90.000000
_cell_angle_beta 90.000000
_cell_angle_gamma 90.000000
_cell_volume 2742.630608
_symmetry_space_group_name_H-M "I B C A "
_symmetry_group_IT_number 73
_symmetry_cell_setting 'orthorhombic'
loop_
_space_group_symop_operation_xyz
x,y,z
-x,1/2-y,z
x,-y,1/2-z
1/2-x,y,-z
-x,-y,-z
x,1/2+y,-z
-x,y,1/2+z
1/2+x,-y,z
1/2+x,1/2+y,1/2+z
1/2-x,-y,1/2+z
1/2+x,1/2-y,-z
-x,1/2+y,1/2-z
1/2-x,1/2-y,1/2-z
1/2+x,y,1/2-z
1/2-x,1/2+y,z
x,1/2-y,1/2+z
loop_
_atom_site_type_symbol
_atom_site_label
_atom_site_fract_x
_atom_site_fract_y
_atom_site_fract_z
Si Si1 0.038108 0.633732 0.907148
Si Si2 0.886302 0.952884 0.490607
Si Si3 0.367380 0.167432 0.706621
Si Si4 0.810819 0.611899 0.790698
O O1 0.069056 0.633191 0.790471
O O2 0.000000 0.750000 0.933961
O O3 0.964243 0.558697 0.922634
O O4 0.109136 0.578001 0.972882
O O5 0.888824 0.879123 0.594078
O O6 0.821823 0.900390 0.415142
O O7 0.355941 0.293577 0.731468
O O8 0.280825 0.123699 0.732089
O O9 0.840537 0.500000 0.750000
#
# Coordination Sequence:
#
# PCOD9533442 Si02
#       4
#    16  16  16  16
#     4  11  24  45  68 106 143 190 242 303 368 435
#     4  11  25  44  73 102 143 195 246 298 374 445
#     4  11  25  48  69 102 151 186 246 311 368 448
#     4  11  25  44  73 107 140 191 246 307 375 443
#
# _framework density 23.335260999999999
#
# number of rings (size 3 to 8) (size 9 to 14) (size 15 to 20)
#    0.000    1.000    2.500    3.000    3.500    5.000 
#    0.000    2.500    0.000    0.000    0.000    0.000 
#    0.000    0.000    0.000    0.000    0.000    0.000 
#
# Total GULP energy -178474.719589 kJ/mol
# GULP energy per Si atom -5577.334987 kJ/mol
# Density = 2.328215 g / cm^3
# Si number density = 23.335261 Si / 1000 Ang^3
#
#
#
# Elastic Constant Matrix: (Units=GPa)
#
#
# Indices 1 2 3 4 5 6 
#
# 1 63.9459 23.3659 35.6994 0.0000 0.0000 0.0000
# 2 23.3659 167.5412 92.1918 0.0000 0.0000 0.0000
# 3 35.6994 92.1918 107.2035 0.0000 0.0000 0.0000
# 4 0.0000 0.0000 0.0000 28.4572 0.0000 0.0000
# 5 0.0000 0.0000 0.0000 0.0000 29.3548 0.0000
# 6 0.0000 0.0000 0.0000 0.0000 0.0000 -26.3961
#
#
#
# Elastic Compliance Matrix: (Units=1/GPa)
#
#
# Indices 1 2 3 4 5 6 
#
# 1 0.019437 0.001615 -0.007862 0.000000 0.000000 0.000000
# 2 0.001615 0.011465 -0.010397 0.000000 0.000000 0.000000
# 3 -0.007862 -0.010397 0.020887 0.000000 0.000000 0.000000
# 4 0.000000 0.000000 0.000000 0.035141 0.000000 0.000000
# 5 0.000000 0.000000 0.000000 0.000000 0.034066 0.000000
# 6 0.000000 0.000000 0.000000 0.000000 0.000000 -0.037884
#
#
# Mechanical properties :
#
#
# Convention : Reuss Voigt Hill
#
# Bulk Modulus (GPa) = 54.04901 71.24500 62.64700
# Shear Modulus (GPa) = 40.79474 18.77876 29.78675
#
# Velocity S-wave (km/s) = 4.18569 2.83987 3.57665
# Velocity P-wave (km/s) = 6.82438 6.43043 6.63033
#
# Compressibility (1/GPa) = 0.01850173
#
# Stress axis : x y z
#
# Youngs Moduli (GPa) = 51.44834 87.22569 47.87631
#
# Poissons Ratio (x) = -0.14089 0.37639
# Poissons Ratio (y) = -0.08310 0.49777
# Poissons Ratio (z) = 0.40447 0.90689
#
# Static dielectric constant tensor:
#      x y z
#    x 1.931260 0.000000 0.000000 
#    y 0.000000 1.997220 0.000000 
#    z 0.000000 0.000000 2.041970 
# 
# From -- ./inp_files/12458.got.cif
#   From: 2010.05.17/outbox.cif.g08.bks.cpg/sg73_7_cif.got.tgz:12458.got - 2010.06.03 17:35:07.
