data_PCOD9533860
_publ_section_title
;
Structure prediction by ZEFSAII (Michael W. Deem and Ramdas Pophale) SiO2 
 PCOD9533860
Probable space group: I M M A
;
_chemical_formula_sum "Si O2"
_cell_formula_units_Z 64
_cell_length_a 36.011511
_cell_length_b 14.740277
_cell_length_c 5.288434
_cell_angle_alpha 90.000000
_cell_angle_beta 90.000000
_cell_angle_gamma 90.000000
_cell_volume 2807.204671
_symmetry_space_group_name_H-M "I M M A"
_symmetry_group_IT_number 74
_symmetry_cell_setting 'orthorhombic'
loop_
_space_group_symop_operation_xyz
x,y,z
-x,1/2-y,z
x,-y,-z
-x,1/2+y,-z
-x,-y,-z
x,1/2+y,-z
-x,y,z
x,1/2-y,z
1/2+x,1/2+y,1/2+z
1/2-x,-y,1/2+z
1/2+x,1/2-y,1/2-z
1/2-x,y,1/2-z
1/2-x,1/2-y,1/2-z
1/2+x,y,1/2-z
1/2-x,1/2+y,1/2+z
1/2+x,-y,1/2+z
loop_
_atom_site_type_symbol
_atom_site_label
_atom_site_fract_x
_atom_site_fract_y
_atom_site_fract_z
Si Si1 0.075313 0.390600 0.229480
Si Si2 0.543736 0.597422 0.230761
Si Si3 0.153926 0.445542 0.260840
Si Si4 0.726184 0.853862 0.006469
O O1 0.062457 0.497170 0.246391
O O2 0.062647 0.353815 0.496414
O O3 0.119320 0.382963 0.182542
O O4 0.052813 0.354918 0.992712
O O5 0.500000 0.586689 0.193267
O O6 0.137048 0.500000 0.500000
O O7 0.189115 0.402109 0.405092
O O8 0.164003 0.500000 0.000000
O O9 0.716920 0.750000 0.079388
O O10 0.750000 0.852823 0.750000
O O11 0.750000 0.891355 0.250000
#
# Coordination Sequence:
#
# PCOD9533860 Si02
#       4
#    16  16  16  16
#     4  10  16  27  39  68 104 139 168 219 269 322
#     4  10  16  25  41  63 104 150 177 207 265 330
#     4  12  21  35  57  84 116 144 174 236 294 334
#     4  10  23  43  62  81 109 148 192 234 281 349
#
# _framework density 22.798480999999999
#
# number of rings (size 3 to 8) (size 9 to 14) (size 15 to 20)
#    0.000    1.500    5.000    5.250    0.000    2.000 
#    0.000    0.000    0.000    0.000    0.000    0.000 
#    0.000   11.000    0.000    0.000    0.000    0.000 
#
# Total GULP energy -178269.766874 kJ/mol
# GULP energy per Si atom -5570.930215 kJ/mol
# Density = 2.274659 g / cm^3
# Si number density = 22.798481 Si / 1000 Ang^3
#
#
#
# Elastic Constant Matrix: (Units=GPa)
#
#
# Indices 1 2 3 4 5 6 
#
# 1 182.1418 29.0318 49.8288 0.0010 -0.0060 -0.0023
# 2 29.0318 59.1675 18.6453 0.0002 0.0000 0.0009
# 3 49.8288 18.6453 216.6459 0.0052 -0.0299 0.0087
# 4 0.0010 0.0002 0.0052 -0.2988 0.0035 0.0042
# 5 -0.0060 0.0000 -0.0299 0.0035 50.0659 -0.0024
# 6 -0.0023 0.0009 0.0087 0.0042 -0.0024 -88.6684
#
#
#
# Elastic Compliance Matrix: (Units=1/GPa)
#
#
# Indices 1 2 3 4 5 6 
#
# 1 0.006248 -0.002686 -0.001206 -0.000003 0.000000 0.000000
# 2 -0.002686 0.018527 -0.000977 -0.000010 -0.000001 0.000000
# 3 -0.001206 -0.000977 0.004977 0.000081 0.000003 0.000001
# 4 -0.000003 -0.000010 0.000081 -3.346658 0.000232 -0.000160
# 5 0.000000 -0.000001 0.000003 0.000232 0.019974 -0.000001
# 6 0.000000 0.000000 0.000001 -0.000160 -0.000001 -0.011278
#
#
# Mechanical properties :
#
#
# Convention : Reuss Voigt Hill
#
# Bulk Modulus (GPa) = 49.96175 72.55191 61.25683
# Shear Modulus (GPa) = -1.51893 16.24968 7.36538
#
# Velocity S-wave (km/s) = -0.81712 2.67264 1.79935
# Velocity P-wave (km/s) = 4.59041 6.43554 5.58964
#
# Compressibility (1/GPa) = 0.02001531
#
# Stress axis : x y z
#
# Youngs Moduli (GPa) = 160.04521 53.97578 200.91387
#
# Poissons Ratio (x) = 0.14497 0.24229
# Poissons Ratio (y) = 0.42985 0.19624
# Poissons Ratio (z) = 0.19301 0.05272
#
# Static dielectric constant tensor:
#      x y z
#    x 1.831770 -0.000020 0.000000 
#    y -0.000020 -0.578770 -0.000490 
#    z 0.000000 -0.000490 1.795470 
# 
# From -- ./inp_files/4922.got.cif
#   From: 2010.05.17/outbox.cif.g08.bks.cpg/sg74_3_cif.got.tgz:4922.got - 2010.06.03 17:57:02.
