data_PCOD9533386
_publ_section_title
;
Structure prediction by ZEFSAII (Michael W. Deem and Ramdas Pophale) SiO2 
 PCOD9533386
Probable space group: I B C A 
;
_chemical_formula_sum "Si O2"
_cell_formula_units_Z 112
_cell_length_a 26.345198
_cell_length_b 15.454471
_cell_length_c 13.153859
_cell_angle_alpha 90.000000
_cell_angle_beta 90.000000
_cell_angle_gamma 90.000000
_cell_volume 5355.608141
_symmetry_space_group_name_H-M "I B C A "
_symmetry_group_IT_number 73
_symmetry_cell_setting 'orthorhombic'
loop_
_space_group_symop_operation_xyz
x,y,z
-x,1/2-y,z
x,-y,1/2-z
1/2-x,y,-z
-x,-y,-z
x,1/2+y,-z
-x,y,1/2+z
1/2+x,-y,z
1/2+x,1/2+y,1/2+z
1/2-x,-y,1/2+z
1/2+x,1/2-y,-z
-x,1/2+y,1/2-z
1/2-x,1/2-y,1/2-z
1/2+x,y,1/2-z
1/2-x,1/2+y,z
x,1/2-y,1/2+z
loop_
_atom_site_type_symbol
_atom_site_label
_atom_site_fract_x
_atom_site_fract_y
_atom_site_fract_z
Si Si1 0.530645 0.500000 0.750000
Si Si2 0.259796 0.827948 0.170690
Si Si3 0.000000 0.250000 0.983624
Si Si4 0.643041 0.099068 0.748738
Si Si5 0.397646 0.181652 0.049490
Si Si6 0.452587 0.894579 0.127614
Si Si7 0.907575 0.996771 0.956370
Si Si8 0.830153 0.849183 0.526023
O O1 0.492617 0.424024 0.787013
O O2 0.565717 0.481054 0.651033
O O3 0.250000 0.750000 0.250000
O O4 0.297540 0.892877 0.228270
O O5 0.205463 0.853049 0.125692
O O6 0.294436 0.820043 0.068388
O O7 0.975477 0.179053 0.057163
O O8 0.955451 0.296094 0.922532
O O9 0.632679 0.139932 0.641139
O O10 0.601131 0.137292 0.826060
O O11 0.628147 0.000000 0.750000
O O12 0.371061 0.273012 0.030552
O O13 0.397816 0.106377 0.963712
O O14 0.442790 0.976001 0.052043
O O15 0.858440 0.057883 0.976924
#
# Coordination Sequence:
#
# PCOD9533386 Si02
#       8
#     8  16   8  16  16  16  16  16
#     4  12  26  40  72 102 142 198 226 288 360 416
#     4  11  23  46  71 101 137 181 240 294 365 427
#     4  12  26  40  68 106 144 190 234 286 348 422
#     4  12  23  43  74 103 135 188 233 291 366 428
#     4  12  24  44  72 104 142 185 234 289 355 427
#     4  12  24  44  67 103 144 184 236 289 343 430
#     4  12  25  47  70 103 149 182 242 297 351 423
#     4  11  25  46  72 101 143 185 231 310 356 417
#
# _framework density 20.912656999999999
#
# number of rings (size 3 to 8) (size 9 to 14) (size 15 to 20)
#    0.000    0.286    7.857    0.429    2.000    2.857 
#    3.857    1.429    0.000    0.000    0.000    0.000 
#    0.000    0.000    0.000    0.000    0.000    0.000 
#
# Total GULP energy -312352.909497 kJ/mol
# GULP energy per Si atom -5577.730527 kJ/mol
# Density = 2.086506 g / cm^3
# Si number density = 20.912657 Si / 1000 Ang^3
#
#
#
# Elastic Constant Matrix: (Units=GPa)
#
#
# Indices 1 2 3 4 5 6 
#
# 1 114.9610 35.7200 31.7104 0.0000 0.0000 0.0000
# 2 35.7200 62.1577 -1.2752 0.0000 0.0000 0.0000
# 3 31.7104 -1.2752 85.6717 0.0000 0.0000 0.0000
# 4 0.0000 0.0000 0.0000 18.4318 0.0000 0.0000
# 5 0.0000 0.0000 0.0000 0.0000 35.1371 0.0000
# 6 0.0000 0.0000 0.0000 0.0000 0.0000 31.1760
#
#
#
# Elastic Compliance Matrix: (Units=1/GPa)
#
#
# Indices 1 2 3 4 5 6 
#
# 1 0.012174 -0.007090 -0.004612 0.000000 0.000000 0.000000
# 2 -0.007090 0.020223 0.002925 0.000000 0.000000 0.000000
# 3 -0.004612 0.002925 0.013423 0.000000 0.000000 0.000000
# 4 0.000000 0.000000 0.000000 0.054254 0.000000 0.000000
# 5 0.000000 0.000000 0.000000 0.000000 0.028460 0.000000
# 6 0.000000 0.000000 0.000000 0.000000 0.000000 0.032076
#
#
# Mechanical properties :
#
#
# Convention : Reuss Voigt Hill
#
# Bulk Modulus (GPa) = 35.37763 43.90008 39.63886
# Shear Modulus (GPa) = 26.65465 30.05799 28.35632
#
# Velocity S-wave (km/s) = 3.57399 3.79530 3.68630
# Velocity P-wave (km/s) = 5.82964 6.34377 6.09213
#
# Compressibility (1/GPa) = 0.02826645
#
# Stress axis : x y z
#
# Youngs Moduli (GPa) = 82.14407 49.44915 74.49943
#
# Poissons Ratio (x) = 0.35062 0.34356
# Poissons Ratio (y) = 0.58244 -0.21795
# Poissons Ratio (z) = 0.37881 -0.14466
#
# Static dielectric constant tensor:
#      x y z
#    x 1.781510 0.000000 0.000000 
#    y 0.000000 1.733050 0.000000 
#    z 0.000000 0.000000 1.753100 
# 
# From -- ./inp_files/19441.got.cif
#   From: 2010.05.17/outbox.cif.g08.bks.cpg/sg73_10_cif.got.tgz:19441.got - 2010.06.03 17:35:07.
