data_PCOD9533593
_publ_section_title
;
Structure prediction by ZEFSAII (Michael W. Deem and Ramdas Pophale) SiO2 
 PCOD9533593
Probable space group: I B C A 
;
_chemical_formula_sum "Si O2"
_cell_formula_units_Z 88
_cell_length_a 9.622732
_cell_length_b 33.559050
_cell_length_c 12.534540
_cell_angle_alpha 90.000000
_cell_angle_beta 90.000000
_cell_angle_gamma 90.000000
_cell_volume 4047.775797
_symmetry_space_group_name_H-M "I B C A "
_symmetry_group_IT_number 73
_symmetry_cell_setting 'orthorhombic'
loop_
_space_group_symop_operation_xyz
x,y,z
-x,1/2-y,z
x,-y,1/2-z
1/2-x,y,-z
-x,-y,-z
x,1/2+y,-z
-x,y,1/2+z
1/2+x,-y,z
1/2+x,1/2+y,1/2+z
1/2-x,-y,1/2+z
1/2+x,1/2-y,-z
-x,1/2+y,1/2-z
1/2-x,1/2-y,1/2-z
1/2+x,y,1/2-z
1/2-x,1/2+y,z
x,1/2-y,1/2+z
loop_
_atom_site_type_symbol
_atom_site_label
_atom_site_fract_x
_atom_site_fract_y
_atom_site_fract_z
Si Si1 0.997817 0.820683 0.860007
Si Si2 0.221657 0.026011 0.630576
Si Si3 0.405092 0.599044 0.547667
Si Si4 0.987362 0.466858 0.904439
Si Si5 0.500000 0.750000 0.488136
Si Si6 0.198801 0.711679 0.684895
O O1 0.006567 0.864123 0.910512
O O2 0.160007 0.810977 0.840852
O O3 0.906697 0.815212 0.753970
O O4 0.943805 0.785718 0.938271
O O5 0.250000 0.027391 0.500000
O O6 0.377930 0.030695 0.670170
O O7 0.129156 0.065848 0.639246
O O8 0.150957 0.983315 0.651235
O O9 0.250000 0.610457 0.500000
O O10 0.498610 0.575745 0.460071
O O11 0.000000 0.500000 0.000000
O O12 0.384833 0.729111 0.415032
O O13 0.250000 0.750000 0.750000
#
# Coordination Sequence:
#
# PCOD9533593 Si02
#       6
#    16  16  16  16   8  16
#     4  12  24  38  65  82 121 149 203 253 296 370
#     4   7  11  21  43  68 110 141 175 222 277 332
#     4   8  15  29  48  80 108 147 186 229 288 340
#     4   7  11  21  43  68 110 141 175 222 277 332
#     4  12  22  38  68  82 108 150 204 240 300 368
#     4  12  23  42  59  87 112 156 197 246 306 356
#
# _framework density 21.740334000000001
#
# number of rings (size 3 to 8) (size 9 to 14) (size 15 to 20)
#    0.000    3.273    3.636    1.636    0.000    0.000 
#    0.000    0.000   20.000    0.000    0.000    0.000 
#    0.000  349.091    0.000    0.000    0.000    0.000 
#
# Total GULP energy -245066.171865 kJ/mol
# GULP energy per Si atom -5569.685724 kJ/mol
# Density = 2.169085 g / cm^3
# Si number density = 21.740334 Si / 1000 Ang^3
#
#
#
# Elastic Constant Matrix: (Units=GPa)
#
#
# Indices 1 2 3 4 5 6 
#
# 1 101.0598 45.5635 18.4911 0.0001 0.0002 0.0000
# 2 45.5635 150.5070 39.4871 0.0001 -0.0015 0.0000
# 3 18.4911 39.4871 60.0733 -0.0001 0.0020 -0.0003
# 4 0.0001 0.0001 -0.0001 35.3166 0.0013 -0.0001
# 5 0.0002 -0.0015 0.0020 0.0013 -161.1534 0.0005
# 6 0.0000 0.0000 -0.0003 -0.0001 0.0005 32.9780
#
#
#
# Elastic Compliance Matrix: (Units=1/GPa)
#
#
# Indices 1 2 3 4 5 6 
#
# 1 0.011573 -0.003104 -0.001522 0.000000 0.000000 0.000000
# 2 -0.003104 0.008861 -0.004869 0.000000 0.000000 0.000000
# 3 -0.001522 -0.004869 0.020315 0.000000 0.000000 0.000000
# 4 0.000000 0.000000 0.000000 0.028315 0.000000 0.000000
# 5 0.000000 0.000000 0.000000 0.000000 -0.006205 0.000000
# 6 0.000000 0.000000 0.000000 0.000000 0.000000 0.030323
#
#
# Mechanical properties :
#
#
# Convention : Reuss Voigt Hill
#
# Bulk Modulus (GPa) = 45.95739 57.63596 51.79668
# Shear Modulus (GPa) = 41.86649 -4.69854 18.58397
#
# Velocity S-wave (km/s) = 4.39310 -1.47170 2.92689
# Velocity P-wave (km/s) = 6.84964 4.86629 5.94131
#
# Compressibility (1/GPa) = 0.02175928
#
# Stress axis : x y z
#
# Youngs Moduli (GPa) = 86.40658 112.84779 49.22378
#
# Poissons Ratio (x) = 0.35032 0.07491
# Poissons Ratio (y) = 0.26823 0.23968
# Poissons Ratio (z) = 0.13149 0.54948
#
# Static dielectric constant tensor:
#      x y z
#    x 1.978290 0.000000 0.000000 
#    y 0.000000 1.812460 0.000000 
#    z 0.000000 0.000000 2.418850 
# 
# From -- ./inp_files/16272.got.cif
#   From: 2010.05.17/outbox.cif.g08.bks.cpg/sg73_9_cif.got.tgz:16272.got - 2010.06.03 17:35:07.
