data_PCOD9533794
_publ_section_title
;
Structure prediction by ZEFSAII (Michael W. Deem and Ramdas Pophale) SiO2 
 PCOD9533794
Probable space group: I M M A
;
_chemical_formula_sum "Si O2"
_cell_formula_units_Z 80
_cell_length_a 11.325321
_cell_length_b 16.833324
_cell_length_c 24.605060
_cell_angle_alpha 90.000000
_cell_angle_beta 90.000000
_cell_angle_gamma 90.000000
_cell_volume 4690.777478
_symmetry_space_group_name_H-M "I M M A"
_symmetry_group_IT_number 74
_symmetry_cell_setting 'orthorhombic'
loop_
_space_group_symop_operation_xyz
x,y,z
-x,1/2-y,z
x,-y,-z
-x,1/2+y,-z
-x,-y,-z
x,1/2+y,-z
-x,y,z
x,1/2-y,z
1/2+x,1/2+y,1/2+z
1/2-x,-y,1/2+z
1/2+x,1/2-y,1/2-z
1/2-x,y,1/2-z
1/2-x,1/2-y,1/2-z
1/2+x,y,1/2-z
1/2-x,1/2+y,1/2+z
1/2+x,-y,1/2+z
loop_
_atom_site_type_symbol
_atom_site_label
_atom_site_fract_x
_atom_site_fract_y
_atom_site_fract_z
Si Si1 0.360414 0.337314 0.932789
Si Si2 0.500000 0.403885 0.492309
Si Si3 0.743820 0.416524 0.034047
Si Si4 0.000000 0.842632 0.227820
Si Si5 0.750000 0.567558 0.250000
Si Si6 0.748465 0.515797 0.130595
Si Si7 0.500000 0.084699 0.612093
O O1 0.500000 0.336284 0.926056
O O2 0.311499 0.250000 0.920139
O O3 0.310284 0.404153 0.893006
O O4 0.331322 0.360239 0.995096
O O5 0.500000 0.500000 0.500000
O O6 0.622991 0.383327 0.464574
O O7 0.500000 0.372663 0.554092
O O8 0.703516 0.442503 0.094023
O O9 0.745991 0.500000 0.000000
O O10 0.874175 0.882429 0.246280
O O11 0.000000 0.856209 0.162763
O O12 0.000000 0.750000 0.242592
O O13 0.738223 0.516014 0.195142
O O14 0.885733 0.529151 0.116323
#
# Coordination Sequence:
#
# PCOD9533794 Si02
#       7
#    16   8  16   8   8  16   8
#     4  10  21  33  45  67  98 129 157 194 240 284
#     4  10  12  26  48  71  89 110 149 190 247 282
#     4   9  16  29  50  70  89 120 154 194 242 288
#     4  10  22  36  48  64  96 137 170 198 233 276
#     4  10  23  36  48  70  95 130 172 208 232 270
#     4  10  19  33  51  69  93 126 161 199 235 280
#     4  10  16  30  48  69  91 117 156 192 238 282
#
# _framework density 17.054742000000001
#
# number of rings (size 3 to 8) (size 9 to 14) (size 15 to 20)
#    0.000    2.200    6.000    0.300    1.400    7.600 
#    0.000    0.500    0.000    0.000    0.000    0.700 
#    0.000    0.000    0.000    0.000    0.000    0.000 
#
# Total GULP energy -222678.257566 kJ/mol
# GULP energy per Si atom -5566.956439 kJ/mol
# Density = 1.701592 g / cm^3
# Si number density = 17.054742 Si / 1000 Ang^3
#
#
#
# Elastic Constant Matrix: (Units=GPa)
#
#
# Indices 1 2 3 4 5 6 
#
# 1 61.2174 7.4546 11.8717 0.0000 0.0000 0.0000
# 2 7.4546 11.3153 19.6086 0.0000 0.0000 0.0000
# 3 11.8717 19.6086 133.1561 0.0000 0.0000 0.0000
# 4 0.0000 0.0000 0.0000 10.4615 0.0000 0.0000
# 5 0.0000 0.0000 0.0000 0.0000 85.0751 0.0000
# 6 0.0000 0.0000 0.0000 0.0000 0.0000 10.8646
#
#
#
# Elastic Compliance Matrix: (Units=1/GPa)
#
#
# Indices 1 2 3 4 5 6 
#
# 1 0.017764 -0.012028 0.000187 0.000000 0.000000 0.000000
# 2 -0.012028 0.126799 -0.017600 0.000000 0.000000 0.000000
# 3 0.000187 -0.017600 0.010085 0.000000 0.000000 0.000000
# 4 0.000000 0.000000 0.000000 0.095589 0.000000 0.000000
# 5 0.000000 0.000000 0.000000 0.000000 0.011754 0.000000
# 6 0.000000 0.000000 0.000000 0.000000 0.000000 0.092042
#
#
# Mechanical properties :
#
#
# Convention : Reuss Voigt Hill
#
# Bulk Modulus (GPa) = 10.44198 31.50653 20.97425
# Shear Modulus (GPa) = 11.24010 32.39716 21.81863
#
# Velocity S-wave (km/s) = 2.57000 4.36317 3.58065
# Velocity P-wave (km/s) = 3.86555 6.62547 5.42399
#
# Compressibility (1/GPa) = 0.09576732
#
# Stress axis : x y z
#
# Youngs Moduli (GPa) = 56.29516 7.88647 99.15642
#
# Poissons Ratio (x) = 0.09486 -0.01859
# Poissons Ratio (y) = 0.67710 1.74517
# Poissons Ratio (z) = -0.01055 0.13880
#
# Static dielectric constant tensor:
#      x y z
#    x 1.609780 0.000000 0.000000 
#    y 0.000000 1.594790 0.000000 
#    z 0.000000 0.000000 1.618830 
# 
# From -- ./inp_files/58813.got.cif
#   From: 2010.05.17/outbox.cif.g08.bks.cpg/sg74_30_cif.got.tgz:58813.got - 2010.06.03 17:57:02.
