data_PCOD9533952
_publ_section_title
;
Structure prediction by ZEFSAII (Michael W. Deem and Ramdas Pophale) SiO2 
 PCOD9533952
Probable space group: I M M A
;
_chemical_formula_sum "Si O2"
_cell_formula_units_Z 80
_cell_length_a 29.774294
_cell_length_b 8.680262
_cell_length_c 23.697647
_cell_angle_alpha 90.000000
_cell_angle_beta 90.000000
_cell_angle_gamma 90.000000
_cell_volume 6124.625415
_symmetry_space_group_name_H-M "I M M A"
_symmetry_group_IT_number 74
_symmetry_cell_setting 'orthorhombic'
loop_
_space_group_symop_operation_xyz
x,y,z
-x,1/2-y,z
x,-y,-z
-x,1/2+y,-z
-x,-y,-z
x,1/2+y,-z
-x,y,z
x,1/2-y,z
1/2+x,1/2+y,1/2+z
1/2-x,-y,1/2+z
1/2+x,1/2-y,1/2-z
1/2-x,y,1/2-z
1/2-x,1/2-y,1/2-z
1/2+x,y,1/2-z
1/2-x,1/2+y,1/2+z
1/2+x,-y,1/2+z
loop_
_atom_site_type_symbol
_atom_site_label
_atom_site_fract_x
_atom_site_fract_y
_atom_site_fract_z
Si Si1 0.183132 0.933386 0.266932
Si Si2 0.947346 0.434137 0.561786
Si Si3 0.782403 0.435153 0.437506
Si Si4 0.270261 0.434459 0.331974
Si Si5 0.869550 0.565286 0.636254
O O1 0.187424 0.750000 0.270012
O O2 0.224990 0.013046 0.299400
O O3 0.189217 0.988203 0.202417
O O4 0.140774 0.990754 0.302921
O O5 0.935442 0.500000 0.500000
O O6 0.941609 0.250000 0.561421
O O7 0.915282 0.508971 0.608095
O O8 0.000000 0.468791 0.571538
O O9 0.779671 0.500000 0.500000
O O10 0.783084 0.250000 0.440102
O O11 0.740963 0.479323 0.396361
O O12 0.828716 0.482411 0.406067
O O13 0.274183 0.250000 0.328353
O O14 0.868380 0.750000 0.641220
#
# Coordination Sequence:
#
# PCOD9533952 Si02
#       5
#    16  16  16  16  16
#     4  10  17  25  39  57  72  91 120 154 190 225
#     4  10  20  32  44  58  76  98 125 158 195 234
#     4   9  18  27  37  53  73  97 124 155 188 221
#     4   9  16  27  38  51  73  98 122 150 186 225
#     4  10  19  30  42  56  74  97 125 159 196 231
#
# _framework density 13.062023
#
# number of rings (size 3 to 8) (size 9 to 14) (size 15 to 20)
#    0.000    2.400    0.000    6.600    0.000    7.600 
#    0.000    0.000    0.000    0.000    0.000    0.000 
#    0.000    0.000    0.000    0.000    0.000    1.000 
#
# Total GULP energy -222799.413304 kJ/mol
# GULP energy per Si atom -5569.985333 kJ/mol
# Density = 1.303229 g / cm^3
# Si number density = 13.062023 Si / 1000 Ang^3
#
#
#
# Elastic Constant Matrix: (Units=GPa)
#
#
# Indices 1 2 3 4 5 6 
#
# 1 41.9236 17.5390 30.2945 0.0000 0.0000 0.0000
# 2 17.5390 29.7704 18.0035 0.0000 0.0000 0.0000
# 3 30.2945 18.0035 65.5117 0.0000 0.0000 0.0000
# 4 0.0000 0.0000 0.0000 23.4014 0.0000 0.0000
# 5 0.0000 0.0000 0.0000 0.0000 25.4495 0.0000
# 6 0.0000 0.0000 0.0000 0.0000 0.0000 17.7003
#
#
#
# Elastic Compliance Matrix: (Units=1/GPa)
#
#
# Indices 1 2 3 4 5 6 
#
# 1 0.040825 -0.015153 -0.014714 0.000000 0.000000 0.000000
# 2 -0.015153 0.045910 -0.005609 0.000000 0.000000 0.000000
# 3 -0.014714 -0.005609 0.023610 0.000000 0.000000 0.000000
# 4 0.000000 0.000000 0.000000 0.042732 0.000000 0.000000
# 5 0.000000 0.000000 0.000000 0.000000 0.039293 0.000000
# 6 0.000000 0.000000 0.000000 0.000000 0.000000 0.056496
#
#
# Mechanical properties :
#
#
# Convention : Reuss Voigt Hill
#
# Bulk Modulus (GPa) = 25.38627 29.87552 27.63089
# Shear Modulus (GPa) = 15.01716 18.06817 16.54266
#
# Velocity S-wave (km/s) = 3.39437 3.72325 3.56261
# Velocity P-wave (km/s) = 5.90252 6.43469 6.17434
#
# Compressibility (1/GPa) = 0.03939138
#
# Stress axis : x y z
#
# Youngs Moduli (GPa) = 24.49467 21.78166 42.35438
#
# Poissons Ratio (x) = 0.33007 0.62322
# Poissons Ratio (y) = 0.37118 0.23758
# Poissons Ratio (z) = 0.36042 0.12218
#
# Static dielectric constant tensor:
#      x y z
#    x 1.423770 0.000000 0.000000 
#    y 0.000000 1.435310 0.000000 
#    z 0.000000 0.000000 1.454550 
# 
# From -- ./inp_files/55484.got.cif
#   From: 2010.05.17/outbox.cif.g08.bks.cpg/sg74_28_cif.got.tgz:55484.got - 2010.06.03 17:57:02.
