data_PCOD9533700
_publ_section_title
;
Structure prediction by ZEFSAII (Michael W. Deem and Ramdas Pophale) SiO2 
 PCOD9533700
Probable space group: I B C A 
;
_chemical_formula_sum "Si O2"
_cell_formula_units_Z 72
_cell_length_a 20.740873
_cell_length_b 16.447374
_cell_length_c 9.341780
_cell_angle_alpha 90.000000
_cell_angle_beta 90.000000
_cell_angle_gamma 90.000000
_cell_volume 3186.788459
_symmetry_space_group_name_H-M "I B C A "
_symmetry_group_IT_number 73
_symmetry_cell_setting 'orthorhombic'
loop_
_space_group_symop_operation_xyz
x,y,z
-x,1/2-y,z
x,-y,1/2-z
1/2-x,y,-z
-x,-y,-z
x,1/2+y,-z
-x,y,1/2+z
1/2+x,-y,z
1/2+x,1/2+y,1/2+z
1/2-x,-y,1/2+z
1/2+x,1/2-y,-z
-x,1/2+y,1/2-z
1/2-x,1/2-y,1/2-z
1/2+x,y,1/2-z
1/2-x,1/2+y,z
x,1/2-y,1/2+z
loop_
_atom_site_type_symbol
_atom_site_label
_atom_site_fract_x
_atom_site_fract_y
_atom_site_fract_z
Si Si1 0.934063 0.708818 0.412501
Si Si2 0.432489 0.516715 0.077793
Si Si3 0.160517 0.427986 0.150987
Si Si4 0.750000 0.205168 0.000000
Si Si5 0.637158 0.718654 0.324480
O O1 0.930828 0.613600 0.431639
O O2 0.917265 0.747432 0.564661
O O3 0.873583 0.726542 0.312112
O O4 0.000000 0.750000 0.360315
O O5 0.429913 0.500000 0.250000
O O6 0.500000 0.500000 0.000000
O O7 0.379538 0.467364 0.981297
O O8 0.188894 0.500000 0.250000
O O9 0.209155 0.359634 0.093578
O O10 0.122104 0.372126 0.266403
O O11 0.704288 0.261877 0.097882
#
# Coordination Sequence:
#
# PCOD9533700 Si02
#       5
#    16  16  16   8  16
#     4  12  27  45  80 109 156 202 259 315 399 469
#     4  12  28  47  75 111 156 196 252 321 392 461
#     4  12  26  49  74 111 150 197 258 324 381 458
#     4  12  28  48  80 108 156 212 268 312 396 464
#     4  12  26  50  75 111 152 205 261 320 382 470
#
# _framework density 22.59328
#
# number of rings (size 3 to 8) (size 9 to 14) (size 15 to 20)
#    0.000    0.000    4.444    4.667    6.222    3.556 
#    0.000    0.000    0.000    0.000    0.000    0.000 
#    0.000    0.000    0.000    0.000    0.000    0.000 
#
# Total GULP energy -200764.938441 kJ/mol
# GULP energy per Si atom -5576.803846 kJ/mol
# Density = 2.254186 g / cm^3
# Si number density = 22.593280 Si / 1000 Ang^3
#
#
#
# Elastic Constant Matrix: (Units=GPa)
#
#
# Indices 1 2 3 4 5 6 
#
# 1 75.2915 33.3081 54.4047 0.0000 0.0000 0.0000
# 2 33.3081 126.3388 51.3506 0.0000 0.0000 0.0000
# 3 54.4047 51.3506 169.4035 0.0000 0.0000 0.0000
# 4 0.0000 0.0000 0.0000 39.0017 0.0000 0.0000
# 5 0.0000 0.0000 0.0000 0.0000 43.4071 0.0000
# 6 0.0000 0.0000 0.0000 0.0000 0.0000 33.4198
#
#
#
# Elastic Compliance Matrix: (Units=1/GPa)
#
#
# Indices 1 2 3 4 5 6 
#
# 1 0.018094 -0.002747 -0.004978 0.000000 0.000000 0.000000
# 2 -0.002747 0.009444 -0.001981 0.000000 0.000000 0.000000
# 3 -0.004978 -0.001981 0.008102 0.000000 0.000000 0.000000
# 4 0.000000 0.000000 0.000000 0.025640 0.000000 0.000000
# 5 0.000000 0.000000 0.000000 0.000000 0.023038 0.000000
# 6 0.000000 0.000000 0.000000 0.000000 0.000000 0.029922
#
#
# Mechanical properties :
#
#
# Convention : Reuss Voigt Hill
#
# Bulk Modulus (GPa) = 61.61792 72.12896 66.87344
# Shear Modulus (GPa) = 35.95500 38.63040 37.29270
#
# Velocity S-wave (km/s) = 3.99357 4.13948 4.06718
# Velocity P-wave (km/s) = 6.97113 7.40549 7.19159
#
# Compressibility (1/GPa) = 0.01622905
#
# Stress axis : x y z
#
# Youngs Moduli (GPa) = 55.26615 105.88195 123.42185
#
# Poissons Ratio (x) = 0.29085 0.61444
# Poissons Ratio (y) = 0.15181 0.24446
# Poissons Ratio (z) = 0.27514 0.20972
#
# Static dielectric constant tensor:
#      x y z
#    x 1.956000 0.000000 0.000000 
#    y 0.000000 2.288150 0.000000 
#    z 0.000000 0.000000 1.993590 
# 
# From -- ./inp_files/5990.got.cif
#   From: 2010.05.17/outbox.cif.g08.bks.cpg/sg73_3_cif.got.tgz:5990.got - 2010.06.03 17:35:07.
