data_PCOD9533071
_publ_section_title
;
Structure prediction by ZEFSAII (Michael W. Deem and Ramdas Pophale) SiO2 
 PCOD9533071
Probable space group: I B C A 
;
_chemical_formula_sum "Si O2"
_cell_formula_units_Z 80
_cell_length_a 12.996705
_cell_length_b 21.444691
_cell_length_c 11.675674
_cell_angle_alpha 90.000000
_cell_angle_beta 90.000000
_cell_angle_gamma 90.000000
_cell_volume 3254.130869
_symmetry_space_group_name_H-M "I B C A "
_symmetry_group_IT_number 73
_symmetry_cell_setting 'orthorhombic'
loop_
_space_group_symop_operation_xyz
x,y,z
-x,1/2-y,z
x,-y,1/2-z
1/2-x,y,-z
-x,-y,-z
x,1/2+y,-z
-x,y,1/2+z
1/2+x,-y,z
1/2+x,1/2+y,1/2+z
1/2-x,-y,1/2+z
1/2+x,1/2-y,-z
-x,1/2+y,1/2-z
1/2-x,1/2-y,1/2-z
1/2+x,y,1/2-z
1/2-x,1/2+y,z
x,1/2-y,1/2+z
loop_
_atom_site_type_symbol
_atom_site_label
_atom_site_fract_x
_atom_site_fract_y
_atom_site_fract_z
Si Si1 0.663904 0.756320 0.085490
Si Si2 0.346657 0.445270 0.573253
Si Si3 0.140200 0.158487 0.755084
Si Si4 0.500000 0.750000 0.908018
Si Si5 0.004642 0.500000 0.750000
Si Si6 0.442850 0.617613 0.142753
O O1 0.703337 0.705712 0.175991
O O2 0.609609 0.814255 0.149278
O O3 0.750000 0.781568 0.000000
O O4 0.583829 0.724291 0.997748
O O5 0.250000 0.471523 0.500000
O O6 0.307762 0.393353 0.665586
O O7 0.426982 0.487571 0.643330
O O8 0.413646 0.407658 0.481009
O O9 0.062557 0.200435 0.832770
O O10 0.063200 0.125383 0.667819
O O11 0.076695 0.560338 0.769809
#
# Coordination Sequence:
#
# PCOD9533071 Si02
#       6
#    16  16  16   8   8  16
#     4  12  24  39  67 108 143 182 227 281 345 426
#     4  11  24  44  69  99 135 174 236 297 339 416
#     4  11  22  41  67  97 144 188 217 272 360 419
#     4  12  20  40  66  98 150 184 216 278 342 438
#     4  10  26  44  72  92 130 188 238 286 366 392
#     4  11  21  43  65  97 130 186 228 286 338 415
#
# _framework density 24.584136999999998
#
# number of rings (size 3 to 8) (size 9 to 14) (size 15 to 20)
#    0.000    0.800    6.000    1.200    0.000    3.200 
#    0.000    4.000    0.000    0.000    0.000    0.000 
#    0.000    0.000    0.000    0.000    0.000    0.000 
#
# Total GULP energy -223307.611056 kJ/mol
# GULP energy per Si atom -5582.690276 kJ/mol
# Density = 2.452818 g / cm^3
# Si number density = 24.584137 Si / 1000 Ang^3
#
#
#
# Elastic Constant Matrix: (Units=GPa)
#
#
# Indices 1 2 3 4 5 6 
#
# 1 64.8519 3.2663 39.6370 0.0000 0.0000 0.0000
# 2 3.2663 99.3113 32.0632 0.0001 0.0000 0.0000
# 3 39.6370 32.0632 93.5721 0.0001 0.0000 0.0000
# 4 0.0000 0.0001 0.0001 50.8534 0.0000 0.0000
# 5 0.0000 0.0000 0.0000 0.0000 43.3346 0.0000
# 6 0.0000 0.0000 0.0000 0.0000 0.0000 22.8798
#
#
#
# Elastic Compliance Matrix: (Units=1/GPa)
#
#
# Indices 1 2 3 4 5 6 
#
# 1 0.021342 0.002493 -0.009894 0.000000 0.000000 0.000000
# 2 0.002493 0.011613 -0.005035 0.000000 0.000000 0.000000
# 3 -0.009894 -0.005035 0.016604 0.000000 0.000000 0.000000
# 4 0.000000 0.000000 0.000000 0.019664 0.000000 0.000000
# 5 0.000000 0.000000 0.000000 0.000000 0.023076 0.000000
# 6 0.000000 0.000000 0.000000 0.000000 0.000000 0.043707
#
#
# Mechanical properties :
#
#
# Convention : Reuss Voigt Hill
#
# Bulk Modulus (GPa) = 40.51174 45.29649 42.90412
# Shear Modulus (GPa) = 29.56705 35.59816 32.58260
#
# Velocity S-wave (km/s) = 3.47174 3.80941 3.64449
# Velocity P-wave (km/s) = 5.70835 6.14930 5.93292
#
# Compressibility (1/GPa) = 0.02468420
#
# Stress axis : x y z
#
# Youngs Moduli (GPa) = 46.85692 86.11044 60.22825
#
# Poissons Ratio (x) = -0.21463 0.59592
# Poissons Ratio (y) = -0.11679 0.30326
# Poissons Ratio (z) = 0.46362 0.43358
#
# Static dielectric constant tensor:
#      x y z
#    x 2.008160 0.000000 0.000000 
#    y 0.000000 2.064320 0.000000 
#    z 0.000000 0.000000 1.940860 
# 
# From -- ./inp_files/10882.got.cif
#   From: 2010.05.17/outbox.cif.g08.bks.cpg/sg73_6_cif.got.tgz:10882.got - 2010.06.03 17:35:07.
