data_PCOD9533063
_publ_section_title
;
Structure prediction by ZEFSAII (Michael W. Deem and Ramdas Pophale) SiO2 
 PCOD9533063
Probable space group: I B C A 
;
_chemical_formula_sum "Si O2"
_cell_formula_units_Z 80
_cell_length_a 11.383714
_cell_length_b 20.802136
_cell_length_c 16.727017
_cell_angle_alpha 90.000000
_cell_angle_beta 90.000000
_cell_angle_gamma 90.000000
_cell_volume 3961.050742
_symmetry_space_group_name_H-M "I B C A "
_symmetry_group_IT_number 73
_symmetry_cell_setting 'orthorhombic'
loop_
_space_group_symop_operation_xyz
x,y,z
-x,1/2-y,z
x,-y,1/2-z
1/2-x,y,-z
-x,-y,-z
x,1/2+y,-z
-x,y,1/2+z
1/2+x,-y,z
1/2+x,1/2+y,1/2+z
1/2-x,-y,1/2+z
1/2+x,1/2-y,-z
-x,1/2+y,1/2-z
1/2-x,1/2-y,1/2-z
1/2+x,y,1/2-z
1/2-x,1/2+y,z
x,1/2-y,1/2+z
loop_
_atom_site_type_symbol
_atom_site_label
_atom_site_fract_x
_atom_site_fract_y
_atom_site_fract_z
Si Si1 0.508525 0.500000 0.750000
Si Si2 0.048490 0.678682 0.608930
Si Si3 0.797001 0.614978 0.587282
Si Si4 0.321248 0.473605 0.872103
Si Si5 0.250000 0.122747 0.500000
Si Si6 0.677317 0.383250 0.750893
O O1 0.431909 0.505065 0.829200
O O2 0.580904 0.436871 0.768572
O O3 0.155755 0.663297 0.549279
O O4 0.109540 0.667205 0.695198
O O5 0.000000 0.750000 0.600709
O O6 0.935517 0.632669 0.593112
O O7 0.750000 0.636552 0.500000
O O8 0.761639 0.539065 0.596254
O O9 0.737335 0.642919 0.668685
O O10 0.264727 0.427784 0.803279
O O11 0.327548 0.424610 0.944674
#
# Coordination Sequence:
#
# PCOD9533063 Si02
#       6
#     8  16  16  16   8  16
#     4  12  18  34  66  96 136 170 220 276 354 422
#     4  11  27  48  68  96 140 192 239 285 344 434
#     4  12  24  40  67 105 136 175 229 295 356 411
#     4  11  20  36  63  99 136 172 220 286 358 415
#     4  10  26  42  66 102 140 180 234 302 362 410
#     4  11  22  41  65  99 134 182 227 283 350 426
#
# _framework density 20.196662
#
# number of rings (size 3 to 8) (size 9 to 14) (size 15 to 20)
#    0.000    0.800    7.000    0.000    4.200    1.600 
#    0.000    1.000    0.000    0.000    0.000    0.000 
#    0.000    0.000    0.000    0.000    0.000    0.000 
#
# Total GULP energy -222709.936343 kJ/mol
# GULP energy per Si atom -5567.748409 kJ/mol
# Density = 2.015069 g / cm^3
# Si number density = 20.196662 Si / 1000 Ang^3
#
#
#
# Elastic Constant Matrix: (Units=GPa)
#
#
# Indices 1 2 3 4 5 6 
#
# 1 96.1391 31.2807 60.9569 0.0000 0.0000 0.0000
# 2 31.2807 91.3150 33.0412 0.0000 0.0000 0.0000
# 3 60.9569 33.0412 141.9836 0.0000 0.0000 0.0000
# 4 0.0000 0.0000 0.0000 7.9951 0.0000 0.0000
# 5 0.0000 0.0000 0.0000 0.0000 43.7909 0.0000
# 6 0.0000 0.0000 0.0000 0.0000 0.0000 28.8932
#
#
#
# Elastic Compliance Matrix: (Units=1/GPa)
#
#
# Indices 1 2 3 4 5 6 
#
# 1 0.015043 -0.003075 -0.005743 0.000000 0.000000 0.000000
# 2 -0.003075 0.012587 -0.001609 0.000000 0.000000 0.000000
# 3 -0.005743 -0.001609 0.009883 0.000000 0.000000 0.000000
# 4 0.000000 0.000000 0.000000 0.125076 0.000000 0.000000
# 5 0.000000 0.000000 0.000000 0.000000 0.022836 0.000000
# 6 0.000000 0.000000 0.000000 0.000000 0.000000 0.034610
#
#
# Mechanical properties :
#
#
# Convention : Reuss Voigt Hill
#
# Bulk Modulus (GPa) = 60.02651 64.44393 62.23522
# Shear Modulus (GPa) = 20.28873 29.74644 25.01759
#
# Velocity S-wave (km/s) = 3.17292 3.84192 3.52333
# Velocity P-wave (km/s) = 6.57333 7.18735 6.88719
#
# Compressibility (1/GPa) = 0.01665931
#
# Stress axis : x y z
#
# Youngs Moduli (GPa) = 66.47415 79.44908 101.18390
#
# Poissons Ratio (x) = 0.24433 0.58108
# Poissons Ratio (y) = 0.20443 0.16278
# Poissons Ratio (z) = 0.38175 0.12782
#
# Static dielectric constant tensor:
#      x y z
#    x 1.798900 0.000000 0.000000 
#    y 0.000000 1.695330 0.000000 
#    z 0.000000 0.000000 1.780690 
# 
# From -- ./inp_files/16071.got.cif
#   From: 2010.05.17/outbox.cif.g08.bks.cpg/sg73_9_cif.got.tgz:16071.got - 2010.06.03 17:35:07.
