data_PCOD9533891
_publ_section_title
;
Structure prediction by ZEFSAII (Michael W. Deem and Ramdas Pophale) SiO2 
 PCOD9533891
Probable space group: I M M A
;
_chemical_formula_sum "Si O2"
_cell_formula_units_Z 80
_cell_length_a 11.744426
_cell_length_b 22.151475
_cell_length_c 20.827409
_cell_angle_alpha 90.000000
_cell_angle_beta 90.000000
_cell_angle_gamma 90.000000
_cell_volume 5418.382891
_symmetry_space_group_name_H-M "I M M A"
_symmetry_group_IT_number 74
_symmetry_cell_setting 'orthorhombic'
loop_
_space_group_symop_operation_xyz
x,y,z
-x,1/2-y,z
x,-y,-z
-x,1/2+y,-z
-x,-y,-z
x,1/2+y,-z
-x,y,z
x,1/2-y,z
1/2+x,1/2+y,1/2+z
1/2-x,-y,1/2+z
1/2+x,1/2-y,1/2-z
1/2-x,y,1/2-z
1/2-x,1/2-y,1/2-z
1/2+x,y,1/2-z
1/2-x,1/2+y,1/2+z
1/2+x,-y,1/2+z
loop_
_atom_site_type_symbol
_atom_site_label
_atom_site_fract_x
_atom_site_fract_y
_atom_site_fract_z
Si Si1 0.702033 0.401736 0.478577
Si Si2 0.500000 0.318232 0.630549
Si Si3 0.500000 0.317953 0.475116
Si Si4 0.863407 0.012930 0.902628
Si Si5 0.136216 0.678501 0.436804
Si Si6 0.226729 0.115919 0.824829
O O1 0.611148 0.353483 0.454685
O O2 0.648482 0.438929 0.538800
O O3 0.706262 0.453788 0.424915
O O4 0.806483 0.363181 0.507644
O O5 0.500000 0.250000 0.652963
O O6 0.500000 0.318237 0.553170
O O7 0.610857 0.350519 0.656307
O O8 0.500000 0.250000 0.452672
O O9 0.000000 0.001839 0.893458
O O10 0.800315 0.046857 0.844707
O O11 0.172317 0.750000 0.439910
O O12 0.179186 0.647609 0.370489
O O13 0.000000 0.676867 0.440899
O O14 0.250000 0.122070 0.750000
#
# Coordination Sequence:
#
# PCOD9533891 Si02
#       6
#    16   8   8  16  16  16
#     4  10  16  28  47  70  90 117 154 190 238 284
#     4  11  20  31  47  67  93 125 163 202 235 267
#     4  11  16  24  46  74  98 114 141 192 241 281
#     4  10  16  30  49  68  88 120 155 197 242 273
#     4  10  21  34  46  65  99 134 158 188 232 282
#     4  11  22  34  47  66  93 126 170 204 229 266
#
# _framework density 14.764552
#
# number of rings (size 3 to 8) (size 9 to 14) (size 15 to 20)
#    0.000    1.600    7.000    1.800    1.400    1.600 
#    0.000    8.000    0.000    0.000    0.000    0.000 
#    0.000    3.200    1.200    0.000    0.000    0.000 
#
# Total GULP energy -222691.353468 kJ/mol
# GULP energy per Si atom -5567.283837 kJ/mol
# Density = 1.473095 g / cm^3
# Si number density = 14.764552 Si / 1000 Ang^3
#
#
#
# Elastic Constant Matrix: (Units=GPa)
#
#
# Indices 1 2 3 4 5 6 
#
# 1 71.0577 41.9210 18.7990 0.0000 0.0000 0.0000
# 2 41.9210 126.1590 39.1005 0.0000 0.0000 0.0000
# 3 18.7990 39.1005 33.0929 0.0000 0.0000 0.0000
# 4 0.0000 0.0000 0.0000 15.2280 0.0000 0.0000
# 5 0.0000 0.0000 0.0000 0.0000 5.3196 0.0000
# 6 0.0000 0.0000 0.0000 0.0000 0.0000 32.9989
#
#
#
# Elastic Compliance Matrix: (Units=1/GPa)
#
#
# Indices 1 2 3 4 5 6 
#
# 1 0.018011 -0.004440 -0.004986 0.000000 0.000000 0.000000
# 2 -0.004440 0.013600 -0.013547 0.000000 0.000000 0.000000
# 3 -0.004986 -0.013547 0.049057 0.000000 0.000000 0.000000
# 4 0.000000 0.000000 0.000000 0.065668 0.000000 0.000000
# 5 0.000000 0.000000 0.000000 0.000000 0.187985 0.000000
# 6 0.000000 0.000000 0.000000 0.000000 0.000000 0.030304
#
#
# Mechanical properties :
#
#
# Convention : Reuss Voigt Hill
#
# Bulk Modulus (GPa) = 28.79964 47.77228 38.28596
# Shear Modulus (GPa) = 11.84422 19.40858 15.62640
#
# Velocity S-wave (km/s) = 2.83540 3.62959 3.25679
# Velocity P-wave (km/s) = 5.50160 7.07047 6.33479
#
# Compressibility (1/GPa) = 0.03472266
#
# Stress axis : x y z
#
# Youngs Moduli (GPa) = 55.52047 73.52673 20.38436
#
# Poissons Ratio (x) = 0.32643 0.10164
# Poissons Ratio (y) = 0.24649 0.27616
# Poissons Ratio (z) = 0.27683 0.99610
#
# Static dielectric constant tensor:
#      x y z
#    x 1.484790 0.000000 0.000000 
#    y 0.000000 1.541470 0.000000 
#    z 0.000000 0.000000 1.483000 
# 
# From -- ./inp_files/66274.got.cif
#   From: 2010.05.17/outbox.cif.g08.bks.cpg/sg74_34_cif.got.tgz:66274.got - 2010.06.03 17:57:02.
