data_PCOD9533874
_publ_section_title
;
Structure prediction by ZEFSAII (Michael W. Deem and Ramdas Pophale) SiO2 
 PCOD9533874
Probable space group: I M M A
;
_chemical_formula_sum "Si O2"
_cell_formula_units_Z 80
_cell_length_a 25.789823
_cell_length_b 10.811475
_cell_length_c 17.123966
_cell_angle_alpha 90.000000
_cell_angle_beta 90.000000
_cell_angle_gamma 90.000000
_cell_volume 4774.607400
_symmetry_space_group_name_H-M "I M M A"
_symmetry_group_IT_number 74
_symmetry_cell_setting 'orthorhombic'
loop_
_space_group_symop_operation_xyz
x,y,z
-x,1/2-y,z
x,-y,-z
-x,1/2+y,-z
-x,-y,-z
x,1/2+y,-z
-x,y,z
x,1/2-y,z
1/2+x,1/2+y,1/2+z
1/2-x,-y,1/2+z
1/2+x,1/2-y,1/2-z
1/2-x,y,1/2-z
1/2-x,1/2-y,1/2-z
1/2+x,y,1/2-z
1/2-x,1/2+y,1/2+z
1/2+x,-y,1/2+z
loop_
_atom_site_type_symbol
_atom_site_label
_atom_site_fract_x
_atom_site_fract_y
_atom_site_fract_z
Si Si1 0.307735 0.750000 0.219320
Si Si2 0.061925 0.893931 0.645691
Si Si3 0.895837 0.441051 0.764293
Si Si4 0.656995 0.750000 0.051450
Si Si5 0.878337 0.500000 0.500000
Si Si6 0.437656 0.605209 0.435797
Si Si7 0.444970 0.750000 0.154198
O O1 0.250000 0.750000 0.250000
O O2 0.342014 0.869337 0.246048
O O3 0.305722 0.750000 0.125590
O O4 0.069236 0.750000 0.625372
O O5 0.085411 0.975280 0.575096
O O6 0.000000 0.912453 0.655478
O O7 0.094904 0.927210 0.723646
O O8 0.909888 0.428884 0.854470
O O9 0.937303 0.363100 0.713210
O O10 0.657400 0.878704 0.006894
O O11 0.600098 0.750000 0.091717
O O12 0.424747 0.500000 0.500000
O O13 0.500000 0.599880 0.424073
O O14 0.425479 0.750000 0.456054
O O15 0.500000 0.750000 0.114597
#
# Coordination Sequence:
#
# PCOD9533874 Si02
#       7
#     8  16  16   8   8  16   8
#     4  10  20  38  64  80  89 124 198 249 288 321
#     4  11  22  31  47  80 121 160 186 210 251 321
#     4  10  19  34  53  75 101 140 179 231 275 318
#     4  10  22  32  54  80 107 152 182 232 275 316
#     4  12  19  34  48  78 120 152 190 214 257 314
#     4  10  19  31  51  78 108 141 175 213 265 334
#     4  10  16  26  48  72  97 134 187 215 243 309
#
# _framework density 16.755305
#
# number of rings (size 3 to 8) (size 9 to 14) (size 15 to 20)
#    0.000    1.800    7.000    2.100    0.000    1.600 
#    0.000    2.000    2.200    0.600    0.000    0.000 
#    0.000    0.000    0.000    0.000    0.000    0.000 
#
# Total GULP energy -222726.318156 kJ/mol
# GULP energy per Si atom -5568.157954 kJ/mol
# Density = 1.671717 g / cm^3
# Si number density = 16.755305 Si / 1000 Ang^3
#
#
#
# Elastic Constant Matrix: (Units=GPa)
#
#
# Indices 1 2 3 4 5 6 
#
# 1 66.9562 22.1945 17.4216 0.0000 0.0000 0.0000
# 2 22.1945 111.0833 44.7535 0.0000 0.0000 0.0000
# 3 17.4216 44.7535 87.2810 0.0000 0.0000 0.0000
# 4 0.0000 0.0000 0.0000 27.2592 0.0000 0.0000
# 5 0.0000 0.0000 0.0000 0.0000 3.9804 0.0000
# 6 0.0000 0.0000 0.0000 0.0000 0.0000 9.4124
#
#
#
# Elastic Compliance Matrix: (Units=1/GPa)
#
#
# Indices 1 2 3 4 5 6 
#
# 1 0.016265 -0.002447 -0.001992 0.000000 0.000000 0.000000
# 2 -0.002447 0.011714 -0.005518 0.000000 0.000000 0.000000
# 3 -0.001992 -0.005518 0.014684 0.000000 0.000000 0.000000
# 4 0.000000 0.000000 0.000000 0.036685 0.000000 0.000000
# 5 0.000000 0.000000 0.000000 0.000000 0.251229 0.000000
# 6 0.000000 0.000000 0.000000 0.000000 0.000000 0.106243
#
#
# Mechanical properties :
#
#
# Convention : Reuss Voigt Hill
#
# Bulk Modulus (GPa) = 43.95768 48.22887 46.09327
# Shear Modulus (GPa) = 10.76850 20.19379 15.48114
#
# Velocity S-wave (km/s) = 2.53789 3.47539 3.04296
# Velocity P-wave (km/s) = 5.90592 6.70456 6.31787
#
# Compressibility (1/GPa) = 0.02274915
#
# Stress axis : x y z
#
# Youngs Moduli (GPa) = 61.48332 85.36542 68.10054
#
# Poissons Ratio (x) = 0.20891 0.13563
# Poissons Ratio (y) = 0.15047 0.37578
# Poissons Ratio (z) = 0.12245 0.47105
#
# Static dielectric constant tensor:
#      x y z
#    x 1.534140 0.000000 0.000000 
#    y 0.000000 1.707070 0.000000 
#    z 0.000000 0.000000 1.578050 
# 
# From -- ./inp_files/37181.got.cif
#   From: 2010.05.17/outbox.cif.g08.bks.cpg/sg74_19_cif.got.tgz:37181.got - 2010.06.03 17:57:02.
