data_PCOD9533508
_publ_section_title
;
Structure prediction by ZEFSAII (Michael W. Deem and Ramdas Pophale) SiO2 
 PCOD9533508
Probable space group: I B C A 
;
_chemical_formula_sum "Si O2"
_cell_formula_units_Z 64
_cell_length_a 13.710667
_cell_length_b 8.346828
_cell_length_c 22.299294
_cell_angle_alpha 90.000000
_cell_angle_beta 90.000000
_cell_angle_gamma 90.000000
_cell_volume 2551.944121
_symmetry_space_group_name_H-M "I B C A "
_symmetry_group_IT_number 73
_symmetry_cell_setting 'orthorhombic'
loop_
_space_group_symop_operation_xyz
x,y,z
-x,1/2-y,z
x,-y,1/2-z
1/2-x,y,-z
-x,-y,-z
x,1/2+y,-z
-x,y,1/2+z
1/2+x,-y,z
1/2+x,1/2+y,1/2+z
1/2-x,-y,1/2+z
1/2+x,1/2-y,-z
-x,1/2+y,1/2-z
1/2-x,1/2-y,1/2-z
1/2+x,y,1/2-z
1/2-x,1/2+y,z
x,1/2-y,1/2+z
loop_
_atom_site_type_symbol
_atom_site_label
_atom_site_fract_x
_atom_site_fract_y
_atom_site_fract_z
Si Si1 0.271245 0.456961 0.180721
Si Si2 0.382014 0.760483 0.906265
Si Si3 0.389455 0.941996 0.513097
Si Si4 0.612207 0.244826 0.872320
O O1 0.259005 0.500000 0.250000
O O2 0.336752 0.303534 0.158267
O O3 0.331592 0.606664 0.156392
O O4 0.167218 0.411577 0.151545
O O5 0.500000 0.750000 0.901746
O O6 0.349869 0.912762 0.947232
O O7 0.651429 0.885317 0.949237
O O8 0.386828 0.786530 0.556838
O O9 0.500000 0.000000 0.500000
O O10 0.500000 0.250000 0.854044
#
# Coordination Sequence:
#
# PCOD9533508 Si02
#       4
#    16  16  16  16
#     4  11  26  45  66  99 141 191 253 300 359 459
#     4   9  19  37  66 101 140 184 231 299 370 436
#     4   9  18  37  65 102 139 174 230 295 367 451
#     4  11  25  45  70 100 140 187 240 311 377 437
#
# _framework density 25.078918000000002
#
# number of rings (size 3 to 8) (size 9 to 14) (size 15 to 20)
#    0.000    2.000    0.000    3.000    0.000   11.000 
#    0.000    7.500    0.000    0.000    0.000    0.000 
#    0.000    0.000    0.000    0.000    0.000    0.000 
#
# Total GULP energy -178750.042691 kJ/mol
# GULP energy per Si atom -5585.938834 kJ/mol
# Density = 2.502184 g / cm^3
# Si number density = 25.078918 Si / 1000 Ang^3
#
#
#
# Elastic Constant Matrix: (Units=GPa)
#
#
# Indices 1 2 3 4 5 6 
#
# 1 179.6903 62.8371 70.9071 0.0000 0.0000 0.0000
# 2 62.8371 109.8762 84.9027 0.0000 0.0000 0.0000
# 3 70.9071 84.9027 204.5082 0.0000 0.0000 0.0000
# 4 0.0000 0.0000 0.0000 49.7025 0.0000 0.0000
# 5 0.0000 0.0000 0.0000 0.0000 40.0096 0.0000
# 6 0.0000 0.0000 0.0000 0.0000 0.0000 51.7218
#
#
#
# Elastic Compliance Matrix: (Units=1/GPa)
#
#
# Indices 1 2 3 4 5 6 
#
# 1 0.007135 -0.003193 -0.001148 0.000000 0.000000 0.000000
# 2 -0.003193 0.014829 -0.005049 0.000000 0.000000 0.000000
# 3 -0.001148 -0.005049 0.007384 0.000000 0.000000 0.000000
# 4 0.000000 0.000000 0.000000 0.020120 0.000000 0.000000
# 5 0.000000 0.000000 0.000000 0.000000 0.024994 0.000000
# 6 0.000000 0.000000 0.000000 0.000000 0.000000 0.019334
#
#
# Mechanical properties :
#
#
# Convention : Reuss Voigt Hill
#
# Bulk Modulus (GPa) = 94.63575 103.48540 99.06058
# Shear Modulus (GPa) = 43.06679 46.64864 44.85771
#
# Velocity S-wave (km/s) = 4.14847 4.31754 4.23385
# Velocity P-wave (km/s) = 7.79509 8.13685 7.96780
#
# Compressibility (1/GPa) = 0.01056683
#
# Stress axis : x y z
#
# Youngs Moduli (GPa) = 140.15746 67.43622 135.42733
#
# Poissons Ratio (x) = 0.21534 0.15549
# Poissons Ratio (y) = 0.44755 0.68379
# Poissons Ratio (z) = 0.16092 0.34049
#
# Static dielectric constant tensor:
#      x y z
#    x 2.004200 0.000000 0.000000 
#    y 0.000000 2.122120 0.000000 
#    z 0.000000 0.000000 2.007590 
# 
# From -- ./inp_files/28705.got.cif
#   From: 2010.05.17/outbox.cif.g08.bks.cpg/sg73_15_cif.got.tgz:28705.got - 2010.06.03 17:35:07.
