data_PCOD9533262
_publ_section_title
;
Structure prediction by ZEFSAII (Michael W. Deem and Ramdas Pophale) SiO2 
 PCOD9533262
Probable space group: I B C A 
;
_chemical_formula_sum "Si O2"
_cell_formula_units_Z 88
_cell_length_a 9.600148
_cell_length_b 18.767141
_cell_length_c 21.743700
_cell_angle_alpha 90.000000
_cell_angle_beta 90.000000
_cell_angle_gamma 90.000000
_cell_volume 3917.504398
_symmetry_space_group_name_H-M "I B C A "
_symmetry_group_IT_number 73
_symmetry_cell_setting 'orthorhombic'
loop_
_space_group_symop_operation_xyz
x,y,z
-x,1/2-y,z
x,-y,1/2-z
1/2-x,y,-z
-x,-y,-z
x,1/2+y,-z
-x,y,1/2+z
1/2+x,-y,z
1/2+x,1/2+y,1/2+z
1/2-x,-y,1/2+z
1/2+x,1/2-y,-z
-x,1/2+y,1/2-z
1/2-x,1/2-y,1/2-z
1/2+x,y,1/2-z
1/2-x,1/2+y,z
x,1/2-y,1/2+z
loop_
_atom_site_type_symbol
_atom_site_label
_atom_site_fract_x
_atom_site_fract_y
_atom_site_fract_z
Si Si1 0.795366 0.860852 0.599594
Si Si2 0.750000 0.588517 0.500000
Si Si3 0.970534 0.166235 0.024046
Si Si4 0.839103 0.767152 0.189124
Si Si5 0.932320 0.011552 0.821444
Si Si6 0.205225 0.075068 0.866552
O O1 0.902411 0.848937 0.543022
O O2 0.641860 0.867472 0.570537
O O3 0.792836 0.788697 0.637953
O O4 0.852985 0.923074 0.643949
O O5 0.622547 0.633205 0.526193
O O6 0.687765 0.554190 0.438492
O O7 0.000000 0.250000 0.032810
O O8 0.750000 0.750000 0.250000
O O9 0.826261 0.845378 0.158125
O O10 0.000000 0.750000 0.203476
O O11 0.094868 0.025621 0.831060
O O12 0.903128 0.000000 0.750000
O O13 0.864227 0.942543 0.851519
#
# Coordination Sequence:
#
# PCOD9533262 Si02
#       6
#    16   8  16  16  16  16
#     4  11  24  47  74 109 147 202 251 323 393 473
#     4  12  24  44  72 110 150 188 254 314 384 472
#     4  11  22  41  76 112 155 191 248 322 406 474
#     4  12  25  47  76 109 150 194 270 328 389 460
#     4  12  27  51  73 103 151 205 261 311 383 463
#     4  12  28  47  76 109 151 204 253 320 389 467
#
# _framework density 22.463279
#
# number of rings (size 3 to 8) (size 9 to 14) (size 15 to 20)
#    0.000    0.364    3.636    5.455    2.545    4.364 
#    0.000    0.000    0.000    0.000    0.000    0.000 
#    0.000    0.000    0.000    0.000    0.000    0.000 
#
# Total GULP energy -245916.569285 kJ/mol
# GULP energy per Si atom -5589.012938 kJ/mol
# Density = 2.241215 g / cm^3
# Si number density = 22.463279 Si / 1000 Ang^3
#
#
#
# Elastic Constant Matrix: (Units=GPa)
#
#
# Indices 1 2 3 4 5 6 
#
# 1 119.2461 37.0776 43.2284 0.0000 0.0000 0.0000
# 2 37.0776 64.8157 34.8695 0.0000 0.0000 0.0000
# 3 43.2284 34.8695 146.2024 0.0000 0.0000 0.0000
# 4 0.0000 0.0000 0.0000 1.4853 0.0000 0.0000
# 5 0.0000 0.0000 0.0000 0.0000 29.3540 0.0000
# 6 0.0000 0.0000 0.0000 0.0000 0.0000 56.8895
#
#
#
# Elastic Compliance Matrix: (Units=1/GPa)
#
#
# Indices 1 2 3 4 5 6 
#
# 1 0.010663 -0.005052 -0.001948 0.000000 0.000000 0.000000
# 2 -0.005052 0.020093 -0.003298 0.000000 0.000000 0.000000
# 3 -0.001948 -0.003298 0.008202 0.000000 0.000000 0.000000
# 4 0.000000 0.000000 0.000000 0.673264 0.000000 0.000000
# 5 0.000000 0.000000 0.000000 0.000000 0.034067 0.000000
# 6 0.000000 0.000000 0.000000 0.000000 0.000000 0.017578
#
#
# Mechanical properties :
#
#
# Convention : Reuss Voigt Hill
#
# Bulk Modulus (GPa) = 54.46076 62.29058 58.37567
# Shear Modulus (GPa) = 6.32444 31.88500 19.10472
#
# Velocity S-wave (km/s) = 1.67975 3.77162 2.91947
# Velocity P-wave (km/s) = 5.29708 6.83791 6.11621
#
# Compressibility (1/GPa) = 0.01836184
#
# Stress axis : x y z
#
# Youngs Moduli (GPa) = 93.78298 49.76931 121.91446
#
# Poissons Ratio (x) = 0.25142 0.23748
# Poissons Ratio (y) = 0.47377 0.40213
# Poissons Ratio (z) = 0.18268 0.16416
#
# Static dielectric constant tensor:
#      x y z
#    x 1.780360 0.000000 0.000000 
#    y 0.000000 1.881310 0.000000 
#    z 0.000000 0.000000 2.018030 
# 
# From -- ./inp_files/28326.got.cif
#   From: 2010.05.17/outbox.cif.g08.bks.cpg/sg73_15_cif.got.tgz:28326.got - 2010.06.03 17:35:07.
