data_PCOD9533106
_publ_section_title
;
Structure prediction by ZEFSAII (Michael W. Deem and Ramdas Pophale) SiO2 
 PCOD9533106
Probable space group: I B C A 
;
_chemical_formula_sum "Si O2"
_cell_formula_units_Z 64
_cell_length_a 20.526059
_cell_length_b 24.610032
_cell_length_c 4.892056
_cell_angle_alpha 90.000000
_cell_angle_beta 90.000000
_cell_angle_gamma 90.000000
_cell_volume 2471.207260
_symmetry_space_group_name_H-M "I B C A "
_symmetry_group_IT_number 73
_symmetry_cell_setting 'orthorhombic'
loop_
_space_group_symop_operation_xyz
x,y,z
-x,1/2-y,z
x,-y,1/2-z
1/2-x,y,-z
-x,-y,-z
x,1/2+y,-z
-x,y,1/2+z
1/2+x,-y,z
1/2+x,1/2+y,1/2+z
1/2-x,-y,1/2+z
1/2+x,1/2-y,-z
-x,1/2+y,1/2-z
1/2-x,1/2-y,1/2-z
1/2+x,y,1/2-z
1/2-x,1/2+y,z
x,1/2-y,1/2+z
loop_
_atom_site_type_symbol
_atom_site_label
_atom_site_fract_x
_atom_site_fract_y
_atom_site_fract_z
Si Si1 0.541289 0.164475 0.647302
Si Si2 0.122631 0.560097 0.116331
Si Si3 0.250000 0.122284 0.000000
Si Si4 0.839982 0.712736 0.290207
Si Si5 0.049424 0.500000 0.750000
O O1 0.479344 0.179203 0.454461
O O2 0.566884 0.102914 0.701163
O O3 0.597993 0.189007 0.458462
O O4 0.122795 0.500000 0.250000
O O5 0.193871 0.585609 0.135140
O O6 0.098998 0.549489 0.802734
O O7 0.211033 0.163951 0.189882
O O8 0.832781 0.733683 0.980939
O O9 0.000000 0.500000 0.500000
#
# Coordination Sequence:
#
# PCOD9533106 Si02
#       5
#    16  16   8  16   8
#     4  11  25  42  69 107 143 181 239 297 357 442
#     4  11  26  46  70 105 147 198 242 296 358 425
#     4  10  26  50  70 112 142 194 252 308 350 444
#     4  11  24  48  75 103 140 189 237 304 379 429
#     4  12  24  44  70 100 136 188 238 286 354 422
#
# _framework density 25.898274000000001
#
# number of rings (size 3 to 8) (size 9 to 14) (size 15 to 20)
#    0.000    1.000    1.250    3.750    5.250    3.000 
#    9.000    0.000    0.000    0.000    0.000    0.000 
#    0.000    0.000    0.000    0.000    0.000    0.000 
#
# Total GULP energy -178390.237272 kJ/mol
# GULP energy per Si atom -5574.694915 kJ/mol
# Density = 2.583933 g / cm^3
# Si number density = 25.898274 Si / 1000 Ang^3
#
#
#
# Elastic Constant Matrix: (Units=GPa)
#
#
# Indices 1 2 3 4 5 6 
#
# 1 127.4018 43.9683 29.9358 0.0000 0.0000 0.0000
# 2 43.9683 75.1335 12.3915 0.0000 0.0000 0.0000
# 3 29.9358 12.3915 139.3099 0.0000 0.0000 0.0000
# 4 0.0000 0.0000 0.0000 -27.3391 0.0000 0.0000
# 5 0.0000 0.0000 0.0000 0.0000 19.5129 0.0000
# 6 0.0000 0.0000 0.0000 0.0000 0.0000 33.5093
#
#
#
# Elastic Compliance Matrix: (Units=1/GPa)
#
#
# Indices 1 2 3 4 5 6 
#
# 1 0.010212 -0.005698 -0.001688 0.000000 0.000000 0.000000
# 2 -0.005698 0.016687 -0.000260 0.000000 0.000000 0.000000
# 3 -0.001688 -0.000260 0.007564 0.000000 0.000000 0.000000
# 4 0.000000 0.000000 0.000000 -0.036578 0.000000 0.000000
# 5 0.000000 0.000000 0.000000 0.000000 0.051248 0.000000
# 6 0.000000 0.000000 0.000000 0.000000 0.000000 0.029842
#
#
# Mechanical properties :
#
#
# Convention : Reuss Voigt Hill
#
# Bulk Modulus (GPa) = 52.15859 57.15963 54.65911
# Shear Modulus (GPa) = 49.67346 22.17327 35.92336
#
# Velocity S-wave (km/s) = 4.38427 2.92921 3.72841
# Velocity P-wave (km/s) = 6.76850 5.79302 6.29967
#
# Compressibility (1/GPa) = 0.01917230
#
# Stress axis : x y z
#
# Youngs Moduli (GPa) = 97.92272 59.92732 132.20505
#
# Poissons Ratio (x) = 0.34146 0.22311
# Poissons Ratio (y) = 0.55795 0.03436
# Poissons Ratio (z) = 0.16526 0.01558
#
# Static dielectric constant tensor:
#      x y z
#    x 2.099350 0.000000 0.000000 
#    y 0.000000 2.082210 0.000000 
#    z 0.000000 0.000000 2.112730 
# 
# From -- ./inp_files/1574.got.cif
#   From: 2010.05.17/outbox.cif.g08.bks.cpg/sg73_1_cif.got.tgz:1574.got - 2010.06.03 17:35:07.
