data_PCOD9533046
_publ_section_title
;
Structure prediction by ZEFSAII (Michael W. Deem and Ramdas Pophale) SiO2 
 PCOD9533046
Probable space group: I B C A 
;
_chemical_formula_sum "Si O2"
_cell_formula_units_Z 96
_cell_length_a 21.735534
_cell_length_b 8.635338
_cell_length_c 23.401313
_cell_angle_alpha 90.000000
_cell_angle_beta 90.000000
_cell_angle_gamma 90.000000
_cell_volume 4392.278617
_symmetry_space_group_name_H-M "I B C A "
_symmetry_group_IT_number 73
_symmetry_cell_setting 'orthorhombic'
loop_
_space_group_symop_operation_xyz
x,y,z
-x,1/2-y,z
x,-y,1/2-z
1/2-x,y,-z
-x,-y,-z
x,1/2+y,-z
-x,y,1/2+z
1/2+x,-y,z
1/2+x,1/2+y,1/2+z
1/2-x,-y,1/2+z
1/2+x,1/2-y,-z
-x,1/2+y,1/2-z
1/2-x,1/2-y,1/2-z
1/2+x,y,1/2-z
1/2-x,1/2+y,z
x,1/2-y,1/2+z
loop_
_atom_site_type_symbol
_atom_site_label
_atom_site_fract_x
_atom_site_fract_y
_atom_site_fract_z
Si Si1 0.863243 0.167229 0.062065
Si Si2 0.604721 0.500000 0.750000
Si Si3 0.797935 0.798152 0.700802
Si Si4 0.953710 0.118670 0.635314
Si Si5 0.250000 0.182910 0.000000
Si Si6 0.272242 0.979106 0.377803
Si Si7 0.969885 0.421474 0.946351
O O1 0.908703 0.301461 0.086722
O O2 0.814880 0.222219 0.011902
O O3 0.817477 0.123414 0.113217
O O4 0.901475 0.005272 0.051800
O O5 0.642661 0.653476 0.765316
O O6 0.574595 0.456545 0.809466
O O7 0.750000 0.750000 0.750000
O O8 0.803660 0.658942 0.656456
O O9 0.779962 0.948997 0.662692
O O10 0.000000 0.250000 0.654851
O O11 0.997345 0.991326 0.608038
O O12 0.255226 0.082782 0.058646
O O13 0.000000 0.250000 0.949969
O O14 0.000000 0.500000 0.000000
#
# Coordination Sequence:
#
# PCOD9533046 Si02
#       7
#    16   8  16  16   8  16  16
#     4  11  25  47  70 103 149 189 238 307 368 445
#     4  12  24  42  76  96 140 190 242 310 364 428
#     4  12  24  44  68 101 145 195 239 297 375 454
#     4  10  25  49  71 102 142 188 252 307 361 434
#     4  12  26  44  72 110 154 192 240 310 378 452
#     4  12  25  43  67 107 146 189 245 293 376 451
#     4  11  26  48  75 103 139 192 245 297 365 436
#
# _framework density 21.856535999999998
#
# number of rings (size 3 to 8) (size 9 to 14) (size 15 to 20)
#    0.000    0.667    3.333    4.000    7.000    0.667 
#    3.000    0.000    0.000    0.000    0.000    0.000 
#    0.000    0.000    0.000    0.000    0.000    0.000 
#
# Total GULP energy -267288.323895 kJ/mol
# GULP energy per Si atom -5568.506748 kJ/mol
# Density = 2.180679 g / cm^3
# Si number density = 21.856536 Si / 1000 Ang^3
#
#
#
# Elastic Constant Matrix: (Units=GPa)
#
#
# Indices 1 2 3 4 5 6 
#
# 1 86.0988 15.0676 24.4787 0.0000 0.0000 0.0000
# 2 15.0676 97.5537 17.1801 0.0000 0.0000 0.0000
# 3 24.4787 17.1801 104.5357 0.0000 0.0000 0.0000
# 4 0.0000 0.0000 0.0000 44.0972 0.0000 0.0000
# 5 0.0000 0.0000 0.0000 0.0000 40.2864 0.0000
# 6 0.0000 0.0000 0.0000 0.0000 0.0000 28.4573
#
#
#
# Elastic Compliance Matrix: (Units=1/GPa)
#
#
# Indices 1 2 3 4 5 6 
#
# 1 0.012646 -0.001474 -0.002719 0.000000 0.000000 0.000000
# 2 -0.001474 0.010728 -0.001418 0.000000 0.000000 0.000000
# 3 -0.002719 -0.001418 0.010436 0.000000 0.000000 0.000000
# 4 0.000000 0.000000 0.000000 0.022677 0.000000 0.000000
# 5 0.000000 0.000000 0.000000 0.000000 0.024822 0.000000
# 6 0.000000 0.000000 0.000000 0.000000 0.000000 0.035140
#
#
# Mechanical properties :
#
#
# Convention : Reuss Voigt Hill
#
# Bulk Modulus (GPa) = 44.27257 44.62678 44.44968
# Shear Modulus (GPa) = 36.98203 37.99894 37.49048
#
# Velocity S-wave (km/s) = 4.11790 4.17413 4.14611
# Velocity P-wave (km/s) = 6.55053 6.61011 6.58038
#
# Compressibility (1/GPa) = 0.02258735
#
# Stress axis : x y z
#
# Youngs Moduli (GPa) = 79.07901 93.21239 95.82395
#
# Poissons Ratio (x) = 0.13743 0.26053
# Poissons Ratio (y) = 0.11659 0.13587
# Poissons Ratio (z) = 0.21501 0.13217
#
# Static dielectric constant tensor:
#      x y z
#    x 2.253700 0.000000 0.000000 
#    y 0.000000 1.763940 0.000000 
#    z 0.000000 0.000000 1.625690 
# 
# From -- ./inp_files/30314.got.cif
#   From: 2010.05.17/outbox.cif.g08.bks.cpg/sg73_16_cif.got.tgz:30314.got - 2010.06.03 17:35:07.
