data_PCOD9533224
_publ_section_title
;
Structure prediction by ZEFSAII (Michael W. Deem and Ramdas Pophale) SiO2 
 PCOD9533224
Probable space group: I B C A 
;
_chemical_formula_sum "Si O2"
_cell_formula_units_Z 64
_cell_length_a 30.612600
_cell_length_b 9.108838
_cell_length_c 10.771725
_cell_angle_alpha 90.000000
_cell_angle_beta 90.000000
_cell_angle_gamma 90.000000
_cell_volume 3003.643964
_symmetry_space_group_name_H-M "I B C A "
_symmetry_group_IT_number 73
_symmetry_cell_setting 'orthorhombic'
loop_
_space_group_symop_operation_xyz
x,y,z
-x,1/2-y,z
x,-y,1/2-z
1/2-x,y,-z
-x,-y,-z
x,1/2+y,-z
-x,y,1/2+z
1/2+x,-y,z
1/2+x,1/2+y,1/2+z
1/2-x,-y,1/2+z
1/2+x,1/2-y,-z
-x,1/2+y,1/2-z
1/2-x,1/2-y,1/2-z
1/2+x,y,1/2-z
1/2-x,1/2+y,z
x,1/2-y,1/2+z
loop_
_atom_site_type_symbol
_atom_site_label
_atom_site_fract_x
_atom_site_fract_y
_atom_site_fract_z
Si Si1 0.020157 0.587526 0.618589
Si Si2 0.235583 0.121330 0.165183
Si Si3 0.324799 0.376360 0.550692
Si Si4 0.123365 0.908231 0.121632
O O1 0.013773 0.500000 0.750000
O O2 0.071929 0.610490 0.597728
O O3 0.000000 0.750000 0.628093
O O4 0.000000 0.500000 0.500000
O O5 0.250000 0.250000 0.250000
O O6 0.281707 0.056551 0.116222
O O7 0.213608 0.000000 0.250000
O O8 0.201945 0.186532 0.067016
O O9 0.350715 0.247800 0.621312
O O10 0.356365 0.496934 0.491514
O O11 0.125206 0.000000 0.250000
#
# Coordination Sequence:
#
# PCOD9533224 Si02
#       4
#    16  16  16  16
#     4  11  24  45  71 100 136 176 221 278 344 412
#     4  11  22  37  57  85 123 164 209 256 307 368
#     4  11  22  38  61  87 123 168 209 258 314 371
#     4  11  24  42  64  94 128 162 213 268 320 390
#
# _framework density 21.307454
#
# number of rings (size 3 to 8) (size 9 to 14) (size 15 to 20)
#    0.000    1.000    0.000    7.500    0.000    6.000 
#    0.000    5.000    0.000    0.000    0.000    0.000 
#    0.000    0.000    0.000    0.000    0.000    0.000 
#
# Total GULP energy -178507.220196 kJ/mol
# GULP energy per Si atom -5578.350631 kJ/mol
# Density = 2.125896 g / cm^3
# Si number density = 21.307454 Si / 1000 Ang^3
#
#
#
# Elastic Constant Matrix: (Units=GPa)
#
#
# Indices 1 2 3 4 5 6 
#
# 1 199.4697 49.3977 41.1445 0.0000 0.0000 0.0000
# 2 49.3977 99.1748 24.7859 0.0000 0.0000 0.0000
# 3 41.1445 24.7859 84.5996 0.0000 0.0000 0.0000
# 4 0.0000 0.0000 0.0000 32.6860 0.0000 0.0000
# 5 0.0000 0.0000 0.0000 0.0000 28.3276 0.0000
# 6 0.0000 0.0000 0.0000 0.0000 0.0000 38.0924
#
#
#
# Elastic Compliance Matrix: (Units=1/GPa)
#
#
# Indices 1 2 3 4 5 6 
#
# 1 0.006087 -0.002473 -0.002236 0.000000 0.000000 0.000000
# 2 -0.002473 0.011885 -0.002279 0.000000 0.000000 0.000000
# 3 -0.002236 -0.002279 0.013575 0.000000 0.000000 0.000000
# 4 0.000000 0.000000 0.000000 0.030594 0.000000 0.000000
# 5 0.000000 0.000000 0.000000 0.000000 0.035301 0.000000
# 6 0.000000 0.000000 0.000000 0.000000 0.000000 0.026252
#
#
# Mechanical properties :
#
#
# Convention : Reuss Voigt Hill
#
# Bulk Modulus (GPa) = 56.91196 68.21112 62.56154
# Shear Modulus (GPa) = 34.83654 37.68226 36.25940
#
# Velocity S-wave (km/s) = 4.04783 4.20992 4.12967
# Velocity P-wave (km/s) = 6.97241 7.46415 7.22246
#
# Compressibility (1/GPa) = 0.01757100
#
# Stress axis : x y z
#
# Youngs Moduli (GPa) = 164.28716 84.14240 73.66212
#
# Poissons Ratio (x) = 0.20809 0.16469
# Poissons Ratio (y) = 0.40629 0.16789
# Poissons Ratio (z) = 0.36731 0.19178
#
# Static dielectric constant tensor:
#      x y z
#    x 1.877360 0.000000 0.000000 
#    y 0.000000 1.730230 0.000000 
#    z 0.000000 0.000000 1.913430 
# 
# From -- ./inp_files/3972.got.cif
#   From: 2010.05.17/outbox.cif.g08.bks.cpg/sg73_2_cif.got.tgz:3972.got - 2010.06.03 17:35:07.
