data_PCOD9533624
_publ_section_title
;
Structure prediction by ZEFSAII (Michael W. Deem and Ramdas Pophale) SiO2 
 PCOD9533624
Probable space group: I B C A 
;
_chemical_formula_sum "Si O2"
_cell_formula_units_Z 104
_cell_length_a 26.415437
_cell_length_b 7.092512
_cell_length_c 21.001093
_cell_angle_alpha 90.000000
_cell_angle_beta 90.000000
_cell_angle_gamma 90.000000
_cell_volume 3934.592658
_symmetry_space_group_name_H-M "I B C A "
_symmetry_group_IT_number 73
_symmetry_cell_setting 'orthorhombic'
loop_
_space_group_symop_operation_xyz
x,y,z
-x,1/2-y,z
x,-y,1/2-z
1/2-x,y,-z
-x,-y,-z
x,1/2+y,-z
-x,y,1/2+z
1/2+x,-y,z
1/2+x,1/2+y,1/2+z
1/2-x,-y,1/2+z
1/2+x,1/2-y,-z
-x,1/2+y,1/2-z
1/2-x,1/2-y,1/2-z
1/2+x,y,1/2-z
1/2-x,1/2+y,z
x,1/2-y,1/2+z
loop_
_atom_site_type_symbol
_atom_site_label
_atom_site_fract_x
_atom_site_fract_y
_atom_site_fract_z
Si Si1 0.881089 0.843119 0.504840
Si Si2 0.688412 0.423179 0.179347
Si Si3 0.582244 0.255610 0.639048
Si Si4 0.803138 0.823061 0.842591
Si Si5 0.973806 0.434829 0.569289
Si Si6 0.192344 0.417824 0.517304
Si Si7 0.112049 0.000000 0.250000
O O1 0.910051 0.859451 0.572121
O O2 0.919792 0.846350 0.447943
O O3 0.868418 0.594161 0.504490
O O4 0.818321 0.838135 0.499316
O O5 0.679234 0.500000 0.250000
O O6 0.639549 0.317171 0.154701
O O7 0.691194 0.608043 0.136839
O O8 0.744586 0.335297 0.180260
O O9 0.576547 0.385630 0.701049
O O10 0.540277 0.098775 0.619876
O O11 0.809591 0.939585 0.906110
O O12 0.846758 0.881426 0.792717
O O13 0.000000 0.250000 0.597131
O O14 0.000000 0.500000 0.500000
O O15 0.250000 0.408003 0.500000
#
# Coordination Sequence:
#
# PCOD9533624 Si02
#       7
#    16  16  16  16  16  16   8
#     4  12  24  45  69 112 157 210 271 347 436 508
#     4  12  24  41  64 103 151 219 284 329 401 505
#     4  12  25  45  73 111 163 208 289 353 438 527
#     4  12  25  39  65  99 160 221 281 333 393 513
#     4  12  25  49  82 119 154 208 288 379 462 523
#     4  12  26  39  64 105 165 215 262 333 419 503
#     4  12  24  46  70 112 162 230 280 336 420 528
#
# _framework density 26.432214999999999
#
# number of rings (size 3 to 8) (size 9 to 14) (size 15 to 20)
#    0.000    0.000    6.923    3.692    4.308    0.000 
#    0.000    0.000    0.000    0.000   12.000    0.000 
#    0.000    0.000    0.000    0.000    0.000    1.385 
#
# Total GULP energy -290301.676437 kJ/mol
# GULP energy per Si atom -5582.724547 kJ/mol
# Density = 2.637205 g / cm^3
# Si number density = 26.432215 Si / 1000 Ang^3
#
#
#
# Elastic Constant Matrix: (Units=GPa)
#
#
# Indices 1 2 3 4 5 6 
#
# 1 126.1573 74.5426 38.5505 0.0000 0.0000 0.0000
# 2 74.5426 171.9308 53.0945 0.0000 0.0000 0.0000
# 3 38.5505 53.0945 164.5011 0.0000 0.0000 0.0000
# 4 0.0000 0.0000 0.0000 50.9689 0.0000 0.0000
# 5 0.0000 0.0000 0.0000 0.0000 37.5130 0.0000
# 6 0.0000 0.0000 0.0000 0.0000 0.0000 75.0288
#
#
#
# Elastic Compliance Matrix: (Units=1/GPa)
#
#
# Indices 1 2 3 4 5 6 
#
# 1 0.010845 -0.004351 -0.001137 0.000000 0.000000 0.000000
# 2 -0.004351 0.008206 -0.001629 0.000000 0.000000 0.000000
# 3 -0.001137 -0.001629 0.006871 0.000000 0.000000 0.000000
# 4 0.000000 0.000000 0.000000 0.019620 0.000000 0.000000
# 5 0.000000 0.000000 0.000000 0.000000 0.026657 0.000000
# 6 0.000000 0.000000 0.000000 0.000000 0.000000 0.013328
#
#
# Mechanical properties :
#
#
# Convention : Reuss Voigt Hill
#
# Bulk Modulus (GPa) = 85.55743 88.32939 86.94341
# Shear Modulus (GPa) = 48.23614 52.46226 50.34920
#
# Velocity S-wave (km/s) = 4.27652 4.45993 4.36918
# Velocity P-wave (km/s) = 7.53815 7.74668 7.64313
#
# Compressibility (1/GPa) = 0.01168806
#
# Stress axis : x y z
#
# Youngs Moduli (GPa) = 92.20989 121.86784 145.53436
#
# Poissons Ratio (x) = 0.53021 0.16551
# Poissons Ratio (y) = 0.40118 0.23706
# Poissons Ratio (z) = 0.10486 0.19851
#
# Static dielectric constant tensor:
#      x y z
#    x 2.025830 0.000000 0.000000 
#    y 0.000000 2.942780 0.000000 
#    z 0.000000 0.000000 2.003920 
# 
# From -- ./inp_files/27595.got.cif
#   From: 2010.05.17/outbox.cif.g08.bks.cpg/sg73_14_cif.got.tgz:27595.got - 2010.06.03 17:35:07.
