data_PCOD9533786
_publ_section_title
;
Structure prediction by ZEFSAII (Michael W. Deem and Ramdas Pophale) SiO2 
 PCOD9533786
Probable space group: I B C A 
;
_chemical_formula_sum "Si O2"
_cell_formula_units_Z 52
_cell_length_a 9.000000
_cell_length_b 21.000000
_cell_length_c 27.000000
_cell_angle_alpha 90.000000
_cell_angle_beta 90.000000
_cell_angle_gamma 90.000000
_cell_volume 5103.000000
_symmetry_space_group_name_H-M "I B C A "
_symmetry_group_IT_number 73
_symmetry_cell_setting 'orthorhombic'
loop_
_space_group_symop_operation_xyz
x,y,z
-x,1/2-y,z
x,-y,1/2-z
1/2-x,y,-z
-x,-y,-z
x,1/2+y,-z
-x,y,1/2+z
1/2+x,-y,z
1/2+x,1/2+y,1/2+z
1/2-x,-y,1/2+z
1/2+x,1/2-y,-z
-x,1/2+y,1/2-z
1/2-x,1/2-y,1/2-z
1/2+x,y,1/2-z
1/2-x,1/2+y,z
x,1/2-y,1/2+z
loop_
_atom_site_type_symbol
_atom_site_label
_atom_site_fract_x
_atom_site_fract_y
_atom_site_fract_z
Si Si1 0.212120 0.499095 0.365195
Si Si2 0.343333 0.714384 0.591102
Si Si3 0.280085 0.114630 0.789411
Si Si4 0.616094 0.123182 0.814444
Si Si5 0.029875 0.573764 0.578937
Si Si6 0.250000 0.123132 0.500000
Si Si7 0.603510 0.804838 0.868560
O O1 0.251464 0.451443 0.319822
O O2 0.114131 0.555702 0.342689
O O3 0.354581 0.534774 0.387285
O O4 0.125209 0.463303 0.410024
O O5 0.500000 0.750000 0.585085
O O6 0.345103 0.675228 0.643319
O O7 0.311703 0.666741 0.545245
O O8 0.219008 0.769278 0.595288
O O9 0.451989 0.133369 0.793024
O O10 0.225724 0.116629 0.732643
O O11 0.188250 0.163085 0.823393
O O12 0.114162 0.583683 0.526199
O O13 0.993638 0.643219 0.601835
O O14 0.500000 0.750000 0.847959
#
# Coordination Sequence:
#
# PCOD9533786 Si02
#       7
#    16  16  16  16  16   8  16
#     4  11  23  47  69 101 149 183 237 298 358 424
#     4  12  27  47  72 103 147 185 241 304 356 424
#     4  11  27  40  73 103 141 192 235 283 370 429
#     4  12  25  45  67 107 143 190 235 294 354 438
#     4  11  25  44  75 105 140 189 238 304 356 424
#     4  12  26  46  76 106 136 194 250 300 364 426
#     4  11  23  47  68 101 141 185 235 293 357 429
#
# _framework density 10.190084000000001
#
# number of rings (size 3 to 8) (size 9 to 14) (size 15 to 20)
#    0.000    0.615    6.154    0.462    8.615    3.077 
#    0.000    0.000    0.000    0.000    0.000    0.000 
#    0.000    0.000    0.000    0.000    0.000    0.000 
#
# Total GULP energy -290541.651594 kJ/mol
# GULP energy per Si atom -5587.339454 kJ/mol
# Density = 1.016689 g / cm^3
# Si number density = 10.190084 Si / 1000 Ang^3
#
#
#
# Elastic Constant Matrix: (Units=GPa)
#
#
# Indices 1 2 3 4 5 6 
#
# 1 106.3195 52.4115 40.2268 0.0000 0.0000 0.0000
# 2 52.4115 96.0241 36.8488 0.0000 0.0000 0.0000
# 3 40.2268 36.8488 127.1358 0.0000 0.0000 0.0000
# 4 0.0000 0.0000 0.0000 27.2880 0.0000 0.0000
# 5 0.0000 0.0000 0.0000 0.0000 41.3858 0.0000
# 6 0.0000 0.0000 0.0000 0.0000 0.0000 41.8131
#
#
#
# Elastic Compliance Matrix: (Units=1/GPa)
#
#
# Indices 1 2 3 4 5 6 
#
# 1 0.013489 -0.006441 -0.002401 0.000000 0.000000 0.000000
# 2 -0.006441 0.014793 -0.002250 0.000000 0.000000 0.000000
# 3 -0.002401 -0.002250 0.009277 0.000000 0.000000 0.000000
# 4 0.000000 0.000000 0.000000 0.036646 0.000000 0.000000
# 5 0.000000 0.000000 0.000000 0.000000 0.024163 0.000000
# 6 0.000000 0.000000 0.000000 0.000000 0.000000 0.023916
#
#
# Mechanical properties :
#
#
# Convention : Reuss Voigt Hill
#
# Bulk Modulus (GPa) = 65.03736 65.38376 65.21056
# Shear Modulus (GPa) = 33.42377 35.43021 34.42699
#
# Velocity S-wave (km/s) = 4.05410 4.17401 4.11450
# Velocity P-wave (km/s) = 7.34137 7.44188 7.39179
#
# Compressibility (1/GPa) = 0.01537578
#
# Stress axis : x y z
#
# Youngs Moduli (GPa) = 74.13199 67.59929 107.78915
#
# Poissons Ratio (x) = 0.43543 0.25883
# Poissons Ratio (y) = 0.47751 0.24247
# Poissons Ratio (z) = 0.17801 0.15207
#
# Static dielectric constant tensor:
#      x y z
#    x 1.776620 0.000000 0.000000 
#    y 0.000000 1.748660 0.000000 
#    z 0.000000 0.000000 1.668730 
# 
# From -- ./inp_files/31253.got.cif
#   From: 2010.05.17/outbox.ucp.g08.bks.cvg/sg73_16_cif.got.tgz:31253.got - 2010.06.11 16:36:03.
