data_PCOD9533250
_publ_section_title
;
Structure prediction by ZEFSAII (Michael W. Deem and Ramdas Pophale) SiO2 
 PCOD9533250
Probable space group: I B C A 
;
_chemical_formula_sum "Si O2"
_cell_formula_units_Z 96
_cell_length_a 21.529548
_cell_length_b 23.342077
_cell_length_c 9.957471
_cell_angle_alpha 90.000000
_cell_angle_beta 90.000000
_cell_angle_gamma 90.000000
_cell_volume 5004.070963
_symmetry_space_group_name_H-M "I B C A "
_symmetry_group_IT_number 73
_symmetry_cell_setting 'orthorhombic'
loop_
_space_group_symop_operation_xyz
x,y,z
-x,1/2-y,z
x,-y,1/2-z
1/2-x,y,-z
-x,-y,-z
x,1/2+y,-z
-x,y,1/2+z
1/2+x,-y,z
1/2+x,1/2+y,1/2+z
1/2-x,-y,1/2+z
1/2+x,1/2-y,-z
-x,1/2+y,1/2-z
1/2-x,1/2-y,1/2-z
1/2+x,y,1/2-z
1/2-x,1/2+y,z
x,1/2-y,1/2+z
loop_
_atom_site_type_symbol
_atom_site_label
_atom_site_fract_x
_atom_site_fract_y
_atom_site_fract_z
Si Si1 0.911172 0.546161 0.572806
Si Si2 0.689509 0.500000 0.250000
Si Si3 0.205958 0.253892 0.381672
Si Si4 0.346588 0.858744 0.838697
Si Si5 0.250000 0.065624 0.500000
Si Si6 0.446192 0.952431 0.866408
Si Si7 0.684369 0.628012 0.535224
O O1 0.859950 0.544849 0.689646
O O2 0.918373 0.484973 0.497451
O O3 0.878241 0.591937 0.478235
O O4 0.980844 0.559744 0.615984
O O5 0.728360 0.472676 0.372072
O O6 0.250000 0.231697 0.500000
O O7 0.250000 0.250000 0.250000
O O8 0.150294 0.208511 0.371316
O O9 0.185055 0.316377 0.436759
O O10 0.409627 0.894690 0.836166
O O11 0.313730 0.859243 0.693107
O O12 0.304162 0.893737 0.943484
O O13 0.439022 0.000000 0.750000
O O14 0.750000 0.597540 0.500000
#
# Coordination Sequence:
#
# PCOD9533250 Si02
#       7
#    16   8  16  16   8  16  16
#     4  11  24  42  63  95 134 175 222 266 334 398
#     4  12  26  40  58  98 138 176 208 282 332 402
#     4  11  22  41  64  98 134 171 216 274 342 397
#     4  12  23  41  66  98 131 174 219 274 333 397
#     4  12  28  38  64 100 140 168 220 278 336 400
#     4  11  23  43  66  92 134 182 221 268 328 407
#     4  11  23  40  70  95 131 171 216 279 334 396
#
# _framework density 19.184380999999998
#
# number of rings (size 3 to 8) (size 9 to 14) (size 15 to 20)
#    0.000    0.667    8.333    1.000    4.667    0.000 
#    0.000    0.833    0.000    2.000    0.000    0.000 
#    0.000    0.000    0.000    0.000    0.000    0.000 
#
# Total GULP energy -267515.525015 kJ/mol
# GULP energy per Si atom -5573.240104 kJ/mol
# Density = 1.914072 g / cm^3
# Si number density = 19.184381 Si / 1000 Ang^3
#
#
#
# Elastic Constant Matrix: (Units=GPa)
#
#
# Indices 1 2 3 4 5 6 
#
# 1 83.7193 51.1074 17.6760 0.0000 0.0000 0.0000
# 2 51.1074 94.6888 19.3568 0.0000 0.0000 0.0000
# 3 17.6760 19.3568 100.2699 0.0000 0.0000 0.0000
# 4 0.0000 0.0000 0.0000 28.3904 0.0000 0.0000
# 5 0.0000 0.0000 0.0000 0.0000 29.3656 0.0000
# 6 0.0000 0.0000 0.0000 0.0000 0.0000 46.7718
#
#
#
# Elastic Compliance Matrix: (Units=1/GPa)
#
#
# Indices 1 2 3 4 5 6 
#
# 1 0.017988 -0.009433 -0.001350 0.000000 0.000000 0.000000
# 2 -0.009433 0.015941 -0.001415 0.000000 0.000000 0.000000
# 3 -0.001350 -0.001415 0.010484 0.000000 0.000000 0.000000
# 4 0.000000 0.000000 0.000000 0.035223 0.000000 0.000000
# 5 0.000000 0.000000 0.000000 0.000000 0.034053 0.000000
# 6 0.000000 0.000000 0.000000 0.000000 0.000000 0.021380
#
#
# Mechanical properties :
#
#
# Convention : Reuss Voigt Hill
#
# Bulk Modulus (GPa) = 49.95342 50.55093 50.25218
# Shear Modulus (GPa) = 30.09529 33.60807 31.85168
#
# Velocity S-wave (km/s) = 3.96503 4.19005 4.07909
# Velocity P-wave (km/s) = 6.85981 7.05804 6.95963
#
# Compressibility (1/GPa) = 0.02001865
#
# Stress axis : x y z
#
# Youngs Moduli (GPa) = 55.59198 62.72946 95.38212
#
# Poissons Ratio (x) = 0.59173 0.12877
# Poissons Ratio (y) = 0.52440 0.13492
# Poissons Ratio (z) = 0.07505 0.08874
#
# Static dielectric constant tensor:
#      x y z
#    x 1.650970 0.000000 0.000000 
#    y 0.000000 1.740710 0.000000 
#    z 0.000000 0.000000 1.891700 
# 
# From -- ./inp_files/7216.got.cif
#   From: 2010.05.17/outbox.cif.g08.bks.cpg/sg73_4_cif.got.tgz:7216.got - 2010.06.03 17:35:07.
