data_PCOD9533618
_publ_section_title
;
Structure prediction by ZEFSAII (Michael W. Deem and Ramdas Pophale) SiO2 
 PCOD9533618
Probable space group: I B C A 
;
_chemical_formula_sum "Si O2"
_cell_formula_units_Z 120
_cell_length_a 24.511518
_cell_length_b 11.980400
_cell_length_c 16.975270
_cell_angle_alpha 90.000000
_cell_angle_beta 90.000000
_cell_angle_gamma 90.000000
_cell_volume 4984.920277
_symmetry_space_group_name_H-M "I B C A "
_symmetry_group_IT_number 73
_symmetry_cell_setting 'orthorhombic'
loop_
_space_group_symop_operation_xyz
x,y,z
-x,1/2-y,z
x,-y,1/2-z
1/2-x,y,-z
-x,-y,-z
x,1/2+y,-z
-x,y,1/2+z
1/2+x,-y,z
1/2+x,1/2+y,1/2+z
1/2-x,-y,1/2+z
1/2+x,1/2-y,-z
-x,1/2+y,1/2-z
1/2-x,1/2-y,1/2-z
1/2+x,y,1/2-z
1/2-x,1/2+y,z
x,1/2-y,1/2+z
loop_
_atom_site_type_symbol
_atom_site_label
_atom_site_fract_x
_atom_site_fract_y
_atom_site_fract_z
Si Si1 0.731841 0.621241 0.911785
Si Si2 0.306021 0.793036 0.214259
Si Si3 0.840002 0.582931 0.376126
Si Si4 0.555383 0.179511 0.026806
Si Si5 0.446469 0.462355 0.159315
Si Si6 0.153822 0.314309 0.466403
Si Si7 0.866791 0.000000 0.250000
Si Si8 0.068551 0.994032 0.600750
O O1 0.787171 0.643568 0.864858
O O2 0.696498 0.528332 0.865086
O O3 0.695331 0.734103 0.920359
O O4 0.750000 0.589339 0.000000
O O5 0.250000 0.750000 0.250000
O O6 0.336891 0.680386 0.188673
O O7 0.331928 0.889214 0.268156
O O8 0.902914 0.545085 0.381034
O O9 0.818152 0.626108 0.460025
O O10 0.500000 0.250000 0.019430
O O11 0.570021 0.155848 0.119005
O O12 0.608697 0.236586 0.992172
O O13 0.553699 0.069063 0.974153
O O14 0.443853 0.500000 0.250000
O O15 0.509142 0.459971 0.132263
O O16 0.113071 0.401334 0.423787
O O17 0.903439 0.045037 0.178113
#
# Coordination Sequence:
#
# PCOD9533618 Si02
#       8
#    16  16  16  16  16  16   8  16
#     4  12  27  45  75 113 148 200 265 325 387 470
#     4  12  28  50  73 108 151 206 253 320 397 461
#     4  12  27  46  78 110 152 198 255 323 391 468
#     4  12  24  46  77 111 152 202 256 318 391 472
#     4  12  26  47  72 112 155 195 252 318 397 475
#     4  12  23  45  74 109 146 195 257 319 380 462
#     4  12  28  50  76 110 154 196 254 322 388 464
#     4  12  25  47  77 109 149 200 252 318 390 476
#
# _framework density 24.072602
#
# number of rings (size 3 to 8) (size 9 to 14) (size 15 to 20)
#    0.000    0.000    6.000    3.600    5.600    1.067 
#    0.000    0.667    0.000    0.000    0.000    0.000 
#    0.000    0.000    0.000    0.000    0.000    0.000 
#
# Total GULP energy -334894.080968 kJ/mol
# GULP energy per Si atom -5581.568016 kJ/mol
# Density = 2.401781 g / cm^3
# Si number density = 24.072602 Si / 1000 Ang^3
#
#
#
# Elastic Constant Matrix: (Units=GPa)
#
#
# Indices 1 2 3 4 5 6 
#
# 1 85.0800 39.4863 11.8546 0.0000 0.0000 0.0000
# 2 39.4863 113.4561 35.1061 0.0000 0.0000 0.0000
# 3 11.8546 35.1061 91.4319 0.0000 0.0000 0.0000
# 4 0.0000 0.0000 0.0000 36.0871 0.0000 0.0000
# 5 0.0000 0.0000 0.0000 0.0000 39.8347 0.0000
# 6 0.0000 0.0000 0.0000 0.0000 0.0000 51.6027
#
#
#
# Elastic Compliance Matrix: (Units=1/GPa)
#
#
# Indices 1 2 3 4 5 6 
#
# 1 0.014018 -0.004898 0.000063 0.000000 0.000000 0.000000
# 2 -0.004898 0.011714 -0.003863 0.000000 0.000000 0.000000
# 3 0.000063 -0.003863 0.012412 0.000000 0.000000 0.000000
# 4 0.000000 0.000000 0.000000 0.027711 0.000000 0.000000
# 5 0.000000 0.000000 0.000000 0.000000 0.025104 0.000000
# 6 0.000000 0.000000 0.000000 0.000000 0.000000 0.019379
#
#
# Mechanical properties :
#
#
# Convention : Reuss Voigt Hill
#
# Bulk Modulus (GPa) = 48.19567 51.42908 49.81238
# Shear Modulus (GPa) = 37.13358 39.07297 38.10327
#
# Velocity S-wave (km/s) = 3.93181 4.03318 3.98282
# Velocity P-wave (km/s) = 6.37782 6.56500 6.47209
#
# Compressibility (1/GPa) = 0.02074875
#
# Stress axis : x y z
#
# Youngs Moduli (GPa) = 71.33586 85.36845 80.56734
#
# Poissons Ratio (x) = 0.41816 -0.00509
# Poissons Ratio (y) = 0.34943 0.31120
# Poissons Ratio (z) = -0.00451 0.32974
#
# Static dielectric constant tensor:
#      x y z
#    x 1.892380 0.000000 0.000000 
#    y 0.000000 2.115750 0.000000 
#    z 0.000000 0.000000 2.123560 
# 
# From -- ./inp_files/23983.got.cif
#   From: 2010.05.17/outbox.cif.g08.bks.cpg/sg73_12_cif.got.tgz:23983.got - 2010.06.03 17:35:07.
