data_PCOD9533710
_publ_section_title
;
Structure prediction by ZEFSAII (Michael W. Deem and Ramdas Pophale) SiO2 
 PCOD9533710
Probable space group: I B C A 
;
_chemical_formula_sum "Si O2"
_cell_formula_units_Z 56
_cell_length_a 9.619258
_cell_length_b 26.515329
_cell_length_c 8.361876
_cell_angle_alpha 90.000000
_cell_angle_beta 90.000000
_cell_angle_gamma 90.000000
_cell_volume 2132.761618
_symmetry_space_group_name_H-M "I B C A "
_symmetry_group_IT_number 73
_symmetry_cell_setting 'orthorhombic'
loop_
_space_group_symop_operation_xyz
x,y,z
-x,1/2-y,z
x,-y,1/2-z
1/2-x,y,-z
-x,-y,-z
x,1/2+y,-z
-x,y,1/2+z
1/2+x,-y,z
1/2+x,1/2+y,1/2+z
1/2-x,-y,1/2+z
1/2+x,1/2-y,-z
-x,1/2+y,1/2-z
1/2-x,1/2-y,1/2-z
1/2+x,y,1/2-z
1/2-x,1/2+y,z
x,1/2-y,1/2+z
loop_
_atom_site_type_symbol
_atom_site_label
_atom_site_fract_x
_atom_site_fract_y
_atom_site_fract_z
Si Si1 0.617437 0.214838 0.788843
Si Si2 0.975819 0.643901 0.035509
Si Si3 0.819647 0.548299 0.172555
Si Si4 0.250000 0.587933 0.000000
O O1 0.500000 0.250000 0.863390
O O2 0.750000 0.250000 0.750000
O O3 0.538430 0.188331 0.643170
O O4 0.630393 0.167979 0.908831
O O5 0.115507 0.621004 0.960256
O O6 0.907572 0.597391 0.127555
O O7 0.899377 0.500000 0.250000
O O8 0.722917 0.560998 0.327817
O O9 0.750000 0.535360 0.000000
#
# Coordination Sequence:
#
# PCOD9533710 Si02
#       4
#    16  16  16   8
#     4  12  28  50  80 122 165 226 292 356 432 514
#     4  12  27  52  83 120 172 224 287 367 434 528
#     4  12  28  51  87 127 176 228 290 359 451 533
#     4  12  26  54  78 124 174 226 286 358 442 518
#
# _framework density 26.257037
#
# number of rings (size 3 to 8) (size 9 to 14) (size 15 to 20)
#    0.000    0.000    4.286    4.286    4.000    4.571 
#    0.000    0.000    0.000    0.000    0.000    0.000 
#    0.000    0.000    0.000    0.000    0.000    0.000 
#
# Total GULP energy -156367.115832 kJ/mol
# GULP energy per Si atom -5584.539851 kJ/mol
# Density = 2.619727 g / cm^3
# Si number density = 26.257037 Si / 1000 Ang^3
#
#
#
# Elastic Constant Matrix: (Units=GPa)
#
#
# Indices 1 2 3 4 5 6 
#
# 1 113.9303 69.8106 52.3364 0.0006 0.0005 -0.0143
# 2 69.8106 181.7636 97.4999 0.0000 0.0008 -0.0068
# 3 52.3364 97.4999 200.5938 0.0006 0.0083 -0.0719
# 4 0.0006 0.0000 0.0006 43.6762 0.0010 -0.0087
# 5 0.0005 0.0008 0.0083 0.0010 29.2108 -0.0174
# 6 -0.0143 -0.0068 -0.0719 -0.0087 -0.0174 182.6787
#
#
#
# Elastic Compliance Matrix: (Units=1/GPa)
#
#
# Indices 1 2 3 4 5 6 
#
# 1 0.011679 -0.003857 -0.001173 0.000000 0.000000 0.000000
# 2 -0.003857 0.008715 -0.003230 0.000000 0.000001 -0.000001
# 3 -0.001173 -0.003230 0.006861 0.000000 -0.000002 0.000002
# 4 0.000000 0.000000 0.000000 0.022896 -0.000001 0.000001
# 5 0.000000 0.000001 -0.000002 -0.000001 0.034234 0.000003
# 6 0.000000 -0.000001 0.000002 0.000001 0.000003 0.005474
#
#
# Mechanical properties :
#
#
# Convention : Reuss Voigt Hill
#
# Bulk Modulus (GPa) = 93.13414 103.95351 98.54383
# Shear Modulus (GPa) = 45.47231 69.55587 57.51409
#
# Velocity S-wave (km/s) = 4.16602 5.15246 4.68528
# Velocity P-wave (km/s) = 7.66082 8.66452 8.17808
#
# Compressibility (1/GPa) = 0.01073720
#
# Stress axis : x y z
#
# Youngs Moduli (GPa) = 85.62294 114.73831 145.74910
#
# Poissons Ratio (x) = 0.44250 0.17091
# Poissons Ratio (y) = 0.33022 0.47077
# Poissons Ratio (z) = 0.10040 0.37060
#
# Static dielectric constant tensor:
#      x y z
#    x 1.981200 0.000440 -0.000010 
#    y 0.000440 6.743710 0.000470 
#    z -0.000010 0.000470 2.203310 
# 
# From -- ./inp_files/3897.got.cif
#   From: 2010.05.17/outbox.cif.g08.bks.cpg/sg73_2_cif.got.tgz:3897.got - 2010.06.03 17:35:07.
