data_PCOD9533640
_publ_section_title
;
Structure prediction by ZEFSAII (Michael W. Deem and Ramdas Pophale) SiO2 
 PCOD9533640
Probable space group: I B C A 
;
_chemical_formula_sum "Si O2"
_cell_formula_units_Z 96
_cell_length_a 15.337985
_cell_length_b 19.158673
_cell_length_c 14.713363
_cell_angle_alpha 90.000000
_cell_angle_beta 90.000000
_cell_angle_gamma 90.000000
_cell_volume 4323.601745
_symmetry_space_group_name_H-M "I B C A "
_symmetry_group_IT_number 73
_symmetry_cell_setting 'orthorhombic'
loop_
_space_group_symop_operation_xyz
x,y,z
-x,1/2-y,z
x,-y,1/2-z
1/2-x,y,-z
-x,-y,-z
x,1/2+y,-z
-x,y,1/2+z
1/2+x,-y,z
1/2+x,1/2+y,1/2+z
1/2-x,-y,1/2+z
1/2+x,1/2-y,-z
-x,1/2+y,1/2-z
1/2-x,1/2-y,1/2-z
1/2+x,y,1/2-z
1/2-x,1/2+y,z
x,1/2-y,1/2+z
loop_
_atom_site_type_symbol
_atom_site_label
_atom_site_fract_x
_atom_site_fract_y
_atom_site_fract_z
Si Si1 0.958026 0.468739 0.410135
Si Si2 0.673419 0.650716 0.934783
Si Si3 0.578918 0.708500 0.465357
Si Si4 0.614127 0.386697 0.866383
Si Si5 0.540854 0.630931 0.279140
Si Si6 0.737196 0.166430 0.749901
O O1 0.907671 0.400091 0.443653
O O2 0.897640 0.530174 0.371066
O O3 0.000000 0.500000 0.500000
O O4 0.022771 0.442081 0.331148
O O5 0.651220 0.731830 0.951653
O O6 0.707108 0.640297 0.834050
O O7 0.750000 0.628679 0.000000
O O8 0.500000 0.750000 0.511447
O O9 0.602151 0.646966 0.533918
O O10 0.547183 0.683364 0.365974
O O11 0.537767 0.360217 0.794633
O O12 0.710583 0.364272 0.835323
O O13 0.637461 0.641973 0.238832
O O14 0.750000 0.250000 0.750000
#
# Coordination Sequence:
#
# PCOD9533640 Si02
#       6
#    16  16  16  16  16  16
#     4  12  26  53  74 108 154 206 250 316 384 464
#     4  12  27  48  72 111 154 192 254 317 378 459
#     4  12  24  46  77 107 149 196 249 317 379 453
#     4  12  28  49  77 108 154 200 254 317 384 457
#     4  12  27  48  75 110 153 196 257 309 385 453
#     4  12  27  46  77 112 148 199 255 322 382 451
#
# _framework density 22.203710000000001
#
# number of rings (size 3 to 8) (size 9 to 14) (size 15 to 20)
#    0.000    0.000    6.667    1.500    7.000    1.333 
#    3.000    0.000    0.000    0.000    0.000    0.000 
#    0.000    0.000    0.000    0.000    0.000    0.000 
#
# Total GULP energy -268192.957455 kJ/mol
# GULP energy per Si atom -5587.353280 kJ/mol
# Density = 2.215317 g / cm^3
# Si number density = 22.203710 Si / 1000 Ang^3
#
#
#
# Elastic Constant Matrix: (Units=GPa)
#
#
# Indices 1 2 3 4 5 6 
#
# 1 85.3419 22.8740 0.0668 0.0000 0.0000 0.0000
# 2 22.8740 106.5648 16.4209 0.0000 0.0000 0.0000
# 3 0.0668 16.4209 72.6995 0.0000 0.0000 0.0000
# 4 0.0000 0.0000 0.0000 40.0036 0.0000 0.0000
# 5 0.0000 0.0000 0.0000 0.0000 40.8515 0.0000
# 6 0.0000 0.0000 0.0000 0.0000 0.0000 23.6421
#
#
#
# Elastic Compliance Matrix: (Units=1/GPa)
#
#
# Indices 1 2 3 4 5 6 
#
# 1 0.012459 -0.002769 0.000614 0.000000 0.000000 0.000000
# 2 -0.002769 0.010338 -0.002332 0.000000 0.000000 0.000000
# 3 0.000614 -0.002332 0.014282 0.000000 0.000000 0.000000
# 4 0.000000 0.000000 0.000000 0.024998 0.000000 0.000000
# 5 0.000000 0.000000 0.000000 0.000000 0.024479 0.000000
# 6 0.000000 0.000000 0.000000 0.000000 0.000000 0.042298
#
#
# Mechanical properties :
#
#
# Convention : Reuss Voigt Hill
#
# Bulk Modulus (GPa) = 35.58263 38.14775 36.86519
# Shear Modulus (GPa) = 33.96843 35.91574 34.94209
#
# Velocity S-wave (km/s) = 3.91558 4.02625 3.97130
# Velocity P-wave (km/s) = 6.04174 6.23156 6.13738
#
# Compressibility (1/GPa) = 0.02810360
#
# Stress axis : x y z
#
# Youngs Moduli (GPa) = 80.26155 96.73297 70.02052
#
# Poissons Ratio (x) = 0.26785 -0.04299
# Poissons Ratio (y) = 0.22224 0.16332
# Poissons Ratio (z) = -0.04928 0.22563
#
# Static dielectric constant tensor:
#      x y z
#    x 1.741940 0.000000 0.000000 
#    y 0.000000 1.824360 0.000000 
#    z 0.000000 0.000000 1.776660 
# 
# From -- ./inp_files/17039.got.cif
#   From: 2010.05.17/outbox.cif.g08.bks.cpg/sg73_9_cif.got.tgz:17039.got - 2010.06.03 17:35:07.
