data_PCOD9533543
_publ_section_title
;
Structure prediction by ZEFSAII (Michael W. Deem and Ramdas Pophale) SiO2 
 PCOD9533543
Probable space group: I B C A 
;
_chemical_formula_sum "Si O2"
_cell_formula_units_Z 64
_cell_length_a 13.400163
_cell_length_b 20.024767
_cell_length_c 9.506926
_cell_angle_alpha 90.000000
_cell_angle_beta 90.000000
_cell_angle_gamma 90.000000
_cell_volume 2551.042337
_symmetry_space_group_name_H-M "I B C A "
_symmetry_group_IT_number 73
_symmetry_cell_setting 'orthorhombic'
loop_
_space_group_symop_operation_xyz
x,y,z
-x,1/2-y,z
x,-y,1/2-z
1/2-x,y,-z
-x,-y,-z
x,1/2+y,-z
-x,y,1/2+z
1/2+x,-y,z
1/2+x,1/2+y,1/2+z
1/2-x,-y,1/2+z
1/2+x,1/2-y,-z
-x,1/2+y,1/2-z
1/2-x,1/2-y,1/2-z
1/2+x,y,1/2-z
1/2-x,1/2+y,z
x,1/2-y,1/2+z
loop_
_atom_site_type_symbol
_atom_site_label
_atom_site_fract_x
_atom_site_fract_y
_atom_site_fract_z
Si Si1 0.175674 0.339708 0.698129
Si Si2 0.334697 0.043509 0.608776
Si Si3 0.502718 0.877466 0.523185
Si Si4 0.395240 0.805634 0.279831
O O1 0.190754 0.381082 0.840824
O O2 0.103708 0.384448 0.601048
O O3 0.288051 0.324048 0.653418
O O4 0.119946 0.269496 0.724066
O O5 0.250000 0.020293 0.500000
O O6 0.442878 0.058077 0.541082
O O7 0.333515 0.000000 0.750000
O O8 0.474891 0.825627 0.399284
O O9 0.575107 0.848466 0.643168
#
# Coordination Sequence:
#
# PCOD9533543 Si02
#       4
#    16  16  16  16
#     4  11  26  47  78 119 166 206 260 328 401 479
#     4  12  29  54  80 112 159 214 276 332 399 482
#     4  12  25  47  77 121 160 210 266 324 398 482
#     4  11  26  44  81 123 167 206 256 328 413 480
#
# _framework density 25.087783000000002
#
# number of rings (size 3 to 8) (size 9 to 14) (size 15 to 20)
#    0.000    0.500    5.000    1.500    7.000    3.000 
#    0.000    2.500    0.000    0.000    0.000    0.000 
#    0.000    0.000    0.000    0.000    0.000    0.000 
#
# Total GULP energy -178947.806264 kJ/mol
# GULP energy per Si atom -5592.118946 kJ/mol
# Density = 2.503068 g / cm^3
# Si number density = 25.087783 Si / 1000 Ang^3
#
#
#
# Elastic Constant Matrix: (Units=GPa)
#
#
# Indices 1 2 3 4 5 6 
#
# 1 169.4788 40.8048 72.5097 0.0000 0.0000 0.0000
# 2 40.8048 74.8364 52.9332 0.0000 0.0000 0.0000
# 3 72.5097 52.9332 166.4466 0.0001 0.0000 0.0000
# 4 0.0000 0.0000 0.0001 31.9025 0.0000 0.0000
# 5 0.0000 0.0000 0.0000 0.0000 62.2825 0.0000
# 6 0.0000 0.0000 0.0000 0.0000 0.0000 22.4951
#
#
#
# Elastic Compliance Matrix: (Units=1/GPa)
#
#
# Indices 1 2 3 4 5 6 
#
# 1 0.007549 -0.002310 -0.002554 0.000000 0.000000 0.000000
# 2 -0.002310 0.017947 -0.004701 0.000000 0.000000 0.000000
# 3 -0.002554 -0.004701 0.008616 0.000000 0.000000 0.000000
# 4 0.000000 0.000000 0.000000 0.031345 0.000000 0.000000
# 5 0.000000 0.000000 0.000000 0.000000 0.016056 0.000000
# 6 0.000000 0.000000 0.000000 0.000000 0.000000 0.044454
#
#
# Mechanical properties :
#
#
# Convention : Reuss Voigt Hill
#
# Bulk Modulus (GPa) = 66.74780 82.58415 74.66597
# Shear Modulus (GPa) = 33.31285 39.63697 36.47491
#
# Velocity S-wave (km/s) = 3.64792 3.97915 3.81713
# Velocity P-wave (km/s) = 6.66383 7.35534 7.01811
#
# Compressibility (1/GPa) = 0.01498177
#
# Stress axis : x y z
#
# Youngs Moduli (GPa) = 132.46220 55.71901 116.06624
#
# Poissons Ratio (x) = 0.12869 0.29646
# Poissons Ratio (y) = 0.30594 0.54567
# Poissons Ratio (z) = 0.33834 0.26196
#
# Static dielectric constant tensor:
#      x y z
#    x 2.073230 0.000000 0.000000 
#    y 0.000000 2.003180 0.000000 
#    z 0.000000 0.000000 1.997140 
# 
# From -- ./inp_files/4663.got.cif
#   From: 2010.05.17/outbox.cif.g08.bks.cpg/sg73_3_cif.got.tgz:4663.got - 2010.06.03 17:35:07.
