data_PCOD9533789
_publ_section_title
;
Structure prediction by ZEFSAII (Michael W. Deem and Ramdas Pophale) SiO2 
 PCOD9533789
Probable space group: I B C A 
;
_chemical_formula_sum "Si O2"
_cell_formula_units_Z 60
_cell_length_a 12.000000
_cell_length_b 18.000000
_cell_length_c 27.000000
_cell_angle_alpha 90.000000
_cell_angle_beta 90.000000
_cell_angle_gamma 90.000000
_cell_volume 5832.000000
_symmetry_space_group_name_H-M "I B C A "
_symmetry_group_IT_number 73
_symmetry_cell_setting 'orthorhombic'
loop_
_space_group_symop_operation_xyz
x,y,z
-x,1/2-y,z
x,-y,1/2-z
1/2-x,y,-z
-x,-y,-z
x,1/2+y,-z
-x,y,1/2+z
1/2+x,-y,z
1/2+x,1/2+y,1/2+z
1/2-x,-y,1/2+z
1/2+x,1/2-y,-z
-x,1/2+y,1/2-z
1/2-x,1/2-y,1/2-z
1/2+x,y,1/2-z
1/2-x,1/2+y,z
x,1/2-y,1/2+z
loop_
_atom_site_type_symbol
_atom_site_label
_atom_site_fract_x
_atom_site_fract_y
_atom_site_fract_z
Si Si1 0.979798 0.089830 0.840554
Si Si2 0.986646 0.840752 0.552872
Si Si3 0.394575 0.422854 0.369584
Si Si4 0.212449 0.845326 0.696328
Si Si5 0.250000 0.147061 0.500000
Si Si6 0.365793 0.116130 0.403156
Si Si7 0.727071 0.169890 0.191305
Si Si8 0.803443 0.954349 0.052742
O O1 0.965842 0.139219 0.890031
O O2 0.889883 0.126406 0.804212
O O3 0.106350 0.105922 0.822539
O O4 0.943136 0.004390 0.852672
O O5 0.875747 0.870428 0.524278
O O6 0.000000 0.750000 0.545319
O O7 0.100081 0.891172 0.543795
O O8 0.325709 0.381893 0.325780
O O9 0.502280 0.378414 0.390863
O O10 0.299086 0.429957 0.412031
O O11 0.213063 0.840888 0.755898
O O12 0.208160 0.757941 0.680500
O O13 0.308620 0.166933 0.446154
O O14 0.298147 0.132687 0.352893
O O15 0.349274 0.030998 0.423172
O O16 0.750000 0.974938 0.000000
#
# Coordination Sequence:
#
# PCOD9533789 Si02
#       8
#    16  16  16  16   8  16  16  16
#     4  12  24  48  76 105 146 196 248 300 373 450
#     4  12  26  46  73 104 148 203 250 312 377 450
#     4  12  25  46  71 114 146 192 249 313 370 446
#     4  11  27  50  79 106 151 198 244 311 384 441
#     4  12  26  46  70 106 150 194 244 312 374 446
#     4  12  25  45  72 107 151 189 247 308 369 446
#     4  11  26  50  77 111 146 198 251 305 378 456
#     4  12  25  46  76 105 147 202 253 306 375 450
#
# _framework density 10.288066000000001
#
# number of rings (size 3 to 8) (size 9 to 14) (size 15 to 20)
#    0.000    0.267    6.000    2.000    2.800    2.133 
#    2.400    0.000    0.000    0.000    0.000    0.000 
#    0.000    0.000    0.000    0.000    0.000    0.000 
#
# Total GULP energy -334569.062114 kJ/mol
# GULP energy per Si atom -5576.151035 kJ/mol
# Density = 1.026465 g / cm^3
# Si number density = 10.288066 Si / 1000 Ang^3
#
#
#
# Elastic Constant Matrix: (Units=GPa)
#
#
# Indices 1 2 3 4 5 6 
#
# 1 162.4838 30.7930 37.7021 0.0000 0.0000 0.0000
# 2 30.7930 97.9224 20.3860 0.0000 0.0000 0.0000
# 3 37.7021 20.3860 119.0778 0.0000 0.0000 0.0000
# 4 0.0000 0.0000 0.0000 25.6274 0.0000 0.0000
# 5 0.0000 0.0000 0.0000 0.0000 46.6603 0.0000
# 6 0.0000 0.0000 0.0000 0.0000 0.0000 35.9086
#
#
#
# Elastic Compliance Matrix: (Units=1/GPa)
#
#
# Indices 1 2 3 4 5 6 
#
# 1 0.006931 -0.001786 -0.001889 0.000000 0.000000 0.000000
# 2 -0.001786 0.011050 -0.001326 0.000000 0.000000 0.000000
# 3 -0.001889 -0.001326 0.009223 0.000000 0.000000 0.000000
# 4 0.000000 0.000000 0.000000 0.039021 0.000000 0.000000
# 5 0.000000 0.000000 0.000000 0.000000 0.021432 0.000000
# 6 0.000000 0.000000 0.000000 0.000000 0.000000 0.027848
#
#
# Mechanical properties :
#
#
# Convention : Reuss Voigt Hill
#
# Bulk Modulus (GPa) = 58.13407 61.91625 60.02516
# Shear Modulus (GPa) = 38.09776 41.01279 39.55528
#
# Velocity S-wave (km/s) = 4.30763 4.46939 4.38926
# Velocity P-wave (km/s) = 7.28392 7.53595 7.41101
#
# Compressibility (1/GPa) = 0.01720162
#
# Stress axis : x y z
#
# Youngs Moduli (GPa) = 144.27380 90.49758 108.42565
#
# Poissons Ratio (x) = 0.16167 0.20479
# Poissons Ratio (y) = 0.25773 0.14379
# Poissons Ratio (z) = 0.27249 0.12001
#
# Static dielectric constant tensor:
#      x y z
#    x 1.756850 0.000000 0.000000 
#    y 0.000000 1.778240 0.000000 
#    z 0.000000 0.000000 1.754490 
# 
# From -- ./inp_files/31846.got.cif
#   From: 2010.05.17/outbox.ucp.g08.bks.cvg/sg73_16_cif.got.tgz:31846.got - 2010.06.11 16:36:03.
