data_PCOD9533636
_publ_section_title
;
Structure prediction by ZEFSAII (Michael W. Deem and Ramdas Pophale) SiO2 
 PCOD9533636
Probable space group: I B C A 
;
_chemical_formula_sum "Si O2"
_cell_formula_units_Z 64
_cell_length_a 5.122058
_cell_length_b 24.895229
_cell_length_c 20.778579
_cell_angle_alpha 90.000000
_cell_angle_beta 90.000000
_cell_angle_gamma 90.000000
_cell_volume 2649.576488
_symmetry_space_group_name_H-M "I B C A "
_symmetry_group_IT_number 73
_symmetry_cell_setting 'orthorhombic'
loop_
_space_group_symop_operation_xyz
x,y,z
-x,1/2-y,z
x,-y,1/2-z
1/2-x,y,-z
-x,-y,-z
x,1/2+y,-z
-x,y,1/2+z
1/2+x,-y,z
1/2+x,1/2+y,1/2+z
1/2-x,-y,1/2+z
1/2+x,1/2-y,-z
-x,1/2+y,1/2-z
1/2-x,1/2-y,1/2-z
1/2+x,y,1/2-z
1/2-x,1/2+y,z
x,1/2-y,1/2+z
loop_
_atom_site_type_symbol
_atom_site_label
_atom_site_fract_x
_atom_site_fract_y
_atom_site_fract_z
Si Si1 0.767221 0.716525 0.393640
Si Si2 0.346842 0.526503 0.642782
Si Si3 0.750000 0.871868 0.000000
Si Si4 0.750000 0.552577 0.000000
Si Si5 0.480268 0.634516 0.204755
O O1 0.500000 0.750000 0.380608
O O2 0.706092 0.666788 0.439356
O O3 0.918088 0.689223 0.333574
O O4 0.000000 0.750000 0.427189
O O5 0.556173 0.483629 0.669693
O O6 0.287323 0.520850 0.566566
O O7 0.477803 0.583977 0.656905
O O8 0.499576 0.909318 0.999494
O O9 0.740464 0.631642 0.246581
#
# Coordination Sequence:
#
# PCOD9533636 Si02
#       5
#    16  16   8   8  16
#     4  12  26  46  74 107 144 189 241 301 370 438
#     4  12  26  46  74 107 142 188 239 300 367 433
#     4  12  24  44  76 106 148 188 230 304 378 436
#     4  12  24  44  76 106 148 186 234 300 378 438
#     4  12  28  48  72 103 145 194 247 298 354 429
#
# _framework density 24.154803999999999
#
# number of rings (size 3 to 8) (size 9 to 14) (size 15 to 20)
#    0.000    0.000    2.500    7.500    3.500    6.000 
#    0.000    0.000    0.000    0.000    0.000    0.000 
#    0.000    0.000    0.000    0.000    0.000    0.000 
#
# Total GULP energy -178981.617469 kJ/mol
# GULP energy per Si atom -5593.175546 kJ/mol
# Density = 2.409983 g / cm^3
# Si number density = 24.154804 Si / 1000 Ang^3
#
#
#
# Elastic Constant Matrix: (Units=GPa)
#
#
# Indices 1 2 3 4 5 6 
#
# 1 245.9492 53.6262 32.2967 0.0000 0.0000 0.0000
# 2 53.6262 85.5419 8.2982 0.0000 0.0000 0.0000
# 3 32.2967 8.2982 66.0730 0.0000 0.0000 0.0000
# 4 0.0000 0.0000 0.0000 20.8836 0.0000 0.0000
# 5 0.0000 0.0000 0.0000 0.0000 30.3682 0.0000
# 6 0.0000 0.0000 0.0000 0.0000 0.0000 58.4454
#
#
#
# Elastic Compliance Matrix: (Units=1/GPa)
#
#
# Indices 1 2 3 4 5 6 
#
# 1 0.004973 -0.002917 -0.002064 0.000000 0.000000 0.000000
# 2 -0.002917 0.013546 -0.000275 0.000000 0.000000 0.000000
# 3 -0.002064 -0.000275 0.016178 0.000000 0.000000 0.000000
# 4 0.000000 0.000000 0.000000 0.047884 0.000000 0.000000
# 5 0.000000 0.000000 0.000000 0.000000 0.032929 0.000000
# 6 0.000000 0.000000 0.000000 0.000000 0.000000 0.017110
#
#
# Mechanical properties :
#
#
# Convention : Reuss Voigt Hill
#
# Bulk Modulus (GPa) = 41.35098 65.11181 53.23140
# Shear Modulus (GPa) = 33.06966 42.16232 37.61599
#
# Velocity S-wave (km/s) = 3.70411 4.18246 3.95053
# Velocity P-wave (km/s) = 5.95401 7.09496 6.54938
#
# Compressibility (1/GPa) = 0.02418322
#
# Stress axis : x y z
#
# Youngs Moduli (GPa) = 201.08330 73.82382 61.81061
#
# Poissons Ratio (x) = 0.21537 0.12761
# Poissons Ratio (y) = 0.58663 0.01701
# Poissons Ratio (z) = 0.41513 0.02032
#
# Static dielectric constant tensor:
#      x y z
#    x 1.889460 0.000000 0.000000 
#    y 0.000000 1.945440 0.000000 
#    z 0.000000 0.000000 1.981710 
# 
# From -- ./inp_files/2031.got.cif
#   From: 2010.05.17/outbox.cif.g08.bks.cpg/sg73_2_cif.got.tgz:2031.got - 2010.06.03 17:35:07.
