data_PCOD9533845
_publ_section_title
;
Structure prediction by ZEFSAII (Michael W. Deem and Ramdas Pophale) SiO2 
 PCOD9533845
Probable space group: I M M A
;
_chemical_formula_sum "Si O2"
_cell_formula_units_Z 80
_cell_length_a 7.707064
_cell_length_b 25.001621
_cell_length_c 26.873071
_cell_angle_alpha 90.000000
_cell_angle_beta 90.000000
_cell_angle_gamma 90.000000
_cell_volume 5178.147681
_symmetry_space_group_name_H-M "I M M A"
_symmetry_group_IT_number 74
_symmetry_cell_setting 'orthorhombic'
loop_
_space_group_symop_operation_xyz
x,y,z
-x,1/2-y,z
x,-y,-z
-x,1/2+y,-z
-x,-y,-z
x,1/2+y,-z
-x,y,z
x,1/2-y,z
1/2+x,1/2+y,1/2+z
1/2-x,-y,1/2+z
1/2+x,1/2-y,1/2-z
1/2-x,y,1/2-z
1/2-x,1/2-y,1/2-z
1/2+x,y,1/2-z
1/2-x,1/2+y,1/2+z
1/2+x,-y,1/2+z
loop_
_atom_site_type_symbol
_atom_site_label
_atom_site_fract_x
_atom_site_fract_y
_atom_site_fract_z
Si Si1 0.207253 0.933558 0.103587
Si Si2 0.298511 0.465647 0.448568
Si Si3 0.713614 0.132852 0.507273
Si Si4 0.205513 0.640344 0.307553
Si Si5 0.706938 0.750000 0.473886
Si Si6 0.710416 0.250000 0.856976
O O1 0.268244 0.892604 0.060434
O O2 0.239561 0.908146 0.156940
O O3 0.000000 0.937278 0.096858
O O4 0.277868 0.992950 0.091497
O O5 0.297254 0.500000 0.500000
O O6 0.500000 0.455989 0.435171
O O7 0.225431 0.408152 0.464496
O O8 0.500000 0.132493 0.506858
O O9 0.773582 0.193891 0.504553
O O10 0.250000 0.633797 0.250000
O O11 0.275985 0.696346 0.329782
O O12 0.000000 0.643747 0.311349
O O13 0.500000 0.750000 0.481700
O O14 0.737721 0.750000 0.414598
O O15 0.500000 0.250000 0.855023
#
# Coordination Sequence:
#
# PCOD9533845 Si02
#       6
#    16  16  16  16   8   8
#     4   9  15  26  43  58  74  98 128 161 196 230
#     4   7  11  20  36  57  78  98 122 153 188 229
#     4   8  13  21  36  60  81  99 127 159 190 223
#     4  11  22  33  43  55  73  98 131 169 204 237
#     4  10  16  23  41  62  79 102 133 167 192 219
#     4  10  21  33  41  52  74 102 130 165 205 235
#
# _framework density 15.449539
#
# number of rings (size 3 to 8) (size 9 to 14) (size 15 to 20)
#    0.000    3.000    2.000    3.300    0.000    0.800 
#    0.000    0.000    0.000    6.600    0.000    0.000 
#    0.000    0.000    0.000    0.900    0.000    6.400 
#
# Total GULP energy -222696.882150 kJ/mol
# GULP energy per Si atom -5567.422054 kJ/mol
# Density = 1.541438 g / cm^3
# Si number density = 15.449539 Si / 1000 Ang^3
#
#
#
# Elastic Constant Matrix: (Units=GPa)
#
#
# Indices 1 2 3 4 5 6 
#
# 1 23.1714 6.6839 -1.5888 0.0000 0.0000 0.0000
# 2 6.6839 163.6461 72.4901 0.0000 0.0000 0.0000
# 3 -1.5888 72.4901 60.1583 0.0000 0.0000 0.0000
# 4 0.0000 0.0000 0.0000 24.2025 0.0000 0.0000
# 5 0.0000 0.0000 0.0000 0.0000 9.8590 0.0000
# 6 0.0000 0.0000 0.0000 0.0000 0.0000 0.9738
#
#
#
# Elastic Compliance Matrix: (Units=1/GPa)
#
#
# Indices 1 2 3 4 5 6 
#
# 1 0.045125 -0.005086 0.007320 0.000000 0.000000 0.000000
# 2 -0.005086 0.013680 -0.016618 0.000000 0.000000 0.000000
# 3 0.007320 -0.016618 0.036841 0.000000 0.000000 0.000000
# 4 0.000000 0.000000 0.000000 0.041318 0.000000 0.000000
# 5 0.000000 0.000000 0.000000 0.000000 0.101431 0.000000
# 6 0.000000 0.000000 0.000000 0.000000 0.000000 1.026932
#
#
# Mechanical properties :
#
#
# Convention : Reuss Voigt Hill
#
# Bulk Modulus (GPa) = 14.95256 44.68293 29.81774
# Shear Modulus (GPa) = 3.79827 18.29975 11.04901
#
# Velocity S-wave (km/s) = 1.56966 3.44537 2.67716
# Velocity P-wave (km/s) = 3.60339 6.69418 5.37571
#
# Compressibility (1/GPa) = 0.06687820
#
# Stress axis : x y z
#
# Youngs Moduli (GPa) = 22.16044 73.09972 27.14350
#
# Poissons Ratio (x) = 0.37175 -0.19869
# Poissons Ratio (y) = 0.11270 0.45108
# Poissons Ratio (z) = -0.16221 1.21481
#
# Static dielectric constant tensor:
#      x y z
#    x 1.569520 0.000000 0.000000 
#    y 0.000000 1.574950 0.000000 
#    z 0.000000 0.000000 1.451740 
# 
# From -- ./inp_files/48987.got.cif
#   From: 2010.05.17/outbox.cif.g08.bks.cpg/sg74_25_cif.got.tgz:48987.got - 2010.06.03 17:57:02.
