data_PCOD9533135
_publ_section_title
;
Structure prediction by ZEFSAII (Michael W. Deem and Ramdas Pophale) SiO2 
 PCOD9533135
Probable space group: I B C A 
;
_chemical_formula_sum "Si O2"
_cell_formula_units_Z 72
_cell_length_a 17.236654
_cell_length_b 8.287575
_cell_length_c 19.419647
_cell_angle_alpha 90.000000
_cell_angle_beta 90.000000
_cell_angle_gamma 90.000000
_cell_volume 2774.097793
_symmetry_space_group_name_H-M "I B C A "
_symmetry_group_IT_number 73
_symmetry_cell_setting 'orthorhombic'
loop_
_space_group_symop_operation_xyz
x,y,z
-x,1/2-y,z
x,-y,1/2-z
1/2-x,y,-z
-x,-y,-z
x,1/2+y,-z
-x,y,1/2+z
1/2+x,-y,z
1/2+x,1/2+y,1/2+z
1/2-x,-y,1/2+z
1/2+x,1/2-y,-z
-x,1/2+y,1/2-z
1/2-x,1/2-y,1/2-z
1/2+x,y,1/2-z
1/2-x,1/2+y,z
x,1/2-y,1/2+z
loop_
_atom_site_type_symbol
_atom_site_label
_atom_site_fract_x
_atom_site_fract_y
_atom_site_fract_z
Si Si1 0.980937 0.078900 0.831842
Si Si2 0.379142 0.500000 0.750000
Si Si3 0.665032 0.851224 0.206136
Si Si4 0.421864 0.089651 0.520776
Si Si5 0.816618 0.309814 0.052935
O O1 0.942274 0.144197 0.902299
O O2 0.000000 0.250000 0.794191
O O3 0.918298 0.938475 0.812735
O O4 0.064654 0.998732 0.818120
O O5 0.340898 0.319928 0.754205
O O6 0.704786 0.814153 0.132798
O O7 0.700856 0.000000 0.250000
O O8 0.395534 0.211408 0.462211
O O9 0.500000 0.000000 0.500000
O O10 0.345825 0.983510 0.529818
O O11 0.750000 0.263136 0.000000
#
# Coordination Sequence:
#
# PCOD9533135 Si02
#       5
#    16   8  16  16  16
#     4  11  19  34  62 102 156 195 242 326 402 458
#     4  12  20  36  68 110 158 204 254 334 416 470
#     4  11  23  41  69 111 152 208 266 328 396 492
#     4  11  23  41  71 112 145 199 271 329 385 482
#     4  11  25  47  75 109 161 214 261 330 415 481
#
# _framework density 25.954384000000001
#
# number of rings (size 3 to 8) (size 9 to 14) (size 15 to 20)
#    0.000    0.889    3.333    4.667    0.000    3.556 
#    0.000    0.000    0.000   13.333    2.889    0.000 
#    0.000    0.000    0.000    0.000    0.000    0.000 
#
# Total GULP energy -200435.482299 kJ/mol
# GULP energy per Si atom -5567.652286 kJ/mol
# Density = 2.589531 g / cm^3
# Si number density = 25.954384 Si / 1000 Ang^3
#
#
#
# Elastic Constant Matrix: (Units=GPa)
#
#
# Indices 1 2 3 4 5 6 
#
# 1 103.1692 66.1143 45.4876 0.0000 0.0000 0.0000
# 2 66.1143 169.4309 53.7764 0.0000 0.0000 0.0000
# 3 45.4876 53.7764 146.9327 0.0000 0.0000 0.0000
# 4 0.0000 0.0000 0.0000 30.2739 0.0000 0.0000
# 5 0.0000 0.0000 0.0000 0.0000 25.1545 0.0000
# 6 0.0000 0.0000 0.0000 0.0000 0.0000 53.2179
#
#
#
# Elastic Compliance Matrix: (Units=1/GPa)
#
#
# Indices 1 2 3 4 5 6 
#
# 1 0.013746 -0.004541 -0.002594 0.000000 0.000000 0.000000
# 2 -0.004541 0.008178 -0.001587 0.000000 0.000000 0.000000
# 3 -0.002594 -0.001587 0.008190 0.000000 0.000000 0.000000
# 4 0.000000 0.000000 0.000000 0.033032 0.000000 0.000000
# 5 0.000000 0.000000 0.000000 0.000000 0.039754 0.000000
# 6 0.000000 0.000000 0.000000 0.000000 0.000000 0.018791
#
#
# Mechanical properties :
#
#
# Convention : Reuss Voigt Hill
#
# Bulk Modulus (GPa) = 78.92473 83.36546 81.14509
# Shear Modulus (GPa) = 34.87784 38.67288 36.77536
#
# Velocity S-wave (km/s) = 3.66978 3.86428 3.76829
# Velocity P-wave (km/s) = 6.95927 7.21803 7.08983
#
# Compressibility (1/GPa) = 0.01267030
#
# Stress axis : x y z
#
# Youngs Moduli (GPa) = 72.74706 122.28272 122.10413
#
# Poissons Ratio (x) = 0.55526 0.31670
# Poissons Ratio (y) = 0.33033 0.19381
# Poissons Ratio (z) = 0.18868 0.19410
#
# Static dielectric constant tensor:
#      x y z
#    x 2.046550 0.000000 0.000000 
#    y 0.000000 2.178790 0.000000 
#    z 0.000000 0.000000 1.975430 
# 
# From -- ./inp_files/26853.got.cif
#   From: 2010.05.17/outbox.cif.g08.bks.cpg/sg73_14_cif.got.tgz:26853.got - 2010.06.03 17:35:07.
