data_PCOD9533625
_publ_section_title
;
Structure prediction by ZEFSAII (Michael W. Deem and Ramdas Pophale) SiO2 
 PCOD9533625
Probable space group: I B C A 
;
_chemical_formula_sum "Si O2"
_cell_formula_units_Z 64
_cell_length_a 24.468203
_cell_length_b 20.982692
_cell_length_c 5.383714
_cell_angle_alpha 90.000000
_cell_angle_beta 90.000000
_cell_angle_gamma 90.000000
_cell_volume 2764.045968
_symmetry_space_group_name_H-M "I B C A "
_symmetry_group_IT_number 73
_symmetry_cell_setting 'orthorhombic'
loop_
_space_group_symop_operation_xyz
x,y,z
-x,1/2-y,z
x,-y,1/2-z
1/2-x,y,-z
-x,-y,-z
x,1/2+y,-z
-x,y,1/2+z
1/2+x,-y,z
1/2+x,1/2+y,1/2+z
1/2-x,-y,1/2+z
1/2+x,1/2-y,-z
-x,1/2+y,1/2-z
1/2-x,1/2-y,1/2-z
1/2+x,y,1/2-z
1/2-x,1/2+y,z
x,1/2-y,1/2+z
loop_
_atom_site_type_symbol
_atom_site_label
_atom_site_fract_x
_atom_site_fract_y
_atom_site_fract_z
Si Si1 0.861907 0.765933 0.444779
Si Si2 0.035368 0.000000 0.750000
Si Si3 0.250000 0.813516 0.500000
Si Si4 0.297722 0.569510 0.245728
Si Si5 0.635360 0.091492 0.760823
O O1 0.886756 0.775845 0.719655
O O2 0.802135 0.733647 0.496590
O O3 0.864571 0.833637 0.310025
O O4 0.076095 0.939701 0.753017
O O5 0.000000 0.000000 0.500000
O O6 0.238798 0.865976 0.280163
O O7 0.269376 0.500000 0.250000
O O8 0.333032 0.567882 0.494410
O O9 0.335313 0.575980 0.000204
#
# Coordination Sequence:
#
# PCOD9533625 Si02
#       5
#    16   8   8  16  16
#     4  12  24  41  68 102 146 197 249 284 341 435
#     4  12  26  48  84 104 132 176 242 314 398 482
#     4  12  26  42  68 106 150 210 260 270 344 408
#     4  12  25  41  65  99 156 197 246 296 342 428
#     4  12  24  45  71 103 140 182 240 305 385 423
#
# _framework density 23.154463
#
# number of rings (size 3 to 8) (size 9 to 14) (size 15 to 20)
#    0.000    0.000    7.500    2.250    0.000    3.000 
#    0.000    0.000    0.000    4.500    0.000    0.000 
#    0.000    0.000    0.000    0.000    0.000    0.000 
#
# Total GULP energy -178610.367337 kJ/mol
# GULP energy per Si atom -5581.573979 kJ/mol
# Density = 2.310176 g / cm^3
# Si number density = 23.154463 Si / 1000 Ang^3
#
#
#
# Elastic Constant Matrix: (Units=GPa)
#
#
# Indices 1 2 3 4 5 6 
#
# 1 103.0603 48.3381 74.6525 0.0000 0.0000 0.0000
# 2 48.3381 139.9941 6.4002 0.0000 0.0000 0.0000
# 3 74.6525 6.4002 244.5920 0.0000 0.0000 0.0000
# 4 0.0000 0.0000 0.0000 18.4164 0.0000 0.0000
# 5 0.0000 0.0000 0.0000 0.0000 42.6548 0.0000
# 6 0.0000 0.0000 0.0000 0.0000 0.0000 36.0265
#
#
#
# Elastic Compliance Matrix: (Units=1/GPa)
#
#
# Indices 1 2 3 4 5 6 
#
# 1 0.015411 -0.005112 -0.004570 0.000000 0.000000 0.000000
# 2 -0.005112 0.008848 0.001329 0.000000 0.000000 0.000000
# 3 -0.004570 0.001329 0.005448 0.000000 0.000000 0.000000
# 4 0.000000 0.000000 0.000000 0.054299 0.000000 0.000000
# 5 0.000000 0.000000 0.000000 0.000000 0.023444 0.000000
# 6 0.000000 0.000000 0.000000 0.000000 0.000000 0.027757
#
#
# Mechanical properties :
#
#
# Convention : Reuss Voigt Hill
#
# Bulk Modulus (GPa) = 76.92054 82.93642 79.92848
# Shear Modulus (GPa) = 32.00035 43.30323 37.65179
#
# Velocity S-wave (km/s) = 3.72161 4.32926 4.03688
# Velocity P-wave (km/s) = 7.19444 7.80298 7.50488
#
# Compressibility (1/GPa) = 0.01300043
#
# Stress axis : x y z
#
# Youngs Moduli (GPa) = 64.88825 113.02468 183.53824
#
# Poissons Ratio (x) = 0.57782 0.83875
# Poissons Ratio (y) = 0.33173 -0.24389
# Poissons Ratio (z) = 0.29653 -0.15019
#
# Static dielectric constant tensor:
#      x y z
#    x 1.843430 0.000000 0.000000 
#    y 0.000000 1.972770 0.000000 
#    z 0.000000 0.000000 2.213020 
# 
# From -- ./inp_files/2035.got.cif
#   From: 2010.05.17/outbox.cif.g08.bks.cpg/sg73_2_cif.got.tgz:2035.got - 2010.06.03 17:35:07.
