data_PCOD9533010
_publ_section_title
;
Structure prediction by ZEFSAII (Michael W. Deem and Ramdas Pophale) SiO2 
 PCOD9533010
Probable space group: I B C A 
;
_chemical_formula_sum "Si O2"
_cell_formula_units_Z 88
_cell_length_a 28.148489
_cell_length_b 9.584309
_cell_length_c 15.593827
_cell_angle_alpha 90.000000
_cell_angle_beta 90.000000
_cell_angle_gamma 90.000000
_cell_volume 4206.962161
_symmetry_space_group_name_H-M "I B C A "
_symmetry_group_IT_number 73
_symmetry_cell_setting 'orthorhombic'
loop_
_space_group_symop_operation_xyz
x,y,z
-x,1/2-y,z
x,-y,1/2-z
1/2-x,y,-z
-x,-y,-z
x,1/2+y,-z
-x,y,1/2+z
1/2+x,-y,z
1/2+x,1/2+y,1/2+z
1/2-x,-y,1/2+z
1/2+x,1/2-y,-z
-x,1/2+y,1/2-z
1/2-x,1/2-y,1/2-z
1/2+x,y,1/2-z
1/2-x,1/2+y,z
x,1/2-y,1/2+z
loop_
_atom_site_type_symbol
_atom_site_label
_atom_site_fract_x
_atom_site_fract_y
_atom_site_fract_z
Si Si1 0.878402 0.500000 0.250000
Si Si2 0.638015 0.000000 0.750000
Si Si3 0.500000 0.750000 0.999215
Si Si4 0.195875 0.270984 0.473280
Si Si5 0.196603 0.226593 0.283033
Si Si6 0.363416 0.046633 0.435356
Si Si7 0.941665 0.999754 0.578678
O O1 0.840460 0.375461 0.237311
O O2 0.912880 0.490205 0.332360
O O3 0.671926 0.126127 0.727018
O O4 0.614152 0.038831 0.840093
O O5 0.467086 0.649251 0.059440
O O6 0.524295 0.634064 0.937334
O O7 0.250000 0.287762 0.500000
O O8 0.196217 0.185914 0.383523
O O9 0.164888 0.188123 0.543148
O O10 0.173095 0.420138 0.452490
O O11 0.250000 0.250000 0.250000
O O12 0.404124 0.022724 0.503244
#
# Coordination Sequence:
#
# PCOD9533010 Si02
#       7
#     8   8   8  16  16  16  16
#     4  12  27  44  75 104 140 190 232 289 332 427
#     4  10  25  38  63  94 132 190 222 283 332 391
#     4  10  26  50  76 102 138 172 218 310 358 448
#     4  11  23  37  61  96 137 186 229 278 326 389
#     4  11  24  41  61 100 143 186 237 278 326 397
#     4  11  23  42  64  97 134 181 229 275 337 421
#     4  11  25  48  74 105 136 174 229 282 369 422
#
# _framework density 20.917705999999999
#
# number of rings (size 3 to 8) (size 9 to 14) (size 15 to 20)
#    0.000    1.091    1.818    3.273   10.182    3.636 
#    0.000    3.636    0.000    0.000    0.000    0.000 
#    0.000    0.000    0.000    0.000    0.000    0.000 
#
# Total GULP energy -245502.631546 kJ/mol
# GULP energy per Si atom -5579.605262 kJ/mol
# Density = 2.087010 g / cm^3
# Si number density = 20.917706 Si / 1000 Ang^3
#
#
#
# Elastic Constant Matrix: (Units=GPa)
#
#
# Indices 1 2 3 4 5 6 
#
# 1 83.3937 26.6769 42.9925 0.0000 0.0000 0.0000
# 2 26.6769 107.9683 19.0437 0.0000 0.0000 0.0000
# 3 42.9925 19.0437 162.2401 0.0000 0.0000 0.0000
# 4 0.0000 0.0000 0.0000 25.2845 0.0000 0.0000
# 5 0.0000 0.0000 0.0000 0.0000 1.0621 0.0000
# 6 0.0000 0.0000 0.0000 0.0000 0.0000 45.6174
#
#
#
# Elastic Compliance Matrix: (Units=1/GPa)
#
#
# Indices 1 2 3 4 5 6 
#
# 1 0.014798 -0.003027 -0.003566 0.000000 0.000000 0.000000
# 2 -0.003027 0.010077 -0.000381 0.000000 0.000000 0.000000
# 3 -0.003566 -0.000381 0.007153 0.000000 0.000000 0.000000
# 4 0.000000 0.000000 0.000000 0.039550 0.000000 0.000000
# 5 0.000000 0.000000 0.000000 0.000000 0.941525 0.000000
# 6 0.000000 0.000000 0.000000 0.000000 0.000000 0.021921
#
#
# Mechanical properties :
#
#
# Convention : Reuss Voigt Hill
#
# Bulk Modulus (GPa) = 55.30797 59.00314 57.15556
# Shear Modulus (GPa) = 4.73934 32.05206 18.39570
#
# Velocity S-wave (km/s) = 1.50686 3.91870 2.96874
# Velocity P-wave (km/s) = 5.43375 6.98165 6.25576
#
# Compressibility (1/GPa) = 0.01808058
#
# Stress axis : x y z
#
# Youngs Moduli (GPa) = 67.57588 99.23474 139.79441
#
# Poissons Ratio (x) = 0.30042 0.49852
# Poissons Ratio (y) = 0.20458 0.05321
# Poissons Ratio (z) = 0.24098 0.03777
#
# Static dielectric constant tensor:
#      x y z
#    x 1.758840 0.000000 0.000000 
#    y 0.000000 1.814850 0.000000 
#    z 0.000000 0.000000 1.822560 
# 
# From -- ./inp_files/19300.got.cif
#   From: 2010.05.17/outbox.cif.g08.bks.cpg/sg73_10_cif.got.tgz:19300.got - 2010.06.03 17:35:07.
