data_PCOD9533844
_publ_section_title
;
Structure prediction by ZEFSAII (Michael W. Deem and Ramdas Pophale) SiO2 
 PCOD9533844
Probable space group: I M M A
;
_chemical_formula_sum "Si O2"
_cell_formula_units_Z 64
_cell_length_a 15.518214
_cell_length_b 24.631613
_cell_length_c 7.175774
_cell_angle_alpha 90.000000
_cell_angle_beta 90.000000
_cell_angle_gamma 90.000000
_cell_volume 2742.858107
_symmetry_space_group_name_H-M "I M M A"
_symmetry_group_IT_number 74
_symmetry_cell_setting 'orthorhombic'
loop_
_space_group_symop_operation_xyz
x,y,z
-x,1/2-y,z
x,-y,-z
-x,1/2+y,-z
-x,-y,-z
x,1/2+y,-z
-x,y,z
x,1/2-y,z
1/2+x,1/2+y,1/2+z
1/2-x,-y,1/2+z
1/2+x,1/2-y,1/2-z
1/2-x,y,1/2-z
1/2-x,1/2-y,1/2-z
1/2+x,y,1/2-z
1/2-x,1/2+y,1/2+z
1/2+x,-y,1/2+z
loop_
_atom_site_type_symbol
_atom_site_label
_atom_site_fract_x
_atom_site_fract_y
_atom_site_fract_z
Si Si1 0.712906 0.250000 0.043629
Si Si2 0.099208 0.354239 0.414805
Si Si3 0.594580 0.628284 0.464241
Si Si4 0.262101 0.936023 0.970368
Si Si5 0.904178 0.750000 0.093694
O O1 0.750000 0.250000 0.250000
O O2 0.653625 0.197872 0.026695
O O3 0.801011 0.250000 0.934251
O O4 0.101129 0.356431 0.186646
O O5 0.148025 0.405447 0.504088
O O6 0.000000 0.351100 0.467602
O O7 0.500000 0.601645 0.438616
O O8 0.679225 0.591709 0.431630
O O9 0.592891 0.685420 0.354767
O O10 0.250000 0.927214 0.750000
O O11 0.265153 0.000000 0.000000
O O12 0.000000 0.750000 0.987693
#
# Coordination Sequence:
#
# PCOD9533844 Si02
#       5
#     8  16  16  16   8
#     4  12  15  23  40  67  99 125 153 187 242 293
#     4  10  18  27  42  66  96 128 157 192 237 289
#     4   9  16  27  43  67  95 121 150 191 242 288
#     4  10  20  34  49  68  94 127 164 201 234 278
#     4  10  16  23  40  67  98 123 146 187 247 297
#
# _framework density 23.333326
#
# number of rings (size 3 to 8) (size 9 to 14) (size 15 to 20)
#    0.000    2.000    5.000    1.125    0.000    1.000 
#    0.000    0.000    0.000    0.000    0.000    3.500 
#    0.000    4.000    0.000    0.000    0.000    0.000 
#
# Total GULP energy -178245.182125 kJ/mol
# GULP energy per Si atom -5570.161941 kJ/mol
# Density = 2.328022 g / cm^3
# Si number density = 23.333326 Si / 1000 Ang^3
#
#
#
# Elastic Constant Matrix: (Units=GPa)
#
#
# Indices 1 2 3 4 5 6 
#
# 1 277.4403 108.3283 27.2972 0.0000 0.0000 0.0000
# 2 108.3283 162.9444 -3.4305 0.0001 0.0000 0.0000
# 3 27.2972 -3.4305 84.9414 0.0003 0.0000 0.0003
# 4 0.0000 0.0001 0.0003 7.2461 0.0000 0.0001
# 5 0.0000 0.0000 0.0000 0.0000 12.7384 0.0001
# 6 0.0000 0.0000 0.0003 0.0001 0.0001 38.0167
#
#
#
# Elastic Compliance Matrix: (Units=1/GPa)
#
#
# Indices 1 2 3 4 5 6 
#
# 1 0.005125 -0.003445 -0.001786 0.000000 0.000000 0.000000
# 2 -0.003445 0.008458 0.001449 0.000000 0.000000 0.000000
# 3 -0.001786 0.001449 0.012405 -0.000001 0.000000 0.000000
# 4 0.000000 0.000000 -0.000001 0.138006 0.000000 0.000000
# 5 0.000000 0.000000 0.000000 0.000000 0.078503 0.000000
# 6 0.000000 0.000000 0.000000 0.000000 0.000000 0.026304
#
#
# Mechanical properties :
#
#
# Convention : Reuss Voigt Hill
#
# Bulk Modulus (GPa) = 54.27866 87.74625 71.01245
# Shear Modulus (GPa) = 17.69865 37.80897 27.75381
#
# Velocity S-wave (km/s) = 2.75710 4.02977 3.45258
# Velocity P-wave (km/s) = 5.78345 7.70320 6.81130
#
# Compressibility (1/GPa) = 0.01842345
#
# Stress axis : x y z
#
# Youngs Moduli (GPa) = 195.11349 118.23375 80.61037
#
# Poissons Ratio (x) = 0.40731 0.14399
# Poissons Ratio (y) = 0.67216 -0.11678
# Poissons Ratio (z) = 0.34851 -0.17128
#
# Static dielectric constant tensor:
#      x y z
#    x 1.822030 0.000000 0.000000 
#    y 0.000000 1.826060 0.000000 
#    z 0.000000 0.000000 2.044870 
# 
# From -- ./inp_files/8862.got.cif
#   From: 2010.05.17/outbox.cif.g08.bks.cpg/sg74_5_cif.got.tgz:8862.got - 2010.06.03 17:57:02.
