data_PCOD9533042
_publ_section_title
;
Structure prediction by ZEFSAII (Michael W. Deem and Ramdas Pophale) SiO2 
 PCOD9533042
Probable space group: I B C A 
;
_chemical_formula_sum "Si O2"
_cell_formula_units_Z 80
_cell_length_a 15.576817
_cell_length_b 7.862832
_cell_length_c 26.380347
_cell_angle_alpha 90.000000
_cell_angle_beta 90.000000
_cell_angle_gamma 90.000000
_cell_volume 3231.009374
_symmetry_space_group_name_H-M "I B C A "
_symmetry_group_IT_number 73
_symmetry_cell_setting 'orthorhombic'
loop_
_space_group_symop_operation_xyz
x,y,z
-x,1/2-y,z
x,-y,1/2-z
1/2-x,y,-z
-x,-y,-z
x,1/2+y,-z
-x,y,1/2+z
1/2+x,-y,z
1/2+x,1/2+y,1/2+z
1/2-x,-y,1/2+z
1/2+x,1/2-y,-z
-x,1/2+y,1/2-z
1/2-x,1/2-y,1/2-z
1/2+x,y,1/2-z
1/2-x,1/2+y,z
x,1/2-y,1/2+z
loop_
_atom_site_type_symbol
_atom_site_label
_atom_site_fract_x
_atom_site_fract_y
_atom_site_fract_z
Si Si1 0.679050 0.379034 0.798827
Si Si2 0.315310 0.519135 0.952624
Si Si3 0.654934 0.015066 0.841066
Si Si4 0.412680 0.349936 0.032910
Si Si5 0.530522 0.555492 0.625345
O O1 0.674879 0.500000 0.750000
O O2 0.653789 0.178942 0.803737
O O3 0.778113 0.384110 0.817112
O O4 0.608510 0.461656 0.835794
O O5 0.302602 0.446928 0.896579
O O6 0.340567 0.716742 0.948966
O O7 0.250000 0.508163 0.000000
O O8 0.393489 0.416271 0.977161
O O9 0.557191 0.961927 0.855561
O O10 0.500000 0.250000 0.032622
O O11 0.427629 0.498392 0.072759
O O12 0.500000 0.750000 0.622824
#
# Coordination Sequence:
#
# PCOD9533042 Si02
#       5
#    16  16  16  16  16
#     4  11  26  48  76 107 142 190 252 319 384 454
#     4  12  28  42  70 108 150 200 251 308 369 455
#     4  11  26  47  73 107 152 194 245 315 380 453
#     4  12  26  44  69 104 147 198 249 297 370 449
#     4  10  25  48  74 105 152 199 244 314 382 447
#
# _framework density 24.760065000000001
#
# number of rings (size 3 to 8) (size 9 to 14) (size 15 to 20)
#    0.000    0.800    2.000    3.000   14.000    0.800 
#    0.000    5.000    0.000    0.000    0.000    0.000 
#    0.000    0.000    0.000    0.000    0.000    0.000 
#
# Total GULP energy -223645.890136 kJ/mol
# GULP energy per Si atom -5591.147253 kJ/mol
# Density = 2.470371 g / cm^3
# Si number density = 24.760065 Si / 1000 Ang^3
#
#
#
# Elastic Constant Matrix: (Units=GPa)
#
#
# Indices 1 2 3 4 5 6 
#
# 1 61.8249 3.4447 1.5940 0.0000 0.0000 0.0000
# 2 3.4447 57.5935 37.0633 0.0000 0.0000 0.0000
# 3 1.5940 37.0633 109.3149 0.0000 0.0000 0.0000
# 4 0.0000 0.0000 0.0000 15.6763 0.0000 0.0000
# 5 0.0000 0.0000 0.0000 0.0000 40.4678 0.0000
# 6 0.0000 0.0000 0.0000 0.0000 0.0000 34.7641
#
#
#
# Elastic Compliance Matrix: (Units=1/GPa)
#
#
# Indices 1 2 3 4 5 6 
#
# 1 0.016230 -0.001047 0.000118 0.000000 0.000000 0.000000
# 2 -0.001047 0.022276 -0.007538 0.000000 0.000000 0.000000
# 3 0.000118 -0.007538 0.011702 0.000000 0.000000 0.000000
# 4 0.000000 0.000000 0.000000 0.063791 0.000000 0.000000
# 5 0.000000 0.000000 0.000000 0.000000 0.024711 0.000000
# 6 0.000000 0.000000 0.000000 0.000000 0.000000 0.028765
#
#
# Mechanical properties :
#
#
# Convention : Reuss Voigt Hill
#
# Bulk Modulus (GPa) = 30.05178 34.77080 32.41129
# Shear Modulus (GPa) = 25.57553 30.62371 28.09962
#
# Velocity S-wave (km/s) = 3.21742 3.52066 3.37245
# Velocity P-wave (km/s) = 5.09568 5.53175 5.31819
#
# Compressibility (1/GPa) = 0.03327589
#
# Stress axis : x y z
#
# Youngs Moduli (GPa) = 61.61431 44.89068 85.45719
#
# Poissons Ratio (x) = 0.04699 -0.01011
# Poissons Ratio (y) = 0.06450 0.64414
# Poissons Ratio (z) = -0.00729 0.33837
#
# Static dielectric constant tensor:
#      x y z
#    x 2.092160 0.000000 0.000000 
#    y 0.000000 1.998550 0.000000 
#    z 0.000000 0.000000 1.928030 
# 
# From -- ./inp_files/32319.got.cif
#   From: 2010.05.17/outbox.cif.g08.bks.cpg/sg73_17_cif.got.tgz:32319.got - 2010.06.03 17:35:07.
