data_PCOD9533907
_publ_section_title
;
Structure prediction by ZEFSAII (Michael W. Deem and Ramdas Pophale) SiO2 
 PCOD9533907
Probable space group: I M M A
;
_chemical_formula_sum "Si O2"
_cell_formula_units_Z 80
_cell_length_a 10.416226
_cell_length_b 24.325061
_cell_length_c 21.808581
_cell_angle_alpha 90.000000
_cell_angle_beta 90.000000
_cell_angle_gamma 90.000000
_cell_volume 5525.756470
_symmetry_space_group_name_H-M "I M M A"
_symmetry_group_IT_number 74
_symmetry_cell_setting 'orthorhombic'
loop_
_space_group_symop_operation_xyz
x,y,z
-x,1/2-y,z
x,-y,-z
-x,1/2+y,-z
-x,-y,-z
x,1/2+y,-z
-x,y,z
x,1/2-y,z
1/2+x,1/2+y,1/2+z
1/2-x,-y,1/2+z
1/2+x,1/2-y,1/2-z
1/2-x,y,1/2-z
1/2-x,1/2-y,1/2-z
1/2+x,y,1/2-z
1/2-x,1/2+y,1/2+z
1/2+x,-y,1/2+z
loop_
_atom_site_type_symbol
_atom_site_label
_atom_site_fract_x
_atom_site_fract_y
_atom_site_fract_z
Si Si1 0.737765 0.584200 0.878723
Si Si2 0.000000 0.137484 0.165587
Si Si3 0.000000 0.250000 0.088930
Si Si4 0.851337 0.023850 0.569555
Si Si5 0.000000 0.250000 0.386694
Si Si6 0.233503 0.750000 0.516213
Si Si7 0.000000 0.137008 0.311010
Si Si8 0.655431 0.366826 0.989475
O O1 0.728457 0.518842 0.890215
O O2 0.625352 0.604174 0.833584
O O3 0.707003 0.612838 0.944410
O O4 0.873543 0.604677 0.854820
O O5 0.000000 0.195946 0.131172
O O6 0.000000 0.145059 0.238502
O O7 0.872544 0.250000 0.047334
O O8 0.809743 0.086875 0.560657
O O9 0.000000 0.021969 0.590009
O O10 0.850336 0.000000 0.500000
O O11 0.125154 0.250000 0.430118
O O12 0.000000 0.195586 0.345526
O O13 0.208717 0.806022 0.479224
O O14 0.500000 0.365717 0.993455
#
# Coordination Sequence:
#
# PCOD9533907 Si02
#       8
#    16   8   4  16   4   8   8  16
#     4  11  18  34  46  64  87 114 152 194 233 268
#     4  12  25  32  44  63  89 125 159 202 227 260
#     4  12  23  36  38  56 100 126 154 188 245 252
#     4   8  15  27  50  70  83 106 144 189 232 276
#     4  12  19  32  50  60  80 118 170 204 219 244
#     4  12  18  30  49  66  92 122 149 193 222 269
#     4  12  21  34  48  61  83 121 169 198 227 254
#     4  10  16  29  51  71  84 113 153 184 226 275
#
# _framework density 14.477656
#
# number of rings (size 3 to 8) (size 9 to 14) (size 15 to 20)
#    0.000    1.400    7.000    2.100    0.000    0.000 
#    0.000    8.500    0.000    0.000    0.000    0.000 
#    0.000    0.000    0.000    5.400    0.000    0.100 
#
# Total GULP energy -223071.891240 kJ/mol
# GULP energy per Si atom -5576.797281 kJ/mol
# Density = 1.444470 g / cm^3
# Si number density = 14.477656 Si / 1000 Ang^3
#
#
#
# Elastic Constant Matrix: (Units=GPa)
#
#
# Indices 1 2 3 4 5 6 
#
# 1 109.2507 50.1424 26.4493 0.0000 0.0000 0.0000
# 2 50.1424 153.7922 38.2699 0.0000 0.0000 0.0000
# 3 26.4493 38.2699 23.8053 0.0000 0.0000 0.0000
# 4 0.0000 0.0000 0.0000 7.6122 0.0000 0.0000
# 5 0.0000 0.0000 0.0000 0.0000 3.4768 0.0000
# 6 0.0000 0.0000 0.0000 0.0000 0.0000 20.8644
#
#
#
# Elastic Compliance Matrix: (Units=1/GPa)
#
#
# Indices 1 2 3 4 5 6 
#
# 1 0.012621 -0.001043 -0.012347 0.000000 0.000000 0.000000
# 2 -0.001043 0.010924 -0.016403 0.000000 0.000000 0.000000
# 3 -0.012347 -0.016403 0.082096 0.000000 0.000000 0.000000
# 4 0.000000 0.000000 0.000000 0.131367 0.000000 0.000000
# 5 0.000000 0.000000 0.000000 0.000000 0.287624 0.000000
# 6 0.000000 0.000000 0.000000 0.000000 0.000000 0.047929
#
#
# Mechanical properties :
#
#
# Convention : Reuss Voigt Hill
#
# Bulk Modulus (GPa) = 21.71284 57.39682 39.55483
# Shear Modulus (GPa) = 7.72203 17.85644 12.78924
#
# Velocity S-wave (km/s) = 2.31200 3.51576 2.97539
# Velocity P-wave (km/s) = 4.70714 7.49746 6.25976
#
# Compressibility (1/GPa) = 0.04605570
#
# Stress axis : x y z
#
# Youngs Moduli (GPa) = 79.23395 91.54137 12.18087
#
# Poissons Ratio (x) = 0.09544 0.15039
# Poissons Ratio (y) = 0.08260 0.19981
# Poissons Ratio (z) = 0.97827 1.50159
#
# Static dielectric constant tensor:
#      x y z
#    x 1.467620 0.000000 0.000000 
#    y 0.000000 1.521210 0.000000 
#    z 0.000000 0.000000 1.440720 
# 
# From -- ./inp_files/48681.got.cif
#   From: 2010.05.17/outbox.cif.g08.bks.cpg/sg74_25_cif.got.tgz:48681.got - 2010.06.03 17:57:02.
