data_PCOD9533264
_publ_section_title
;
Structure prediction by ZEFSAII (Michael W. Deem and Ramdas Pophale) SiO2 
 PCOD9533264
Probable space group: I B C A 
;
_chemical_formula_sum "Si O2"
_cell_formula_units_Z 96
_cell_length_a 13.472847
_cell_length_b 15.303878
_cell_length_c 20.143957
_cell_angle_alpha 90.000000
_cell_angle_beta 90.000000
_cell_angle_gamma 90.000000
_cell_volume 4153.418170
_symmetry_space_group_name_H-M "I B C A "
_symmetry_group_IT_number 73
_symmetry_cell_setting 'orthorhombic'
loop_
_space_group_symop_operation_xyz
x,y,z
-x,1/2-y,z
x,-y,1/2-z
1/2-x,y,-z
-x,-y,-z
x,1/2+y,-z
-x,y,1/2+z
1/2+x,-y,z
1/2+x,1/2+y,1/2+z
1/2-x,-y,1/2+z
1/2+x,1/2-y,-z
-x,1/2+y,1/2-z
1/2-x,1/2-y,1/2-z
1/2+x,y,1/2-z
1/2-x,1/2+y,z
x,1/2-y,1/2+z
loop_
_atom_site_type_symbol
_atom_site_label
_atom_site_fract_x
_atom_site_fract_y
_atom_site_fract_z
Si Si1 0.984262 0.144352 0.608048
Si Si2 0.263025 0.577259 0.296329
Si Si3 0.178088 0.049105 0.560790
Si Si4 0.243882 0.854686 0.429137
Si Si5 0.345319 0.802671 0.299674
Si Si6 0.965490 0.628225 0.234609
O O1 0.871011 0.123590 0.586675
O O2 0.990116 0.122292 0.687130
O O3 0.000000 0.250000 0.601375
O O4 0.067432 0.090866 0.566015
O O5 0.223177 0.500000 0.250000
O O6 0.226084 0.578059 0.370080
O O7 0.224128 0.662445 0.258586
O O8 0.381350 0.566414 0.294750
O O9 0.250000 0.076908 0.500000
O O10 0.190434 0.943182 0.563020
O O11 0.250000 0.807899 0.500000
O O12 0.286400 0.799620 0.368010
O O13 0.433517 0.874445 0.305929
O O14 0.408257 0.719623 0.277881
#
# Coordination Sequence:
#
# PCOD9533264 Si02
#       6
#    16  16  16  16  16  16
#     4  12  24  46  75 104 143 194 240 307 380 436
#     4  12  22  39  67 101 133 179 240 292 355 435
#     4  11  26  46  71 104 148 193 242 303 374 456
#     4  11  27  47  68 101 150 191 244 308 370 452
#     4  11  22  42  66  99 134 184 234 297 356 433
#     4  11  23  39  70  99 137 180 239 299 358 431
#
# _framework density 23.113492999999998
#
# number of rings (size 3 to 8) (size 9 to 14) (size 15 to 20)
#    0.000    0.667    6.667    0.500    2.333    8.000 
#    3.000    0.000    0.000    0.000    0.000    0.000 
#    0.000    0.000    0.000    0.000    0.000    0.000 
#
# Total GULP energy -268089.836280 kJ/mol
# GULP energy per Si atom -5585.204922 kJ/mol
# Density = 2.306089 g / cm^3
# Si number density = 23.113493 Si / 1000 Ang^3
#
#
#
# Elastic Constant Matrix: (Units=GPa)
#
#
# Indices 1 2 3 4 5 6 
#
# 1 156.9014 3.3580 35.9842 0.0000 0.0000 0.0000
# 2 3.3580 68.1939 0.7835 0.0000 0.0000 0.0000
# 3 35.9842 0.7835 174.6549 0.0000 0.0000 0.0000
# 4 0.0000 0.0000 0.0000 9.2769 0.0000 0.0000
# 5 0.0000 0.0000 0.0000 0.0000 44.4297 0.0000
# 6 0.0000 0.0000 0.0000 0.0000 0.0000 -3.9888
#
#
#
# Elastic Compliance Matrix: (Units=1/GPa)
#
#
# Indices 1 2 3 4 5 6 
#
# 1 0.006696 -0.000314 -0.001378 0.000000 0.000000 0.000000
# 2 -0.000314 0.014680 -0.000001 0.000000 0.000000 0.000000
# 3 -0.001378 -0.000001 0.006010 0.000000 0.000000 0.000000
# 4 0.000000 0.000000 0.000000 0.107794 0.000000 0.000000
# 5 0.000000 0.000000 0.000000 0.000000 0.022507 0.000000
# 6 0.000000 0.000000 0.000000 0.000000 0.000000 -0.250704
#
#
# Mechanical properties :
#
#
# Convention : Reuss Voigt Hill
#
# Bulk Modulus (GPa) = 41.66889 53.33351 47.50120
# Shear Modulus (GPa) = -61.25138 33.91855 -13.66642
#
# Velocity S-wave (km/s) = -5.15343 3.83492 -2.43425
# Velocity P-wave (km/s) = 4.16453 6.53709 3.56302
#
# Compressibility (1/GPa) = 0.02399872
#
# Stress axis : x y z
#
# Youngs Moduli (GPa) = 149.33775 68.12200 166.40218
#
# Poissons Ratio (x) = 0.02138 0.22934
# Poissons Ratio (y) = 0.04688 0.00020
# Poissons Ratio (z) = 0.20582 0.00008
#
# Static dielectric constant tensor:
#      x y z
#    x 1.956910 0.000000 0.000000 
#    y 0.000000 2.101960 0.000000 
#    z 0.000000 0.000000 1.784610 
# 
# From -- ./inp_files/25990.got.cif
#   From: 2010.05.17/outbox.cif.g08.bks.cpg/sg73_13_cif.got.tgz:25990.got - 2010.06.03 17:35:07.
