data_PCOD9533325
_publ_section_title
;
Structure prediction by ZEFSAII (Michael W. Deem and Ramdas Pophale) SiO2 
 PCOD9533325
Probable space group: I B C A 
;
_chemical_formula_sum "Si O2"
_cell_formula_units_Z 48
_cell_length_a 8.223338
_cell_length_b 20.620383
_cell_length_c 12.003887
_cell_angle_alpha 90.000000
_cell_angle_beta 90.000000
_cell_angle_gamma 90.000000
_cell_volume 2035.479661
_symmetry_space_group_name_H-M "I B C A "
_symmetry_group_IT_number 73
_symmetry_cell_setting 'orthorhombic'
loop_
_space_group_symop_operation_xyz
x,y,z
-x,1/2-y,z
x,-y,1/2-z
1/2-x,y,-z
-x,-y,-z
x,1/2+y,-z
-x,y,1/2+z
1/2+x,-y,z
1/2+x,1/2+y,1/2+z
1/2-x,-y,1/2+z
1/2+x,1/2-y,-z
-x,1/2+y,1/2-z
1/2-x,1/2-y,1/2-z
1/2+x,y,1/2-z
1/2-x,1/2+y,z
x,1/2-y,1/2+z
loop_
_atom_site_type_symbol
_atom_site_label
_atom_site_fract_x
_atom_site_fract_y
_atom_site_fract_z
Si Si1 0.690996 0.766468 0.622395
Si Si2 0.165823 0.550856 0.889589
Si Si3 0.205135 0.914788 0.844289
O O1 0.500000 0.750000 0.624385
O O2 0.750000 0.739389 0.500000
O O3 0.750000 0.750000 0.750000
O O4 0.737703 0.842503 0.618247
O O5 0.268775 0.578973 0.787604
O O6 0.180321 0.472520 0.888149
O O7 0.979814 0.569059 0.874527
O O8 0.250000 0.575256 0.000000
#
# Coordination Sequence:
#
# PCOD9533325 Si02
#       3
#    16  16  16
#     4  12  28  49  73 102 141 190 241 290 344 411
#     4  11  23  41  68 100 136 175 215 279 350 411
#     4  11  24  42  67 102 136 174 226 277 341 414
#
# _framework density 23.581664
#
# number of rings (size 3 to 8) (size 9 to 14) (size 15 to 20)
#    0.000    0.667    0.000    9.000    0.000   10.667 
#    0.000    0.000    0.000    0.000    0.000    0.000 
#    0.000    0.000    0.000    0.000    0.000    0.000 
#
# Total GULP energy -134137.120550 kJ/mol
# GULP energy per Si atom -5589.046690 kJ/mol
# Density = 2.352799 g / cm^3
# Si number density = 23.581664 Si / 1000 Ang^3
#
#
#
# Elastic Constant Matrix: (Units=GPa)
#
#
# Indices 1 2 3 4 5 6 
#
# 1 74.5329 -24.2148 61.0155 0.0000 0.0000 0.0000
# 2 -24.2148 97.2259 25.0846 0.0000 0.0000 0.0000
# 3 61.0155 25.0846 255.0891 0.0003 0.0000 0.0000
# 4 0.0000 0.0000 0.0003 295.8619 0.0001 0.0000
# 5 0.0000 0.0000 0.0000 0.0001 91.8262 0.0000
# 6 0.0000 0.0000 0.0000 0.0000 0.0000 24.4073
#
#
#
# Elastic Compliance Matrix: (Units=1/GPa)
#
#
# Indices 1 2 3 4 5 6 
#
# 1 0.019879 0.006339 -0.005378 0.000000 0.000000 0.000000
# 2 0.006339 0.012574 -0.002753 0.000000 0.000000 0.000000
# 3 -0.005378 -0.002753 0.005477 0.000000 0.000000 0.000000
# 4 0.000000 0.000000 0.000000 0.003380 0.000000 0.000000
# 5 0.000000 0.000000 0.000000 0.000000 0.010890 0.000000
# 6 0.000000 0.000000 0.000000 0.000000 0.000000 0.040971
#
#
# Mechanical properties :
#
#
# Convention : Reuss Voigt Hill
#
# Bulk Modulus (GPa) = 29.11543 61.17985 45.14764
# Shear Modulus (GPa) = 46.20841 106.74989 76.47915
#
# Velocity S-wave (km/s) = 4.43143 6.73546 5.70105
# Velocity P-wave (km/s) = 6.20942 9.29993 7.90714
#
# Compressibility (1/GPa) = 0.03434605
#
# Stress axis : x y z
#
# Youngs Moduli (GPa) = 50.30410 79.52789 182.57077
#
# Poissons Ratio (x) = -0.50410 0.98191
# Poissons Ratio (y) = -0.31886 0.50256
# Poissons Ratio (z) = 0.27055 0.21891
#
# Static dielectric constant tensor:
#      x y z
#    x 1.807980 0.000000 0.000000 
#    y 0.000000 1.914500 0.000000 
#    z 0.000000 0.000000 2.103090 
# 
# From -- ./inp_files/8952.got.cif
#   From: 2010.05.17/outbox.cif.g08.bks.cpg/sg73_5_cif.got.tgz:8952.got - 2010.06.03 17:35:07.
