data_PCOD9533510
_publ_section_title
;
Structure prediction by ZEFSAII (Michael W. Deem and Ramdas Pophale) SiO2 
 PCOD9533510
Probable space group: I B C A 
;
_chemical_formula_sum "Si O2"
_cell_formula_units_Z 80
_cell_length_a 10.757179
_cell_length_b 23.284974
_cell_length_c 13.487380
_cell_angle_alpha 90.000000
_cell_angle_beta 90.000000
_cell_angle_gamma 90.000000
_cell_volume 3378.327484
_symmetry_space_group_name_H-M "I B C A "
_symmetry_group_IT_number 73
_symmetry_cell_setting 'orthorhombic'
loop_
_space_group_symop_operation_xyz
x,y,z
-x,1/2-y,z
x,-y,1/2-z
1/2-x,y,-z
-x,-y,-z
x,1/2+y,-z
-x,y,1/2+z
1/2+x,-y,z
1/2+x,1/2+y,1/2+z
1/2-x,-y,1/2+z
1/2+x,1/2-y,-z
-x,1/2+y,1/2-z
1/2-x,1/2-y,1/2-z
1/2+x,y,1/2-z
1/2-x,1/2+y,z
x,1/2-y,1/2+z
loop_
_atom_site_type_symbol
_atom_site_label
_atom_site_fract_x
_atom_site_fract_y
_atom_site_fract_z
Si Si1 0.878051 0.214557 0.240989
Si Si2 0.978792 0.065200 0.664027
Si Si3 0.122951 0.360262 0.052707
Si Si4 0.008396 0.555962 0.102686
Si Si5 0.766730 0.874512 0.107509
O O1 0.750000 0.250000 0.250000
O O2 0.903384 0.192288 0.128241
O O3 0.847280 0.163015 0.316918
O O4 0.000000 0.250000 0.272288
O O5 0.975654 0.060722 0.780940
O O6 0.872196 0.111378 0.641362
O O7 0.114948 0.087773 0.632135
O O8 0.960083 0.009602 0.594369
O O9 0.250000 0.346750 0.000000
O O10 0.044330 0.391771 0.964492
O O11 0.156371 0.566182 0.095849
O O12 0.750000 0.845973 0.000000
#
# Coordination Sequence:
#
# PCOD9533510 Si02
#       5
#    16  16  16  16  16
#     4  12  30  55  81 108 151 209 272 344 402 452
#     4  11  25  45  73 115 158 205 242 312 392 484
#     4  12  26  46  75 108 152 196 259 320 396 479
#     4  11  26  43  75 111 155 202 251 302 397 475
#     4  12  26  47  76 110 157 193 265 322 381 486
#
# _framework density 23.680357000000001
#
# number of rings (size 3 to 8) (size 9 to 14) (size 15 to 20)
#    0.000    0.400    4.000    3.000    5.600    2.400 
#    0.000    0.000    0.000    0.000    0.000    0.000 
#    0.000    0.000    0.000    0.000    0.000    0.000 
#
# Total GULP energy -222719.771427 kJ/mol
# GULP energy per Si atom -5567.994286 kJ/mol
# Density = 2.362646 g / cm^3
# Si number density = 23.680357 Si / 1000 Ang^3
#
#
#
# Elastic Constant Matrix: (Units=GPa)
#
#
# Indices 1 2 3 4 5 6 
#
# 1 95.8756 53.3004 30.9605 0.0000 0.0000 0.0000
# 2 53.3004 95.0115 45.5074 0.0000 0.0000 0.0000
# 3 30.9605 45.5074 138.4444 -0.0001 0.0001 0.0000
# 4 0.0000 0.0000 -0.0001 47.0710 0.0000 0.0000
# 5 0.0000 0.0000 0.0001 0.0000 36.9853 0.0000
# 6 0.0000 0.0000 0.0000 0.0000 0.0000 35.9520
#
#
#
# Elastic Compliance Matrix: (Units=1/GPa)
#
#
# Indices 1 2 3 4 5 6 
#
# 1 0.015216 -0.008197 -0.000708 0.000000 0.000000 0.000000
# 2 -0.008197 0.016907 -0.003724 0.000000 0.000000 0.000000
# 3 -0.000708 -0.003724 0.008606 0.000000 0.000000 0.000000
# 4 0.000000 0.000000 0.000000 0.021244 0.000000 0.000000
# 5 0.000000 0.000000 0.000000 0.000000 0.027038 0.000000
# 6 0.000000 0.000000 0.000000 0.000000 0.000000 0.027815
#
#
# Mechanical properties :
#
#
# Convention : Reuss Voigt Hill
#
# Bulk Modulus (GPa) = 64.64242 65.42979 65.03610
# Shear Modulus (GPa) = 33.95792 37.30588 35.63190
#
# Velocity S-wave (km/s) = 3.79094 3.97343 3.88326
# Velocity P-wave (km/s) = 6.82047 6.98149 6.90145
#
# Compressibility (1/GPa) = 0.01546972
#
# Stress axis : x y z
#
# Youngs Moduli (GPa) = 65.72170 59.14676 116.20066
#
# Poissons Ratio (x) = 0.48480 0.08232
# Poissons Ratio (y) = 0.53869 0.43279
# Poissons Ratio (z) = 0.04656 0.22029
#
# Static dielectric constant tensor:
#      x y z
#    x 1.901170 0.000000 0.000000 
#    y 0.000000 2.112760 0.000000 
#    z 0.000000 0.000000 2.064950 
# 
# From -- ./inp_files/16024.got.cif
#   From: 2010.05.17/outbox.cif.g08.bks.cpg/sg73_9_cif.got.tgz:16024.got - 2010.06.03 17:35:07.
