data_PCOD9533715
_publ_section_title
;
Structure prediction by ZEFSAII (Michael W. Deem and Ramdas Pophale) SiO2 
 PCOD9533715
Probable space group: I B C A 
;
_chemical_formula_sum "Si O2"
_cell_formula_units_Z 56
_cell_length_a 16.214420
_cell_length_b 14.145039
_cell_length_c 9.986647
_cell_angle_alpha 90.000000
_cell_angle_beta 90.000000
_cell_angle_gamma 90.000000
_cell_volume 2290.473474
_symmetry_space_group_name_H-M "I B C A "
_symmetry_group_IT_number 73
_symmetry_cell_setting 'orthorhombic'
loop_
_space_group_symop_operation_xyz
x,y,z
-x,1/2-y,z
x,-y,1/2-z
1/2-x,y,-z
-x,-y,-z
x,1/2+y,-z
-x,y,1/2+z
1/2+x,-y,z
1/2+x,1/2+y,1/2+z
1/2-x,-y,1/2+z
1/2+x,1/2-y,-z
-x,1/2+y,1/2-z
1/2-x,1/2-y,1/2-z
1/2+x,y,1/2-z
1/2-x,1/2+y,z
x,1/2-y,1/2+z
loop_
_atom_site_type_symbol
_atom_site_label
_atom_site_fract_x
_atom_site_fract_y
_atom_site_fract_z
Si Si1 0.796463 0.500000 0.750000
Si Si2 0.668376 0.844525 0.338715
Si Si3 0.099274 0.231488 0.083586
Si Si4 0.904397 0.015064 0.515978
O O1 0.745707 0.400560 0.729519
O O2 0.852273 0.500028 0.618090
O O3 0.629592 0.768032 0.237164
O O4 0.656661 0.792501 0.483870
O O5 0.617659 0.938873 0.372487
O O6 0.000000 0.250000 0.070917
O O7 0.112113 0.122055 0.052634
O O8 0.000000 0.000000 0.500000
#
# Coordination Sequence:
#
# PCOD9533715 Si02
#       4
#     8  16  16  16
#     4  12  30  54  82 120 164 220 272 354 428 476
#     4  12  28  54  81 124 171 213 283 343 419 494
#     4  12  27  49  85 126 166 225 279 333 417 500
#     4  12  28  52  81 115 169 222 277 342 414 504
#
# _framework density 24.449092
#
# number of rings (size 3 to 8) (size 9 to 14) (size 15 to 20)
#    0.000    0.000    5.714    1.714    8.000    1.143 
#    5.143    0.000    0.000    0.000    0.000    0.000 
#    0.000    0.000    0.000    0.000    0.000    0.000 
#
# Total GULP energy -156299.372835 kJ/mol
# GULP energy per Si atom -5582.120458 kJ/mol
# Density = 2.439344 g / cm^3
# Si number density = 24.449092 Si / 1000 Ang^3
#
#
#
# Elastic Constant Matrix: (Units=GPa)
#
#
# Indices 1 2 3 4 5 6 
#
# 1 155.0395 37.8492 70.2987 0.0000 0.0000 0.0000
# 2 37.8492 142.7217 44.6371 0.0000 0.0000 0.0000
# 3 70.2987 44.6371 162.0860 0.0000 0.0000 0.0000
# 4 0.0000 0.0000 0.0000 70.2827 0.0000 0.0000
# 5 0.0000 0.0000 0.0000 0.0000 38.8300 0.0000
# 6 0.0000 0.0000 0.0000 0.0000 0.0000 27.6753
#
#
#
# Elastic Compliance Matrix: (Units=1/GPa)
#
#
# Indices 1 2 3 4 5 6 
#
# 1 0.008201 -0.001163 -0.003237 0.000000 0.000000 0.000000
# 2 -0.001163 0.007832 -0.001653 0.000000 0.000000 0.000000
# 3 -0.003237 -0.001653 0.008029 0.000000 0.000000 0.000000
# 4 0.000000 0.000000 0.000000 0.014228 0.000000 0.000000
# 5 0.000000 0.000000 0.000000 0.000000 0.025753 0.000000
# 6 0.000000 0.000000 0.000000 0.000000 0.000000 0.036133
#
#
# Mechanical properties :
#
#
# Convention : Reuss Voigt Hill
#
# Bulk Modulus (GPa) = 83.62852 85.04635 84.33744
# Shear Modulus (GPa) = 43.00453 47.82841 45.41647
#
# Velocity S-wave (km/s) = 4.19852 4.42774 4.31466
# Velocity P-wave (km/s) = 7.60151 7.81028 7.70660
#
# Compressibility (1/GPa) = 0.01195764
#
# Stress axis : x y z
#
# Youngs Moduli (GPa) = 121.92909 127.68425 124.55546
#
# Poissons Ratio (x) = 0.14845 0.40317
# Poissons Ratio (y) = 0.14176 0.20584
# Poissons Ratio (z) = 0.39467 0.21101
#
# Static dielectric constant tensor:
#      x y z
#    x 2.029200 0.000000 0.000000 
#    y 0.000000 1.854170 0.000000 
#    z 0.000000 0.000000 2.018390 
# 
# From -- ./inp_files/10209.got.cif
#   From: 2010.05.17/outbox.cif.g08.bks.cpg/sg73_6_cif.got.tgz:10209.got - 2010.06.03 17:35:07.
