data_PCOD9533804
_publ_section_title
;
Structure prediction by ZEFSAII (Michael W. Deem and Ramdas Pophale) SiO2 
 PCOD9533804
Probable space group: I M M A
;
_chemical_formula_sum "Si O2"
_cell_formula_units_Z 80
_cell_length_a 29.395414
_cell_length_b 14.326647
_cell_length_c 6.923185
_cell_angle_alpha 90.000000
_cell_angle_beta 90.000000
_cell_angle_gamma 90.000000
_cell_volume 2915.614345
_symmetry_space_group_name_H-M "I M M A"
_symmetry_group_IT_number 74
_symmetry_cell_setting 'orthorhombic'
loop_
_space_group_symop_operation_xyz
x,y,z
-x,1/2-y,z
x,-y,-z
-x,1/2+y,-z
-x,-y,-z
x,1/2+y,-z
-x,y,z
x,1/2-y,z
1/2+x,1/2+y,1/2+z
1/2-x,-y,1/2+z
1/2+x,1/2-y,1/2-z
1/2-x,y,1/2-z
1/2-x,1/2-y,1/2-z
1/2+x,y,1/2-z
1/2-x,1/2+y,1/2+z
1/2+x,-y,1/2+z
loop_
_atom_site_type_symbol
_atom_site_label
_atom_site_fract_x
_atom_site_fract_y
_atom_site_fract_z
Si Si1 0.835487 0.891203 0.473529
Si Si2 0.236936 0.361719 0.035658
Si Si3 0.049945 0.937666 0.784232
Si Si4 0.358932 0.644818 0.586753
Si Si5 0.932289 0.644642 0.361573
O O1 0.783114 0.876592 0.416324
O O2 0.842742 0.850284 0.688013
O O3 0.877204 0.855585 0.346999
O O4 0.843708 0.000000 0.500000
O O5 0.231718 0.250000 0.048515
O O6 0.250000 0.399744 0.250000
O O7 0.186332 0.395931 0.985304
O O8 0.093920 0.909437 0.907166
O O9 0.055923 0.878218 0.586089
O O10 0.000000 0.914443 0.863657
O O11 0.051116 0.048225 0.735562
O O12 0.368209 0.750000 0.525260
O O13 0.947951 0.750000 0.311378
#
# Coordination Sequence:
#
# PCOD9533804 Si02
#       5
#    16  16  16  16  16
#     4  10  14  22  36  55  76  95 124 152 190 225
#     4   8  14  23  37  54  71  95 126 159 192 231
#     4  10  18  26  35  52  75  99 132 159 184 224
#     4   9  16  27  38  52  76 101 128 161 194 225
#     4  10  17  25  35  50  77 102 125 157 186 216
#
# _framework density 27.438471
#
# number of rings (size 3 to 8) (size 9 to 14) (size 15 to 20)
#    0.000    2.600    4.000    6.000    0.000    2.800 
#    0.000    0.000    0.000    0.000    0.000    5.600 
#    0.000    0.800    0.000    0.000    0.000    0.000 
#
# Total GULP energy -223825.811996 kJ/mol
# GULP energy per Si atom -5595.645300 kJ/mol
# Density = 2.737602 g / cm^3
# Si number density = 27.438471 Si / 1000 Ang^3
#
#
#
# Elastic Constant Matrix: (Units=GPa)
#
#
# Indices 1 2 3 4 5 6 
#
# 1 320.0915 53.6071 47.7233 0.0000 0.0000 0.0000
# 2 53.6071 208.4858 8.2943 0.0000 0.0000 0.0000
# 3 47.7233 8.2943 77.3203 0.0000 0.0000 0.0001
# 4 0.0000 0.0000 0.0000 21.2876 0.0000 0.0000
# 5 0.0000 0.0000 0.0000 0.0000 34.4073 0.0000
# 6 0.0000 0.0000 0.0001 0.0000 0.0000 -224.0682
#
#
#
# Elastic Compliance Matrix: (Units=1/GPa)
#
#
# Indices 1 2 3 4 5 6 
#
# 1 0.003580 -0.000836 -0.002120 0.000000 0.000000 0.000000
# 2 -0.000836 0.005012 -0.000022 0.000000 0.000000 0.000000
# 3 -0.002120 -0.000022 0.014244 0.000000 0.000000 0.000000
# 4 0.000000 0.000000 0.000000 0.046976 0.000000 0.000000
# 5 0.000000 0.000000 0.000000 0.000000 0.029064 0.000000
# 6 0.000000 0.000000 0.000000 0.000000 0.000000 -0.004463
#
#
# Mechanical properties :
#
#
# Convention : Reuss Voigt Hill
#
# Bulk Modulus (GPa) = 59.23833 91.68299 75.46066
# Shear Modulus (GPa) = 47.17171 -0.58980 23.29095
#
# Velocity S-wave (km/s) = 4.15080 -0.46413 2.91665
# Velocity P-wave (km/s) = 6.67896 5.76189 6.23730
#
# Compressibility (1/GPa) = 0.01688096
#
# Stress axis : x y z
#
# Youngs Moduli (GPa) = 279.31078 199.50670 70.20464
#
# Poissons Ratio (x) = 0.16683 0.14884
# Poissons Ratio (y) = 0.23357 0.00151
# Poissons Ratio (z) = 0.59216 0.00430
#
# Static dielectric constant tensor:
#      x y z
#    x 2.151440 0.000000 0.000000 
#    y 0.000000 2.051100 0.000000 
#    z 0.000000 0.000000 2.201000 
# 
# From -- ./inp_files/20964.got.cif
#   From: 2010.05.17/outbox.cif.g08.bks.cpg/sg74_11_cif.got.tgz:20964.got - 2010.06.03 17:57:02.
