data_PCOD9533209
_publ_section_title
;
Structure prediction by ZEFSAII (Michael W. Deem and Ramdas Pophale) SiO2 
 PCOD9533209
Probable space group: I B C A 
;
_chemical_formula_sum "Si O2"
_cell_formula_units_Z 112
_cell_length_a 32.484348
_cell_length_b 14.184208
_cell_length_c 11.325599
_cell_angle_alpha 90.000000
_cell_angle_beta 90.000000
_cell_angle_gamma 90.000000
_cell_volume 5218.436778
_symmetry_space_group_name_H-M "I B C A "
_symmetry_group_IT_number 73
_symmetry_cell_setting 'orthorhombic'
loop_
_space_group_symop_operation_xyz
x,y,z
-x,1/2-y,z
x,-y,1/2-z
1/2-x,y,-z
-x,-y,-z
x,1/2+y,-z
-x,y,1/2+z
1/2+x,-y,z
1/2+x,1/2+y,1/2+z
1/2-x,-y,1/2+z
1/2+x,1/2-y,-z
-x,1/2+y,1/2-z
1/2-x,1/2-y,1/2-z
1/2+x,y,1/2-z
1/2-x,1/2+y,z
x,1/2-y,1/2+z
loop_
_atom_site_type_symbol
_atom_site_label
_atom_site_fract_x
_atom_site_fract_y
_atom_site_fract_z
Si Si1 0.241743 0.828901 0.142230
Si Si2 0.354366 0.341074 0.165182
Si Si3 0.057847 0.477518 0.408415
Si Si4 0.099237 0.660671 0.434213
Si Si5 0.581307 0.628825 0.642348
Si Si6 0.293171 0.000000 0.250000
Si Si7 0.136658 0.624063 0.198257
Si Si8 0.982338 0.500000 0.250000
O O1 0.250000 0.750000 0.250000
O O2 0.193840 0.857031 0.154277
O O3 0.267610 0.921799 0.178720
O O4 0.250000 0.803346 0.000000
O O5 0.375609 0.376793 0.285807
O O6 0.359766 0.227981 0.148552
O O7 0.381679 0.373865 0.056382
O O8 0.063030 0.589267 0.406878
O O9 0.069371 0.438586 0.535491
O O10 0.094089 0.425503 0.335102
O O11 0.013051 0.465661 0.354138
O O12 0.082969 0.765960 0.411813
O O13 0.135018 0.642398 0.338281
O O14 0.546266 0.592193 0.731019
O O15 0.324602 0.059766 0.167800
#
# Coordination Sequence:
#
# PCOD9533209 Si02
#       8
#    16  16  16  16  16   8  16   8
#     4  12  29  48  78 119 160 208 262 338 402 468
#     4  11  25  48  74 104 152 194 257 313 377 465
#     4  12  23  45  75 103 147 198 245 315 379 460
#     4  11  22  42  75 104 136 196 255 294 382 461
#     4  11  27  44  72 108 142 197 249 314 381 454
#     4  12  23  47  70 112 150 202 260 309 399 472
#     4  11  21  43  73 100 139 198 248 299 378 452
#     4  12  25  49  66 110 158 186 252 323 389 448
#
# _framework density 21.462364999999998
#
# number of rings (size 3 to 8) (size 9 to 14) (size 15 to 20)
#    0.000    0.571    5.714    2.143    2.000    2.857 
#    0.000    0.000    0.000    0.000    0.000    0.000 
#    0.000    0.000    0.000    0.000    0.000    0.000 
#
# Total GULP energy -311937.377740 kJ/mol
# GULP energy per Si atom -5570.310317 kJ/mol
# Density = 2.141352 g / cm^3
# Si number density = 21.462365 Si / 1000 Ang^3
#
#
#
# Elastic Constant Matrix: (Units=GPa)
#
#
# Indices 1 2 3 4 5 6 
#
# 1 148.4116 46.2829 47.9436 0.0000 0.0000 0.0000
# 2 46.2829 76.6532 18.7159 0.0000 0.0000 0.0000
# 3 47.9436 18.7159 107.3631 0.0000 0.0000 0.0000
# 4 0.0000 0.0000 0.0000 32.8965 0.0000 0.0000
# 5 0.0000 0.0000 0.0000 0.0000 -14.3003 0.0000
# 6 0.0000 0.0000 0.0000 0.0000 0.0000 24.2731
#
#
#
# Elastic Compliance Matrix: (Units=1/GPa)
#
#
# Indices 1 2 3 4 5 6 
#
# 1 0.009311 -0.004811 -0.003319 0.000000 0.000000 0.000000
# 2 -0.004811 0.016112 -0.000660 0.000000 0.000000 0.000000
# 3 -0.003319 -0.000660 0.010911 0.000000 0.000000 0.000000
# 4 0.000000 0.000000 0.000000 0.030398 0.000000 0.000000
# 5 0.000000 0.000000 0.000000 0.000000 -0.069928 0.000000
# 6 0.000000 0.000000 0.000000 0.000000 0.000000 0.041198
#
#
# Mechanical properties :
#
#
# Convention : Reuss Voigt Hill
#
# Bulk Modulus (GPa) = 53.32469 62.03476 57.67972
# Shear Modulus (GPa) = 80.86175 23.20622 52.03398
#
# Velocity S-wave (km/s) = 6.14474 3.29181 4.92919
# Velocity P-wave (km/s) = 8.67430 6.58898 7.70254
#
# Compressibility (1/GPa) = 0.01875304
#
# Stress axis : x y z
#
# Youngs Moduli (GPa) = 107.40392 62.06540 91.64737
#
# Poissons Ratio (x) = 0.29862 0.30418
# Poissons Ratio (y) = 0.51676 0.06050
# Poissons Ratio (z) = 0.35647 0.04097
#
# Static dielectric constant tensor:
#      x y z
#    x 1.771700 0.000000 0.000000 
#    y 0.000000 1.817510 0.000000 
#    z 0.000000 0.000000 3.190220 
# 
# From -- ./inp_files/14849.got.cif
#   From: 2010.05.17/outbox.cif.g08.bks.cpg/sg73_8_cif.got.tgz:14849.got - 2010.06.03 17:35:07.
