data_PCOD9533758
_publ_section_title
;
Structure prediction by ZEFSAII (Michael W. Deem and Ramdas Pophale) SiO2 
 PCOD9533758
Probable space group: I B C A 
;
_chemical_formula_sum "Si O2"
_cell_formula_units_Z 48
_cell_length_a 21.000000
_cell_length_b 15.000000
_cell_length_c 15.000000
_cell_angle_alpha 90.000000
_cell_angle_beta 90.000000
_cell_angle_gamma 90.000000
_cell_volume 4725.000000
_symmetry_space_group_name_H-M "I B C A "
_symmetry_group_IT_number 73
_symmetry_cell_setting 'orthorhombic'
loop_
_space_group_symop_operation_xyz
x,y,z
-x,1/2-y,z
x,-y,1/2-z
1/2-x,y,-z
-x,-y,-z
x,1/2+y,-z
-x,y,1/2+z
1/2+x,-y,z
1/2+x,1/2+y,1/2+z
1/2-x,-y,1/2+z
1/2+x,1/2-y,-z
-x,1/2+y,1/2-z
1/2-x,1/2-y,1/2-z
1/2+x,y,1/2-z
1/2-x,1/2+y,z
x,1/2-y,1/2+z
loop_
_atom_site_type_symbol
_atom_site_label
_atom_site_fract_x
_atom_site_fract_y
_atom_site_fract_z
Si Si1 0.408375 0.576446 0.123067
Si Si2 0.360458 0.111089 0.684218
Si Si3 0.000000 0.750000 0.337913
Si Si4 0.383431 0.687616 0.781708
Si Si5 0.750000 0.275588 0.000000
Si Si6 0.786795 0.380120 0.630215
Si Si7 0.841520 0.073710 0.431449
O O1 0.365590 0.604005 0.208221
O O2 0.408814 0.466186 0.145236
O O3 0.462850 0.658469 0.120805
O O4 0.375018 0.576171 0.027452
O O5 0.374981 0.216175 0.668867
O O6 0.287542 0.098546 0.652087
O O7 0.945049 0.796599 0.279554
O O8 0.325550 0.655396 0.716761
O O9 0.388382 0.609090 0.854254
O O10 0.711408 0.204240 0.938492
O O11 0.788921 0.346386 0.938762
O O12 0.815545 0.474051 0.592034
#
# Coordination Sequence:
#
# PCOD9533758 Si02
#       7
#    16  16   8  16   8  16  16
#     4  10  23  43  75 100 142 192 251 294 362 436
#     4  10  21  44  71 102 143 197 233 296 385 443
#     4  10  24  52  74 100 140 204 252 296 362 438
#     4  11  25  45  71  99 146 191 243 303 370 437
#     4  12  22  38  68  96 156 184 232 296 370 450
#     4  12  25  43  67 112 147 186 242 303 380 462
#     4  12  26  40  67 112 140 189 240 306 372 441
#
# _framework density 10.15873
#
# number of rings (size 3 to 8) (size 9 to 14) (size 15 to 20)
#    0.000    1.000    1.667    5.500    7.000    0.667 
#   12.000    0.833    0.000    0.000    0.000    0.000 
#    0.000    0.000    0.000    0.000    0.000    0.000 
#
# Total GULP energy -267289.594658 kJ/mol
# GULP energy per Si atom -5568.533222 kJ/mol
# Density = 1.013561 g / cm^3
# Si number density = 10.158730 Si / 1000 Ang^3
#
#
#
# Elastic Constant Matrix: (Units=GPa)
#
#
# Indices 1 2 3 4 5 6 
#
# 1 69.3430 43.0394 10.4496 0.0000 0.0000 0.0000
# 2 43.0394 198.4575 38.9362 0.0000 0.0000 0.0000
# 3 10.4496 38.9362 88.2713 0.0000 0.0000 0.0000
# 4 0.0000 0.0000 0.0000 43.9595 0.0000 0.0000
# 5 0.0000 0.0000 0.0000 0.0000 23.4656 0.0000
# 6 0.0000 0.0000 0.0000 0.0000 0.0000 48.9353
#
#
#
# Elastic Compliance Matrix: (Units=1/GPa)
#
#
# Indices 1 2 3 4 5 6 
#
# 1 0.016678 -0.003536 -0.000415 0.000000 0.000000 0.000000
# 2 -0.003536 0.006266 -0.002345 0.000000 0.000000 0.000000
# 3 -0.000415 -0.002345 0.012412 0.000000 0.000000 0.000000
# 4 0.000000 0.000000 0.000000 0.022748 0.000000 0.000000
# 5 0.000000 0.000000 0.000000 0.000000 0.042616 0.000000
# 6 0.000000 0.000000 0.000000 0.000000 0.000000 0.020435
#
#
# Mechanical properties :
#
#
# Convention : Reuss Voigt Hill
#
# Bulk Modulus (GPa) = 43.92755 60.10247 52.01501
# Shear Modulus (GPa) = 35.37707 40.84854 38.11281
#
# Velocity S-wave (km/s) = 4.17731 4.48874 4.33582
# Velocity P-wave (km/s) = 6.70329 7.51738 7.12198
#
# Compressibility (1/GPa) = 0.02276475
#
# Stress axis : x y z
#
# Youngs Moduli (GPa) = 59.95920 159.59800 80.56527
#
# Poissons Ratio (x) = 0.56427 0.03342
# Poissons Ratio (y) = 0.21199 0.18895
# Poissons Ratio (z) = 0.02487 0.37430
#
# Static dielectric constant tensor:
#      x y z
#    x 1.751120 0.000000 0.000000 
#    y 0.000000 1.785910 0.000000 
#    z 0.000000 0.000000 1.757150 
# 
# From -- ./inp_files/18697.got.cif
#   From: 2010.05.17/outbox.ucp.g08.bks.cvg/sg73_10_cif.got.tgz:18697.got - 2010.06.11 16:36:03.
