data_PCOD9533191
_publ_section_title
;
Structure prediction by ZEFSAII (Michael W. Deem and Ramdas Pophale) SiO2 
 PCOD9533191
Probable space group: I B C A 
;
_chemical_formula_sum "Si O2"
_cell_formula_units_Z 88
_cell_length_a 8.659953
_cell_length_b 22.542082
_cell_length_c 18.933513
_cell_angle_alpha 90.000000
_cell_angle_beta 90.000000
_cell_angle_gamma 90.000000
_cell_volume 3696.074891
_symmetry_space_group_name_H-M "I B C A "
_symmetry_group_IT_number 73
_symmetry_cell_setting 'orthorhombic'
loop_
_space_group_symop_operation_xyz
x,y,z
-x,1/2-y,z
x,-y,1/2-z
1/2-x,y,-z
-x,-y,-z
x,1/2+y,-z
-x,y,1/2+z
1/2+x,-y,z
1/2+x,1/2+y,1/2+z
1/2-x,-y,1/2+z
1/2+x,1/2-y,-z
-x,1/2+y,1/2-z
1/2-x,1/2-y,1/2-z
1/2+x,y,1/2-z
1/2-x,1/2+y,z
x,1/2-y,1/2+z
loop_
_atom_site_type_symbol
_atom_site_label
_atom_site_fract_x
_atom_site_fract_y
_atom_site_fract_z
Si Si1 0.172112 0.415465 0.110143
Si Si2 0.013929 0.810755 0.435896
Si Si3 0.696718 0.306885 0.795409
Si Si4 0.990600 0.532627 0.600929
Si Si5 0.440314 0.893754 0.266835
Si Si6 0.250000 0.097034 0.000000
O O1 0.037060 0.462620 0.089971
O O2 0.338358 0.441006 0.085739
O O3 0.149066 0.410982 0.195065
O O4 0.138226 0.349197 0.082305
O O5 0.106875 0.790770 0.365682
O O6 0.123498 0.858934 0.469236
O O7 0.000000 0.750000 0.479016
O O8 0.750000 0.250000 0.750000
O O9 0.584795 0.353383 0.755693
O O10 0.842727 0.347183 0.812757
O O11 0.970806 0.550608 0.683182
O O12 0.848632 0.559864 0.556816
#
# Coordination Sequence:
#
# PCOD9533191 Si02
#       6
#    16  16  16  16  16   8
#     4  11  26  45  74 106 139 184 238 300 357 417
#     4  11  26  48  70 103 143 188 239 293 349 421
#     4  11  21  41  68 104 142 185 232 294 357 421
#     4  12  26  45  72 103 143 189 235 291 357 423
#     4  11  22  40  69 105 142 178 234 296 362 413
#     4  12  28  50  72 102 144 192 242 286 350 430
#
# _framework density 23.809041000000001
#
# number of rings (size 3 to 8) (size 9 to 14) (size 15 to 20)
#    0.000    0.727    3.636    4.364    2.545    6.545 
#    0.000    0.000    0.000    0.000    0.000    0.000 
#    0.000    0.000    0.000    0.000    0.000    0.000 
#
# Total GULP energy -245824.141863 kJ/mol
# GULP energy per Si atom -5586.912315 kJ/mol
# Density = 2.375485 g / cm^3
# Si number density = 23.809041 Si / 1000 Ang^3
#
#
#
# Elastic Constant Matrix: (Units=GPa)
#
#
# Indices 1 2 3 4 5 6 
#
# 1 68.2917 -2.5648 -10.4048 0.0000 0.0000 0.0000
# 2 -2.5648 115.8198 -1.7313 0.0000 0.0000 0.0000
# 3 -10.4048 -1.7313 36.1477 0.0000 0.0000 0.0000
# 4 0.0000 0.0000 0.0000 -34.1741 0.0000 0.0000
# 5 0.0000 0.0000 0.0000 0.0000 18.0082 0.0000
# 6 0.0000 0.0000 0.0000 0.0000 0.0000 36.7896
#
#
#
# Elastic Compliance Matrix: (Units=1/GPa)
#
#
# Indices 1 2 3 4 5 6 
#
# 1 0.015334 0.000406 0.004433 0.000000 0.000000 0.000000
# 2 0.000406 0.008651 0.000531 0.000000 0.000000 0.000000
# 3 0.004433 0.000531 0.028966 0.000000 0.000000 0.000000
# 4 0.000000 0.000000 0.000000 -0.029262 0.000000 0.000000
# 5 0.000000 0.000000 0.000000 0.000000 0.055530 0.000000
# 6 0.000000 0.000000 0.000000 0.000000 0.000000 0.027182
#
#
# Mechanical properties :
#
#
# Convention : Reuss Voigt Hill
#
# Bulk Modulus (GPa) = 15.70086 21.20637 18.45362
# Shear Modulus (GPa) = 42.77514 19.78877 31.28195
#
# Velocity S-wave (km/s) = 4.24322 2.88609 3.62866
# Velocity P-wave (km/s) = 5.53312 4.47573 5.03227
#
# Compressibility (1/GPa) = 0.06369076
#
# Stress axis : x y z
#
# Youngs Moduli (GPa) = 65.21567 115.59323 34.52353
#
# Poissons Ratio (x) = -0.04691 -0.15305
# Poissons Ratio (y) = -0.02647 -0.01834
# Poissons Ratio (z) = -0.28911 -0.06140
#
# Static dielectric constant tensor:
#      x y z
#    x 2.120240 0.000000 0.000000 
#    y 0.000000 1.903480 0.000000 
#    z 0.000000 0.000000 1.969680 
# 
# From -- ./inp_files/24802.got.cif
#   From: 2010.05.17/outbox.cif.g08.bks.cpg/sg73_13_cif.got.tgz:24802.got - 2010.06.03 17:35:07.
