data_PCOD9533065
_publ_section_title
;
Structure prediction by ZEFSAII (Michael W. Deem and Ramdas Pophale) SiO2 
 PCOD9533065
Probable space group: I B C A 
;
_chemical_formula_sum "Si O2"
_cell_formula_units_Z 96
_cell_length_a 29.148215
_cell_length_b 10.395525
_cell_length_c 14.577891
_cell_angle_alpha 90.000000
_cell_angle_beta 90.000000
_cell_angle_gamma 90.000000
_cell_volume 4417.261297
_symmetry_space_group_name_H-M "I B C A "
_symmetry_group_IT_number 73
_symmetry_cell_setting 'orthorhombic'
loop_
_space_group_symop_operation_xyz
x,y,z
-x,1/2-y,z
x,-y,1/2-z
1/2-x,y,-z
-x,-y,-z
x,1/2+y,-z
-x,y,1/2+z
1/2+x,-y,z
1/2+x,1/2+y,1/2+z
1/2-x,-y,1/2+z
1/2+x,1/2-y,-z
-x,1/2+y,1/2-z
1/2-x,1/2-y,1/2-z
1/2+x,y,1/2-z
1/2-x,1/2+y,z
x,1/2-y,1/2+z
loop_
_atom_site_type_symbol
_atom_site_label
_atom_site_fract_x
_atom_site_fract_y
_atom_site_fract_z
Si Si1 0.750000 0.657891 0.000000
Si Si2 0.610573 0.699275 0.123856
Si Si3 0.423006 0.736747 0.326264
Si Si4 0.697329 0.534556 0.148143
Si Si5 0.534414 0.500323 0.413113
Si Si6 0.976196 0.500000 0.250000
Si Si7 0.654427 0.702139 0.456991
O O1 0.740733 0.571419 0.088274
O O2 0.796872 0.734906 0.016660
O O3 0.588229 0.730405 0.220830
O O4 0.660384 0.647488 0.152636
O O5 0.579134 0.590036 0.075131
O O6 0.622529 0.807170 0.047907
O O7 0.449435 0.856812 0.376859
O O8 0.449491 0.603541 0.311720
O O9 0.376612 0.719524 0.384796
O O10 0.710786 0.500000 0.250000
O O11 0.668931 0.425903 0.094959
O O12 0.500000 0.500000 0.500000
O O13 0.507783 0.435878 0.327300
#
# Coordination Sequence:
#
# PCOD9533065 Si02
#       7
#     8  16  16  16  16   8  16
#     4  10  26  42  68 112 140 186 248 312 362 478
#     4  11  23  44  73  97 141 191 240 304 372 443
#     4  12  25  48  70 106 148 196 243 307 382 440
#     4  11  21  46  72  99 143 192 240 298 383 451
#     4  12  25  46  72 102 143 197 252 309 372 442
#     4  12  28  44  68 110 150 188 258 304 366 458
#     4  11  24  44  73 107 140 190 249 298 383 455
#
# _framework density 21.732923
#
# number of rings (size 3 to 8) (size 9 to 14) (size 15 to 20)
#    0.000    0.667    5.000    2.000    2.333    3.333 
#    4.500    0.000    0.000    0.000    0.000    0.000 
#    0.000    0.000    0.000    0.000    0.000    0.000 
#
# Total GULP energy -267814.550190 kJ/mol
# GULP energy per Si atom -5579.469796 kJ/mol
# Density = 2.168346 g / cm^3
# Si number density = 21.732923 Si / 1000 Ang^3
#
#
#
# Elastic Constant Matrix: (Units=GPa)
#
#
# Indices 1 2 3 4 5 6 
#
# 1 101.0126 17.0329 41.5523 0.0000 0.0000 0.0000
# 2 17.0329 46.5683 22.5229 0.0000 0.0000 0.0000
# 3 41.5523 22.5229 151.6941 0.0000 0.0000 0.0000
# 4 0.0000 0.0000 0.0000 28.6737 0.0000 0.0000
# 5 0.0000 0.0000 0.0000 0.0000 53.6266 0.0000
# 6 0.0000 0.0000 0.0000 0.0000 0.0000 -541.7335
#
#
#
# Elastic Compliance Matrix: (Units=1/GPa)
#
#
# Indices 1 2 3 4 5 6 
#
# 1 0.011507 -0.002892 -0.002723 0.000000 0.000000 0.000000
# 2 -0.002892 0.023862 -0.002751 0.000000 0.000000 0.000000
# 3 -0.002723 -0.002751 0.007746 0.000000 0.000000 0.000000
# 4 0.000000 0.000000 0.000000 0.034875 0.000000 0.000000
# 5 0.000000 0.000000 0.000000 0.000000 0.018647 0.000000
# 6 0.000000 0.000000 0.000000 0.000000 0.000000 -0.001846
#
#
# Mechanical properties :
#
#
# Convention : Reuss Voigt Hill
#
# Bulk Modulus (GPa) = 37.90062 51.27679 44.58871
# Shear Modulus (GPa) = 41.55630 -77.34219 -17.89294
#
# Velocity S-wave (km/s) = 4.37754 -5.97200 -2.87245
# Velocity P-wave (km/s) = 6.55954 4.88956 3.09191
#
# Compressibility (1/GPa) = 0.02638479
#
# Stress axis : x y z
#
# Youngs Moduli (GPa) = 86.90026 41.90759 129.09150
#
# Poissons Ratio (x) = 0.12120 0.35148
# Poissons Ratio (y) = 0.25133 0.35509
# Poissons Ratio (z) = 0.23661 0.11528
#
# Static dielectric constant tensor:
#      x y z
#    x 1.820720 0.000000 0.000000 
#    y 0.000000 1.863780 0.000000 
#    z 0.000000 0.000000 2.096170 
# 
# From -- ./inp_files/20009.got.cif
#   From: 2010.05.17/outbox.cif.g08.bks.cpg/sg73_11_cif.got.tgz:20009.got - 2010.06.03 17:35:07.
