data_PCOD9533178
_publ_section_title
;
Structure prediction by ZEFSAII (Michael W. Deem and Ramdas Pophale) SiO2 
 PCOD9533178
Probable space group: I B C A 
;
_chemical_formula_sum "Si O2"
_cell_formula_units_Z 96
_cell_length_a 19.161992
_cell_length_b 20.395892
_cell_length_c 11.281004
_cell_angle_alpha 90.000000
_cell_angle_beta 90.000000
_cell_angle_gamma 90.000000
_cell_volume 4408.908759
_symmetry_space_group_name_H-M "I B C A "
_symmetry_group_IT_number 73
_symmetry_cell_setting 'orthorhombic'
loop_
_space_group_symop_operation_xyz
x,y,z
-x,1/2-y,z
x,-y,1/2-z
1/2-x,y,-z
-x,-y,-z
x,1/2+y,-z
-x,y,1/2+z
1/2+x,-y,z
1/2+x,1/2+y,1/2+z
1/2-x,-y,1/2+z
1/2+x,1/2-y,-z
-x,1/2+y,1/2-z
1/2-x,1/2-y,1/2-z
1/2+x,y,1/2-z
1/2-x,1/2+y,z
x,1/2-y,1/2+z
loop_
_atom_site_type_symbol
_atom_site_label
_atom_site_fract_x
_atom_site_fract_y
_atom_site_fract_z
Si Si1 0.277053 0.425356 0.803431
Si Si2 0.326889 0.116538 0.061963
Si Si3 0.876988 0.430096 0.307063
Si Si4 0.601540 0.526476 0.052839
Si Si5 0.503429 0.116606 0.819412
Si Si6 0.036385 0.180869 0.935550
O O1 0.277109 0.500000 0.750000
O O2 0.308409 0.381426 0.700378
O O3 0.199417 0.402717 0.831501
O O4 0.329912 0.432510 0.910500
O O5 0.381103 0.174334 0.032711
O O6 0.371915 0.048594 0.043496
O O7 0.250000 0.112789 0.000000
O O8 0.863417 0.500000 0.250000
O O9 0.919611 0.446856 0.424912
O O10 0.922696 0.391451 0.214548
O O11 0.543194 0.548746 0.146643
O O12 0.532335 0.144719 0.694225
O O13 0.503222 0.155218 0.944627
O O14 0.000000 0.250000 0.912460
#
# Coordination Sequence:
#
# PCOD9533178 Si02
#       6
#    16  16  16  16  16  16
#     4   9  18  34  58  95 139 181 218 271 343 431
#     4  11  22  41  70 105 144 187 231 291 363 435
#     4  11  22  35  61 100 144 181 221 273 356 447
#     4  11  21  38  65 105 149 182 223 290 373 450
#     4  12  25  43  69 101 141 184 234 302 370 426
#     4  12  27  48  72  95 138 195 255 303 351 420
#
# _framework density 21.774096
#
# number of rings (size 3 to 8) (size 9 to 14) (size 15 to 20)
#    0.000    1.000    3.333    6.000    2.333    1.333 
#    0.000    0.000    3.667    3.000    0.000    0.000 
#    0.000    0.000    0.000    0.000    0.000    0.000 
#
# Total GULP energy -267405.622234 kJ/mol
# GULP energy per Si atom -5570.950463 kJ/mol
# Density = 2.172454 g / cm^3
# Si number density = 21.774096 Si / 1000 Ang^3
#
#
#
# Elastic Constant Matrix: (Units=GPa)
#
#
# Indices 1 2 3 4 5 6 
#
# 1 121.2076 44.7333 31.4714 0.0000 0.0000 0.0000
# 2 44.7333 44.9654 35.8961 0.0000 0.0000 0.0000
# 3 31.4714 35.8961 139.2909 0.0000 0.0000 0.0000
# 4 0.0000 0.0000 0.0000 16.7907 0.0000 0.0000
# 5 0.0000 0.0000 0.0000 0.0000 16.4835 0.0000
# 6 0.0000 0.0000 0.0000 0.0000 0.0000 18.3281
#
#
#
# Elastic Compliance Matrix: (Units=1/GPa)
#
#
# Indices 1 2 3 4 5 6 
#
# 1 0.013065 -0.013397 0.000501 0.000000 0.000000 0.000000
# 2 -0.013397 0.041737 -0.007729 0.000000 0.000000 0.000000
# 3 0.000501 -0.007729 0.009058 0.000000 0.000000 0.000000
# 4 0.000000 0.000000 0.000000 0.059557 0.000000 0.000000
# 5 0.000000 0.000000 0.000000 0.000000 0.060667 0.000000
# 6 0.000000 0.000000 0.000000 0.000000 0.000000 0.054561
#
#
# Mechanical properties :
#
#
# Convention : Reuss Voigt Hill
#
# Bulk Modulus (GPa) = 44.22981 58.85172 51.54076
# Shear Modulus (GPa) = 17.39548 23.21134 20.30341
#
# Velocity S-wave (km/s) = 2.82956 3.26852 3.05693
# Velocity P-wave (km/s) = 5.57067 6.42894 6.01513
#
# Compressibility (1/GPa) = 0.02260919
#
# Stress axis : x y z
#
# Youngs Moduli (GPa) = 76.54273 23.95952 110.40063
#
# Poissons Ratio (x) = 0.32098 -0.05527
# Poissons Ratio (y) = 1.02543 0.85329
# Poissons Ratio (z) = -0.03832 0.18518
#
# Static dielectric constant tensor:
#      x y z
#    x 1.907230 0.000000 0.000000 
#    y 0.000000 1.667490 0.000000 
#    z 0.000000 0.000000 1.867490 
# 
# From -- ./inp_files/12018.got.cif
#   From: 2010.05.17/outbox.cif.g08.bks.cpg/sg73_7_cif.got.tgz:12018.got - 2010.06.03 17:35:07.
