data_PCOD9533270
_publ_section_title
;
Structure prediction by ZEFSAII (Michael W. Deem and Ramdas Pophale) SiO2 
 PCOD9533270
Probable space group: I B C A 
;
_chemical_formula_sum "Si O2"
_cell_formula_units_Z 64
_cell_length_a 22.122696
_cell_length_b 7.953042
_cell_length_c 14.433034
_cell_angle_alpha 90.000000
_cell_angle_beta 90.000000
_cell_angle_gamma 90.000000
_cell_volume 2539.387411
_symmetry_space_group_name_H-M "I B C A "
_symmetry_group_IT_number 73
_symmetry_cell_setting 'orthorhombic'
loop_
_space_group_symop_operation_xyz
x,y,z
-x,1/2-y,z
x,-y,1/2-z
1/2-x,y,-z
-x,-y,-z
x,1/2+y,-z
-x,y,1/2+z
1/2+x,-y,z
1/2+x,1/2+y,1/2+z
1/2-x,-y,1/2+z
1/2+x,1/2-y,-z
-x,1/2+y,1/2-z
1/2-x,1/2-y,1/2-z
1/2+x,y,1/2-z
1/2-x,1/2+y,z
x,1/2-y,1/2+z
loop_
_atom_site_type_symbol
_atom_site_label
_atom_site_fract_x
_atom_site_fract_y
_atom_site_fract_z
Si Si1 0.237128 0.168598 0.392457
Si Si2 0.623289 0.474642 0.860023
Si Si3 0.928911 0.223728 0.483947
Si Si4 0.148545 0.973392 0.652603
O O1 0.250000 0.201972 0.500000
O O2 0.194304 0.003532 0.381170
O O3 0.194472 0.312778 0.351184
O O4 0.302204 0.122285 0.353212
O O5 0.613362 0.500000 0.750000
O O6 0.597366 0.310994 0.912934
O O7 0.592180 0.626722 0.916397
O O8 0.900319 0.065226 0.426455
O O9 0.000000 0.250000 0.491649
O O10 0.116506 0.000000 0.750000
#
# Coordination Sequence:
#
# PCOD9533270 Si02
#       4
#    16  16  16  16
#     4  11  22  42  71 105 154 193 246 317 395 459
#     4  11  26  46  74 108 147 200 258 316 394 467
#     4  11  26  48  73 105 150 199 257 324 381 457
#     4  11  24  41  70 110 149 202 251 315 391 467
#
# _framework density 25.202929999999999
#
# number of rings (size 3 to 8) (size 9 to 14) (size 15 to 20)
#    0.000    1.000    2.500    3.000    3.500    8.000 
#    0.000    0.000    0.000    0.000    0.000    0.000 
#    0.000    0.000    0.000    0.000    0.000    0.000 
#
# Total GULP energy -178851.175894 kJ/mol
# GULP energy per Si atom -5589.099247 kJ/mol
# Density = 2.514557 g / cm^3
# Si number density = 25.202930 Si / 1000 Ang^3
#
#
#
# Elastic Constant Matrix: (Units=GPa)
#
#
# Indices 1 2 3 4 5 6 
#
# 1 189.3949 24.7134 85.4253 0.0000 0.0000 0.0000
# 2 24.7134 90.7404 63.9832 0.0000 0.0000 0.0000
# 3 85.4253 63.9832 228.2684 0.0000 0.0000 0.0000
# 4 0.0000 0.0000 0.0000 20.1890 0.0000 0.0000
# 5 0.0000 0.0000 0.0000 0.0000 -44.3578 0.0000
# 6 0.0000 0.0000 0.0000 0.0000 0.0000 22.2388
#
#
#
# Elastic Compliance Matrix: (Units=1/GPa)
#
#
# Indices 1 2 3 4 5 6 
#
# 1 0.006353 -0.000067 -0.002359 0.000000 0.000000 0.000000
# 2 -0.000067 0.013736 -0.003825 0.000000 0.000000 0.000000
# 3 -0.002359 -0.003825 0.006336 0.000000 0.000000 0.000000
# 4 0.000000 0.000000 0.000000 0.049532 0.000000 0.000000
# 5 0.000000 0.000000 0.000000 0.000000 -0.022544 0.000000
# 6 0.000000 0.000000 0.000000 0.000000 0.000000 0.044966
#
#
# Mechanical properties :
#
#
# Convention : Reuss Voigt Hill
#
# Bulk Modulus (GPa) = 71.82516 95.18306 83.50411
# Shear Modulus (GPa) = 43.28240 21.89946 32.59093
#
# Velocity S-wave (km/s) = 4.14860 2.95095 3.59993
# Velocity P-wave (km/s) = 7.17693 7.03274 7.10520
#
# Compressibility (1/GPa) = 0.01392270
#
# Stress axis : x y z
#
# Youngs Moduli (GPa) = 157.41792 72.80233 157.83867
#
# Poissons Ratio (x) = 0.00488 0.37226
# Poissons Ratio (y) = 0.01056 0.60374
# Poissons Ratio (z) = 0.37127 0.27847
#
# Static dielectric constant tensor:
#      x y z
#    x 1.931050 0.000000 0.000000 
#    y 0.000000 2.289760 0.000000 
#    z 0.000000 0.000000 1.994140 
# 
# From -- ./inp_files/4638.got.cif
#   From: 2010.05.17/outbox.cif.g08.bks.cpg/sg73_3_cif.got.tgz:4638.got - 2010.06.03 17:35:07.
