data_PCOD9533276
_publ_section_title
;
Structure prediction by ZEFSAII (Michael W. Deem and Ramdas Pophale) SiO2 
 PCOD9533276
Probable space group: I B C A 
;
_chemical_formula_sum "Si O2"
_cell_formula_units_Z 88
_cell_length_a 11.920289
_cell_length_b 25.217876
_cell_length_c 12.792065
_cell_angle_alpha 90.000000
_cell_angle_beta 90.000000
_cell_angle_gamma 90.000000
_cell_volume 3845.350639
_symmetry_space_group_name_H-M "I B C A "
_symmetry_group_IT_number 73
_symmetry_cell_setting 'orthorhombic'
loop_
_space_group_symop_operation_xyz
x,y,z
-x,1/2-y,z
x,-y,1/2-z
1/2-x,y,-z
-x,-y,-z
x,1/2+y,-z
-x,y,1/2+z
1/2+x,-y,z
1/2+x,1/2+y,1/2+z
1/2-x,-y,1/2+z
1/2+x,1/2-y,-z
-x,1/2+y,1/2-z
1/2-x,1/2-y,1/2-z
1/2+x,y,1/2-z
1/2-x,1/2+y,z
x,1/2-y,1/2+z
loop_
_atom_site_type_symbol
_atom_site_label
_atom_site_fract_x
_atom_site_fract_y
_atom_site_fract_z
Si Si1 0.604150 0.629534 0.113254
Si Si2 0.510188 0.056263 0.558827
Si Si3 0.591792 0.619399 0.760721
Si Si4 0.282245 0.440688 0.710961
Si Si5 0.250000 0.281657 0.000000
Si Si6 0.367337 0.735646 0.312543
O O1 0.514737 0.642796 0.201640
O O2 0.680506 0.589467 0.181576
O O3 0.667950 0.679367 0.065391
O O4 0.536324 0.598921 0.023355
O O5 0.435776 0.071158 0.660975
O O6 0.631065 0.060088 0.614907
O O7 0.500000 0.000000 0.500000
O O8 0.674206 0.592570 0.677979
O O9 0.636361 0.671603 0.816204
O O10 0.264067 0.500000 0.750000
O O11 0.168042 0.246358 0.928595
O O12 0.500000 0.750000 0.289584
O O13 0.250000 0.750000 0.250000
#
# Coordination Sequence:
#
# PCOD9533276 Si02
#       6
#    16  16  16  16   8  16
#     4  11  22  43  69  97 143 192 235 298 379 447
#     4  11  23  41  66 100 142 194 248 297 376 456
#     4  11  26  44  70 102 152 188 250 322 378 457
#     4  11  23  39  66 101 145 195 245 300 374 454
#     4  12  24  50  78 102 146 204 238 324 396 462
#     4  12  28  50  80 114 149 200 265 329 401 468
#
# _framework density 22.884779000000002
#
# number of rings (size 3 to 8) (size 9 to 14) (size 15 to 20)
#    0.000    0.727    5.455    1.091    5.091    2.909 
#    0.000    0.000    0.000    0.000    0.000    0.000 
#    0.000    0.000    0.000    0.000    0.000    0.000 
#
# Total GULP energy -244941.377340 kJ/mol
# GULP energy per Si atom -5566.849485 kJ/mol
# Density = 2.283269 g / cm^3
# Si number density = 22.884779 Si / 1000 Ang^3
#
#
#
# Elastic Constant Matrix: (Units=GPa)
#
#
# Indices 1 2 3 4 5 6 
#
# 1 142.2028 48.8772 43.6243 0.0000 0.0001 0.0000
# 2 48.8772 49.9565 18.2102 0.0002 0.0000 0.0000
# 3 43.6243 18.2102 86.3643 0.0016 -0.0001 0.0000
# 4 0.0000 0.0002 0.0016 -26.8413 0.0001 0.0001
# 5 0.0001 0.0000 -0.0001 0.0001 2.8959 0.0000
# 6 0.0000 0.0000 0.0000 0.0001 0.0000 16.4839
#
#
#
# Elastic Compliance Matrix: (Units=1/GPa)
#
#
# Indices 1 2 3 4 5 6 
#
# 1 0.011624 -0.010001 -0.003763 0.000000 0.000000 0.000000
# 2 -0.010001 0.030289 -0.001335 0.000000 0.000000 0.000000
# 3 -0.003763 -0.001335 0.013761 0.000001 0.000000 0.000000
# 4 0.000000 0.000000 0.000001 -0.037256 0.000001 0.000000
# 5 0.000000 0.000000 0.000000 0.000001 0.345315 0.000000
# 6 0.000000 0.000000 0.000000 0.000000 0.000000 0.060665
#
#
# Mechanical properties :
#
#
# Convention : Reuss Voigt Hill
#
# Bulk Modulus (GPa) = 39.25160 55.54965 47.40062
# Shear Modulus (GPa) = 10.79708 9.69518 10.24613
#
# Velocity S-wave (km/s) = 2.17446 2.06051 2.11825
# Velocity P-wave (km/s) = 4.84700 5.47606 5.17111
#
# Compressibility (1/GPa) = 0.02547667
#
# Stress axis : x y z
#
# Youngs Moduli (GPa) = 86.02762 33.01496 72.66957
#
# Poissons Ratio (x) = 0.33020 0.27344
# Poissons Ratio (y) = 0.86040 0.09699
# Poissons Ratio (z) = 0.32370 0.04406
#
# Static dielectric constant tensor:
#      x y z
#    x 2.029940 0.000000 0.000000 
#    y 0.000000 1.824480 0.000000 
#    z 0.000000 0.000000 1.915370 
# 
# From -- ./inp_files/9874.got.cif
#   From: 2010.05.17/outbox.cif.g08.bks.cpg/sg73_5_cif.got.tgz:9874.got - 2010.06.03 17:35:07.
