data_PCOD9533004
_publ_section_title
;
Structure prediction by ZEFSAII (Michael W. Deem and Ramdas Pophale) SiO2 
 PCOD9533004
Probable space group: I B C A 
;
_chemical_formula_sum "Si O2"
_cell_formula_units_Z 96
_cell_length_a 14.537634
_cell_length_b 16.376882
_cell_length_c 14.471826
_cell_angle_alpha 90.000000
_cell_angle_beta 90.000000
_cell_angle_gamma 90.000000
_cell_volume 3445.468493
_symmetry_space_group_name_H-M "I B C A "
_symmetry_group_IT_number 73
_symmetry_cell_setting 'orthorhombic'
loop_
_space_group_symop_operation_xyz
x,y,z
-x,1/2-y,z
x,-y,1/2-z
1/2-x,y,-z
-x,-y,-z
x,1/2+y,-z
-x,y,1/2+z
1/2+x,-y,z
1/2+x,1/2+y,1/2+z
1/2-x,-y,1/2+z
1/2+x,1/2-y,-z
-x,1/2+y,1/2-z
1/2-x,1/2-y,1/2-z
1/2+x,y,1/2-z
1/2-x,1/2+y,z
x,1/2-y,1/2+z
loop_
_atom_site_type_symbol
_atom_site_label
_atom_site_fract_x
_atom_site_fract_y
_atom_site_fract_z
Si Si1 0.790196 0.023778 0.905025
Si Si2 0.346759 0.160585 0.344658
Si Si3 0.524574 0.387893 0.608759
Si Si4 0.676144 0.382923 0.148431
Si Si5 0.395169 0.315180 0.469762
Si Si6 0.041747 0.411048 0.700710
O O1 0.735721 0.107271 0.884901
O O2 0.895190 0.051482 0.920954
O O3 0.749020 0.954955 0.836955
O O4 0.750000 0.990091 0.000000
O O5 0.322915 0.175091 0.237090
O O6 0.371347 0.236736 0.408683
O O7 0.438826 0.105776 0.334037
O O8 0.424811 0.425181 0.635977
O O9 0.491914 0.330164 0.526019
O O10 0.556335 0.352859 0.708614
O O11 0.674118 0.328796 0.055669
O O12 0.400268 0.384140 0.388932
O O13 0.058829 0.500000 0.750000
#
# Coordination Sequence:
#
# PCOD9533004 Si02
#       6
#    16  16  16  16  16  16
#     4  12  25  45  84 122 175 221 288 373 435 533
#     4  11  23  50  80 118 170 225 286 366 440 525
#     4   9  24  47  81 121 165 221 287 351 444 523
#     4   9  24  51  81 124 169 228 299 357 439 533
#     4  10  24  51  82 112 175 225 281 358 442 532
#     4  11  23  43  80 119 157 215 287 352 434 525
#
# _framework density 27.862684000000002
#
# number of rings (size 3 to 8) (size 9 to 14) (size 15 to 20)
#    1.000    0.667    0.000    4.000    2.333    2.667 
#    9.000    1.667   14.667    0.000    0.000    0.000 
#    0.000    0.000    0.000    0.000    0.000    0.000 
#
# Total GULP energy -267869.928469 kJ/mol
# GULP energy per Si atom -5580.623510 kJ/mol
# Density = 2.779927 g / cm^3
# Si number density = 27.862684 Si / 1000 Ang^3
#
#
#
# Elastic Constant Matrix: (Units=GPa)
#
#
# Indices 1 2 3 4 5 6 
#
# 1 128.9343 61.7395 21.5273 0.0000 0.0000 0.0000
# 2 61.7395 191.8064 100.3885 0.0000 0.0000 0.0000
# 3 21.5273 100.3885 257.0603 0.0000 0.0000 0.0000
# 4 0.0000 0.0000 0.0000 42.5101 0.0000 0.0000
# 5 0.0000 0.0000 0.0000 0.0000 30.5622 0.0000
# 6 0.0000 0.0000 0.0000 0.0000 0.0000 26.5617
#
#
#
# Elastic Compliance Matrix: (Units=1/GPa)
#
#
# Indices 1 2 3 4 5 6 
#
# 1 0.009217 -0.003221 0.000486 0.000000 0.000000 0.000000
# 2 -0.003221 0.007679 -0.002729 0.000000 0.000000 0.000000
# 3 0.000486 -0.002729 0.004915 0.000000 0.000000 0.000000
# 4 0.000000 0.000000 0.000000 0.023524 0.000000 0.000000
# 5 0.000000 0.000000 0.000000 0.000000 0.032720 0.000000
# 6 0.000000 0.000000 0.000000 0.000000 0.000000 0.037648
#
#
# Mechanical properties :
#
#
# Convention : Reuss Voigt Hill
#
# Bulk Modulus (GPa) = 91.88803 105.01242 98.45022
# Shear Modulus (GPa) = 38.38493 46.20316 42.29405
#
# Velocity S-wave (km/s) = 3.71569 4.07657 3.90031
# Velocity P-wave (km/s) = 7.17349 7.74138 7.46284
#
# Compressibility (1/GPa) = 0.01088281
#
# Stress axis : x y z
#
# Youngs Moduli (GPa) = 108.49245 130.22872 203.45173
#
# Poissons Ratio (x) = 0.41951 -0.09890
# Poissons Ratio (y) = 0.34949 0.55522
# Poissons Ratio (z) = -0.05274 0.35539
#
# Static dielectric constant tensor:
#      x y z
#    x 2.278290 0.000000 0.000000 
#    y 0.000000 2.243540 0.000000 
#    z 0.000000 0.000000 2.297760 
# 
# From -- ./inp_files/17084.got.cif
#   From: 2010.05.17/outbox.cif.g08.bks.cpg/sg73_9_cif.got.tgz:17084.got - 2010.06.03 17:35:07.
