data_PCOD9533015
_publ_section_title
;
Structure prediction by ZEFSAII (Michael W. Deem and Ramdas Pophale) SiO2 
 PCOD9533015
Probable space group: I B C A 
;
_chemical_formula_sum "Si O2"
_cell_formula_units_Z 96
_cell_length_a 20.690008
_cell_length_b 7.327634
_cell_length_c 26.822779
_cell_angle_alpha 90.000000
_cell_angle_beta 90.000000
_cell_angle_gamma 90.000000
_cell_volume 4066.569500
_symmetry_space_group_name_H-M "I B C A "
_symmetry_group_IT_number 73
_symmetry_cell_setting 'orthorhombic'
loop_
_space_group_symop_operation_xyz
x,y,z
-x,1/2-y,z
x,-y,1/2-z
1/2-x,y,-z
-x,-y,-z
x,1/2+y,-z
-x,y,1/2+z
1/2+x,-y,z
1/2+x,1/2+y,1/2+z
1/2-x,-y,1/2+z
1/2+x,1/2-y,-z
-x,1/2+y,1/2-z
1/2-x,1/2-y,1/2-z
1/2+x,y,1/2-z
1/2-x,1/2+y,z
x,1/2-y,1/2+z
loop_
_atom_site_type_symbol
_atom_site_label
_atom_site_fract_x
_atom_site_fract_y
_atom_site_fract_z
Si Si1 0.449435 0.617900 0.468259
Si Si2 0.563825 0.463098 0.347495
Si Si3 0.361798 0.314127 0.939981
Si Si4 0.577284 0.088952 0.303793
Si Si5 0.867411 0.652900 0.123842
Si Si6 0.235849 0.657821 0.057737
O O1 0.500000 0.750000 0.442541
O O2 0.500000 0.500000 0.500000
O O3 0.399805 0.709139 0.507779
O O4 0.408765 0.560823 0.421170
O O5 0.584334 0.365760 0.399451
O O6 0.586102 0.308144 0.306962
O O7 0.487738 0.466107 0.335018
O O8 0.597356 0.661906 0.353375
O O9 0.313036 0.487590 0.945532
O O10 0.309792 0.162215 0.924506
O O11 0.568563 0.000000 0.250000
O O12 0.635697 0.987095 0.331085
O O13 0.802448 0.717416 0.096681
O O14 0.250000 0.712487 0.000000
#
# Coordination Sequence:
#
# PCOD9533015 Si02
#       6
#    16  16  16  16  16  16
#     4  12  25  39  63  98 145 193 235 300 367 440
#     4  10  25  43  66 107 140 178 236 301 372 449
#     4  11  25  40  66 100 143 193 239 290 355 440
#     4  11  25  43  77 106 135 184 237 311 387 443
#     4  11  24  45  65 100 147 189 243 301 361 440
#     4  11  23  42  65  97 140 199 247 284 342 426
#
# _framework density 23.607119999999998
#
# number of rings (size 3 to 8) (size 9 to 14) (size 15 to 20)
#    0.000    1.000    1.667    5.000   11.667    0.000 
#    0.000    0.000    0.000    2.000    0.000    0.000 
#    0.000    0.000    0.000    0.000    0.000    0.000 
#
# Total GULP energy -267694.454278 kJ/mol
# GULP energy per Si atom -5576.967797 kJ/mol
# Density = 2.355339 g / cm^3
# Si number density = 23.607120 Si / 1000 Ang^3
#
#
#
# Elastic Constant Matrix: (Units=GPa)
#
#
# Indices 1 2 3 4 5 6 
#
# 1 148.2697 42.7547 61.1023 0.0000 0.0000 0.0000
# 2 42.7547 98.2489 24.8711 0.0000 0.0000 0.0000
# 3 61.1023 24.8711 126.0142 0.0000 0.0000 0.0000
# 4 0.0000 0.0000 0.0000 26.5683 0.0000 0.0000
# 5 0.0000 0.0000 0.0000 0.0000 28.3684 0.0000
# 6 0.0000 0.0000 0.0000 0.0000 0.0000 45.1152
#
#
#
# Elastic Compliance Matrix: (Units=1/GPa)
#
#
# Indices 1 2 3 4 5 6 
#
# 1 0.009213 -0.003030 -0.003869 0.000000 0.000000 0.000000
# 2 -0.003030 0.011710 -0.000842 0.000000 0.000000 0.000000
# 3 -0.003869 -0.000842 0.009978 0.000000 0.000000 0.000000
# 4 0.000000 0.000000 0.000000 0.037639 0.000000 0.000000
# 5 0.000000 0.000000 0.000000 0.000000 0.035250 0.000000
# 6 0.000000 0.000000 0.000000 0.000000 0.000000 0.022166
#
#
# Mechanical properties :
#
#
# Convention : Reuss Voigt Hill
#
# Bulk Modulus (GPa) = 64.85658 69.99877 67.42767
# Shear Modulus (GPa) = 34.11197 36.26402 35.18800
#
# Velocity S-wave (km/s) = 3.80542 3.92362 3.86497
# Velocity P-wave (km/s) = 6.84407 7.08818 6.96720
#
# Compressibility (1/GPa) = 0.01541864
#
# Stress axis : x y z
#
# Youngs Moduli (GPa) = 108.54800 85.39872 100.22180
#
# Poissons Ratio (x) = 0.25872 0.38776
# Poissons Ratio (y) = 0.32885 0.08440
# Poissons Ratio (z) = 0.41998 0.07192
#
# Static dielectric constant tensor:
#      x y z
#    x 1.877120 0.000000 0.000000 
#    y 0.000000 1.865060 0.000000 
#    z 0.000000 0.000000 1.856720 
# 
# From -- ./inp_files/30300.got.cif
#   From: 2010.05.17/outbox.cif.g08.bks.cpg/sg73_16_cif.got.tgz:30300.got - 2010.06.03 17:35:07.
