data_PCOD9533881
_publ_section_title
;
Structure prediction by ZEFSAII (Michael W. Deem and Ramdas Pophale) SiO2 
 PCOD9533881
Probable space group: I M M A
;
_chemical_formula_sum "Si O2"
_cell_formula_units_Z 80
_cell_length_a 7.965957
_cell_length_b 17.395617
_cell_length_c 29.306238
_cell_angle_alpha 90.000000
_cell_angle_beta 90.000000
_cell_angle_gamma 90.000000
_cell_volume 4061.045611
_symmetry_space_group_name_H-M "I M M A"
_symmetry_group_IT_number 74
_symmetry_cell_setting 'orthorhombic'
loop_
_space_group_symop_operation_xyz
x,y,z
-x,1/2-y,z
x,-y,-z
-x,1/2+y,-z
-x,-y,-z
x,1/2+y,-z
-x,y,z
x,1/2-y,z
1/2+x,1/2+y,1/2+z
1/2-x,-y,1/2+z
1/2+x,1/2-y,1/2-z
1/2-x,y,1/2-z
1/2-x,1/2-y,1/2-z
1/2+x,y,1/2-z
1/2-x,1/2+y,1/2+z
1/2+x,-y,1/2+z
loop_
_atom_site_type_symbol
_atom_site_label
_atom_site_fract_x
_atom_site_fract_y
_atom_site_fract_z
Si Si1 0.311797 0.250000 0.092812
Si Si2 0.705875 0.508952 0.109589
Si Si3 0.697131 0.922803 0.799596
Si Si4 0.794667 0.661911 0.433227
Si Si5 0.315363 0.750000 0.688053
Si Si6 0.803520 0.899454 0.530360
O O1 0.500000 0.250000 0.113910
O O2 0.182810 0.250000 0.133359
O O3 0.298157 0.324163 0.061728
O O4 0.500000 0.503234 0.108977
O O5 0.767412 0.465543 0.155224
O O6 0.749451 0.598746 0.104913
O O7 0.765223 0.466076 0.063177
O O8 0.500000 0.932186 0.802698
O O9 0.750000 0.953166 0.750000
O O10 0.734526 0.831705 0.800531
O O11 0.737993 0.750000 0.427217
O O12 0.734073 0.626325 0.481542
O O13 0.000000 0.664770 0.435460
O O14 0.500000 0.750000 0.708787
O O15 0.000000 0.918577 0.522068
#
# Coordination Sequence:
#
# PCOD9533881 Si02
#       6
#     8  16  16  16   8  16
#     4  10  16  27  47  72 104 142 166 197 241 283
#     4   9  17  27  43  67  98 134 164 199 249 299
#     4  11  22  37  54  73  99 130 166 205 249 297
#     4   9  15  23  39  69 106 133 159 202 254 297
#     4  12  23  35  52  76 103 134 168 201 241 289
#     4   9  14  23  41  67 101 135 165 196 241 291
#
# _framework density 19.699359999999999
#
# number of rings (size 3 to 8) (size 9 to 14) (size 15 to 20)
#    0.000    2.200    3.000    2.400    0.000    2.400 
#    0.000    0.000    0.000    0.600    0.000    4.200 
#    0.000    0.000    0.000    0.000    0.000    0.200 
#
# Total GULP energy -222980.030982 kJ/mol
# GULP energy per Si atom -5574.500775 kJ/mol
# Density = 1.965452 g / cm^3
# Si number density = 19.699360 Si / 1000 Ang^3
#
#
#
# Elastic Constant Matrix: (Units=GPa)
#
#
# Indices 1 2 3 4 5 6 
#
# 1 18.0294 4.9256 8.0504 0.0000 0.0000 0.0000
# 2 4.9256 163.9920 75.1594 0.0000 0.0000 0.0000
# 3 8.0504 75.1594 99.4420 0.0000 0.0000 0.0000
# 4 0.0000 0.0000 0.0000 17.6562 0.0000 0.0000
# 5 0.0000 0.0000 0.0000 0.0000 10.0662 0.0000
# 6 0.0000 0.0000 0.0000 0.0000 0.0000 -4.1252
#
#
#
# Elastic Compliance Matrix: (Units=1/GPa)
#
#
# Indices 1 2 3 4 5 6 
#
# 1 0.057587 0.000623 -0.005133 0.000000 0.000000 0.000000
# 2 0.000623 0.009336 -0.007107 0.000000 0.000000 0.000000
# 3 -0.005133 -0.007107 0.015843 0.000000 0.000000 0.000000
# 4 0.000000 0.000000 0.000000 0.056637 0.000000 0.000000
# 5 0.000000 0.000000 0.000000 0.000000 0.099342 0.000000
# 6 0.000000 0.000000 0.000000 0.000000 0.000000 -0.242411
#
#
# Mechanical properties :
#
#
# Convention : Reuss Voigt Hill
#
# Bulk Modulus (GPa) = 16.79758 50.85935 33.82846
# Shear Modulus (GPa) = 126.86535 17.60798 72.23667
#
# Velocity S-wave (km/s) = 8.03371 2.99295 6.06211
# Velocity P-wave (km/s) = 9.72623 6.14959 8.13686
#
# Compressibility (1/GPa) = 0.05953239
#
# Stress axis : x y z
#
# Youngs Moduli (GPa) = 17.36515 107.10834 63.11889
#
# Poissons Ratio (x) = -0.06669 0.32396
# Poissons Ratio (y) = -0.01081 0.44858
# Poissons Ratio (z) = 0.08913 0.76121
#
# Static dielectric constant tensor:
#      x y z
#    x 1.726530 0.000000 0.000000 
#    y 0.000000 1.831470 0.000000 
#    z 0.000000 0.000000 1.713210 
# 
# From -- ./inp_files/70159.got.cif
#   From: 2010.05.17/outbox.cif.g08.bks.cpg/sg74_36_cif.got.tgz:70159.got - 2010.06.03 17:57:02.
