data_PCOD9533478
_publ_section_title
;
Structure prediction by ZEFSAII (Michael W. Deem and Ramdas Pophale) SiO2 
 PCOD9533478
Probable space group: I B C A 
;
_chemical_formula_sum "Si O2"
_cell_formula_units_Z 112
_cell_length_a 12.941350
_cell_length_b 13.542264
_cell_length_c 28.441453
_cell_angle_alpha 90.000000
_cell_angle_beta 90.000000
_cell_angle_gamma 90.000000
_cell_volume 4984.511914
_symmetry_space_group_name_H-M "I B C A "
_symmetry_group_IT_number 73
_symmetry_cell_setting 'orthorhombic'
loop_
_space_group_symop_operation_xyz
x,y,z
-x,1/2-y,z
x,-y,1/2-z
1/2-x,y,-z
-x,-y,-z
x,1/2+y,-z
-x,y,1/2+z
1/2+x,-y,z
1/2+x,1/2+y,1/2+z
1/2-x,-y,1/2+z
1/2+x,1/2-y,-z
-x,1/2+y,1/2-z
1/2-x,1/2-y,1/2-z
1/2+x,y,1/2-z
1/2-x,1/2+y,z
x,1/2-y,1/2+z
loop_
_atom_site_type_symbol
_atom_site_label
_atom_site_fract_x
_atom_site_fract_y
_atom_site_fract_z
Si Si1 0.371135 0.399192 0.437245
Si Si2 0.211186 0.375291 0.849852
Si Si3 0.297746 0.723774 0.441120
Si Si4 0.000000 0.250000 0.506792
Si Si5 0.750000 0.053012 0.000000
Si Si6 0.764575 0.304461 0.201486
Si Si7 0.355589 0.981657 0.305006
Si Si8 0.419569 0.534314 0.170286
O O1 0.274049 0.320649 0.434663
O O2 0.467858 0.341255 0.459737
O O3 0.333035 0.483306 0.474057
O O4 0.401080 0.441555 0.385571
O O5 0.159739 0.327705 0.894782
O O6 0.281706 0.285709 0.833110
O O7 0.285889 0.469623 0.846185
O O8 0.120751 0.423110 0.819112
O O9 0.397177 0.740486 0.474229
O O10 0.223768 0.634319 0.459967
O O11 0.750000 0.250000 0.250000
O O12 0.660852 0.365111 0.188975
O O13 0.854420 0.384140 0.198027
O O14 0.323403 0.000000 0.250000
O O15 0.464364 0.031300 0.313071
#
# Coordination Sequence:
#
# PCOD9533478 Si02
#       8
#    16  16  16   8   8  16  16  16
#     4  12  25  48  68 107 143 191 243 304 371 428
#     4  11  25  48  69 101 146 187 230 299 359 421
#     4  12  25  47  70 105 144 190 245 298 370 437
#     4  12  26  44  74 104 144 188 254 298 350 458
#     4  12  22  48  70  92 146 188 234 306 362 426
#     4  11  24  47  74 100 148 190 225 297 365 422
#     4  11  26  46  73 109 138 186 242 285 358 448
#     4  11  27  44  73 107 142 185 244 302 355 445
#
# _framework density 22.469602999999999
#
# number of rings (size 3 to 8) (size 9 to 14) (size 15 to 20)
#    0.000    0.571    7.143    0.000    4.000    2.857 
#    2.571    0.000    0.000    0.000    0.000    0.000 
#    0.000    0.000    0.000    0.000    0.000    0.000 
#
# Total GULP energy -311737.706360 kJ/mol
# GULP energy per Si atom -5566.744756 kJ/mol
# Density = 2.241846 g / cm^3
# Si number density = 22.469603 Si / 1000 Ang^3
#
#
#
# Elastic Constant Matrix: (Units=GPa)
#
#
# Indices 1 2 3 4 5 6 
#
# 1 72.4420 21.3709 34.3969 0.0000 0.0000 0.0000
# 2 21.3709 126.7141 22.8067 0.0000 0.0000 0.0000
# 3 34.3969 22.8067 56.8836 0.0000 0.0000 0.0000
# 4 0.0000 0.0000 0.0000 38.1711 0.0000 0.0000
# 5 0.0000 0.0000 0.0000 0.0000 24.3628 0.0000
# 6 0.0000 0.0000 0.0000 0.0000 0.0000 24.5681
#
#
#
# Elastic Compliance Matrix: (Units=1/GPa)
#
#
# Indices 1 2 3 4 5 6 
#
# 1 0.019549 -0.001260 -0.011316 0.000000 0.000000 0.000000
# 2 -0.001260 0.008587 -0.002681 0.000000 0.000000 0.000000
# 3 -0.011316 -0.002681 0.025497 0.000000 0.000000 0.000000
# 4 0.000000 0.000000 0.000000 0.026198 0.000000 0.000000
# 5 0.000000 0.000000 0.000000 0.000000 0.041046 0.000000
# 6 0.000000 0.000000 0.000000 0.000000 0.000000 0.040703
#
#
# Mechanical properties :
#
#
# Convention : Reuss Voigt Hill
#
# Bulk Modulus (GPa) = 43.25383 45.90987 44.58185
# Shear Modulus (GPa) = 25.02505 29.25141 27.13823
#
# Velocity S-wave (km/s) = 3.34088 3.61199 3.47908
# Velocity P-wave (km/s) = 5.84583 6.15399 6.00189
#
# Compressibility (1/GPa) = 0.02311934
#
# Stress axis : x y z
#
# Youngs Moduli (GPa) = 51.15382 116.45747 39.22025
#
# Poissons Ratio (x) = 0.14678 0.44380
# Poissons Ratio (y) = 0.06447 0.10514
# Poissons Ratio (z) = 0.57884 0.31218
#
# Static dielectric constant tensor:
#      x y z
#    x 1.714280 0.000000 0.000000 
#    y 0.000000 1.848720 0.000000 
#    z 0.000000 0.000000 2.228570 
# 
# From -- ./inp_files/34046.got.cif
#   From: 2010.05.17/outbox.cif.g08.bks.cpg/sg73_18_cif.got.tgz:34046.got - 2010.06.03 17:35:07.
