data_PCOD9533958
_publ_section_title
;
Structure prediction by ZEFSAII (Michael W. Deem and Ramdas Pophale) SiO2 
 PCOD9533958
Probable space group: I M M A
;
_chemical_formula_sum "Si O2"
_cell_formula_units_Z 80
_cell_length_a 15.285790
_cell_length_b 23.411051
_cell_length_c 9.382745
_cell_angle_alpha 90.000000
_cell_angle_beta 90.000000
_cell_angle_gamma 90.000000
_cell_volume 3357.675435
_symmetry_space_group_name_H-M "I M M A"
_symmetry_group_IT_number 74
_symmetry_cell_setting 'orthorhombic'
loop_
_space_group_symop_operation_xyz
x,y,z
-x,1/2-y,z
x,-y,-z
-x,1/2+y,-z
-x,-y,-z
x,1/2+y,-z
-x,y,z
x,1/2-y,z
1/2+x,1/2+y,1/2+z
1/2-x,-y,1/2+z
1/2+x,1/2-y,1/2-z
1/2-x,y,1/2-z
1/2-x,1/2-y,1/2-z
1/2+x,y,1/2-z
1/2-x,1/2+y,1/2+z
1/2+x,-y,1/2+z
loop_
_atom_site_type_symbol
_atom_site_label
_atom_site_fract_x
_atom_site_fract_y
_atom_site_fract_z
Si Si1 0.152060 0.540173 0.697455
Si Si2 0.897290 0.922046 0.380812
Si Si3 0.404868 0.660640 0.775343
Si Si4 0.096508 0.185463 0.951245
Si Si5 0.705166 0.182884 0.947399
O O1 0.250000 0.543751 0.750000
O O2 0.143997 0.556626 0.530483
O O3 0.119869 0.475630 0.722333
O O4 0.100738 0.593316 0.763250
O O5 0.856407 0.859918 0.358140
O O6 0.000000 0.917412 0.401678
O O7 0.500000 0.672629 0.842732
O O8 0.401898 0.690006 0.623618
O O9 0.330180 0.676608 0.889005
O O10 0.095619 0.250000 0.892454
O O11 0.194856 0.162265 0.928046
O O12 0.000000 0.159070 0.914092
O O13 0.699576 0.250000 0.911688
#
# Coordination Sequence:
#
# PCOD9533958 Si02
#       5
#    16  16  16  16  16
#     4  10  18  30  49  70  96 131 166 201 243 289
#     4  10  20  34  51  75 104 132 167 207 249 298
#     4  10  17  25  41  67  97 126 157 192 236 294
#     4   9  17  27  40  62  94 129 160 191 234 294
#     4  10  18  28  44  66  93 125 161 201 244 291
#
# _framework density 23.826007000000001
#
# number of rings (size 3 to 8) (size 9 to 14) (size 15 to 20)
#    0.000    2.200    0.000    7.800    0.000    4.000 
#    0.000    0.000    0.000    4.200    0.000   21.000 
#    0.000    0.000    0.000    0.000    0.000    0.800 
#
# Total GULP energy -223115.480835 kJ/mol
# GULP energy per Si atom -5577.887021 kJ/mol
# Density = 2.377178 g / cm^3
# Si number density = 23.826007 Si / 1000 Ang^3
#
#
#
# Elastic Constant Matrix: (Units=GPa)
#
#
# Indices 1 2 3 4 5 6 
#
# 1 218.9635 38.3793 39.5623 0.0000 0.0000 0.0000
# 2 38.3793 150.4070 8.2878 0.0000 0.0000 0.0000
# 3 39.5623 8.2878 50.1436 0.0000 -0.0001 0.0000
# 4 0.0000 0.0000 0.0000 8.2921 0.0000 0.0000
# 5 0.0000 0.0000 -0.0001 0.0000 5.7150 0.0000
# 6 0.0000 0.0000 0.0000 0.0000 0.0000 39.1874
#
#
#
# Elastic Compliance Matrix: (Units=1/GPa)
#
#
# Indices 1 2 3 4 5 6 
#
# 1 0.005526 -0.001181 -0.004165 0.000000 0.000000 0.000000
# 2 -0.001181 0.006962 -0.000219 0.000000 0.000000 0.000000
# 3 -0.004165 -0.000219 0.023265 0.000000 0.000000 0.000000
# 4 0.000000 0.000000 0.000000 0.120597 0.000000 0.000000
# 5 0.000000 0.000000 0.000000 0.000000 0.174977 0.000000
# 6 0.000000 0.000000 0.000000 0.000000 0.000000 0.025518
#
#
# Mechanical properties :
#
#
# Convention : Reuss Voigt Hill
#
# Bulk Modulus (GPa) = 40.61129 65.77476 53.19303
# Shear Modulus (GPa) = 13.29137 32.85788 23.07463
#
# Velocity S-wave (km/s) = 2.36445 3.71762 3.11539
# Velocity P-wave (km/s) = 4.95339 6.78924 5.94264
#
# Compressibility (1/GPa) = 0.02462369
#
# Stress axis : x y z
#
# Youngs Moduli (GPa) = 180.94720 143.63739 42.98269
#
# Poissons Ratio (x) = 0.16959 0.17903
# Poissons Ratio (y) = 0.21364 0.00942
# Poissons Ratio (z) = 0.75367 0.03148
#
# Static dielectric constant tensor:
#      x y z
#    x 1.921360 0.000000 0.000000 
#    y 0.000000 1.997260 0.000000 
#    z 0.000000 0.000000 1.924410 
# 
# From -- ./inp_files/20453.got.cif
#   From: 2010.05.17/outbox.cif.g08.bks.cpg/sg74_11_cif.got.tgz:20453.got - 2010.06.03 17:57:02.
