data_PCOD9533650
_publ_section_title
;
Structure prediction by ZEFSAII (Michael W. Deem and Ramdas Pophale) SiO2 
 PCOD9533650
Probable space group: I B C A 
;
_chemical_formula_sum "Si O2"
_cell_formula_units_Z 56
_cell_length_a 14.459668
_cell_length_b 10.523164
_cell_length_c 13.631788
_cell_angle_alpha 90.000000
_cell_angle_beta 90.000000
_cell_angle_gamma 90.000000
_cell_volume 2074.232734
_symmetry_space_group_name_H-M "I B C A "
_symmetry_group_IT_number 73
_symmetry_cell_setting 'orthorhombic'
loop_
_space_group_symop_operation_xyz
x,y,z
-x,1/2-y,z
x,-y,1/2-z
1/2-x,y,-z
-x,-y,-z
x,1/2+y,-z
-x,y,1/2+z
1/2+x,-y,z
1/2+x,1/2+y,1/2+z
1/2-x,-y,1/2+z
1/2+x,1/2-y,-z
-x,1/2+y,1/2-z
1/2-x,1/2-y,1/2-z
1/2+x,y,1/2-z
1/2-x,1/2+y,z
x,1/2-y,1/2+z
loop_
_atom_site_type_symbol
_atom_site_label
_atom_site_fract_x
_atom_site_fract_y
_atom_site_fract_z
Si Si1 0.844320 0.678448 0.952785
Si Si2 0.595544 0.758115 0.240826
Si Si3 0.630532 0.917564 0.906928
Si Si4 0.288499 0.500000 0.250000
O O1 0.831294 0.711151 0.838956
O O2 0.904866 0.550195 0.950639
O O3 0.750000 0.631183 0.000000
O O4 0.863109 0.808936 0.010456
O O5 0.500000 0.750000 0.180079
O O6 0.573189 0.653622 0.322946
O O7 0.640262 0.886828 0.279714
O O8 0.723252 0.952161 0.841077
#
# Coordination Sequence:
#
# PCOD9533650 Si02
#       4
#    16  16  16   8
#     4  12  25  46  78 114 154 205 269 328 380 483
#     4  12  29  50  78 119 167 209 259 338 414 469
#     4  12  26  48  81 116 153 208 277 318 395 476
#     4  12  24  48  84 112 156 216 266 328 388 482
#
# _framework density 26.997934999999998
#
# number of rings (size 3 to 8) (size 9 to 14) (size 15 to 20)
#    0.000    0.000    5.714    3.429    8.000    1.143 
#    0.000    2.857    0.000    0.000    0.000    0.000 
#    0.000    0.000    0.000    0.000    0.000    0.000 
#
# Total GULP energy -156299.574989 kJ/mol
# GULP energy per Si atom -5582.127678 kJ/mol
# Density = 2.693649 g / cm^3
# Si number density = 26.997935 Si / 1000 Ang^3
#
#
#
# Elastic Constant Matrix: (Units=GPa)
#
#
# Indices 1 2 3 4 5 6 
#
# 1 84.2620 38.1568 -7.3587 0.0000 0.0000 0.0000
# 2 38.1568 246.4512 70.8284 0.0000 0.0000 0.0000
# 3 -7.3587 70.8284 125.7506 0.0000 0.0000 0.0000
# 4 0.0000 0.0000 0.0000 59.3799 0.0000 0.0000
# 5 0.0000 0.0000 0.0000 0.0000 14.1441 0.0000
# 6 0.0000 0.0000 0.0000 0.0000 0.0000 28.8052
#
#
#
# Elastic Compliance Matrix: (Units=1/GPa)
#
#
# Indices 1 2 3 4 5 6 
#
# 1 0.013303 -0.002724 0.002313 0.000000 0.000000 0.000000
# 2 -0.002724 0.005399 -0.003201 0.000000 0.000000 0.000000
# 3 0.002313 -0.003201 0.009890 0.000000 0.000000 0.000000
# 4 0.000000 0.000000 0.000000 0.016841 0.000000 0.000000
# 5 0.000000 0.000000 0.000000 0.000000 0.070701 0.000000
# 6 0.000000 0.000000 0.000000 0.000000 0.000000 0.034716
#
#
# Mechanical properties :
#
#
# Convention : Reuss Voigt Hill
#
# Bulk Modulus (GPa) = 46.79659 73.30188 60.04923
# Shear Modulus (GPa) = 30.26682 44.12165 37.19424
#
# Velocity S-wave (km/s) = 3.35188 4.04698 3.71572
# Velocity P-wave (km/s) = 5.68781 7.00338 6.37960
#
# Compressibility (1/GPa) = 0.02136908
#
# Stress axis : x y z
#
# Youngs Moduli (GPa) = 75.16831 185.21197 101.10948
#
# Poissons Ratio (x) = 0.50460 -0.23387
# Poissons Ratio (y) = 0.20479 0.32360
# Poissons Ratio (z) = -0.17387 0.59277
#
# Static dielectric constant tensor:
#      x y z
#    x 2.156750 0.000000 0.000000 
#    y 0.000000 2.157860 0.000000 
#    z 0.000000 0.000000 2.104670 
# 
# From -- ./inp_files/16528.got.cif
#   From: 2010.05.17/outbox.cif.g08.bks.cpg/sg73_9_cif.got.tgz:16528.got - 2010.06.03 17:35:07.
