data_PCOD9533679
_publ_section_title
;
Structure prediction by ZEFSAII (Michael W. Deem and Ramdas Pophale) SiO2 
 PCOD9533679
Probable space group: I B C A 
;
_chemical_formula_sum "Si O2"
_cell_formula_units_Z 72
_cell_length_a 15.583621
_cell_length_b 9.501179
_cell_length_c 20.661512
_cell_angle_alpha 90.000000
_cell_angle_beta 90.000000
_cell_angle_gamma 90.000000
_cell_volume 3059.200753
_symmetry_space_group_name_H-M "I B C A "
_symmetry_group_IT_number 73
_symmetry_cell_setting 'orthorhombic'
loop_
_space_group_symop_operation_xyz
x,y,z
-x,1/2-y,z
x,-y,1/2-z
1/2-x,y,-z
-x,-y,-z
x,1/2+y,-z
-x,y,1/2+z
1/2+x,-y,z
1/2+x,1/2+y,1/2+z
1/2-x,-y,1/2+z
1/2+x,1/2-y,-z
-x,1/2+y,1/2-z
1/2-x,1/2-y,1/2-z
1/2+x,y,1/2-z
1/2-x,1/2+y,z
x,1/2-y,1/2+z
loop_
_atom_site_type_symbol
_atom_site_label
_atom_site_fract_x
_atom_site_fract_y
_atom_site_fract_z
Si Si1 0.000000 0.750000 0.743304
Si Si2 0.935492 0.921993 0.860107
Si Si3 0.075329 0.000066 0.947233
Si Si4 0.124736 0.256339 0.865500
Si Si5 0.702996 0.758702 0.564444
O O1 0.947561 0.855787 0.789657
O O2 0.924032 0.689905 0.696778
O O3 0.869887 0.842964 0.907627
O O4 0.907981 0.084408 0.862817
O O5 0.030908 0.917795 0.888238
O O6 0.093050 0.158811 0.924678
O O7 0.159798 0.906631 0.957763
O O8 0.000000 0.000000 0.000000
O O9 0.226369 0.267390 0.878070
O O10 0.750000 0.704158 0.500000
#
# Coordination Sequence:
#
# PCOD9533679 Si02
#       5
#     8  16  16  16  16
#     4  12  26  50  80 108 158 214 274 306 402 488
#     4  12  25  50  76 112 153 211 260 325 393 491
#     4  12  25  49  80 112 157 212 263 325 414 486
#     4  12  27  46  79 114 154 207 264 330 397 474
#     4  12  27  48  76 121 158 202 264 342 411 477
#
# _framework density 23.535558999999999
#
# number of rings (size 3 to 8) (size 9 to 14) (size 15 to 20)
#    0.000    0.000    4.444    4.667    0.000    4.444 
#    0.000    2.222    0.000    0.000    0.000    0.000 
#    0.000    0.000    0.000    0.000    0.000    0.000 
#
# Total GULP energy -201136.623316 kJ/mol
# GULP energy per Si atom -5587.128425 kJ/mol
# Density = 2.348199 g / cm^3
# Si number density = 23.535559 Si / 1000 Ang^3
#
#
#
# Elastic Constant Matrix: (Units=GPa)
#
#
# Indices 1 2 3 4 5 6 
#
# 1 127.3824 63.9351 40.8768 0.0000 0.0000 0.0000
# 2 63.9351 157.0725 57.5375 0.0000 0.0000 0.0000
# 3 40.8768 57.5375 117.0727 0.0000 0.0000 0.0000
# 4 0.0000 0.0000 0.0000 37.0202 0.0000 0.0000
# 5 0.0000 0.0000 0.0000 0.0000 54.9618 0.0000
# 6 0.0000 0.0000 0.0000 0.0000 0.0000 44.7806
#
#
#
# Elastic Compliance Matrix: (Units=1/GPa)
#
#
# Indices 1 2 3 4 5 6 
#
# 1 0.010185 -0.003467 -0.001852 0.000000 0.000000 0.000000
# 2 -0.003467 0.008945 -0.003185 0.000000 0.000000 0.000000
# 3 -0.001852 -0.003185 0.010754 0.000000 0.000000 0.000000
# 4 0.000000 0.000000 0.000000 0.027012 0.000000 0.000000
# 5 0.000000 0.000000 0.000000 0.000000 0.018194 0.000000
# 6 0.000000 0.000000 0.000000 0.000000 0.000000 0.022331
#
#
# Mechanical properties :
#
#
# Convention : Reuss Voigt Hill
#
# Bulk Modulus (GPa) = 77.67593 80.69181 79.18387
# Shear Modulus (GPa) = 42.11510 43.29772 42.70641
#
# Velocity S-wave (km/s) = 4.23475 4.29379 4.26437
# Velocity P-wave (km/s) = 7.54891 7.67735 7.61340
#
# Compressibility (1/GPa) = 0.01287400
#
# Stress axis : x y z
#
# Youngs Moduli (GPa) = 98.18373 111.79860 92.98949
#
# Poissons Ratio (x) = 0.38764 0.17223
# Poissons Ratio (y) = 0.34043 0.29621
# Poissons Ratio (z) = 0.18185 0.35612
#
# Static dielectric constant tensor:
#      x y z
#    x 1.905020 0.000000 0.000000 
#    y 0.000000 1.951660 0.000000 
#    z 0.000000 0.000000 1.963310 
# 
# From -- ./inp_files/26829.got.cif
#   From: 2010.05.17/outbox.cif.g08.bks.cpg/sg73_14_cif.got.tgz:26829.got - 2010.06.03 17:35:07.
