data_PCOD9533783
_publ_section_title
;
Structure prediction by ZEFSAII (Michael W. Deem and Ramdas Pophale) SiO2 
 PCOD9533783
Probable space group: I B C A 
;
_chemical_formula_sum "Si O2"
_cell_formula_units_Z 56
_cell_length_a 15.000000
_cell_length_b 15.000000
_cell_length_c 24.000000
_cell_angle_alpha 90.000000
_cell_angle_beta 90.000000
_cell_angle_gamma 90.000000
_cell_volume 5400.000000
_symmetry_space_group_name_H-M "I B C A "
_symmetry_group_IT_number 73
_symmetry_cell_setting 'orthorhombic'
loop_
_space_group_symop_operation_xyz
x,y,z
-x,1/2-y,z
x,-y,1/2-z
1/2-x,y,-z
-x,-y,-z
x,1/2+y,-z
-x,y,1/2+z
1/2+x,-y,z
1/2+x,1/2+y,1/2+z
1/2-x,-y,1/2+z
1/2+x,1/2-y,-z
-x,1/2+y,1/2-z
1/2-x,1/2-y,1/2-z
1/2+x,y,1/2-z
1/2-x,1/2+y,z
x,1/2-y,1/2+z
loop_
_atom_site_type_symbol
_atom_site_label
_atom_site_fract_x
_atom_site_fract_y
_atom_site_fract_z
Si Si1 0.645087 0.508441 0.926484
Si Si2 0.119068 0.384518 0.137232
Si Si3 0.433562 0.446552 0.309897
Si Si4 0.182414 0.076382 0.880453
Si Si5 0.915400 0.136230 0.486524
Si Si6 0.379402 0.166557 0.493951
Si Si7 0.711622 0.288573 0.807373
O O1 0.600821 0.506817 0.863777
O O2 0.734835 0.452778 0.918240
O O3 0.593671 0.445276 0.970046
O O4 0.664422 0.601915 0.958786
O O5 0.160556 0.482656 0.149923
O O6 0.123388 0.369356 0.069902
O O7 0.168567 0.297371 0.161749
O O8 0.021371 0.396872 0.165155
O O9 0.445517 0.500000 0.250000
O O10 0.361466 0.367621 0.299813
O O11 0.107819 0.104830 0.924358
O O12 0.211617 0.159092 0.842092
O O13 0.860284 0.226758 0.502430
O O14 0.018192 0.159466 0.488807
O O15 0.750000 0.250000 0.750000
#
# Coordination Sequence:
#
# PCOD9533783 Si02
#       7
#    16  16  16  16  16  16  16
#     4  11  22  44  65 101 142 175 231 283 357 418
#     4  12  25  47  74 102 138 193 239 288 369 433
#     4  11  26  46  77 100 138 188 239 296 344 434
#     4  11  26  42  68 105 141 182 231 297 355 427
#     4  11  22  40  64 104 137 178 231 282 351 422
#     4  11  23  39  73  96 142 186 226 289 350 429
#     4  11  29  48  73 101 145 185 245 300 360 421
#
# _framework density 10.370369999999999
#
# number of rings (size 3 to 8) (size 9 to 14) (size 15 to 20)
#    0.000    0.857    2.857    3.857   10.000    0.000 
#    0.000    0.000    0.000    0.000    0.000    0.000 
#    0.000    0.000    0.000    0.000    0.000    0.000 
#
# Total GULP energy -312579.563454 kJ/mol
# GULP energy per Si atom -5581.777919 kJ/mol
# Density = 1.034677 g / cm^3
# Si number density = 10.370370 Si / 1000 Ang^3
#
#
#
# Elastic Constant Matrix: (Units=GPa)
#
#
# Indices 1 2 3 4 5 6 
#
# 1 66.3935 12.8573 32.4480 0.0000 0.0000 0.0000
# 2 12.8573 126.4475 67.4161 0.0000 0.0000 0.0000
# 3 32.4480 67.4161 154.6878 0.0000 0.0000 0.0000
# 4 0.0000 0.0000 0.0000 44.0590 0.0000 0.0000
# 5 0.0000 0.0000 0.0000 0.0000 29.6515 0.0000
# 6 0.0000 0.0000 0.0000 0.0000 0.0000 32.7487
#
#
#
# Elastic Compliance Matrix: (Units=1/GPa)
#
#
# Indices 1 2 3 4 5 6 
#
# 1 0.016787 0.000222 -0.003618 0.000000 0.000000 0.000000
# 2 0.000222 0.010305 -0.004538 0.000000 0.000000 0.000000
# 3 -0.003618 -0.004538 0.009201 0.000000 0.000000 0.000000
# 4 0.000000 0.000000 0.000000 0.022697 0.000000 0.000000
# 5 0.000000 0.000000 0.000000 0.000000 0.033725 0.000000
# 6 0.000000 0.000000 0.000000 0.000000 0.000000 0.030536
#
#
# Mechanical properties :
#
#
# Convention : Reuss Voigt Hill
#
# Bulk Modulus (GPa) = 48.95777 63.66353 56.31065
# Shear Modulus (GPa) = 34.26367 36.94566 35.60467
#
# Velocity S-wave (km/s) = 4.06889 4.22513 4.14775
# Velocity P-wave (km/s) = 6.76242 7.38674 7.08146
#
# Compressibility (1/GPa) = 0.02042577
#
# Stress axis : x y z
#
# Youngs Moduli (GPa) = 59.57010 97.03852 108.68093
#
# Poissons Ratio (x) = -0.02155 0.39322
# Poissons Ratio (y) = -0.01323 0.49317
# Poissons Ratio (z) = 0.21553 0.44034
#
# Static dielectric constant tensor:
#      x y z
#    x 1.841210 0.000000 0.000000 
#    y 0.000000 1.775820 0.000000 
#    z 0.000000 0.000000 1.737470 
# 
# From -- ./inp_files/29568.got.cif
#   From: 2010.05.17/outbox.ucp.g08.bks.cvg/sg73_15_cif.got.tgz:29568.got - 2010.06.11 16:36:03.
