data_PCOD9533315
_publ_section_title
;
Structure prediction by ZEFSAII (Michael W. Deem and Ramdas Pophale) SiO2 
 PCOD9533315
Probable space group: I B C A 
;
_chemical_formula_sum "Si O2"
_cell_formula_units_Z 112
_cell_length_a 23.356147
_cell_length_b 14.627084
_cell_length_c 12.481321
_cell_angle_alpha 90.000000
_cell_angle_beta 90.000000
_cell_angle_gamma 90.000000
_cell_volume 4264.022701
_symmetry_space_group_name_H-M "I B C A "
_symmetry_group_IT_number 73
_symmetry_cell_setting 'orthorhombic'
loop_
_space_group_symop_operation_xyz
x,y,z
-x,1/2-y,z
x,-y,1/2-z
1/2-x,y,-z
-x,-y,-z
x,1/2+y,-z
-x,y,1/2+z
1/2+x,-y,z
1/2+x,1/2+y,1/2+z
1/2-x,-y,1/2+z
1/2+x,1/2-y,-z
-x,1/2+y,1/2-z
1/2-x,1/2-y,1/2-z
1/2+x,y,1/2-z
1/2-x,1/2+y,z
x,1/2-y,1/2+z
loop_
_atom_site_type_symbol
_atom_site_label
_atom_site_fract_x
_atom_site_fract_y
_atom_site_fract_z
Si Si1 0.407463 0.132089 0.037975
Si Si2 0.946063 0.289841 0.161422
Si Si3 0.168285 0.793298 0.847420
Si Si4 0.186217 0.594327 0.783889
Si Si5 0.630809 0.656447 0.932727
Si Si6 0.477687 0.922386 0.842038
Si Si7 0.306766 0.571949 0.829575
O O1 0.396175 0.240586 0.060830
O O2 0.462130 0.089769 0.097505
O O3 0.348374 0.086302 0.072953
O O4 0.420384 0.130302 0.911759
O O5 0.899400 0.212491 0.180611
O O6 0.966743 0.332815 0.269997
O O7 0.000000 0.250000 0.099636
O O8 0.184089 0.686908 0.857008
O O9 0.199506 0.840891 0.749499
O O10 0.168697 0.847642 0.958948
O O11 0.152646 0.500000 0.750000
O O12 0.171596 0.645424 0.670182
O O13 0.240947 0.545750 0.842743
O O14 0.577106 0.586226 0.922713
O O15 0.480791 0.000000 0.750000
O O16 0.335963 0.500000 0.750000
#
# Coordination Sequence:
#
# PCOD9533315 Si02
#       7
#    16  16  16  16  16  16  16
#     4  11  23  41  65  98 130 181 230 282 345 427
#     4  11  23  40  66  95 131 180 230 284 349 415
#     4  11  23  42  71 100 134 185 231 291 355 423
#     4  11  24  47  73 101 138 184 241 298 359 425
#     4  11  23  42  70  99 135 182 236 289 348 432
#     4  12  24  40  68  99 140 181 229 290 354 424
#     4  11  24  44  68 100 141 180 229 297 358 428
#
# _framework density 26.266278
#
# number of rings (size 3 to 8) (size 9 to 14) (size 15 to 20)
#    0.000    0.857    2.857    5.143    0.000    2.286 
#    5.143    0.000    0.000    0.000    0.000    0.000 
#    0.000    0.000    0.000    0.000    0.000    0.000 
#
# Total GULP energy -312235.971422 kJ/mol
# GULP energy per Si atom -5575.642347 kJ/mol
# Density = 2.620649 g / cm^3
# Si number density = 26.266278 Si / 1000 Ang^3
#
#
#
# Elastic Constant Matrix: (Units=GPa)
#
#
# Indices 1 2 3 4 5 6 
#
# 1 94.8386 -22.3522 8.3790 0.0000 0.0000 0.0000
# 2 -22.3522 86.7748 -1.3127 0.0000 0.0000 0.0000
# 3 8.3790 -1.3127 67.1287 0.0000 0.0000 0.0000
# 4 0.0000 0.0000 0.0000 44.5775 0.0000 0.0000
# 5 0.0000 0.0000 0.0000 0.0000 27.8707 0.0000
# 6 0.0000 0.0000 0.0000 0.0000 0.0000 23.4506
#
#
#
# Elastic Compliance Matrix: (Units=1/GPa)
#
#
# Indices 1 2 3 4 5 6 
#
# 1 0.011348 0.002903 -0.001360 0.000000 0.000000 0.000000
# 2 0.002903 0.012270 -0.000122 0.000000 0.000000 0.000000
# 3 -0.001360 -0.000122 0.015064 0.000000 0.000000 0.000000
# 4 0.000000 0.000000 0.000000 0.022433 0.000000 0.000000
# 5 0.000000 0.000000 0.000000 0.000000 0.035880 0.000000
# 6 0.000000 0.000000 0.000000 0.000000 0.000000 0.042643
#
#
# Mechanical properties :
#
#
# Convention : Reuss Voigt Hill
#
# Bulk Modulus (GPa) = 24.08270 24.24115 24.16192
# Shear Modulus (GPa) = 33.19210 36.78162 34.98686
#
# Velocity S-wave (km/s) = 3.55868 3.74617 3.65363
# Velocity P-wave (km/s) = 5.10629 5.28779 5.19783
#
# Compressibility (1/GPa) = 0.04152358
#
# Stress axis : x y z
#
# Youngs Moduli (GPa) = 88.11746 81.50010 66.38299
#
# Poissons Ratio (x) = -0.23657 0.09027
# Poissons Ratio (y) = -0.25578 0.00812
# Poissons Ratio (z) = 0.11982 0.00997
#
# Static dielectric constant tensor:
#      x y z
#    x 2.447040 0.000000 0.000000 
#    y 0.000000 2.114890 0.000000 
#    z 0.000000 0.000000 2.150910 
# 
# From -- ./inp_files/19413.got.cif
#   From: 2010.05.17/outbox.cif.g08.bks.cpg/sg73_10_cif.got.tgz:19413.got - 2010.06.03 17:35:07.
