data_PCOD9533564
_publ_section_title
;
Structure prediction by ZEFSAII (Michael W. Deem and Ramdas Pophale) SiO2 
 PCOD9533564
Probable space group: I B C A 
;
_chemical_formula_sum "Si O2"
_cell_formula_units_Z 64
_cell_length_a 23.613032
_cell_length_b 6.913285
_cell_length_c 14.094877
_cell_angle_alpha 90.000000
_cell_angle_beta 90.000000
_cell_angle_gamma 90.000000
_cell_volume 2300.898744
_symmetry_space_group_name_H-M "I B C A "
_symmetry_group_IT_number 73
_symmetry_cell_setting 'orthorhombic'
loop_
_space_group_symop_operation_xyz
x,y,z
-x,1/2-y,z
x,-y,1/2-z
1/2-x,y,-z
-x,-y,-z
x,1/2+y,-z
-x,y,1/2+z
1/2+x,-y,z
1/2+x,1/2+y,1/2+z
1/2-x,-y,1/2+z
1/2+x,1/2-y,-z
-x,1/2+y,1/2-z
1/2-x,1/2-y,1/2-z
1/2+x,y,1/2-z
1/2-x,1/2+y,z
x,1/2-y,1/2+z
loop_
_atom_site_type_symbol
_atom_site_label
_atom_site_fract_x
_atom_site_fract_y
_atom_site_fract_z
Si Si1 0.270856 0.000000 0.750000
Si Si2 0.333565 0.426910 0.872720
Si Si3 0.929353 0.500000 0.750000
Si Si4 0.017157 0.472633 0.607682
Si Si5 0.354132 0.617844 0.404180
O O1 0.223223 0.117997 0.686750
O O2 0.314638 0.016511 0.838908
O O3 0.387574 0.364494 0.811010
O O4 0.341950 0.661762 0.873463
O O5 0.337956 0.378665 0.983695
O O6 0.971704 0.582771 0.672257
O O7 0.082005 0.542307 0.611755
O O8 0.000000 0.250000 0.630498
O O9 0.000000 0.500000 0.500000
#
# Coordination Sequence:
#
# PCOD9533564 Si02
#       5
#     8  16   8  16  16
#     4  11  27  46  76 112 147 201 258 314 370 453
#     4  11  27  48  74 108 151 196 255 313 373 450
#     4  11  27  44  72 106 153 187 252 300 372 453
#     4  12  27  46  76 110 150 195 247 308 380 455
#     4  12  26  48  76 107 152 199 249 311 386 440
#
# _framework density 27.815217000000001
#
# number of rings (size 3 to 8) (size 9 to 14) (size 15 to 20)
#    0.000    0.500    2.500    3.750    7.000    6.000 
#    0.000    0.000    0.000    0.000    0.000    0.000 
#    0.000    0.000    0.000    0.000    0.000    0.000 
#
# Total GULP energy -178861.364539 kJ/mol
# GULP energy per Si atom -5589.417642 kJ/mol
# Density = 2.775191 g / cm^3
# Si number density = 27.815217 Si / 1000 Ang^3
#
#
#
# Elastic Constant Matrix: (Units=GPa)
#
#
# Indices 1 2 3 4 5 6 
#
# 1 311.7896 28.7599 132.6630 0.0000 0.0000 0.0000
# 2 28.7599 116.1996 15.3662 0.0000 0.0000 0.0000
# 3 132.6630 15.3662 302.6826 0.0000 0.0000 0.0000
# 4 0.0000 0.0000 0.0000 34.6055 0.0000 0.0000
# 5 0.0000 0.0000 0.0000 0.0000 80.1438 0.0000
# 6 0.0000 0.0000 0.0000 0.0000 0.0000 2311.5314
#
#
#
# Elastic Compliance Matrix: (Units=1/GPa)
#
#
# Indices 1 2 3 4 5 6 
#
# 1 0.004009 -0.000765 -0.001718 0.000000 0.000000 0.000000
# 2 -0.000765 0.008810 -0.000112 0.000000 0.000000 0.000000
# 3 -0.001718 -0.000112 0.004063 0.000000 0.000000 0.000000
# 4 0.000000 0.000000 0.000000 0.028897 0.000000 0.000000
# 5 0.000000 0.000000 0.000000 0.000000 0.012478 0.000000
# 6 0.000000 0.000000 0.000000 0.000000 0.000000 0.000433
#
#
# Mechanical properties :
#
#
# Convention : Reuss Voigt Hill
#
# Bulk Modulus (GPa) = 85.53507 120.47223 103.00365
# Shear Modulus (GPa) = 73.77206 522.18166 297.97686
#
# Velocity S-wave (km/s) = 5.15556 13.71641 10.36146
# Velocity P-wave (km/s) = 8.13988 17.15398 13.42603
#
# Compressibility (1/GPa) = 0.01169111
#
# Stress axis : x y z
#
# Youngs Moduli (GPa) = 249.44167 113.50696 246.14972
#
# Poissons Ratio (x) = 0.08683 0.42295
# Poissons Ratio (y) = 0.19083 0.02756
# Poissons Ratio (z) = 0.42860 0.01271
#
# Static dielectric constant tensor:
#      x y z
#    x 2.016060 0.000000 0.000000 
#    y 0.000000 2.498620 0.000000 
#    z 0.000000 0.000000 2.079260 
# 
# From -- ./inp_files/15468.got.cif
#   From: 2010.05.17/outbox.cif.g08.bks.cpg/sg73_8_cif.got.tgz:15468.got - 2010.06.03 17:35:07.
