data_PCOD9533687
_publ_section_title
;
Structure prediction by ZEFSAII (Michael W. Deem and Ramdas Pophale) SiO2 
 PCOD9533687
Probable space group: I B C A 
;
_chemical_formula_sum "Si O2"
_cell_formula_units_Z 72
_cell_length_a 23.573423
_cell_length_b 15.073976
_cell_length_c 7.795972
_cell_angle_alpha 90.000000
_cell_angle_beta 90.000000
_cell_angle_gamma 90.000000
_cell_volume 2770.261327
_symmetry_space_group_name_H-M "I B C A "
_symmetry_group_IT_number 73
_symmetry_cell_setting 'orthorhombic'
loop_
_space_group_symop_operation_xyz
x,y,z
-x,1/2-y,z
x,-y,1/2-z
1/2-x,y,-z
-x,-y,-z
x,1/2+y,-z
-x,y,1/2+z
1/2+x,-y,z
1/2+x,1/2+y,1/2+z
1/2-x,-y,1/2+z
1/2+x,1/2-y,-z
-x,1/2+y,1/2-z
1/2-x,1/2-y,1/2-z
1/2+x,y,1/2-z
1/2-x,1/2+y,z
x,1/2-y,1/2+z
loop_
_atom_site_type_symbol
_atom_site_label
_atom_site_fract_x
_atom_site_fract_y
_atom_site_fract_z
Si Si1 0.169090 0.000000 0.750000
Si Si2 0.528716 0.929157 0.121786
Si Si3 0.089831 0.637888 0.408145
Si Si4 0.743744 0.354075 0.706838
Si Si5 0.880390 0.323388 0.213199
O O1 0.126234 0.048654 0.619004
O O2 0.212107 0.079921 0.798551
O O3 0.472891 0.872626 0.172000
O O4 0.579016 0.865040 0.068791
O O5 0.556183 0.000000 0.250000
O O6 0.500000 0.000000 0.000000
O O7 0.086236 0.662826 0.608175
O O8 0.123883 0.719486 0.324664
O O9 0.750000 0.366136 0.500000
O O10 0.750000 0.250000 0.750000
O O11 0.679374 0.370991 0.765566
#
# Coordination Sequence:
#
# PCOD9533687 Si02
#       5
#     8  16  16  16  16
#     4  12  26  46  76 112 156 206 276 328 412 496
#     4  12  27  47  77 114 153 204 265 329 406 486
#     4  12  27  49  76 109 159 209 264 336 403 497
#     4  12  26  52  78 117 160 213 275 341 419 494
#     4  12  27  51  76 114 159 211 265 335 416 484
#
# _framework density 25.990328999999999
#
# number of rings (size 3 to 8) (size 9 to 14) (size 15 to 20)
#    0.000    0.000    7.778    0.667    4.667    2.667 
#    8.000    0.000    0.000    0.000    0.000    0.000 
#    0.000    0.000    0.000    0.000    0.000    0.000 
#
# Total GULP energy -201313.348339 kJ/mol
# GULP energy per Si atom -5592.037454 kJ/mol
# Density = 2.593117 g / cm^3
# Si number density = 25.990329 Si / 1000 Ang^3
#
#
#
# Elastic Constant Matrix: (Units=GPa)
#
#
# Indices 1 2 3 4 5 6 
#
# 1 191.0246 47.4844 3.0524 0.0000 0.0000 0.0000
# 2 47.4844 144.0849 25.3042 0.0000 0.0000 0.0000
# 3 3.0524 25.3042 53.5857 0.0000 0.0000 0.0000
# 4 0.0000 0.0000 0.0000 41.2424 0.0000 0.0000
# 5 0.0000 0.0000 0.0000 0.0000 20.6544 0.0000
# 6 0.0000 0.0000 0.0000 0.0000 0.0000 71.7294
#
#
#
# Elastic Compliance Matrix: (Units=1/GPa)
#
#
# Indices 1 2 3 4 5 6 
#
# 1 0.005721 -0.001993 0.000615 0.000000 0.000000 0.000000
# 2 -0.001993 0.008263 -0.003788 0.000000 0.000000 0.000000
# 3 0.000615 -0.003788 0.020415 0.000000 0.000000 0.000000
# 4 0.000000 0.000000 0.000000 0.024247 0.000000 0.000000
# 5 0.000000 0.000000 0.000000 0.000000 0.048416 0.000000
# 6 0.000000 0.000000 0.000000 0.000000 0.000000 0.013941
#
#
# Mechanical properties :
#
#
# Convention : Reuss Voigt Hill
#
# Bulk Modulus (GPa) = 41.55166 60.04191 50.79678
# Shear Modulus (GPa) = 35.87904 47.58218 41.73061
#
# Velocity S-wave (km/s) = 3.71951 4.28339 4.01137
# Velocity P-wave (km/s) = 5.87098 6.90036 6.40638
#
# Compressibility (1/GPa) = 0.02406643
#
# Stress axis : x y z
#
# Youngs Moduli (GPa) = 174.80696 121.02785 48.98243
#
# Poissons Ratio (x) = 0.24125 -0.03015
# Poissons Ratio (y) = 0.34845 0.18555
# Poissons Ratio (z) = -0.10758 0.45848
#
# Static dielectric constant tensor:
#      x y z
#    x 1.987060 0.000000 0.000000 
#    y 0.000000 2.066010 0.000000 
#    z 0.000000 0.000000 2.232220 
# 
# From -- ./inp_files/7612.got.cif
#   From: 2010.05.17/outbox.cif.g08.bks.cpg/sg73_4_cif.got.tgz:7612.got - 2010.06.03 17:35:07.
