data_PCOD9533206
_publ_section_title
;
Structure prediction by ZEFSAII (Michael W. Deem and Ramdas Pophale) SiO2 
 PCOD9533206
Probable space group: I B C A 
;
_chemical_formula_sum "Si O2"
_cell_formula_units_Z 96
_cell_length_a 21.305358
_cell_length_b 9.892896
_cell_length_c 23.209414
_cell_angle_alpha 90.000000
_cell_angle_beta 90.000000
_cell_angle_gamma 90.000000
_cell_volume 4891.887434
_symmetry_space_group_name_H-M "I B C A "
_symmetry_group_IT_number 73
_symmetry_cell_setting 'orthorhombic'
loop_
_space_group_symop_operation_xyz
x,y,z
-x,1/2-y,z
x,-y,1/2-z
1/2-x,y,-z
-x,-y,-z
x,1/2+y,-z
-x,y,1/2+z
1/2+x,-y,z
1/2+x,1/2+y,1/2+z
1/2-x,-y,1/2+z
1/2+x,1/2-y,-z
-x,1/2+y,1/2-z
1/2-x,1/2-y,1/2-z
1/2+x,y,1/2-z
1/2-x,1/2+y,z
x,1/2-y,1/2+z
loop_
_atom_site_type_symbol
_atom_site_label
_atom_site_fract_x
_atom_site_fract_y
_atom_site_fract_z
Si Si1 0.000000 0.750000 0.815295
Si Si2 0.824049 0.362972 0.421451
Si Si3 0.174032 0.858331 0.943607
Si Si4 0.152914 0.913469 0.643125
Si Si5 0.879742 0.634211 0.374390
Si Si6 0.933333 0.000000 0.250000
Si Si7 0.277449 0.370486 0.287662
O O1 0.949014 0.825183 0.855791
O O2 0.971550 0.627592 0.776553
O O3 0.747518 0.357306 0.424094
O O4 0.836559 0.384731 0.489247
O O5 0.849272 0.226157 0.392280
O O6 0.857336 0.481704 0.385479
O O7 0.143643 0.714984 0.929794
O O8 0.142375 0.968456 0.902753
O O9 0.108502 0.937990 0.697968
O O10 0.223470 0.917143 0.668529
O O11 0.836716 0.684930 0.321637
O O12 0.295355 0.500000 0.250000
O O13 0.250000 0.250000 0.250000
#
# Coordination Sequence:
#
# PCOD9533206 Si02
#       7
#     8  16  16  16  16   8  16
#     4  12  30  48  66  92 136 190 228 282 334 400
#     4  11  23  38  74 103 137 175 222 275 352 411
#     4  11  21  43  66 107 141 171 216 285 344 404
#     4  12  22  42  66 104 136 173 215 282 352 403
#     4  12  24  44  63  95 135 178 229 275 334 407
#     4  12  28  48  70  96 140 178 230 288 340 410
#     4  12  22  35  61  97 130 166 209 274 343 410
#
# _framework density 19.624327000000001
#
# number of rings (size 3 to 8) (size 9 to 14) (size 15 to 20)
#    0.000    0.333    5.833    4.000    3.500    2.667 
#    0.000    0.833    0.000    0.000    0.000    0.000 
#    0.000    0.000    0.000    0.000    0.000    0.000 
#
# Total GULP energy -268065.308582 kJ/mol
# GULP energy per Si atom -5584.693929 kJ/mol
# Density = 1.957966 g / cm^3
# Si number density = 19.624327 Si / 1000 Ang^3
#
#
#
# Elastic Constant Matrix: (Units=GPa)
#
#
# Indices 1 2 3 4 5 6 
#
# 1 85.0961 19.1851 35.1863 0.0000 0.0000 0.0000
# 2 19.1851 87.4522 34.2073 0.0000 0.0000 0.0000
# 3 35.1863 34.2073 106.3034 0.0000 0.0000 0.0000
# 4 0.0000 0.0000 0.0000 37.3609 0.0000 0.0000
# 5 0.0000 0.0000 0.0000 0.0000 8.7361 0.0000
# 6 0.0000 0.0000 0.0000 0.0000 0.0000 22.1903
#
#
#
# Elastic Compliance Matrix: (Units=1/GPa)
#
#
# Indices 1 2 3 4 5 6 
#
# 1 0.013766 -0.001416 -0.004101 0.000000 0.000000 0.000000
# 2 -0.001416 0.013227 -0.003788 0.000000 0.000000 0.000000
# 3 -0.004101 -0.003788 0.011983 0.000000 0.000000 0.000000
# 4 0.000000 0.000000 0.000000 0.026766 0.000000 0.000000
# 5 0.000000 0.000000 0.000000 0.000000 0.114468 0.000000
# 6 0.000000 0.000000 0.000000 0.000000 0.000000 0.045065
#
#
# Mechanical properties :
#
#
# Convention : Reuss Voigt Hill
#
# Bulk Modulus (GPa) = 49.09782 50.66768 49.88275
# Shear Modulus (GPa) = 19.94625 26.34233 23.14429
#
# Velocity S-wave (km/s) = 3.19157 3.66776 3.43792
# Velocity P-wave (km/s) = 6.21729 6.61902 6.42130
#
# Compressibility (1/GPa) = 0.02036750
#
# Stress axis : x y z
#
# Youngs Moduli (GPa) = 72.64078 75.60298 83.44946
#
# Poissons Ratio (x) = 0.10705 0.34223
# Poissons Ratio (y) = 0.10285 0.31608
# Poissons Ratio (z) = 0.29790 0.28636
#
# Static dielectric constant tensor:
#      x y z
#    x 1.687810 0.000000 0.000000 
#    y 0.000000 1.705570 0.000000 
#    z 0.000000 0.000000 1.688580 
# 
# From -- ./inp_files/6478.got.cif
#   From: 2010.05.17/outbox.cif.g08.bks.cpg/sg73_4_cif.got.tgz:6478.got - 2010.06.03 17:35:07.
