data_PCOD9533292
_publ_section_title
;
Structure prediction by ZEFSAII (Michael W. Deem and Ramdas Pophale) SiO2 
 PCOD9533292
Probable space group: I B C A 
;
_chemical_formula_sum "Si O2"
_cell_formula_units_Z 112
_cell_length_a 15.019373
_cell_length_b 23.809552
_cell_length_c 13.902277
_cell_angle_alpha 90.000000
_cell_angle_beta 90.000000
_cell_angle_gamma 90.000000
_cell_volume 4971.517406
_symmetry_space_group_name_H-M "I B C A "
_symmetry_group_IT_number 73
_symmetry_cell_setting 'orthorhombic'
loop_
_space_group_symop_operation_xyz
x,y,z
-x,1/2-y,z
x,-y,1/2-z
1/2-x,y,-z
-x,-y,-z
x,1/2+y,-z
-x,y,1/2+z
1/2+x,-y,z
1/2+x,1/2+y,1/2+z
1/2-x,-y,1/2+z
1/2+x,1/2-y,-z
-x,1/2+y,1/2-z
1/2-x,1/2-y,1/2-z
1/2+x,y,1/2-z
1/2-x,1/2+y,z
x,1/2-y,1/2+z
loop_
_atom_site_type_symbol
_atom_site_label
_atom_site_fract_x
_atom_site_fract_y
_atom_site_fract_z
Si Si1 0.664153 0.149771 0.934633
Si Si2 0.000000 0.750000 0.700267
Si Si3 0.357730 0.881517 0.595192
Si Si4 0.006682 0.359848 0.429287
Si Si5 0.675160 0.764438 0.173762
Si Si6 0.291572 0.545573 0.669052
Si Si7 0.750000 0.023746 0.500000
Si Si8 0.081348 0.938022 0.220192
O O1 0.672425 0.213554 0.900430
O O2 0.664190 0.106764 0.843838
O O3 0.750000 0.135855 0.000000
O O4 0.576999 0.145953 0.999240
O O5 0.019077 0.803528 0.632788
O O6 0.917518 0.765146 0.768537
O O7 0.410148 0.871329 0.497188
O O8 0.308901 0.824482 0.624805
O O9 0.297179 0.935454 0.575567
O O10 0.418036 0.898906 0.685598
O O11 0.981168 0.410581 0.358985
O O12 0.750000 0.750000 0.250000
O O13 0.317789 0.500000 0.750000
O O14 0.309660 0.516048 0.566156
O O15 0.184870 0.557113 0.683711
O O16 0.052925 0.000000 0.250000
#
# Coordination Sequence:
#
# PCOD9533292 Si02
#       8
#    16   8  16  16  16  16   8  16
#     4  12  24  43  71 107 139 187 242 291 360 435
#     4  12  26  50  72 102 146 192 236 302 370 428
#     4  12  27  46  72 107 142 188 245 299 357 435
#     4  12  26  46  72 103 146 189 237 304 357 432
#     4  12  27  46  75 107 144 191 243 301 370 438
#     4  11  22  45  73 102 144 191 237 298 361 431
#     4  12  24  44  74 102 140 188 242 294 356 426
#     4  11  22  48  71 101 150 191 233 297 364 426
#
# _framework density 22.528333
#
# number of rings (size 3 to 8) (size 9 to 14) (size 15 to 20)
#    0.000    0.286    6.429    3.429    3.000    0.571 
#    0.000    0.000    0.000    0.000    0.000    0.000 
#    0.000    0.000    0.000    0.000    0.000    0.000 
#
# Total GULP energy -313562.957622 kJ/mol
# GULP energy per Si atom -5599.338529 kJ/mol
# Density = 2.247706 g / cm^3
# Si number density = 22.528333 Si / 1000 Ang^3
#
#
#
# Elastic Constant Matrix: (Units=GPa)
#
#
# Indices 1 2 3 4 5 6 
#
# 1 29.6247 -11.2976 -5.1784 0.0000 0.0000 0.0000
# 2 -11.2976 145.2743 38.7811 0.0000 0.0000 0.0000
# 3 -5.1784 38.7811 90.8647 0.0000 0.0000 0.0000
# 4 0.0000 0.0000 0.0000 63.5364 0.0000 0.0000
# 5 0.0000 0.0000 0.0000 0.0000 23.0236 0.0000
# 6 0.0000 0.0000 0.0000 0.0000 0.0000 1.6040
#
#
#
# Elastic Compliance Matrix: (Units=1/GPa)
#
#
# Indices 1 2 3 4 5 6 
#
# 1 0.034858 0.002461 0.000936 0.000000 0.000000 0.000000
# 2 0.002461 0.007942 -0.003250 0.000000 0.000000 0.000000
# 3 0.000936 -0.003250 0.012446 0.000000 0.000000 0.000000
# 4 0.000000 0.000000 0.000000 0.015739 0.000000 0.000000
# 5 0.000000 0.000000 0.000000 0.000000 0.043434 0.000000
# 6 0.000000 0.000000 0.000000 0.000000 0.000000 0.623454
#
#
# Mechanical properties :
#
#
# Convention : Reuss Voigt Hill
#
# Bulk Modulus (GPa) = 18.00479 34.48599 26.24539
# Shear Modulus (GPa) = 6.61296 33.86337 20.23816
#
# Velocity S-wave (km/s) = 1.71516 3.88125 3.00049
# Velocity P-wave (km/s) = 3.45424 5.95202 4.86612
#
# Compressibility (1/GPa) = 0.05554079
#
# Stress axis : x y z
#
# Youngs Moduli (GPa) = 28.68808 125.90683 80.34939
#
# Poissons Ratio (x) = -0.30984 -0.07523
# Poissons Ratio (y) = -0.07060 0.26110
# Poissons Ratio (z) = -0.02686 0.40914
#
# Static dielectric constant tensor:
#      x y z
#    x 1.857300 0.000000 0.000000 
#    y 0.000000 1.806640 0.000000 
#    z 0.000000 0.000000 1.861070 
# 
# From -- ./inp_files/17310.got.cif
#   From: 2010.05.17/outbox.cif.g08.bks.cpg/sg73_9_cif.got.tgz:17310.got - 2010.06.03 17:35:07.
