data_PCOD9533177
_publ_section_title
;
Structure prediction by ZEFSAII (Michael W. Deem and Ramdas Pophale) SiO2 
 PCOD9533177
Probable space group: I B C A 
;
_chemical_formula_sum "Si O2"
_cell_formula_units_Z 96
_cell_length_a 14.758476
_cell_length_b 26.360981
_cell_length_c 9.860270
_cell_angle_alpha 90.000000
_cell_angle_beta 90.000000
_cell_angle_gamma 90.000000
_cell_volume 3836.117390
_symmetry_space_group_name_H-M "I B C A "
_symmetry_group_IT_number 73
_symmetry_cell_setting 'orthorhombic'
loop_
_space_group_symop_operation_xyz
x,y,z
-x,1/2-y,z
x,-y,1/2-z
1/2-x,y,-z
-x,-y,-z
x,1/2+y,-z
-x,y,1/2+z
1/2+x,-y,z
1/2+x,1/2+y,1/2+z
1/2-x,-y,1/2+z
1/2+x,1/2-y,-z
-x,1/2+y,1/2-z
1/2-x,1/2-y,1/2-z
1/2+x,y,1/2-z
1/2-x,1/2+y,z
x,1/2-y,1/2+z
loop_
_atom_site_type_symbol
_atom_site_label
_atom_site_fract_x
_atom_site_fract_y
_atom_site_fract_z
Si Si1 0.137290 0.138664 0.899750
Si Si2 0.900513 0.721884 0.369088
Si Si3 0.121634 0.523873 0.110135
Si Si4 0.677353 0.671816 0.113656
Si Si5 0.402824 0.038982 0.638804
Si Si6 0.071257 0.149043 0.369976
O O1 0.132053 0.178886 0.023285
O O2 0.155117 0.079750 0.932452
O O3 0.192937 0.152227 0.764541
O O4 0.034746 0.143178 0.844720
O O5 0.831459 0.768034 0.376048
O O6 0.900296 0.696943 0.219493
O O7 0.000000 0.750000 0.392588
O O8 0.154724 0.500000 0.250000
O O9 0.012284 0.532364 0.124510
O O10 0.137342 0.480302 0.000995
O O11 0.750000 0.657903 0.000000
O O12 0.587606 0.653034 0.031883
O O13 0.384203 0.096587 0.675883
O O14 0.371407 0.000000 0.750000
#
# Coordination Sequence:
#
# PCOD9533177 Si02
#       6
#    16  16  16  16  16  16
#     4  11  21  38  64  93 127 172 220 267 329 398
#     4  12  23  38  62  92 124 170 223 274 322 395
#     4   9  17  30  53  88 125 158 200 262 323 375
#     4  12  27  42  62  94 134 173 216 278 334 389
#     4   9  17  30  53  88 123 155 204 267 318 370
#     4  11  21  38  64  91 126 170 220 271 329 393
#
# _framework density 25.025303999999998
#
# number of rings (size 3 to 8) (size 9 to 14) (size 15 to 20)
#    0.000    1.333    3.333    3.000    0.000    8.000 
#    0.000    0.000    0.000    3.000    0.000    1.167 
#    0.000    0.000    0.000    0.000    0.000    0.000 
#
# Total GULP energy -268360.039324 kJ/mol
# GULP energy per Si atom -5590.834153 kJ/mol
# Density = 2.496835 g / cm^3
# Si number density = 25.025304 Si / 1000 Ang^3
#
#
#
# Elastic Constant Matrix: (Units=GPa)
#
#
# Indices 1 2 3 4 5 6 
#
# 1 73.7897 10.8074 18.5123 -0.0001 0.0000 0.0000
# 2 10.8074 105.5356 7.7992 0.0004 -0.0002 -0.0001
# 3 18.5123 7.7992 108.5977 0.0012 -0.0005 0.0001
# 4 -0.0001 0.0004 0.0012 41.3729 -0.0002 0.0000
# 5 0.0000 -0.0002 -0.0005 -0.0002 11.7014 0.0000
# 6 0.0000 -0.0001 0.0001 0.0000 0.0000 -4.6367
#
#
#
# Elastic Compliance Matrix: (Units=1/GPa)
#
#
# Indices 1 2 3 4 5 6 
#
# 1 0.014331 -0.001294 -0.002350 0.000000 0.000000 0.000000
# 2 -0.001294 0.009643 -0.000472 0.000000 0.000000 0.000000
# 3 -0.002350 -0.000472 0.009643 0.000000 0.000000 0.000000
# 4 0.000000 0.000000 0.000000 0.024170 0.000000 0.000000
# 5 0.000000 0.000000 0.000000 0.000000 0.085460 0.000000
# 6 0.000000 0.000000 0.000000 0.000000 0.000000 -0.215669
#
#
# Mechanical properties :
#
#
# Convention : Reuss Voigt Hill
#
# Bulk Modulus (GPa) = 39.39346 40.24009 39.81678
# Shear Modulus (GPa) = -89.72123 26.40778 -31.65673
#
# Velocity S-wave (km/s) = -5.99417 3.25197 -3.56053
# Velocity P-wave (km/s) = 5.66843 5.49683 0.97877
#
# Compressibility (1/GPa) = 0.02538493
#
# Stress axis : x y z
#
# Youngs Moduli (GPa) = 69.77827 103.70375 103.70432
#
# Poissons Ratio (x) = 0.13418 0.24371
# Poissons Ratio (y) = 0.09029 0.04894
# Poissons Ratio (z) = 0.16398 0.04894
#
# Static dielectric constant tensor:
#      x y z
#    x 2.145580 0.000000 0.000000 
#    y 0.000000 1.908350 0.000000 
#    z 0.000000 0.000000 1.877920 
# 
# From -- ./inp_files/6439.got.cif
#   From: 2010.05.17/outbox.cif.g08.bks.cpg/sg73_4_cif.got.tgz:6439.got - 2010.06.03 17:35:07.
