data_PCOD9533501
_publ_section_title
;
Structure prediction by ZEFSAII (Michael W. Deem and Ramdas Pophale) SiO2 
 PCOD9533501
Probable space group: I B C A 
;
_chemical_formula_sum "Si O2"
_cell_formula_units_Z 72
_cell_length_a 9.553118
_cell_length_b 20.931335
_cell_length_c 15.982293
_cell_angle_alpha 90.000000
_cell_angle_beta 90.000000
_cell_angle_gamma 90.000000
_cell_volume 3195.811527
_symmetry_space_group_name_H-M "I B C A "
_symmetry_group_IT_number 73
_symmetry_cell_setting 'orthorhombic'
loop_
_space_group_symop_operation_xyz
x,y,z
-x,1/2-y,z
x,-y,1/2-z
1/2-x,y,-z
-x,-y,-z
x,1/2+y,-z
-x,y,1/2+z
1/2+x,-y,z
1/2+x,1/2+y,1/2+z
1/2-x,-y,1/2+z
1/2+x,1/2-y,-z
-x,1/2+y,1/2-z
1/2-x,1/2-y,1/2-z
1/2+x,y,1/2-z
1/2-x,1/2+y,z
x,1/2-y,1/2+z
loop_
_atom_site_type_symbol
_atom_site_label
_atom_site_fract_x
_atom_site_fract_y
_atom_site_fract_z
Si Si1 0.143276 0.000000 0.250000
Si Si2 0.203802 0.192965 0.809443
Si Si3 0.759641 0.585764 0.093589
Si Si4 0.609291 0.712608 0.949350
Si Si5 0.497531 0.623037 0.182674
O O1 0.219642 0.961858 0.172936
O O2 0.047978 0.947845 0.294150
O O3 0.250000 0.250000 0.750000
O O4 0.127836 0.227712 0.885323
O O5 0.348675 0.157548 0.831536
O O6 0.091159 0.152135 0.757674
O O7 0.880476 0.641428 0.092543
O O8 0.608962 0.619577 0.107936
O O9 0.750000 0.556251 0.000000
O O10 0.500000 0.750000 0.009135
O O11 0.750000 0.709494 0.000000
#
# Coordination Sequence:
#
# PCOD9533501 Si02
#       5
#     8  16  16  16  16
#     4  12  24  50  74 104 144 198 254 306 374 440
#     4  12  23  41  70 103 140 185 246 295 368 439
#     4  11  26  47  74 107 150 191 251 314 371 445
#     4  11  25  43  70 106 149 187 238 303 374 443
#     4  12  25  43  73 103 140 198 248 303 369 439
#
# _framework density 22.529489000000002
#
# number of rings (size 3 to 8) (size 9 to 14) (size 15 to 20)
#    0.000    0.444    4.444    4.000    6.222    0.889 
#    0.000    1.111    0.000    0.000    0.000    0.000 
#    0.000    0.000    0.000    0.000    0.000    0.000 
#
# Total GULP energy -200588.319152 kJ/mol
# GULP energy per Si atom -5571.897754 kJ/mol
# Density = 2.247821 g / cm^3
# Si number density = 22.529489 Si / 1000 Ang^3
#
#
#
# Elastic Constant Matrix: (Units=GPa)
#
#
# Indices 1 2 3 4 5 6 
#
# 1 108.6704 45.4413 15.6960 0.0000 0.0000 0.0000
# 2 45.4413 126.8897 17.9019 0.0000 0.0000 0.0000
# 3 15.6960 17.9019 79.5087 0.0000 0.0000 0.0000
# 4 0.0000 0.0000 0.0000 29.8405 0.0000 0.0000
# 5 0.0000 0.0000 0.0000 0.0000 -15.6250 0.0000
# 6 0.0000 0.0000 0.0000 0.0000 0.0000 32.4378
#
#
#
# Elastic Compliance Matrix: (Units=1/GPa)
#
#
# Indices 1 2 3 4 5 6 
#
# 1 0.010956 -0.003737 -0.001321 0.000000 0.000000 0.000000
# 2 -0.003737 0.009414 -0.001382 0.000000 0.000000 0.000000
# 3 -0.001321 -0.001382 0.013149 0.000000 0.000000 0.000000
# 4 0.000000 0.000000 0.000000 0.033511 0.000000 0.000000
# 5 0.000000 0.000000 0.000000 0.000000 -0.064000 0.000000
# 6 0.000000 0.000000 0.000000 0.000000 0.000000 0.030828
#
#
# Mechanical properties :
#
#
# Convention : Reuss Voigt Hill
#
# Bulk Modulus (GPa) = 48.45328 52.57191 50.51259
# Shear Modulus (GPa) = 93.25103 25.06598 59.15851
#
# Velocity S-wave (km/s) = 6.44054 3.33916 5.12984
# Velocity P-wave (km/s) = 8.76702 6.18482 7.58659
#
# Compressibility (1/GPa) = 0.02063844
#
# Stress axis : x y z
#
# Youngs Moduli (GPa) = 91.27728 106.22374 76.05000
#
# Poissons Ratio (x) = 0.39695 0.10049
# Poissons Ratio (y) = 0.34110 0.10509
# Poissons Ratio (z) = 0.12061 0.14679
#
# Static dielectric constant tensor:
#      x y z
#    x 2.058750 0.000000 0.000000 
#    y 0.000000 2.235210 0.000000 
#    z 0.000000 0.000000 1.811820 
# 
# From -- ./inp_files/5342.got.cif
#   From: 2010.05.17/outbox.cif.g08.bks.cpg/sg73_3_cif.got.tgz:5342.got - 2010.06.03 17:35:07.
