data_PCOD9533821
_publ_section_title
;
Structure prediction by ZEFSAII (Michael W. Deem and Ramdas Pophale) SiO2 
 PCOD9533821
Probable space group: I M M A
;
_chemical_formula_sum "Si O2"
_cell_formula_units_Z 104
_cell_length_a 23.450810
_cell_length_b 12.757850
_cell_length_c 23.452271
_cell_angle_alpha 90.000000
_cell_angle_beta 90.000000
_cell_angle_gamma 90.000000
_cell_volume 7016.495381
_symmetry_space_group_name_H-M "I M M A"
_symmetry_group_IT_number 74
_symmetry_cell_setting 'orthorhombic'
loop_
_space_group_symop_operation_xyz
x,y,z
-x,1/2-y,z
x,-y,-z
-x,1/2+y,-z
-x,-y,-z
x,1/2+y,-z
-x,y,z
x,1/2-y,z
1/2+x,1/2+y,1/2+z
1/2-x,-y,1/2+z
1/2+x,1/2-y,1/2-z
1/2-x,y,1/2-z
1/2-x,1/2-y,1/2-z
1/2+x,y,1/2-z
1/2-x,1/2+y,1/2+z
1/2+x,-y,1/2+z
loop_
_atom_site_type_symbol
_atom_site_label
_atom_site_fract_x
_atom_site_fract_y
_atom_site_fract_z
Si Si1 0.375500 0.069918 0.923139
Si Si2 0.000000 0.623145 0.267561
Si Si3 0.377562 0.623009 0.278480
Si Si4 0.198658 0.869893 0.322383
Si Si5 0.188181 0.123681 0.890190
Si Si6 0.683155 0.868777 0.959891
Si Si7 0.500000 0.875968 0.098028
Si Si8 0.287913 0.000000 0.500000
O O1 0.354265 0.125922 0.866055
O O2 0.442671 0.078744 0.928608
O O3 0.352679 0.950889 0.922500
O O4 0.345355 0.123205 0.977307
O O5 0.059503 0.585982 0.239625
O O6 0.000000 0.750000 0.262621
O O7 0.000000 0.598712 0.334621
O O8 0.377410 0.750000 0.271543
O O9 0.327069 0.583791 0.235958
O O10 0.360473 0.602496 0.343508
O O11 0.215028 0.750000 0.309726
O O12 0.252618 0.910792 0.358524
O O13 0.191896 0.250000 0.900465
O O14 0.181004 0.061892 0.949248
O O15 0.683253 0.750000 0.939886
O O16 0.745866 0.916084 0.969540
O O17 0.500000 0.750000 0.091958
#
# Coordination Sequence:
#
# PCOD9533821 Si02
#       8
#    16   8  16  16  16  16   8   8
#     4  10  19  28  43  63  84 118 154 180 217 255
#     4   9  16  26  41  63  93 121 137 158 211 273
#     4   9  17  26  41  66  94 120 139 167 216 268
#     4  10  15  25  42  65  93 115 138 172 215 263
#     4  10  18  28  43  67  94 114 142 179 215 263
#     4  10  19  31  43  58  85 119 154 188 216 248
#     4  11  18  27  44  64  91 119 150 181 206 259
#     4  10  18  28  46  64  84 116 146 172 222 270
#
# _framework density 14.822215
#
# number of rings (size 3 to 8) (size 9 to 14) (size 15 to 20)
#    0.000    2.308    4.615    2.308    0.000    3.077 
#    0.000    1.154    0.000    0.462    0.000    3.231 
#    0.000    0.000    0.000    0.000    0.000    0.000 
#
# Total GULP energy -289470.442863 kJ/mol
# GULP energy per Si atom -5566.739286 kJ/mol
# Density = 1.478848 g / cm^3
# Si number density = 14.822215 Si / 1000 Ang^3
#
#
#
# Elastic Constant Matrix: (Units=GPa)
#
#
# Indices 1 2 3 4 5 6 
#
# 1 24.4322 3.9607 15.3760 0.0000 0.0000 0.0000
# 2 3.9607 58.1916 16.3873 0.0000 0.0000 0.0000
# 3 15.3760 16.3873 80.7559 0.0000 0.0000 0.0000
# 4 0.0000 0.0000 0.0000 16.4966 0.0000 0.0000
# 5 0.0000 0.0000 0.0000 0.0000 18.6099 0.0000
# 6 0.0000 0.0000 0.0000 0.0000 0.0000 8.8137
#
#
#
# Elastic Compliance Matrix: (Units=1/GPa)
#
#
# Indices 1 2 3 4 5 6 
#
# 1 0.046530 -0.000713 -0.008715 0.000000 0.000000 0.000000
# 2 -0.000713 0.018237 -0.003565 0.000000 0.000000 0.000000
# 3 -0.008715 -0.003565 0.014766 0.000000 0.000000 0.000000
# 4 0.000000 0.000000 0.000000 0.060619 0.000000 0.000000
# 5 0.000000 0.000000 0.000000 0.000000 0.053735 0.000000
# 6 0.000000 0.000000 0.000000 0.000000 0.000000 0.113460
#
#
# Mechanical properties :
#
#
# Convention : Reuss Voigt Hill
#
# Bulk Modulus (GPa) = 18.67501 26.09195 22.38348
# Shear Modulus (GPa) = 14.23771 17.29440 15.76605
#
# Velocity S-wave (km/s) = 3.10266 3.41954 3.26494
# Velocity P-wave (km/s) = 5.04599 5.76476 5.41731
#
# Compressibility (1/GPa) = 0.05354749
#
# Stress axis : x y z
#
# Youngs Moduli (GPa) = 21.49169 54.83333 67.72460
#
# Poissons Ratio (x) = 0.03909 0.59019
# Poissons Ratio (y) = 0.01532 0.24144
# Poissons Ratio (z) = 0.18729 0.19548
#
# Static dielectric constant tensor:
#      x y z
#    x 1.516800 0.000000 0.000000 
#    y 0.000000 1.490940 0.000000 
#    z 0.000000 0.000000 1.511610 
# 
# From -- ./inp_files/62147.got.cif
#   From: 2010.05.17/outbox.cif.g08.bks.cpg/sg74_32_cif.got.tgz:62147.got - 2010.06.03 17:57:02.
