data_PCOD9533880
_publ_section_title
;
Structure prediction by ZEFSAII (Michael W. Deem and Ramdas Pophale) SiO2 
 PCOD9533880
Probable space group: I M M A
;
_chemical_formula_sum "Si O2"
_cell_formula_units_Z 64
_cell_length_a 10.458208
_cell_length_b 18.379438
_cell_length_c 19.615998
_cell_angle_alpha 90.000000
_cell_angle_beta 90.000000
_cell_angle_gamma 90.000000
_cell_volume 3770.508388
_symmetry_space_group_name_H-M "I M M A"
_symmetry_group_IT_number 74
_symmetry_cell_setting 'orthorhombic'
loop_
_space_group_symop_operation_xyz
x,y,z
-x,1/2-y,z
x,-y,-z
-x,1/2+y,-z
-x,-y,-z
x,1/2+y,-z
-x,y,z
x,1/2-y,z
1/2+x,1/2+y,1/2+z
1/2-x,-y,1/2+z
1/2+x,1/2-y,1/2-z
1/2-x,y,1/2-z
1/2-x,1/2-y,1/2-z
1/2+x,y,1/2-z
1/2-x,1/2+y,1/2+z
1/2+x,-y,1/2+z
loop_
_atom_site_type_symbol
_atom_site_label
_atom_site_fract_x
_atom_site_fract_y
_atom_site_fract_z
Si Si1 0.500000 0.088040 0.988987
Si Si2 0.776715 0.916898 0.970257
Si Si3 0.500000 0.418477 0.689010
Si Si4 0.263651 0.970729 0.674679
Si Si5 0.500000 0.058786 0.839376
Si Si6 0.500000 0.664011 0.449773
O O1 0.500000 0.103551 0.908644
O O2 0.633517 0.112848 0.019766
O O3 0.500000 0.000000 0.000000
O O4 0.800858 0.921606 0.889499
O O5 0.878016 0.871080 0.012609
O O6 0.782561 0.000000 0.000000
O O7 0.626073 0.468263 0.679896
O O8 0.500000 0.396912 0.768694
O O9 0.500000 0.359530 0.629564
O O10 0.250000 0.936467 0.750000
O O11 0.127332 0.008898 0.659063
O O12 0.500000 0.750000 0.456197
#
# Coordination Sequence:
#
# PCOD9533880 Si02
#       6
#     8  16   8  16   8   8
#     4  10  16  28  53  81 100 129 164 227 278 313
#     4  11  18  33  56  79 106 134 175 230 274 309
#     4  10  19  30  46  71 107 140 166 213 258 311
#     4  10  18  28  50  81 106 128 163 218 281 320
#     4  10  16  27  46  78 107 124 162 214 275 311
#     4  12  24  36  51  75 110 154 190 212 250 313
#
# _framework density 16.973838000000001
#
# number of rings (size 3 to 8) (size 9 to 14) (size 15 to 20)
#    0.000    1.500    7.500    1.125    0.000    0.000 
#    0.000    0.625    0.000   19.500    0.000    0.000 
#    0.000    0.000    0.000    0.000    0.000    0.000 
#
# Total GULP energy -178366.021347 kJ/mol
# GULP energy per Si atom -5573.938167 kJ/mol
# Density = 1.693520 g / cm^3
# Si number density = 16.973838 Si / 1000 Ang^3
#
#
#
# Elastic Constant Matrix: (Units=GPa)
#
#
# Indices 1 2 3 4 5 6 
#
# 1 98.5708 27.0364 1.4563 0.0000 0.0000 0.0000
# 2 27.0364 48.3007 36.9334 0.0000 0.0000 0.0000
# 3 1.4563 36.9334 146.0523 0.0000 0.0000 0.0000
# 4 0.0000 0.0000 0.0000 9.4296 0.0000 0.0000
# 5 0.0000 0.0000 0.0000 0.0000 30.7809 0.0000
# 6 0.0000 0.0000 0.0000 0.0000 0.0000 -4.0544
#
#
#
# Elastic Compliance Matrix: (Units=1/GPa)
#
#
# Indices 1 2 3 4 5 6 
#
# 1 0.012453 -0.008524 0.002031 0.000000 0.000000 0.000000
# 2 -0.008524 0.031501 -0.007881 0.000000 0.000000 0.000000
# 3 0.002031 -0.007881 0.008820 0.000000 0.000000 0.000000
# 4 0.000000 0.000000 0.000000 0.106049 0.000000 0.000000
# 5 0.000000 0.000000 0.000000 0.000000 0.032488 0.000000
# 6 0.000000 0.000000 0.000000 0.000000 0.000000 -0.246647
#
#
# Mechanical properties :
#
#
# Convention : Reuss Voigt Hill
#
# Bulk Modulus (GPa) = 41.62042 47.08620 44.35331
# Shear Modulus (GPa) = -269.09895 22.39774 -123.35060
#
# Velocity S-wave (km/s) = -12.60483 3.63650 -8.53398
# Velocity P-wave (km/s) = 13.68461 6.74039 8.42128
#
# Compressibility (1/GPa) = 0.02402667
#
# Stress axis : x y z
#
# Youngs Moduli (GPa) = 80.30250 31.74501 113.38491
#
# Poissons Ratio (x) = 0.27059 -0.23032
# Poissons Ratio (y) = 0.68448 0.89358
# Poissons Ratio (z) = -0.16312 0.25018
#
# Static dielectric constant tensor:
#      x y z
#    x 1.589190 0.000000 0.000000 
#    y 0.000000 1.524930 0.000000 
#    z 0.000000 0.000000 1.623980 
# 
# From -- ./inp_files/39154.got.cif
#   From: 2010.05.17/outbox.cif.g08.bks.cpg/sg74_20_cif.got.tgz:39154.got - 2010.06.03 17:57:02.
