data_PCOD9533748
_publ_section_title
;
Structure prediction by ZEFSAII (Michael W. Deem and Ramdas Pophale) SiO2 
 PCOD9533748
Probable space group: I B C A 
;
_chemical_formula_sum "Si O2"
_cell_formula_units_Z 52
_cell_length_a 27.000000
_cell_length_b 21.000000
_cell_length_c 9.000000
_cell_angle_alpha 90.000000
_cell_angle_beta 90.000000
_cell_angle_gamma 90.000000
_cell_volume 5103.000000
_symmetry_space_group_name_H-M "I B C A "
_symmetry_group_IT_number 73
_symmetry_cell_setting 'orthorhombic'
loop_
_space_group_symop_operation_xyz
x,y,z
-x,1/2-y,z
x,-y,1/2-z
1/2-x,y,-z
-x,-y,-z
x,1/2+y,-z
-x,y,1/2+z
1/2+x,-y,z
1/2+x,1/2+y,1/2+z
1/2-x,-y,1/2+z
1/2+x,1/2-y,-z
-x,1/2+y,1/2-z
1/2-x,1/2-y,1/2-z
1/2+x,y,1/2-z
1/2-x,1/2+y,z
x,1/2-y,1/2+z
loop_
_atom_site_type_symbol
_atom_site_label
_atom_site_fract_x
_atom_site_fract_y
_atom_site_fract_z
Si Si1 0.651637 0.499768 0.018558
Si Si2 0.000000 0.750000 0.082143
Si Si3 0.323964 0.238929 0.754458
Si Si4 0.771722 0.000000 0.750000
Si Si5 0.064380 0.682117 0.830985
Si Si6 0.544608 0.468644 0.905296
Si Si7 0.750000 0.747781 0.000000
Si Si8 0.815527 0.897895 0.251771
O O1 0.658826 0.565564 0.109902
O O2 0.659533 0.434318 0.112341
O O3 0.693171 0.499391 0.892369
O O4 0.596284 0.496646 0.962317
O O5 0.971220 0.700752 0.191347
O O6 0.958127 0.780052 0.973581
O O7 0.379057 0.208512 0.787254
O O8 0.286307 0.217444 0.884904
O O9 0.293072 0.216829 0.606567
O O10 0.321394 0.319572 0.752476
O O11 0.738170 0.935064 0.747395
O O12 0.055542 0.607539 0.876366
O O13 0.534220 0.500000 0.750000
O O14 0.500000 0.500000 0.000000
#
# Coordination Sequence:
#
# PCOD9533748 Si02
#       8
#    16   8  16   8  16  16   8  16
#     4  10  23  41  66 104 137 192 235 297 356 420
#     4  10  24  46  74 104 136 192 234 312 364 448
#     4  11  25  43  70  99 148 190 237 298 359 439
#     4  10  20  42  64 106 140 192 242 292 348 420
#     4  11  25  47  73 105 142 188 247 300 382 448
#     4  12  28  47  74 103 139 183 236 309 368 441
#     4  10  26  42  60 110 136 200 232 286 356 434
#     4  10  23  39  69  97 144 189 236 288 351 431
#
# _framework density 10.190084000000001
#
# number of rings (size 3 to 8) (size 9 to 14) (size 15 to 20)
#    0.000    1.538    0.769    3.692   10.769    6.154 
#    0.000    0.000    0.000    0.000    0.000    0.000 
#    0.000    0.000    0.000    0.000    0.000    0.000 
#
# Total GULP energy -289474.106106 kJ/mol
# GULP energy per Si atom -5566.809733 kJ/mol
# Density = 1.016689 g / cm^3
# Si number density = 10.190084 Si / 1000 Ang^3
#
#
#
# Elastic Constant Matrix: (Units=GPa)
#
#
# Indices 1 2 3 4 5 6 
#
# 1 185.5503 37.7279 72.1006 0.0000 0.0000 0.0000
# 2 37.7279 133.5349 26.0682 0.0000 0.0000 0.0000
# 3 72.1006 26.0682 143.5978 0.0000 0.0000 0.0000
# 4 0.0000 0.0000 0.0000 20.0302 0.0000 0.0000
# 5 0.0000 0.0000 0.0000 0.0000 72.3309 0.0000
# 6 0.0000 0.0000 0.0000 0.0000 0.0000 25.0790
#
#
#
# Elastic Compliance Matrix: (Units=1/GPa)
#
#
# Indices 1 2 3 4 5 6 
#
# 1 0.006914 -0.001323 -0.003231 0.000000 0.000000 0.000000
# 2 -0.001323 0.008017 -0.000791 0.000000 0.000000 0.000000
# 3 -0.003231 -0.000791 0.008730 0.000000 0.000000 0.000000
# 4 0.000000 0.000000 0.000000 0.049925 0.000000 0.000000
# 5 0.000000 0.000000 0.000000 0.000000 0.013825 0.000000
# 6 0.000000 0.000000 0.000000 0.000000 0.000000 0.039874
#
#
# Mechanical properties :
#
#
# Convention : Reuss Voigt Hill
#
# Bulk Modulus (GPa) = 77.09937 81.60849 79.35393
# Shear Modulus (GPa) = 35.13734 45.27377 40.20555
#
# Velocity S-wave (km/s) = 4.15673 4.71835 4.44642
# Velocity P-wave (km/s) = 7.80708 8.35547 8.08592
#
# Compressibility (1/GPa) = 0.01297027
#
# Stress axis : x y z
#
# Youngs Moduli (GPa) = 144.63522 124.73775 114.54716
#
# Poissons Ratio (x) = 0.16498 0.37015
# Poissons Ratio (y) = 0.19129 0.09064
# Poissons Ratio (z) = 0.46737 0.09870
#
# Static dielectric constant tensor:
#      x y z
#    x 1.700590 0.000000 0.000000 
#    y 0.000000 1.746240 0.000000 
#    z 0.000000 0.000000 2.018220 
# 
# From -- ./inp_files/7938.got.cif
#   From: 2010.05.17/outbox.ucp.g08.bks.cvg/sg73_4_cif.got.tgz:7938.got - 2010.06.11 16:36:03.
