data_PCOD9533194
_publ_section_title
;
Structure prediction by ZEFSAII (Michael W. Deem and Ramdas Pophale) SiO2 
 PCOD9533194
Probable space group: I B C A 
;
_chemical_formula_sum "Si O2"
_cell_formula_units_Z 96
_cell_length_a 17.835898
_cell_length_b 25.485611
_cell_length_c 9.254925
_cell_angle_alpha 90.000000
_cell_angle_beta 90.000000
_cell_angle_gamma 90.000000
_cell_volume 4206.907216
_symmetry_space_group_name_H-M "I B C A "
_symmetry_group_IT_number 73
_symmetry_cell_setting 'orthorhombic'
loop_
_space_group_symop_operation_xyz
x,y,z
-x,1/2-y,z
x,-y,1/2-z
1/2-x,y,-z
-x,-y,-z
x,1/2+y,-z
-x,y,1/2+z
1/2+x,-y,z
1/2+x,1/2+y,1/2+z
1/2-x,-y,1/2+z
1/2+x,1/2-y,-z
-x,1/2+y,1/2-z
1/2-x,1/2-y,1/2-z
1/2+x,y,1/2-z
1/2-x,1/2+y,z
x,1/2-y,1/2+z
loop_
_atom_site_type_symbol
_atom_site_label
_atom_site_fract_x
_atom_site_fract_y
_atom_site_fract_z
Si Si1 0.268057 0.500000 0.250000
Si Si2 0.375383 0.116866 0.947265
Si Si3 0.096879 0.495510 0.961480
Si Si4 0.420656 0.777785 0.458961
Si Si5 0.268819 0.385237 0.724443
Si Si6 0.474990 0.500000 0.750000
Si Si7 0.678994 0.218576 0.817677
O O1 0.321827 0.491043 0.110507
O O2 0.222051 0.447057 0.256176
O O3 0.411116 0.059387 0.957889
O O4 0.429570 0.165818 0.962904
O O5 0.319636 0.120931 0.810915
O O6 0.318648 0.124698 0.082030
O O7 0.036286 0.470262 0.851547
O O8 0.077179 0.477087 0.122768
O O9 0.500000 0.750000 0.461629
O O10 0.389006 0.782116 0.297272
O O11 0.354758 0.747074 0.543958
O O12 0.294985 0.341746 0.837167
O O13 0.750000 0.250000 0.750000
#
# Coordination Sequence:
#
# PCOD9533194 Si02
#       7
#     8  16  16  16  16   8  16
#     4   9  18  35  64  92 124 151 209 270 314 370
#     4   9  18  36  60  84 121 168 204 252 322 384
#     4   9  18  35  58  84 122 164 207 254 311 375
#     4  11  23  41  64  96 130 163 214 275 324 381
#     4   9  18  35  64  89 116 168 210 254 321 382
#     4   9  18  35  56  82 118 175 205 240 306 388
#     4  11  21  41  70  92 126 171 217 261 327 395
#
# _framework density 22.819614999999999
#
# number of rings (size 3 to 8) (size 9 to 14) (size 15 to 20)
#    0.000    2.333    1.667    1.000    0.000    0.667 
#    9.000    1.667   22.000    0.000    0.000    0.000 
#    0.000    0.000    0.000    0.000    0.000    0.000 
#
# Total GULP energy -267634.304924 kJ/mol
# GULP energy per Si atom -5575.714686 kJ/mol
# Density = 2.276768 g / cm^3
# Si number density = 22.819615 Si / 1000 Ang^3
#
#
#
# Elastic Constant Matrix: (Units=GPa)
#
#
# Indices 1 2 3 4 5 6 
#
# 1 103.1359 20.9426 18.1051 0.0000 0.0000 0.0000
# 2 20.9426 101.7757 -5.2056 0.0000 0.0000 0.0000
# 3 18.1051 -5.2056 97.6517 0.0000 0.0000 0.0000
# 4 0.0000 0.0000 0.0000 14.9987 0.0000 0.0000
# 5 0.0000 0.0000 0.0000 0.0000 20.0508 0.0000
# 6 0.0000 0.0000 0.0000 0.0000 0.0000 36.9604
#
#
#
# Elastic Compliance Matrix: (Units=1/GPa)
#
#
# Indices 1 2 3 4 5 6 
#
# 1 0.010521 -0.002271 -0.002072 0.000000 0.000000 0.000000
# 2 -0.002271 0.010343 0.000972 0.000000 0.000000 0.000000
# 3 -0.002072 0.000972 0.010676 0.000000 0.000000 0.000000
# 4 0.000000 0.000000 0.000000 0.066672 0.000000 0.000000
# 5 0.000000 0.000000 0.000000 0.000000 0.049873 0.000000
# 6 0.000000 0.000000 0.000000 0.000000 0.000000 0.027056
#
#
# Mechanical properties :
#
#
# Convention : Reuss Voigt Hill
#
# Bulk Modulus (GPa) = 40.32351 41.13861 40.73106
# Shear Modulus (GPa) = 26.29528 32.31671 29.30599
#
# Velocity S-wave (km/s) = 3.39825 3.76730 3.58753
# Velocity P-wave (km/s) = 5.75382 6.08196 5.92016
#
# Compressibility (1/GPa) = 0.02479943
#
# Stress axis : x y z
#
# Youngs Moduli (GPa) = 95.05043 96.68808 93.66450
#
# Poissons Ratio (x) = 0.21956 0.19404
# Poissons Ratio (y) = 0.21584 -0.09108
# Poissons Ratio (z) = 0.19691 -0.09402
#
# Static dielectric constant tensor:
#      x y z
#    x 1.868200 0.000000 0.000000 
#    y 0.000000 1.871980 0.000000 
#    z 0.000000 0.000000 1.907350 
# 
# From -- ./inp_files/12060.got.cif
#   From: 2010.05.17/outbox.cif.g08.bks.cpg/sg73_7_cif.got.tgz:12060.got - 2010.06.03 17:35:07.
