data_PCOD9533641
_publ_section_title
;
Structure prediction by ZEFSAII (Michael W. Deem and Ramdas Pophale) SiO2 
 PCOD9533641
Probable space group: I B C A 
;
_chemical_formula_sum "Si O2"
_cell_formula_units_Z 56
_cell_length_a 17.923246
_cell_length_b 9.981207
_cell_length_c 14.115930
_cell_angle_alpha 90.000000
_cell_angle_beta 90.000000
_cell_angle_gamma 90.000000
_cell_volume 2525.278168
_symmetry_space_group_name_H-M "I B C A "
_symmetry_group_IT_number 73
_symmetry_cell_setting 'orthorhombic'
loop_
_space_group_symop_operation_xyz
x,y,z
-x,1/2-y,z
x,-y,1/2-z
1/2-x,y,-z
-x,-y,-z
x,1/2+y,-z
-x,y,1/2+z
1/2+x,-y,z
1/2+x,1/2+y,1/2+z
1/2-x,-y,1/2+z
1/2+x,1/2-y,-z
-x,1/2+y,1/2-z
1/2-x,1/2-y,1/2-z
1/2+x,y,1/2-z
1/2-x,1/2+y,z
x,1/2-y,1/2+z
loop_
_atom_site_type_symbol
_atom_site_label
_atom_site_fract_x
_atom_site_fract_y
_atom_site_fract_z
Si Si1 0.570091 0.901138 0.385297
Si Si2 0.423123 0.187947 0.951078
Si Si3 0.061963 0.000000 0.750000
Si Si4 0.836450 0.760635 0.772402
O O1 0.578517 0.771557 0.452564
O O2 0.494492 0.942800 0.330214
O O3 0.627018 0.867877 0.300021
O O4 0.577129 0.027466 0.456339
O O5 0.500000 0.250000 0.904598
O O6 0.353634 0.206053 0.881388
O O7 0.117464 0.876465 0.764104
O O8 0.750000 0.750000 0.750000
#
# Coordination Sequence:
#
# PCOD9533641 Si02
#       4
#    16  16   8  16
#     4  12  26  49  77 115 147 202 270 318 385 463
#     4  12  24  46  78 109 148 199 263 320 375 464
#     4  12  24  48  80 104 152 204 256 326 378 464
#     4  12  28  47  73 111 160 200 248 322 403 468
#
# _framework density 22.175775999999999
#
# number of rings (size 3 to 8) (size 9 to 14) (size 15 to 20)
#    0.000    0.000    5.714    3.429    8.000    1.143 
#    0.000    2.857    0.000    0.000    0.000    0.000 
#    0.000    0.000    0.000    0.000    0.000    0.000 
#
# Total GULP energy -156142.291067 kJ/mol
# GULP energy per Si atom -5576.510395 kJ/mol
# Density = 2.212530 g / cm^3
# Si number density = 22.175776 Si / 1000 Ang^3
#
#
#
# Elastic Constant Matrix: (Units=GPa)
#
#
# Indices 1 2 3 4 5 6 
#
# 1 162.4187 44.6809 69.8829 0.0000 0.0000 0.0000
# 2 44.6809 162.0993 76.5635 0.0000 0.0000 0.0000
# 3 69.8829 76.5635 144.1544 0.0000 0.0000 0.0000
# 4 0.0000 0.0000 0.0000 53.4657 0.0000 0.0000
# 5 0.0000 0.0000 0.0000 0.0000 19.2871 0.0000
# 6 0.0000 0.0000 0.0000 0.0000 0.0000 13.8417
#
#
#
# Elastic Compliance Matrix: (Units=1/GPa)
#
#
# Indices 1 2 3 4 5 6 
#
# 1 0.007808 -0.000486 -0.003527 0.000000 0.000000 0.000000
# 2 -0.000486 0.008265 -0.004154 0.000000 0.000000 0.000000
# 3 -0.003527 -0.004154 0.010853 0.000000 0.000000 0.000000
# 4 0.000000 0.000000 0.000000 0.018704 0.000000 0.000000
# 5 0.000000 0.000000 0.000000 0.000000 0.051848 0.000000
# 6 0.000000 0.000000 0.000000 0.000000 0.000000 0.072246
#
#
# Mechanical properties :
#
#
# Convention : Reuss Voigt Hill
#
# Bulk Modulus (GPa) = 94.41265 94.54744 94.48005
# Shear Modulus (GPa) = 26.37285 35.82191 31.09738
#
# Velocity S-wave (km/s) = 3.45231 4.02352 3.74881
# Velocity P-wave (km/s) = 7.65234 8.01953 7.83809
#
# Compressibility (1/GPa) = 0.01059180
#
# Stress axis : x y z
#
# Youngs Moduli (GPa) = 128.06974 120.98963 92.13979
#
# Poissons Ratio (x) = 0.05885 0.32497
# Poissons Ratio (y) = 0.06229 0.38275
# Poissons Ratio (z) = 0.45169 0.50259
#
# Static dielectric constant tensor:
#      x y z
#    x 1.799540 0.000000 0.000000 
#    y 0.000000 1.931640 0.000000 
#    z 0.000000 0.000000 1.865950 
# 
# From -- ./inp_files/10218.got.cif
#   From: 2010.05.17/outbox.cif.g08.bks.cpg/sg73_6_cif.got.tgz:10218.got - 2010.06.03 17:35:07.
