data_PCOD9533487
_publ_section_title
;
Structure prediction by ZEFSAII (Michael W. Deem and Ramdas Pophale) SiO2 
 PCOD9533487
Probable space group: I B C A 
;
_chemical_formula_sum "Si O2"
_cell_formula_units_Z 72
_cell_length_a 19.462488
_cell_length_b 11.986847
_cell_length_c 12.394856
_cell_angle_alpha 90.000000
_cell_angle_beta 90.000000
_cell_angle_gamma 90.000000
_cell_volume 2891.643873
_symmetry_space_group_name_H-M "I B C A "
_symmetry_group_IT_number 73
_symmetry_cell_setting 'orthorhombic'
loop_
_space_group_symop_operation_xyz
x,y,z
-x,1/2-y,z
x,-y,1/2-z
1/2-x,y,-z
-x,-y,-z
x,1/2+y,-z
-x,y,1/2+z
1/2+x,-y,z
1/2+x,1/2+y,1/2+z
1/2-x,-y,1/2+z
1/2+x,1/2-y,-z
-x,1/2+y,1/2-z
1/2-x,1/2-y,1/2-z
1/2+x,y,1/2-z
1/2-x,1/2+y,z
x,1/2-y,1/2+z
loop_
_atom_site_type_symbol
_atom_site_label
_atom_site_fract_x
_atom_site_fract_y
_atom_site_fract_z
Si Si1 0.741083 0.144955 0.621720
Si Si2 0.500000 0.250000 0.756167
Si Si3 0.139067 0.000000 0.750000
Si Si4 0.961838 0.411936 0.574924
Si Si5 0.651891 0.000000 0.250000
Si Si6 0.881178 0.805023 0.606215
O O1 0.750000 0.098009 0.500000
O O2 0.688841 0.095832 0.709444
O O3 0.697290 0.259982 0.598849
O O4 0.809569 0.102375 0.683794
O O5 0.490427 0.146037 0.835730
O O6 0.433345 0.264995 0.681715
O O7 0.094882 0.971763 0.853366
O O8 0.920587 0.318263 0.506944
O O9 0.000000 0.500000 0.500000
O O10 0.617228 0.928513 0.343341
#
# Coordination Sequence:
#
# PCOD9533487 Si02
#       6
#    16   8   8  16   8  16
#     4  11  26  45  77 104 146 194 255 309 379 447
#     4  12  26  46  74 112 154 192 250 310 382 462
#     4  11  24  49  70 110 149 194 257 316 366 463
#     4  12  26  43  75 107 154 197 246 306 388 455
#     4  11  26  49  72 104 151 194 249 312 380 455
#     4  12  26  47  75 111 146 198 247 312 385 462
#
# _framework density 24.899332000000001
#
# number of rings (size 3 to 8) (size 9 to 14) (size 15 to 20)
#    0.000    0.444    2.222    5.333    6.222    4.444 
#    0.000    0.000    0.000    0.000    0.000    0.000 
#    0.000    0.000    0.000    0.000    0.000    0.000 
#
# Total GULP energy -200718.332104 kJ/mol
# GULP energy per Si atom -5575.509225 kJ/mol
# Density = 2.484266 g / cm^3
# Si number density = 24.899332 Si / 1000 Ang^3
#
#
#
# Elastic Constant Matrix: (Units=GPa)
#
#
# Indices 1 2 3 4 5 6 
#
# 1 62.4537 16.7383 27.3670 0.0000 0.0000 0.0000
# 2 16.7383 50.3058 5.4330 0.0000 0.0000 0.0000
# 3 27.3670 5.4330 108.1425 0.0000 0.0000 0.0000
# 4 0.0000 0.0000 0.0000 30.1939 0.0000 0.0000
# 5 0.0000 0.0000 0.0000 0.0000 32.9387 0.0000
# 6 0.0000 0.0000 0.0000 0.0000 0.0000 -11.3857
#
#
#
# Elastic Compliance Matrix: (Units=1/GPa)
#
#
# Indices 1 2 3 4 5 6 
#
# 1 0.019681 -0.006043 -0.004677 0.000000 0.000000 0.000000
# 2 -0.006043 0.021843 0.000432 0.000000 0.000000 0.000000
# 3 -0.004677 0.000432 0.010409 0.000000 0.000000 0.000000
# 4 0.000000 0.000000 0.000000 0.033119 0.000000 0.000000
# 5 0.000000 0.000000 0.000000 0.000000 0.030359 0.000000
# 6 0.000000 0.000000 0.000000 0.000000 0.000000 -0.087829
#
#
# Mechanical properties :
#
#
# Convention : Reuss Voigt Hill
#
# Bulk Modulus (GPa) = 31.89197 35.55321 33.72259
# Shear Modulus (GPa) = 85.30900 21.77363 53.54132
#
# Velocity S-wave (km/s) = 5.85969 2.96035 4.64218
# Velocity P-wave (km/s) = 7.65620 5.09849 6.50431
#
# Compressibility (1/GPa) = 0.03135585
#
# Stress axis : x y z
#
# Youngs Moduli (GPa) = 50.81050 45.78216 96.07146
#
# Poissons Ratio (x) = 0.27668 0.44932
# Poissons Ratio (y) = 0.30707 -0.04150
# Poissons Ratio (z) = 0.23764 -0.01978
#
# Static dielectric constant tensor:
#      x y z
#    x 2.060510 0.000000 0.000000 
#    y 0.000000 2.132020 0.000000 
#    z 0.000000 0.000000 1.462220 
# 
# From -- ./inp_files/10693.got.cif
#   From: 2010.05.17/outbox.cif.g08.bks.cpg/sg73_6_cif.got.tgz:10693.got - 2010.06.03 17:35:07.
