data_PCOD9533407
_publ_section_title
;
Structure prediction by ZEFSAII (Michael W. Deem and Ramdas Pophale) SiO2 
 PCOD9533407
Probable space group: I B C A 
;
_chemical_formula_sum "Si O2"
_cell_formula_units_Z 64
_cell_length_a 4.923911
_cell_length_b 22.792138
_cell_length_c 22.173588
_cell_angle_alpha 90.000000
_cell_angle_beta 90.000000
_cell_angle_gamma 90.000000
_cell_volume 2488.463265
_symmetry_space_group_name_H-M "I B C A "
_symmetry_group_IT_number 73
_symmetry_cell_setting 'orthorhombic'
loop_
_space_group_symop_operation_xyz
x,y,z
-x,1/2-y,z
x,-y,1/2-z
1/2-x,y,-z
-x,-y,-z
x,1/2+y,-z
-x,y,1/2+z
1/2+x,-y,z
1/2+x,1/2+y,1/2+z
1/2-x,-y,1/2+z
1/2+x,1/2-y,-z
-x,1/2+y,1/2-z
1/2-x,1/2-y,1/2-z
1/2+x,y,1/2-z
1/2-x,1/2+y,z
x,1/2-y,1/2+z
loop_
_atom_site_type_symbol
_atom_site_label
_atom_site_fract_x
_atom_site_fract_y
_atom_site_fract_z
Si Si1 0.831047 0.082878 0.787521
Si Si2 0.272890 0.287426 0.834286
Si Si3 0.710289 0.963723 0.582870
Si Si4 0.482970 0.837276 0.040950
O O1 0.637691 0.069982 0.731030
O O2 0.809566 0.151955 0.802859
O O3 0.724562 0.049317 0.845895
O O4 0.500000 0.250000 0.798537
O O5 0.446209 0.308260 0.893569
O O6 0.000000 0.250000 0.847819
O O7 0.595343 0.904948 0.553600
O O8 0.515356 0.017798 0.567509
O O9 0.250000 0.809297 0.000000
O O10 0.750000 0.834246 0.000000
#
# Coordination Sequence:
#
# PCOD9533407 Si02
#       4
#    16  16  16  16
#     4  11  24  41  63  93 127 165 211 261 315 378
#     4  11  24  42  64  92 126 164 210 262 317 381
#     4  11  24  41  63  93 127 165 211 261 315 378
#     4  11  24  42  64  92 126 164 210 262 317 381
#
# _framework density 25.718685000000001
#
# number of rings (size 3 to 8) (size 9 to 14) (size 15 to 20)
#    0.000    1.000    0.000    6.000    0.000   19.000 
#    0.000    0.000    0.000    0.000    0.000    0.000 
#    0.000    0.000    0.000    0.000    0.000    0.000 
#
# Total GULP energy -179346.563164 kJ/mol
# GULP energy per Si atom -5604.580099 kJ/mol
# Density = 2.566015 g / cm^3
# Si number density = 25.718685 Si / 1000 Ang^3
#
#
#
# Elastic Constant Matrix: (Units=GPa)
#
#
# Indices 1 2 3 4 5 6 
#
# 1 121.0420 6.0555 32.4312 0.0000 0.0000 0.0000
# 2 6.0555 121.7390 31.4192 0.0000 0.0000 0.0000
# 3 32.4312 31.4192 107.8845 0.0000 0.0000 0.0000
# 4 0.0000 0.0000 0.0000 9.1441 0.0000 0.0000
# 5 0.0000 0.0000 0.0000 0.0000 33.6363 0.0000
# 6 0.0000 0.0000 0.0000 0.0000 0.0000 7.0654
#
#
#
# Elastic Compliance Matrix: (Units=1/GPa)
#
#
# Indices 1 2 3 4 5 6 
#
# 1 0.008994 0.000271 -0.002782 0.000000 0.000000 0.000000
# 2 0.000271 0.008890 -0.002670 0.000000 0.000000 0.000000
# 3 -0.002782 -0.002670 0.010883 0.000000 0.000000 0.000000
# 4 0.000000 0.000000 0.000000 0.109360 0.000000 0.000000
# 5 0.000000 0.000000 0.000000 0.000000 0.029730 0.000000
# 6 0.000000 0.000000 0.000000 0.000000 0.000000 0.141535
#
#
# Mechanical properties :
#
#
# Convention : Reuss Voigt Hill
#
# Bulk Modulus (GPa) = 54.33983 54.49746 54.41865
# Shear Modulus (GPa) = 15.34263 28.68648 22.01455
#
# Velocity S-wave (km/s) = 2.44510 3.34338 2.92888
# Velocity P-wave (km/s) = 5.39868 6.01166 5.71340
#
# Compressibility (1/GPa) = 0.01840271
#
# Stress axis : x y z
#
# Youngs Moduli (GPa) = 111.19078 112.48552 91.88382
#
# Poissons Ratio (x) = -0.03046 0.25566
# Poissons Ratio (y) = -0.03010 0.24537
# Poissons Ratio (z) = 0.30938 0.30039
#
# Static dielectric constant tensor:
#      x y z
#    x 1.846700 0.000000 0.000000 
#    y 0.000000 2.023460 0.000000 
#    z 0.000000 0.000000 2.075080 
# 
# From -- ./inp_files/1541.got.cif
#   From: 2010.05.17/outbox.cif.g08.bks.cpg/sg73_1_cif.got.tgz:1541.got - 2010.06.03 17:35:07.
