data_PCOD9533703
_publ_section_title
;
Structure prediction by ZEFSAII (Michael W. Deem and Ramdas Pophale) SiO2 
 PCOD9533703
Probable space group: I B C A 
;
_chemical_formula_sum "Si O2"
_cell_formula_units_Z 80
_cell_length_a 13.418993
_cell_length_b 23.954739
_cell_length_c 10.586352
_cell_angle_alpha 90.000000
_cell_angle_beta 90.000000
_cell_angle_gamma 90.000000
_cell_volume 3402.966706
_symmetry_space_group_name_H-M "I B C A "
_symmetry_group_IT_number 73
_symmetry_cell_setting 'orthorhombic'
loop_
_space_group_symop_operation_xyz
x,y,z
-x,1/2-y,z
x,-y,1/2-z
1/2-x,y,-z
-x,-y,-z
x,1/2+y,-z
-x,y,1/2+z
1/2+x,-y,z
1/2+x,1/2+y,1/2+z
1/2-x,-y,1/2+z
1/2+x,1/2-y,-z
-x,1/2+y,1/2-z
1/2-x,1/2-y,1/2-z
1/2+x,y,1/2-z
1/2-x,1/2+y,z
x,1/2-y,1/2+z
loop_
_atom_site_type_symbol
_atom_site_label
_atom_site_fract_x
_atom_site_fract_y
_atom_site_fract_z
Si Si1 0.000000 0.750000 0.923348
Si Si2 0.250000 0.383696 0.000000
Si Si3 0.250000 0.935398 0.500000
Si Si4 0.691432 0.804554 0.709354
Si Si5 0.433446 0.552275 0.445552
Si Si6 0.713702 0.500000 0.750000
Si Si7 0.592275 0.856357 0.942774
O O1 0.086804 0.782632 0.848575
O O2 0.054376 0.701716 0.002413
O O3 0.240975 0.341058 0.883965
O O4 0.152717 0.420653 0.034427
O O5 0.230232 0.970029 0.630783
O O6 0.342725 0.895909 0.533111
O O7 0.750000 0.750000 0.750000
O O8 0.662762 0.842104 0.827156
O O9 0.500000 0.500000 0.500000
O O10 0.363899 0.537672 0.327577
O O11 0.502822 0.603276 0.406957
#
# Coordination Sequence:
#
# PCOD9533703 Si02
#       7
#     8   8   8  16  16   8  16
#     4  12  26  50  76 114 162 208 274 338 406 494
#     4  12  27  53  74 116 160 209 263 340 416 480
#     4  12  27  53  84 118 170 211 281 340 422 502
#     4  12  27  47  81 112 161 208 272 331 409 489
#     4  12  28  49  79 115 158 213 270 336 407 496
#     4  12  28  50  82 120 164 214 272 342 418 492
#     4  12  27  48  77 115 153 213 264 336 408 488
#
# _framework density 23.508899
#
# number of rings (size 3 to 8) (size 9 to 14) (size 15 to 20)
#    0.000    0.000    4.000    4.800    8.400    0.800 
#    0.000    0.000    0.000    0.000    0.000    0.000 
#    0.000    0.000    0.000    0.000    0.000    0.000 
#
# Total GULP energy -223438.851036 kJ/mol
# GULP energy per Si atom -5585.971276 kJ/mol
# Density = 2.345539 g / cm^3
# Si number density = 23.508899 Si / 1000 Ang^3
#
#
#
# Elastic Constant Matrix: (Units=GPa)
#
#
# Indices 1 2 3 4 5 6 
#
# 1 95.8752 46.5497 11.1592 0.0001 0.0000 0.0000
# 2 46.5497 154.6299 48.9645 0.0003 0.0000 -0.0001
# 3 11.1592 48.9645 87.7198 0.0006 0.0000 -0.0002
# 4 0.0001 0.0003 0.0006 20.1777 0.0000 -0.0002
# 5 0.0000 0.0000 0.0000 0.0000 38.3490 0.0000
# 6 0.0000 -0.0001 -0.0002 -0.0002 0.0000 77.9712
#
#
#
# Elastic Compliance Matrix: (Units=1/GPa)
#
#
# Indices 1 2 3 4 5 6 
#
# 1 0.012242 -0.003878 0.000607 0.000000 0.000000 0.000000
# 2 -0.003878 0.009084 -0.004577 0.000000 0.000000 0.000000
# 3 0.000607 -0.004577 0.013878 0.000000 0.000000 0.000000
# 4 0.000000 0.000000 0.000000 0.049560 0.000000 0.000000
# 5 0.000000 0.000000 0.000000 0.000000 0.026076 0.000000
# 6 0.000000 0.000000 0.000000 0.000000 0.000000 0.012825
#
#
# Mechanical properties :
#
#
# Convention : Reuss Voigt Hill
#
# Bulk Modulus (GPa) = 51.26057 61.28575 56.27316
# Shear Modulus (GPa) = 34.27872 42.73636 38.50754
#
# Velocity S-wave (km/s) = 3.82267 4.26829 4.05161
# Velocity P-wave (km/s) = 6.42930 7.10048 6.77321
#
# Compressibility (1/GPa) = 0.01950817
#
# Stress axis : x y z
#
# Youngs Moduli (GPa) = 81.68436 110.08645 72.05824
#
# Poissons Ratio (x) = 0.42687 -0.04374
# Poissons Ratio (y) = 0.31674 0.32982
# Poissons Ratio (z) = -0.04959 0.50389
#
# Static dielectric constant tensor:
#      x y z
#    x 1.876080 0.000000 0.000000 
#    y 0.000000 3.676880 0.000000 
#    z 0.000000 0.000000 2.248010 
# 
# From -- ./inp_files/10902.got.cif
#   From: 2010.05.17/outbox.cif.g08.bks.cpg/sg73_6_cif.got.tgz:10902.got - 2010.06.03 17:35:07.
