data_PCOD9533208
_publ_section_title
;
Structure prediction by ZEFSAII (Michael W. Deem and Ramdas Pophale) SiO2 
 PCOD9533208
Probable space group: I B C A 
;
_chemical_formula_sum "Si O2"
_cell_formula_units_Z 64
_cell_length_a 19.199536
_cell_length_b 18.672180
_cell_length_c 7.877127
_cell_angle_alpha 90.000000
_cell_angle_beta 90.000000
_cell_angle_gamma 90.000000
_cell_volume 2823.927911
_symmetry_space_group_name_H-M "I B C A "
_symmetry_group_IT_number 73
_symmetry_cell_setting 'orthorhombic'
loop_
_space_group_symop_operation_xyz
x,y,z
-x,1/2-y,z
x,-y,1/2-z
1/2-x,y,-z
-x,-y,-z
x,1/2+y,-z
-x,y,1/2+z
1/2+x,-y,z
1/2+x,1/2+y,1/2+z
1/2-x,-y,1/2+z
1/2+x,1/2-y,-z
-x,1/2+y,1/2-z
1/2-x,1/2-y,1/2-z
1/2+x,y,1/2-z
1/2-x,1/2+y,z
x,1/2-y,1/2+z
loop_
_atom_site_type_symbol
_atom_site_label
_atom_site_fract_x
_atom_site_fract_y
_atom_site_fract_z
Si Si1 0.862089 0.081884 0.728985
Si Si2 0.632275 0.170557 0.946771
Si Si3 0.520169 0.442987 0.357666
Si Si4 0.175365 0.185203 0.934866
O O1 0.839225 0.116541 0.551700
O O2 0.946828 0.080947 0.723674
O O3 0.839474 0.000000 0.750000
O O4 0.837107 0.128324 0.890193
O O5 0.562575 0.126340 0.905683
O O6 0.671877 0.171974 0.765780
O O7 0.622558 0.251673 0.011062
O O8 0.565978 0.500000 0.250000
O O9 0.500000 0.500000 0.500000
O O10 0.250000 0.212918 0.000000
#
# Coordination Sequence:
#
# PCOD9533208 Si02
#       4
#    16  16  16  16
#     4  11  25  47  72 110 145 186 247 305 379 442
#     4  12  25  45  77 100 148 198 241 305 380 433
#     4  11  21  43  72 106 149 184 233 306 375 450
#     4  12  28  50  72 104 147 199 255 306 357 440
#
# _framework density 22.663467000000001
#
# number of rings (size 3 to 8) (size 9 to 14) (size 15 to 20)
#    0.000    0.500    7.500    2.250    0.000    1.000 
#    4.500    0.000    0.000    0.000    0.000    0.000 
#    0.000    0.000    0.000    0.000    0.000    0.000 
#
# Total GULP energy -178517.756673 kJ/mol
# GULP energy per Si atom -5578.679896 kJ/mol
# Density = 2.261188 g / cm^3
# Si number density = 22.663467 Si / 1000 Ang^3
#
#
#
# Elastic Constant Matrix: (Units=GPa)
#
#
# Indices 1 2 3 4 5 6 
#
# 1 48.7101 21.5482 25.1162 0.0000 0.0000 0.0000
# 2 21.5482 146.9215 52.1322 0.0000 0.0000 0.0000
# 3 25.1162 52.1322 174.6668 0.0000 0.0000 0.0000
# 4 0.0000 0.0000 0.0000 43.2373 0.0000 0.0000
# 5 0.0000 0.0000 0.0000 0.0000 27.4093 0.0000
# 6 0.0000 0.0000 0.0000 0.0000 0.0000 -19.3065
#
#
#
# Elastic Compliance Matrix: (Units=1/GPa)
#
#
# Indices 1 2 3 4 5 6 
#
# 1 0.022938 -0.002454 -0.002566 0.000000 0.000000 0.000000
# 2 -0.002454 0.007875 -0.001998 0.000000 0.000000 0.000000
# 3 -0.002566 -0.001998 0.006690 0.000000 0.000000 0.000000
# 4 0.000000 0.000000 0.000000 0.023128 0.000000 0.000000
# 5 0.000000 0.000000 0.000000 0.000000 0.036484 0.000000
# 6 0.000000 0.000000 0.000000 0.000000 0.000000 -0.051796
#
#
# Mechanical properties :
#
#
# Convention : Reuss Voigt Hill
#
# Bulk Modulus (GPa) = 42.60955 63.09905 52.85430
# Shear Modulus (GPa) = 74.42974 28.36815 51.39894
#
# Velocity S-wave (km/s) = 5.73695 3.54179 4.76744
# Velocity P-wave (km/s) = 7.91993 6.68041 7.32643
#
# Compressibility (1/GPa) = 0.02346892
#
# Stress axis : x y z
#
# Youngs Moduli (GPa) = 43.59540 126.98349 149.46819
#
# Poissons Ratio (x) = 0.31158 0.38354
# Poissons Ratio (y) = 0.10697 0.29858
# Poissons Ratio (z) = 0.11187 0.25366
#
# Static dielectric constant tensor:
#      x y z
#    x 1.879890 0.000000 0.000000 
#    y 0.000000 1.831310 0.000000 
#    z 0.000000 0.000000 2.017330 
# 
# From -- ./inp_files/5425.got.cif
#   From: 2010.05.17/outbox.cif.g08.bks.cpg/sg73_3_cif.got.tgz:5425.got - 2010.06.03 17:35:07.
