data_PCOD9533383
_publ_section_title
;
Structure prediction by ZEFSAII (Michael W. Deem and Ramdas Pophale) SiO2 
 PCOD9533383
Probable space group: I B C A 
;
_chemical_formula_sum "Si O2"
_cell_formula_units_Z 64
_cell_length_a 11.127047
_cell_length_b 17.092609
_cell_length_c 15.028491
_cell_angle_alpha 90.000000
_cell_angle_beta 90.000000
_cell_angle_gamma 90.000000
_cell_volume 2858.272666
_symmetry_space_group_name_H-M "I B C A "
_symmetry_group_IT_number 73
_symmetry_cell_setting 'orthorhombic'
loop_
_space_group_symop_operation_xyz
x,y,z
-x,1/2-y,z
x,-y,1/2-z
1/2-x,y,-z
-x,-y,-z
x,1/2+y,-z
-x,y,1/2+z
1/2+x,-y,z
1/2+x,1/2+y,1/2+z
1/2-x,-y,1/2+z
1/2+x,1/2-y,-z
-x,1/2+y,1/2-z
1/2-x,1/2-y,1/2-z
1/2+x,y,1/2-z
1/2-x,1/2+y,z
x,1/2-y,1/2+z
loop_
_atom_site_type_symbol
_atom_site_label
_atom_site_fract_x
_atom_site_fract_y
_atom_site_fract_z
Si Si1 0.611681 0.305381 0.106284
Si Si2 0.231888 0.655874 0.400518
Si Si3 0.767222 0.410985 0.222252
Si Si4 0.465593 0.658765 0.094497
O O1 0.500000 0.250000 0.132764
O O2 0.727822 0.247464 0.096203
O O3 0.650603 0.369406 0.178134
O O4 0.573379 0.340010 0.009850
O O5 0.250000 0.626619 0.500000
O O6 0.303965 0.627703 0.315672
O O7 0.097195 0.626068 0.385520
O O8 0.749651 0.500000 0.250000
O O9 0.870280 0.389012 0.151528
O O10 0.500000 0.750000 0.115570
#
# Coordination Sequence:
#
# PCOD9533383 Si02
#       4
#    16  16  16  16
#     4  11  23  45  79 109 143 193 261 322 369 441
#     4  12  24  44  71 112 145 196 258 311 373 446
#     4  12  29  46  70 112 159 196 243 310 394 463
#     4  11  23  45  80 108 145 194 260 320 372 439
#
# _framework density 22.391145999999999
#
# number of rings (size 3 to 8) (size 9 to 14) (size 15 to 20)
#    0.000    0.500    7.500    1.500    3.500    3.000 
#    0.000    2.500    0.000    0.000    0.000    0.000 
#    0.000    0.000    0.000    0.000    0.000    0.000 
#
# Total GULP energy -178346.160955 kJ/mol
# GULP energy per Si atom -5573.317530 kJ/mol
# Density = 2.234018 g / cm^3
# Si number density = 22.391146 Si / 1000 Ang^3
#
#
#
# Elastic Constant Matrix: (Units=GPa)
#
#
# Indices 1 2 3 4 5 6 
#
# 1 115.7570 45.3014 48.3513 0.0000 0.0000 0.0000
# 2 45.3014 109.7773 84.8874 -0.0001 0.0000 0.0000
# 3 48.3513 84.8874 149.8519 -0.0002 0.0000 0.0000
# 4 0.0000 -0.0001 -0.0002 -209.4724 0.0000 0.0005
# 5 0.0000 0.0000 0.0000 0.0000 34.8481 0.0000
# 6 0.0000 0.0000 0.0000 0.0005 0.0000 -34.6105
#
#
#
# Elastic Compliance Matrix: (Units=1/GPa)
#
#
# Indices 1 2 3 4 5 6 
#
# 1 0.010531 -0.003058 -0.001666 0.000000 0.000000 0.000000
# 2 -0.003058 0.017098 -0.008699 0.000000 0.000000 0.000000
# 3 -0.001666 -0.008699 0.012138 0.000000 0.000000 0.000000
# 4 0.000000 0.000000 0.000000 -0.004774 0.000000 0.000000
# 5 0.000000 0.000000 0.000000 0.000000 0.028696 0.000000
# 6 0.000000 0.000000 0.000000 0.000000 0.000000 -0.028893
#
#
# Mechanical properties :
#
#
# Convention : Reuss Voigt Hill
#
# Bulk Modulus (GPa) = 77.38420 81.38516 79.38468
# Shear Modulus (GPa) = 75.81638 -28.72388 23.54625
#
# Velocity S-wave (km/s) = 5.82525 -3.58554 3.24634
# Velocity P-wave (km/s) = 8.93755 4.39141 7.04146
#
# Compressibility (1/GPa) = 0.01292254
#
# Stress axis : x y z
#
# Youngs Moduli (GPa) = 94.95543 58.48745 82.38288
#
# Poissons Ratio (x) = 0.17884 0.13724
# Poissons Ratio (y) = 0.29034 0.71663
# Poissons Ratio (z) = 0.15819 0.50877
#
# Static dielectric constant tensor:
#      x y z
#    x 2.002690 0.000000 0.000000 
#    y 0.000000 1.889380 0.000000 
#    z 0.000000 0.000000 1.893210 
# 
# From -- ./inp_files/15877.got.cif
#   From: 2010.05.17/outbox.cif.g08.bks.cpg/sg73_8_cif.got.tgz:15877.got - 2010.06.03 17:35:07.
