data_PCOD9533558
_publ_section_title
;
Structure prediction by ZEFSAII (Michael W. Deem and Ramdas Pophale) SiO2 
 PCOD9533558
Probable space group: I B C A 
;
_chemical_formula_sum "Si O2"
_cell_formula_units_Z 112
_cell_length_a 14.117151
_cell_length_b 14.108018
_cell_length_c 23.359819
_cell_angle_alpha 90.000000
_cell_angle_beta 90.000000
_cell_angle_gamma 90.000000
_cell_volume 4652.458828
_symmetry_space_group_name_H-M "I B C A "
_symmetry_group_IT_number 73
_symmetry_cell_setting 'orthorhombic'
loop_
_space_group_symop_operation_xyz
x,y,z
-x,1/2-y,z
x,-y,1/2-z
1/2-x,y,-z
-x,-y,-z
x,1/2+y,-z
-x,y,1/2+z
1/2+x,-y,z
1/2+x,1/2+y,1/2+z
1/2-x,-y,1/2+z
1/2+x,1/2-y,-z
-x,1/2+y,1/2-z
1/2-x,1/2-y,1/2-z
1/2+x,y,1/2-z
1/2-x,1/2+y,z
x,1/2-y,1/2+z
loop_
_atom_site_type_symbol
_atom_site_label
_atom_site_fract_x
_atom_site_fract_y
_atom_site_fract_z
Si Si1 0.658002 0.246079 0.710877
Si Si2 0.849374 0.636015 0.480245
Si Si3 0.715984 0.622368 0.883691
Si Si4 0.094201 0.029182 0.566198
Si Si5 0.432831 0.182428 0.524025
Si Si6 0.414313 0.043044 0.866200
Si Si7 0.501455 0.387028 0.755866
O O1 0.750000 0.250000 0.750000
O O2 0.702646 0.278077 0.649814
O O3 0.579972 0.326831 0.722907
O O4 0.598259 0.153178 0.731430
O O5 0.750000 0.674965 0.500000
O O6 0.866670 0.558136 0.529902
O O7 0.907997 0.731230 0.482771
O O8 0.859422 0.592440 0.418200
O O9 0.820732 0.585506 0.901595
O O10 0.652934 0.638473 0.940179
O O11 0.662350 0.537070 0.848909
O O12 0.044035 0.097060 0.519318
O O13 0.010191 0.995586 0.608030
O O14 0.500000 0.250000 0.564865
O O15 0.458539 0.118123 0.821419
O O16 0.502317 0.500000 0.750000
#
# Coordination Sequence:
#
# PCOD9533558 Si02
#       7
#    16  16  16  16  16  16  16
#     4  11  27  51  76 109 145 192 266 332 393 468
#     4  12  23  41  68 107 146 192 244 302 366 461
#     4  12  25  47  76 108 149 200 258 317 389 466
#     4  12  24  46  68 108 154 192 246 314 370 467
#     4  12  25  40  68 104 152 194 243 300 372 457
#     4  12  24  45  75 100 146 204 243 307 395 456
#     4  11  26  49  75 107 149 192 258 334 389 465
#
# _framework density 24.073291000000001
#
# number of rings (size 3 to 8) (size 9 to 14) (size 15 to 20)
#    0.000    0.286    5.714    3.429    2.000    6.286 
#    2.571    0.000    0.000    0.000    0.000    0.000 
#    0.000    0.000    0.000    0.000    0.000    0.000 
#
# Total GULP energy -311978.362706 kJ/mol
# GULP energy per Si atom -5571.042191 kJ/mol
# Density = 2.401850 g / cm^3
# Si number density = 24.073291 Si / 1000 Ang^3
#
#
#
# Elastic Constant Matrix: (Units=GPa)
#
#
# Indices 1 2 3 4 5 6 
#
# 1 142.3564 24.0881 4.8855 0.0000 0.0000 0.0000
# 2 24.0881 104.9350 -9.3376 0.0000 0.0000 0.0000
# 3 4.8855 -9.3376 57.0408 0.0000 0.0000 0.0000
# 4 0.0000 0.0000 0.0000 35.3070 0.0000 0.0000
# 5 0.0000 0.0000 0.0000 0.0000 27.4573 0.0000
# 6 0.0000 0.0000 0.0000 0.0000 0.0000 27.2115
#
#
#
# Elastic Compliance Matrix: (Units=1/GPa)
#
#
# Indices 1 2 3 4 5 6 
#
# 1 0.007356 -0.001770 -0.000920 0.000000 0.000000 0.000000
# 2 -0.001770 0.010097 0.001804 0.000000 0.000000 0.000000
# 3 -0.000920 0.001804 0.017905 0.000000 0.000000 0.000000
# 4 0.000000 0.000000 0.000000 0.028323 0.000000 0.000000
# 5 0.000000 0.000000 0.000000 0.000000 0.036420 0.000000
# 6 0.000000 0.000000 0.000000 0.000000 0.000000 0.036749
#
#
# Mechanical properties :
#
#
# Convention : Reuss Voigt Hill
#
# Bulk Modulus (GPa) = 29.77396 38.17827 33.97612
# Shear Modulus (GPa) = 33.37401 36.97491 35.17446
#
# Velocity S-wave (km/s) = 3.72741 3.92335 3.82663
# Velocity P-wave (km/s) = 5.56055 6.03466 5.80245
#
# Compressibility (1/GPa) = 0.03358639
#
# Stress axis : x y z
#
# Youngs Moduli (GPa) = 135.94796 99.04253 55.84882
#
# Poissons Ratio (x) = 0.17534 0.05137
# Poissons Ratio (y) = 0.24068 -0.10078
# Poissons Ratio (z) = 0.12505 -0.17872
#
# Static dielectric constant tensor:
#      x y z
#    x -17.622390 0.000000 0.000000 
#    y 0.000000 1.856460 0.000000 
#    z 0.000000 0.000000 2.067780 
# 
# From -- ./inp_files/29559.got.cif
#   From: 2010.05.17/outbox.cif.g08.bks.cpg/sg73_15_cif.got.tgz:29559.got - 2010.06.03 17:35:07.
