data_PCOD9533742
_publ_section_title
;
Structure prediction by ZEFSAII (Michael W. Deem and Ramdas Pophale) SiO2 
 PCOD9533742
Probable space group: I B C A 
;
_chemical_formula_sum "Si O2"
_cell_formula_units_Z 60
_cell_length_a 24.000000
_cell_length_b 9.000000
_cell_length_c 27.000000
_cell_angle_alpha 90.000000
_cell_angle_beta 90.000000
_cell_angle_gamma 90.000000
_cell_volume 5832.000000
_symmetry_space_group_name_H-M "I B C A "
_symmetry_group_IT_number 73
_symmetry_cell_setting 'orthorhombic'
loop_
_space_group_symop_operation_xyz
x,y,z
-x,1/2-y,z
x,-y,1/2-z
1/2-x,y,-z
-x,-y,-z
x,1/2+y,-z
-x,y,1/2+z
1/2+x,-y,z
1/2+x,1/2+y,1/2+z
1/2-x,-y,1/2+z
1/2+x,1/2-y,-z
-x,1/2+y,1/2-z
1/2-x,1/2-y,1/2-z
1/2+x,y,1/2-z
1/2-x,1/2+y,z
x,1/2-y,1/2+z
loop_
_atom_site_type_symbol
_atom_site_label
_atom_site_fract_x
_atom_site_fract_y
_atom_site_fract_z
Si Si1 0.103751 0.258548 0.588727
Si Si2 0.663216 0.427980 0.997211
Si Si3 0.107041 0.075788 0.362281
Si Si4 0.000000 0.750000 0.120377
Si Si5 0.296491 0.358706 0.855165
Si Si6 0.956343 0.501447 0.955118
Si Si7 0.212961 0.555709 0.804801
Si Si8 0.699670 0.803039 0.432387
O O1 0.144637 0.309260 0.544361
O O2 0.089192 0.416722 0.613916
O O3 0.141373 0.152711 0.623834
O O4 0.052737 0.161985 0.569570
O O5 0.693514 0.563827 0.971306
O O6 0.604385 0.471619 0.021574
O O7 0.699171 0.350724 0.039153
O O8 0.051290 0.169949 0.350322
O O9 0.142773 0.174287 0.401000
O O10 0.156488 0.025756 0.324685
O O11 0.025658 0.622962 0.084425
O O12 0.268554 0.507036 0.834529
O O13 0.293712 0.230291 0.813532
O O14 0.253302 0.315124 0.898368
O O15 0.000000 0.500000 0.000000
O O16 0.220798 0.500000 0.750000
#
# Coordination Sequence:
#
# PCOD9533742 Si02
#       8
#    16  16  16   8  16  16  16  16
#     4  10  22  39  51  81 121 163 204 250 295 351
#     4  11  20  36  50  78 116 166 212 244 284 326
#     4   9  21  39  58  86 117 148 197 252 310 363
#     4  12  22  36  60  82 112 160 202 258 310 344
#     4  10  23  39  61  89 123 156 197 244 311 370
#     4  12  23  36  54  78 116 166 221 260 281 334
#     4  10  21  41  69  93 118 150 191 253 319 393
#     4  10  20  37  52  81 122 159 206 246 283 343
#
# _framework density 10.288066000000001
#
# number of rings (size 3 to 8) (size 9 to 14) (size 15 to 20)
#    0.000    1.600    2.667    3.600    1.867    2.133 
#    2.400    0.000    0.000    3.200    0.000    0.933 
#    0.000    0.000    0.000    0.000    0.000    0.000 
#
# Total GULP energy -335239.150824 kJ/mol
# GULP energy per Si atom -5587.319180 kJ/mol
# Density = 1.026465 g / cm^3
# Si number density = 10.288066 Si / 1000 Ang^3
#
#
#
# Elastic Constant Matrix: (Units=GPa)
#
#
# Indices 1 2 3 4 5 6 
#
# 1 83.4434 28.5664 4.3602 0.0000 0.0000 0.0000
# 2 28.5664 45.1517 8.5067 0.0000 0.0000 0.0000
# 3 4.3602 8.5067 37.0737 0.0000 0.0000 0.0000
# 4 0.0000 0.0000 0.0000 12.2878 0.0000 0.0000
# 5 0.0000 0.0000 0.0000 0.0000 14.1218 0.0000
# 6 0.0000 0.0000 0.0000 0.0000 0.0000 27.9084
#
#
#
# Elastic Compliance Matrix: (Units=1/GPa)
#
#
# Indices 1 2 3 4 5 6 
#
# 1 0.015304 -0.009766 0.000441 0.000000 0.000000 0.000000
# 2 -0.009766 0.029380 -0.005593 0.000000 0.000000 0.000000
# 3 0.000441 -0.005593 0.028205 0.000000 0.000000 0.000000
# 4 0.000000 0.000000 0.000000 0.081381 0.000000 0.000000
# 5 0.000000 0.000000 0.000000 0.000000 0.070812 0.000000
# 6 0.000000 0.000000 0.000000 0.000000 0.000000 0.035831
#
#
# Mechanical properties :
#
#
# Convention : Reuss Voigt Hill
#
# Bulk Modulus (GPa) = 23.22687 27.61505 25.42096
# Shear Modulus (GPa) = 16.38803 19.14598 17.76701
#
# Velocity S-wave (km/s) = 2.82522 3.05371 2.94169
# Velocity P-wave (km/s) = 4.68564 5.08759 4.89075
#
# Compressibility (1/GPa) = 0.04305358
#
# Stress axis : x y z
#
# Youngs Moduli (GPa) = 65.34060 34.03697 35.45505
#
# Poissons Ratio (x) = 0.33240 -0.01563
# Poissons Ratio (y) = 0.63810 0.19829
# Poissons Ratio (z) = -0.02881 0.19036
#
# Static dielectric constant tensor:
#      x y z
#    x 1.735910 0.000000 0.000000 
#    y 0.000000 1.780350 0.000000 
#    z 0.000000 0.000000 1.758330 
# 
# From -- ./inp_files/32902.got.cif
#   From: 2010.05.17/outbox.ucp.g08.bks.cvg/sg73_17_cif.got.tgz:32902.got - 2010.06.11 16:36:03.
