data_PCOD9533567
_publ_section_title
;
Structure prediction by ZEFSAII (Michael W. Deem and Ramdas Pophale) SiO2 
 PCOD9533567
Probable space group: I B C A 
;
_chemical_formula_sum "Si O2"
_cell_formula_units_Z 64
_cell_length_a 9.762372
_cell_length_b 10.419853
_cell_length_c 29.421812
_cell_angle_alpha 90.000000
_cell_angle_beta 90.000000
_cell_angle_gamma 90.000000
_cell_volume 2992.859717
_symmetry_space_group_name_H-M "I B C A "
_symmetry_group_IT_number 73
_symmetry_cell_setting 'orthorhombic'
loop_
_space_group_symop_operation_xyz
x,y,z
-x,1/2-y,z
x,-y,1/2-z
1/2-x,y,-z
-x,-y,-z
x,1/2+y,-z
-x,y,1/2+z
1/2+x,-y,z
1/2+x,1/2+y,1/2+z
1/2-x,-y,1/2+z
1/2+x,1/2-y,-z
-x,1/2+y,1/2-z
1/2-x,1/2-y,1/2-z
1/2+x,y,1/2-z
1/2-x,1/2+y,z
x,1/2-y,1/2+z
loop_
_atom_site_type_symbol
_atom_site_label
_atom_site_fract_x
_atom_site_fract_y
_atom_site_fract_z
Si Si1 0.750000 0.886857 0.500000
Si Si2 0.179808 0.465722 0.408569
Si Si3 0.377644 0.843480 0.737964
Si Si4 0.542278 0.381802 0.866198
Si Si5 0.000000 0.250000 0.450322
O O1 0.618554 0.811053 0.481305
O O2 0.807882 0.965512 0.457187
O O3 0.333999 0.443784 0.393193
O O4 0.097022 0.538702 0.369136
O O5 0.086836 0.343190 0.418244
O O6 0.500000 0.750000 0.756684
O O7 0.250000 0.750000 0.750000
O O8 0.403101 0.852199 0.683866
O O9 0.370893 0.000000 0.750000
O O10 0.500000 0.250000 0.890005
#
# Coordination Sequence:
#
# PCOD9533567 Si02
#       5
#     8  16  16  16   8
#     4  12  26  46  66 102 142 194 248 306 382 456
#     4  12  26  47  70 103 143 192 248 308 380 444
#     4  11  27  49  78 112 152 201 249 318 399 481
#     4  11  28  47  74 108 146 189 251 315 378 470
#     4  12  26  42  70  96 138 194 238 308 370 452
#
# _framework density 21.384228
#
# number of rings (size 3 to 8) (size 9 to 14) (size 15 to 20)
#    0.000    0.500    2.500    3.750   15.750    0.000 
#    0.000    0.000    0.000    0.000    0.000    0.000 
#    0.000    0.000    0.000    0.000    0.000    0.000 
#
# Total GULP energy -178370.187215 kJ/mol
# GULP energy per Si atom -5574.068350 kJ/mol
# Density = 2.133556 g / cm^3
# Si number density = 21.384228 Si / 1000 Ang^3
#
#
#
# Elastic Constant Matrix: (Units=GPa)
#
#
# Indices 1 2 3 4 5 6 
#
# 1 125.4588 38.8258 -7.8285 0.0000 0.0000 0.0000
# 2 38.8258 106.7105 10.4373 0.0000 0.0000 0.0000
# 3 -7.8285 10.4373 53.0014 0.0000 0.0000 0.0000
# 4 0.0000 0.0000 0.0000 27.5837 0.0000 0.0000
# 5 0.0000 0.0000 0.0000 0.0000 24.8729 0.0000
# 6 0.0000 0.0000 0.0000 0.0000 0.0000 82.8579
#
#
#
# Elastic Compliance Matrix: (Units=1/GPa)
#
#
# Indices 1 2 3 4 5 6 
#
# 1 0.009197 -0.003547 0.002057 0.000000 0.000000 0.000000
# 2 -0.003547 0.010924 -0.002675 0.000000 0.000000 0.000000
# 3 0.002057 -0.002675 0.019698 0.000000 0.000000 0.000000
# 4 0.000000 0.000000 0.000000 0.036253 0.000000 0.000000
# 5 0.000000 0.000000 0.000000 0.000000 0.040204 0.000000
# 6 0.000000 0.000000 0.000000 0.000000 0.000000 0.012069
#
#
# Mechanical properties :
#
#
# Convention : Reuss Voigt Hill
#
# Bulk Modulus (GPa) = 31.75867 40.89332 36.32600
# Shear Modulus (GPa) = 33.97389 43.31197 38.64293
#
# Velocity S-wave (km/s) = 3.99022 4.50535 4.25558
# Velocity P-wave (km/s) = 6.00939 6.79918 6.41645
#
# Compressibility (1/GPa) = 0.03148746
#
# Stress axis : x y z
#
# Youngs Moduli (GPa) = 108.73205 91.54570 50.76645
#
# Poissons Ratio (x) = 0.32475 -0.10443
# Poissons Ratio (y) = 0.38572 0.13580
# Poissons Ratio (z) = -0.22366 0.24489
#
# Static dielectric constant tensor:
#      x y z
#    x 1.632100 0.000000 0.000000 
#    y 0.000000 1.906920 0.000000 
#    z 0.000000 0.000000 1.747810 
# 
# From -- ./inp_files/4002.got.cif
#   From: 2010.05.17/outbox.cif.g08.bks.cpg/sg73_3_cif.got.tgz:4002.got - 2010.06.03 17:35:07.
