data_PCOD9533626
_publ_section_title
;
Structure prediction by ZEFSAII (Michael W. Deem and Ramdas Pophale) SiO2 
 PCOD9533626
Probable space group: I B C A 
;
_chemical_formula_sum "Si O2"
_cell_formula_units_Z 72
_cell_length_a 26.739715
_cell_length_b 7.374846
_cell_length_c 16.505998
_cell_angle_alpha 90.000000
_cell_angle_beta 90.000000
_cell_angle_gamma 90.000000
_cell_volume 3255.003937
_symmetry_space_group_name_H-M "I B C A "
_symmetry_group_IT_number 73
_symmetry_cell_setting 'orthorhombic'
loop_
_space_group_symop_operation_xyz
x,y,z
-x,1/2-y,z
x,-y,1/2-z
1/2-x,y,-z
-x,-y,-z
x,1/2+y,-z
-x,y,1/2+z
1/2+x,-y,z
1/2+x,1/2+y,1/2+z
1/2-x,-y,1/2+z
1/2+x,1/2-y,-z
-x,1/2+y,1/2-z
1/2-x,1/2-y,1/2-z
1/2+x,y,1/2-z
1/2-x,1/2+y,z
x,1/2-y,1/2+z
loop_
_atom_site_type_symbol
_atom_site_label
_atom_site_fract_x
_atom_site_fract_y
_atom_site_fract_z
Si Si1 0.642744 0.453038 0.077182
Si Si2 0.550483 0.844493 0.818115
Si Si3 0.825165 0.864623 0.897976
Si Si4 0.777912 0.130342 0.316870
Si Si5 0.609239 0.000000 0.250000
O O1 0.587344 0.426694 0.112997
O O2 0.667488 0.646790 0.098678
O O3 0.677773 0.309172 0.125016
O O4 0.651177 0.430010 0.982244
O O5 0.500000 0.750000 0.851095
O O6 0.577695 0.675366 0.775273
O O7 0.540895 0.000000 0.750000
O O8 0.767595 0.918482 0.878201
O O9 0.856663 0.937016 0.823562
O O10 0.750000 0.250000 0.250000
O O11 0.803406 0.000000 0.250000
#
# Coordination Sequence:
#
# PCOD9533626 Si02
#       5
#    16  16  16  16   8
#     4  12  27  45  68 107 151 193 248 313 364 440
#     4  12  25  48  77 108 142 190 250 305 372 441
#     4  12  26  44  71 106 151 196 243 304 375 439
#     4  12  24  41  69 103 142 194 243 292 358 445
#     4  12  24  46  76 104 144 192 248 302 368 446
#
# _framework density 22.119789000000001
#
# number of rings (size 3 to 8) (size 9 to 14) (size 15 to 20)
#    0.000    0.000    6.667    4.000    3.111    1.778 
#    0.000    5.556    0.000    0.000    0.000    0.000 
#    0.000    0.000    0.000    0.000    0.000    0.000 
#
# Total GULP energy -201036.642710 kJ/mol
# GULP energy per Si atom -5584.351186 kJ/mol
# Density = 2.206944 g / cm^3
# Si number density = 22.119789 Si / 1000 Ang^3
#
#
#
# Elastic Constant Matrix: (Units=GPa)
#
#
# Indices 1 2 3 4 5 6 
#
# 1 142.4896 10.6220 62.4347 0.0000 0.0000 0.0000
# 2 10.6220 76.6533 21.2042 0.0000 0.0000 0.0000
# 3 62.4347 21.2042 183.2204 0.0000 0.0000 0.0000
# 4 0.0000 0.0000 0.0000 29.4845 0.0000 0.0000
# 5 0.0000 0.0000 0.0000 0.0000 24.0918 0.0000
# 6 0.0000 0.0000 0.0000 0.0000 0.0000 31.1646
#
#
#
# Elastic Compliance Matrix: (Units=1/GPa)
#
#
# Indices 1 2 3 4 5 6 
#
# 1 0.008260 -0.000378 -0.002771 0.000000 0.000000 0.000000
# 2 -0.000378 0.013495 -0.001433 0.000000 0.000000 0.000000
# 3 -0.002771 -0.001433 0.006568 0.000000 0.000000 0.000000
# 4 0.000000 0.000000 0.000000 0.033916 0.000000 0.000000
# 5 0.000000 0.000000 0.000000 0.000000 0.041508 0.000000
# 6 0.000000 0.000000 0.000000 0.000000 0.000000 0.032088
#
#
# Mechanical properties :
#
#
# Convention : Reuss Voigt Hill
#
# Bulk Modulus (GPa) = 52.19529 65.65389 58.92459
# Shear Modulus (GPa) = 33.02835 37.48835 35.25835
#
# Velocity S-wave (km/s) = 3.86833 4.12125 3.99679
# Velocity P-wave (km/s) = 6.60302 7.23821 6.92790
#
# Compressibility (1/GPa) = 0.01915882
#
# Stress axis : x y z
#
# Youngs Moduli (GPa) = 121.05871 74.10414 152.25288
#
# Poissons Ratio (x) = 0.02802 0.42191
# Poissons Ratio (y) = 0.04577 0.21816
# Poissons Ratio (z) = 0.33547 0.10618
#
# Static dielectric constant tensor:
#      x y z
#    x 1.826980 0.000000 0.000000 
#    y 0.000000 2.063850 0.000000 
#    z 0.000000 0.000000 1.780530 
# 
# From -- ./inp_files/15524.got.cif
#   From: 2010.05.17/outbox.cif.g08.bks.cpg/sg73_8_cif.got.tgz:15524.got - 2010.06.03 17:35:07.
