data_PCOD9533620
_publ_section_title
;
Structure prediction by ZEFSAII (Michael W. Deem and Ramdas Pophale) SiO2 
 PCOD9533620
Probable space group: I B C A 
;
_chemical_formula_sum "Si O2"
_cell_formula_units_Z 56
_cell_length_a 15.595808
_cell_length_b 7.769544
_cell_length_c 17.441345
_cell_angle_alpha 90.000000
_cell_angle_beta 90.000000
_cell_angle_gamma 90.000000
_cell_volume 2113.408176
_symmetry_space_group_name_H-M "I B C A "
_symmetry_group_IT_number 73
_symmetry_cell_setting 'orthorhombic'
loop_
_space_group_symop_operation_xyz
x,y,z
-x,1/2-y,z
x,-y,1/2-z
1/2-x,y,-z
-x,-y,-z
x,1/2+y,-z
-x,y,1/2+z
1/2+x,-y,z
1/2+x,1/2+y,1/2+z
1/2-x,-y,1/2+z
1/2+x,1/2-y,-z
-x,1/2+y,1/2-z
1/2-x,1/2-y,1/2-z
1/2+x,y,1/2-z
1/2-x,1/2+y,z
x,1/2-y,1/2+z
loop_
_atom_site_type_symbol
_atom_site_label
_atom_site_fract_x
_atom_site_fract_y
_atom_site_fract_z
Si Si1 0.596285 0.338700 0.690102
Si Si2 0.378735 0.000000 0.250000
Si Si3 0.418456 0.864314 0.088593
Si Si4 0.839757 0.538561 0.458542
O O1 0.500000 0.250000 0.686934
O O2 0.598183 0.500000 0.750000
O O3 0.628765 0.411607 0.608765
O O4 0.657820 0.179541 0.716269
O O5 0.424764 0.073916 0.325173
O O6 0.500000 0.750000 0.071941
O O7 0.341948 0.728376 0.077044
O O8 0.404831 0.016785 0.029648
O O9 0.750000 0.508833 0.500000
#
# Coordination Sequence:
#
# PCOD9533620 Si02
#       4
#    16   8  16  16
#     4  12  23  46  83 127 168 216 288 358 420 498
#     4  12  24  44  78 126 158 208 286 362 424 480
#     4  12  25  48  80 118 161 224 289 355 419 507
#     4  12  27  50  77 122 173 222 276 351 443 520
#
# _framework density 26.497484
#
# number of rings (size 3 to 8) (size 9 to 14) (size 15 to 20)
#    0.000    0.000    4.286    6.857    0.000    0.000 
#    2.571    5.714    0.000    1.714    0.000    0.000 
#    0.000    0.000    0.000    0.000    0.000    0.000 
#
# Total GULP energy -156579.234850 kJ/mol
# GULP energy per Si atom -5592.115530 kJ/mol
# Density = 2.643717 g / cm^3
# Si number density = 26.497484 Si / 1000 Ang^3
#
#
#
# Elastic Constant Matrix: (Units=GPa)
#
#
# Indices 1 2 3 4 5 6 
#
# 1 102.3043 29.7219 59.7938 0.0000 0.0000 0.0000
# 2 29.7219 184.1691 64.3661 0.0000 0.0000 0.0000
# 3 59.7938 64.3661 204.2718 0.0000 0.0000 0.0000
# 4 0.0000 0.0000 0.0000 69.8591 0.0000 0.0000
# 5 0.0000 0.0000 0.0000 0.0000 29.0078 0.0000
# 6 0.0000 0.0000 0.0000 0.0000 0.0000 11.3600
#
#
#
# Elastic Compliance Matrix: (Units=1/GPa)
#
#
# Indices 1 2 3 4 5 6 
#
# 1 0.011894 -0.000790 -0.003233 0.000000 0.000000 0.000000
# 2 -0.000790 0.006154 -0.001708 0.000000 0.000000 0.000000
# 3 -0.003233 -0.001708 0.006380 0.000000 0.000000 0.000000
# 4 0.000000 0.000000 0.000000 0.014315 0.000000 0.000000
# 5 0.000000 0.000000 0.000000 0.000000 0.034473 0.000000
# 6 0.000000 0.000000 0.000000 0.000000 0.000000 0.088028
#
#
# Mechanical properties :
#
#
# Convention : Reuss Voigt Hill
#
# Bulk Modulus (GPa) = 77.11888 88.72320 82.92104
# Shear Modulus (GPa) = 28.24434 44.50295 36.37365
#
# Velocity S-wave (km/s) = 3.26839 4.10264 3.70904
# Velocity P-wave (km/s) = 6.58867 7.48321 7.05014
#
# Compressibility (1/GPa) = 0.01296699
#
# Stress axis : x y z
#
# Youngs Moduli (GPa) = 84.07920 162.49126 156.74255
#
# Poissons Ratio (x) = 0.12831 0.50669
# Poissons Ratio (y) = 0.06639 0.26772
# Poissons Ratio (z) = 0.27180 0.27754
#
# Static dielectric constant tensor:
#      x y z
#    x 2.243730 0.000000 0.000000 
#    y 0.000000 2.163300 0.000000 
#    z 0.000000 0.000000 1.966610 
# 
# From -- ./inp_files/22252.got.cif
#   From: 2010.05.17/outbox.cif.g08.bks.cpg/sg73_12_cif.got.tgz:22252.got - 2010.06.03 17:35:07.
