data_PCOD9533647
_publ_section_title
;
Structure prediction by ZEFSAII (Michael W. Deem and Ramdas Pophale) SiO2 
 PCOD9533647
Probable space group: I B C A 
;
_chemical_formula_sum "Si O2"
_cell_formula_units_Z 88
_cell_length_a 31.122074
_cell_length_b 11.623302
_cell_length_c 10.623470
_cell_angle_alpha 90.000000
_cell_angle_beta 90.000000
_cell_angle_gamma 90.000000
_cell_volume 3842.947476
_symmetry_space_group_name_H-M "I B C A "
_symmetry_group_IT_number 73
_symmetry_cell_setting 'orthorhombic'
loop_
_space_group_symop_operation_xyz
x,y,z
-x,1/2-y,z
x,-y,1/2-z
1/2-x,y,-z
-x,-y,-z
x,1/2+y,-z
-x,y,1/2+z
1/2+x,-y,z
1/2+x,1/2+y,1/2+z
1/2-x,-y,1/2+z
1/2+x,1/2-y,-z
-x,1/2+y,1/2-z
1/2-x,1/2-y,1/2-z
1/2+x,y,1/2-z
1/2-x,1/2+y,z
x,1/2-y,1/2+z
loop_
_atom_site_type_symbol
_atom_site_label
_atom_site_fract_x
_atom_site_fract_y
_atom_site_fract_z
Si Si1 0.137460 0.045818 0.076977
Si Si2 0.941641 0.500000 0.250000
Si Si3 0.296399 0.857170 0.993185
Si Si4 0.675866 0.228795 0.262652
Si Si5 0.006393 0.619469 0.084754
Si Si6 0.896024 0.619078 0.676598
O O1 0.167920 0.104470 0.178570
O O2 0.091006 0.025071 0.136882
O O3 0.161906 0.935098 0.026763
O O4 0.128623 0.122708 0.956008
O O5 0.972342 0.600473 0.198107
O O6 0.299198 0.776179 0.869226
O O7 0.250000 0.918275 0.000000
O O8 0.301045 0.798243 0.127942
O O9 0.627264 0.279014 0.250397
O O10 0.053825 0.621481 0.144562
O O11 0.000000 0.750000 0.028127
O O12 0.000000 0.500000 0.000000
O O13 0.887470 0.500000 0.750000
#
# Coordination Sequence:
#
# PCOD9533647 Si02
#       6
#    16   8  16  16  16  16
#     4  12  25  47  74 102 150 201 248 311 391 473
#     4  12  24  48  70 110 152 204 266 314 400 474
#     4  12  27  47  74 111 146 195 254 322 390 469
#     4  12  25  48  78 109 150 199 256 316 395 474
#     4  12  28  46  76 114 158 206 269 337 392 484
#     4  12  25  47  76 109 148 205 257 314 393 470
#
# _framework density 22.899090000000001
#
# number of rings (size 3 to 8) (size 9 to 14) (size 15 to 20)
#    0.000    0.000    8.182    1.636    0.000    2.909 
#    6.545    0.000    0.000    0.000    0.000    0.000 
#    0.000    0.000    0.000    0.000    0.000    0.000 
#
# Total GULP energy -245628.086398 kJ/mol
# GULP energy per Si atom -5582.456509 kJ/mol
# Density = 2.284697 g / cm^3
# Si number density = 22.899090 Si / 1000 Ang^3
#
#
#
# Elastic Constant Matrix: (Units=GPa)
#
#
# Indices 1 2 3 4 5 6 
#
# 1 109.9684 19.1516 43.0523 0.0000 0.0000 0.0000
# 2 19.1516 89.8309 19.2392 0.0000 0.0000 0.0000
# 3 43.0523 19.2392 89.1253 0.0000 0.0000 0.0000
# 4 0.0000 0.0000 0.0000 33.5673 0.0000 0.0000
# 5 0.0000 0.0000 0.0000 0.0000 -31.1602 0.0000
# 6 0.0000 0.0000 0.0000 0.0000 0.0000 7.5295
#
#
#
# Elastic Compliance Matrix: (Units=1/GPa)
#
#
# Indices 1 2 3 4 5 6 
#
# 1 0.011359 -0.001307 -0.005205 0.000000 0.000000 0.000000
# 2 -0.001307 0.011822 -0.001921 0.000000 0.000000 0.000000
# 3 -0.005205 -0.001921 0.014149 0.000000 0.000000 0.000000
# 4 0.000000 0.000000 0.000000 0.029791 0.000000 0.000000
# 5 0.000000 0.000000 0.000000 0.000000 -0.032092 0.000000
# 6 0.000000 0.000000 0.000000 0.000000 0.000000 0.132811
#
#
# Mechanical properties :
#
#
# Convention : Reuss Voigt Hill
#
# Bulk Modulus (GPa) = 48.86391 50.20120 49.53255
# Shear Modulus (GPa) = 26.10618 15.81942 20.96280
#
# Velocity S-wave (km/s) = 3.38013 2.63122 3.02891
# Velocity P-wave (km/s) = 6.05135 5.58583 5.82324
#
# Compressibility (1/GPa) = 0.02046500
#
# Stress axis : x y z
#
# Youngs Moduli (GPa) = 88.03764 84.58800 70.67668
#
# Poissons Ratio (x) = 0.11055 0.36786
# Poissons Ratio (y) = 0.11506 0.13575
# Poissons Ratio (z) = 0.45822 0.16246
#
# Static dielectric constant tensor:
#      x y z
#    x 1.828700 0.000000 0.000000 
#    y 0.000000 1.895900 0.000000 
#    z 0.000000 0.000000 1.790490 
# 
# From -- ./inp_files/14650.got.cif
#   From: 2010.05.17/outbox.cif.g08.bks.cpg/sg73_8_cif.got.tgz:14650.got - 2010.06.03 17:35:07.
