data_PCOD9533806
_publ_section_title
;
Structure prediction by ZEFSAII (Michael W. Deem and Ramdas Pophale) SiO2 
 PCOD9533806
Probable space group: I M M A
;
_chemical_formula_sum "Si O2"
_cell_formula_units_Z 64
_cell_length_a 19.594986
_cell_length_b 18.073908
_cell_length_c 7.920403
_cell_angle_alpha 90.000000
_cell_angle_beta 90.000000
_cell_angle_gamma 90.000000
_cell_volume 2805.073882
_symmetry_space_group_name_H-M "I M M A"
_symmetry_group_IT_number 74
_symmetry_cell_setting 'orthorhombic'
loop_
_space_group_symop_operation_xyz
x,y,z
-x,1/2-y,z
x,-y,-z
-x,1/2+y,-z
-x,-y,-z
x,1/2+y,-z
-x,y,z
x,1/2-y,z
1/2+x,1/2+y,1/2+z
1/2-x,-y,1/2+z
1/2+x,1/2-y,1/2-z
1/2-x,y,1/2-z
1/2-x,1/2-y,1/2-z
1/2+x,y,1/2-z
1/2-x,1/2+y,1/2+z
1/2+x,-y,1/2+z
loop_
_atom_site_type_symbol
_atom_site_label
_atom_site_fract_x
_atom_site_fract_y
_atom_site_fract_z
Si Si1 0.000000 0.161800 0.236758
Si Si2 0.772794 0.164852 0.980415
Si Si3 0.849671 0.887318 0.679746
Si Si4 0.855697 0.458069 0.817517
Si Si5 0.500000 0.076369 0.607087
O O1 0.069808 0.129003 0.315164
O O2 0.000000 0.250000 0.253982
O O3 0.000000 0.138612 0.038073
O O4 0.779048 0.250000 0.934211
O O5 0.817048 0.150079 0.152102
O O6 0.695199 0.144752 0.028785
O O7 0.806319 0.109660 0.848252
O O8 0.837284 0.975493 0.693193
O O9 0.931127 0.426260 0.786432
O O10 0.857479 0.500000 0.000000
O O11 0.500000 0.000000 0.500000
#
# Coordination Sequence:
#
# PCOD9533806 Si02
#       5
#     8  16  16  16   8
#     4  12  18  24  42  66  94 123 146 184 237 280
#     4  10  18  28  42  67  94 117 154 197 230 272
#     4  10  18  28  41  65  94 124 152 183 233 283
#     4   9  16  27  43  60  90 126 148 181 231 285
#     4  10  14  26  38  58  91 118 150 174 226 289
#
# _framework density 22.815801
#
# number of rings (size 3 to 8) (size 9 to 14) (size 15 to 20)
#    0.000    2.000    7.500    3.000    0.000    0.000 
#    0.000    0.000    0.000    0.000    0.000   58.625 
#    0.000    0.000    0.000    0.000    0.000    0.000 
#
# Total GULP energy -178969.635558 kJ/mol
# GULP energy per Si atom -5592.801111 kJ/mol
# Density = 2.276387 g / cm^3
# Si number density = 22.815801 Si / 1000 Ang^3
#
#
#
# Elastic Constant Matrix: (Units=GPa)
#
#
# Indices 1 2 3 4 5 6 
#
# 1 173.7827 76.5072 20.5570 0.0000 0.0000 0.0000
# 2 76.5072 213.4608 28.8073 0.0000 0.0000 0.0000
# 3 20.5570 28.8073 56.2980 0.0000 0.0000 0.0000
# 4 0.0000 0.0000 0.0000 -0.9411 0.0000 0.0000
# 5 0.0000 0.0000 0.0000 0.0000 7.6550 0.0000
# 6 0.0000 0.0000 0.0000 0.0000 0.0000 50.0921
#
#
#
# Elastic Compliance Matrix: (Units=1/GPa)
#
#
# Indices 1 2 3 4 5 6 
#
# 1 0.006927 -0.002300 -0.001352 0.000000 0.000000 0.000000
# 2 -0.002300 0.005796 -0.002126 0.000000 0.000000 0.000000
# 3 -0.001352 -0.002126 0.019344 0.000000 0.000000 0.000000
# 4 0.000000 0.000000 0.000000 -1.062636 0.000000 0.000000
# 5 0.000000 0.000000 0.000000 0.000000 0.130633 0.000000
# 6 0.000000 0.000000 0.000000 0.000000 0.000000 0.019963
#
#
# Mechanical properties :
#
#
# Convention : Reuss Voigt Hill
#
# Bulk Modulus (GPa) = 48.75592 77.25382 63.00487
# Shear Modulus (GPa) = -5.80330 32.53923 13.36796
#
# Velocity S-wave (km/s) = -1.59658 3.78056 2.42318
# Velocity P-wave (km/s) = 4.24464 7.27944 5.95849
#
# Compressibility (1/GPa) = 0.02051033
#
# Stress axis : x y z
#
# Youngs Moduli (GPa) = 144.36391 172.53228 51.69507
#
# Poissons Ratio (x) = 0.39686 0.06991
# Poissons Ratio (y) = 0.33207 0.10990
# Poissons Ratio (z) = 0.19523 0.36678
#
# Static dielectric constant tensor:
#      x y z
#    x 1.879900 0.000000 0.000000 
#    y 0.000000 1.816230 0.000000 
#    z 0.000000 0.000000 1.956360 
# 
# From -- ./inp_files/11866.got.cif
#   From: 2010.05.17/outbox.cif.g08.bks.cpg/sg74_6_cif.got.tgz:11866.got - 2010.06.03 17:57:02.
