data_PCOD9533854
_publ_section_title
;
Structure prediction by ZEFSAII (Michael W. Deem and Ramdas Pophale) SiO2 
 PCOD9533854
Probable space group: I M M A
;
_chemical_formula_sum "Si O2"
_cell_formula_units_Z 104
_cell_length_a 8.385353
_cell_length_b 25.632072
_cell_length_c 19.569462
_cell_angle_alpha 90.000000
_cell_angle_beta 90.000000
_cell_angle_gamma 90.000000
_cell_volume 4206.142194
_symmetry_space_group_name_H-M "I M M A"
_symmetry_group_IT_number 74
_symmetry_cell_setting 'orthorhombic'
loop_
_space_group_symop_operation_xyz
x,y,z
-x,1/2-y,z
x,-y,-z
-x,1/2+y,-z
-x,-y,-z
x,1/2+y,-z
-x,y,z
x,1/2-y,z
1/2+x,1/2+y,1/2+z
1/2-x,-y,1/2+z
1/2+x,1/2-y,1/2-z
1/2-x,y,1/2-z
1/2-x,1/2-y,1/2-z
1/2+x,y,1/2-z
1/2-x,1/2+y,1/2+z
1/2+x,-y,1/2+z
loop_
_atom_site_type_symbol
_atom_site_label
_atom_site_fract_x
_atom_site_fract_y
_atom_site_fract_z
Si Si1 0.500000 0.833758 0.000406
Si Si2 0.500000 0.311125 0.164269
Si Si3 0.169642 0.691452 0.981563
Si Si4 0.820804 0.468194 0.115295
Si Si5 0.500000 0.054106 0.036108
Si Si6 0.171543 0.638716 0.835495
Si Si7 0.693135 0.075993 0.828309
Si Si8 0.806062 0.692653 0.329467
O O1 0.500000 0.819915 0.918933
O O2 0.668719 0.812706 0.024352
O O3 0.500000 0.895197 0.010338
O O4 0.500000 0.250000 0.177652
O O5 0.336784 0.337356 0.188523
O O6 0.171859 0.750000 0.951446
O O7 0.172231 0.652084 0.917632
O O8 0.000000 0.684734 0.017972
O O9 0.666146 0.446689 0.075936
O O10 0.830095 0.423646 0.173868
O O11 0.776339 0.527186 0.134505
O O12 0.000000 0.467412 0.083760
O O13 0.500000 0.000000 0.000000
O O14 0.000000 0.660934 0.813595
O O15 0.500000 0.070314 0.831706
O O16 0.750000 0.072179 0.750000
O O17 0.741445 0.133998 0.853459
O O18 0.748517 0.750000 0.355310
O O19 0.750000 0.692217 0.250000
O O20 0.000000 0.692918 0.332108
#
# Coordination Sequence:
#
# PCOD9533854 Si02
#       8
#     8   8  16  16   8  16  16  16
#     4  10  16  28  44  64  96 128 161 213 263 319
#     4  10  16  24  44  70  98 127 166 213 270 321
#     4   9  15  23  40  67  96 124 159 204 265 322
#     4  11  21  37  56  75 110 151 182 233 279 327
#     4  12  24  38  56  78 102 147 194 228 280 333
#     4   9  16  26  42  64  96 137 164 203 269 315
#     4  10  19  31  52  82 115 150 187 230 282 341
#     4   8  14  25  42  69 106 142 176 221 272 320
#
# _framework density 24.725745
#
# number of rings (size 3 to 8) (size 9 to 14) (size 15 to 20)
#    0.000    2.308    3.846    2.538    0.000    1.846 
#    0.000    0.000    0.000    0.000    0.000    3.231 
#    0.000    2.462    1.538    0.000    0.000    0.000 
#
# Total GULP energy -290165.524331 kJ/mol
# GULP energy per Si atom -5580.106237 kJ/mol
# Density = 2.466947 g / cm^3
# Si number density = 24.725745 Si / 1000 Ang^3
#
#
#
# Elastic Constant Matrix: (Units=GPa)
#
#
# Indices 1 2 3 4 5 6 
#
# 1 247.3376 65.0197 29.2729 0.0000 0.0000 0.0000
# 2 65.0197 217.1362 11.0424 -0.0001 0.0000 0.0000
# 3 29.2729 11.0424 44.6118 -0.0002 0.0000 0.0000
# 4 0.0000 -0.0001 -0.0002 338.1905 0.0001 0.0000
# 5 0.0000 0.0000 0.0000 0.0001 -145.5959 0.0000
# 6 0.0000 0.0000 0.0000 0.0000 0.0000 33.2113
#
#
#
# Elastic Compliance Matrix: (Units=1/GPa)
#
#
# Indices 1 2 3 4 5 6 
#
# 1 0.004705 -0.001268 -0.002773 0.000000 0.000000 0.000000
# 2 -0.001268 0.005006 -0.000407 0.000000 0.000000 0.000000
# 3 -0.002773 -0.000407 0.024336 0.000000 0.000000 0.000000
# 4 0.000000 0.000000 0.000000 0.002957 0.000000 0.000000
# 5 0.000000 0.000000 0.000000 0.000000 -0.006868 0.000000
# 6 0.000000 0.000000 0.000000 0.000000 0.000000 0.030110
#
#
# Mechanical properties :
#
#
# Convention : Reuss Voigt Hill
#
# Bulk Modulus (GPa) = 39.76123 79.97286 59.86704
# Shear Modulus (GPa) = 64.49562 72.07789 68.28675
#
# Velocity S-wave (km/s) = 5.11283 5.40502 5.26095
# Velocity P-wave (km/s) = 7.13936 8.44787 7.82103
#
# Compressibility (1/GPa) = 0.02515013
#
# Stress axis : x y z
#
# Youngs Moduli (GPa) = 212.56159 199.77168 41.09131
#
# Poissons Ratio (x) = 0.25325 0.11395
# Poissons Ratio (y) = 0.26946 0.01673
# Poissons Ratio (z) = 0.58947 0.08135
#
# Static dielectric constant tensor:
#      x y z
#    x 2.006350 0.000000 0.000000 
#    y 0.000000 1.946080 0.000000 
#    z 0.000000 0.000000 -0.893640 
# 
# From -- ./inp_files/70835.got.cif
#   From: 2010.05.17/outbox.cif.g08.bks.cpg/sg74_36_cif.got.tgz:70835.got - 2010.06.03 17:57:02.
