data_PCOD9533546
_publ_section_title
;
Structure prediction by ZEFSAII (Michael W. Deem and Ramdas Pophale) SiO2 
 PCOD9533546
Probable space group: I B C A 
;
_chemical_formula_sum "Si O2"
_cell_formula_units_Z 72
_cell_length_a 10.068393
_cell_length_b 20.680105
_cell_length_c 13.794915
_cell_angle_alpha 90.000000
_cell_angle_beta 90.000000
_cell_angle_gamma 90.000000
_cell_volume 2872.314082
_symmetry_space_group_name_H-M "I B C A "
_symmetry_group_IT_number 73
_symmetry_cell_setting 'orthorhombic'
loop_
_space_group_symop_operation_xyz
x,y,z
-x,1/2-y,z
x,-y,1/2-z
1/2-x,y,-z
-x,-y,-z
x,1/2+y,-z
-x,y,1/2+z
1/2+x,-y,z
1/2+x,1/2+y,1/2+z
1/2-x,-y,1/2+z
1/2+x,1/2-y,-z
-x,1/2+y,1/2-z
1/2-x,1/2-y,1/2-z
1/2+x,y,1/2-z
1/2-x,1/2+y,z
x,1/2-y,1/2+z
loop_
_atom_site_type_symbol
_atom_site_label
_atom_site_fract_x
_atom_site_fract_y
_atom_site_fract_z
Si Si1 0.825152 0.000000 0.750000
Si Si2 0.829045 0.132428 0.685247
Si Si3 0.954946 0.177314 0.493299
Si Si4 0.419101 0.814635 0.265396
Si Si5 0.106112 0.548982 0.543366
O O1 0.761503 0.937842 0.803355
O O2 0.893257 0.965338 0.658033
O O3 0.851417 0.154933 0.575115
O O4 0.736658 0.176077 0.756771
O O5 0.982619 0.132595 0.720223
O O6 0.912433 0.181057 0.381395
O O7 0.000000 0.250000 0.519307
O O8 0.067252 0.121796 0.487577
O O9 0.500000 0.750000 0.239410
O O10 0.250000 0.534950 0.500000
O O11 0.000000 0.500000 0.500000
#
# Coordination Sequence:
#
# PCOD9533546 Si02
#       5
#     8  16  16  16  16
#     4  12  28  48  82 114 166 206 274 318 412 476
#     4  12  26  45  77 111 155 204 259 322 394 472
#     4  11  26  49  78 113 155 204 264 330 402 473
#     4  11  26  47  73 109 151 199 256 322 390 464
#     4  12  29  51  81 118 161 214 270 334 404 487
#
# _framework density 25.066896
#
# number of rings (size 3 to 8) (size 9 to 14) (size 15 to 20)
#    0.000    0.444    4.444    2.000    6.222    5.333 
#    0.000    0.000    0.000    0.000    0.000    0.000 
#    0.000    0.000    0.000    0.000    0.000    0.000 
#
# Total GULP energy -200913.631920 kJ/mol
# GULP energy per Si atom -5580.934220 kJ/mol
# Density = 2.500984 g / cm^3
# Si number density = 25.066896 Si / 1000 Ang^3
#
#
#
# Elastic Constant Matrix: (Units=GPa)
#
#
# Indices 1 2 3 4 5 6 
#
# 1 133.6652 29.6410 33.1942 0.0000 0.0000 0.0000
# 2 29.6410 164.9579 28.3977 0.0000 0.0000 0.0000
# 3 33.1942 28.3977 147.6163 -0.0001 0.0000 0.0000
# 4 0.0000 0.0000 -0.0001 8.9580 0.0000 0.0000
# 5 0.0000 0.0000 0.0000 0.0000 24.8204 0.0000
# 6 0.0000 0.0000 0.0000 0.0000 0.0000 19.6582
#
#
#
# Elastic Compliance Matrix: (Units=1/GPa)
#
#
# Indices 1 2 3 4 5 6 
#
# 1 0.008143 -0.001187 -0.001603 0.000000 0.000000 0.000000
# 2 -0.001187 0.006443 -0.000972 0.000000 0.000000 0.000000
# 3 -0.001603 -0.000972 0.007322 0.000000 0.000000 0.000000
# 4 0.000000 0.000000 0.000000 0.111632 0.000000 0.000000
# 5 0.000000 0.000000 0.000000 0.000000 0.040289 0.000000
# 6 0.000000 0.000000 0.000000 0.000000 0.000000 0.050869
#
#
# Mechanical properties :
#
#
# Convention : Reuss Voigt Hill
#
# Bulk Modulus (GPa) = 69.52834 69.85615 69.69224
# Shear Modulus (GPa) = 21.09553 34.35442 27.72497
#
# Velocity S-wave (km/s) = 2.90413 3.70606 3.32932
# Velocity P-wave (km/s) = 6.24841 6.80011 6.53009
#
# Compressibility (1/GPa) = 0.01438263
#
# Stress axis : x y z
#
# Youngs Moduli (GPa) = 122.81010 155.20961 136.57877
#
# Poissons Ratio (x) = 0.18427 0.21889
# Poissons Ratio (y) = 0.14581 0.13282
# Poissons Ratio (z) = 0.19682 0.15094
#
# Static dielectric constant tensor:
#      x y z
#    x 1.964430 0.000000 0.000000 
#    y 0.000000 2.158350 0.000000 
#    z 0.000000 0.000000 2.007790 
# 
# From -- ./inp_files/20616.got.cif
#   From: 2010.05.17/outbox.cif.g08.bks.cpg/sg73_11_cif.got.tgz:20616.got - 2010.06.03 17:35:07.
