data_PCOD9533030
_publ_section_title
;
Structure prediction by ZEFSAII (Michael W. Deem and Ramdas Pophale) SiO2 
 PCOD9533030
Probable space group: I B C A 
;
_chemical_formula_sum "Si O2"
_cell_formula_units_Z 96
_cell_length_a 24.347182
_cell_length_b 19.783019
_cell_length_c 8.366521
_cell_angle_alpha 90.000000
_cell_angle_beta 90.000000
_cell_angle_gamma 90.000000
_cell_volume 4029.824898
_symmetry_space_group_name_H-M "I B C A "
_symmetry_group_IT_number 73
_symmetry_cell_setting 'orthorhombic'
loop_
_space_group_symop_operation_xyz
x,y,z
-x,1/2-y,z
x,-y,1/2-z
1/2-x,y,-z
-x,-y,-z
x,1/2+y,-z
-x,y,1/2+z
1/2+x,-y,z
1/2+x,1/2+y,1/2+z
1/2-x,-y,1/2+z
1/2+x,1/2-y,-z
-x,1/2+y,1/2-z
1/2-x,1/2-y,1/2-z
1/2+x,y,1/2-z
1/2-x,1/2+y,z
x,1/2-y,1/2+z
loop_
_atom_site_type_symbol
_atom_site_label
_atom_site_fract_x
_atom_site_fract_y
_atom_site_fract_z
Si Si1 0.750000 0.059011 0.500000
Si Si2 0.458655 0.187151 0.395186
Si Si3 0.841511 0.341727 0.104447
Si Si4 0.706049 0.429847 0.369319
Si Si5 0.663607 0.299085 0.529430
Si Si6 0.450925 0.620105 0.938602
Si Si7 0.602158 0.500000 0.250000
O O1 0.691551 0.092855 0.444179
O O2 0.771261 0.061336 0.305583
O O3 0.500000 0.250000 0.414440
O O4 0.399654 0.197672 0.472703
O O5 0.450559 0.172426 0.208950
O O6 0.490269 0.124590 0.477524
O O7 0.833275 0.321375 0.287677
O O8 0.820288 0.278298 0.999676
O O9 0.904791 0.356881 0.064302
O O10 0.750000 0.466437 0.500000
O O11 0.697827 0.353082 0.425250
O O12 0.644432 0.459199 0.365701
O O13 0.433436 0.550199 0.857110
#
# Coordination Sequence:
#
# PCOD9533030 Si02
#       7
#     8  16  16  16  16  16   8
#     4  10  26  48  76 106 144 202 244 294 372 436
#     4  12  25  44  75 106 143 198 243 304 374 441
#     4  12  27  47  74 112 146 196 248 309 363 449
#     4  10  25  46  74 106 143 201 239 307 363 441
#     4  12  27  47  73 111 151 191 251 304 375 434
#     4  12  25  46  72 108 147 195 249 302 370 438
#     4  12  24  48  74 104 152 192 250 310 366 444
#
# _framework density 23.822374
#
# number of rings (size 3 to 8) (size 9 to 14) (size 15 to 20)
#    0.500    0.000    5.000    2.500    3.500    2.000 
#    0.000    0.000    0.000    0.000    0.000    0.000 
#    0.000    0.000    0.000    0.000    0.000    0.000 
#
# Total GULP energy -268544.961410 kJ/mol
# GULP energy per Si atom -5594.686696 kJ/mol
# Density = 2.376815 g / cm^3
# Si number density = 23.822374 Si / 1000 Ang^3
#
#
#
# Elastic Constant Matrix: (Units=GPa)
#
#
# Indices 1 2 3 4 5 6 
#
# 1 106.6269 12.2240 8.1082 0.0000 0.0000 0.0000
# 2 12.2240 53.5770 -13.8253 0.0000 0.0000 0.0000
# 3 8.1082 -13.8253 139.5117 0.0000 0.0000 0.0000
# 4 0.0000 0.0000 0.0000 44.3808 0.0000 0.0000
# 5 0.0000 0.0000 0.0000 0.0000 39.8312 0.0000
# 6 0.0000 0.0000 0.0000 0.0000 0.0000 45.4232
#
#
#
# Elastic Compliance Matrix: (Units=1/GPa)
#
#
# Indices 1 2 3 4 5 6 
#
# 1 0.009718 -0.002425 -0.000805 0.000000 0.000000 0.000000
# 2 -0.002425 0.019760 0.002099 0.000000 0.000000 0.000000
# 3 -0.000805 0.002099 0.007423 0.000000 0.000000 0.000000
# 4 0.000000 0.000000 0.000000 0.022532 0.000000 0.000000
# 5 0.000000 0.000000 0.000000 0.000000 0.025106 0.000000
# 6 0.000000 0.000000 0.000000 0.000000 0.000000 0.022015
#
#
# Mechanical properties :
#
#
# Convention : Reuss Voigt Hill
#
# Bulk Modulus (GPa) = 28.86988 34.74770 31.80879
# Shear Modulus (GPa) = 41.54157 45.47429 43.50793
#
# Velocity S-wave (km/s) = 4.18042 4.37382 4.27821
# Velocity P-wave (km/s) = 5.95368 6.33443 6.14700
#
# Compressibility (1/GPa) = 0.03463818
#
# Stress axis : x y z
#
# Youngs Moduli (GPa) = 102.90477 50.60814 134.72257
#
# Poissons Ratio (x) = 0.12272 0.10846
# Poissons Ratio (y) = 0.24954 -0.28279
# Poissons Ratio (z) = 0.08285 -0.10623
#
# Static dielectric constant tensor:
#      x y z
#    x 1.914720 0.000000 0.000000 
#    y 0.000000 2.088390 0.000000 
#    z 0.000000 0.000000 1.853000 
# 
# From -- ./inp_files/7830.got.cif
#   From: 2010.05.17/outbox.cif.g08.bks.cpg/sg73_4_cif.got.tgz:7830.got - 2010.06.03 17:35:07.
