data_PCOD9533735
_publ_section_title
;
Structure prediction by ZEFSAII (Michael W. Deem and Ramdas Pophale) SiO2 
 PCOD9533735
Probable space group: I B C A 
;
_chemical_formula_sum "Si O2"
_cell_formula_units_Z 56
_cell_length_a 24.000000
_cell_length_b 15.000000
_cell_length_c 15.000000
_cell_angle_alpha 90.000000
_cell_angle_beta 90.000000
_cell_angle_gamma 90.000000
_cell_volume 5400.000000
_symmetry_space_group_name_H-M "I B C A "
_symmetry_group_IT_number 73
_symmetry_cell_setting 'orthorhombic'
loop_
_space_group_symop_operation_xyz
x,y,z
-x,1/2-y,z
x,-y,1/2-z
1/2-x,y,-z
-x,-y,-z
x,1/2+y,-z
-x,y,1/2+z
1/2+x,-y,z
1/2+x,1/2+y,1/2+z
1/2-x,-y,1/2+z
1/2+x,1/2-y,-z
-x,1/2+y,1/2-z
1/2-x,1/2-y,1/2-z
1/2+x,y,1/2-z
1/2-x,1/2+y,z
x,1/2-y,1/2+z
loop_
_atom_site_type_symbol
_atom_site_label
_atom_site_fract_x
_atom_site_fract_y
_atom_site_fract_z
Si Si1 0.542804 0.816243 0.120462
Si Si2 0.810105 0.249759 0.543927
Si Si3 0.393448 0.569551 0.829108
Si Si4 0.368448 0.866486 0.891554
Si Si5 0.851682 0.744171 0.769088
Si Si6 0.130744 0.561550 0.969351
Si Si7 0.020206 0.408751 0.795178
O O1 0.500000 0.750000 0.071295
O O2 0.594553 0.768167 0.169614
O O3 0.571530 0.895025 0.063458
O O4 0.509167 0.852423 0.205714
O O5 0.750000 0.262181 0.500000
O O6 0.852240 0.305702 0.478022
O O7 0.809394 0.275914 0.649391
O O8 0.827360 0.144997 0.543106
O O9 0.383074 0.500000 0.750000
O O10 0.366724 0.661779 0.794845
O O11 0.460418 0.577353 0.838973
O O12 0.371152 0.541553 0.925465
O O13 0.340432 0.824945 0.801221
O O14 0.433844 0.867596 0.861179
O O15 0.356210 0.970120 0.916479
O O16 0.043030 0.500000 0.750000
#
# Coordination Sequence:
#
# PCOD9533735 Si02
#       7
#    16  16  16  16  16  16  16
#     4  10  19  35  59  91 134 176 225 269 329 401
#     4  11  26  46  71  99 132 171 237 300 352 417
#     4  11  22  39  62  98 143 181 221 272 338 413
#     4  11  23  43  70  96 137 179 228 284 345 413
#     4  10  22  41  67  96 136 181 219 283 347 409
#     4  11  24  42  66  97 133 180 231 285 340 415
#     4  10  20  37  62  96 138 180 223 263 330 414
#
# _framework density 10.370369999999999
#
# number of rings (size 3 to 8) (size 9 to 14) (size 15 to 20)
#    0.000    1.429    4.286    0.857    0.000    4.000 
#    0.000    0.000    0.000    0.000    0.000    0.000 
#    0.000    0.000    0.000    0.000    0.000    0.000 
#
# Total GULP energy -312424.450852 kJ/mol
# GULP energy per Si atom -5579.008051 kJ/mol
# Density = 1.034677 g / cm^3
# Si number density = 10.370370 Si / 1000 Ang^3
#
#
#
# Elastic Constant Matrix: (Units=GPa)
#
#
# Indices 1 2 3 4 5 6 
#
# 1 41.0713 28.4487 34.8105 0.0000 0.0000 0.0000
# 2 28.4487 119.7231 49.5768 0.0000 0.0000 0.0000
# 3 34.8105 49.5768 137.2177 0.0000 0.0000 0.0000
# 4 0.0000 0.0000 0.0000 41.4418 0.0000 0.0000
# 5 0.0000 0.0000 0.0000 0.0000 28.1389 0.0000
# 6 0.0000 0.0000 0.0000 0.0000 0.0000 14.2141
#
#
#
# Elastic Compliance Matrix: (Units=1/GPa)
#
#
# Indices 1 2 3 4 5 6 
#
# 1 0.033595 -0.005237 -0.006630 0.000000 0.000000 0.000000
# 2 -0.005237 0.010639 -0.002515 0.000000 0.000000 0.000000
# 3 -0.006630 -0.002515 0.009878 0.000000 0.000000 0.000000
# 4 0.000000 0.000000 0.000000 0.024130 0.000000 0.000000
# 5 0.000000 0.000000 0.000000 0.000000 0.035538 0.000000
# 6 0.000000 0.000000 0.000000 0.000000 0.000000 0.070353
#
#
# Mechanical properties :
#
#
# Convention : Reuss Voigt Hill
#
# Bulk Modulus (GPa) = 39.45297 58.18711 48.82004
# Shear Modulus (GPa) = 22.58889 29.10405 25.84647
#
# Velocity S-wave (km/s) = 3.30374 3.75004 3.53394
# Velocity P-wave (km/s) = 5.79795 6.84586 6.34358
#
# Compressibility (1/GPa) = 0.02534663
#
# Stress axis : x y z
#
# Youngs Moduli (GPa) = 29.76606 93.99754 101.23033
#
# Poissons Ratio (x) = 0.49229 0.67121
# Poissons Ratio (y) = 0.15589 0.25460
# Poissons Ratio (z) = 0.19736 0.23641
#
# Static dielectric constant tensor:
#      x y z
#    x 1.775300 0.000000 0.000000 
#    y 0.000000 1.809800 0.000000 
#    z 0.000000 0.000000 1.747120 
# 
# From -- ./inp_files/19396.got.cif
#   From: 2010.05.17/outbox.ucp.g08.bks.cvg/sg73_10_cif.got.tgz:19396.got - 2010.06.11 16:36:03.
