data_PCOD9533322
_publ_section_title
;
Structure prediction by ZEFSAII (Michael W. Deem and Ramdas Pophale) SiO2 
 PCOD9533322
Probable space group: I B C A 
;
_chemical_formula_sum "Si O2"
_cell_formula_units_Z 96
_cell_length_a 8.262045
_cell_length_b 22.336337
_cell_length_c 24.682435
_cell_angle_alpha 90.000000
_cell_angle_beta 90.000000
_cell_angle_gamma 90.000000
_cell_volume 4554.990877
_symmetry_space_group_name_H-M "I B C A "
_symmetry_group_IT_number 73
_symmetry_cell_setting 'orthorhombic'
loop_
_space_group_symop_operation_xyz
x,y,z
-x,1/2-y,z
x,-y,1/2-z
1/2-x,y,-z
-x,-y,-z
x,1/2+y,-z
-x,y,1/2+z
1/2+x,-y,z
1/2+x,1/2+y,1/2+z
1/2-x,-y,1/2+z
1/2+x,1/2-y,-z
-x,1/2+y,1/2-z
1/2-x,1/2-y,1/2-z
1/2+x,y,1/2-z
1/2-x,1/2+y,z
x,1/2-y,1/2+z
loop_
_atom_site_type_symbol
_atom_site_label
_atom_site_fract_x
_atom_site_fract_y
_atom_site_fract_z
Si Si1 0.977169 0.494328 0.371873
Si Si2 0.865186 0.609091 0.328223
Si Si3 0.417927 0.193717 0.398589
Si Si4 0.480621 0.898218 0.283442
Si Si5 0.327549 0.280950 0.196203
Si Si6 0.762292 0.074086 0.062778
O O1 0.847248 0.546633 0.359390
O O2 0.908395 0.441730 0.409708
O O3 0.003807 0.460811 0.314735
O O4 0.112106 0.532590 0.403679
O O5 0.693867 0.625679 0.302323
O O6 0.940063 0.657879 0.367563
O O7 0.997051 0.597244 0.280930
O O8 0.500000 0.250000 0.428643
O O9 0.300089 0.220188 0.352281
O O10 0.320250 0.142680 0.430764
O O11 0.619824 0.850557 0.298133
O O12 0.500000 0.250000 0.185315
O O13 0.250000 0.250000 0.250000
O O14 0.750000 0.057944 0.000000
#
# Coordination Sequence:
#
# PCOD9533322 Si02
#       6
#    16  16  16  16  16  16
#     4  11  23  41  65  96 127 168 220 270 332 398
#     4  11  24  36  63  95 137 177 211 264 322 402
#     4  11  23  43  65  95 131 173 219 266 329 396
#     4  12  22  37  58  93 133 171 219 259 325 391
#     4  12  23  37  60  89 132 180 217 257 316 394
#     4  11  24  46  71  93 126 170 221 288 334 387
#
# _framework density 21.075783000000001
#
# number of rings (size 3 to 8) (size 9 to 14) (size 15 to 20)
#    0.000    0.667    3.333    6.500    2.333    1.333 
#    0.000    0.833    0.000    0.000    0.000    0.000 
#    0.000    0.000    0.000    0.000    0.000    0.000 
#
# Total GULP energy -267941.953874 kJ/mol
# GULP energy per Si atom -5582.124039 kJ/mol
# Density = 2.102781 g / cm^3
# Si number density = 21.075783 Si / 1000 Ang^3
#
#
#
# Elastic Constant Matrix: (Units=GPa)
#
#
# Indices 1 2 3 4 5 6 
#
# 1 53.3023 16.9798 -17.8156 0.0000 0.0000 0.0000
# 2 16.9798 121.3353 6.9301 0.0000 0.0000 0.0000
# 3 -17.8156 6.9301 35.6882 0.0000 0.0000 0.0000
# 4 0.0000 0.0000 0.0000 17.8991 0.0000 0.0000
# 5 0.0000 0.0000 0.0000 0.0000 15.8022 0.0000
# 6 0.0000 0.0000 0.0000 0.0000 0.0000 8.0634
#
#
#
# Elastic Compliance Matrix: (Units=1/GPa)
#
#
# Indices 1 2 3 4 5 6 
#
# 1 0.024434 -0.004162 0.013006 0.000000 0.000000 0.000000
# 2 -0.004162 0.009043 -0.003834 0.000000 0.000000 0.000000
# 3 0.013006 -0.003834 0.035257 0.000000 0.000000 0.000000
# 4 0.000000 0.000000 0.000000 0.055869 0.000000 0.000000
# 5 0.000000 0.000000 0.000000 0.000000 0.063282 0.000000
# 6 0.000000 0.000000 0.000000 0.000000 0.000000 0.124017
#
#
# Mechanical properties :
#
#
# Convention : Reuss Voigt Hill
#
# Bulk Modulus (GPa) = 12.69785 24.72383 18.71084
# Shear Modulus (GPa) = 15.23770 21.96839 18.60304
#
# Velocity S-wave (km/s) = 2.69177 3.23205 2.97421
# Velocity P-wave (km/s) = 3.96217 5.06800 4.54881
#
# Compressibility (1/GPa) = 0.07875351
#
# Stress axis : x y z
#
# Youngs Moduli (GPa) = 40.92707 110.58227 28.36288
#
# Poissons Ratio (x) = 0.46025 -0.36888
# Poissons Ratio (y) = 0.17034 0.10874
# Poissons Ratio (z) = -0.53228 0.42394
#
# Static dielectric constant tensor:
#      x y z
#    x 1.821770 0.000000 0.000000 
#    y 0.000000 1.813930 0.000000 
#    z 0.000000 0.000000 1.719280 
# 
# From -- ./inp_files/31176.got.cif
#   From: 2010.05.17/outbox.cif.g08.bks.cpg/sg73_16_cif.got.tgz:31176.got - 2010.06.03 17:35:07.
