data_PCOD9533796
_publ_section_title
;
Structure prediction by ZEFSAII (Michael W. Deem and Ramdas Pophale) SiO2 
 PCOD9533796
Probable space group: I M M A
;
_chemical_formula_sum "Si O2"
_cell_formula_units_Z 96
_cell_length_a 23.415855
_cell_length_b 7.453869
_cell_length_c 25.398538
_cell_angle_alpha 90.000000
_cell_angle_beta 90.000000
_cell_angle_gamma 90.000000
_cell_volume 4433.028203
_symmetry_space_group_name_H-M "I M M A"
_symmetry_group_IT_number 74
_symmetry_cell_setting 'orthorhombic'
loop_
_space_group_symop_operation_xyz
x,y,z
-x,1/2-y,z
x,-y,-z
-x,1/2+y,-z
-x,-y,-z
x,1/2+y,-z
-x,y,z
x,1/2-y,z
1/2+x,1/2+y,1/2+z
1/2-x,-y,1/2+z
1/2+x,1/2-y,1/2-z
1/2-x,y,1/2-z
1/2-x,1/2-y,1/2-z
1/2+x,y,1/2-z
1/2-x,1/2+y,1/2+z
1/2+x,-y,1/2+z
loop_
_atom_site_type_symbol
_atom_site_label
_atom_site_fract_x
_atom_site_fract_y
_atom_site_fract_z
Si Si1 0.235040 0.970258 0.632212
Si Si2 0.934583 0.470017 0.142231
Si Si3 0.000000 0.535238 0.561968
Si Si4 0.250000 0.502666 0.250000
Si Si5 0.114451 0.952288 0.747925
Si Si6 0.160076 0.963898 0.938442
Si Si7 0.605734 0.968890 0.868825
O O1 0.238349 0.750000 0.641226
O O2 0.248265 0.059202 0.688555
O O3 0.281548 0.024561 0.589412
O O4 0.170582 0.013668 0.615487
O O5 0.933006 0.250000 0.142403
O O6 0.909422 0.532642 0.198350
O O7 0.893637 0.531464 0.095186
O O8 0.000000 0.523903 0.135938
O O9 0.000000 0.500000 0.500000
O O10 0.056693 0.468589 0.591881
O O11 0.000000 0.750000 0.568115
O O12 0.183417 0.437738 0.249439
O O13 0.091063 0.750000 0.746551
O O14 0.098298 0.033563 0.691506
O O15 0.160278 0.750000 0.932407
O O16 0.157148 0.000000 0.000000
O O17 0.603968 0.750000 0.867265
#
# Coordination Sequence:
#
# PCOD9533796 Si02
#       7
#    16  16   8   8  16  16  16
#     4   9  15  25  42  67  96 121 148 188 238 281
#     4   9  17  27  41  64  94 123 151 190 239 282
#     4  10  20  34  48  66  94 128 161 190 224 274
#     4  10  13  20  40  66  95 120 141 180 241 290
#     4   9  14  21  38  64  95 120 140 181 241 288
#     4  10  20  33  48  68  95 127 160 193 227 273
#     4   8  16  26  41  66  95 122 148 187 237 281
#
# _framework density 21.655626000000002
#
# number of rings (size 3 to 8) (size 9 to 14) (size 15 to 20)
#    0.000    2.833    1.667    2.500    1.167    1.000 
#    0.000    0.000    0.000    0.000    0.000    1.750 
#    0.000    0.000    0.000    0.000    0.000    0.000 
#
# Total GULP energy -267266.915455 kJ/mol
# GULP energy per Si atom -5568.060739 kJ/mol
# Density = 2.160634 g / cm^3
# Si number density = 21.655626 Si / 1000 Ang^3
#
#
#
# Elastic Constant Matrix: (Units=GPa)
#
#
# Indices 1 2 3 4 5 6 
#
# 1 191.7196 11.5856 156.8076 0.0000 0.0000 0.0000
# 2 11.5856 62.9760 5.6958 0.0000 0.0000 0.0000
# 3 156.8076 5.6958 223.3801 0.0000 0.0000 0.0000
# 4 0.0000 0.0000 0.0000 -21.9087 0.0000 0.0000
# 5 0.0000 0.0000 0.0000 0.0000 38.0776 0.0000
# 6 0.0000 0.0000 0.0000 0.0000 0.0000 -12.4191
#
#
#
# Elastic Compliance Matrix: (Units=1/GPa)
#
#
# Indices 1 2 3 4 5 6 
#
# 1 0.012387 -0.001496 -0.008657 0.000000 0.000000 0.000000
# 2 -0.001496 0.016096 0.000640 0.000000 0.000000 0.000000
# 3 -0.008657 0.000640 0.010538 0.000000 0.000000 0.000000
# 4 0.000000 0.000000 0.000000 -0.045644 0.000000 0.000000
# 5 0.000000 0.000000 0.000000 0.000000 0.026262 0.000000
# 6 0.000000 0.000000 0.000000 0.000000 0.000000 -0.080521
#
#
# Mechanical properties :
#
#
# Convention : Reuss Voigt Hill
#
# Bulk Modulus (GPa) = 50.01494 91.80597 70.91045
# Shear Modulus (GPa) = -142.08684 21.01574 -60.53555
#
# Velocity S-wave (km/s) = -8.10891 3.11859 -5.29286
# Velocity P-wave (km/s) = 8.03286 7.44668 2.13000
#
# Compressibility (1/GPa) = 0.01999403
#
# Stress axis : x y z
#
# Youngs Moduli (GPa) = 80.72802 62.12570 94.89751
#
# Poissons Ratio (x) = 0.09293 0.82157
# Poissons Ratio (y) = 0.12076 -0.06070
# Poissons Ratio (z) = 0.69890 -0.03974
#
# Static dielectric constant tensor:
#      x y z
#    x 1.750310 0.000000 0.000000 
#    y 0.000000 1.924360 0.000000 
#    z 0.000000 0.000000 1.753970 
# 
# From -- ./inp_files/54674.got.cif
#   From: 2010.05.17/outbox.cif.g08.bks.cpg/sg74_28_cif.got.tgz:54674.got - 2010.06.03 17:57:02.
