data_PCOD9533713
_publ_section_title
;
Structure prediction by ZEFSAII (Michael W. Deem and Ramdas Pophale) SiO2 
 PCOD9533713
Probable space group: I B C A 
;
_chemical_formula_sum "Si O2"
_cell_formula_units_Z 48
_cell_length_a 7.979861
_cell_length_b 8.334598
_cell_length_c 25.152894
_cell_angle_alpha 90.000000
_cell_angle_beta 90.000000
_cell_angle_gamma 90.000000
_cell_volume 1672.892155
_symmetry_space_group_name_H-M "I B C A "
_symmetry_group_IT_number 73
_symmetry_cell_setting 'orthorhombic'
loop_
_space_group_symop_operation_xyz
x,y,z
-x,1/2-y,z
x,-y,1/2-z
1/2-x,y,-z
-x,-y,-z
x,1/2+y,-z
-x,y,1/2+z
1/2+x,-y,z
1/2+x,1/2+y,1/2+z
1/2-x,-y,1/2+z
1/2+x,1/2-y,-z
-x,1/2+y,1/2-z
1/2-x,1/2-y,1/2-z
1/2+x,y,1/2-z
1/2-x,1/2+y,z
x,1/2-y,1/2+z
loop_
_atom_site_type_symbol
_atom_site_label
_atom_site_fract_x
_atom_site_fract_y
_atom_site_fract_z
Si Si1 0.893937 0.890840 0.702303
Si Si2 0.620843 0.888612 0.625942
Si Si3 0.116889 0.387445 0.961791
O O1 0.743485 0.813934 0.669434
O O2 0.000000 0.750000 0.727304
O O3 0.831413 0.000000 0.750000
O O4 0.009788 0.986934 0.659824
O O5 0.500000 0.750000 0.603238
O O6 0.752496 0.957591 0.582062
O O7 0.000000 0.250000 0.937511
O O8 0.250000 0.301371 0.000000
O O9 0.000000 0.500000 0.000000
#
# Coordination Sequence:
#
# PCOD9533713 Si02
#       3
#    16  16  16
#     4  12  27  49  78 114 157 210 267 327 395 470
#     4  12  27  50  77 111 155 205 263 326 396 471
#     4  12  27  50  78 112 152 199 255 320 395 473
#
# _framework density 28.692822
#
# number of rings (size 3 to 8) (size 9 to 14) (size 15 to 20)
#    0.000    0.000    0.000    9.000    0.000    9.333 
#    0.000    3.333    0.000    0.000    0.000    0.000 
#    0.000    0.000    0.000    0.000    0.000    0.000 
#
# Total GULP energy -134397.871767 kJ/mol
# GULP energy per Si atom -5599.911324 kJ/mol
# Density = 2.862752 g / cm^3
# Si number density = 28.692822 Si / 1000 Ang^3
#
#
#
# Elastic Constant Matrix: (Units=GPa)
#
#
# Indices 1 2 3 4 5 6 
#
# 1 162.6023 60.7343 81.6170 0.0000 0.0000 0.0000
# 2 60.7343 85.1306 43.3611 0.0000 0.0000 0.0000
# 3 81.6170 43.3611 148.1066 0.0000 0.0000 0.0000
# 4 0.0000 0.0000 0.0000 46.5117 0.0000 0.0000
# 5 0.0000 0.0000 0.0000 0.0000 84.8700 0.0000
# 6 0.0000 0.0000 0.0000 0.0000 0.0000 65.5490
#
#
#
# Elastic Compliance Matrix: (Units=1/GPa)
#
#
# Indices 1 2 3 4 5 6 
#
# 1 0.010112 -0.005143 -0.004067 0.000000 0.000000 0.000000
# 2 -0.005143 0.016421 -0.001973 0.000000 0.000000 0.000000
# 3 -0.004067 -0.001973 0.009571 0.000000 0.000000 0.000000
# 4 0.000000 0.000000 0.000000 0.021500 0.000000 0.000000
# 5 0.000000 0.000000 0.000000 0.000000 0.011783 0.000000
# 6 0.000000 0.000000 0.000000 0.000000 0.000000 0.015256
#
#
# Mechanical properties :
#
#
# Convention : Reuss Voigt Hill
#
# Bulk Modulus (GPa) = 72.79337 85.25161 79.02249
# Shear Modulus (GPa) = 44.80768 53.39461 49.10115
#
# Velocity S-wave (km/s) = 3.95604 4.31850 4.14124
# Velocity P-wave (km/s) = 6.80382 7.39204 7.10402
#
# Compressibility (1/GPa) = 0.01373752
#
# Stress axis : x y z
#
# Youngs Moduli (GPa) = 98.88986 60.89801 104.48451
#
# Poissons Ratio (x) = 0.31319 0.42493
# Poissons Ratio (y) = 0.50858 0.20620
# Poissons Ratio (z) = 0.40217 0.12018
#
# Static dielectric constant tensor:
#      x y z
#    x 2.182060 0.000000 0.000000 
#    y 0.000000 2.103960 0.000000 
#    z 0.000000 0.000000 2.224710 
# 
# From -- ./inp_files/33428.got.cif
#   From: 2010.05.17/outbox.cif.g08.bks.cpg/sg73_17_cif.got.tgz:33428.got - 2010.06.03 17:35:07.
