data_PCOD9533190
_publ_section_title
;
Structure prediction by ZEFSAII (Michael W. Deem and Ramdas Pophale) SiO2 
 PCOD9533190
Probable space group: I B C A 
;
_chemical_formula_sum "Si O2"
_cell_formula_units_Z 72
_cell_length_a 15.145669
_cell_length_b 14.669802
_cell_length_c 13.387258
_cell_angle_alpha 90.000000
_cell_angle_beta 90.000000
_cell_angle_gamma 90.000000
_cell_volume 2974.434068
_symmetry_space_group_name_H-M "I B C A "
_symmetry_group_IT_number 73
_symmetry_cell_setting 'orthorhombic'
loop_
_space_group_symop_operation_xyz
x,y,z
-x,1/2-y,z
x,-y,1/2-z
1/2-x,y,-z
-x,-y,-z
x,1/2+y,-z
-x,y,1/2+z
1/2+x,-y,z
1/2+x,1/2+y,1/2+z
1/2-x,-y,1/2+z
1/2+x,1/2-y,-z
-x,1/2+y,1/2-z
1/2-x,1/2-y,1/2-z
1/2+x,y,1/2-z
1/2-x,1/2+y,z
x,1/2-y,1/2+z
loop_
_atom_site_type_symbol
_atom_site_label
_atom_site_fract_x
_atom_site_fract_y
_atom_site_fract_z
Si Si1 0.600327 0.033195 0.528917
Si Si2 0.114309 0.592427 0.810454
Si Si3 0.666184 0.832920 0.564866
Si Si4 0.500000 0.250000 0.882174
Si Si5 0.683655 0.106469 0.721035
O O1 0.632800 0.072396 0.425682
O O2 0.625351 0.102767 0.619263
O O3 0.500000 0.000000 0.500000
O O4 0.653004 0.939590 0.545075
O O5 0.089742 0.500000 0.750000
O O6 0.210983 0.623562 0.778435
O O7 0.036700 0.666515 0.814928
O O8 0.750000 0.801710 0.500000
O O9 0.577204 0.780286 0.542046
O O10 0.659960 0.829246 0.685998
O O11 0.674519 0.000000 0.750000
#
# Coordination Sequence:
#
# PCOD9533190 Si02
#       5
#    16  16  16   8  16
#     4  11  21  40  75 106 139 199 256 313 383 466
#     4  11  24  46  71 105 148 197 253 315 396 470
#     4  11  24  47  68 105 151 197 254 320 395 464
#     4  12  28  44  72 112 148 196 262 324 390 484
#     4   9  21  42  72 102 143 193 249 318 379 460
#
# _framework density 24.206285000000001
#
# number of rings (size 3 to 8) (size 9 to 14) (size 15 to 20)
#    0.000    1.333    2.222    4.667    3.111    2.667 
#    0.000    7.778    0.000    0.000    0.000    0.000 
#    0.000    0.000    0.000    0.000    0.000    0.000 
#
# Total GULP energy -200613.788229 kJ/mol
# GULP energy per Si atom -5572.605229 kJ/mol
# Density = 2.415119 g / cm^3
# Si number density = 24.206285 Si / 1000 Ang^3
#
#
#
# Elastic Constant Matrix: (Units=GPa)
#
#
# Indices 1 2 3 4 5 6 
#
# 1 135.5966 30.9457 46.6140 0.0000 0.0000 0.0000
# 2 30.9457 94.2712 44.7930 0.0000 0.0000 0.0000
# 3 46.6140 44.7930 112.9380 0.0000 0.0000 0.0000
# 4 0.0000 0.0000 0.0000 12.6787 0.0000 0.0000
# 5 0.0000 0.0000 0.0000 0.0000 29.8007 0.0000
# 6 0.0000 0.0000 0.0000 0.0000 0.0000 40.0049
#
#
#
# Elastic Compliance Matrix: (Units=1/GPa)
#
#
# Indices 1 2 3 4 5 6 
#
# 1 0.008747 -0.001424 -0.003045 0.000000 0.000000 0.000000
# 2 -0.001424 0.013303 -0.004688 0.000000 0.000000 0.000000
# 3 -0.003045 -0.004688 0.011971 0.000000 0.000000 0.000000
# 4 0.000000 0.000000 0.000000 0.078873 0.000000 0.000000
# 5 0.000000 0.000000 0.000000 0.000000 0.033556 0.000000
# 6 0.000000 0.000000 0.000000 0.000000 0.000000 0.024997
#
#
# Mechanical properties :
#
#
# Convention : Reuss Voigt Hill
#
# Bulk Modulus (GPa) = 63.67488 65.27901 64.47695
# Shear Modulus (GPa) = 25.64149 31.19375 28.41762
#
# Velocity S-wave (km/s) = 3.25821 3.59369 3.43005
# Velocity P-wave (km/s) = 6.36528 6.65175 6.51009
#
# Compressibility (1/GPa) = 0.01570478
#
# Stress axis : x y z
#
# Youngs Moduli (GPa) = 114.32864 75.17178 83.53706
#
# Poissons Ratio (x) = 0.10707 0.25439
# Poissons Ratio (y) = 0.16284 0.39164
# Poissons Ratio (z) = 0.34816 0.35243
#
# Static dielectric constant tensor:
#      x y z
#    x -1.706190 0.000000 0.000000 
#    y 0.000000 1.981920 0.000000 
#    z 0.000000 0.000000 2.122530 
# 
# From -- ./inp_files/16739.got.cif
#   From: 2010.05.17/outbox.cif.g08.bks.cpg/sg73_9_cif.got.tgz:16739.got - 2010.06.03 17:35:07.
