data_PCOD9533240
_publ_section_title
;
Structure prediction by ZEFSAII (Michael W. Deem and Ramdas Pophale) SiO2 
 PCOD9533240
Probable space group: I B C A 
;
_chemical_formula_sum "Si O2"
_cell_formula_units_Z 112
_cell_length_a 13.774379
_cell_length_b 12.894227
_cell_length_c 25.915900
_cell_angle_alpha 90.000000
_cell_angle_beta 90.000000
_cell_angle_gamma 90.000000
_cell_volume 4602.922211
_symmetry_space_group_name_H-M "I B C A "
_symmetry_group_IT_number 73
_symmetry_cell_setting 'orthorhombic'
loop_
_space_group_symop_operation_xyz
x,y,z
-x,1/2-y,z
x,-y,1/2-z
1/2-x,y,-z
-x,-y,-z
x,1/2+y,-z
-x,y,1/2+z
1/2+x,-y,z
1/2+x,1/2+y,1/2+z
1/2-x,-y,1/2+z
1/2+x,1/2-y,-z
-x,1/2+y,1/2-z
1/2-x,1/2-y,1/2-z
1/2+x,y,1/2-z
1/2-x,1/2+y,z
x,1/2-y,1/2+z
loop_
_atom_site_type_symbol
_atom_site_label
_atom_site_fract_x
_atom_site_fract_y
_atom_site_fract_z
Si Si1 0.500000 0.250000 0.777736
Si Si2 0.867191 0.082222 0.104866
Si Si3 0.067553 0.926523 0.346202
Si Si4 0.847730 0.190613 0.561376
Si Si5 0.247648 0.498802 0.690528
Si Si6 0.334930 0.289802 0.708919
Si Si7 0.128159 0.370499 0.447517
Si Si8 0.000000 0.250000 0.869070
O O1 0.564157 0.322506 0.812959
O O2 0.424844 0.320196 0.746142
O O3 0.880047 0.195501 0.080575
O O4 0.959680 0.047830 0.138544
O O5 0.785905 0.080384 0.149336
O O6 0.851620 0.992518 0.062656
O O7 0.120534 0.897907 0.398936
O O8 0.132132 0.003061 0.313397
O O9 0.893470 0.158428 0.506665
O O10 0.730719 0.188835 0.560265
O O11 0.276507 0.500000 0.750000
O O12 0.287298 0.383634 0.676952
O O13 0.250000 0.250000 0.750000
O O14 0.404590 0.227934 0.667366
O O15 0.043441 0.335121 0.408656
#
# Coordination Sequence:
#
# PCOD9533240 Si02
#       8
#     8  16  16  16  16  16  16   8
#     4  11  22  39  74 102 144 207 256 295 394 454
#     4  12  26  49  77 111 155 194 261 321 379 485
#     4  12  24  45  73 106 147 202 249 313 385 459
#     4  11  26  51  78 106 154 206 250 324 402 457
#     4  12  27  45  71 112 154 198 263 317 384 471
#     4  11  23  43  72 104 153 209 248 312 385 456
#     4  11  27  49  77 115 149 197 265 316 398 461
#     4  11  24  45  76 114 154 193 260 327 372 470
#
# _framework density 24.332367000000001
#
# number of rings (size 3 to 8) (size 9 to 14) (size 15 to 20)
#    0.000    0.571    5.714    0.857    2.000    6.857 
#    0.000    0.000    0.000    0.000    0.000    0.000 
#    0.000    0.000    0.000    0.000    0.000    0.000 
#
# Total GULP energy -312533.238412 kJ/mol
# GULP energy per Si atom -5580.950686 kJ/mol
# Density = 2.427699 g / cm^3
# Si number density = 24.332367 Si / 1000 Ang^3
#
#
#
# Elastic Constant Matrix: (Units=GPa)
#
#
# Indices 1 2 3 4 5 6 
#
# 1 94.4555 -4.1360 17.7287 0.0000 0.0000 0.0000
# 2 -4.1360 63.2471 21.2829 0.0000 0.0000 0.0000
# 3 17.7287 21.2829 139.7967 0.0000 0.0000 0.0000
# 4 0.0000 0.0000 0.0000 7.7160 0.0000 0.0000
# 5 0.0000 0.0000 0.0000 0.0000 43.8285 0.0000
# 6 0.0000 0.0000 0.0000 0.0000 0.0000 31.1659
#
#
#
# Elastic Compliance Matrix: (Units=1/GPa)
#
#
# Indices 1 2 3 4 5 6 
#
# 1 0.010937 0.001246 -0.001577 0.000000 0.000000 0.000000
# 2 0.001246 0.016807 -0.002717 0.000000 0.000000 0.000000
# 3 -0.001577 -0.002717 0.007767 0.000000 0.000000 0.000000
# 4 0.000000 0.000000 0.000000 0.129601 0.000000 0.000000
# 5 0.000000 0.000000 0.000000 0.000000 0.022816 0.000000
# 6 0.000000 0.000000 0.000000 0.000000 0.000000 0.032086
#
#
# Mechanical properties :
#
#
# Convention : Reuss Voigt Hill
#
# Bulk Modulus (GPa) = 33.99537 40.80561 37.40049
# Shear Modulus (GPa) = 21.19404 34.05031 27.62218
#
# Velocity S-wave (km/s) = 2.95451 3.74489 3.37293
# Velocity P-wave (km/s) = 5.06364 5.95865 5.52928
#
# Compressibility (1/GPa) = 0.02941577
#
# Stress axis : x y z
#
# Youngs Moduli (GPa) = 91.42867 59.50030 128.75333
#
# Poissons Ratio (x) = -0.07413 0.20301
# Poissons Ratio (y) = -0.11390 0.34978
# Poissons Ratio (z) = 0.14416 0.16164
#
# Static dielectric constant tensor:
#      x y z
#    x 1.994790 0.000000 0.000000 
#    y 0.000000 2.010040 0.000000 
#    z 0.000000 0.000000 1.995840 
# 
# From -- ./inp_files/32205.got.cif
#   From: 2010.05.17/outbox.cif.g08.bks.cpg/sg73_17_cif.got.tgz:32205.got - 2010.06.03 17:35:07.
