data_PCOD9533084
_publ_section_title
;
Structure prediction by ZEFSAII (Michael W. Deem and Ramdas Pophale) SiO2 
 PCOD9533084
Probable space group: I B C A 
;
_chemical_formula_sum "Si O2"
_cell_formula_units_Z 96
_cell_length_a 12.049991
_cell_length_b 12.290697
_cell_length_c 26.880997
_cell_angle_alpha 90.000000
_cell_angle_beta 90.000000
_cell_angle_gamma 90.000000
_cell_volume 3981.150606
_symmetry_space_group_name_H-M "I B C A "
_symmetry_group_IT_number 73
_symmetry_cell_setting 'orthorhombic'
loop_
_space_group_symop_operation_xyz
x,y,z
-x,1/2-y,z
x,-y,1/2-z
1/2-x,y,-z
-x,-y,-z
x,1/2+y,-z
-x,y,1/2+z
1/2+x,-y,z
1/2+x,1/2+y,1/2+z
1/2-x,-y,1/2+z
1/2+x,1/2-y,-z
-x,1/2+y,1/2-z
1/2-x,1/2-y,1/2-z
1/2+x,y,1/2-z
1/2-x,1/2+y,z
x,1/2-y,1/2+z
loop_
_atom_site_type_symbol
_atom_site_label
_atom_site_fract_x
_atom_site_fract_y
_atom_site_fract_z
Si Si1 0.441027 0.000000 0.250000
Si Si2 0.192644 0.110484 0.832567
Si Si3 0.377089 0.889718 0.116381
Si Si4 0.055097 0.671337 0.810632
Si Si5 0.838027 0.725571 0.081239
Si Si6 0.750000 0.872943 0.000000
Si Si7 0.435980 0.998944 0.947978
O O1 0.363159 0.084195 0.220107
O O2 0.520213 0.050692 0.291411
O O3 0.318211 0.147344 0.824059
O O4 0.141890 0.201554 0.869864
O O5 0.183571 0.994303 0.860962
O O6 0.431449 0.811103 0.157727
O O7 0.287905 0.822172 0.085404
O O8 0.486262 0.930446 0.087721
O O9 0.000000 0.750000 0.767618
O O10 0.834310 0.800255 0.032160
O O11 0.915464 0.621266 0.073314
O O12 0.681560 0.945392 0.039111
O O13 0.500000 0.000000 0.000000
#
# Coordination Sequence:
#
# PCOD9533084 Si02
#       7
#     8  16  16  16  16   8  16
#     4  10  26  46  70 110 148 182 232 304 364 444
#     4  11  24  46  72 105 144 184 243 299 363 448
#     4  11  24  43  69 100 139 184 240 302 358 425
#     4  11  22  45  71 101 137 189 229 289 370 431
#     4  12  24  44  71 101 137 193 243 295 372 442
#     4  12  26  42  68 100 140 188 240 302 360 438
#     4  12  26  44  64 100 144 184 239 305 360 435
#
# _framework density 24.113631000000002
#
# number of rings (size 3 to 8) (size 9 to 14) (size 15 to 20)
#    0.000    0.667    1.667    7.000    0.000    4.667 
#    9.000    0.000    0.000    0.000    0.000    0.000 
#    0.000    0.000    0.000    0.000    0.000    0.000 
#
# Total GULP energy -267892.554009 kJ/mol
# GULP energy per Si atom -5581.094875 kJ/mol
# Density = 2.405875 g / cm^3
# Si number density = 24.113631 Si / 1000 Ang^3
#
#
#
# Elastic Constant Matrix: (Units=GPa)
#
#
# Indices 1 2 3 4 5 6 
#
# 1 113.2401 61.2857 50.5018 0.0000 0.0000 0.0000
# 2 61.2857 123.9228 33.4415 0.0000 0.0000 0.0000
# 3 50.5018 33.4415 86.6933 0.0000 0.0000 0.0000
# 4 0.0000 0.0000 0.0000 34.4155 0.0000 0.0000
# 5 0.0000 0.0000 0.0000 0.0000 11.7430 0.0000
# 6 0.0000 0.0000 0.0000 0.0000 0.0000 111.3759
#
#
#
# Elastic Compliance Matrix: (Units=1/GPa)
#
#
# Indices 1 2 3 4 5 6 
#
# 1 0.014689 -0.005531 -0.006423 0.000000 0.000000 0.000000
# 2 -0.005531 0.011090 -0.001056 0.000000 0.000000 0.000000
# 3 -0.006423 -0.001056 0.015684 0.000000 0.000000 0.000000
# 4 0.000000 0.000000 0.000000 0.029057 0.000000 0.000000
# 5 0.000000 0.000000 0.000000 0.000000 0.085157 0.000000
# 6 0.000000 0.000000 0.000000 0.000000 0.000000 0.008979
#
#
# Mechanical properties :
#
#
# Convention : Reuss Voigt Hill
#
# Bulk Modulus (GPa) = 64.75634 68.25716 66.50675
# Shear Modulus (GPa) = 25.53340 43.41536 34.47438
#
# Velocity S-wave (km/s) = 3.25757 4.24777 3.78519
# Velocity P-wave (km/s) = 6.40796 7.24058 6.83696
#
# Compressibility (1/GPa) = 0.01544250
#
# Stress axis : x y z
#
# Youngs Moduli (GPa) = 68.07973 90.17307 63.75964
#
# Poissons Ratio (x) = 0.49874 0.40954
# Poissons Ratio (y) = 0.37654 0.06732
# Poissons Ratio (z) = 0.43728 0.09521
#
# Static dielectric constant tensor:
#      x y z
#    x 1.439200 0.000000 0.000000 
#    y 0.000000 3.310760 0.000000 
#    z 0.000000 0.000000 1.387750 
# 
# From -- ./inp_files/33990.got.cif
#   From: 2010.05.17/outbox.cif.g08.bks.cpg/sg73_17_cif.got.tgz:33990.got - 2010.06.03 17:35:07.
