data_PCOD9533388
_publ_section_title
;
Structure prediction by ZEFSAII (Michael W. Deem and Ramdas Pophale) SiO2 
 PCOD9533388
Probable space group: I B C A 
;
_chemical_formula_sum "Si O2"
_cell_formula_units_Z 48
_cell_length_a 8.803924
_cell_length_b 23.154661
_cell_length_c 9.583934
_cell_angle_alpha 90.000000
_cell_angle_beta 90.000000
_cell_angle_gamma 90.000000
_cell_volume 1953.702922
_symmetry_space_group_name_H-M "I B C A "
_symmetry_group_IT_number 73
_symmetry_cell_setting 'orthorhombic'
loop_
_space_group_symop_operation_xyz
x,y,z
-x,1/2-y,z
x,-y,1/2-z
1/2-x,y,-z
-x,-y,-z
x,1/2+y,-z
-x,y,1/2+z
1/2+x,-y,z
1/2+x,1/2+y,1/2+z
1/2-x,-y,1/2+z
1/2+x,1/2-y,-z
-x,1/2+y,1/2-z
1/2-x,1/2-y,1/2-z
1/2+x,y,1/2-z
1/2-x,1/2+y,z
x,1/2-y,1/2+z
loop_
_atom_site_type_symbol
_atom_site_label
_atom_site_fract_x
_atom_site_fract_y
_atom_site_fract_z
Si Si1 0.374970 0.208768 0.681176
Si Si2 0.595833 0.127586 0.841707
Si Si3 0.919329 0.942405 0.059778
O O1 0.500000 0.250000 0.598214
O O2 0.250000 0.250000 0.750000
O O3 0.486120 0.177515 0.787286
O O4 0.260287 0.156221 0.640556
O O5 0.592640 0.076295 0.723077
O O6 0.516034 0.105813 0.980806
O O7 0.750000 0.943084 0.000000
O O8 0.000000 0.000000 0.000000
#
# Coordination Sequence:
#
# PCOD9533388 Si02
#       3
#    16  16  16
#     4   9  20  42  72 106 139 184 238 290 359 430
#     4  11  23  46  73 104 150 186 238 300 363 433
#     4  12  28  46  71 107 145 193 247 301 368 438
#
# _framework density 24.568729999999999
#
# number of rings (size 3 to 8) (size 9 to 14) (size 15 to 20)
#    0.000    1.333    3.333    1.000    4.667    2.667 
#    0.000   25.000    0.000    0.000    0.000    0.000 
#    0.000    0.000    0.000    0.000    0.000    0.000 
#
# Total GULP energy -133719.201116 kJ/mol
# GULP energy per Si atom -5571.633380 kJ/mol
# Density = 2.451281 g / cm^3
# Si number density = 24.568730 Si / 1000 Ang^3
#
#
#
# Elastic Constant Matrix: (Units=GPa)
#
#
# Indices 1 2 3 4 5 6 
#
# 1 272.9013 77.2246 54.6955 -0.0006 0.0001 0.0000
# 2 77.2246 112.1314 30.4586 -0.0011 0.0000 0.0001
# 3 54.6955 30.4586 111.3386 -0.0061 -0.0016 0.0006
# 4 -0.0006 -0.0011 -0.0061 -23.4948 -0.0003 0.0004
# 5 0.0001 0.0000 -0.0016 -0.0003 21.5357 -0.0002
# 6 0.0000 0.0001 0.0006 0.0004 -0.0002 79.8905
#
#
#
# Elastic Compliance Matrix: (Units=1/GPa)
#
#
# Indices 1 2 3 4 5 6 
#
# 1 0.004792 -0.002874 -0.001568 0.000000 0.000000 0.000000
# 2 -0.002874 0.011358 -0.001695 0.000000 0.000000 0.000000
# 3 -0.001568 -0.001695 0.010216 -0.000003 0.000001 0.000000
# 4 0.000000 0.000000 -0.000003 -0.042563 -0.000001 0.000000
# 5 0.000000 0.000000 0.000001 -0.000001 0.046434 0.000000
# 6 0.000000 0.000000 0.000000 0.000000 0.000000 0.012517
#
#
# Mechanical properties :
#
#
# Convention : Reuss Voigt Hill
#
# Bulk Modulus (GPa) = 70.96697 91.23653 81.10175
# Shear Modulus (GPa) = 83.71557 37.85246 60.78401
#
# Velocity S-wave (km/s) = 5.84363 3.92940 4.97937
# Velocity P-wave (km/s) = 8.63009 7.60281 8.13269
#
# Compressibility (1/GPa) = 0.01409106
#
# Stress axis : x y z
#
# Youngs Moduli (GPa) = 208.68558 88.04273 97.89038
#
# Poissons Ratio (x) = 0.25306 0.15346
# Poissons Ratio (y) = 0.59983 0.16594
# Poissons Ratio (z) = 0.32716 0.14925
#
# Static dielectric constant tensor:
#      x y z
#    x 1.891980 0.000010 0.000000 
#    y 0.000010 2.516800 -0.000010 
#    z 0.000000 -0.000010 1.946970 
# 
# From -- ./inp_files/3763.got.cif
#   From: 2010.05.17/outbox.cif.g08.bks.cpg/sg73_2_cif.got.tgz:3763.got - 2010.06.03 17:35:07.
