data_PCOD9533334
_publ_section_title
;
Structure prediction by ZEFSAII (Michael W. Deem and Ramdas Pophale) SiO2 
 PCOD9533334
Probable space group: I B C A 
;
_chemical_formula_sum "Si O2"
_cell_formula_units_Z 80
_cell_length_a 14.019447
_cell_length_b 11.608354
_cell_length_c 23.897853
_cell_angle_alpha 90.000000
_cell_angle_beta 90.000000
_cell_angle_gamma 90.000000
_cell_volume 3889.201209
_symmetry_space_group_name_H-M "I B C A "
_symmetry_group_IT_number 73
_symmetry_cell_setting 'orthorhombic'
loop_
_space_group_symop_operation_xyz
x,y,z
-x,1/2-y,z
x,-y,1/2-z
1/2-x,y,-z
-x,-y,-z
x,1/2+y,-z
-x,y,1/2+z
1/2+x,-y,z
1/2+x,1/2+y,1/2+z
1/2-x,-y,1/2+z
1/2+x,1/2-y,-z
-x,1/2+y,1/2-z
1/2-x,1/2-y,1/2-z
1/2+x,y,1/2-z
1/2-x,1/2+y,z
x,1/2-y,1/2+z
loop_
_atom_site_type_symbol
_atom_site_label
_atom_site_fract_x
_atom_site_fract_y
_atom_site_fract_z
Si Si1 0.500000 0.750000 0.229572
Si Si2 0.750000 0.995262 0.500000
Si Si3 0.846016 0.397536 0.294588
Si Si4 0.611421 0.609486 0.412521
Si Si5 0.393812 0.880080 0.914431
Si Si6 0.633868 0.435239 0.308968
O O1 0.416968 0.697874 0.269339
O O2 0.547777 0.654059 0.190769
O O3 0.681979 0.920276 0.459918
O O4 0.683725 0.071783 0.539632
O O5 0.845807 0.500000 0.250000
O O6 0.882731 0.440980 0.354475
O O7 0.735111 0.368325 0.306091
O O8 0.621750 0.745099 0.400321
O O9 0.502116 0.597868 0.432759
O O10 0.630071 0.527848 0.358864
O O11 0.623639 0.500000 0.250000
#
# Coordination Sequence:
#
# PCOD9533334 Si02
#       6
#     8   8  16  16  16  16
#     4  12  22  38  66 102 134 172 220 264 328 402
#     4  12  24  46  66 100 128 170 236 274 320 388
#     4  11  23  42  66  98 138 175 214 266 333 397
#     4  11  24  45  69  96 134 174 218 274 329 391
#     4  11  23  44  70  94 132 178 215 271 337 380
#     4  11  23  42  65  99 137 171 215 268 330 397
#
# _framework density 20.569776999999998
#
# number of rings (size 3 to 8) (size 9 to 14) (size 15 to 20)
#    0.000    0.800    2.000    7.200    0.000    1.600 
#    3.600    2.000    0.000    0.000    0.000    0.000 
#    0.000    0.000    0.000    0.000    0.000    0.000 
#
# Total GULP energy -223639.716612 kJ/mol
# GULP energy per Si atom -5590.992915 kJ/mol
# Density = 2.052296 g / cm^3
# Si number density = 20.569777 Si / 1000 Ang^3
#
#
#
# Elastic Constant Matrix: (Units=GPa)
#
#
# Indices 1 2 3 4 5 6 
#
# 1 157.4743 71.7779 62.0242 0.0000 0.0000 0.0000
# 2 71.7779 70.3133 50.2691 0.0000 0.0000 0.0000
# 3 62.0242 50.2691 139.3668 0.0000 0.0000 0.0000
# 4 0.0000 0.0000 0.0000 27.9152 0.0000 0.0000
# 5 0.0000 0.0000 0.0000 0.0000 16.5817 0.0000
# 6 0.0000 0.0000 0.0000 0.0000 0.0000 18.3963
#
#
#
# Elastic Compliance Matrix: (Units=1/GPa)
#
#
# Indices 1 2 3 4 5 6 
#
# 1 0.012035 -0.011395 -0.001246 0.000000 0.000000 0.000000
# 2 -0.011395 0.029952 -0.005733 0.000000 0.000000 0.000000
# 3 -0.001246 -0.005733 0.009798 0.000000 0.000000 0.000000
# 4 0.000000 0.000000 0.000000 0.035823 0.000000 0.000000
# 5 0.000000 0.000000 0.000000 0.000000 0.060308 0.000000
# 6 0.000000 0.000000 0.000000 0.000000 0.000000 0.054359
#
#
# Mechanical properties :
#
#
# Convention : Reuss Voigt Hill
#
# Bulk Modulus (GPa) = 66.49700 81.69966 74.09833
# Shear Modulus (GPa) = 20.48900 24.78417 22.63659
#
# Velocity S-wave (km/s) = 3.15949 3.47491 3.32094
# Velocity P-wave (km/s) = 6.76073 7.47693 7.12783
#
# Compressibility (1/GPa) = 0.01503827
#
# Stress axis : x y z
#
# Youngs Moduli (GPa) = 83.09263 33.38621 102.06624
#
# Poissons Ratio (x) = 0.38042 0.12717
# Poissons Ratio (y) = 0.94681 0.58511
# Poissons Ratio (z) = 0.10353 0.19139
#
# Static dielectric constant tensor:
#      x y z
#    x 1.795660 0.000000 0.000000 
#    y 0.000000 1.734870 0.000000 
#    z 0.000000 0.000000 1.703780 
# 
# From -- ./inp_files/13486.got.cif
#   From: 2010.05.17/outbox.cif.g08.bks.cpg/sg73_7_cif.got.tgz:13486.got - 2010.06.03 17:35:07.
