data_PCOD9533187
_publ_section_title
;
Structure prediction by ZEFSAII (Michael W. Deem and Ramdas Pophale) SiO2 
 PCOD9533187
Probable space group: I B C A 
;
_chemical_formula_sum "Si O2"
_cell_formula_units_Z 72
_cell_length_a 13.418810
_cell_length_b 17.359843
_cell_length_c 15.030023
_cell_angle_alpha 90.000000
_cell_angle_beta 90.000000
_cell_angle_gamma 90.000000
_cell_volume 3501.220334
_symmetry_space_group_name_H-M "I B C A "
_symmetry_group_IT_number 73
_symmetry_cell_setting 'orthorhombic'
loop_
_space_group_symop_operation_xyz
x,y,z
-x,1/2-y,z
x,-y,1/2-z
1/2-x,y,-z
-x,-y,-z
x,1/2+y,-z
-x,y,1/2+z
1/2+x,-y,z
1/2+x,1/2+y,1/2+z
1/2-x,-y,1/2+z
1/2+x,1/2-y,-z
-x,1/2+y,1/2-z
1/2-x,1/2-y,1/2-z
1/2+x,y,1/2-z
1/2-x,1/2+y,z
x,1/2-y,1/2+z
loop_
_atom_site_type_symbol
_atom_site_label
_atom_site_fract_x
_atom_site_fract_y
_atom_site_fract_z
Si Si1 0.750000 0.291308 0.500000
Si Si2 0.479219 0.159793 0.875821
Si Si3 0.964540 0.660617 0.064999
Si Si4 0.084375 0.912259 0.719447
Si Si5 0.269673 0.812503 0.673022
O O1 0.848250 0.336375 0.464911
O O2 0.725379 0.235328 0.418170
O O3 0.500000 0.250000 0.885135
O O4 0.565557 0.129828 0.812930
O O5 0.376866 0.147586 0.823387
O O6 0.479224 0.130276 0.976573
O O7 0.000000 0.750000 0.083718
O O8 0.997091 0.609759 0.149087
O O9 0.182869 0.875285 0.676469
O O10 0.090757 0.000000 0.750000
O O11 0.250000 0.750000 0.750000
#
# Coordination Sequence:
#
# PCOD9533187 Si02
#       5
#     8  16  16  16  16
#     4  12  20  36  70 104 124 168 244 296 324 398
#     4  11  21  40  65  97 126 176 232 290 334 397
#     4  11  21  40  68 102 130 175 234 288 340 401
#     4  12  26  41  62  98 146 181 215 281 362 423
#     4  12  21  37  67  94 126 174 236 282 334 411
#
# _framework density 20.564259
#
# number of rings (size 3 to 8) (size 9 to 14) (size 15 to 20)
#    0.000    0.444    8.889    2.000    0.000    1.778 
#    0.000    0.000    0.000    4.000    0.000    0.000 
#    0.000    0.000    0.000    0.000    0.000    0.000 
#
# Total GULP energy -200974.667479 kJ/mol
# GULP energy per Si atom -5582.629652 kJ/mol
# Density = 2.051745 g / cm^3
# Si number density = 20.564259 Si / 1000 Ang^3
#
#
#
# Elastic Constant Matrix: (Units=GPa)
#
#
# Indices 1 2 3 4 5 6 
#
# 1 128.1863 41.7996 25.9286 0.0000 0.0000 0.0000
# 2 41.7996 68.1148 47.6227 0.0000 0.0000 0.0000
# 3 25.9286 47.6227 120.3929 -0.0001 0.0000 0.0000
# 4 0.0000 0.0000 -0.0001 17.5707 0.0000 0.0000
# 5 0.0000 0.0000 0.0000 0.0000 33.2658 0.0000
# 6 0.0000 0.0000 0.0000 0.0000 0.0000 11.0887
#
#
#
# Elastic Compliance Matrix: (Units=1/GPa)
#
#
# Indices 1 2 3 4 5 6 
#
# 1 0.009765 -0.006251 0.000369 0.000000 0.000000 0.000000
# 2 -0.006251 0.024294 -0.008264 0.000000 0.000000 0.000000
# 3 0.000369 -0.008264 0.011495 0.000000 0.000000 0.000000
# 4 0.000000 0.000000 0.000000 0.056913 0.000000 0.000000
# 5 0.000000 0.000000 0.000000 0.000000 0.030061 0.000000
# 6 0.000000 0.000000 0.000000 0.000000 0.000000 0.090182
#
#
# Mechanical properties :
#
#
# Convention : Reuss Voigt Hill
#
# Bulk Modulus (GPa) = 57.92120 60.82178 59.37149
# Shear Modulus (GPa) = 19.47385 25.80791 22.64088
#
# Velocity S-wave (km/s) = 3.08063 3.54643 3.32170
# Velocity P-wave (km/s) = 6.39381 6.81250 6.60647
#
# Compressibility (1/GPa) = 0.01726484
#
# Stress axis : x y z
#
# Youngs Moduli (GPa) = 102.41066 41.16159 86.99136
#
# Poissons Ratio (x) = 0.25728 -0.03214
# Poissons Ratio (y) = 0.64012 0.71888
# Poissons Ratio (z) = -0.03784 0.34015
#
# Static dielectric constant tensor:
#      x y z
#    x 1.829140 0.000000 0.000000 
#    y 0.000000 1.771690 0.000000 
#    z 0.000000 0.000000 1.801250 
# 
# From -- ./inp_files/16789.got.cif
#   From: 2010.05.17/outbox.cif.g08.bks.cpg/sg73_9_cif.got.tgz:16789.got - 2010.06.03 17:35:07.
