data_PCOD9533013
_publ_section_title
;
Structure prediction by ZEFSAII (Michael W. Deem and Ramdas Pophale) SiO2 
 PCOD9533013
Probable space group: I B C A 
;
_chemical_formula_sum "Si O2"
_cell_formula_units_Z 112
_cell_length_a 15.403543
_cell_length_b 10.912928
_cell_length_c 29.941051
_cell_angle_alpha 90.000000
_cell_angle_beta 90.000000
_cell_angle_gamma 90.000000
_cell_volume 5033.023477
_symmetry_space_group_name_H-M "I B C A "
_symmetry_group_IT_number 73
_symmetry_cell_setting 'orthorhombic'
loop_
_space_group_symop_operation_xyz
x,y,z
-x,1/2-y,z
x,-y,1/2-z
1/2-x,y,-z
-x,-y,-z
x,1/2+y,-z
-x,y,1/2+z
1/2+x,-y,z
1/2+x,1/2+y,1/2+z
1/2-x,-y,1/2+z
1/2+x,1/2-y,-z
-x,1/2+y,1/2-z
1/2-x,1/2-y,1/2-z
1/2+x,y,1/2-z
1/2-x,1/2+y,z
x,1/2-y,1/2+z
loop_
_atom_site_type_symbol
_atom_site_label
_atom_site_fract_x
_atom_site_fract_y
_atom_site_fract_z
Si Si1 0.000000 0.750000 0.599981
Si Si2 0.895972 0.601284 0.392070
Si Si3 0.926981 0.499978 0.625666
Si Si4 0.000000 0.750000 0.752066
Si Si5 0.844780 0.403901 0.207806
Si Si6 0.862171 0.873959 0.543209
Si Si7 0.840934 0.349359 0.557793
Si Si8 0.846748 0.095265 0.289432
O O1 0.978849 0.627412 0.626018
O O2 0.917394 0.775213 0.569715
O O3 0.852481 0.558923 0.344803
O O4 0.882580 0.503072 0.432249
O O5 0.864856 0.731008 0.412097
O O6 0.997572 0.599823 0.379219
O O7 0.866614 0.472426 0.583811
O O8 0.866289 0.510469 0.668090
O O9 0.067479 0.672236 0.782067
O O10 0.069341 0.822661 0.721509
O O11 0.844874 0.500000 0.250000
O O12 0.748344 0.341865 0.208250
O O13 0.884218 0.860249 0.490987
O O14 0.761297 0.848165 0.549772
O O15 0.841234 0.000000 0.250000
#
# Coordination Sequence:
#
# PCOD9533013 Si02
#       8
#     8  16  16   8  16  16  16  16
#     4  10  25  42  71  96 142 186 230 293 367 438
#     4  11  25  45  71 105 143 189 245 301 368 432
#     4  11  24  44  69 104 140 189 242 296 364 437
#     4  12  23  44  71 104 140 190 230 295 351 432
#     4  11  26  46  72 105 145 187 239 295 358 436
#     4  10  26  45  67 104 138 190 234 302 367 433
#     4  11  26  42  75 102 141 183 248 305 361 434
#     4  11  25  44  69 101 143 187 234 293 357 430
#
# _framework density 22.253025000000001
#
# number of rings (size 3 to 8) (size 9 to 14) (size 15 to 20)
#    0.000    1.143    0.000    4.286   12.000    3.429 
#    0.000    0.000    0.000    0.000    0.000    0.000 
#    0.000    0.000    0.000    0.000    0.000    0.000 
#
# Total GULP energy -312272.060321 kJ/mol
# GULP energy per Si atom -5576.286791 kJ/mol
# Density = 2.220238 g / cm^3
# Si number density = 22.253025 Si / 1000 Ang^3
#
#
#
# Elastic Constant Matrix: (Units=GPa)
#
#
# Indices 1 2 3 4 5 6 
#
# 1 141.3984 20.3912 28.8990 0.0000 0.0000 0.0000
# 2 20.3912 71.2785 29.8008 0.0000 0.0000 0.0000
# 3 28.8990 29.8008 147.8356 0.0000 0.0000 0.0000
# 4 0.0000 0.0000 0.0000 -572.4678 0.0000 0.0000
# 5 0.0000 0.0000 0.0000 0.0000 15.1448 0.0000
# 6 0.0000 0.0000 0.0000 0.0000 0.0000 19.0995
#
#
#
# Elastic Compliance Matrix: (Units=1/GPa)
#
#
# Indices 1 2 3 4 5 6 
#
# 1 0.007547 -0.001684 -0.001136 0.000000 0.000000 0.000000
# 2 -0.001684 0.015697 -0.002835 0.000000 0.000000 0.000000
# 3 -0.001136 -0.002835 0.007558 0.000000 0.000000 0.000000
# 4 0.000000 0.000000 0.000000 -0.001747 0.000000 0.000000
# 5 0.000000 0.000000 0.000000 0.000000 0.066029 0.000000
# 6 0.000000 0.000000 0.000000 0.000000 0.000000 0.052357
#
#
# Mechanical properties :
#
#
# Convention : Reuss Voigt Hill
#
# Bulk Modulus (GPa) = 51.30402 57.63275 54.46839
# Shear Modulus (GPa) = 30.25745 -88.88328 -29.31292
#
# Velocity S-wave (km/s) = 3.69141 -6.32683 -3.63334
# Velocity P-wave (km/s) = 6.42445 5.23610 2.63219
#
# Compressibility (1/GPa) = 0.01949165
#
# Stress axis : x y z
#
# Youngs Moduli (GPa) = 132.49878 63.70832 132.31430
#
# Poissons Ratio (x) = 0.10730 0.15029
# Poissons Ratio (y) = 0.22316 0.37510
# Poissons Ratio (z) = 0.15050 0.18061
#
# Static dielectric constant tensor:
#      x y z
#    x 1.935500 0.000000 0.000000 
#    y 0.000000 1.861580 0.000000 
#    z 0.000000 0.000000 1.801890 
# 
# From -- ./inp_files/34346.got.cif
#   From: 2010.05.17/outbox.cif.g08.bks.cpg/sg73_18_cif.got.tgz:34346.got - 2010.06.03 17:35:07.
