data_PCOD9533583
_publ_section_title
;
Structure prediction by ZEFSAII (Michael W. Deem and Ramdas Pophale) SiO2 
 PCOD9533583
Probable space group: I B C A 
;
_chemical_formula_sum "Si O2"
_cell_formula_units_Z 104
_cell_length_a 8.623256
_cell_length_b 22.615202
_cell_length_c 25.627831
_cell_angle_alpha 90.000000
_cell_angle_beta 90.000000
_cell_angle_gamma 90.000000
_cell_volume 4997.854423
_symmetry_space_group_name_H-M "I B C A "
_symmetry_group_IT_number 73
_symmetry_cell_setting 'orthorhombic'
loop_
_space_group_symop_operation_xyz
x,y,z
-x,1/2-y,z
x,-y,1/2-z
1/2-x,y,-z
-x,-y,-z
x,1/2+y,-z
-x,y,1/2+z
1/2+x,-y,z
1/2+x,1/2+y,1/2+z
1/2-x,-y,1/2+z
1/2+x,1/2-y,-z
-x,1/2+y,1/2-z
1/2-x,1/2-y,1/2-z
1/2+x,y,1/2-z
1/2-x,1/2+y,z
x,1/2-y,1/2+z
loop_
_atom_site_type_symbol
_atom_site_label
_atom_site_fract_x
_atom_site_fract_y
_atom_site_fract_z
Si Si1 0.163373 0.429265 0.588310
Si Si2 0.500000 0.250000 0.027540
Si Si3 0.722275 0.173297 0.100881
Si Si4 0.033347 0.180587 0.292985
Si Si5 0.750000 0.159358 0.500000
Si Si6 0.316882 0.349931 0.313944
Si Si7 0.000000 0.250000 0.627664
Si Si8 0.187428 0.047631 0.558646
O O1 0.249384 0.381574 0.551184
O O2 0.140453 0.401136 0.645261
O O3 0.262418 0.488962 0.589245
O O4 0.997206 0.443338 0.562200
O O5 0.613577 0.211901 0.063818
O O6 0.396908 0.202537 0.997393
O O7 0.651738 0.176246 0.158849
O O8 0.734877 0.106334 0.081988
O O9 0.891006 0.203314 0.098746
O O10 0.104407 0.148477 0.242652
O O11 0.000000 0.250000 0.281437
O O12 0.867899 0.153515 0.308459
O O13 0.381157 0.289263 0.338905
O O14 0.250000 0.040278 0.500000
#
# Coordination Sequence:
#
# PCOD9533583 Si02
#       8
#    16   8  16  16   8  16   8  16
#     4  12  28  50  74 102 144 194 254 303 355 439
#     4  12  28  42  70 110 152 190 231 305 376 444
#     4  12  25  44  72 104 147 190 237 302 370 445
#     4  12  23  43  70 108 146 187 235 292 374 451
#     4  12  28  48  72 108 152 190 240 304 374 442
#     4  12  25  42  73 104 144 187 240 298 365 444
#     4  12  20  42  68 108 140 182 231 297 374 434
#     4  12  28  48  76 102 141 197 250 301 360 433
#
# _framework density 20.80893
#
# number of rings (size 3 to 8) (size 9 to 14) (size 15 to 20)
#    0.000    0.000    5.385    4.615    7.538    0.615 
#    0.000    0.769    0.000    0.000    0.000    0.000 
#    0.000    0.000    0.000    0.000    0.000    0.000 
#
# Total GULP energy -291323.565966 kJ/mol
# GULP energy per Si atom -5602.376269 kJ/mol
# Density = 2.076157 g / cm^3
# Si number density = 20.808930 Si / 1000 Ang^3
#
#
#
# Elastic Constant Matrix: (Units=GPa)
#
#
# Indices 1 2 3 4 5 6 
#
# 1 112.9348 30.4195 29.2893 0.0000 0.0000 0.0000
# 2 30.4195 126.5333 38.4335 0.0000 0.0000 0.0000
# 3 29.2893 38.4335 87.6941 0.0000 0.0000 0.0000
# 4 0.0000 0.0000 0.0000 19.3000 0.0000 0.0000
# 5 0.0000 0.0000 0.0000 0.0000 115.7447 0.0000
# 6 0.0000 0.0000 0.0000 0.0000 0.0000 29.4600
#
#
#
# Elastic Compliance Matrix: (Units=1/GPa)
#
#
# Indices 1 2 3 4 5 6 
#
# 1 0.009967 -0.001598 -0.002629 0.000000 0.000000 0.000000
# 2 -0.001598 0.009373 -0.003574 0.000000 0.000000 0.000000
# 3 -0.002629 -0.003574 0.013848 0.000000 0.000000 0.000000
# 4 0.000000 0.000000 0.000000 0.051813 0.000000 0.000000
# 5 0.000000 0.000000 0.000000 0.000000 0.008640 0.000000
# 6 0.000000 0.000000 0.000000 0.000000 0.000000 0.033944
#
#
# Mechanical properties :
#
#
# Convention : Reuss Voigt Hill
#
# Bulk Modulus (GPa) = 56.86258 58.16075 57.51166
# Shear Modulus (GPa) = 33.54632 48.16895 40.85764
#
# Velocity S-wave (km/s) = 4.01947 4.81648 4.43591
# Velocity P-wave (km/s) = 6.99477 7.67736 7.34400
#
# Compressibility (1/GPa) = 0.01758626
#
# Stress axis : x y z
#
# Youngs Moduli (GPa) = 100.33379 106.69211 72.21430
#
# Poissons Ratio (x) = 0.17046 0.18983
# Poissons Ratio (y) = 0.16030 0.25811
# Poissons Ratio (z) = 0.26374 0.38134
#
# Static dielectric constant tensor:
#      x y z
#    x 1.734590 0.000000 0.000000 
#    y 0.000000 1.726240 0.000000 
#    z 0.000000 0.000000 1.756330 
# 
# From -- ./inp_files/31289.got.cif
#   From: 2010.05.17/outbox.cif.g08.bks.cpg/sg73_16_cif.got.tgz:31289.got - 2010.06.03 17:35:07.
