data_PCOD9533646
_publ_section_title
;
Structure prediction by ZEFSAII (Michael W. Deem and Ramdas Pophale) SiO2 
 PCOD9533646
Probable space group: I B C A 
;
_chemical_formula_sum "Si O2"
_cell_formula_units_Z 64
_cell_length_a 26.617349
_cell_length_b 10.924594
_cell_length_c 9.457386
_cell_angle_alpha 90.000000
_cell_angle_beta 90.000000
_cell_angle_gamma 90.000000
_cell_volume 2750.053988
_symmetry_space_group_name_H-M "I B C A "
_symmetry_group_IT_number 73
_symmetry_cell_setting 'orthorhombic'
loop_
_space_group_symop_operation_xyz
x,y,z
-x,1/2-y,z
x,-y,1/2-z
1/2-x,y,-z
-x,-y,-z
x,1/2+y,-z
-x,y,1/2+z
1/2+x,-y,z
1/2+x,1/2+y,1/2+z
1/2-x,-y,1/2+z
1/2+x,1/2-y,-z
-x,1/2+y,1/2-z
1/2-x,1/2-y,1/2-z
1/2+x,y,1/2-z
1/2-x,1/2+y,z
x,1/2-y,1/2+z
loop_
_atom_site_type_symbol
_atom_site_label
_atom_site_fract_x
_atom_site_fract_y
_atom_site_fract_z
Si Si1 0.651005 0.306850 0.946490
Si Si2 0.294261 0.500000 0.250000
Si Si3 0.084291 0.285964 0.291808
Si Si4 0.250000 0.150990 0.500000
Si Si5 0.489992 0.878799 0.913408
O O1 0.670488 0.415297 0.846949
O O2 0.613052 0.225914 0.853280
O O3 0.621431 0.338758 0.088933
O O4 0.700538 0.232177 0.985606
O O5 0.259099 0.572792 0.359078
O O6 0.033808 0.365415 0.296162
O O7 0.063528 0.151016 0.341897
O O8 0.500000 0.750000 0.998475
O O9 0.500000 0.000000 0.000000
#
# Coordination Sequence:
#
# PCOD9533646 Si02
#       5
#    16   8  16   8  16
#     4  12  24  48  67 107 139 191 244 302 363 450
#     4  12  28  44  76  98 144 190 240 306 376 434
#     4   9  24  40  72  97 146 189 239 294 370 436
#     4  12  28  48  68 104 144 186 246 312 366 438
#     4   8  20  41  67 103 145 189 237 303 361 436
#
# _framework density 23.272271
#
# number of rings (size 3 to 8) (size 9 to 14) (size 15 to 20)
#    1.500    0.000    2.500    1.500    7.000    4.000 
#    0.000    2.500    0.000    0.000    0.000    0.000 
#    0.000    0.000    0.000    0.000    0.000    0.000 
#
# Total GULP energy -178785.828016 kJ/mol
# GULP energy per Si atom -5587.057126 kJ/mol
# Density = 2.321930 g / cm^3
# Si number density = 23.272271 Si / 1000 Ang^3
#
#
#
# Elastic Constant Matrix: (Units=GPa)
#
#
# Indices 1 2 3 4 5 6 
#
# 1 107.7963 6.5097 22.0680 0.0000 0.0000 0.0000
# 2 6.5097 84.7649 13.2461 0.0000 0.0000 0.0000
# 3 22.0680 13.2461 83.7451 0.0000 0.0000 0.0000
# 4 0.0000 0.0000 0.0000 11.4203 0.0000 0.0000
# 5 0.0000 0.0000 0.0000 0.0000 88.7935 0.0000
# 6 0.0000 0.0000 0.0000 0.0000 0.0000 -2.2740
#
#
#
# Elastic Compliance Matrix: (Units=1/GPa)
#
#
# Indices 1 2 3 4 5 6 
#
# 1 0.009816 -0.000358 -0.002530 0.000000 0.000000 0.000000
# 2 -0.000358 0.012109 -0.001821 0.000000 0.000000 0.000000
# 3 -0.002530 -0.001821 0.012896 0.000000 0.000000 0.000000
# 4 0.000000 0.000000 0.000000 0.087563 0.000000 0.000000
# 5 0.000000 0.000000 0.000000 0.000000 0.011262 0.000000
# 6 0.000000 0.000000 0.000000 0.000000 0.000000 -0.439749
#
#
# Mechanical properties :
#
#
# Convention : Reuss Voigt Hill
#
# Bulk Modulus (GPa) = 39.36602 39.99485 39.68044
# Shear Modulus (GPa) = -17.34814 35.22013 8.93600
#
# Velocity S-wave (km/s) = -2.73324 3.89446 1.96166
# Velocity P-wave (km/s) = 2.64411 6.11926 4.71363
#
# Compressibility (1/GPa) = 0.02540262
#
# Stress axis : x y z
#
# Youngs Moduli (GPa) = 101.87083 82.58034 77.54515
#
# Poissons Ratio (x) = 0.02960 0.19619
# Poissons Ratio (y) = 0.03652 0.14120
# Poissons Ratio (z) = 0.25774 0.15037
#
# Static dielectric constant tensor:
#      x y z
#    x 1.884930 0.000000 0.000000 
#    y 0.000000 1.934100 0.000000 
#    z 0.000000 0.000000 1.827560 
# 
# From -- ./inp_files/8244.got.cif
#   From: 2010.05.17/outbox.cif.g08.bks.cpg/sg73_5_cif.got.tgz:8244.got - 2010.06.03 17:35:07.
