data_PCOD9533591
_publ_section_title
;
Structure prediction by ZEFSAII (Michael W. Deem and Ramdas Pophale) SiO2 
 PCOD9533591
Probable space group: I B C A 
;
_chemical_formula_sum "Si O2"
_cell_formula_units_Z 88
_cell_length_a 20.671405
_cell_length_b 12.151635
_cell_length_c 15.351065
_cell_angle_alpha 90.000000
_cell_angle_beta 90.000000
_cell_angle_gamma 90.000000
_cell_volume 3856.055025
_symmetry_space_group_name_H-M "I B C A "
_symmetry_group_IT_number 73
_symmetry_cell_setting 'orthorhombic'
loop_
_space_group_symop_operation_xyz
x,y,z
-x,1/2-y,z
x,-y,1/2-z
1/2-x,y,-z
-x,-y,-z
x,1/2+y,-z
-x,y,1/2+z
1/2+x,-y,z
1/2+x,1/2+y,1/2+z
1/2-x,-y,1/2+z
1/2+x,1/2-y,-z
-x,1/2+y,1/2-z
1/2-x,1/2-y,1/2-z
1/2+x,y,1/2-z
1/2-x,1/2+y,z
x,1/2-y,1/2+z
loop_
_atom_site_type_symbol
_atom_site_label
_atom_site_fract_x
_atom_site_fract_y
_atom_site_fract_z
Si Si1 0.625233 0.145322 0.593852
Si Si2 0.454819 0.551660 0.571957
Si Si3 0.068092 0.901708 0.299436
Si Si4 0.638223 0.260875 0.424218
Si Si5 0.710322 0.133780 0.764829
Si Si6 0.000000 0.750000 0.160911
O O1 0.660705 0.214531 0.518151
O O2 0.657538 0.145799 0.688059
O O3 0.551628 0.186214 0.604183
O O4 0.610592 0.019939 0.570131
O O5 0.500000 0.500000 0.500000
O O6 0.501602 0.555678 0.655852
O O7 0.428145 0.673153 0.558398
O O8 0.114987 0.843414 0.367279
O O9 0.044296 0.820806 0.224858
O O10 0.103023 0.000000 0.250000
O O11 0.681933 0.337729 0.361313
O O12 0.750000 0.250000 0.750000
O O13 0.730822 0.000000 0.750000
#
# Coordination Sequence:
#
# PCOD9533591 Si02
#       6
#    16  16  16  16  16   8
#     4  12  25  44  73 112 157 203 246 317 390 479
#     4  12  22  37  65 108 162 199 238 294 388 483
#     4  12  23  35  61 101 156 207 243 292 370 477
#     4  12  26  45  70 110 151 194 257 319 384 471
#     4  12  29  59  83 106 146 207 275 344 394 446
#     4  12  22  38  66 108 156 198 244 288 390 486
#
# _framework density 22.821251
#
# number of rings (size 3 to 8) (size 9 to 14) (size 15 to 20)
#    0.000    0.000    9.091    1.091    0.000    1.455 
#    3.273    1.818    0.000    0.000    0.000    0.000 
#    0.000    0.000    0.000    0.000    0.000    0.000 
#
# Total GULP energy -245109.191231 kJ/mol
# GULP energy per Si atom -5570.663437 kJ/mol
# Density = 2.276931 g / cm^3
# Si number density = 22.821251 Si / 1000 Ang^3
#
#
#
# Elastic Constant Matrix: (Units=GPa)
#
#
# Indices 1 2 3 4 5 6 
#
# 1 38.1813 20.2279 -3.3724 0.0000 0.0000 0.0000
# 2 20.2279 93.6158 25.3264 0.0000 0.0000 0.0000
# 3 -3.3724 25.3264 66.8995 0.0000 0.0000 0.0000
# 4 0.0000 0.0000 0.0000 32.1214 0.0000 0.0000
# 5 0.0000 0.0000 0.0000 0.0000 23.6368 0.0000
# 6 0.0000 0.0000 0.0000 0.0000 0.0000 33.5450
#
#
#
# Elastic Compliance Matrix: (Units=1/GPa)
#
#
# Indices 1 2 3 4 5 6 
#
# 1 0.030762 -0.007873 0.004531 0.000000 0.000000 0.000000
# 2 -0.007873 0.013916 -0.005665 0.000000 0.000000 0.000000
# 3 0.004531 -0.005665 0.017321 0.000000 0.000000 0.000000
# 4 0.000000 0.000000 0.000000 0.031132 0.000000 0.000000
# 5 0.000000 0.000000 0.000000 0.000000 0.042307 0.000000
# 6 0.000000 0.000000 0.000000 0.000000 0.000000 0.029811
#
#
# Mechanical properties :
#
#
# Convention : Reuss Voigt Hill
#
# Bulk Modulus (GPa) = 22.73486 31.45114 27.09300
# Shear Modulus (GPa) = 25.26239 28.29494 26.77867
#
# Velocity S-wave (km/s) = 3.33072 3.52497 3.42922
# Velocity P-wave (km/s) = 4.97749 5.51168 5.25138
#
# Compressibility (1/GPa) = 0.04398532
#
# Stress axis : x y z
#
# Youngs Moduli (GPa) = 32.50773 71.86182 57.73403
#
# Poissons Ratio (x) = 0.56574 -0.26160
# Poissons Ratio (y) = 0.25592 0.32706
# Poissons Ratio (z) = -0.14730 0.40709
#
# Static dielectric constant tensor:
#      x y z
#    x 1.896520 0.000000 0.000000 
#    y 0.000000 1.604620 0.000000 
#    z 0.000000 0.000000 2.006260 
# 
# From -- ./inp_files/19269.got.cif
#   From: 2010.05.17/outbox.cif.g08.bks.cpg/sg73_10_cif.got.tgz:19269.got - 2010.06.03 17:35:07.
