data_PCOD9533547
_publ_section_title
;
Structure prediction by ZEFSAII (Michael W. Deem and Ramdas Pophale) SiO2 
 PCOD9533547
Probable space group: I B C A 
;
_chemical_formula_sum "Si O2"
_cell_formula_units_Z 56
_cell_length_a 12.114238
_cell_length_b 11.853772
_cell_length_c 15.505923
_cell_angle_alpha 90.000000
_cell_angle_beta 90.000000
_cell_angle_gamma 90.000000
_cell_volume 2226.641475
_symmetry_space_group_name_H-M "I B C A "
_symmetry_group_IT_number 73
_symmetry_cell_setting 'orthorhombic'
loop_
_space_group_symop_operation_xyz
x,y,z
-x,1/2-y,z
x,-y,1/2-z
1/2-x,y,-z
-x,-y,-z
x,1/2+y,-z
-x,y,1/2+z
1/2+x,-y,z
1/2+x,1/2+y,1/2+z
1/2-x,-y,1/2+z
1/2+x,1/2-y,-z
-x,1/2+y,1/2-z
1/2-x,1/2-y,1/2-z
1/2+x,y,1/2-z
1/2-x,1/2+y,z
x,1/2-y,1/2+z
loop_
_atom_site_type_symbol
_atom_site_label
_atom_site_fract_x
_atom_site_fract_y
_atom_site_fract_z
Si Si1 0.938129 0.969567 0.411045
Si Si2 0.116653 0.123862 0.210063
Si Si3 0.750000 0.158960 0.000000
Si Si4 0.152236 0.199542 0.860384
O O1 0.819347 0.916663 0.433509
O O2 0.010566 0.888405 0.351192
O O3 0.920430 0.087985 0.363132
O O4 0.000000 0.000000 0.500000
O O5 0.222678 0.158640 0.154449
O O6 0.117068 0.215460 0.285832
O O7 0.135879 0.000000 0.250000
O O8 0.840286 0.233679 0.950153
#
# Coordination Sequence:
#
# PCOD9533547 Si02
#       4
#    16  16   8  16
#     4  12  26  46  73 108 149 199 257 311 380 467
#     4  11  26  47  75 109 147 194 249 314 389 466
#     4  12  26  48  74 106 152 202 260 326 388 466
#     4  11  26  48  73 108 152 193 246 321 387 455
#
# _framework density 25.149984
#
# number of rings (size 3 to 8) (size 9 to 14) (size 15 to 20)
#    0.000    0.571    0.000    7.714    0.000   16.000 
#    0.000    0.000    0.000    0.000    0.000    0.000 
#    0.000    0.000    0.000    0.000    0.000    0.000 
#
# Total GULP energy -157283.067993 kJ/mol
# GULP energy per Si atom -5617.252428 kJ/mol
# Density = 2.509274 g / cm^3
# Si number density = 25.149984 Si / 1000 Ang^3
#
#
#
# Elastic Constant Matrix: (Units=GPa)
#
#
# Indices 1 2 3 4 5 6 
#
# 1 119.1273 66.0132 35.4702 0.0000 0.0000 0.0000
# 2 66.0132 171.9342 67.4031 0.0000 0.0000 0.0000
# 3 35.4702 67.4031 115.0631 0.0000 0.0000 0.0000
# 4 0.0000 0.0000 0.0000 55.8084 0.0000 0.0000
# 5 0.0000 0.0000 0.0000 0.0000 51.3895 0.0000
# 6 0.0000 0.0000 0.0000 0.0000 0.0000 55.2987
#
#
#
# Elastic Compliance Matrix: (Units=1/GPa)
#
#
# Indices 1 2 3 4 5 6 
#
# 1 0.010782 -0.003682 -0.001167 0.000000 0.000000 0.000000
# 2 -0.003682 0.008808 -0.004024 0.000000 0.000000 0.000000
# 3 -0.001167 -0.004024 0.011408 0.000000 0.000000 0.000000
# 4 0.000000 0.000000 0.000000 0.017918 0.000000 0.000000
# 5 0.000000 0.000000 0.000000 0.000000 0.019459 0.000000
# 6 0.000000 0.000000 0.000000 0.000000 0.000000 0.018084
#
#
# Mechanical properties :
#
#
# Convention : Reuss Voigt Hill
#
# Bulk Modulus (GPa) = 75.46550 82.65530 79.06040
# Shear Modulus (GPa) = 46.03072 48.31521 47.17297
#
# Velocity S-wave (km/s) = 4.28278 4.38777 4.33559
# Velocity P-wave (km/s) = 7.38428 7.65548 7.52110
#
# Compressibility (1/GPa) = 0.01325109
#
# Stress axis : x y z
#
# Youngs Moduli (GPa) = 92.74411 113.53745 87.65831
#
# Poissons Ratio (x) = 0.41810 0.10227
# Poissons Ratio (y) = 0.34153 0.35276
# Poissons Ratio (z) = 0.10820 0.45691
#
# Static dielectric constant tensor:
#      x y z
#    x 1.997120 0.000000 0.000000 
#    y 0.000000 1.945120 0.000000 
#    z 0.000000 0.000000 1.941660 
# 
# From -- ./inp_files/16534.got.cif
#   From: 2010.05.17/outbox.cif.g08.bks.cpg/sg73_9_cif.got.tgz:16534.got - 2010.06.03 17:35:07.
