data_PCOD9533363
_publ_section_title
;
Structure prediction by ZEFSAII (Michael W. Deem and Ramdas Pophale) SiO2 
 PCOD9533363
Probable space group: I B C A 
;
_chemical_formula_sum "Si O2"
_cell_formula_units_Z 120
_cell_length_a 24.523407
_cell_length_b 25.148592
_cell_length_c 8.870881
_cell_angle_alpha 90.000000
_cell_angle_beta 90.000000
_cell_angle_gamma 90.000000
_cell_volume 5470.930962
_symmetry_space_group_name_H-M "I B C A "
_symmetry_group_IT_number 73
_symmetry_cell_setting 'orthorhombic'
loop_
_space_group_symop_operation_xyz
x,y,z
-x,1/2-y,z
x,-y,1/2-z
1/2-x,y,-z
-x,-y,-z
x,1/2+y,-z
-x,y,1/2+z
1/2+x,-y,z
1/2+x,1/2+y,1/2+z
1/2-x,-y,1/2+z
1/2+x,1/2-y,-z
-x,1/2+y,1/2-z
1/2-x,1/2-y,1/2-z
1/2+x,y,1/2-z
1/2-x,1/2+y,z
x,1/2-y,1/2+z
loop_
_atom_site_type_symbol
_atom_site_label
_atom_site_fract_x
_atom_site_fract_y
_atom_site_fract_z
Si Si1 0.808514 0.365178 0.423535
Si Si2 0.968328 0.085929 0.033461
Si Si3 0.617427 0.560441 0.788655
Si Si4 0.914154 0.000000 0.250000
Si Si5 0.095108 0.090804 0.970202
Si Si6 0.714697 0.291489 0.858590
Si Si7 0.907604 0.690398 0.899570
Si Si8 0.389862 0.715501 0.932918
O O1 0.750000 0.363718 0.500000
O O2 0.831146 0.424129 0.390773
O O3 0.804623 0.333050 0.267019
O O4 0.854794 0.338132 0.526635
O O5 0.951365 0.142039 0.111500
O O6 0.948287 0.036566 0.134619
O O7 0.934706 0.083404 0.876964
O O8 0.031508 0.079515 0.000331
O O9 0.607911 0.500000 0.750000
O O10 0.626146 0.584940 0.625973
O O11 0.885073 0.953440 0.150766
O O12 0.097580 0.153244 0.940862
O O13 0.750000 0.250000 0.750000
O O14 0.836186 0.273635 0.034945
O O15 0.750000 0.313667 0.000000
O O16 0.889070 0.719117 0.746347
O O17 0.928711 0.737749 0.006852
#
# Coordination Sequence:
#
# PCOD9533363 Si02
#       8
#    16  16  16   8  16  16  16  16
#     4  11  23  44  68  99 132 177 227 284 344 408
#     4  11  25  41  68 102 136 181 230 293 341 416
#     4  11  24  43  69  96 135 178 228 283 347 415
#     4  12  22  44  68 100 132 178 236 290 340 404
#     4  12  25  42  68 103 138 179 234 287 358 409
#     4  12  23  39  66  99 128 170 227 278 339 403
#     4  11  25  43  66  99 141 182 230 279 353 426
#     4  12  24  43  64  98 139 180 224 288 353 430
#
# _framework density 21.93411
#
# number of rings (size 3 to 8) (size 9 to 14) (size 15 to 20)
#    0.000    0.533    4.000    5.600    3.733    0.533 
#    0.000    2.000    5.867    0.000    0.000    0.000 
#    0.000    0.000    0.000    0.000    0.000    0.000 
#
# Total GULP energy -334500.142182 kJ/mol
# GULP energy per Si atom -5575.002370 kJ/mol
# Density = 2.188419 g / cm^3
# Si number density = 21.934110 Si / 1000 Ang^3
#
#
#
# Elastic Constant Matrix: (Units=GPa)
#
#
# Indices 1 2 3 4 5 6 
#
# 1 31.6200 6.5963 10.1317 0.0000 0.0000 0.0000
# 2 6.5963 112.3568 26.2046 0.0000 0.0000 0.0000
# 3 10.1317 26.2046 118.7215 0.0000 0.0000 0.0000
# 4 0.0000 0.0000 0.0000 263.5370 0.0000 0.0000
# 5 0.0000 0.0000 0.0000 0.0000 61.6882 0.0000
# 6 0.0000 0.0000 0.0000 0.0000 0.0000 469.0288
#
#
#
# Elastic Compliance Matrix: (Units=1/GPa)
#
#
# Indices 1 2 3 4 5 6 
#
# 1 0.032704 -0.001338 -0.002496 0.000000 0.000000 0.000000
# 2 -0.001338 0.009438 -0.001969 0.000000 0.000000 0.000000
# 3 -0.002496 -0.001969 0.009071 0.000000 0.000000 0.000000
# 4 0.000000 0.000000 0.000000 0.003795 0.000000 0.000000
# 5 0.000000 0.000000 0.000000 0.000000 0.016211 0.000000
# 6 0.000000 0.000000 0.000000 0.000000 0.000000 0.002132
#
#
# Mechanical properties :
#
#
# Convention : Reuss Voigt Hill
#
# Bulk Modulus (GPa) = 25.24759 38.72927 31.98843
# Shear Modulus (GPa) = 50.93828 173.50184 112.22006
#
# Velocity S-wave (km/s) = 4.82429 8.90354 7.16055
# Velocity P-wave (km/s) = 6.52436 11.10824 9.10934
#
# Compressibility (1/GPa) = 0.03960774
#
# Stress axis : x y z
#
# Youngs Moduli (GPa) = 30.57697 105.95473 110.24557
#
# Poissons Ratio (x) = 0.14176 0.27514
# Poissons Ratio (y) = 0.04091 0.21707
# Poissons Ratio (z) = 0.07631 0.20863
#
# Static dielectric constant tensor:
#      x y z
#    x 1.830410 0.000000 0.000000 
#    y 0.000000 2.174600 0.000000 
#    z 0.000000 0.000000 2.642150 
# 
# From -- ./inp_files/8068.got.cif
#   From: 2010.05.17/outbox.cif.g08.bks.cpg/sg73_5_cif.got.tgz:8068.got - 2010.06.03 17:35:07.
