data_PCOD9533729
_publ_section_title
;
Structure prediction by ZEFSAII (Michael W. Deem and Ramdas Pophale) SiO2 
 PCOD9533729
Probable space group: I B C A 
;
_chemical_formula_sum "Si O2"
_cell_formula_units_Z 52
_cell_length_a 21.000000
_cell_length_b 30.000000
_cell_length_c 9.000000
_cell_angle_alpha 90.000000
_cell_angle_beta 90.000000
_cell_angle_gamma 90.000000
_cell_volume 5670.000000
_symmetry_space_group_name_H-M "I B C A "
_symmetry_group_IT_number 73
_symmetry_cell_setting 'orthorhombic'
loop_
_space_group_symop_operation_xyz
x,y,z
-x,1/2-y,z
x,-y,1/2-z
1/2-x,y,-z
-x,-y,-z
x,1/2+y,-z
-x,y,1/2+z
1/2+x,-y,z
1/2+x,1/2+y,1/2+z
1/2-x,-y,1/2+z
1/2+x,1/2-y,-z
-x,1/2+y,1/2-z
1/2-x,1/2-y,1/2-z
1/2+x,y,1/2-z
1/2-x,1/2+y,z
x,1/2-y,1/2+z
loop_
_atom_site_type_symbol
_atom_site_label
_atom_site_fract_x
_atom_site_fract_y
_atom_site_fract_z
Si Si1 0.154283 0.189877 0.312758
Si Si2 0.173574 0.217859 0.975141
Si Si3 0.382183 0.892780 0.983626
Si Si4 0.792728 0.853058 0.258929
Si Si5 0.367804 0.050449 0.800692
Si Si6 0.250000 0.419600 0.500000
Si Si7 0.985713 0.036401 0.124315
O O1 0.151577 0.234375 0.413031
O O2 0.106934 0.153373 0.387968
O O3 0.227269 0.170289 0.316520
O O4 0.145512 0.201780 0.135633
O O5 0.167206 0.182923 0.838565
O O6 0.250000 0.220755 0.000000
O O7 0.352821 0.921900 0.849078
O O8 0.333753 0.876208 0.111798
O O9 0.436963 0.924720 0.062814
O O10 0.772845 0.889346 0.136678
O O11 0.314644 0.057794 0.930358
O O12 0.443941 0.057534 0.837395
O O13 0.363931 0.000000 0.750000
O O14 0.961991 0.000000 0.250000
O O15 0.000000 0.000000 0.000000
#
# Coordination Sequence:
#
# PCOD9533729 Si02
#       7
#    16  16  16  16  16   8  16
#     4  11  20  36  58  97 141 174 221 273 324 399
#     4  10  18  34  58  92 144 181 217 264 328 402
#     4  12  23  38  68  94 129 172 224 277 325 388
#     4  11  21  35  58  97 138 174 213 269 332 392
#     4  11  25  45  63  91 131 170 224 283 337 399
#     4  12  24  40  62  96 136 170 212 278 340 396
#     4  11  24  48  70  91 123 173 236 276 321 395
#
# _framework density 9.1710759999999993
#
# number of rings (size 3 to 8) (size 9 to 14) (size 15 to 20)
#    0.000    0.923    6.923    4.154    2.154    1.231 
#    0.000    0.000    0.000    0.000    0.000   22.615 
#    0.000    0.000    0.000    0.000    0.000    0.000 
#
# Total GULP energy -289470.324976 kJ/mol
# GULP energy per Si atom -5566.737019 kJ/mol
# Density = 0.915020 g / cm^3
# Si number density = 9.171076 Si / 1000 Ang^3
#
#
#
# Elastic Constant Matrix: (Units=GPa)
#
#
# Indices 1 2 3 4 5 6 
#
# 1 74.3236 43.7282 37.0721 0.0000 0.0000 0.0000
# 2 43.7282 124.5374 57.6382 0.0000 0.0000 0.0000
# 3 37.0721 57.6382 137.5751 0.0000 0.0000 0.0000
# 4 0.0000 0.0000 0.0000 56.8293 0.0000 0.0000
# 5 0.0000 0.0000 0.0000 0.0000 27.5957 0.0000
# 6 0.0000 0.0000 0.0000 0.0000 0.0000 28.6248
#
#
#
# Elastic Compliance Matrix: (Units=1/GPa)
#
#
# Indices 1 2 3 4 5 6 
#
# 1 0.017726 -0.004979 -0.002691 0.000000 0.000000 0.000000
# 2 -0.004979 0.011360 -0.003418 0.000000 0.000000 0.000000
# 3 -0.002691 -0.003418 0.009426 0.000000 0.000000 0.000000
# 4 0.000000 0.000000 0.000000 0.017597 0.000000 0.000000
# 5 0.000000 0.000000 0.000000 0.000000 0.036238 0.000000
# 6 0.000000 0.000000 0.000000 0.000000 0.000000 0.034935
#
#
# Mechanical properties :
#
#
# Convention : Reuss Voigt Hill
#
# Bulk Modulus (GPa) = 61.21003 68.14590 64.67796
# Shear Modulus (GPa) = 32.27890 35.80979 34.04435
#
# Velocity S-wave (km/s) = 4.19957 4.42330 4.31289
# Velocity P-wave (km/s) = 7.54711 7.95743 7.75499
#
# Compressibility (1/GPa) = 0.01633719
#
# Stress axis : x y z
#
# Youngs Moduli (GPa) = 56.41418 88.03128 106.09363
#
# Poissons Ratio (x) = 0.43829 0.28547
# Poissons Ratio (y) = 0.28087 0.36258
# Poissons Ratio (z) = 0.15179 0.30085
#
# Static dielectric constant tensor:
#      x y z
#    x 1.678810 0.000000 0.000000 
#    y 0.000000 1.709650 0.000000 
#    z 0.000000 0.000000 1.793420 
# 
# From -- ./inp_files/6696.got.cif
#   From: 2010.05.17/outbox.ucp.g08.bks.cvg/sg73_4_cif.got.tgz:6696.got - 2010.06.11 16:36:03.
