data_PCOD9533941
_publ_section_title
;
Structure prediction by ZEFSAII (Michael W. Deem and Ramdas Pophale) SiO2 
 PCOD9533941
Probable space group: I M M A
;
_chemical_formula_sum "Si O2"
_cell_formula_units_Z 96
_cell_length_a 8.783872
_cell_length_b 29.048667
_cell_length_c 29.812199
_cell_angle_alpha 90.000000
_cell_angle_beta 90.000000
_cell_angle_gamma 90.000000
_cell_volume 7606.873920
_symmetry_space_group_name_H-M "I M M A"
_symmetry_group_IT_number 74
_symmetry_cell_setting 'orthorhombic'
loop_
_space_group_symop_operation_xyz
x,y,z
-x,1/2-y,z
x,-y,-z
-x,1/2+y,-z
-x,-y,-z
x,1/2+y,-z
-x,y,z
x,1/2-y,z
1/2+x,1/2+y,1/2+z
1/2-x,-y,1/2+z
1/2+x,1/2-y,1/2-z
1/2-x,y,1/2-z
1/2-x,1/2-y,1/2-z
1/2+x,y,1/2-z
1/2-x,1/2+y,1/2+z
1/2+x,-y,1/2+z
loop_
_atom_site_type_symbol
_atom_site_label
_atom_site_fract_x
_atom_site_fract_y
_atom_site_fract_z
Si Si1 0.317748 0.403929 0.121749
Si Si2 0.316238 0.250000 0.343410
Si Si3 0.816507 0.250000 0.443421
Si Si4 0.182523 0.488960 0.433782
Si Si5 0.681982 0.846339 0.701081
Si Si6 0.681381 0.567724 0.481792
Si Si7 0.817008 0.350606 0.470788
O O1 0.500000 0.400317 0.127478
O O2 0.281446 0.456833 0.108854
O O3 0.236167 0.383725 0.164905
O O4 0.278119 0.372990 0.077877
O O5 0.500000 0.250000 0.345785
O O6 0.251795 0.250000 0.393590
O O7 0.267584 0.296194 0.317552
O O8 0.773704 0.297150 0.468348
O O9 0.000000 0.250000 0.438932
O O10 0.248496 0.459521 0.475477
O O11 0.253665 0.539475 0.439361
O O12 0.000000 0.491507 0.438168
O O13 0.500000 0.846252 0.703672
O O14 0.750000 0.854410 0.750000
O O15 0.500000 0.564827 0.482575
O O16 0.737594 0.619456 0.490632
O O17 0.000000 0.354872 0.475711
#
# Coordination Sequence:
#
# PCOD9533941 Si02
#       7
#    16   8   8  16  16  16  16
#     4   9  17  29  44  58  72  91 117 150 190 230
#     4  10  21  33  43  58  72  90 120 160 204 237
#     4  10  18  29  45  58  71  98 130 158 189 233
#     4   9  16  27  41  55  74  95 116 143 177 221
#     4  11  22  33  44  56  73  94 121 157 197 239
#     4  10  17  24  37  57  77  96 117 144 178 217
#     4   9  17  28  41  56  74  97 123 151 186 225
#
# _framework density 12.620165
#
# number of rings (size 3 to 8) (size 9 to 14) (size 15 to 20)
#    0.000    2.333    1.667    4.750    0.000    4.667 
#    0.000    0.000    0.000    0.000    0.000    0.000 
#    0.000    0.000    0.000    0.000    0.000    0.000 
#
# Total GULP energy -267402.032245 kJ/mol
# GULP energy per Si atom -5570.875672 kJ/mol
# Density = 1.259144 g / cm^3
# Si number density = 12.620165 Si / 1000 Ang^3
#
#
#
# Elastic Constant Matrix: (Units=GPa)
#
#
# Indices 1 2 3 4 5 6 
#
# 1 40.2661 39.2329 27.7825 0.0000 0.0000 0.0000
# 2 39.2329 102.7438 55.7179 0.0000 0.0000 0.0000
# 3 27.7825 55.7179 50.2038 0.0000 0.0000 0.0000
# 4 0.0000 0.0000 0.0000 10.1081 0.0000 0.0000
# 5 0.0000 0.0000 0.0000 0.0000 14.6259 0.0000
# 6 0.0000 0.0000 0.0000 0.0000 0.0000 17.2266
#
#
#
# Elastic Compliance Matrix: (Units=1/GPa)
#
#
# Indices 1 2 3 4 5 6 
#
# 1 0.043165 -0.008863 -0.014051 0.000000 0.000000 0.000000
# 2 -0.008863 0.026266 -0.024246 0.000000 0.000000 0.000000
# 3 -0.014051 -0.024246 0.054604 0.000000 0.000000 0.000000
# 4 0.000000 0.000000 0.000000 0.098930 0.000000 0.000000
# 5 0.000000 0.000000 0.000000 0.000000 0.068372 0.000000
# 6 0.000000 0.000000 0.000000 0.000000 0.000000 0.058050
#
#
# Mechanical properties :
#
#
# Convention : Reuss Voigt Hill
#
# Bulk Modulus (GPa) = 33.65337 48.74227 41.19782
# Shear Modulus (GPa) = 11.02262 13.09079 12.05671
#
# Velocity S-wave (km/s) = 2.95856 3.22420 3.09423
# Velocity P-wave (km/s) = 6.19637 7.25031 6.74396
#
# Compressibility (1/GPa) = 0.02971471
#
# Stress axis : x y z
#
# Youngs Moduli (GPa) = 23.16688 38.07210 18.31368
#
# Poissons Ratio (x) = 0.33742 0.25733
# Poissons Ratio (y) = 0.20532 0.44404
# Poissons Ratio (z) = 0.32552 0.92311
#
# Static dielectric constant tensor:
#      x y z
#    x 1.419480 0.000000 0.000000 
#    y 0.000000 1.449990 0.000000 
#    z 0.000000 0.000000 1.382840 
# 
# From -- ./inp_files/71086.got.cif
#   From: 2010.05.17/outbox.cif.g08.bks.cpg/sg74_36_cif.got.tgz:71086.got - 2010.06.03 17:57:02.
