data_PCOD9533623
_publ_section_title
;
Structure prediction by ZEFSAII (Michael W. Deem and Ramdas Pophale) SiO2 
 PCOD9533623
Probable space group: I B C A 
;
_chemical_formula_sum "Si O2"
_cell_formula_units_Z 120
_cell_length_a 12.669368
_cell_length_b 30.586535
_cell_length_c 14.041934
_cell_angle_alpha 90.000000
_cell_angle_beta 90.000000
_cell_angle_gamma 90.000000
_cell_volume 5441.418880
_symmetry_space_group_name_H-M "I B C A "
_symmetry_group_IT_number 73
_symmetry_cell_setting 'orthorhombic'
loop_
_space_group_symop_operation_xyz
x,y,z
-x,1/2-y,z
x,-y,1/2-z
1/2-x,y,-z
-x,-y,-z
x,1/2+y,-z
-x,y,1/2+z
1/2+x,-y,z
1/2+x,1/2+y,1/2+z
1/2-x,-y,1/2+z
1/2+x,1/2-y,-z
-x,1/2+y,1/2-z
1/2-x,1/2-y,1/2-z
1/2+x,y,1/2-z
1/2-x,1/2+y,z
x,1/2-y,1/2+z
loop_
_atom_site_type_symbol
_atom_site_label
_atom_site_fract_x
_atom_site_fract_y
_atom_site_fract_z
Si Si1 0.510075 0.301886 0.856753
Si Si2 0.008534 0.563419 0.929239
Si Si3 0.059351 0.352206 0.963285
Si Si4 0.730222 0.587804 0.615261
Si Si5 0.228953 0.774362 0.347420
Si Si6 0.112585 0.157381 0.812881
Si Si7 0.750000 0.703251 0.000000
Si Si8 0.156604 0.504216 0.068185
O O1 0.500000 0.250000 0.839712
O O2 0.633597 0.308195 0.835255
O O3 0.428122 0.327375 0.789739
O O4 0.493542 0.317970 0.963401
O O5 0.919615 0.531732 0.885453
O O6 0.104045 0.585189 0.869165
O O7 0.945607 0.601574 0.983290
O O8 0.077800 0.534022 0.003043
O O9 0.989808 0.357053 0.870302
O O10 0.170613 0.329103 0.946265
O O11 0.750000 0.598634 0.500000
O O12 0.798976 0.620278 0.678771
O O13 0.780420 0.539632 0.630169
O O14 0.250000 0.750000 0.250000
O O15 0.334843 0.801317 0.367447
O O16 0.202726 0.737411 0.424493
O O17 0.250000 0.485079 0.000000
#
# Coordination Sequence:
#
# PCOD9533623 Si02
#       8
#    16  16  16  16  16  16   8  16
#     4  12  25  42  58  88 124 159 215 268 322 386
#     4   9  17  32  58  90 126 159 199 260 309 379
#     4  12  24  40  60  91 124 161 218 266 326 389
#     4   9  17  35  56  97 121 153 218 249 303 389
#     4  12  24  41  59  84 118 162 213 255 317 382
#     4  12  24  40  68  86 123 175 207 268 329 374
#     4  12  26  36  58  86 122 160 210 276 314 378
#     4   8  15  30  56  93 130 152 200 253 314 384
#
# _framework density 22.053072
#
# number of rings (size 3 to 8) (size 9 to 14) (size 15 to 20)
#    0.000    1.600    5.333    2.400    1.867    0.000 
#    0.000    0.000    0.000    0.800    0.000    1.867 
#    0.000    0.000    0.000    0.000    0.000    0.000 
#
# Total GULP energy -334614.092880 kJ/mol
# GULP energy per Si atom -5576.901548 kJ/mol
# Density = 2.200288 g / cm^3
# Si number density = 22.053072 Si / 1000 Ang^3
#
#
#
# Elastic Constant Matrix: (Units=GPa)
#
#
# Indices 1 2 3 4 5 6 
#
# 1 101.1999 47.5992 7.3535 -0.0001 0.0000 0.0000
# 2 47.5992 76.8226 12.4441 -0.0001 -0.0001 0.0000
# 3 7.3535 12.4441 36.3768 -0.0004 0.0004 -0.0003
# 4 -0.0001 -0.0001 -0.0004 9.8881 0.0001 0.0000
# 5 0.0000 -0.0001 0.0004 0.0001 21.1532 0.0000
# 6 0.0000 0.0000 -0.0003 0.0000 0.0000 54.3764
#
#
#
# Elastic Compliance Matrix: (Units=1/GPa)
#
#
# Indices 1 2 3 4 5 6 
#
# 1 0.013946 -0.008665 0.000145 0.000000 0.000000 0.000000
# 2 -0.008665 0.019164 -0.004804 0.000000 0.000000 0.000000
# 3 0.000145 -0.004804 0.029104 0.000001 -0.000001 0.000000
# 4 0.000000 0.000000 0.000001 0.101132 -0.000001 0.000000
# 5 0.000000 0.000000 -0.000001 -0.000001 0.047274 0.000000
# 6 0.000000 0.000000 0.000000 0.000000 0.000000 0.018390
#
#
# Mechanical properties :
#
#
# Convention : Reuss Voigt Hill
#
# Bulk Modulus (GPa) = 28.11638 38.79921 33.45779
# Shear Modulus (GPa) = 18.69060 26.88369 22.78714
#
# Velocity S-wave (km/s) = 2.91439 3.49527 3.21796
# Velocity P-wave (km/s) = 4.90938 5.82417 5.38623
#
# Compressibility (1/GPa) = 0.03556646
#
# Stress axis : x y z
#
# Youngs Moduli (GPa) = 71.70381 52.18192 34.35926
#
# Poissons Ratio (x) = 0.45213 -0.00498
# Poissons Ratio (y) = 0.62128 0.16507
# Poissons Ratio (z) = -0.01038 0.25069
#
# Static dielectric constant tensor:
#      x y z
#    x 1.883900 0.000000 0.000000 
#    y 0.000000 1.848410 0.000000 
#    z 0.000000 0.000000 1.799090 
# 
# From -- ./inp_files/21580.got.cif
#   From: 2010.05.17/outbox.cif.g08.bks.cpg/sg73_11_cif.got.tgz:21580.got - 2010.06.03 17:35:07.
