data_PCOD9533961
_publ_section_title
;
Structure prediction by ZEFSAII (Michael W. Deem and Ramdas Pophale) SiO2 
 PCOD9533961
Probable space group: I M M A
;
_chemical_formula_sum "Si O2"
_cell_formula_units_Z 96
_cell_length_a 25.411146
_cell_length_b 17.341485
_cell_length_c 10.504387
_cell_angle_alpha 90.000000
_cell_angle_beta 90.000000
_cell_angle_gamma 90.000000
_cell_volume 4628.936782
_symmetry_space_group_name_H-M "I M M A"
_symmetry_group_IT_number 74
_symmetry_cell_setting 'orthorhombic'
loop_
_space_group_symop_operation_xyz
x,y,z
-x,1/2-y,z
x,-y,-z
-x,1/2+y,-z
-x,-y,-z
x,1/2+y,-z
-x,y,z
x,1/2-y,z
1/2+x,1/2+y,1/2+z
1/2-x,-y,1/2+z
1/2+x,1/2-y,1/2-z
1/2-x,y,1/2-z
1/2-x,1/2-y,1/2-z
1/2+x,y,1/2-z
1/2-x,1/2+y,1/2+z
1/2+x,-y,1/2+z
loop_
_atom_site_type_symbol
_atom_site_label
_atom_site_fract_x
_atom_site_fract_y
_atom_site_fract_z
Si Si1 0.227576 0.656104 0.561845
Si Si2 0.669123 0.342851 0.321851
Si Si3 0.371763 0.658393 0.062835
Si Si4 0.439608 0.657923 0.548185
Si Si5 0.940996 0.062542 0.384357
Si Si6 0.061351 0.079794 0.777732
O O1 0.228448 0.750000 0.560454
O O2 0.288140 0.631246 0.571484
O O3 0.196267 0.631379 0.690071
O O4 0.188880 0.631446 0.448855
O O5 0.671375 0.250000 0.315322
O O6 0.608976 0.358633 0.357977
O O7 0.373373 0.750000 0.061151
O O8 0.400715 0.628299 0.187342
O O9 0.402492 0.627076 0.938370
O O10 0.500000 0.645454 0.593765
O O11 0.436251 0.750000 0.515210
O O12 0.432316 0.605520 0.422865
O O13 0.000000 0.093896 0.374399
O O14 0.940549 0.000000 0.500000
O O15 0.929587 0.008874 0.262359
O O16 0.000000 0.095612 0.744211
#
# Coordination Sequence:
#
# PCOD9533961 Si02
#       6
#    16  16  16  16  16  16
#     4   8  15  27  44  66  90 119 153 189 236 289
#     4   8  14  28  46  64  90 123 158 192 231 285
#     4  10  17  25  42  70  93 113 154 205 244 283
#     4   9  16  26  44  69  94 125 166 206 237 271
#     4   8  15  27  41  59  86 125 161 185 229 293
#     4   9  17  29  43  62  92 130 163 191 241 302
#
# _framework density 20.739104000000001
#
# number of rings (size 3 to 8) (size 9 to 14) (size 15 to 20)
#    0.000    3.333    0.000    3.000    0.000    2.000 
#    0.000    2.500    0.000   11.000   26.000    3.500 
#    0.000    0.000    0.000    0.000    0.000    0.000 
#
# Total GULP energy -267317.475625 kJ/mol
# GULP energy per Si atom -5569.114076 kJ/mol
# Density = 2.069190 g / cm^3
# Si number density = 20.739104 Si / 1000 Ang^3
#
#
#
# Elastic Constant Matrix: (Units=GPa)
#
#
# Indices 1 2 3 4 5 6 
#
# 1 123.0066 26.7278 28.2579 0.0000 0.0000 0.0000
# 2 26.7278 19.4234 3.4643 0.0000 0.0000 0.0000
# 3 28.2579 3.4643 46.1720 0.0000 0.0000 0.0000
# 4 0.0000 0.0000 0.0000 24.9779 0.0000 0.0000
# 5 0.0000 0.0000 0.0000 0.0000 32.7075 0.0000
# 6 0.0000 0.0000 0.0000 0.0000 0.0000 3.9433
#
#
#
# Elastic Compliance Matrix: (Units=1/GPa)
#
#
# Indices 1 2 3 4 5 6 
#
# 1 0.013493 -0.017326 -0.006958 0.000000 0.000000 0.000000
# 2 -0.017326 0.074430 0.005019 0.000000 0.000000 0.000000
# 3 -0.006958 0.005019 0.025540 0.000000 0.000000 0.000000
# 4 0.000000 0.000000 0.000000 0.040035 0.000000 0.000000
# 5 0.000000 0.000000 0.000000 0.000000 0.030574 0.000000
# 6 0.000000 0.000000 0.000000 0.000000 0.000000 0.253596
#
#
# Mechanical properties :
#
#
# Convention : Reuss Voigt Hill
#
# Bulk Modulus (GPa) = 13.34507 33.94468 23.64487
# Shear Modulus (GPa) = 9.97656 21.00254 15.48955
#
# Velocity S-wave (km/s) = 2.19567 3.18575 2.73587
# Velocity P-wave (km/s) = 3.58840 5.47129 4.62664
#
# Compressibility (1/GPa) = 0.07493407
#
# Stress axis : x y z
#
# Youngs Moduli (GPa) = 74.11396 13.43537 39.15456
#
# Poissons Ratio (x) = 0.23278 0.27243
# Poissons Ratio (y) = 1.28409 -0.19653
# Poissons Ratio (z) = 0.51567 -0.06744
#
# Static dielectric constant tensor:
#      x y z
#    x 1.784460 0.000000 0.000000 
#    y 0.000000 1.720360 0.000000 
#    z 0.000000 0.000000 1.813830 
# 
# From -- ./inp_files/26255.got.cif
#   From: 2010.05.17/outbox.cif.g08.bks.cpg/sg74_14_cif.got.tgz:26255.got - 2010.06.03 17:57:02.
