data_PCOD9533443
_publ_section_title
;
Structure prediction by ZEFSAII (Michael W. Deem and Ramdas Pophale) SiO2 
 PCOD9533443
Probable space group: I B C A 
;
_chemical_formula_sum "Si O2"
_cell_formula_units_Z 80
_cell_length_a 9.533157
_cell_length_b 24.442177
_cell_length_c 17.069620
_cell_angle_alpha 90.000000
_cell_angle_beta 90.000000
_cell_angle_gamma 90.000000
_cell_volume 3977.411116
_symmetry_space_group_name_H-M "I B C A "
_symmetry_group_IT_number 73
_symmetry_cell_setting 'orthorhombic'
loop_
_space_group_symop_operation_xyz
x,y,z
-x,1/2-y,z
x,-y,1/2-z
1/2-x,y,-z
-x,-y,-z
x,1/2+y,-z
-x,y,1/2+z
1/2+x,-y,z
1/2+x,1/2+y,1/2+z
1/2-x,-y,1/2+z
1/2+x,1/2-y,-z
-x,1/2+y,1/2-z
1/2-x,1/2-y,1/2-z
1/2+x,y,1/2-z
1/2-x,1/2+y,z
x,1/2-y,1/2+z
loop_
_atom_site_type_symbol
_atom_site_label
_atom_site_fract_x
_atom_site_fract_y
_atom_site_fract_z
Si Si1 0.624920 0.017373 0.056734
Si Si2 0.226391 0.448696 0.698941
Si Si3 0.045982 0.385720 0.219500
Si Si4 0.124216 0.712862 0.713815
Si Si5 0.230345 0.374575 0.909006
O O1 0.614685 0.076426 0.098818
O O2 0.689113 0.971243 0.113238
O O3 0.750000 0.031998 0.000000
O O4 0.500000 0.000000 0.000000
O O5 0.279153 0.500000 0.750000
O O6 0.334572 0.399366 0.715650
O O7 0.074895 0.430160 0.728220
O O8 0.126151 0.392442 0.136112
O O9 0.962222 0.328436 0.228061
O O10 0.250000 0.750000 0.750000
O O11 0.184056 0.675701 0.644741
O O12 0.000000 0.750000 0.681494
O O13 0.250000 0.358954 0.000000
#
# Coordination Sequence:
#
# PCOD9533443 Si02
#       5
#    16  16  16  16  16
#     4  11  25  42  64  99 147 184 218 274 343 418
#     4  12  23  37  67  97 136 181 228 271 337 417
#     4  12  23  42  69  99 134 180 232 291 340 429
#     4  12  24  47  74  96 130 175 236 301 355 414
#     4  11  24  45  69 100 139 175 228 289 354 420
#
# _framework density 20.113585
#
# number of rings (size 3 to 8) (size 9 to 14) (size 15 to 20)
#    0.000    0.400    6.000    3.000    5.600    0.000 
#    3.600    0.000    0.000    0.000    0.000    0.000 
#    0.000    0.000    0.000    0.000    0.000    0.000 
#
# Total GULP energy -222876.634110 kJ/mol
# GULP energy per Si atom -5571.915853 kJ/mol
# Density = 2.006781 g / cm^3
# Si number density = 20.113585 Si / 1000 Ang^3
#
#
#
# Elastic Constant Matrix: (Units=GPa)
#
#
# Indices 1 2 3 4 5 6 
#
# 1 122.8005 53.8042 33.9126 0.0000 0.0000 0.0000
# 2 53.8042 99.8146 42.0920 0.0000 0.0000 0.0000
# 3 33.9126 42.0920 124.2840 0.0000 0.0000 0.0000
# 4 0.0000 0.0000 0.0000 34.6953 0.0000 0.0000
# 5 0.0000 0.0000 0.0000 0.0000 37.3776 0.0000
# 6 0.0000 0.0000 0.0000 0.0000 0.0000 46.7167
#
#
#
# Elastic Compliance Matrix: (Units=1/GPa)
#
#
# Indices 1 2 3 4 5 6 
#
# 1 0.010797 -0.005341 -0.001137 0.000000 0.000000 0.000000
# 2 -0.005341 0.014329 -0.003396 0.000000 0.000000 0.000000
# 3 -0.001137 -0.003396 0.009507 0.000000 0.000000 0.000000
# 4 0.000000 0.000000 0.000000 0.028822 0.000000 0.000000
# 5 0.000000 0.000000 0.000000 0.000000 0.026754 0.000000
# 6 0.000000 0.000000 0.000000 0.000000 0.000000 0.021406
#
#
# Mechanical properties :
#
#
# Convention : Reuss Voigt Hill
#
# Bulk Modulus (GPa) = 67.17889 67.39077 67.28483
# Shear Modulus (GPa) = 36.67715 38.23060 37.45387
#
# Velocity S-wave (km/s) = 4.27488 4.36447 4.31991
# Velocity P-wave (km/s) = 7.60516 7.67958 7.64246
#
# Compressibility (1/GPa) = 0.01488563
#
# Stress axis : x y z
#
# Youngs Moduli (GPa) = 92.61543 69.78685 105.19077
#
# Poissons Ratio (x) = 0.37270 0.11965
# Poissons Ratio (y) = 0.49462 0.35720
# Poissons Ratio (z) = 0.10535 0.23698
#
# Static dielectric constant tensor:
#      x y z
#    x 1.727920 0.000000 0.000000 
#    y 0.000000 1.953470 0.000000 
#    z 0.000000 0.000000 1.729120 
# 
# From -- ./inp_files/20726.got.cif
#   From: 2010.05.17/outbox.cif.g08.bks.cpg/sg73_11_cif.got.tgz:20726.got - 2010.06.03 17:35:07.
