data_PCOD9533151
_publ_section_title
;
Structure prediction by ZEFSAII (Michael W. Deem and Ramdas Pophale) SiO2 
 PCOD9533151
Probable space group: I B C A 
;
_chemical_formula_sum "Si O2"
_cell_formula_units_Z 112
_cell_length_a 14.878021
_cell_length_b 28.964581
_cell_length_c 11.802285
_cell_angle_alpha 90.000000
_cell_angle_beta 90.000000
_cell_angle_gamma 90.000000
_cell_volume 5086.025292
_symmetry_space_group_name_H-M "I B C A "
_symmetry_group_IT_number 73
_symmetry_cell_setting 'orthorhombic'
loop_
_space_group_symop_operation_xyz
x,y,z
-x,1/2-y,z
x,-y,1/2-z
1/2-x,y,-z
-x,-y,-z
x,1/2+y,-z
-x,y,1/2+z
1/2+x,-y,z
1/2+x,1/2+y,1/2+z
1/2-x,-y,1/2+z
1/2+x,1/2-y,-z
-x,1/2+y,1/2-z
1/2-x,1/2-y,1/2-z
1/2+x,y,1/2-z
1/2-x,1/2+y,z
x,1/2-y,1/2+z
loop_
_atom_site_type_symbol
_atom_site_label
_atom_site_fract_x
_atom_site_fract_y
_atom_site_fract_z
Si Si1 0.750000 0.752127 0.000000
Si Si2 0.506463 0.445097 0.283068
Si Si3 0.250000 0.904982 0.000000
Si Si4 0.674456 0.895153 0.820893
Si Si5 0.885926 0.675530 0.049818
Si Si6 0.818175 0.052484 0.779516
Si Si7 0.560201 0.874509 0.038062
Si Si8 0.307215 0.180906 0.798208
O O1 0.661912 0.719469 0.007016
O O2 0.763406 0.782116 0.885189
O O3 0.519205 0.500000 0.250000
O O4 0.596091 0.418867 0.249739
O O5 0.419636 0.429227 0.209333
O O6 0.479535 0.422290 0.405764
O O7 0.332454 0.869959 0.990557
O O8 0.260908 0.936713 0.890205
O O9 0.761276 0.927638 0.824175
O O10 0.719919 0.850066 0.766340
O O11 0.630445 0.886043 0.940231
O O12 0.860782 0.687643 0.180650
O O13 0.986403 0.660838 0.015316
O O14 0.829848 0.000000 0.750000
O O15 0.618717 0.846662 0.129169
#
# Coordination Sequence:
#
# PCOD9533151 Si02
#       8
#     8  16   8  16  16  16  16  16
#     4  11  26  50  75 110 144 184 239 316 378 443
#     4  11  26  44  67 107 150 193 260 308 355 443
#     4  11  20  42  65  98 140 190 243 292 368 427
#     4  12  23  43  72 100 143 198 237 303 368 433
#     4  11  26  45  75 105 141 193 241 302 379 455
#     4  11  24  41  67 104 144 195 252 307 358 439
#     4  12  24  44  76 106 147 200 238 301 377 439
#     4  12  24  50  73 108 145 186 249 298 375 450
#
# _framework density 22.021125999999999
#
# number of rings (size 3 to 8) (size 9 to 14) (size 15 to 20)
#    0.000    0.571    4.286    3.429    2.000    3.429 
#    0.000    1.429    0.000    0.000    0.000    0.000 
#    0.000    0.000    0.000    0.000    0.000    0.000 
#
# Total GULP energy -312036.368273 kJ/mol
# GULP energy per Si atom -5572.078005 kJ/mol
# Density = 2.197100 g / cm^3
# Si number density = 22.021126 Si / 1000 Ang^3
#
#
#
# Elastic Constant Matrix: (Units=GPa)
#
#
# Indices 1 2 3 4 5 6 
#
# 1 134.8471 45.7261 43.8155 -0.0002 0.0000 -0.0002
# 2 45.7261 89.2940 32.1703 -0.0001 0.0000 0.0001
# 3 43.8155 32.1703 79.5285 -0.0002 -0.0004 -0.0012
# 4 -0.0002 -0.0001 -0.0002 28.5354 -0.0001 -0.0003
# 5 0.0000 0.0000 -0.0004 -0.0001 37.4090 0.0000
# 6 -0.0002 0.0001 -0.0012 -0.0003 0.0000 -32.5050
#
#
#
# Elastic Compliance Matrix: (Units=1/GPa)
#
#
# Indices 1 2 3 4 5 6 
#
# 1 0.009957 -0.003655 -0.004007 0.000000 0.000000 0.000000
# 2 -0.003655 0.014451 -0.003832 0.000000 0.000000 0.000000
# 3 -0.004007 -0.003832 0.016332 0.000000 0.000000 -0.000001
# 4 0.000000 0.000000 0.000000 0.035044 0.000000 0.000000
# 5 0.000000 0.000000 0.000000 0.000000 0.026732 0.000000
# 6 0.000000 0.000000 -0.000001 0.000000 0.000000 -0.030764
#
#
# Mechanical properties :
#
#
# Convention : Reuss Voigt Hill
#
# Bulk Modulus (GPa) = 56.33279 60.78815 58.56047
# Shear Modulus (GPa) = 49.67313 18.81841 34.24577
#
# Velocity S-wave (km/s) = 4.75458 2.92646 3.94779
# Velocity P-wave (km/s) = 7.46848 6.25166 6.88700
#
# Compressibility (1/GPa) = 0.01775165
#
# Stress axis : x y z
#
# Youngs Moduli (GPa) = 100.42798 69.19787 61.22972
#
# Poissons Ratio (x) = 0.25294 0.24537
# Poissons Ratio (y) = 0.36709 0.23463
# Poissons Ratio (z) = 0.40245 0.26516
#
# Static dielectric constant tensor:
#      x y z
#    x 1.792640 0.000000 0.000000 
#    y 0.000000 1.911660 0.000000 
#    z 0.000000 0.000000 1.906310 
# 
# From -- ./inp_files/11282.got.cif
#   From: 2010.05.17/outbox.cif.g08.bks.cpg/sg73_6_cif.got.tgz:11282.got - 2010.06.03 17:35:07.
