data_PCOD9533959
_publ_section_title
;
Structure prediction by ZEFSAII (Michael W. Deem and Ramdas Pophale) SiO2 
 PCOD9533959
Probable space group: I M M A
;
_chemical_formula_sum "Si O2"
_cell_formula_units_Z 96
_cell_length_a 8.818625
_cell_length_b 29.715698
_cell_length_c 26.908582
_cell_angle_alpha 90.000000
_cell_angle_beta 90.000000
_cell_angle_gamma 90.000000
_cell_volume 7051.436894
_symmetry_space_group_name_H-M "I M M A"
_symmetry_group_IT_number 74
_symmetry_cell_setting 'orthorhombic'
loop_
_space_group_symop_operation_xyz
x,y,z
-x,1/2-y,z
x,-y,-z
-x,1/2+y,-z
-x,-y,-z
x,1/2+y,-z
-x,y,z
x,1/2-y,z
1/2+x,1/2+y,1/2+z
1/2-x,-y,1/2+z
1/2+x,1/2-y,1/2-z
1/2-x,y,1/2-z
1/2-x,1/2-y,1/2-z
1/2+x,y,1/2-z
1/2-x,1/2+y,1/2+z
1/2+x,-y,1/2+z
loop_
_atom_site_type_symbol
_atom_site_label
_atom_site_fract_x
_atom_site_fract_y
_atom_site_fract_z
Si Si1 0.323308 0.470073 0.449491
Si Si2 0.680874 0.109666 0.803063
Si Si3 0.180159 0.394881 0.507952
Si Si4 0.817154 0.943327 0.104597
Si Si5 0.681261 0.800197 0.043286
Si Si6 0.819161 0.301505 0.847055
O O1 0.312516 0.500000 0.500000
O O2 0.500000 0.459333 0.442206
O O3 0.233938 0.424768 0.461603
O O4 0.273111 0.504744 0.406771
O O5 0.500000 0.107687 0.802283
O O6 0.750000 0.097063 0.750000
O O7 0.745989 0.077818 0.846369
O O8 0.734547 0.160336 0.816183
O O9 0.259712 0.414654 0.557324
O O10 0.216808 0.341874 0.507498
O O11 0.000000 0.400194 0.513715
O O12 0.000000 0.941039 0.106242
O O13 0.500000 0.802150 0.053670
O O14 0.715643 0.750000 0.024231
O O15 0.767144 0.806073 0.095574
O O16 0.784050 0.250000 0.831856
O O17 0.000000 0.308224 0.843539
#
# Coordination Sequence:
#
# PCOD9533959 Si02
#       6
#    16  16  16  16  16  16
#     4   8  16  28  42  60  82 107 129 159 204 245
#     4  12  24  36  49  63  79 103 133 170 215 256
#     4  10  17  25  42  65  84 107 136 168 202 241
#     4  10  19  32  46  60  81 105 131 167 208 250
#     4   9  17  28  41  59  84 112 139 168 205 245
#     4  10  20  33  48  63  78 101 134 172 213 254
#
# _framework density 13.614246
#
# number of rings (size 3 to 8) (size 9 to 14) (size 15 to 20)
#    0.000    2.167    1.667    4.000    0.000    5.667 
#    0.000    0.000    0.000    0.000    0.000    0.000 
#    0.000    0.000    0.000    0.000    0.000    0.833 
#
# Total GULP energy -267552.008726 kJ/mol
# GULP energy per Si atom -5574.000182 kJ/mol
# Density = 1.358326 g / cm^3
# Si number density = 13.614246 Si / 1000 Ang^3
#
#
#
# Elastic Constant Matrix: (Units=GPa)
#
#
# Indices 1 2 3 4 5 6 
#
# 1 62.1442 46.1496 31.5531 0.0000 0.0000 0.0000
# 2 46.1496 98.3520 52.2391 0.0000 0.0000 0.0000
# 3 31.5531 52.2391 53.1115 0.0000 0.0000 0.0000
# 4 0.0000 0.0000 0.0000 16.6737 0.0000 0.0000
# 5 0.0000 0.0000 0.0000 0.0000 17.6320 0.0000
# 6 0.0000 0.0000 0.0000 0.0000 0.0000 19.5829
#
#
#
# Elastic Compliance Matrix: (Units=1/GPa)
#
#
# Indices 1 2 3 4 5 6 
#
# 1 0.025950 -0.008351 -0.007203 0.000000 0.000000 0.000000
# 2 -0.008351 0.023977 -0.018622 0.000000 0.000000 0.000000
# 3 -0.007203 -0.018622 0.041424 0.000000 0.000000 0.000000
# 4 0.000000 0.000000 0.000000 0.059975 0.000000 0.000000
# 5 0.000000 0.000000 0.000000 0.000000 0.056715 0.000000
# 6 0.000000 0.000000 0.000000 0.000000 0.000000 0.051065
#
#
# Mechanical properties :
#
#
# Convention : Reuss Voigt Hill
#
# Bulk Modulus (GPa) = 43.48002 52.61014 48.04508
# Shear Modulus (GPa) = 14.91981 16.35543 15.63762
#
# Velocity S-wave (km/s) = 3.31402 3.46981 3.39281
# Velocity P-wave (km/s) = 6.83009 7.40136 7.12145
#
# Compressibility (1/GPa) = 0.02299907
#
# Stress axis : x y z
#
# Youngs Moduli (GPa) = 38.53497 41.70677 24.14059
#
# Poissons Ratio (x) = 0.34828 0.17390
# Poissons Ratio (y) = 0.32179 0.44955
# Poissons Ratio (z) = 0.27759 0.77667
#
# Static dielectric constant tensor:
#      x y z
#    x 1.456360 0.000000 0.000000 
#    y 0.000000 1.480100 0.000000 
#    z 0.000000 0.000000 1.418140 
# 
# From -- ./inp_files/64936.got.cif
#   From: 2010.05.17/outbox.cif.g08.bks.cpg/sg74_33_cif.got.tgz:64936.got - 2010.06.03 17:57:02.
