data_PCOD9533986
_publ_section_title
;
Structure prediction by ZEFSAII (Michael W. Deem and Ramdas Pophale) SiO2 
 PCOD9533986
Probable space group: I M M A
;
_chemical_formula_sum "Si O2"
_cell_formula_units_Z 88
_cell_length_a 23.913585
_cell_length_b 13.597702
_cell_length_c 17.430285
_cell_angle_alpha 90.000000
_cell_angle_beta 90.000000
_cell_angle_gamma 90.000000
_cell_volume 5667.802332
_symmetry_space_group_name_H-M "I M M A"
_symmetry_group_IT_number 74
_symmetry_cell_setting 'orthorhombic'
loop_
_space_group_symop_operation_xyz
x,y,z
-x,1/2-y,z
x,-y,-z
-x,1/2+y,-z
-x,-y,-z
x,1/2+y,-z
-x,y,z
x,1/2-y,z
1/2+x,1/2+y,1/2+z
1/2-x,-y,1/2+z
1/2+x,1/2-y,1/2-z
1/2-x,y,1/2-z
1/2-x,1/2-y,1/2-z
1/2+x,y,1/2-z
1/2-x,1/2+y,1/2+z
1/2+x,-y,1/2+z
loop_
_atom_site_type_symbol
_atom_site_label
_atom_site_fract_x
_atom_site_fract_y
_atom_site_fract_z
Si Si1 0.224550 0.367659 0.634258
Si Si2 0.936397 0.114517 0.018656
Si Si3 0.326001 0.863875 0.614050
Si Si4 0.829022 0.044066 0.784360
Si Si5 0.252986 0.500000 0.500000
Si Si6 0.435660 0.641271 0.343802
O O1 0.215187 0.250000 0.630505
O O2 0.187929 0.421670 0.699649
O O3 0.288474 0.389193 0.661716
O O4 0.218546 0.427910 0.555690
O O5 0.921807 0.152327 0.933810
O O6 0.000000 0.142961 0.039429
O O7 0.889578 0.136635 0.081372
O O8 0.936666 0.000000 0.000000
O O9 0.308259 0.750000 0.621724
O O10 0.291046 0.926446 0.551148
O O11 0.320081 0.930836 0.690514
O O12 0.892277 0.070134 0.804259
O O13 0.500000 0.607899 0.339958
O O14 0.431467 0.750000 0.308607
#
# Coordination Sequence:
#
# PCOD9533986 Si02
#       6
#    16  16  16  16   8  16
#     4  10  19  33  53  70  90 120 152 186 228 274
#     4  10  17  27  40  59  89 127 164 192 214 249
#     4  11  20  30  44  64  92 125 156 190 230 269
#     4  10  19  32  46  68  93 123 155 189 222 272
#     4  10  20  34  47  70  87 112 148 198 232 280
#     4  10  18  27  43  66  92 122 154 191 229 262
#
# _framework density 15.526300000000001
#
# number of rings (size 3 to 8) (size 9 to 14) (size 15 to 20)
#    0.000    1.818    2.727    4.364    0.000    1.091 
#    0.000    8.182    0.000    0.000    0.000    0.636 
#    0.000    0.000    0.000    0.000    0.000    0.000 
#
# Total GULP energy -245034.647231 kJ/mol
# GULP energy per Si atom -5568.969255 kJ/mol
# Density = 1.549096 g / cm^3
# Si number density = 15.526300 Si / 1000 Ang^3
#
#
#
# Elastic Constant Matrix: (Units=GPa)
#
#
# Indices 1 2 3 4 5 6 
#
# 1 43.4856 28.3672 26.8455 0.0000 0.0000 0.0000
# 2 28.3672 160.7542 54.6438 0.0000 0.0000 0.0000
# 3 26.8455 54.6438 81.1273 0.0000 0.0000 0.0000
# 4 0.0000 0.0000 0.0000 17.1597 0.0000 0.0000
# 5 0.0000 0.0000 0.0000 0.0000 14.7713 0.0000
# 6 0.0000 0.0000 0.0000 0.0000 0.0000 -14.3430
#
#
#
# Elastic Compliance Matrix: (Units=1/GPa)
#
#
# Indices 1 2 3 4 5 6 
#
# 1 0.029631 -0.002459 -0.008149 0.000000 0.000000 0.000000
# 2 -0.002459 0.008272 -0.004758 0.000000 0.000000 0.000000
# 3 -0.008149 -0.004758 0.018228 0.000000 0.000000 0.000000
# 4 0.000000 0.000000 0.000000 0.058276 0.000000 0.000000
# 5 0.000000 0.000000 0.000000 0.000000 0.067699 0.000000
# 6 0.000000 0.000000 0.000000 0.000000 0.000000 -0.069721
#
#
# Mechanical properties :
#
#
# Convention : Reuss Voigt Hill
#
# Bulk Modulus (GPa) = 39.37166 56.12000 47.74583
# Shear Modulus (GPa) = 32.98541 15.21830 24.10186
#
# Velocity S-wave (km/s) = 4.61422 3.13415 3.94423
# Velocity P-wave (km/s) = 7.33492 7.02288 7.18059
#
# Compressibility (1/GPa) = 0.02539898
#
# Stress axis : x y z
#
# Youngs Moduli (GPa) = 33.74885 120.89134 54.86197
#
# Poissons Ratio (x) = 0.29724 0.44706
# Poissons Ratio (y) = 0.08298 0.26103
# Poissons Ratio (z) = 0.27501 0.57520
#
# Static dielectric constant tensor:
#      x y z
#    x 1.525700 0.000000 0.000000 
#    y 0.000000 1.558880 0.000000 
#    z 0.000000 0.000000 1.528740 
# 
# From -- ./inp_files/46079.got.cif
#   From: 2010.05.17/outbox.cif.g08.bks.cpg/sg74_24_cif.got.tgz:46079.got - 2010.06.03 17:57:02.
