data_PCOD9533435
_publ_section_title
;
Structure prediction by ZEFSAII (Michael W. Deem and Ramdas Pophale) SiO2 
 PCOD9533435
Probable space group: I B C A 
;
_chemical_formula_sum "Si O2"
_cell_formula_units_Z 64
_cell_length_a 10.323724
_cell_length_b 31.633991
_cell_length_c 8.879555
_cell_angle_alpha 90.000000
_cell_angle_beta 90.000000
_cell_angle_gamma 90.000000
_cell_volume 2899.890330
_symmetry_space_group_name_H-M "I B C A "
_symmetry_group_IT_number 73
_symmetry_cell_setting 'orthorhombic'
loop_
_space_group_symop_operation_xyz
x,y,z
-x,1/2-y,z
x,-y,1/2-z
1/2-x,y,-z
-x,-y,-z
x,1/2+y,-z
-x,y,1/2+z
1/2+x,-y,z
1/2+x,1/2+y,1/2+z
1/2-x,-y,1/2+z
1/2+x,1/2-y,-z
-x,1/2+y,1/2-z
1/2-x,1/2-y,1/2-z
1/2+x,y,1/2-z
1/2-x,1/2+y,z
x,1/2-y,1/2+z
loop_
_atom_site_type_symbol
_atom_site_label
_atom_site_fract_x
_atom_site_fract_y
_atom_site_fract_z
Si Si1 0.377699 0.108722 0.054899
Si Si2 0.125660 0.984168 0.418968
Si Si3 0.869796 0.632369 0.887475
Si Si4 0.147922 0.271042 0.137788
O O1 0.375015 0.103317 0.236292
O O2 0.250000 0.133343 0.000000
O O3 0.372748 0.065677 0.954952
O O4 0.507551 0.129651 0.997144
O O5 0.250000 0.003315 0.500000
O O6 0.125248 0.000000 0.250000
O O7 0.000000 0.000000 0.500000
O O8 0.872051 0.679766 0.821688
O O9 0.750000 0.624034 0.000000
O O10 0.250000 0.250000 0.250000
O O11 0.000000 0.250000 0.123103
O O12 0.250000 0.272591 0.000000
#
# Coordination Sequence:
#
# PCOD9533435 Si02
#       4
#    16  16  16  16
#     4  11  25  44  70 103 143 187 237 302 360 435
#     4  11  24  44  71 105 143 187 236 293 362 436
#     4  11  26  44  71 104 140 192 244 300 371 431
#     4  11  27  44  71 104 145 199 254 313 378 452
#
# _framework density 22.069800000000001
#
# number of rings (size 3 to 8) (size 9 to 14) (size 15 to 20)
#    0.000    1.000    0.000    4.500   14.000    5.000 
#    0.000    0.000    0.000    0.000    0.000    0.000 
#    0.000    0.000    0.000    0.000    0.000    0.000 
#
# Total GULP energy -178311.120436 kJ/mol
# GULP energy per Si atom -5572.222514 kJ/mol
# Density = 2.201957 g / cm^3
# Si number density = 22.069800 Si / 1000 Ang^3
#
#
#
# Elastic Constant Matrix: (Units=GPa)
#
#
# Indices 1 2 3 4 5 6 
#
# 1 227.0602 15.0491 58.3959 0.0028 -0.0003 0.0006
# 2 15.0491 67.1942 32.4485 0.0009 0.0004 0.0001
# 3 58.3959 32.4485 169.6604 0.0093 0.0033 0.0008
# 4 0.0028 0.0009 0.0093 23.3493 0.0021 0.0003
# 5 -0.0003 0.0004 0.0033 0.0021 45.3524 0.0012
# 6 0.0006 0.0001 0.0008 0.0003 0.0012 16.5816
#
#
#
# Elastic Compliance Matrix: (Units=1/GPa)
#
#
# Indices 1 2 3 4 5 6 
#
# 1 0.004838 -0.000308 -0.001606 0.000000 0.000000 0.000000
# 2 -0.000308 0.016416 -0.003034 0.000001 0.000000 0.000000
# 3 -0.001606 -0.003034 0.007027 -0.000003 -0.000001 0.000000
# 4 0.000000 0.000001 -0.000003 0.042828 -0.000002 -0.000001
# 5 0.000000 0.000000 -0.000001 -0.000002 0.022050 -0.000002
# 6 0.000000 0.000000 0.000000 -0.000001 -0.000002 0.060308
#
#
# Mechanical properties :
#
#
# Convention : Reuss Voigt Hill
#
# Bulk Modulus (GPa) = 54.39074 75.07798 64.73436
# Shear Modulus (GPa) = 29.50028 40.92476 35.21252
#
# Velocity S-wave (km/s) = 3.66003 4.31087 3.99871
# Velocity P-wave (km/s) = 6.52376 7.67270 7.12144
#
# Compressibility (1/GPa) = 0.01838548
#
# Stress axis : x y z
#
# Youngs Moduli (GPa) = 206.71380 60.91550 142.30438
#
# Poissons Ratio (x) = 0.01875 0.22857
# Poissons Ratio (y) = 0.06363 0.43171
# Poissons Ratio (z) = 0.33202 0.18480
#
# Static dielectric constant tensor:
#      x y z
#    x 1.886860 -0.000160 0.000000 
#    y -0.000160 -20.259350 -0.000320 
#    z 0.000000 -0.000320 1.574840 
# 
# From -- ./inp_files/3995.got.cif
#   From: 2010.05.17/outbox.cif.g08.bks.cpg/sg73_2_cif.got.tgz:3995.got - 2010.06.03 17:35:07.
