data_PCOD9533542
_publ_section_title
;
Structure prediction by ZEFSAII (Michael W. Deem and Ramdas Pophale) SiO2 
 PCOD9533542
Probable space group: I B C A 
;
_chemical_formula_sum "Si O2"
_cell_formula_units_Z 72
_cell_length_a 18.230322
_cell_length_b 14.833754
_cell_length_c 12.695244
_cell_angle_alpha 90.000000
_cell_angle_beta 90.000000
_cell_angle_gamma 90.000000
_cell_volume 3433.100084
_symmetry_space_group_name_H-M "I B C A "
_symmetry_group_IT_number 73
_symmetry_cell_setting 'orthorhombic'
loop_
_space_group_symop_operation_xyz
x,y,z
-x,1/2-y,z
x,-y,1/2-z
1/2-x,y,-z
-x,-y,-z
x,1/2+y,-z
-x,y,1/2+z
1/2+x,-y,z
1/2+x,1/2+y,1/2+z
1/2-x,-y,1/2+z
1/2+x,1/2-y,-z
-x,1/2+y,1/2-z
1/2-x,1/2-y,1/2-z
1/2+x,y,1/2-z
1/2-x,1/2+y,z
x,1/2-y,1/2+z
loop_
_atom_site_type_symbol
_atom_site_label
_atom_site_fract_x
_atom_site_fract_y
_atom_site_fract_z
Si Si1 0.584042 0.852898 0.247217
Si Si2 0.924786 0.942769 0.981302
Si Si3 0.303377 0.000000 0.250000
Si Si4 0.802772 0.928419 0.582704
Si Si5 0.921283 0.645284 0.696325
O O1 0.587321 0.894482 0.131009
O O2 0.648484 0.880531 0.327571
O O3 0.583035 0.744828 0.255852
O O4 0.504288 0.887525 0.284207
O O5 0.861060 0.016713 0.986039
O O6 0.914822 0.866998 0.070756
O O7 0.000000 0.000000 0.000000
O O8 0.250268 0.993359 0.149768
O O9 0.357755 0.915175 0.254171
O O10 0.750000 0.876308 0.500000
#
# Coordination Sequence:
#
# PCOD9533542 Si02
#       5
#    16  16   8  16  16
#     4  11  26  46  70 109 146 185 246 314 355 438
#     4  12  23  45  77 100 144 194 245 293 363 444
#     4  12  24  44  70 106 142 192 242 294 376 446
#     4  12  25  44  71 105 144 189 238 301 372 437
#     4  11  26  44  73 106 140 192 244 295 370 438
#
# _framework density 20.972299
#
# number of rings (size 3 to 8) (size 9 to 14) (size 15 to 20)
#    0.000    0.444    6.667    1.333    0.000    6.222 
#    4.000    0.000    0.000    0.000    0.000    0.000 
#    0.000    0.000    0.000    0.000    0.000    0.000 
#
# Total GULP energy -200844.889279 kJ/mol
# GULP energy per Si atom -5579.024702 kJ/mol
# Density = 2.092456 g / cm^3
# Si number density = 20.972299 Si / 1000 Ang^3
#
#
#
# Elastic Constant Matrix: (Units=GPa)
#
#
# Indices 1 2 3 4 5 6 
#
# 1 156.8476 42.2353 44.0736 0.0000 0.0000 0.0000
# 2 42.2353 75.9341 13.0895 0.0000 0.0000 0.0000
# 3 44.0736 13.0895 95.8282 0.0000 0.0000 0.0000
# 4 0.0000 0.0000 0.0000 26.6335 0.0000 0.0000
# 5 0.0000 0.0000 0.0000 0.0000 32.8970 0.0000
# 6 0.0000 0.0000 0.0000 0.0000 0.0000 167.2286
#
#
#
# Elastic Compliance Matrix: (Units=1/GPa)
#
#
# Indices 1 2 3 4 5 6 
#
# 1 0.008411 -0.004108 -0.003307 0.000000 0.000000 0.000000
# 2 -0.004108 0.015493 -0.000227 0.000000 0.000000 0.000000
# 3 -0.003307 -0.000227 0.011987 0.000000 0.000000 0.000000
# 4 0.000000 0.000000 0.000000 0.037547 0.000000 0.000000
# 5 0.000000 0.000000 0.000000 0.000000 0.030398 0.000000
# 6 0.000000 0.000000 0.000000 0.000000 0.000000 0.005980
#
#
# Mechanical properties :
#
#
# Convention : Reuss Voigt Hill
#
# Bulk Modulus (GPa) = 48.52660 58.60075 53.56368
# Shear Modulus (GPa) = 37.88722 60.63258 49.25990
#
# Velocity S-wave (km/s) = 4.25495 5.38271 4.85171
# Velocity P-wave (km/s) = 6.87954 8.16297 7.54858
#
# Compressibility (1/GPa) = 0.02060725
#
# Stress axis : x y z
#
# Youngs Moduli (GPa) = 118.88857 64.54322 83.42057
#
# Poissons Ratio (x) = 0.26516 0.27590
# Poissons Ratio (y) = 0.48843 0.01892
# Poissons Ratio (z) = 0.39321 0.01464
#
# Static dielectric constant tensor:
#      x y z
#    x 1.770560 0.000000 0.000000 
#    y 0.000000 1.731340 0.000000 
#    z 0.000000 0.000000 1.810510 
# 
# From -- ./inp_files/11674.got.cif
#   From: 2010.05.17/outbox.cif.g08.bks.cpg/sg73_6_cif.got.tgz:11674.got - 2010.06.03 17:35:07.
