data_PCOD9533376
_publ_section_title
;
Structure prediction by ZEFSAII (Michael W. Deem and Ramdas Pophale) SiO2 
 PCOD9533376
Probable space group: I B C A 
;
_chemical_formula_sum "Si O2"
_cell_formula_units_Z 96
_cell_length_a 22.399919
_cell_length_b 9.654416
_cell_length_c 21.569020
_cell_angle_alpha 90.000000
_cell_angle_beta 90.000000
_cell_angle_gamma 90.000000
_cell_volume 4664.476069
_symmetry_space_group_name_H-M "I B C A "
_symmetry_group_IT_number 73
_symmetry_cell_setting 'orthorhombic'
loop_
_space_group_symop_operation_xyz
x,y,z
-x,1/2-y,z
x,-y,1/2-z
1/2-x,y,-z
-x,-y,-z
x,1/2+y,-z
-x,y,1/2+z
1/2+x,-y,z
1/2+x,1/2+y,1/2+z
1/2-x,-y,1/2+z
1/2+x,1/2-y,-z
-x,1/2+y,1/2-z
1/2-x,1/2-y,1/2-z
1/2+x,y,1/2-z
1/2-x,1/2+y,z
x,1/2-y,1/2+z
loop_
_atom_site_type_symbol
_atom_site_label
_atom_site_fract_x
_atom_site_fract_y
_atom_site_fract_z
Si Si1 0.839476 0.615342 0.058847
Si Si2 0.438439 0.000000 0.250000
Si Si3 0.301607 0.096525 0.418941
Si Si4 0.195177 0.351766 0.756722
Si Si5 0.623148 0.847149 0.134378
Si Si6 0.500000 0.750000 0.177528
Si Si7 0.859083 0.157715 0.355881
O O1 0.768565 0.625934 0.074985
O O2 0.865967 0.481830 0.093246
O O3 0.874212 0.755154 0.080813
O O4 0.834608 0.587600 0.985376
O O5 0.477130 0.122515 0.280404
O O6 0.400798 0.071777 0.192989
O O7 0.333246 0.225046 0.386763
O O8 0.312342 0.956853 0.379976
O O9 0.225331 0.500000 0.750000
O O10 0.250000 0.250000 0.750000
O O11 0.144011 0.366400 0.705113
O O12 0.163706 0.288791 0.816460
O O13 0.555216 0.799491 0.136083
#
# Coordination Sequence:
#
# PCOD9533376 Si02
#       7
#    16   8  16  16  16   8  16
#     4  11  24  41  75 102 143 189 233 287 356 432
#     4  12  28  46  72  98 132 190 236 302 366 420
#     4  11  23  45  68 106 143 188 232 288 356 424
#     4  12  25  38  64 101 141 179 227 292 365 427
#     4  12  25  45  67 103 139 183 236 290 355 424
#     4  12  28  48  72  96 144 188 240 296 358 432
#     4  12  23  43  64 101 139 177 233 290 348 430
#
# _framework density 20.581091000000001
#
# number of rings (size 3 to 8) (size 9 to 14) (size 15 to 20)
#    0.000    0.333    5.000    4.000    7.000    2.667 
#    0.000    0.833    0.000    0.000    0.000    0.000 
#    0.000    0.000    0.000    0.000    0.000    0.000 
#
# Total GULP energy -267731.776388 kJ/mol
# GULP energy per Si atom -5577.745341 kJ/mol
# Density = 2.053425 g / cm^3
# Si number density = 20.581091 Si / 1000 Ang^3
#
#
#
# Elastic Constant Matrix: (Units=GPa)
#
#
# Indices 1 2 3 4 5 6 
#
# 1 57.5506 20.8824 9.5703 0.0000 0.0000 0.0000
# 2 20.8824 155.9050 30.7871 0.0000 0.0000 0.0000
# 3 9.5703 30.7871 86.6383 0.0000 0.0000 0.0000
# 4 0.0000 0.0000 0.0000 26.2076 0.0000 0.0000
# 5 0.0000 0.0000 0.0000 0.0000 54.5871 0.0000
# 6 0.0000 0.0000 0.0000 0.0000 0.0000 66.3923
#
#
#
# Elastic Compliance Matrix: (Units=1/GPa)
#
#
# Indices 1 2 3 4 5 6 
#
# 1 0.018387 -0.002217 -0.001243 0.000000 0.000000 0.000000
# 2 -0.002217 0.007166 -0.002301 0.000000 0.000000 0.000000
# 3 -0.001243 -0.002301 0.012497 0.000000 0.000000 0.000000
# 4 0.000000 0.000000 0.000000 0.038157 0.000000 0.000000
# 5 0.000000 0.000000 0.000000 0.000000 0.018319 0.000000
# 6 0.000000 0.000000 0.000000 0.000000 0.000000 0.015062
#
#
# Mechanical properties :
#
#
# Convention : Reuss Voigt Hill
#
# Bulk Modulus (GPa) = 37.69818 46.95261 42.32540
# Shear Modulus (GPa) = 38.47499 45.36100 41.91800
#
# Velocity S-wave (km/s) = 4.32839 4.69979 4.51790
# Velocity P-wave (km/s) = 6.58305 7.23282 6.91557
#
# Compressibility (1/GPa) = 0.02652648
#
# Stress axis : x y z
#
# Youngs Moduli (GPa) = 54.38530 139.55524 80.01683
#
# Poissons Ratio (x) = 0.30944 0.09948
# Poissons Ratio (y) = 0.12059 0.18415
# Poissons Ratio (z) = 0.06761 0.32117
#
# Static dielectric constant tensor:
#      x y z
#    x 1.732520 0.000000 0.000000 
#    y 0.000000 1.818670 0.000000 
#    z 0.000000 0.000000 1.869640 
# 
# From -- ./inp_files/30313.got.cif
#   From: 2010.05.17/outbox.cif.g08.bks.cpg/sg73_16_cif.got.tgz:30313.got - 2010.06.03 17:35:07.
