data_PCOD9533849
_publ_section_title
;
Structure prediction by ZEFSAII (Michael W. Deem and Ramdas Pophale) SiO2 
 PCOD9533849
Probable space group: I M M A
;
_chemical_formula_sum "Si O2"
_cell_formula_units_Z 96
_cell_length_a 18.466269
_cell_length_b 20.419813
_cell_length_c 16.070813
_cell_angle_alpha 90.000000
_cell_angle_beta 90.000000
_cell_angle_gamma 90.000000
_cell_volume 6059.946164
_symmetry_space_group_name_H-M "I M M A"
_symmetry_group_IT_number 74
_symmetry_cell_setting 'orthorhombic'
loop_
_space_group_symop_operation_xyz
x,y,z
-x,1/2-y,z
x,-y,-z
-x,1/2+y,-z
-x,-y,-z
x,1/2+y,-z
-x,y,z
x,1/2-y,z
1/2+x,1/2+y,1/2+z
1/2-x,-y,1/2+z
1/2+x,1/2-y,1/2-z
1/2-x,y,1/2-z
1/2-x,1/2-y,1/2-z
1/2+x,y,1/2-z
1/2-x,1/2+y,1/2+z
1/2+x,-y,1/2+z
loop_
_atom_site_type_symbol
_atom_site_label
_atom_site_fract_x
_atom_site_fract_y
_atom_site_fract_z
Si Si1 0.081764 0.177939 0.255646
Si Si2 0.265511 0.546933 0.650727
Si Si3 0.387683 0.495669 0.873802
Si Si4 0.079003 0.387238 0.500801
Si Si5 0.301734 0.176718 0.095325
Si Si6 0.419628 0.964146 0.685882
O O1 0.089118 0.250000 0.215828
O O2 0.143086 0.173400 0.325769
O O3 0.086570 0.114669 0.197942
O O4 0.000000 0.175279 0.292419
O O5 0.250000 0.555078 0.750000
O O6 0.199333 0.502185 0.620199
O O7 0.254276 0.617989 0.609092
O O8 0.345569 0.518211 0.638893
O O9 0.416689 0.556228 0.929253
O O10 0.412391 0.506680 0.779369
O O11 0.412442 0.428410 0.914738
O O12 0.145577 0.339759 0.481693
O O13 0.000000 0.355651 0.497453
O O14 0.271690 0.250000 0.091580
O O15 0.500000 0.979703 0.653266
#
# Coordination Sequence:
#
# PCOD9533849 Si02
#       6
#    16  16  16  16  16  16
#     4   9  15  21  30  46  70  99 127 149 171 204
#     4   9  16  26  35  52  75 100 129 157 184 220
#     4   9  16  24  36  52  72  97 126 155 186 222
#     4  10  16  24  37  53  72  97 128 157 184 217
#     4  10  18  25  35  51  74 103 130 153 181 216
#     4  10  16  25  37  52  74  99 127 159 189 218
#
# _framework density 15.841725
#
# number of rings (size 3 to 8) (size 9 to 14) (size 15 to 20)
#    0.000    2.500    5.000    2.500    0.000    2.000 
#    0.000    0.000    0.000    0.000    0.000    9.333 
#    0.000    6.000    0.000    0.333    0.000    0.000 
#
# Total GULP energy -267221.097054 kJ/mol
# GULP energy per Si atom -5567.106189 kJ/mol
# Density = 1.580567 g / cm^3
# Si number density = 15.841725 Si / 1000 Ang^3
#
#
#
# Elastic Constant Matrix: (Units=GPa)
#
#
# Indices 1 2 3 4 5 6 
#
# 1 117.1094 -1.2771 9.9648 0.0000 0.0000 0.0000
# 2 -1.2771 8.2204 0.3132 0.0000 0.0000 0.0000
# 3 9.9648 0.3132 11.0219 0.0000 0.0000 0.0000
# 4 0.0000 0.0000 0.0000 8.4615 0.0000 0.0000
# 5 0.0000 0.0000 0.0000 0.0000 16.7750 0.0000
# 6 0.0000 0.0000 0.0000 0.0000 0.0000 7.5601
#
#
#
# Elastic Compliance Matrix: (Units=1/GPa)
#
#
# Indices 1 2 3 4 5 6 
#
# 1 0.009276 0.001763 -0.008437 0.000000 0.000000 0.000000
# 2 0.001763 0.122115 -0.005064 0.000000 0.000000 0.000000
# 3 -0.008437 -0.005064 0.098499 0.000000 0.000000 0.000000
# 4 0.000000 0.000000 0.000000 0.118182 0.000000 0.000000
# 5 0.000000 0.000000 0.000000 0.000000 0.059613 0.000000
# 6 0.000000 0.000000 0.000000 0.000000 0.000000 0.132274
#
#
# Mechanical properties :
#
#
# Convention : Reuss Voigt Hill
#
# Bulk Modulus (GPa) = 4.84461 17.15041 10.99751
# Shear Modulus (GPa) = 7.90839 15.04937 11.47888
#
# Velocity S-wave (km/s) = 2.23673 3.08552 2.69476
# Velocity P-wave (km/s) = 3.12016 4.85217 4.07915
#
# Compressibility (1/GPa) = 0.20641482
#
# Stress axis : x y z
#
# Youngs Moduli (GPa) = 107.80384 8.18900 10.15235
#
# Poissons Ratio (x) = -0.01443 0.08565
# Poissons Ratio (y) = -0.19001 0.05141
# Poissons Ratio (z) = 0.90949 0.04147
#
# Static dielectric constant tensor:
#      x y z
#    x 1.601930 0.000000 0.000000 
#    y 0.000000 1.535210 0.000000 
#    z 0.000000 0.000000 1.523740 
# 
# From -- ./inp_files/44323.got.cif
#   From: 2010.05.17/outbox.cif.g08.bks.cpg/sg74_23_cif.got.tgz:44323.got - 2010.06.03 17:57:02.
