data_PCOD9533943
_publ_section_title
;
Structure prediction by ZEFSAII (Michael W. Deem and Ramdas Pophale) SiO2 
 PCOD9533943
Probable space group: I M M A
;
_chemical_formula_sum "Si O2"
_cell_formula_units_Z 80
_cell_length_a 7.548304
_cell_length_b 15.369364
_cell_length_c 40.130297
_cell_angle_alpha 90.000000
_cell_angle_beta 90.000000
_cell_angle_gamma 90.000000
_cell_volume 4655.621368
_symmetry_space_group_name_H-M "I M M A"
_symmetry_group_IT_number 74
_symmetry_cell_setting 'orthorhombic'
loop_
_space_group_symop_operation_xyz
x,y,z
-x,1/2-y,z
x,-y,-z
-x,1/2+y,-z
-x,-y,-z
x,1/2+y,-z
-x,y,z
x,1/2-y,z
1/2+x,1/2+y,1/2+z
1/2-x,-y,1/2+z
1/2+x,1/2-y,1/2-z
1/2-x,y,1/2-z
1/2-x,1/2-y,1/2-z
1/2+x,y,1/2-z
1/2-x,1/2+y,1/2+z
1/2+x,-y,1/2+z
loop_
_atom_site_type_symbol
_atom_site_label
_atom_site_fract_x
_atom_site_fract_y
_atom_site_fract_z
Si Si1 0.284125 0.848360 0.019927
Si Si2 0.289042 0.470896 0.921326
Si Si3 0.283852 0.847173 0.942967
Si Si4 0.786736 0.149713 0.858751
Si Si5 0.288207 0.650309 0.285739
O O1 0.500000 0.850258 0.020309
O O2 0.230864 0.750000 0.029195
O O3 0.233290 0.863873 0.981612
O O4 0.218876 0.917259 0.046841
O O5 0.500000 0.476879 0.926230
O O6 0.222874 0.570143 0.921674
O O7 0.261708 0.414877 0.888258
O O8 0.500000 0.844242 0.942157
O O9 0.222966 0.750000 0.933622
O O10 0.724716 0.250000 0.863999
O O11 0.726508 0.117892 0.821939
O O12 0.000000 0.153602 0.858303
O O13 0.500000 0.654164 0.287562
O O14 0.219674 0.750000 0.283972
O O15 0.250000 0.607335 0.250000
#
# Coordination Sequence:
#
# PCOD9533943 Si02
#       5
#    16  16  16  16  16
#     4   8  13  21  34  54  78 100 125 162 204 238
#     4  10  17  24  39  61  79  98 132 172 199 226
#     4   8  14  24  37  54  77 103 130 165 209 244
#     4   9  18  30  40  54  82 114 133 149 187 238
#     4   8  14  25  40  56  75 102 132 155 177 213
#
# _framework density 17.183527999999999
#
# number of rings (size 3 to 8) (size 9 to 14) (size 15 to 20)
#    0.000    3.400    0.000    3.600    0.000    4.400 
#    0.000    2.000    0.000    3.000    0.000    2.800 
#    0.000    0.800    0.000    1.800    0.000    2.800 
#
# Total GULP energy -222682.248331 kJ/mol
# GULP energy per Si atom -5567.056208 kJ/mol
# Density = 1.714442 g / cm^3
# Si number density = 17.183528 Si / 1000 Ang^3
#
#
#
# Elastic Constant Matrix: (Units=GPa)
#
#
# Indices 1 2 3 4 5 6 
#
# 1 37.2815 6.5707 -2.2465 0.0000 0.0000 0.0000
# 2 6.5707 122.4388 84.2638 0.0000 0.0000 0.0000
# 3 -2.2465 84.2638 94.3923 0.0000 0.0000 0.0000
# 4 0.0000 0.0000 0.0000 11.2055 0.0000 0.0000
# 5 0.0000 0.0000 0.0000 0.0000 -277.5791 0.0000
# 6 0.0000 0.0000 0.0000 0.0000 0.0000 -0.1042
#
#
#
# Elastic Compliance Matrix: (Units=1/GPa)
#
#
# Indices 1 2 3 4 5 6 
#
# 1 0.028035 -0.005092 0.005213 0.000000 0.000000 0.000000
# 2 -0.005092 0.022104 -0.019853 0.000000 0.000000 0.000000
# 3 0.005213 -0.019853 0.028441 0.000000 0.000000 0.000000
# 4 0.000000 0.000000 0.000000 0.089242 0.000000 0.000000
# 5 0.000000 0.000000 0.000000 0.000000 -0.003603 0.000000
# 6 0.000000 0.000000 0.000000 0.000000 0.000000 -9.599129
#
#
# Mechanical properties :
#
#
# Convention : Reuss Voigt Hill
#
# Bulk Modulus (GPa) = 25.56588 47.92096 36.74342
# Shear Modulus (GPa) = -0.53291 -42.26058 -21.39675
#
# Velocity S-wave (km/s) = -0.55750 -4.96458 -3.53255
# Velocity P-wave (km/s) = 3.80736 2.21686 2.18879
#
# Compressibility (1/GPa) = 0.03911463
#
# Stress axis : x y z
#
# Youngs Moduli (GPa) = 35.67032 45.24095 35.16033
#
# Poissons Ratio (x) = 0.23037 -0.18329
# Poissons Ratio (y) = 0.18163 0.69805
# Poissons Ratio (z) = -0.18594 0.89818
#
# Static dielectric constant tensor:
#      x y z
#    x 1.683110 0.000000 0.000000 
#    y 0.000000 1.588070 0.000000 
#    z 0.000000 0.000000 1.609230 
# 
# From -- ./inp_files/65824.got.cif
#   From: 2010.05.17/outbox.cif.g08.bks.cpg/sg74_33_cif.got.tgz:65824.got - 2010.06.03 17:57:02.
