data_PCOD9533730
_publ_section_title
;
Structure prediction by ZEFSAII (Michael W. Deem and Ramdas Pophale) SiO2 
 PCOD9533730
Probable space group: I B C A 
;
_chemical_formula_sum "Si O2"
_cell_formula_units_Z 48
_cell_length_a 21.000000
_cell_length_b 15.000000
_cell_length_c 15.000000
_cell_angle_alpha 90.000000
_cell_angle_beta 90.000000
_cell_angle_gamma 90.000000
_cell_volume 4725.000000
_symmetry_space_group_name_H-M "I B C A "
_symmetry_group_IT_number 73
_symmetry_cell_setting 'orthorhombic'
loop_
_space_group_symop_operation_xyz
x,y,z
-x,1/2-y,z
x,-y,1/2-z
1/2-x,y,-z
-x,-y,-z
x,1/2+y,-z
-x,y,1/2+z
1/2+x,-y,z
1/2+x,1/2+y,1/2+z
1/2-x,-y,1/2+z
1/2+x,1/2-y,-z
-x,1/2+y,1/2-z
1/2-x,1/2-y,1/2-z
1/2+x,y,1/2-z
1/2-x,1/2+y,z
x,1/2-y,1/2+z
loop_
_atom_site_type_symbol
_atom_site_label
_atom_site_fract_x
_atom_site_fract_y
_atom_site_fract_z
Si Si1 0.017990 0.479570 0.102770
Si Si2 0.451538 0.674072 0.876204
Si Si3 0.057758 0.816031 0.408872
Si Si4 0.165059 0.066975 0.626686
Si Si5 0.811974 0.128791 0.328515
Si Si6 0.206477 0.759083 0.413993
O O1 0.024593 0.575154 0.150484
O O2 0.088855 0.436466 0.107878
O O3 0.963599 0.410765 0.132558
O O4 0.000000 0.500000 0.000000
O O5 0.500000 0.750000 0.844137
O O6 0.377609 0.681424 0.849350
O O7 0.450559 0.677896 0.983812
O O8 0.132637 0.791172 0.399087
O O9 0.000000 0.750000 0.379323
O O10 0.178453 0.093943 0.728632
O O11 0.197786 0.151518 0.579062
O O12 0.188896 0.964361 0.613863
O O13 0.750789 0.191883 0.340345
O O14 0.250000 0.785330 0.500000
#
# Coordination Sequence:
#
# PCOD9533730 Si02
#       6
#    16  16  16  16  16  16
#     4   9  18  34  62  86 113 155 202 261 304 369
#     4   9  18  35  57  85 120 156 197 250 312 373
#     4  10  18  35  58  87 119 148 205 257 313 358
#     4  10  22  42  64  85 124 172 205 255 330 383
#     4  10  22  42  61  87 129 168 208 255 325 399
#     4  12  23  38  62  94 123 161 213 267 317 385
#
# _framework density 10.15873
#
# number of rings (size 3 to 8) (size 9 to 14) (size 15 to 20)
#    0.000    2.000    3.333    0.500    0.000    0.667 
#    6.000    0.000    0.000    0.000    0.000    0.000 
#    0.000    0.000    0.000    0.000    0.000    0.000 
#
# Total GULP energy -267348.570124 kJ/mol
# GULP energy per Si atom -5569.761878 kJ/mol
# Density = 1.013561 g / cm^3
# Si number density = 10.158730 Si / 1000 Ang^3
#
#
#
# Elastic Constant Matrix: (Units=GPa)
#
#
# Indices 1 2 3 4 5 6 
#
# 1 190.2712 97.7393 24.5028 0.0000 0.0000 0.0000
# 2 97.7393 129.0125 7.5922 0.0000 0.0000 0.0000
# 3 24.5028 7.5922 38.9551 0.0000 0.0000 0.0000
# 4 0.0000 0.0000 0.0000 19.4352 0.0000 0.0000
# 5 0.0000 0.0000 0.0000 0.0000 22.4090 0.0000
# 6 0.0000 0.0000 0.0000 0.0000 0.0000 51.7400
#
#
#
# Elastic Compliance Matrix: (Units=1/GPa)
#
#
# Indices 1 2 3 4 5 6 
#
# 1 0.009338 -0.006807 -0.004547 0.000000 0.000000 0.000000
# 2 -0.006807 0.012803 0.001786 0.000000 0.000000 0.000000
# 3 -0.004547 0.001786 0.028182 0.000000 0.000000 0.000000
# 4 0.000000 0.000000 0.000000 0.051453 0.000000 0.000000
# 5 0.000000 0.000000 0.000000 0.000000 0.044625 0.000000
# 6 0.000000 0.000000 0.000000 0.000000 0.000000 0.019327
#
#
# Mechanical properties :
#
#
# Convention : Reuss Voigt Hill
#
# Bulk Modulus (GPa) = 32.06327 68.65636 50.35982
# Shear Modulus (GPa) = 25.60706 33.94380 29.77543
#
# Velocity S-wave (km/s) = 3.55399 4.09182 3.83235
# Velocity P-wave (km/s) = 5.71459 7.49594 6.66505
#
# Compressibility (1/GPa) = 0.03118833
#
# Stress axis : x y z
#
# Youngs Moduli (GPa) = 107.09380 78.10857 35.48307
#
# Poissons Ratio (x) = 0.53165 0.16133
# Poissons Ratio (y) = 0.72894 -0.06338
# Poissons Ratio (z) = 0.48694 -0.13951
#
# Static dielectric constant tensor:
#      x y z
#    x 1.681670 0.000000 0.000000 
#    y 0.000000 1.814590 0.000000 
#    z 0.000000 0.000000 1.827280 
# 
# From -- ./inp_files/18648.got.cif
#   From: 2010.05.17/outbox.ucp.g08.bks.cvg/sg73_10_cif.got.tgz:18648.got - 2010.06.11 16:36:03.
