data_PCOD9533867
_publ_section_title
;
Structure prediction by ZEFSAII (Michael W. Deem and Ramdas Pophale) SiO2 
 PCOD9533867
Probable space group: I M M A
;
_chemical_formula_sum "Si O2"
_cell_formula_units_Z 104
_cell_length_a 20.542214
_cell_length_b 13.837482
_cell_length_c 18.754905
_cell_angle_alpha 90.000000
_cell_angle_beta 90.000000
_cell_angle_gamma 90.000000
_cell_volume 5331.128942
_symmetry_space_group_name_H-M "I M M A"
_symmetry_group_IT_number 74
_symmetry_cell_setting 'orthorhombic'
loop_
_space_group_symop_operation_xyz
x,y,z
-x,1/2-y,z
x,-y,-z
-x,1/2+y,-z
-x,-y,-z
x,1/2+y,-z
-x,y,z
x,1/2-y,z
1/2+x,1/2+y,1/2+z
1/2-x,-y,1/2+z
1/2+x,1/2-y,1/2-z
1/2-x,y,1/2-z
1/2-x,1/2-y,1/2-z
1/2+x,y,1/2-z
1/2-x,1/2+y,1/2+z
1/2+x,-y,1/2+z
loop_
_atom_site_type_symbol
_atom_site_label
_atom_site_fract_x
_atom_site_fract_y
_atom_site_fract_z
Si Si1 0.071516 0.634498 0.854033
Si Si2 0.862638 0.133938 0.281139
Si Si3 0.426689 0.637541 0.475149
Si Si4 0.143794 0.363269 0.543516
Si Si5 0.500000 0.867120 0.856940
Si Si6 0.000000 0.366710 0.519429
Si Si7 0.322818 0.500000 0.500000
Si Si8 0.707237 0.446850 0.092760
O O1 0.068384 0.750000 0.840673
O O2 0.127427 0.600504 0.800531
O O3 0.077735 0.626975 0.938779
O O4 0.000000 0.594180 0.835088
O O5 0.854482 0.250000 0.284206
O O6 0.805351 0.088888 0.328103
O O7 0.932334 0.107617 0.317971
O O8 0.500000 0.607914 0.453923
O O9 0.418561 0.750000 0.457415
O O10 0.368327 0.569440 0.452375
O O11 0.154986 0.250000 0.557965
O O12 0.160043 0.385287 0.460253
O O13 0.187060 0.440683 0.585384
O O14 0.068359 0.389567 0.555712
O O15 0.500000 0.750000 0.858445
O O16 0.500000 0.903893 0.938206
O O17 0.000000 0.250000 0.513795
O O18 0.276549 0.440041 0.446579
#
# Coordination Sequence:
#
# PCOD9533867 Si02
#       8
#    16  16  16  16   8   8   8  16
#     4   8  14  26  47  75 102 125 152 193 245 293
#     4  10  16  26  42  67 102 131 160 196 227 272
#     4   9  18  34  57  80  97 117 150 196 254 307
#     4   9  17  28  37  52  83 120 164 213 243 266
#     4   9  14  19  37  61  87 127 161 192 235 261
#     4   9  14  22  36  52  76 116 161 206 245 257
#     4  10  21  34  46  67 100 130 156 194 236 279
#     4  10  21  28  40  63  88 131 172 186 226 289
#
# _framework density 19.508063
#
# number of rings (size 3 to 8) (size 9 to 14) (size 15 to 20)
#    0.000    2.923    2.308    1.615    0.000    4.923 
#    0.000    0.769    0.000    2.769    0.000    1.077 
#    0.000    7.385    0.000    0.000    0.000    0.000 
#
# Total GULP energy -289699.352553 kJ/mol
# GULP energy per Si atom -5571.141395 kJ/mol
# Density = 1.946366 g / cm^3
# Si number density = 19.508063 Si / 1000 Ang^3
#
#
#
# Elastic Constant Matrix: (Units=GPa)
#
#
# Indices 1 2 3 4 5 6 
#
# 1 82.4805 15.4469 -12.0544 0.0000 0.0000 0.0000
# 2 15.4469 72.6065 -8.6509 0.0000 0.0000 0.0000
# 3 -12.0544 -8.6509 30.1903 0.0000 0.0000 0.0000
# 4 0.0000 0.0000 0.0000 11.8704 0.0000 0.0000
# 5 0.0000 0.0000 0.0000 0.0000 2.2293 0.0000
# 6 0.0000 0.0000 0.0000 0.0000 0.0000 12.9199
#
#
#
# Elastic Compliance Matrix: (Units=1/GPa)
#
#
# Indices 1 2 3 4 5 6 
#
# 1 0.013225 -0.002262 0.004632 0.000000 0.000000 0.000000
# 2 -0.002262 0.014646 0.003294 0.000000 0.000000 0.000000
# 3 0.004632 0.003294 0.035917 0.000000 0.000000 0.000000
# 4 0.000000 0.000000 0.000000 0.084243 0.000000 0.000000
# 5 0.000000 0.000000 0.000000 0.000000 0.448575 0.000000
# 6 0.000000 0.000000 0.000000 0.000000 0.000000 0.077400
#
#
# Mechanical properties :
#
#
# Convention : Reuss Voigt Hill
#
# Bulk Modulus (GPa) = 13.31257 19.41783 16.36520
# Shear Modulus (GPa) = 7.27045 18.10631 12.68838
#
# Velocity S-wave (km/s) = 1.93261 3.04985 2.55309
# Velocity P-wave (km/s) = 3.43787 4.73048 4.13500
#
# Compressibility (1/GPa) = 0.07511700
#
# Stress axis : x y z
#
# Youngs Moduli (GPa) = 75.61650 68.27581 27.84220
#
# Poissons Ratio (x) = 0.15441 -0.12897
# Poissons Ratio (y) = 0.17101 -0.09171
# Poissons Ratio (z) = -0.35028 -0.22489
#
# Static dielectric constant tensor:
#      x y z
#    x 1.756790 0.000000 0.000000 
#    y 0.000000 1.709950 0.000000 
#    z 0.000000 0.000000 1.726210 
# 
# From -- ./inp_files/67890.got.cif
#   From: 2010.05.17/outbox.cif.g08.bks.cpg/sg74_34_cif.got.tgz:67890.got - 2010.06.03 17:57:02.
