data_PCOD9533296
_publ_section_title
;
Structure prediction by ZEFSAII (Michael W. Deem and Ramdas Pophale) SiO2 
 PCOD9533296
Probable space group: I B C A 
;
_chemical_formula_sum "Si O2"
_cell_formula_units_Z 112
_cell_length_a 29.080349
_cell_length_b 10.676655
_cell_length_c 17.472574
_cell_angle_alpha 90.000000
_cell_angle_beta 90.000000
_cell_angle_gamma 90.000000
_cell_volume 5424.899689
_symmetry_space_group_name_H-M "I B C A "
_symmetry_group_IT_number 73
_symmetry_cell_setting 'orthorhombic'
loop_
_space_group_symop_operation_xyz
x,y,z
-x,1/2-y,z
x,-y,1/2-z
1/2-x,y,-z
-x,-y,-z
x,1/2+y,-z
-x,y,1/2+z
1/2+x,-y,z
1/2+x,1/2+y,1/2+z
1/2-x,-y,1/2+z
1/2+x,1/2-y,-z
-x,1/2+y,1/2-z
1/2-x,1/2-y,1/2-z
1/2+x,y,1/2-z
1/2-x,1/2+y,z
x,1/2-y,1/2+z
loop_
_atom_site_type_symbol
_atom_site_label
_atom_site_fract_x
_atom_site_fract_y
_atom_site_fract_z
Si Si1 0.853344 0.545298 0.453604
Si Si2 0.500000 0.750000 0.793746
Si Si3 0.881395 0.013541 0.372481
Si Si4 0.457406 0.500000 0.750000
Si Si5 0.270689 0.150995 0.573883
Si Si6 0.414295 0.413558 0.174640
Si Si7 0.171115 0.270904 0.299082
Si Si8 0.180382 0.207766 0.629840
O O1 0.873694 0.556400 0.539614
O O2 0.810239 0.447143 0.449070
O O3 0.893682 0.495344 0.396125
O O4 0.831239 0.674073 0.423173
O O5 0.481954 0.634226 0.742748
O O6 0.541359 0.676976 0.839026
O O7 0.848089 0.093260 0.317798
O O8 0.929489 0.021463 0.328953
O O9 0.866090 0.870637 0.369636
O O10 0.250000 0.219529 0.500000
O O11 0.293024 0.239750 0.635403
O O12 0.221633 0.111306 0.609045
O O13 0.422346 0.500000 0.250000
O O14 0.372269 0.321220 0.193706
O O15 0.190812 0.249233 0.215478
#
# Coordination Sequence:
#
# PCOD9533296 Si02
#       8
#    16   8  16   8  16  16  16  16
#     4  11  27  43  67  99 143 189 231 288 350 418
#     4  12  24  44  80 108 134 180 226 296 348 440
#     4  12  24  44  69 100 137 182 227 284 351 418
#     4  12  26  46  78 106 138 178 232 288 366 426
#     4  11  24  41  61  97 138 189 233 289 334 392
#     4  11  22  46  72 100 139 181 226 279 357 422
#     4  11  23  43  68  95 137 182 236 286 342 413
#     4  12  23  42  67  97 135 190 241 289 339 405
#
# _framework density 20.645543
#
# number of rings (size 3 to 8) (size 9 to 14) (size 15 to 20)
#    0.000    0.571    6.429    1.286    4.000    0.571 
#    2.571    1.429    0.000    0.000    0.000    0.000 
#    0.000    0.000    0.000    0.000    0.000    0.000 
#
# Total GULP energy -311943.523464 kJ/mol
# GULP energy per Si atom -5570.420062 kJ/mol
# Density = 2.059855 g / cm^3
# Si number density = 20.645543 Si / 1000 Ang^3
#
#
#
# Elastic Constant Matrix: (Units=GPa)
#
#
# Indices 1 2 3 4 5 6 
#
# 1 90.7320 35.9328 42.0748 0.0000 0.0000 0.0000
# 2 35.9328 105.6549 44.8224 0.0000 0.0000 0.0000
# 3 42.0748 44.8224 129.1546 0.0000 0.0000 0.0000
# 4 0.0000 0.0000 0.0000 -1.2332 0.0000 0.0000
# 5 0.0000 0.0000 0.0000 0.0000 -58.6708 0.0000
# 6 0.0000 0.0000 0.0000 0.0000 0.0000 53.3252
#
#
#
# Elastic Compliance Matrix: (Units=1/GPa)
#
#
# Indices 1 2 3 4 5 6 
#
# 1 0.013894 -0.003289 -0.003385 0.000000 0.000000 0.000000
# 2 -0.003289 0.011878 -0.003050 0.000000 0.000000 0.000000
# 3 -0.003385 -0.003050 0.009904 0.000000 0.000000 0.000000
# 4 0.000000 0.000000 0.000000 -0.810916 0.000000 0.000000
# 5 0.000000 0.000000 0.000000 0.000000 -0.017044 0.000000
# 6 0.000000 0.000000 0.000000 0.000000 0.000000 0.018753
#
#
# Mechanical properties :
#
#
# Convention : Reuss Voigt Hill
#
# Bulk Modulus (GPa) = 61.62818 63.46685 62.54752
# Shear Modulus (GPa) = -6.67847 12.19834 2.75994
#
# Velocity S-wave (km/s) = -1.80051 2.43337 1.15746
# Velocity P-wave (km/s) = 5.05895 6.22117 5.66992
#
# Compressibility (1/GPa) = 0.01622634
#
# Stress axis : x y z
#
# Youngs Moduli (GPa) = 71.97513 84.19222 100.97007
#
# Poissons Ratio (x) = 0.27694 0.34175
# Poissons Ratio (y) = 0.23675 0.30801
# Poissons Ratio (z) = 0.24361 0.25683
#
# Static dielectric constant tensor:
#      x y z
#    x 1.807880 0.000000 0.000000 
#    y 0.000000 1.760260 0.000000 
#    z 0.000000 0.000000 1.845900 
# 
# From -- ./inp_files/20077.got.cif
#   From: 2010.05.17/outbox.cif.g08.bks.cpg/sg73_11_cif.got.tgz:20077.got - 2010.06.03 17:35:07.
