data_PCOD9533708
_publ_section_title
;
Structure prediction by ZEFSAII (Michael W. Deem and Ramdas Pophale) SiO2 
 PCOD9533708
Probable space group: I B C A 
;
_chemical_formula_sum "Si O2"
_cell_formula_units_Z 56
_cell_length_a 9.700120
_cell_length_b 15.443644
_cell_length_c 14.198014
_cell_angle_alpha 90.000000
_cell_angle_beta 90.000000
_cell_angle_gamma 90.000000
_cell_volume 2126.936327
_symmetry_space_group_name_H-M "I B C A "
_symmetry_group_IT_number 73
_symmetry_cell_setting 'orthorhombic'
loop_
_space_group_symop_operation_xyz
x,y,z
-x,1/2-y,z
x,-y,1/2-z
1/2-x,y,-z
-x,-y,-z
x,1/2+y,-z
-x,y,1/2+z
1/2+x,-y,z
1/2+x,1/2+y,1/2+z
1/2-x,-y,1/2+z
1/2+x,1/2-y,-z
-x,1/2+y,1/2-z
1/2-x,1/2-y,1/2-z
1/2+x,y,1/2-z
1/2-x,1/2+y,z
x,1/2-y,1/2+z
loop_
_atom_site_type_symbol
_atom_site_label
_atom_site_fract_x
_atom_site_fract_y
_atom_site_fract_z
Si Si1 0.423328 0.604852 0.870279
Si Si2 0.689264 0.983321 0.397229
Si Si3 0.168166 0.322380 0.192830
Si Si4 0.000000 0.250000 0.521872
O O1 0.266147 0.571790 0.872100
O O2 0.524868 0.523548 0.889156
O O3 0.446665 0.645184 0.767280
O O4 0.450934 0.673558 0.952503
O O5 0.750000 0.964230 0.500000
O O6 0.741593 0.905536 0.332685
O O7 0.250000 0.250000 0.250000
O O8 0.114204 0.284969 0.094320
#
# Coordination Sequence:
#
# PCOD9533708 Si02
#       4
#    16  16  16   8
#     4  12  29  52  84 118 165 217 280 343 427 500
#     4  12  27  53  77 120 161 216 275 340 422 505
#     4  12  28  47  82 120 164 216 279 342 420 500
#     4  12  26  52  80 114 166 212 274 344 412 506
#
# _framework density 26.328951
#
# number of rings (size 3 to 8) (size 9 to 14) (size 15 to 20)
#    0.000    0.000    2.857    6.000    4.000    4.571 
#    0.000    0.000    0.000    0.000    0.000    0.000 
#    0.000    0.000    0.000    0.000    0.000    0.000 
#
# Total GULP energy -157148.808683 kJ/mol
# GULP energy per Si atom -5612.457453 kJ/mol
# Density = 2.626903 g / cm^3
# Si number density = 26.328951 Si / 1000 Ang^3
#
#
#
# Elastic Constant Matrix: (Units=GPa)
#
#
# Indices 1 2 3 4 5 6 
#
# 1 86.1423 34.1967 26.4051 0.0000 0.0000 0.0000
# 2 34.1967 119.3080 42.7564 0.0000 0.0000 0.0000
# 3 26.4051 42.7564 177.4500 0.0000 0.0000 0.0000
# 4 0.0000 0.0000 0.0000 61.1753 0.0000 0.0000
# 5 0.0000 0.0000 0.0000 0.0000 43.7355 0.0000
# 6 0.0000 0.0000 0.0000 0.0000 0.0000 45.0201
#
#
#
# Elastic Compliance Matrix: (Units=1/GPa)
#
#
# Indices 1 2 3 4 5 6 
#
# 1 0.013315 -0.003400 -0.001162 0.000000 0.000000 0.000000
# 2 -0.003400 0.010042 -0.001914 0.000000 0.000000 0.000000
# 3 -0.001162 -0.001914 0.006269 0.000000 0.000000 0.000000
# 4 0.000000 0.000000 0.000000 0.016346 0.000000 0.000000
# 5 0.000000 0.000000 0.000000 0.000000 0.022865 0.000000
# 6 0.000000 0.000000 0.000000 0.000000 0.000000 0.022212
#
#
# Mechanical properties :
#
#
# Convention : Reuss Voigt Hill
#
# Bulk Modulus (GPa) = 59.97096 65.51299 62.74197
# Shear Modulus (GPa) = 45.63756 48.62232 47.12994
#
# Velocity S-wave (km/s) = 4.16788 4.30202 4.23548
# Velocity P-wave (km/s) = 6.78149 7.04365 6.91381
#
# Compressibility (1/GPa) = 0.01667474
#
# Stress axis : x y z
#
# Youngs Moduli (GPa) = 75.10571 99.58211 159.50464
#
# Poissons Ratio (x) = 0.33856 0.18535
# Poissons Ratio (y) = 0.25535 0.30524
# Poissons Ratio (z) = 0.08728 0.19057
#
# Static dielectric constant tensor:
#      x y z
#    x 2.210610 0.000000 0.000000 
#    y 0.000000 2.041830 0.000000 
#    z 0.000000 0.000000 2.036360 
# 
# From -- ./inp_files/11441.got.cif
#   From: 2010.05.17/outbox.cif.g08.bks.cpg/sg73_6_cif.got.tgz:11441.got - 2010.06.03 17:35:07.
