data_PCOD9533775
_publ_section_title
;
Structure prediction by ZEFSAII (Michael W. Deem and Ramdas Pophale) SiO2 
 PCOD9533775
Probable space group: I B C A 
;
_chemical_formula_sum "Si O2"
_cell_formula_units_Z 36
_cell_length_a 24.000000
_cell_length_b 9.000000
_cell_length_c 18.000000
_cell_angle_alpha 90.000000
_cell_angle_beta 90.000000
_cell_angle_gamma 90.000000
_cell_volume 3888.000000
_symmetry_space_group_name_H-M "I B C A "
_symmetry_group_IT_number 73
_symmetry_cell_setting 'orthorhombic'
loop_
_space_group_symop_operation_xyz
x,y,z
-x,1/2-y,z
x,-y,1/2-z
1/2-x,y,-z
-x,-y,-z
x,1/2+y,-z
-x,y,1/2+z
1/2+x,-y,z
1/2+x,1/2+y,1/2+z
1/2-x,-y,1/2+z
1/2+x,1/2-y,-z
-x,1/2+y,1/2-z
1/2-x,1/2-y,1/2-z
1/2+x,y,1/2-z
1/2-x,1/2+y,z
x,1/2-y,1/2+z
loop_
_atom_site_type_symbol
_atom_site_label
_atom_site_fract_x
_atom_site_fract_y
_atom_site_fract_z
Si Si1 0.114443 0.500000 0.750000
Si Si2 0.953596 0.555716 0.402970
Si Si3 0.079688 0.115028 0.546198
Si Si4 0.713880 0.301585 0.678305
Si Si5 0.708705 0.511937 0.425294
O O1 0.073734 0.457036 0.679827
O O2 0.158053 0.620244 0.712918
O O3 0.932789 0.428694 0.460436
O O4 0.927847 0.709261 0.437290
O O5 0.022478 0.555711 0.409422
O O6 0.144572 0.056684 0.562097
O O7 0.750000 0.250000 0.750000
O O8 0.753784 0.411227 0.630383
O O9 0.700992 0.166935 0.620310
O O10 0.750000 0.527916 0.500000
#
# Coordination Sequence:
#
# PCOD9533775 Si02
#       5
#     8  16  16  16  16
#     4  12  24  46  72  98 142 178 228 292 354 416
#     4  10  24  47  70  99 136 181 229 288 344 408
#     4  10  24  46  70  99 136 179 236 279 338 421
#     4  12  25  45  65 100 142 177 221 289 349 405
#     4  12  26  42  71 103 136 184 231 281 345 418
#
# _framework density 9.2592590000000001
#
# number of rings (size 3 to 8) (size 9 to 14) (size 15 to 20)
#    0.000    0.889    2.222    3.333    9.333    0.000 
#   12.000    0.000    0.000    0.000    0.000    0.000 
#    0.000    0.000    0.000    0.000    0.000    0.000 
#
# Total GULP energy -200508.970219 kJ/mol
# GULP energy per Si atom -5569.693617 kJ/mol
# Density = 0.923818 g / cm^3
# Si number density = 9.259259 Si / 1000 Ang^3
#
#
#
# Elastic Constant Matrix: (Units=GPa)
#
#
# Indices 1 2 3 4 5 6 
#
# 1 170.0357 36.9868 65.2932 0.0000 0.0000 0.0000
# 2 36.9868 97.5603 60.5131 0.0000 0.0000 0.0000
# 3 65.2932 60.5131 178.6180 0.0000 0.0000 0.0000
# 4 0.0000 0.0000 0.0000 46.6685 0.0000 0.0000
# 5 0.0000 0.0000 0.0000 0.0000 54.1579 0.0000
# 6 0.0000 0.0000 0.0000 0.0000 0.0000 35.3851
#
#
#
# Elastic Compliance Matrix: (Units=1/GPa)
#
#
# Indices 1 2 3 4 5 6 
#
# 1 0.006978 -0.001346 -0.002095 0.000000 0.000000 0.000000
# 2 -0.001346 0.013237 -0.003992 0.000000 0.000000 0.000000
# 3 -0.002095 -0.003992 0.007717 0.000000 0.000000 0.000000
# 4 0.000000 0.000000 0.000000 0.021428 0.000000 0.000000
# 5 0.000000 0.000000 0.000000 0.000000 0.018465 0.000000
# 6 0.000000 0.000000 0.000000 0.000000 0.000000 0.028261
#
#
# Mechanical properties :
#
#
# Convention : Reuss Voigt Hill
#
# Bulk Modulus (GPa) = 76.53940 85.75556 81.14748
# Shear Modulus (GPa) = 43.36270 46.13703 44.74986
#
# Velocity S-wave (km/s) = 4.84424 4.99681 4.92112
# Velocity P-wave (km/s) = 8.52701 8.92745 8.72953
#
# Compressibility (1/GPa) = 0.01306517
#
# Stress axis : x y z
#
# Youngs Moduli (GPa) = 143.29994 75.54738 129.58709
#
# Poissons Ratio (x) = 0.10171 0.27146
# Poissons Ratio (y) = 0.19292 0.51735
# Poissons Ratio (z) = 0.30019 0.30161
#
# Static dielectric constant tensor:
#      x y z
#    x 1.666380 0.000000 0.000000 
#    y 0.000000 1.700690 0.000000 
#    z 0.000000 0.000000 1.637530 
# 
# From -- ./inp_files/5307.got.cif
#   From: 2010.05.17/outbox.ucp.g08.bks.cvg/sg73_3_cif.got.tgz:5307.got - 2010.06.11 16:36:03.
