data_PCOD9533340
_publ_section_title
;
Structure prediction by ZEFSAII (Michael W. Deem and Ramdas Pophale) SiO2 
 PCOD9533340
Probable space group: I B C A 
;
_chemical_formula_sum "Si O2"
_cell_formula_units_Z 56
_cell_length_a 7.809593
_cell_length_b 27.581037
_cell_length_c 9.079419
_cell_angle_alpha 90.000000
_cell_angle_beta 90.000000
_cell_angle_gamma 90.000000
_cell_volume 1955.676650
_symmetry_space_group_name_H-M "I B C A "
_symmetry_group_IT_number 73
_symmetry_cell_setting 'orthorhombic'
loop_
_space_group_symop_operation_xyz
x,y,z
-x,1/2-y,z
x,-y,1/2-z
1/2-x,y,-z
-x,-y,-z
x,1/2+y,-z
-x,y,1/2+z
1/2+x,-y,z
1/2+x,1/2+y,1/2+z
1/2-x,-y,1/2+z
1/2+x,1/2-y,-z
-x,1/2+y,1/2-z
1/2-x,1/2-y,1/2-z
1/2+x,y,1/2-z
1/2-x,1/2+y,z
x,1/2-y,1/2+z
loop_
_atom_site_type_symbol
_atom_site_label
_atom_site_fract_x
_atom_site_fract_y
_atom_site_fract_z
Si Si1 0.250000 0.250000 0.250000
Si Si2 0.792275 0.444340 0.277656
Si Si3 0.994827 0.907006 0.981520
Si Si4 0.998653 0.799718 0.467115
O O1 0.337598 0.208488 0.359962
O O2 0.342518 0.290805 0.357918
O O3 0.749644 0.500000 0.250000
O O4 0.652862 0.414841 0.368529
O O5 0.958820 0.442680 0.385740
O O6 0.838947 0.419029 0.125597
O O7 0.994918 0.851734 0.036218
O O8 0.000000 0.750000 0.574980
#
# Coordination Sequence:
#
# PCOD9533340 Si02
#       4
#     8  16  16  16
#     4   6  14  26  56  84 140 162 220 254 332 398
#     4  11  25  43  66  98 135 184 249 304 357 420
#     4  11  23  42  71  98 139 187 233 298 371 427
#     4   8  15  32  59  94 134 173 216 270 338 423
#
# _framework density 28.634589999999999
#
# number of rings (size 3 to 8) (size 9 to 14) (size 15 to 20)
#    1.714    0.571    0.000    3.429    0.000    3.429 
#    0.000    1.429    0.000    0.000    0.000    0.000 
#    0.000    0.000    0.000    0.000    0.000    0.000 
#
# Total GULP energy -156190.425739 kJ/mol
# GULP energy per Si atom -5578.229491 kJ/mol
# Density = 2.856942 g / cm^3
# Si number density = 28.634590 Si / 1000 Ang^3
#
#
#
# Elastic Constant Matrix: (Units=GPa)
#
#
# Indices 1 2 3 4 5 6 
#
# 1 62.8217 27.5936 31.7293 0.0003 0.0001 0.0001
# 2 27.5936 213.4408 32.8318 0.0000 -0.0001 0.0001
# 3 31.7293 32.8318 162.9945 0.0001 -0.0025 0.0002
# 4 0.0003 0.0000 0.0001 24.0712 -0.0005 0.0001
# 5 0.0001 -0.0001 -0.0025 -0.0005 44.5474 -0.0002
# 6 0.0001 0.0001 0.0002 0.0001 -0.0002 41.4082
#
#
#
# Elastic Compliance Matrix: (Units=1/GPa)
#
#
# Indices 1 2 3 4 5 6 
#
# 1 0.018358 -0.001882 -0.003195 0.000000 0.000000 0.000000
# 2 -0.001882 0.005028 -0.000646 0.000000 0.000000 0.000000
# 3 -0.003195 -0.000646 0.006887 0.000000 0.000000 0.000000
# 4 0.000000 0.000000 0.000000 0.041543 0.000000 0.000000
# 5 0.000000 0.000000 0.000000 0.000000 0.022448 0.000000
# 6 0.000000 0.000000 0.000000 0.000000 0.000000 0.024150
#
#
# Mechanical properties :
#
#
# Convention : Reuss Voigt Hill
#
# Bulk Modulus (GPa) = 53.11413 69.28516 61.19964
# Shear Modulus (GPa) = 36.72789 45.14551 40.93670
#
# Velocity S-wave (km/s) = 3.58528 3.97496 3.78514
# Velocity P-wave (km/s) = 5.97731 6.73171 6.36569
#
# Compressibility (1/GPa) = 0.01882738
#
# Stress axis : x y z
#
# Youngs Moduli (GPa) = 54.47157 198.89141 145.19556
#
# Poissons Ratio (x) = 0.37430 0.46384
# Poissons Ratio (y) = 0.10251 0.09386
# Poissons Ratio (z) = 0.17402 0.12857
#
# Static dielectric constant tensor:
#      x y z
#    x 2.499540 0.000000 0.000000 
#    y 0.000000 2.053450 0.000000 
#    z 0.000000 0.000000 2.313280 
# 
# From -- ./inp_files/9032.got.cif
#   From: 2010.05.17/outbox.cif.g08.bks.cpg/sg73_5_cif.got.tgz:9032.got - 2010.06.03 17:35:07.
