data_PCOD9533132
_publ_section_title
;
Structure prediction by ZEFSAII (Michael W. Deem and Ramdas Pophale) SiO2 
 PCOD9533132
Probable space group: I B C A 
;
_chemical_formula_sum "Si O2"
_cell_formula_units_Z 88
_cell_length_a 8.703542
_cell_length_b 21.297069
_cell_length_c 18.857964
_cell_angle_alpha 90.000000
_cell_angle_beta 90.000000
_cell_angle_gamma 90.000000
_cell_volume 3495.510972
_symmetry_space_group_name_H-M "I B C A "
_symmetry_group_IT_number 73
_symmetry_cell_setting 'orthorhombic'
loop_
_space_group_symop_operation_xyz
x,y,z
-x,1/2-y,z
x,-y,1/2-z
1/2-x,y,-z
-x,-y,-z
x,1/2+y,-z
-x,y,1/2+z
1/2+x,-y,z
1/2+x,1/2+y,1/2+z
1/2-x,-y,1/2+z
1/2+x,1/2-y,-z
-x,1/2+y,1/2-z
1/2-x,1/2-y,1/2-z
1/2+x,y,1/2-z
1/2-x,1/2+y,z
x,1/2-y,1/2+z
loop_
_atom_site_type_symbol
_atom_site_label
_atom_site_fract_x
_atom_site_fract_y
_atom_site_fract_z
Si Si1 0.250000 0.427734 0.500000
Si Si2 0.331698 0.801629 0.669831
Si Si3 0.108495 0.807081 0.175739
Si Si4 0.406085 0.129801 0.534571
Si Si5 0.000000 0.250000 0.040919
Si Si6 0.271432 0.934709 0.342715
Si Si7 0.523197 0.500000 0.750000
O O1 0.423800 0.396885 0.513944
O O2 0.233231 0.457541 0.577864
O O3 0.423164 0.818718 0.741300
O O4 0.269905 0.730716 0.678052
O O5 0.414007 0.796621 0.594804
O O6 0.213642 0.858991 0.660044
O O7 0.115238 0.862921 0.119506
O O8 0.000000 0.750000 0.151643
O O9 0.250000 0.100941 0.500000
O O10 0.408678 0.202032 0.507668
O O11 0.416574 0.967208 0.308015
O O12 0.130881 0.952404 0.292051
#
# Coordination Sequence:
#
# PCOD9533132 Si02
#       7
#     8  16  16  16   8  16   8
#     4  12  28  48  82 112 150 206 254 310 394 464
#     4  11  24  39  66 101 148 195 251 285 363 460
#     4  11  23  36  60 103 150 201 236 290 348 446
#     4  12  26  42  65 108 161 205 243 294 362 450
#     4  12  22  40  60 104 154 198 242 284 350 456
#     4  11  26  51  78 110 140 197 252 324 394 457
#     4  10  28  54  80 102 144 188 258 346 396 440
#
# _framework density 25.175146000000002
#
# number of rings (size 3 to 8) (size 9 to 14) (size 15 to 20)
#    0.000    0.727    5.455    1.091    6.364    2.182 
#    3.273    0.000    0.000    0.000    0.000    0.000 
#    0.000    0.000    0.000    0.000    0.000    0.000 
#
# Total GULP energy -245556.604354 kJ/mol
# GULP energy per Si atom -5580.831917 kJ/mol
# Density = 2.511785 g / cm^3
# Si number density = 25.175146 Si / 1000 Ang^3
#
#
#
# Elastic Constant Matrix: (Units=GPa)
#
#
# Indices 1 2 3 4 5 6 
#
# 1 132.1892 28.8628 36.8760 0.0000 0.0000 0.0000
# 2 28.8628 64.3119 15.1059 0.0000 0.0000 0.0000
# 3 36.8760 15.1059 173.1363 0.0000 0.0000 0.0000
# 4 0.0000 0.0000 0.0000 13.7249 0.0000 0.0000
# 5 0.0000 0.0000 0.0000 0.0000 -63.0427 0.0000
# 6 0.0000 0.0000 0.0000 0.0000 0.0000 -12.0737
#
#
#
# Elastic Compliance Matrix: (Units=1/GPa)
#
#
# Indices 1 2 3 4 5 6 
#
# 1 0.008780 -0.003574 -0.001558 0.000000 0.000000 0.000000
# 2 -0.003574 0.017330 -0.000751 0.000000 0.000000 0.000000
# 3 -0.001558 -0.000751 0.006173 0.000000 0.000000 0.000000
# 4 0.000000 0.000000 0.000000 0.072860 0.000000 0.000000
# 5 0.000000 0.000000 0.000000 0.000000 -0.015862 0.000000
# 6 0.000000 0.000000 0.000000 0.000000 0.000000 -0.082825
#
#
# Mechanical properties :
#
#
# Convention : Reuss Voigt Hill
#
# Bulk Modulus (GPa) = 48.74164 59.03631 53.88898
# Shear Modulus (GPa) = 199.51167 6.97456 103.24311
#
# Velocity S-wave (km/s) = 8.91187 1.66626 6.41085
# Velocity P-wave (km/s) = 11.19368 5.21565 8.73217
#
# Compressibility (1/GPa) = 0.02051634
#
# Stress axis : x y z
#
# Youngs Moduli (GPa) = 113.89449 57.70430 161.99137
#
# Poissons Ratio (x) = 0.20626 0.25241
# Poissons Ratio (y) = 0.40711 0.12160
# Poissons Ratio (z) = 0.17747 0.04332
#
# Static dielectric constant tensor:
#      x y z
#    x 2.179140 0.000000 0.000000 
#    y 0.000000 1.994970 0.000000 
#    z 0.000000 0.000000 1.996430 
# 
# From -- ./inp_files/24823.got.cif
#   From: 2010.05.17/outbox.cif.g08.bks.cpg/sg73_13_cif.got.tgz:24823.got - 2010.06.03 17:35:07.
