data_PCOD9533731
_publ_section_title
;
Structure prediction by ZEFSAII (Michael W. Deem and Ramdas Pophale) SiO2 
 PCOD9533731
Probable space group: I B C A 
;
_chemical_formula_sum "Si O2"
_cell_formula_units_Z 44
_cell_length_a 18.000000
_cell_length_b 15.000000
_cell_length_c 18.000000
_cell_angle_alpha 90.000000
_cell_angle_beta 90.000000
_cell_angle_gamma 90.000000
_cell_volume 4860.000000
_symmetry_space_group_name_H-M "I B C A "
_symmetry_group_IT_number 73
_symmetry_cell_setting 'orthorhombic'
loop_
_space_group_symop_operation_xyz
x,y,z
-x,1/2-y,z
x,-y,1/2-z
1/2-x,y,-z
-x,-y,-z
x,1/2+y,-z
-x,y,1/2+z
1/2+x,-y,z
1/2+x,1/2+y,1/2+z
1/2-x,-y,1/2+z
1/2+x,1/2-y,-z
-x,1/2+y,1/2-z
1/2-x,1/2-y,1/2-z
1/2+x,y,1/2-z
1/2-x,1/2+y,z
x,1/2-y,1/2+z
loop_
_atom_site_type_symbol
_atom_site_label
_atom_site_fract_x
_atom_site_fract_y
_atom_site_fract_z
Si Si1 0.824020 0.336699 0.453270
Si Si2 0.000000 0.250000 0.147499
Si Si3 0.093005 0.576069 0.314643
Si Si4 0.362533 0.677929 0.053559
Si Si5 0.270675 0.789176 0.171594
Si Si6 0.913669 0.994593 0.482987
O O1 0.750000 0.361438 0.500000
O O2 0.849202 0.241646 0.483643
O O3 0.800603 0.330694 0.368683
O O4 0.883886 0.408316 0.474696
O O5 0.034181 0.339086 0.188346
O O6 0.062759 0.207857 0.094986
O O7 0.086559 0.500000 0.250000
O O8 0.169534 0.632456 0.316455
O O9 0.092117 0.524933 0.394489
O O10 0.301521 0.711925 0.114822
O O11 0.370682 0.579065 0.019823
O O12 0.250000 0.750000 0.250000
O O13 0.000000 0.000000 0.500000
#
# Coordination Sequence:
#
# PCOD9533731 Si02
#       6
#    16   8  16  16  16  16
#     4  10  20  40  62  91 122 167 215 261 319 377
#     4  10  18  46  62  86 134 162 206 266 322 386
#     4  11  24  42  65  95 133 172 212 274 331 389
#     4  10  20  37  66  88 123 166 208 264 315 379
#     4  10  23  43  61  92 134 170 214 269 330 376
#     4  12  22  40  67  97 126 167 221 264 324 398
#
# _framework density 9.0534979999999994
#
# number of rings (size 3 to 8) (size 9 to 14) (size 15 to 20)
#    0.000    1.455    7.273    0.000    2.545    3.636 
#    6.545    0.909    0.000    0.000    0.000    0.000 
#    0.000    0.000    0.000    0.000    0.000    0.000 
#
# Total GULP energy -244966.315021 kJ/mol
# GULP energy per Si atom -5567.416250 kJ/mol
# Density = 0.903289 g / cm^3
# Si number density = 9.053498 Si / 1000 Ang^3
#
#
#
# Elastic Constant Matrix: (Units=GPa)
#
#
# Indices 1 2 3 4 5 6 
#
# 1 53.1969 25.1840 47.0742 0.0000 0.0000 0.0000
# 2 25.1840 85.6315 74.6989 0.0000 0.0000 0.0000
# 3 47.0742 74.6989 148.6316 0.0000 0.0000 0.0000
# 4 0.0000 0.0000 0.0000 36.9886 0.0000 0.0000
# 5 0.0000 0.0000 0.0000 0.0000 16.6886 0.0000
# 6 0.0000 0.0000 0.0000 0.0000 0.0000 20.1481
#
#
#
# Elastic Compliance Matrix: (Units=1/GPa)
#
#
# Indices 1 2 3 4 5 6 
#
# 1 0.026151 -0.000830 -0.007866 0.000000 0.000000 0.000000
# 2 -0.000830 0.020821 -0.010201 0.000000 0.000000 0.000000
# 3 -0.007866 -0.010201 0.014346 0.000000 0.000000 0.000000
# 4 0.000000 0.000000 0.000000 0.027035 0.000000 0.000000
# 5 0.000000 0.000000 0.000000 0.000000 0.059921 0.000000
# 6 0.000000 0.000000 0.000000 0.000000 0.000000 0.049632
#
#
# Mechanical properties :
#
#
# Convention : Reuss Voigt Hill
#
# Bulk Modulus (GPa) = 42.50779 64.59714 53.55247
# Shear Modulus (GPa) = 20.53037 24.13193 22.33115
#
# Velocity S-wave (km/s) = 3.37090 3.65463 3.51563
# Velocity P-wave (km/s) = 6.21912 7.31855 6.79112
#
# Compressibility (1/GPa) = 0.02352510
#
# Stress axis : x y z
#
# Youngs Moduli (GPa) = 38.23929 48.02875 69.70507
#
# Poissons Ratio (x) = 0.03985 0.54827
# Poissons Ratio (y) = 0.03172 0.71109
# Poissons Ratio (z) = 0.30077 0.48996
#
# Static dielectric constant tensor:
#      x y z
#    x 1.840880 0.000000 0.000000 
#    y 0.000000 1.623050 0.000000 
#    z 0.000000 0.000000 1.627770 
# 
# From -- ./inp_files/21963.got.cif
#   From: 2010.05.17/outbox.ucp.g08.bks.cvg/sg73_11_cif.got.tgz:21963.got - 2010.06.11 16:36:03.
