data_PCOD9533871
_publ_section_title
;
Structure prediction by ZEFSAII (Michael W. Deem and Ramdas Pophale) SiO2 
 PCOD9533871
Probable space group: I M M A
;
_chemical_formula_sum "Si O2"
_cell_formula_units_Z 56
_cell_length_a 32.096106
_cell_length_b 14.756451
_cell_length_c 5.229478
_cell_angle_alpha 90.000000
_cell_angle_beta 90.000000
_cell_angle_gamma 90.000000
_cell_volume 2476.809507
_symmetry_space_group_name_H-M "I M M A"
_symmetry_group_IT_number 74
_symmetry_cell_setting 'orthorhombic'
loop_
_space_group_symop_operation_xyz
x,y,z
-x,1/2-y,z
x,-y,-z
-x,1/2+y,-z
-x,-y,-z
x,1/2+y,-z
-x,y,z
x,1/2-y,z
1/2+x,1/2+y,1/2+z
1/2-x,-y,1/2+z
1/2+x,1/2-y,1/2-z
1/2-x,y,1/2-z
1/2-x,1/2-y,1/2-z
1/2+x,y,1/2-z
1/2-x,1/2+y,1/2+z
1/2+x,-y,1/2+z
loop_
_atom_site_type_symbol
_atom_site_label
_atom_site_fract_x
_atom_site_fract_y
_atom_site_fract_z
Si Si1 0.500000 0.934233 0.742698
Si Si2 0.913971 0.390562 0.036925
Si Si3 0.628080 0.393885 0.976060
Si Si4 0.724939 0.359373 0.997757
O O1 0.458248 0.877173 0.682778
O O2 0.500000 0.000000 0.500000
O O3 0.500000 0.000000 0.000000
O O4 0.881694 0.355355 0.245176
O O5 0.910869 0.500000 0.000000
O O6 0.900209 0.356540 0.756634
O O7 0.677407 0.387651 0.947804
O O8 0.616783 0.500000 0.000000
O O9 0.724368 0.250000 0.009684
O O10 0.750000 0.388642 0.750000
O O11 0.750000 0.390774 0.250000
#
# Coordination Sequence:
#
# PCOD9533871 Si02
#       4
#     8  16  16  16
#     4  10  16  26  44  68 101 136 163 192 237 286
#     4   9  17  28  44  70 100 128 158 195 237 284
#     4  10  19  31  48  72  99 124 157 201 245 287
#     4  10  21  36  52  70  93 124 163 202 243 298
#
# _framework density 22.609732999999999
#
# number of rings (size 3 to 8) (size 9 to 14) (size 15 to 20)
#    0.000    2.286    0.000    6.000    0.000    1.143 
#    0.000    0.000    0.000    0.000    0.000    6.000 
#    0.000    0.000    0.000    0.000    0.000    0.000 
#
# Total GULP energy -155874.968652 kJ/mol
# GULP energy per Si atom -5566.963166 kJ/mol
# Density = 2.255827 g / cm^3
# Si number density = 22.609733 Si / 1000 Ang^3
#
#
#
# Elastic Constant Matrix: (Units=GPa)
#
#
# Indices 1 2 3 4 5 6 
#
# 1 141.9092 -11.8271 78.6613 0.0003 -0.0001 0.0001
# 2 -11.8271 68.3341 10.8510 0.0005 0.0000 0.0000
# 3 78.6613 10.8510 212.6745 0.0027 -0.0007 0.0002
# 4 0.0003 0.0005 0.0027 -24.3305 -0.0001 0.0002
# 5 -0.0001 0.0000 -0.0007 -0.0001 45.9427 0.0000
# 6 0.0001 0.0000 0.0002 0.0002 0.0000 65.7034
#
#
#
# Elastic Compliance Matrix: (Units=1/GPa)
#
#
# Indices 1 2 3 4 5 6 
#
# 1 0.009165 0.002142 -0.003499 0.000000 0.000000 0.000000
# 2 0.002142 0.015254 -0.001570 0.000000 0.000000 0.000000
# 3 -0.003499 -0.001570 0.006076 0.000001 0.000000 0.000000
# 4 0.000000 0.000000 0.000001 -0.041101 0.000000 0.000000
# 5 0.000000 0.000000 0.000000 0.000000 0.021766 0.000000
# 6 0.000000 0.000000 0.000000 0.000000 0.000000 0.015220
#
#
# Mechanical properties :
#
#
# Convention : Reuss Voigt Hill
#
# Bulk Modulus (GPa) = 40.58468 64.25425 52.41946
# Shear Modulus (GPa) = 123.61162 40.47863 82.04512
#
# Velocity S-wave (km/s) = 7.40206 4.23581 6.03045
# Velocity P-wave (km/s) = 9.54165 7.23901 8.46896
#
# Compressibility (1/GPa) = 0.02463984
#
# Stress axis : x y z
#
# Youngs Moduli (GPa) = 109.11301 65.55632 164.57308
#
# Poissons Ratio (x) = -0.14041 0.57585
# Poissons Ratio (y) = -0.23370 0.25846
# Poissons Ratio (z) = 0.38179 0.10296
#
# Static dielectric constant tensor:
#      x y z
#    x 1.920250 0.000000 0.000000 
#    y 0.000000 1.905300 0.000000 
#    z 0.000000 0.000000 1.810180 
# 
# From -- ./inp_files/2161.got.cif
#   From: 2010.05.17/outbox.cif.g08.bks.cpg/sg74_2_cif.got.tgz:2161.got - 2010.06.03 17:57:02.
