data_PCOD9533733
_publ_section_title
;
Structure prediction by ZEFSAII (Michael W. Deem and Ramdas Pophale) SiO2 
 PCOD9533733
Probable space group: I B C A 
;
_chemical_formula_sum "Si O2"
_cell_formula_units_Z 60
_cell_length_a 24.000000
_cell_length_b 9.000000
_cell_length_c 30.000000
_cell_angle_alpha 90.000000
_cell_angle_beta 90.000000
_cell_angle_gamma 90.000000
_cell_volume 6480.000000
_symmetry_space_group_name_H-M "I B C A "
_symmetry_group_IT_number 73
_symmetry_cell_setting 'orthorhombic'
loop_
_space_group_symop_operation_xyz
x,y,z
-x,1/2-y,z
x,-y,1/2-z
1/2-x,y,-z
-x,-y,-z
x,1/2+y,-z
-x,y,1/2+z
1/2+x,-y,z
1/2+x,1/2+y,1/2+z
1/2-x,-y,1/2+z
1/2+x,1/2-y,-z
-x,1/2+y,1/2-z
1/2-x,1/2-y,1/2-z
1/2+x,y,1/2-z
1/2-x,1/2+y,z
x,1/2-y,1/2+z
loop_
_atom_site_type_symbol
_atom_site_label
_atom_site_fract_x
_atom_site_fract_y
_atom_site_fract_z
Si Si1 0.695786 0.144595 0.906900
Si Si2 0.582324 0.620137 0.041274
Si Si3 0.737909 0.500000 0.750000
Si Si4 0.047618 0.879518 0.789839
Si Si5 0.223600 0.442798 0.549442
Si Si6 0.821775 0.224810 0.197298
Si Si7 0.407492 0.527678 0.052673
Si Si8 0.000045 0.570085 0.383930
O O1 0.640213 0.091285 0.932544
O O2 0.721142 0.269509 0.939383
O O3 0.685117 0.207504 0.856956
O O4 0.740001 0.013881 0.911170
O O5 0.578919 0.799395 0.041976
O O6 0.537903 0.540012 0.072991
O O7 0.576023 0.566409 0.990748
O O8 0.700032 0.382517 0.780053
O O9 0.779978 0.601535 0.780357
O O10 0.111443 0.811624 0.794110
O O11 0.028031 0.962978 0.836045
O O12 0.000000 0.750000 0.782563
O O13 0.047462 0.000000 0.750000
O O14 0.250000 0.468112 0.500000
O O15 0.159287 0.492806 0.554310
O O16 0.440185 0.505867 0.099830
O O17 0.000000 0.750000 0.381772
#
# Coordination Sequence:
#
# PCOD9533733 Si02
#       8
#    16  16   8  16  16  16  16  16
#     4  11  22  36  59  86 121 167 202 253 318 385
#     4  10  19  35  56  83 113 157 199 244 301 366
#     4  10  24  42  72 100 128 166 212 280 342 412
#     4  11  24  43  69  93 127 169 218 277 334 395
#     4  11  22  35  55  86 125 161 206 249 307 376
#     4  11  22  45  67  98 131 166 218 273 341 407
#     4  10  21  34  58  85 118 158 206 251 304 374
#     4   9  19  39  61  82 113 159 204 251 313 377
#
# _framework density 9.2592590000000001
#
# number of rings (size 3 to 8) (size 9 to 14) (size 15 to 20)
#    0.000    1.600    3.333    1.600    4.667    0.000 
#    0.000    1.333    0.000    0.000    0.000    0.000 
#    0.000    0.000    0.000    0.000    0.000    0.000 
#
# Total GULP energy -334077.671089 kJ/mol
# GULP energy per Si atom -5567.961185 kJ/mol
# Density = 0.923818 g / cm^3
# Si number density = 9.259259 Si / 1000 Ang^3
#
#
#
# Elastic Constant Matrix: (Units=GPa)
#
#
# Indices 1 2 3 4 5 6 
#
# 1 125.6687 41.5628 47.9034 0.0000 0.0000 0.0000
# 2 41.5628 37.3369 28.7432 0.0000 0.0000 0.0000
# 3 47.9034 28.7432 125.9450 0.0000 0.0000 0.0000
# 4 0.0000 0.0000 0.0000 31.8713 0.0000 0.0000
# 5 0.0000 0.0000 0.0000 0.0000 40.6707 0.0000
# 6 0.0000 0.0000 0.0000 0.0000 0.0000 14.3573
#
#
#
# Elastic Compliance Matrix: (Units=1/GPa)
#
#
# Indices 1 2 3 4 5 6 
#
# 1 0.012993 -0.012931 -0.001991 0.000000 0.000000 0.000000
# 2 -0.012931 0.045361 -0.005434 0.000000 0.000000 0.000000
# 3 -0.001991 -0.005434 0.009937 0.000000 0.000000 0.000000
# 4 0.000000 0.000000 0.000000 0.031376 0.000000 0.000000
# 5 0.000000 0.000000 0.000000 0.000000 0.024588 0.000000
# 6 0.000000 0.000000 0.000000 0.000000 0.000000 0.069651
#
#
# Mechanical properties :
#
#
# Convention : Reuss Voigt Hill
#
# Bulk Modulus (GPa) = 36.25845 58.37437 47.31641
# Shear Modulus (GPa) = 20.50768 28.76261 24.63514
#
# Velocity S-wave (km/s) = 3.33139 3.94532 3.65128
# Velocity P-wave (km/s) = 5.86683 7.23496 6.58651
#
# Compressibility (1/GPa) = 0.02757978
#
# Stress axis : x y z
#
# Youngs Moduli (GPa) = 76.96450 22.04540 100.63081
#
# Poissons Ratio (x) = 0.28507 0.20034
# Poissons Ratio (y) = 0.99523 0.54682
# Poissons Ratio (z) = 0.15322 0.11979
#
# Static dielectric constant tensor:
#      x y z
#    x 1.725830 0.000000 0.000000 
#    y 0.000000 1.657630 0.000000 
#    z 0.000000 0.000000 1.641240 
# 
# From -- ./inp_files/34811.got.cif
#   From: 2010.05.17/outbox.ucp.g08.bks.cvg/sg73_18_cif.got.tgz:34811.got - 2010.06.11 16:36:03.
