data_PCOD9533148
_publ_section_title
;
Structure prediction by ZEFSAII (Michael W. Deem and Ramdas Pophale) SiO2 
 PCOD9533148
Probable space group: I B C A 
;
_chemical_formula_sum "Si O2"
_cell_formula_units_Z 80
_cell_length_a 18.573653
_cell_length_b 14.296644
_cell_length_c 15.448673
_cell_angle_alpha 90.000000
_cell_angle_beta 90.000000
_cell_angle_gamma 90.000000
_cell_volume 4102.254605
_symmetry_space_group_name_H-M "I B C A "
_symmetry_group_IT_number 73
_symmetry_cell_setting 'orthorhombic'
loop_
_space_group_symop_operation_xyz
x,y,z
-x,1/2-y,z
x,-y,1/2-z
1/2-x,y,-z
-x,-y,-z
x,1/2+y,-z
-x,y,1/2+z
1/2+x,-y,z
1/2+x,1/2+y,1/2+z
1/2-x,-y,1/2+z
1/2+x,1/2-y,-z
-x,1/2+y,1/2-z
1/2-x,1/2-y,1/2-z
1/2+x,y,1/2-z
1/2-x,1/2+y,z
x,1/2-y,1/2+z
loop_
_atom_site_type_symbol
_atom_site_label
_atom_site_fract_x
_atom_site_fract_y
_atom_site_fract_z
Si Si1 0.543443 0.907943 0.691022
Si Si2 0.081467 0.034859 0.507327
Si Si3 0.667052 0.851961 0.024865
Si Si4 0.083559 0.218598 0.392795
Si Si5 0.104068 0.795197 0.296293
O O1 0.587056 0.942637 0.608001
O O2 0.464273 0.861469 0.677683
O O3 0.585334 0.814348 0.718067
O O4 0.536099 0.000000 0.750000
O O5 0.084426 0.129531 0.454448
O O6 0.136535 0.957197 0.475193
O O7 0.000000 0.000000 0.500000
O O8 0.654739 0.807822 0.120521
O O9 0.750000 0.848762 0.000000
O O10 0.622162 0.798649 0.949350
O O11 0.121026 0.183126 0.303873
O O12 0.000000 0.250000 0.375650
#
# Coordination Sequence:
#
# PCOD9533148 Si02
#       5
#    16  16  16  16  16
#     4  11  20  38  67 108 131 165 227 297 333 391
#     4  12  22  38  71 100 132 176 235 284 334 400
#     4  12  28  46  65 100 147 186 226 281 350 420
#     4  12  22  41  74 104 130 181 233 291 347 404
#     4  11  23  40  69 101 137 172 227 284 350 403
#
# _framework density 19.501470999999999
#
# number of rings (size 3 to 8) (size 9 to 14) (size 15 to 20)
#    0.000    0.400    8.000    2.400    0.000    1.600 
#    0.000    0.000    4.400    0.000    0.000    0.000 
#    0.000    0.000    0.000    0.000    0.000    0.000 
#
# Total GULP energy -222947.124869 kJ/mol
# GULP energy per Si atom -5573.678122 kJ/mol
# Density = 1.945708 g / cm^3
# Si number density = 19.501471 Si / 1000 Ang^3
#
#
#
# Elastic Constant Matrix: (Units=GPa)
#
#
# Indices 1 2 3 4 5 6 
#
# 1 78.2993 29.8874 30.7518 0.0000 0.0000 0.0000
# 2 29.8874 108.9538 16.8397 0.0000 0.0000 0.0000
# 3 30.7518 16.8397 97.0839 0.0000 0.0000 0.0000
# 4 0.0000 0.0000 0.0000 39.6871 0.0000 0.0000
# 5 0.0000 0.0000 0.0000 0.0000 20.0951 0.0000
# 6 0.0000 0.0000 0.0000 0.0000 0.0000 4.5961
#
#
#
# Elastic Compliance Matrix: (Units=1/GPa)
#
#
# Indices 1 2 3 4 5 6 
#
# 1 0.015905 -0.003683 -0.004399 0.000000 0.000000 0.000000
# 2 -0.003683 0.010284 -0.000617 0.000000 0.000000 0.000000
# 3 -0.004399 -0.000617 0.011801 0.000000 0.000000 0.000000
# 4 0.000000 0.000000 0.000000 0.025197 0.000000 0.000000
# 5 0.000000 0.000000 0.000000 0.000000 0.049763 0.000000
# 6 0.000000 0.000000 0.000000 0.000000 0.000000 0.217574
#
#
# Mechanical properties :
#
#
# Convention : Reuss Voigt Hill
#
# Bulk Modulus (GPa) = 48.56467 48.81053 48.68760
# Shear Modulus (GPa) = 14.09296 26.66621 20.37959
#
# Velocity S-wave (km/s) = 2.69115 3.70184 3.23620
# Velocity P-wave (km/s) = 5.88333 6.58445 6.24374
#
# Compressibility (1/GPa) = 0.02059110
#
# Stress axis : x y z
#
# Youngs Moduli (GPa) = 62.87283 97.23940 84.73942
#
# Poissons Ratio (x) = 0.35814 0.37278
# Poissons Ratio (y) = 0.23156 0.05230
# Poissons Ratio (z) = 0.27659 0.06001
#
# Static dielectric constant tensor:
#      x y z
#    x 1.668460 0.000000 0.000000 
#    y 0.000000 1.708500 0.000000 
#    z 0.000000 0.000000 1.922640 
# 
# From -- ./inp_files/18510.got.cif
#   From: 2010.05.17/outbox.cif.g08.bks.cpg/sg73_10_cif.got.tgz:18510.got - 2010.06.03 17:35:07.
