data_PCOD9533359
_publ_section_title
;
Structure prediction by ZEFSAII (Michael W. Deem and Ramdas Pophale) SiO2 
 PCOD9533359
Probable space group: I B C A 
;
_chemical_formula_sum "Si O2"
_cell_formula_units_Z 104
_cell_length_a 21.283195
_cell_length_b 9.154299
_cell_length_c 22.275713
_cell_angle_alpha 90.000000
_cell_angle_beta 90.000000
_cell_angle_gamma 90.000000
_cell_volume 4340.037992
_symmetry_space_group_name_H-M "I B C A "
_symmetry_group_IT_number 73
_symmetry_cell_setting 'orthorhombic'
loop_
_space_group_symop_operation_xyz
x,y,z
-x,1/2-y,z
x,-y,1/2-z
1/2-x,y,-z
-x,-y,-z
x,1/2+y,-z
-x,y,1/2+z
1/2+x,-y,z
1/2+x,1/2+y,1/2+z
1/2-x,-y,1/2+z
1/2+x,1/2-y,-z
-x,1/2+y,1/2-z
1/2-x,1/2-y,1/2-z
1/2+x,y,1/2-z
1/2-x,1/2+y,z
x,1/2-y,1/2+z
loop_
_atom_site_type_symbol
_atom_site_label
_atom_site_fract_x
_atom_site_fract_y
_atom_site_fract_z
Si Si1 0.513435 0.000000 0.750000
Si Si2 0.743239 0.911156 0.649838
Si Si3 0.000000 0.750000 0.156543
Si Si4 0.947033 0.417934 0.958077
Si Si5 0.339584 0.500000 0.250000
Si Si6 0.104506 0.783411 0.942833
Si Si7 0.743427 0.671361 0.567981
Si Si8 0.393174 0.222633 0.315794
O O1 0.480916 0.886502 0.798654
O O2 0.561099 0.887040 0.717923
O O3 0.770598 0.825333 0.591259
O O4 0.676358 0.850540 0.673678
O O5 0.793877 0.919641 0.702364
O O6 0.734650 0.069163 0.621419
O O7 0.039029 0.653601 0.106889
O O8 0.894317 0.542532 0.949839
O O9 0.925429 0.285907 0.999299
O O10 0.000000 0.500000 0.000000
O O11 0.378545 0.375675 0.284186
O O12 0.169871 0.704524 0.932069
O O13 0.072667 0.751678 0.879467
O O14 0.750000 0.622330 0.500000
#
# Coordination Sequence:
#
# PCOD9533359 Si02
#       8
#     8  16   8  16   8  16  16  16
#     4  12  29  49  76 104 152 196 256 311 397 464
#     4  11  23  44  66 102 148 198 251 299 367 435
#     4  12  28  52  74 112 144 198 242 332 390 460
#     4  12  25  50  79 109 142 189 254 323 397 455
#     4  12  23  45  68 104 146 202 250 297 363 442
#     4  11  25  46  73 108 145 192 247 311 385 460
#     4  11  26  41  68 107 154 200 250 311 373 447
#     4  11  26  45  71 107 145 195 251 304 370 461
#
# _framework density 23.962924999999998
#
# number of rings (size 3 to 8) (size 9 to 14) (size 15 to 20)
#    0.000    0.615    6.154    1.385    8.615    3.077 
#    0.000    0.000    0.000    0.000    0.000    0.000 
#    0.000    0.000    0.000    0.000    0.000    0.000 
#
# Total GULP energy -289843.989152 kJ/mol
# GULP energy per Si atom -5573.922868 kJ/mol
# Density = 2.390838 g / cm^3
# Si number density = 23.962925 Si / 1000 Ang^3
#
#
#
# Elastic Constant Matrix: (Units=GPa)
#
#
# Indices 1 2 3 4 5 6 
#
# 1 62.6263 11.5858 32.7266 0.0000 0.0000 0.0000
# 2 11.5858 161.8639 46.4388 0.0000 0.0000 0.0000
# 3 32.7266 46.4388 158.7701 0.0000 0.0000 0.0000
# 4 0.0000 0.0000 0.0000 69.2812 0.0000 0.0000
# 5 0.0000 0.0000 0.0000 0.0000 57.3443 0.0000
# 6 0.0000 0.0000 0.0000 0.0000 0.0000 48.5649
#
#
#
# Elastic Compliance Matrix: (Units=1/GPa)
#
#
# Indices 1 2 3 4 5 6 
#
# 1 0.017904 -0.000243 -0.003619 0.000000 0.000000 0.000000
# 2 -0.000243 0.006747 -0.001923 0.000000 0.000000 0.000000
# 3 -0.003619 -0.001923 0.007607 0.000000 0.000000 0.000000
# 4 0.000000 0.000000 0.000000 0.014434 0.000000 0.000000
# 5 0.000000 0.000000 0.000000 0.000000 0.017439 0.000000
# 6 0.000000 0.000000 0.000000 0.000000 0.000000 0.020591
#
#
# Mechanical properties :
#
#
# Convention : Reuss Voigt Hill
#
# Bulk Modulus (GPa) = 48.34053 62.75140 55.54597
# Shear Modulus (GPa) = 48.45471 54.53868 51.49669
#
# Velocity S-wave (km/s) = 4.50162 4.77588 4.64078
# Velocity P-wave (km/s) = 6.87287 7.52700 7.20736
#
# Compressibility (1/GPa) = 0.02068657
#
# Stress axis : x y z
#
# Youngs Moduli (GPa) = 55.85321 148.20837 131.45719
#
# Poissons Ratio (x) = 0.03603 0.47579
# Poissons Ratio (y) = 0.01358 0.25284
# Poissons Ratio (z) = 0.20215 0.28506
#
# Static dielectric constant tensor:
#      x y z
#    x 1.993270 0.000000 0.000000 
#    y 0.000000 1.913460 0.000000 
#    z 0.000000 0.000000 2.017460 
# 
# From -- ./inp_files/27634.got.cif
#   From: 2010.05.17/outbox.cif.g08.bks.cpg/sg73_14_cif.got.tgz:27634.got - 2010.06.03 17:35:07.
