data_PCOD9533186
_publ_section_title
;
Structure prediction by ZEFSAII (Michael W. Deem and Ramdas Pophale) SiO2 
 PCOD9533186
Probable space group: I B C A 
;
_chemical_formula_sum "Si O2"
_cell_formula_units_Z 112
_cell_length_a 11.465692
_cell_length_b 15.695563
_cell_length_c 28.846456
_cell_angle_alpha 90.000000
_cell_angle_beta 90.000000
_cell_angle_gamma 90.000000
_cell_volume 5191.222389
_symmetry_space_group_name_H-M "I B C A "
_symmetry_group_IT_number 73
_symmetry_cell_setting 'orthorhombic'
loop_
_space_group_symop_operation_xyz
x,y,z
-x,1/2-y,z
x,-y,1/2-z
1/2-x,y,-z
-x,-y,-z
x,1/2+y,-z
-x,y,1/2+z
1/2+x,-y,z
1/2+x,1/2+y,1/2+z
1/2-x,-y,1/2+z
1/2+x,1/2-y,-z
-x,1/2+y,1/2-z
1/2-x,1/2-y,1/2-z
1/2+x,y,1/2-z
1/2-x,1/2+y,z
x,1/2-y,1/2+z
loop_
_atom_site_type_symbol
_atom_site_label
_atom_site_fract_x
_atom_site_fract_y
_atom_site_fract_z
Si Si1 0.365114 0.873016 0.649047
Si Si2 0.627027 0.921439 0.812306
Si Si3 0.923848 0.616503 0.789608
Si Si4 0.306496 0.929317 0.043839
Si Si5 0.771279 0.690401 0.867326
Si Si6 0.433067 0.985130 0.561833
Si Si7 0.018915 0.839594 0.106756
O O1 0.263034 0.924491 0.674865
O O2 0.456699 0.849374 0.688927
O O3 0.315617 0.786625 0.626095
O O4 0.423688 0.929661 0.608954
O O5 0.598552 0.873237 0.764619
O O6 0.572424 0.874837 0.856370
O O7 0.579458 0.016093 0.803225
O O8 0.823562 0.658805 0.819534
O O9 0.304558 0.872227 0.090186
O O10 0.206631 0.005690 0.047519
O O11 0.443976 0.954151 0.037538
O O12 0.250000 0.880191 0.000000
O O13 0.633768 0.681907 0.864238
O O14 0.460442 0.083149 0.572612
O O15 0.000000 0.750000 0.081452
#
# Coordination Sequence:
#
# PCOD9533186 Si02
#       7
#    16  16  16  16  16  16  16
#     4  12  23  42  66  93 135 181 224 264 340 405
#     4  11  24  40  61  94 131 179 229 281 320 393
#     4  11  25  39  63  92 130 174 229 274 329 385
#     4  11  24  45  73 102 133 166 220 279 341 411
#     4  11  24  41  65  93 132 173 215 276 339 403
#     4  11  23  43  75  98 134 178 222 271 342 417
#     4  11  21  40  65  93 131 173 222 273 334 391
#
# _framework density 21.574881000000001
#
# number of rings (size 3 to 8) (size 9 to 14) (size 15 to 20)
#    0.000    0.857    4.286    3.429    2.000    2.857 
#    0.000    0.714   12.571    0.000    0.000    0.000 
#    0.000    0.000    0.000    0.000    0.000    0.000 
#
# Total GULP energy -312163.354883 kJ/mol
# GULP energy per Si atom -5574.345623 kJ/mol
# Density = 2.152578 g / cm^3
# Si number density = 21.574881 Si / 1000 Ang^3
#
#
#
# Elastic Constant Matrix: (Units=GPa)
#
#
# Indices 1 2 3 4 5 6 
#
# 1 114.2103 -0.7675 17.4210 0.0000 0.0000 0.0000
# 2 -0.7675 72.3939 5.2932 0.0000 0.0000 0.0000
# 3 17.4210 5.2932 58.5692 0.0000 0.0000 0.0000
# 4 0.0000 0.0000 0.0000 -27.8691 0.0000 0.0000
# 5 0.0000 0.0000 0.0000 0.0000 49.6230 0.0000
# 6 0.0000 0.0000 0.0000 0.0000 0.0000 30.4814
#
#
#
# Elastic Compliance Matrix: (Units=1/GPa)
#
#
# Indices 1 2 3 4 5 6 
#
# 1 0.009178 0.000299 -0.002757 0.000000 0.000000 0.000000
# 2 0.000299 0.013915 -0.001346 0.000000 0.000000 0.000000
# 3 -0.002757 -0.001346 0.018016 0.000000 0.000000 0.000000
# 4 0.000000 0.000000 0.000000 -0.035882 0.000000 0.000000
# 5 0.000000 0.000000 0.000000 0.000000 0.020152 0.000000
# 6 0.000000 0.000000 0.000000 0.000000 0.000000 0.032807
#
#
# Mechanical properties :
#
#
# Convention : Reuss Voigt Hill
#
# Bulk Modulus (GPa) = 29.85112 32.11855 30.98484
# Shear Modulus (GPa) = 64.96753 25.32883 45.14818
#
# Velocity S-wave (km/s) = 5.49345 3.43008 4.57949
# Velocity P-wave (km/s) = 7.35550 5.53232 6.50807
#
# Compressibility (1/GPa) = 0.03349958
#
# Stress axis : x y z
#
# Youngs Moduli (GPa) = 108.95228 71.86520 55.50754
#
# Poissons Ratio (x) = -0.02148 0.15304
# Poissons Ratio (y) = -0.03257 0.07474
# Poissons Ratio (z) = 0.30039 0.09676
#
# Static dielectric constant tensor:
#      x y z
#    x 1.893630 0.000000 0.000000 
#    y 0.000000 1.843340 0.000000 
#    z 0.000000 0.000000 1.798560 
# 
# From -- ./inp_files/34015.got.cif
#   From: 2010.05.17/outbox.cif.g08.bks.cpg/sg73_18_cif.got.tgz:34015.got - 2010.06.03 17:35:07.
