data_PCOD9533976
_publ_section_title
;
Structure prediction by ZEFSAII (Michael W. Deem and Ramdas Pophale) SiO2 
 PCOD9533976
Probable space group: I M M A
;
_chemical_formula_sum "Si O2"
_cell_formula_units_Z 104
_cell_length_a 9.738519
_cell_length_b 26.664758
_cell_length_c 21.178712
_cell_angle_alpha 90.000000
_cell_angle_beta 90.000000
_cell_angle_gamma 90.000000
_cell_volume 5499.587384
_symmetry_space_group_name_H-M "I M M A"
_symmetry_group_IT_number 74
_symmetry_cell_setting 'orthorhombic'
loop_
_space_group_symop_operation_xyz
x,y,z
-x,1/2-y,z
x,-y,-z
-x,1/2+y,-z
-x,-y,-z
x,1/2+y,-z
-x,y,z
x,1/2-y,z
1/2+x,1/2+y,1/2+z
1/2-x,-y,1/2+z
1/2+x,1/2-y,1/2-z
1/2-x,y,1/2-z
1/2-x,1/2-y,1/2-z
1/2+x,y,1/2-z
1/2-x,1/2+y,1/2+z
1/2+x,-y,1/2+z
loop_
_atom_site_type_symbol
_atom_site_label
_atom_site_fract_x
_atom_site_fract_y
_atom_site_fract_z
Si Si1 0.157398 0.805020 0.659988
Si Si2 0.660953 0.052255 0.375479
Si Si3 0.340557 0.453866 0.688871
Si Si4 0.162246 0.335326 0.813157
Si Si5 0.665460 0.372553 0.048828
Si Si6 0.250000 0.612034 0.750000
Si Si7 0.340660 0.193977 0.929372
O O1 0.215633 0.750000 0.676159
O O2 0.220726 0.830661 0.598412
O O3 0.156570 0.847449 0.713652
O O4 0.000000 0.797814 0.642859
O O5 0.500000 0.058113 0.390433
O O6 0.755002 0.078218 0.428175
O O7 0.688053 0.078518 0.306561
O O8 0.694521 0.993662 0.365273
O O9 0.500000 0.462925 0.704825
O O10 0.250000 0.464372 0.750000
O O11 0.325977 0.395264 0.673872
O O12 0.250000 0.324674 0.750000
O O13 0.236408 0.309166 0.871560
O O14 0.000000 0.323376 0.806164
O O15 0.500000 0.379575 0.055933
O O16 0.688967 0.349333 0.980128
O O17 0.500000 0.187703 0.908104
O O18 0.332348 0.250000 0.958468
#
# Coordination Sequence:
#
# PCOD9533976 Si02
#       7
#    16  16  16  16  16   8  16
#     4   9  16  26  41  62  91 129 174 220 264 308
#     4  10  19  31  49  75 107 142 183 229 273 318
#     4   9  18  33  53  79 110 146 182 221 271 325
#     4  10  21  38  61  88 116 142 174 217 268 327
#     4   9  19  34  52  74 102 140 184 225 267 318
#     4  10  17  26  42  66  98 134 177 224 268 318
#     4  10  21  39  62  84 109 143 182 223 271 327
#
# _framework density 18.910509000000001
#
# number of rings (size 3 to 8) (size 9 to 14) (size 15 to 20)
#    0.000    2.462    0.769    1.615    0.000    4.923 
#    0.000    0.769    0.000   13.385    0.000    0.000 
#    0.000    0.000    0.000    0.000    0.000    0.000 
#
# Total GULP energy -289470.770425 kJ/mol
# GULP energy per Si atom -5566.745585 kJ/mol
# Density = 1.886747 g / cm^3
# Si number density = 18.910509 Si / 1000 Ang^3
#
#
#
# Elastic Constant Matrix: (Units=GPa)
#
#
# Indices 1 2 3 4 5 6 
#
# 1 69.6131 27.4012 42.3747 0.0000 0.0000 0.0000
# 2 27.4012 42.5241 14.8730 0.0000 0.0000 0.0000
# 3 42.3747 14.8730 68.4155 0.0000 0.0000 0.0000
# 4 0.0000 0.0000 0.0000 26.4440 0.0000 0.0000
# 5 0.0000 0.0000 0.0000 0.0000 26.7419 0.0000
# 6 0.0000 0.0000 0.0000 0.0000 0.0000 20.0667
#
#
#
# Elastic Compliance Matrix: (Units=1/GPa)
#
#
# Indices 1 2 3 4 5 6 
#
# 1 0.028615 -0.013247 -0.014844 0.000000 0.000000 0.000000
# 2 -0.013247 0.031584 0.001339 0.000000 0.000000 0.000000
# 3 -0.014844 0.001339 0.023519 0.000000 0.000000 0.000000
# 4 0.000000 0.000000 0.000000 0.037816 0.000000 0.000000
# 5 0.000000 0.000000 0.000000 0.000000 0.037395 0.000000
# 6 0.000000 0.000000 0.000000 0.000000 0.000000 0.049834
#
#
# Mechanical properties :
#
#
# Convention : Reuss Voigt Hill
#
# Bulk Modulus (GPa) = 33.09677 38.87228 35.98452
# Shear Modulus (GPa) = 18.35961 21.04410 19.70185
#
# Velocity S-wave (km/s) = 3.11926 3.33952 3.23127
# Velocity P-wave (km/s) = 5.52384 5.95571 5.74383
#
# Compressibility (1/GPa) = 0.03021443
#
# Stress axis : x y z
#
# Youngs Moduli (GPa) = 34.94680 31.66177 42.51847
#
# Poissons Ratio (x) = 0.41942 0.63112
# Poissons Ratio (y) = 0.46294 -0.05692
# Poissons Ratio (z) = 0.51873 -0.04239
#
# Static dielectric constant tensor:
#      x y z
#    x 1.650380 0.000000 0.000000 
#    y 0.000000 1.730590 0.000000 
#    z 0.000000 0.000000 1.657340 
# 
# From -- ./inp_files/49270.got.cif
#   From: 2010.05.17/outbox.cif.g08.bks.cpg/sg74_25_cif.got.tgz:49270.got - 2010.06.03 17:57:02.
