data_PCOD9533945
_publ_section_title
;
Structure prediction by ZEFSAII (Michael W. Deem and Ramdas Pophale) SiO2 
 PCOD9533945
Probable space group: I M M A
;
_chemical_formula_sum "Si O2"
_cell_formula_units_Z 80
_cell_length_a 24.933630
_cell_length_b 13.468347
_cell_length_c 9.135165
_cell_angle_alpha 90.000000
_cell_angle_beta 90.000000
_cell_angle_gamma 90.000000
_cell_volume 3067.723432
_symmetry_space_group_name_H-M "I M M A"
_symmetry_group_IT_number 74
_symmetry_cell_setting 'orthorhombic'
loop_
_space_group_symop_operation_xyz
x,y,z
-x,1/2-y,z
x,-y,-z
-x,1/2+y,-z
-x,-y,-z
x,1/2+y,-z
-x,y,z
x,1/2-y,z
1/2+x,1/2+y,1/2+z
1/2-x,-y,1/2+z
1/2+x,1/2-y,1/2-z
1/2-x,y,1/2-z
1/2-x,1/2-y,1/2-z
1/2+x,y,1/2-z
1/2-x,1/2+y,1/2+z
1/2+x,-y,1/2+z
loop_
_atom_site_type_symbol
_atom_site_label
_atom_site_fract_x
_atom_site_fract_y
_atom_site_fract_z
Si Si1 0.560592 0.060534 0.316627
Si Si2 0.438997 0.135900 0.993636
Si Si3 0.295113 0.130093 0.425490
Si Si4 0.111923 0.134688 0.885852
Si Si5 0.327195 0.370032 0.100525
O O1 0.500000 0.040483 0.354838
O O2 0.560190 0.124757 0.170605
O O3 0.584335 0.118026 0.455410
O O4 0.585125 0.950417 0.288859
O O5 0.500000 0.097695 0.947796
O O6 0.439858 0.250000 0.948357
O O7 0.375397 0.102280 0.988513
O O8 0.296009 0.250000 0.415142
O O9 0.327567 0.105938 0.572078
O O10 0.324799 0.098116 0.273592
O O11 0.233328 0.102260 0.442935
O O12 0.107833 0.250000 0.843437
O O13 0.330052 0.250000 0.102972
#
# Coordination Sequence:
#
# PCOD9533945 Si02
#       5
#    16  16  16  16  16
#     4  10  19  25  31  45  65  92 121 141 158 187
#     4   9  15  23  35  50  71  96 116 135 160 191
#     4   8  13  20  32  45  58  79 109 142 169 193
#     4  10  17  25  33  43  62  87 113 141 167 188
#     4   8  12  20  32  46  61  80 109 138 165 196
#
# _framework density 26.077969
#
# number of rings (size 3 to 8) (size 9 to 14) (size 15 to 20)
#    0.000    3.000    2.000    3.000    0.000    2.400 
#    0.000    0.000    0.000    0.000    0.000    0.000 
#    0.000   14.400    0.000    3.600    0.000    9.200 
#
# Total GULP energy -222814.702061 kJ/mol
# GULP energy per Si atom -5570.367552 kJ/mol
# Density = 2.601861 g / cm^3
# Si number density = 26.077969 Si / 1000 Ang^3
#
#
#
# Elastic Constant Matrix: (Units=GPa)
#
#
# Indices 1 2 3 4 5 6 
#
# 1 192.1329 0.7517 41.8071 0.0000 0.0000 0.0000
# 2 0.7517 137.6351 0.1058 0.0000 0.0000 0.0000
# 3 41.8071 0.1058 69.1960 0.0000 0.0000 0.0000
# 4 0.0000 0.0000 0.0000 19.2673 0.0000 0.0000
# 5 0.0000 0.0000 0.0000 0.0000 7.5439 0.0000
# 6 0.0000 0.0000 0.0000 0.0000 0.0000 26.9510
#
#
#
# Elastic Compliance Matrix: (Units=1/GPa)
#
#
# Indices 1 2 3 4 5 6 
#
# 1 0.005993 -0.000030 -0.003621 0.000000 0.000000 0.000000
# 2 -0.000030 0.007266 0.000007 0.000000 0.000000 0.000000
# 3 -0.003621 0.000007 0.016639 0.000000 0.000000 0.000000
# 4 0.000000 0.000000 0.000000 0.051901 0.000000 0.000000
# 5 0.000000 0.000000 0.000000 0.000000 0.132557 0.000000
# 6 0.000000 0.000000 0.000000 0.000000 0.000000 0.037104
#
#
# Mechanical properties :
#
#
# Convention : Reuss Voigt Hill
#
# Bulk Modulus (GPa) = 44.22733 53.81037 49.01885
# Shear Modulus (GPa) = 18.77692 34.50574 26.64133
#
# Velocity S-wave (km/s) = 2.68625 3.64149 3.19972
# Velocity P-wave (km/s) = 5.15924 6.19353 5.69989
#
# Compressibility (1/GPa) = 0.02261045
#
# Stress axis : x y z
#
# Youngs Moduli (GPa) = 166.87028 137.63212 60.09897
#
# Poissons Ratio (x) = 0.00412 0.21760
# Poissons Ratio (y) = 0.00500 -0.00042
# Poissons Ratio (z) = 0.60418 -0.00096
#
# Static dielectric constant tensor:
#      x y z
#    x 2.175780 0.000000 0.000000 
#    y 0.000000 2.020330 0.000000 
#    z 0.000000 0.000000 2.077720 
# 
# From -- ./inp_files/26092.got.cif
#   From: 2010.05.17/outbox.cif.g08.bks.cpg/sg74_14_cif.got.tgz:26092.got - 2010.06.03 17:57:02.
