data_PCOD9533991
_publ_section_title
;
Structure prediction by ZEFSAII (Michael W. Deem and Ramdas Pophale) SiO2 
 PCOD9533991
Probable space group: I M M A
;
_chemical_formula_sum "Si O2"
_cell_formula_units_Z 80
_cell_length_a 8.823667
_cell_length_b 24.492494
_cell_length_c 26.825905
_cell_angle_alpha 90.000000
_cell_angle_beta 90.000000
_cell_angle_gamma 90.000000
_cell_volume 5797.443199
_symmetry_space_group_name_H-M "I M M A"
_symmetry_group_IT_number 74
_symmetry_cell_setting 'orthorhombic'
loop_
_space_group_symop_operation_xyz
x,y,z
-x,1/2-y,z
x,-y,-z
-x,1/2+y,-z
-x,-y,-z
x,1/2+y,-z
-x,y,z
x,1/2-y,z
1/2+x,1/2+y,1/2+z
1/2-x,-y,1/2+z
1/2+x,1/2-y,1/2-z
1/2-x,y,1/2-z
1/2-x,1/2-y,1/2-z
1/2+x,y,1/2-z
1/2-x,1/2+y,1/2+z
1/2+x,-y,1/2+z
loop_
_atom_site_type_symbol
_atom_site_label
_atom_site_fract_x
_atom_site_fract_y
_atom_site_fract_z
Si Si1 0.181261 0.869392 0.491562
Si Si2 0.317305 0.750000 0.148907
Si Si3 0.816140 0.750000 0.468216
Si Si4 0.318115 0.360062 0.695888
Si Si5 0.675575 0.462469 0.449958
Si Si6 0.817108 0.933115 0.102576
O O1 0.234340 0.806599 0.493043
O O2 0.235153 0.907940 0.536563
O O3 0.245367 0.895779 0.440616
O O4 0.000000 0.870425 0.489021
O O5 0.500000 0.750000 0.152464
O O6 0.274319 0.750000 0.090347
O O7 0.251060 0.696268 0.174957
O O8 0.000000 0.750000 0.469523
O O9 0.500000 0.354954 0.698778
O O10 0.250000 0.371218 0.750000
O O11 0.280887 0.407221 0.655801
O O12 0.681862 0.500000 0.500000
O O13 0.500000 0.448656 0.441175
O O14 0.730838 0.504221 0.407401
O O15 0.000000 0.931815 0.095990
#
# Coordination Sequence:
#
# PCOD9533991 Si02
#       6
#    16   8   8  16  16  16
#     4  10  17  27  42  61  81 104 134 166 200 238
#     4  11  20  34  47  57  78 110 142 179 215 245
#     4   9  18  28  40  59  85 110 133 169 208 233
#     4  11  22  34  46  61  78 105 141 179 215 250
#     4   8  15  28  42  58  79 102 127 161 201 243
#     4   9  18  31  44  57  78 104 132 166 207 247
#
# _framework density 13.799186000000001
#
# number of rings (size 3 to 8) (size 9 to 14) (size 15 to 20)
#    0.000    2.400    2.000    3.000    0.000    4.400 
#    0.000    2.000    0.000    0.000    0.000    0.000 
#    0.000    0.000    0.000    0.900    0.000   10.800 
#
# Total GULP energy -222866.532236 kJ/mol
# GULP energy per Si atom -5571.663306 kJ/mol
# Density = 1.376778 g / cm^3
# Si number density = 13.799186 Si / 1000 Ang^3
#
#
#
# Elastic Constant Matrix: (Units=GPa)
#
#
# Indices 1 2 3 4 5 6 
#
# 1 31.9261 37.9784 27.2427 0.0000 0.0000 0.0000
# 2 37.9784 130.6404 68.0006 0.0000 0.0000 0.0000
# 3 27.2427 68.0006 70.1644 0.0000 0.0000 0.0000
# 4 0.0000 0.0000 0.0000 14.3909 0.0000 0.0000
# 5 0.0000 0.0000 0.0000 0.0000 16.7807 0.0000
# 6 0.0000 0.0000 0.0000 0.0000 0.0000 10.3395
#
#
#
# Elastic Compliance Matrix: (Units=1/GPa)
#
#
# Indices 1 2 3 4 5 6 
#
# 1 0.051871 -0.009275 -0.011151 0.000000 0.000000 0.000000
# 2 -0.009275 0.017106 -0.012977 0.000000 0.000000 0.000000
# 3 -0.011151 -0.012977 0.031158 0.000000 0.000000 0.000000
# 4 0.000000 0.000000 0.000000 0.069488 0.000000 0.000000
# 5 0.000000 0.000000 0.000000 0.000000 0.059592 0.000000
# 6 0.000000 0.000000 0.000000 0.000000 0.000000 0.096716
#
#
# Mechanical properties :
#
#
# Convention : Reuss Voigt Hill
#
# Bulk Modulus (GPa) = 30.00360 55.46380 42.73370
# Shear Modulus (GPa) = 12.38094 14.93618 13.65856
#
# Velocity S-wave (km/s) = 2.99862 3.29355 3.14954
# Velocity P-wave (km/s) = 5.81198 7.39892 6.65294
#
# Compressibility (1/GPa) = 0.03332933
#
# Stress axis : x y z
#
# Youngs Moduli (GPa) = 19.27871 58.46008 32.09411
#
# Poissons Ratio (x) = 0.54223 0.35787
# Poissons Ratio (y) = 0.17881 0.41648
# Poissons Ratio (z) = 0.21497 0.75863
#
# Static dielectric constant tensor:
#      x y z
#    x 1.465950 0.000000 0.000000 
#    y 0.000000 1.471680 0.000000 
#    z 0.000000 0.000000 1.438570 
# 
# From -- ./inp_files/54977.got.cif
#   From: 2010.05.17/outbox.cif.g08.bks.cpg/sg74_28_cif.got.tgz:54977.got - 2010.06.03 17:57:02.
