data_PCOD9533311
_publ_section_title
;
Structure prediction by ZEFSAII (Michael W. Deem and Ramdas Pophale) SiO2 
 PCOD9533311
Probable space group: I B C A 
;
_chemical_formula_sum "Si O2"
_cell_formula_units_Z 112
_cell_length_a 14.374082
_cell_length_b 27.744380
_cell_length_c 12.380862
_cell_angle_alpha 90.000000
_cell_angle_beta 90.000000
_cell_angle_gamma 90.000000
_cell_volume 4937.487681
_symmetry_space_group_name_H-M "I B C A "
_symmetry_group_IT_number 73
_symmetry_cell_setting 'orthorhombic'
loop_
_space_group_symop_operation_xyz
x,y,z
-x,1/2-y,z
x,-y,1/2-z
1/2-x,y,-z
-x,-y,-z
x,1/2+y,-z
-x,y,1/2+z
1/2+x,-y,z
1/2+x,1/2+y,1/2+z
1/2-x,-y,1/2+z
1/2+x,1/2-y,-z
-x,1/2+y,1/2-z
1/2-x,1/2-y,1/2-z
1/2+x,y,1/2-z
1/2-x,1/2+y,z
x,1/2-y,1/2+z
loop_
_atom_site_type_symbol
_atom_site_label
_atom_site_fract_x
_atom_site_fract_y
_atom_site_fract_z
Si Si1 0.383252 0.052228 0.605191
Si Si2 0.253414 0.660305 0.123407
Si Si3 0.000000 0.750000 0.105437
Si Si4 0.470608 0.500000 0.750000
Si Si5 0.423119 0.149839 0.715389
Si Si6 0.324316 0.440496 0.866397
Si Si7 0.388501 0.845421 0.197083
Si Si8 0.164282 0.740317 0.444016
O O1 0.414040 0.108001 0.625682
O O2 0.281126 0.045091 0.658155
O O3 0.361718 0.041314 0.480897
O O4 0.461182 0.018226 0.656048
O O5 0.331288 0.645254 0.210697
O O6 0.155979 0.654634 0.183859
O O7 0.281278 0.716027 0.110321
O O8 0.250000 0.640453 0.000000
O O9 0.042893 0.797108 0.169414
O O10 0.086673 0.739007 0.025258
O O11 0.398917 0.457796 0.779856
O O12 0.506404 0.137830 0.796806
O O13 0.328957 0.382880 0.871399
O O14 0.382703 0.793336 0.143778
O O15 0.250000 0.712111 0.500000
#
# Coordination Sequence:
#
# PCOD9533311 Si02
#       8
#    16  16   8   8  16  16  16  16
#     4  11  25  46  74 105 140 178 227 285 350 424
#     4  11  24  42  62  96 141 191 240 286 340 400
#     4  12  24  40  68 100 142 192 238 290 344 410
#     4  12  24  52  74 108 134 176 220 290 360 420
#     4  12  23  43  66 100 141 186 237 286 340 407
#     4  11  25  45  74 105 136 174 226 282 353 424
#     4  12  23  41  66  98 137 183 233 288 336 407
#     4  11  23  39  63  98 138 187 234 284 343 398
#
# _framework density 22.683600999999999
#
# number of rings (size 3 to 8) (size 9 to 14) (size 15 to 20)
#    0.000    0.571    2.857    6.429    2.000    1.143 
#    0.000    0.000    0.000    0.000    0.000    0.000 
#    0.000    0.000    0.000    0.000    0.000    0.000 
#
# Total GULP energy -312537.978029 kJ/mol
# GULP energy per Si atom -5581.035322 kJ/mol
# Density = 2.263197 g / cm^3
# Si number density = 22.683601 Si / 1000 Ang^3
#
#
#
# Elastic Constant Matrix: (Units=GPa)
#
#
# Indices 1 2 3 4 5 6 
#
# 1 125.5778 -4.2946 14.7110 0.0000 0.0000 -0.0002
# 2 -4.2946 35.7728 -9.6573 0.0001 0.0000 -0.0005
# 3 14.7110 -9.6573 49.9016 0.0003 0.0000 0.0008
# 4 0.0000 0.0001 0.0003 20.0463 0.0000 -0.0002
# 5 0.0000 0.0000 0.0000 0.0000 42.6403 0.0000
# 6 -0.0002 -0.0005 0.0008 -0.0002 0.0000 85.1986
#
#
#
# Elastic Compliance Matrix: (Units=1/GPa)
#
#
# Indices 1 2 3 4 5 6 
#
# 1 0.008252 0.000352 -0.002365 0.000000 0.000000 0.000000
# 2 0.000352 0.029510 0.005607 0.000000 0.000000 0.000000
# 3 -0.002365 0.005607 0.021822 0.000000 0.000000 0.000000
# 4 0.000000 0.000000 0.000000 0.049884 0.000000 0.000000
# 5 0.000000 0.000000 0.000000 0.000000 0.023452 0.000000
# 6 0.000000 0.000000 0.000000 0.000000 0.000000 0.011737
#
#
# Mechanical properties :
#
#
# Convention : Reuss Voigt Hill
#
# Bulk Modulus (GPa) = 14.97588 23.64114 19.30851
# Shear Modulus (GPa) = 31.30362 43.60994 37.45678
#
# Velocity S-wave (km/s) = 3.71888 4.38942 4.06799
# Velocity P-wave (km/s) = 5.00565 6.01117 5.53130
#
# Compressibility (1/GPa) = 0.06677405
#
# Stress axis : x y z
#
# Youngs Moduli (GPa) = 121.17924 33.88653 45.82608
#
# Poissons Ratio (x) = -0.01194 0.10836
# Poissons Ratio (y) = -0.04270 -0.25695
# Poissons Ratio (z) = 0.28654 -0.19001
#
# Static dielectric constant tensor:
#      x y z
#    x 1.886370 0.000000 0.000000 
#    y 0.000000 1.901520 0.000000 
#    z 0.000000 0.000000 1.920170 
# 
# From -- ./inp_files/11295.got.cif
#   From: 2010.05.17/outbox.cif.g08.bks.cpg/sg73_6_cif.got.tgz:11295.got - 2010.06.03 17:35:07.
