data_PCOD9533702
_publ_section_title
;
Structure prediction by ZEFSAII (Michael W. Deem and Ramdas Pophale) SiO2 
 PCOD9533702
Probable space group: I B C A 
;
_chemical_formula_sum "Si O2"
_cell_formula_units_Z 112
_cell_length_a 14.036000
_cell_length_b 33.198670
_cell_length_c 10.379312
_cell_angle_alpha 90.000000
_cell_angle_beta 90.000000
_cell_angle_gamma 90.000000
_cell_volume 4836.515812
_symmetry_space_group_name_H-M "I B C A "
_symmetry_group_IT_number 73
_symmetry_cell_setting 'orthorhombic'
loop_
_space_group_symop_operation_xyz
x,y,z
-x,1/2-y,z
x,-y,1/2-z
1/2-x,y,-z
-x,-y,-z
x,1/2+y,-z
-x,y,1/2+z
1/2+x,-y,z
1/2+x,1/2+y,1/2+z
1/2-x,-y,1/2+z
1/2+x,1/2-y,-z
-x,1/2+y,1/2-z
1/2-x,1/2-y,1/2-z
1/2+x,y,1/2-z
1/2-x,1/2+y,z
x,1/2-y,1/2+z
loop_
_atom_site_type_symbol
_atom_site_label
_atom_site_fract_x
_atom_site_fract_y
_atom_site_fract_z
Si Si1 0.728125 0.938850 0.361783
Si Si2 0.365216 0.000000 0.250000
Si Si3 0.757443 0.135204 0.327338
Si Si4 0.000000 0.250000 0.307401
Si Si5 0.299981 0.277218 0.640787
Si Si6 0.962157 0.836169 0.810287
Si Si7 0.548140 0.875850 0.941368
Si Si8 0.985361 0.960516 0.586536
O O1 0.750000 0.919944 0.500000
O O2 0.752527 0.905043 0.257843
O O3 0.619842 0.954546 0.357037
O O4 0.796740 0.977497 0.349274
O O5 0.435049 0.966228 0.304848
O O6 0.806728 0.178506 0.295280
O O7 0.648383 0.150816 0.319773
O O8 0.836355 0.123268 0.436750
O O9 0.905202 0.239436 0.385103
O O10 0.975755 0.289821 0.225550
O O11 0.250000 0.280594 0.500000
O O12 0.250000 0.250000 0.750000
O O13 0.009303 0.864044 0.699781
O O14 0.995184 0.845055 0.955440
O O15 0.511480 0.919439 0.984710
O O16 0.000000 0.000000 0.500000
#
# Coordination Sequence:
#
# PCOD9533702 Si02
#       8
#    16   8  16   8  16  16  16  16
#     4  12  27  48  78 114 156 208 271 329 408 479
#     4  12  26  50  72 114 152 204 260 332 392 480
#     4  12  26  51  73 109 158 206 262 325 402 487
#     4  12  28  52  86 118 162 220 270 348 410 504
#     4  12  28  50  79 120 162 211 274 345 416 497
#     4  12  28  49  79 116 154 206 269 325 406 482
#     4  12  28  49  79 113 158 209 261 333 404 480
#     4  12  27  48  79 110 158 208 266 331 403 485
#
# _framework density 23.157167000000001
#
# number of rings (size 3 to 8) (size 9 to 14) (size 15 to 20)
#    0.000    0.000    7.143    1.714    4.000    4.000 
#    2.571    0.000    0.000    0.000    0.000    0.000 
#    0.000    0.000    0.000    0.000    0.000    0.000 
#
# Total GULP energy -312709.033409 kJ/mol
# GULP energy per Si atom -5584.089882 kJ/mol
# Density = 2.310446 g / cm^3
# Si number density = 23.157167 Si / 1000 Ang^3
#
#
#
# Elastic Constant Matrix: (Units=GPa)
#
#
# Indices 1 2 3 4 5 6 
#
# 1 165.1378 51.0813 43.2960 -0.0005 0.0002 -0.0002
# 2 51.0813 137.0772 33.2891 -0.0001 0.0001 -0.0002
# 3 43.2960 33.2891 84.3012 -0.0015 0.0026 -0.0020
# 4 -0.0005 -0.0001 -0.0015 20.7928 0.0006 -0.0001
# 5 0.0002 0.0001 0.0026 0.0006 24.8185 0.0004
# 6 -0.0002 -0.0002 -0.0020 -0.0001 0.0004 40.0663
#
#
#
# Elastic Compliance Matrix: (Units=1/GPa)
#
#
# Indices 1 2 3 4 5 6 
#
# 1 0.007486 -0.002053 -0.003034 0.000000 0.000000 0.000000
# 2 -0.002053 0.008632 -0.002354 0.000000 0.000000 0.000000
# 3 -0.003034 -0.002354 0.014350 0.000001 -0.000001 0.000001
# 4 0.000000 0.000000 0.000001 0.048094 -0.000001 0.000000
# 5 0.000000 0.000000 -0.000001 -0.000001 0.040292 0.000000
# 6 0.000000 0.000000 0.000001 0.000000 0.000000 0.024959
#
#
# Mechanical properties :
#
#
# Convention : Reuss Voigt Hill
#
# Bulk Modulus (GPa) = 64.16152 71.31658 67.73905
# Shear Modulus (GPa) = 30.50818 34.39216 32.45017
#
# Velocity S-wave (km/s) = 3.63359 3.85796 3.74746
# Velocity P-wave (km/s) = 6.73581 7.12101 6.93109
#
# Compressibility (1/GPa) = 0.01558567
#
# Stress axis : x y z
#
# Youngs Moduli (GPa) = 133.58237 115.84981 69.68557
#
# Poissons Ratio (x) = 0.23782 0.21143
# Poissons Ratio (y) = 0.27422 0.16406
# Poissons Ratio (z) = 0.40530 0.27274
#
# Static dielectric constant tensor:
#      x y z
#    x 1.801290 0.000000 0.000020 
#    y 0.000000 1.889660 0.000010 
#    z 0.000020 0.000010 2.001320 
# 
# From -- ./inp_files/11298.got.cif
#   From: 2010.05.17/outbox.cif.g08.bks.cpg/sg73_6_cif.got.tgz:11298.got - 2010.06.03 17:35:07.
