data_PCOD9533600
_publ_section_title
;
Structure prediction by ZEFSAII (Michael W. Deem and Ramdas Pophale) SiO2 
 PCOD9533600
Probable space group: I B C A 
;
_chemical_formula_sum "Si O2"
_cell_formula_units_Z 72
_cell_length_a 13.321004
_cell_length_b 12.303118
_cell_length_c 19.103591
_cell_angle_alpha 90.000000
_cell_angle_beta 90.000000
_cell_angle_gamma 90.000000
_cell_volume 3130.885315
_symmetry_space_group_name_H-M "I B C A "
_symmetry_group_IT_number 73
_symmetry_cell_setting 'orthorhombic'
loop_
_space_group_symop_operation_xyz
x,y,z
-x,1/2-y,z
x,-y,1/2-z
1/2-x,y,-z
-x,-y,-z
x,1/2+y,-z
-x,y,1/2+z
1/2+x,-y,z
1/2+x,1/2+y,1/2+z
1/2-x,-y,1/2+z
1/2+x,1/2-y,-z
-x,1/2+y,1/2-z
1/2-x,1/2-y,1/2-z
1/2+x,y,1/2-z
1/2-x,1/2+y,z
x,1/2-y,1/2+z
loop_
_atom_site_type_symbol
_atom_site_label
_atom_site_fract_x
_atom_site_fract_y
_atom_site_fract_z
Si Si1 0.500000 0.750000 0.156654
Si Si2 0.750000 0.434476 0.000000
Si Si3 0.653605 0.816475 0.773425
Si Si4 0.293598 0.500000 0.250000
Si Si5 0.070379 0.336827 0.418775
Si Si6 0.411214 0.480848 0.388052
O O1 0.421876 0.810633 0.208689
O O2 0.442659 0.647897 0.119237
O O3 0.827303 0.361604 0.957184
O O4 0.677067 0.496034 0.945327
O O5 0.750000 0.750000 0.750000
O O6 0.711100 0.927110 0.789421
O O7 0.600014 0.784410 0.844354
O O8 0.369139 0.525407 0.313684
O O9 0.000000 0.250000 0.457164
O O10 0.007497 0.447441 0.408385
#
# Coordination Sequence:
#
# PCOD9533600 Si02
#       6
#     8   8  16   8  16  16
#     4  12  24  44  74 108 144 180 240 300 364 422
#     4  12  28  52  68 108 146 196 248 290 372 430
#     4  12  22  43  70 107 141 177 237 299 355 425
#     4  12  22  44  72 104 146 184 238 298 358 418
#     4  12  26  50  74 104 145 194 246 296 363 434
#     4  12  27  47  74 108 146 192 241 302 360 433
#
# _framework density 22.996690999999998
#
# number of rings (size 3 to 8) (size 9 to 14) (size 15 to 20)
#    0.000    0.000    5.556    4.667    1.556    0.889 
#    0.000    0.000    0.000    0.000    0.000    0.000 
#    0.000    0.000    0.000    0.000    0.000    0.000 
#
# Total GULP energy -200866.632036 kJ/mol
# GULP energy per Si atom -5579.628668 kJ/mol
# Density = 2.294435 g / cm^3
# Si number density = 22.996691 Si / 1000 Ang^3
#
#
#
# Elastic Constant Matrix: (Units=GPa)
#
#
# Indices 1 2 3 4 5 6 
#
# 1 173.6460 33.5329 58.4705 0.0000 0.0000 0.0000
# 2 33.5329 47.7708 20.3333 0.0000 0.0000 0.0000
# 3 58.4705 20.3333 110.4723 0.0000 0.0000 0.0000
# 4 0.0000 0.0000 0.0000 -62.1665 0.0000 0.0000
# 5 0.0000 0.0000 0.0000 0.0000 46.6768 0.0000
# 6 0.0000 0.0000 0.0000 0.0000 0.0000 34.5250
#
#
#
# Elastic Compliance Matrix: (Units=1/GPa)
#
#
# Indices 1 2 3 4 5 6 
#
# 1 0.007638 -0.003950 -0.003316 0.000000 0.000000 0.000000
# 2 -0.003950 0.024756 -0.002466 0.000000 0.000000 0.000000
# 3 -0.003316 -0.002466 0.011261 0.000000 0.000000 0.000000
# 4 0.000000 0.000000 0.000000 -0.016086 0.000000 0.000000
# 5 0.000000 0.000000 0.000000 0.000000 0.021424 0.000000
# 6 0.000000 0.000000 0.000000 0.000000 0.000000 0.028965
#
#
# Mechanical properties :
#
#
# Convention : Reuss Voigt Hill
#
# Bulk Modulus (GPa) = 41.33702 61.84028 51.58865
# Shear Modulus (GPa) = 47.40044 18.44388 32.92216
#
# Velocity S-wave (km/s) = 4.54495 2.83507 3.78776
# Velocity P-wave (km/s) = 6.74955 6.13728 6.45068
#
# Compressibility (1/GPa) = 0.02419139
#
# Stress axis : x y z
#
# Youngs Moduli (GPa) = 130.92205 40.39469 88.80409
#
# Poissons Ratio (x) = 0.15957 0.29444
# Poissons Ratio (y) = 0.51719 0.21896
# Poissons Ratio (z) = 0.43409 0.09960
#
# Static dielectric constant tensor:
#      x y z
#    x 1.815330 0.000000 0.000000 
#    y 0.000000 1.892370 0.000000 
#    z 0.000000 0.000000 1.865170 
# 
# From -- ./inp_files/10660.got.cif
#   From: 2010.05.17/outbox.cif.g08.bks.cpg/sg73_6_cif.got.tgz:10660.got - 2010.06.03 17:35:07.
