data_PCOD9533734
_publ_section_title
;
Structure prediction by ZEFSAII (Michael W. Deem and Ramdas Pophale) SiO2 
 PCOD9533734
Probable space group: I B C A 
;
_chemical_formula_sum "Si O2"
_cell_formula_units_Z 44
_cell_length_a 21.000000
_cell_length_b 24.000000
_cell_length_c 9.000000
_cell_angle_alpha 90.000000
_cell_angle_beta 90.000000
_cell_angle_gamma 90.000000
_cell_volume 4536.000000
_symmetry_space_group_name_H-M "I B C A "
_symmetry_group_IT_number 73
_symmetry_cell_setting 'orthorhombic'
loop_
_space_group_symop_operation_xyz
x,y,z
-x,1/2-y,z
x,-y,1/2-z
1/2-x,y,-z
-x,-y,-z
x,1/2+y,-z
-x,y,1/2+z
1/2+x,-y,z
1/2+x,1/2+y,1/2+z
1/2-x,-y,1/2+z
1/2+x,1/2-y,-z
-x,1/2+y,1/2-z
1/2-x,1/2-y,1/2-z
1/2+x,y,1/2-z
1/2-x,1/2+y,z
x,1/2-y,1/2+z
loop_
_atom_site_type_symbol
_atom_site_label
_atom_site_fract_x
_atom_site_fract_y
_atom_site_fract_z
Si Si1 0.186306 0.515240 0.581207
Si Si2 0.931889 0.280233 0.454069
Si Si3 0.854779 0.199696 0.244259
Si Si4 0.865935 0.874741 0.678054
Si Si5 0.250000 0.315851 0.000000
Si Si6 0.174069 0.607891 0.013797
O O1 0.206330 0.500000 0.750000
O O2 0.250000 0.536406 0.500000
O O3 0.134110 0.562783 0.611428
O O4 0.165005 0.459449 0.493537
O O5 0.876985 0.242852 0.372508
O O6 0.910834 0.294892 0.621948
O O7 0.926857 0.338335 0.365645
O O8 0.000000 0.250000 0.448387
O O9 0.847011 0.141951 0.338623
O O10 0.792307 0.210696 0.137855
O O11 0.804345 0.849025 0.592131
O O12 0.855754 0.872424 0.855918
O O13 0.250000 0.616880 0.000000
#
# Coordination Sequence:
#
# PCOD9533734 Si02
#       6
#    16  16  16  16   8  16
#     4   9  18  30  56  89 134 173 195 238 307 390
#     4  11  25  43  61  82 114 171 227 270 315 364
#     4  11  23  40  61  87 125 165 206 270 316 386
#     4  10  19  35  58  91 128 165 207 253 305 382
#     4  10  20  34  56  92 124 156 204 246 328 374
#     4  10  19  35  57  94 136 169 193 243 320 396
#
# _framework density 9.7001760000000008
#
# number of rings (size 3 to 8) (size 9 to 14) (size 15 to 20)
#    0.000    1.818    2.727    1.636    0.000    2.909 
#    8.182    0.909    0.000    1.091    0.000    5.091 
#    0.000    0.000    0.000    0.000    0.000    0.000 
#
# Total GULP energy -245094.139113 kJ/mol
# GULP energy per Si atom -5570.321343 kJ/mol
# Density = 0.967810 g / cm^3
# Si number density = 9.700176 Si / 1000 Ang^3
#
#
#
# Elastic Constant Matrix: (Units=GPa)
#
#
# Indices 1 2 3 4 5 6 
#
# 1 75.1799 50.9340 41.0656 0.0000 0.0000 0.0000
# 2 50.9340 109.9063 66.5454 0.0000 0.0000 0.0000
# 3 41.0656 66.5454 124.8578 0.0000 0.0000 0.0000
# 4 0.0000 0.0000 0.0000 35.8614 0.0000 0.0000
# 5 0.0000 0.0000 0.0000 0.0000 28.4596 0.0000
# 6 0.0000 0.0000 0.0000 0.0000 0.0000 35.8456
#
#
#
# Elastic Compliance Matrix: (Units=1/GPa)
#
#
# Indices 1 2 3 4 5 6 
#
# 1 0.019865 -0.007752 -0.002402 0.000000 0.000000 0.000000
# 2 -0.007752 0.016459 -0.006222 0.000000 0.000000 0.000000
# 3 -0.002402 -0.006222 0.012116 0.000000 0.000000 0.000000
# 4 0.000000 0.000000 0.000000 0.027885 0.000000 0.000000
# 5 0.000000 0.000000 0.000000 0.000000 0.035138 0.000000
# 6 0.000000 0.000000 0.000000 0.000000 0.000000 0.027897
#
#
# Mechanical properties :
#
#
# Convention : Reuss Voigt Hill
#
# Bulk Modulus (GPa) = 63.74811 69.67045 66.70928
# Shear Modulus (GPa) = 28.19423 30.12657 29.16040
#
# Velocity S-wave (km/s) = 3.81633 3.94494 3.88117
# Velocity P-wave (km/s) = 7.23531 7.53260 7.38545
#
# Compressibility (1/GPa) = 0.01568674
#
# Stress axis : x y z
#
# Youngs Moduli (GPa) = 50.33886 60.75869 82.53854
#
# Poissons Ratio (x) = 0.47099 0.19828
# Poissons Ratio (y) = 0.39021 0.51359
# Poissons Ratio (z) = 0.12093 0.37806
#
# Static dielectric constant tensor:
#      x y z
#    x 1.667490 0.000000 0.000000 
#    y 0.000000 1.796990 0.000000 
#    z 0.000000 0.000000 1.687740 
# 
# From -- ./inp_files/6282.got.cif
#   From: 2010.05.17/outbox.ucp.g08.bks.cvg/sg73_4_cif.got.tgz:6282.got - 2010.06.11 16:36:03.
