data_PCOD9533809
_publ_section_title
;
Structure prediction by ZEFSAII (Michael W. Deem and Ramdas Pophale) SiO2 
 PCOD9533809
Probable space group: I M M A
;
_chemical_formula_sum "Si O2"
_cell_formula_units_Z 56
_cell_length_a 20.408074
_cell_length_b 11.152979
_cell_length_c 11.701526
_cell_angle_alpha 90.000000
_cell_angle_beta 90.000000
_cell_angle_gamma 90.000000
_cell_volume 2663.393937
_symmetry_space_group_name_H-M "I M M A"
_symmetry_group_IT_number 74
_symmetry_cell_setting 'orthorhombic'
loop_
_space_group_symop_operation_xyz
x,y,z
-x,1/2-y,z
x,-y,-z
-x,1/2+y,-z
-x,-y,-z
x,1/2+y,-z
-x,y,z
x,1/2-y,z
1/2+x,1/2+y,1/2+z
1/2-x,-y,1/2+z
1/2+x,1/2-y,1/2-z
1/2-x,y,1/2-z
1/2-x,1/2-y,1/2-z
1/2+x,y,1/2-z
1/2-x,1/2+y,1/2+z
1/2+x,-y,1/2+z
loop_
_atom_site_type_symbol
_atom_site_label
_atom_site_fract_x
_atom_site_fract_y
_atom_site_fract_z
Si Si1 0.425822 0.610493 0.858289
Si Si2 0.320416 0.991332 0.687147
Si Si3 0.324757 0.750000 0.293126
Si Si4 0.727193 0.250000 0.385410
Si Si5 0.639982 0.750000 0.036246
O O1 0.500000 0.565905 0.857372
O O2 0.426162 0.750000 0.813872
O O3 0.375135 0.540598 0.780652
O O4 0.397720 0.634931 0.985023
O O5 0.250000 0.002379 0.750000
O O6 0.311296 0.875613 0.606848
O O7 0.336398 0.124709 0.643709
O O8 0.250000 0.750000 0.250000
O O9 0.361098 0.750000 0.171160
O O10 0.750000 0.250000 0.250000
O O11 0.788746 0.250000 0.472884
#
# Coordination Sequence:
#
# PCOD9533809 Si02
#       5
#    16  16   8   8   8
#     4   9  16  29  50  77 102 134 178 214 247 319
#     4  10  16  34  49  71 102 141 167 220 257 307
#     4  10  24  33  46  72 110 134 177 219 270 306
#     4  10  14  30  56  70  91 133 182 200 265 301
#     4  10  17  33  51  74 104 145 162 225 261 307
#
# _framework density 21.025804999999998
#
# number of rings (size 3 to 8) (size 9 to 14) (size 15 to 20)
#    0.857    1.429    7.143    0.000    0.000    1.143 
#    0.000    5.000    0.000    0.000    0.000    0.000 
#    0.000   32.000    0.000    0.000    0.000    0.000 
#
# Total GULP energy -155957.232651 kJ/mol
# GULP energy per Si atom -5569.901166 kJ/mol
# Density = 2.097795 g / cm^3
# Si number density = 21.025805 Si / 1000 Ang^3
#
#
#
# Elastic Constant Matrix: (Units=GPa)
#
#
# Indices 1 2 3 4 5 6 
#
# 1 121.3436 32.8000 39.8865 0.0000 0.0000 0.0000
# 2 32.8000 191.9782 34.1156 0.0000 0.0000 0.0000
# 3 39.8865 34.1156 103.6234 0.0000 0.0000 0.0000
# 4 0.0000 0.0000 0.0000 -5.6376 0.0000 0.0000
# 5 0.0000 0.0000 0.0000 0.0000 13.2393 0.0000
# 6 0.0000 0.0000 0.0000 0.0000 0.0000 -23.8621
#
#
#
# Elastic Compliance Matrix: (Units=1/GPa)
#
#
# Indices 1 2 3 4 5 6 
#
# 1 0.009629 -0.001048 -0.003361 0.000000 0.000000 0.000000
# 2 -0.001048 0.005647 -0.001456 0.000000 0.000000 0.000000
# 3 -0.003361 -0.001456 0.011423 0.000000 0.000000 0.000000
# 4 0.000000 0.000000 0.000000 -0.177380 0.000000 0.000000
# 5 0.000000 0.000000 0.000000 0.000000 0.075533 0.000000
# 6 0.000000 0.000000 0.000000 0.000000 0.000000 -0.041907
#
#
# Mechanical properties :
#
#
# Convention : Reuss Voigt Hill
#
# Bulk Modulus (GPa) = 66.80329 70.06106 68.43218
# Shear Modulus (GPa) = -49.83298 17.42411 -16.20444
#
# Velocity S-wave (km/s) = -4.87364 2.88184 -2.77915
# Velocity P-wave (km/s) = 0.41384 6.66837 4.72432
#
# Compressibility (1/GPa) = 0.01496932
#
# Stress axis : x y z
#
# Youngs Moduli (GPa) = 103.85033 177.09663 87.53893
#
# Poissons Ratio (x) = 0.18557 0.29426
# Poissons Ratio (y) = 0.10882 0.12743
# Poissons Ratio (z) = 0.34909 0.25780
#
# Static dielectric constant tensor:
#      x y z
#    x 1.772120 0.000000 0.000000 
#    y 0.000000 1.872020 0.000000 
#    z 0.000000 0.000000 1.988660 
# 
# From -- ./inp_files/23185.got.cif
#   From: 2010.05.17/outbox.cif.g08.bks.cpg/sg74_12_cif.got.tgz:23185.got - 2010.06.03 17:57:02.
