data_PCOD9533245
_publ_section_title
;
Structure prediction by ZEFSAII (Michael W. Deem and Ramdas Pophale) SiO2 
 PCOD9533245
Probable space group: I B C A 
;
_chemical_formula_sum "Si O2"
_cell_formula_units_Z 56
_cell_length_a 4.956746
_cell_length_b 23.983453
_cell_length_c 17.856919
_cell_angle_alpha 90.000000
_cell_angle_beta 90.000000
_cell_angle_gamma 90.000000
_cell_volume 2122.828472
_symmetry_space_group_name_H-M "I B C A "
_symmetry_group_IT_number 73
_symmetry_cell_setting 'orthorhombic'
loop_
_space_group_symop_operation_xyz
x,y,z
-x,1/2-y,z
x,-y,1/2-z
1/2-x,y,-z
-x,-y,-z
x,1/2+y,-z
-x,y,1/2+z
1/2+x,-y,z
1/2+x,1/2+y,1/2+z
1/2-x,-y,1/2+z
1/2+x,1/2-y,-z
-x,1/2+y,1/2-z
1/2-x,1/2-y,1/2-z
1/2+x,y,1/2-z
1/2-x,1/2+y,z
x,1/2-y,1/2+z
loop_
_atom_site_type_symbol
_atom_site_label
_atom_site_fract_x
_atom_site_fract_y
_atom_site_fract_z
Si Si1 0.750000 0.400407 0.500000
Si Si2 0.193944 0.204088 0.416845
Si Si3 0.433449 0.653499 0.202106
Si Si4 0.931576 0.537816 0.376829
O O1 0.901450 0.358646 0.441334
O O2 0.967131 0.436630 0.544167
O O3 0.250000 0.227202 0.500000
O O4 0.452655 0.189744 0.366527
O O5 0.000000 0.250000 0.382290
O O6 0.131640 0.664360 0.228234
O O7 0.468309 0.588970 0.179727
O O8 0.132922 0.485788 0.367422
#
# Coordination Sequence:
#
# PCOD9533245 Si02
#       4
#     8  16  16  16
#     4   8  20  40  58 100 132 170 220 288 332 396
#     4   9  21  43  67  99 130 176 228 279 338 402
#     4  11  25  44  66 100 140 175 221 279 337 402
#     4  11  22  40  66  96 133 177 223 272 335 402
#
# _framework density 26.379899999999999
#
# number of rings (size 3 to 8) (size 9 to 14) (size 15 to 20)
#    0.857    1.143    0.000    2.571    0.000    6.857 
#   10.286    0.000    0.000    0.000    0.000    0.000 
#    0.000    0.000    0.000    0.000    0.000    0.000 
#
# Total GULP energy -156712.316772 kJ/mol
# GULP energy per Si atom -5596.868456 kJ/mol
# Density = 2.631986 g / cm^3
# Si number density = 26.379900 Si / 1000 Ang^3
#
#
#
# Elastic Constant Matrix: (Units=GPa)
#
#
# Indices 1 2 3 4 5 6 
#
# 1 39.0168 30.2578 -0.4425 0.0000 0.0000 0.0000
# 2 30.2578 139.3254 47.4143 0.0000 0.0000 0.0000
# 3 -0.4425 47.4143 97.6677 0.0000 0.0000 0.0000
# 4 0.0000 0.0000 0.0000 -20.6756 0.0000 0.0000
# 5 0.0000 0.0000 0.0000 0.0000 27.6649 0.0000
# 6 0.0000 0.0000 0.0000 0.0000 0.0000 44.8512
#
#
#
# Elastic Compliance Matrix: (Units=1/GPa)
#
#
# Indices 1 2 3 4 5 6 
#
# 1 0.032226 -0.008443 0.004245 0.000000 0.000000 0.000000
# 2 -0.008443 0.010810 -0.005286 0.000000 0.000000 0.000000
# 3 0.004245 -0.005286 0.012824 0.000000 0.000000 0.000000
# 4 0.000000 0.000000 0.000000 -0.048366 0.000000 0.000000
# 5 0.000000 0.000000 0.000000 0.000000 0.036147 0.000000
# 6 0.000000 0.000000 0.000000 0.000000 0.000000 0.022296
#
#
# Mechanical properties :
#
#
# Convention : Reuss Voigt Hill
#
# Bulk Modulus (GPa) = 27.10670 47.82989 37.46830
# Shear Modulus (GPa) = 51.43884 23.62011 37.52947
#
# Velocity S-wave (km/s) = 4.42059 2.99554 3.77590
# Velocity P-wave (km/s) = 6.02937 5.48953 5.76577
#
# Compressibility (1/GPa) = 0.03689125
#
# Stress axis : x y z
#
# Youngs Moduli (GPa) = 31.03097 92.50670 77.97715
#
# Poissons Ratio (x) = 0.78105 -0.33100
# Poissons Ratio (y) = 0.26200 0.41220
# Poissons Ratio (z) = -0.13172 0.48900
#
# Static dielectric constant tensor:
#      x y z
#    x 2.053820 0.000000 0.000000 
#    y 0.000000 2.026190 0.000000 
#    z 0.000000 0.000000 2.105870 
# 
# From -- ./inp_files/1065.got.cif
#   From: 2010.05.17/outbox.cif.g08.bks.cpg/sg73_1_cif.got.tgz:1065.got - 2010.06.03 17:35:07.
