data_PCOD9533222
_publ_section_title
;
Structure prediction by ZEFSAII (Michael W. Deem and Ramdas Pophale) SiO2 
 PCOD9533222
Probable space group: I B C A 
;
_chemical_formula_sum "Si O2"
_cell_formula_units_Z 96
_cell_length_a 8.996863
_cell_length_b 27.441385
_cell_length_c 17.878228
_cell_angle_alpha 90.000000
_cell_angle_beta 90.000000
_cell_angle_gamma 90.000000
_cell_volume 4413.891016
_symmetry_space_group_name_H-M "I B C A "
_symmetry_group_IT_number 73
_symmetry_cell_setting 'orthorhombic'
loop_
_space_group_symop_operation_xyz
x,y,z
-x,1/2-y,z
x,-y,1/2-z
1/2-x,y,-z
-x,-y,-z
x,1/2+y,-z
-x,y,1/2+z
1/2+x,-y,z
1/2+x,1/2+y,1/2+z
1/2-x,-y,1/2+z
1/2+x,1/2-y,-z
-x,1/2+y,1/2-z
1/2-x,1/2-y,1/2-z
1/2+x,y,1/2-z
1/2-x,1/2+y,z
x,1/2-y,1/2+z
loop_
_atom_site_type_symbol
_atom_site_label
_atom_site_fract_x
_atom_site_fract_y
_atom_site_fract_z
Si Si1 0.700835 0.561158 0.153593
Si Si2 0.918810 0.082890 0.721319
Si Si3 0.910599 0.796767 0.029291
Si Si4 0.631098 0.883963 0.852071
Si Si5 0.118668 0.859530 0.946706
Si Si6 0.457275 0.546938 0.455096
O O1 0.802517 0.555393 0.225945
O O2 0.531979 0.548851 0.174722
O O3 0.683780 0.618984 0.129965
O O4 0.800787 0.539483 0.087789
O O5 0.805366 0.112757 0.668754
O O6 0.025149 0.113656 0.778202
O O7 0.901110 0.838331 0.093578
O O8 0.000000 0.750000 0.056620
O O9 0.750000 0.782776 0.000000
O O10 0.993321 0.819848 0.956729
O O11 0.579063 0.932551 0.896894
O O12 0.250000 0.841490 0.000000
O O13 0.060870 0.908758 0.986658
O O14 0.500000 0.500000 0.500000
#
# Coordination Sequence:
#
# PCOD9533222 Si02
#       6
#    16  16  16  16  16  16
#     4   9  17  32  56  82 109 149 196 236 291 349
#     4   9  17  33  59  83 113 159 196 240 291 356
#     4  11  22  36  57  88 123 156 196 252 310 364
#     4   9  19  36  60  88 119 158 203 243 300 363
#     4   9  18  35  57  82 112 149 194 243 300 359
#     4   9  18  34  57  85 115 148 191 246 300 353
#
# _framework density 21.749517999999998
#
# number of rings (size 3 to 8) (size 9 to 14) (size 15 to 20)
#    0.000    2.667    0.000    2.500    0.000    0.000 
#    0.000   16.667    0.000   21.000    0.000    0.000 
#    0.000    0.000    0.000    0.000    0.000    0.000 
#
# Total GULP energy -267819.799480 kJ/mol
# GULP energy per Si atom -5579.579156 kJ/mol
# Density = 2.170002 g / cm^3
# Si number density = 21.749518 Si / 1000 Ang^3
#
#
#
# Elastic Constant Matrix: (Units=GPa)
#
#
# Indices 1 2 3 4 5 6 
#
# 1 158.8743 61.1523 49.8267 0.0000 0.0000 0.0000
# 2 61.1523 102.9687 43.6088 0.0000 0.0000 0.0000
# 3 49.8267 43.6088 99.6728 0.0000 0.0000 0.0000
# 4 0.0000 0.0000 0.0000 15.4915 0.0000 0.0000
# 5 0.0000 0.0000 0.0000 0.0000 43.1215 0.0000
# 6 0.0000 0.0000 0.0000 0.0000 0.0000 27.2276
#
#
#
# Elastic Compliance Matrix: (Units=1/GPa)
#
#
# Indices 1 2 3 4 5 6 
#
# 1 0.008658 -0.004061 -0.002551 0.000000 0.000000 0.000000
# 2 -0.004061 0.013826 -0.004019 0.000000 0.000000 0.000000
# 3 -0.002551 -0.004019 0.013066 0.000000 0.000000 0.000000
# 4 0.000000 0.000000 0.000000 0.064552 0.000000 0.000000
# 5 0.000000 0.000000 0.000000 0.000000 0.023190 0.000000
# 6 0.000000 0.000000 0.000000 0.000000 0.000000 0.036727
#
#
# Mechanical properties :
#
#
# Convention : Reuss Voigt Hill
#
# Bulk Modulus (GPa) = 69.99144 74.52125 72.25634
# Shear Modulus (GPa) = 26.87541 30.96331 28.91936
#
# Velocity S-wave (km/s) = 3.51904 3.77720 3.65040
# Velocity P-wave (km/s) = 6.98298 7.30484 7.14573
#
# Compressibility (1/GPa) = 0.01428746
#
# Stress axis : x y z
#
# Youngs Moduli (GPa) = 115.50581 72.32934 76.53216
#
# Poissons Ratio (x) = 0.29375 0.19524
# Poissons Ratio (y) = 0.46910 0.30756
# Poissons Ratio (z) = 0.29466 0.29067
#
# Static dielectric constant tensor:
#      x y z
#    x 1.876680 0.000000 0.000000 
#    y 0.000000 1.771650 0.000000 
#    z 0.000000 0.000000 1.902100 
# 
# From -- ./inp_files/24862.got.cif
#   From: 2010.05.17/outbox.cif.g08.bks.cpg/sg73_13_cif.got.tgz:24862.got - 2010.06.03 17:35:07.
