data_PCOD9533938
_publ_section_title
;
Structure prediction by ZEFSAII (Michael W. Deem and Ramdas Pophale) SiO2 
 PCOD9533938
Probable space group: I M M A
;
_chemical_formula_sum "Si O2"
_cell_formula_units_Z 56
_cell_length_a 7.913626
_cell_length_b 10.999529
_cell_length_c 27.818171
_cell_angle_alpha 90.000000
_cell_angle_beta 90.000000
_cell_angle_gamma 90.000000
_cell_volume 2421.464927
_symmetry_space_group_name_H-M "I M M A"
_symmetry_group_IT_number 74
_symmetry_cell_setting 'orthorhombic'
loop_
_space_group_symop_operation_xyz
x,y,z
-x,1/2-y,z
x,-y,-z
-x,1/2+y,-z
-x,-y,-z
x,1/2+y,-z
-x,y,z
x,1/2-y,z
1/2+x,1/2+y,1/2+z
1/2-x,-y,1/2+z
1/2+x,1/2-y,1/2-z
1/2-x,y,1/2-z
1/2-x,1/2-y,1/2-z
1/2+x,y,1/2-z
1/2-x,1/2+y,1/2+z
1/2+x,-y,1/2+z
loop_
_atom_site_type_symbol
_atom_site_label
_atom_site_fract_x
_atom_site_fract_y
_atom_site_fract_z
Si Si1 0.800093 0.501088 0.798977
Si Si2 0.814772 0.250000 0.923686
Si Si3 0.202498 0.027541 0.088937
Si Si4 0.818224 0.750000 0.325112
Si Si5 0.500000 0.878083 0.970487
O O1 0.750000 0.571120 0.750000
O O2 0.765528 0.544441 0.853660
O O3 0.699825 0.373822 0.796886
O O4 0.000000 0.480734 0.797448
O O5 0.750973 0.389113 0.929091
O O6 0.823609 0.250000 0.865439
O O7 0.000000 0.250000 0.946860
O O8 0.329622 0.114124 0.061078
O O9 0.000000 0.043401 0.080882
O O10 0.000000 0.750000 0.350606
O O11 0.500000 0.750000 0.998078
O O12 0.500000 0.000000 0.000000
#
# Coordination Sequence:
#
# PCOD9533938 Si02
#       5
#    16   8  16   8   8
#     4  10  19  30  50  86 129 180 229 277 330 405
#     4   8  16  31  57  94 130 178 227 273 341 411
#     4   9  21  41  67 100 142 186 227 289 350 413
#     4  10  17  23  38  72 127 182 226 276 328 381
#     4  12  30  50  76 108 136 178 236 294 357 426
#
# _framework density 23.126498000000002
#
# number of rings (size 3 to 8) (size 9 to 14) (size 15 to 20)
#    0.000    2.286    0.000    4.286   12.000    1.143 
#    0.000    0.000    0.000    0.857    0.000    0.000 
#    0.000    0.000    0.000    0.000    0.000    0.000 
#
# Total GULP energy -155879.523681 kJ/mol
# GULP energy per Si atom -5567.125846 kJ/mol
# Density = 2.307386 g / cm^3
# Si number density = 23.126498 Si / 1000 Ang^3
#
#
#
# Elastic Constant Matrix: (Units=GPa)
#
#
# Indices 1 2 3 4 5 6 
#
# 1 104.8989 28.4913 48.1642 0.0000 0.0000 0.0000
# 2 28.4913 90.4125 35.9699 0.0000 0.0000 0.0000
# 3 48.1642 35.9699 64.0086 0.0000 0.0000 0.0000
# 4 0.0000 0.0000 0.0000 4.8755 0.0000 0.0000
# 5 0.0000 0.0000 0.0000 0.0000 25.4197 0.0000
# 6 0.0000 0.0000 0.0000 0.0000 0.0000 18.1802
#
#
#
# Elastic Compliance Matrix: (Units=1/GPa)
#
#
# Indices 1 2 3 4 5 6 
#
# 1 0.014571 -0.000296 -0.010798 0.000000 0.000000 0.000000
# 2 -0.000296 0.014251 -0.007786 0.000000 0.000000 0.000000
# 3 -0.010798 -0.007786 0.028123 0.000000 0.000000 0.000000
# 4 0.000000 0.000000 0.000000 0.205108 0.000000 0.000000
# 5 0.000000 0.000000 0.000000 0.000000 0.039340 0.000000
# 6 0.000000 0.000000 0.000000 0.000000 0.000000 0.055005
#
#
# Mechanical properties :
#
#
# Convention : Reuss Voigt Hill
#
# Bulk Modulus (GPa) = 52.12091 53.84121 52.98106
# Shear Modulus (GPa) = 12.48272 19.47472 15.97872
#
# Velocity S-wave (km/s) = 2.32579 2.90504 2.63140
# Velocity P-wave (km/s) = 5.45881 5.88082 5.67374
#
# Compressibility (1/GPa) = 0.01918616
#
# Stress axis : x y z
#
# Youngs Moduli (GPa) = 68.62810 70.16948 35.55752
#
# Poissons Ratio (x) = 0.02076 0.38396
# Poissons Ratio (y) = 0.02030 0.27685
# Poissons Ratio (z) = 0.74106 0.54633
#
# Static dielectric constant tensor:
#      x y z
#    x 1.462450 0.000000 0.000000 
#    y 0.000000 1.890250 0.000000 
#    z 0.000000 0.000000 1.907360 
# 
# From -- ./inp_files/69687.got.cif
#   From: 2010.05.17/outbox.cif.g08.bks.cpg/sg74_35_cif.got.tgz:69687.got - 2010.06.03 17:57:02.
