data_PCOD9533321
_publ_section_title
;
Structure prediction by ZEFSAII (Michael W. Deem and Ramdas Pophale) SiO2 
 PCOD9533321
Probable space group: I B C A 
;
_chemical_formula_sum "Si O2"
_cell_formula_units_Z 104
_cell_length_a 8.504374
_cell_length_b 27.391468
_cell_length_c 23.226702
_cell_angle_alpha 90.000000
_cell_angle_beta 90.000000
_cell_angle_gamma 90.000000
_cell_volume 5410.597247
_symmetry_space_group_name_H-M "I B C A "
_symmetry_group_IT_number 73
_symmetry_cell_setting 'orthorhombic'
loop_
_space_group_symop_operation_xyz
x,y,z
-x,1/2-y,z
x,-y,1/2-z
1/2-x,y,-z
-x,-y,-z
x,1/2+y,-z
-x,y,1/2+z
1/2+x,-y,z
1/2+x,1/2+y,1/2+z
1/2-x,-y,1/2+z
1/2+x,1/2-y,-z
-x,1/2+y,1/2-z
1/2-x,1/2-y,1/2-z
1/2+x,y,1/2-z
1/2-x,1/2+y,z
x,1/2-y,1/2+z
loop_
_atom_site_type_symbol
_atom_site_label
_atom_site_fract_x
_atom_site_fract_y
_atom_site_fract_z
Si Si1 0.465883 0.054242 0.329556
Si Si2 0.250000 0.383629 0.000000
Si Si3 0.966647 0.882853 0.217985
Si Si4 0.862821 0.785417 0.285824
Si Si5 0.757087 0.860395 0.628571
Si Si6 0.434607 0.447494 0.518965
Si Si7 0.305868 0.044579 0.144514
O O1 0.507631 0.077931 0.267715
O O2 0.369023 0.096584 0.361027
O O3 0.620624 0.040632 0.365613
O O4 0.363862 0.005133 0.325408
O O5 0.229880 0.355530 0.939698
O O6 0.081989 0.413298 0.000514
O O7 0.098309 0.876496 0.169406
O O8 0.922181 0.831289 0.246951
O O9 0.824672 0.908156 0.184509
O O10 0.750000 0.750000 0.250000
O O11 0.790911 0.810053 0.341826
O O12 0.000000 0.750000 0.304208
O O13 0.250000 0.438458 0.500000
O O14 0.500000 0.500000 0.500000
O O15 0.410495 0.447812 0.587923
#
# Coordination Sequence:
#
# PCOD9533321 Si02
#       7
#    16   8  16  16  16  16  16
#     4  11  24  37  60  92 132 172 218 267 322 384
#     4  12  24  44  66  90 140 176 224 278 320 390
#     4  11  23  41  63  96 128 164 214 264 332 390
#     4  11  23  43  73  99 124 159 210 271 337 405
#     4  11  23  43  67  96 126 174 215 268 330 389
#     4  12  24  39  60  87 126 185 238 266 308 379
#     4  12  23  39  57  89 132 172 218 266 318 381
#
# _framework density 19.221537999999999
#
# number of rings (size 3 to 8) (size 9 to 14) (size 15 to 20)
#    0.000    0.615    3.846    6.000    2.154    1.231 
#    0.000    0.000    3.385    0.000    0.000    0.000 
#    0.000    0.000    0.000    0.000    0.000    0.000 
#
# Total GULP energy -289984.090601 kJ/mol
# GULP energy per Si atom -5576.617127 kJ/mol
# Density = 1.917779 g / cm^3
# Si number density = 19.221538 Si / 1000 Ang^3
#
#
#
# Elastic Constant Matrix: (Units=GPa)
#
#
# Indices 1 2 3 4 5 6 
#
# 1 109.8969 35.9912 29.9409 0.0000 0.0000 0.0000
# 2 35.9912 105.4036 46.9107 0.0000 0.0000 0.0000
# 3 29.9409 46.9107 146.1130 0.0000 0.0000 0.0000
# 4 0.0000 0.0000 0.0000 20.2090 0.0000 0.0000
# 5 0.0000 0.0000 0.0000 0.0000 27.8632 0.0000
# 6 0.0000 0.0000 0.0000 0.0000 0.0000 30.2366
#
#
#
# Elastic Compliance Matrix: (Units=1/GPa)
#
#
# Indices 1 2 3 4 5 6 
#
# 1 0.010410 -0.003040 -0.001157 0.000000 0.000000 0.000000
# 2 -0.003040 0.011956 -0.003216 0.000000 0.000000 0.000000
# 3 -0.001157 -0.003216 0.008114 0.000000 0.000000 0.000000
# 4 0.000000 0.000000 0.000000 0.049483 0.000000 0.000000
# 5 0.000000 0.000000 0.000000 0.000000 0.035890 0.000000
# 6 0.000000 0.000000 0.000000 0.000000 0.000000 0.033072
#
#
# Mechanical properties :
#
#
# Convention : Reuss Voigt Hill
#
# Bulk Modulus (GPa) = 63.87830 65.23323 64.55576
# Shear Modulus (GPa) = 29.59119 32.23314 30.91216
#
# Velocity S-wave (km/s) = 3.92788 4.09947 4.01459
# Velocity P-wave (km/s) = 7.34001 7.51125 7.42612
#
# Compressibility (1/GPa) = 0.01565477
#
# Stress axis : x y z
#
# Youngs Moduli (GPa) = 96.05945 83.63652 123.24904
#
# Poissons Ratio (x) = 0.25422 0.14264
# Poissons Ratio (y) = 0.29198 0.39635
# Poissons Ratio (z) = 0.11117 0.26896
#
# Static dielectric constant tensor:
#      x y z
#    x 1.864680 0.000000 0.000000 
#    y 0.000000 1.709120 0.000000 
#    z 0.000000 0.000000 1.720400 
# 
# From -- ./inp_files/7313.got.cif
#   From: 2010.05.17/outbox.cif.g08.bks.cpg/sg73_4_cif.got.tgz:7313.got - 2010.06.03 17:35:07.
