data_PCOD9533553
_publ_section_title
;
Structure prediction by ZEFSAII (Michael W. Deem and Ramdas Pophale) SiO2 
 PCOD9533553
Probable space group: I B C A 
;
_chemical_formula_sum "Si O2"
_cell_formula_units_Z 64
_cell_length_a 18.701286
_cell_length_b 10.938766
_cell_length_c 14.621065
_cell_angle_alpha 90.000000
_cell_angle_beta 90.000000
_cell_angle_gamma 90.000000
_cell_volume 2991.016521
_symmetry_space_group_name_H-M "I B C A "
_symmetry_group_IT_number 73
_symmetry_cell_setting 'orthorhombic'
loop_
_space_group_symop_operation_xyz
x,y,z
-x,1/2-y,z
x,-y,1/2-z
1/2-x,y,-z
-x,-y,-z
x,1/2+y,-z
-x,y,1/2+z
1/2+x,-y,z
1/2+x,1/2+y,1/2+z
1/2-x,-y,1/2+z
1/2+x,1/2-y,-z
-x,1/2+y,1/2-z
1/2-x,1/2-y,1/2-z
1/2+x,y,1/2-z
1/2-x,1/2+y,z
x,1/2-y,1/2+z
loop_
_atom_site_type_symbol
_atom_site_label
_atom_site_fract_x
_atom_site_fract_y
_atom_site_fract_z
Si Si1 0.600163 0.000000 0.750000
Si Si2 0.307058 0.218817 0.327712
Si Si3 0.005998 0.383739 0.400343
Si Si4 0.750000 0.429214 0.500000
Si Si5 0.112514 0.571542 0.938508
O O1 0.645538 0.884455 0.719646
O O2 0.552267 0.968413 0.836118
O O3 0.250000 0.250000 0.250000
O O4 0.265959 0.157429 0.413525
O O5 0.356159 0.330967 0.365601
O O6 0.052359 0.370394 0.494056
O O7 0.000000 0.250000 0.359145
O O8 0.929827 0.450139 0.406417
O O9 0.818141 0.517588 0.488926
#
# Coordination Sequence:
#
# PCOD9533553 Si02
#       5
#     8  16  16   8  16
#     4  12  28  48  70 116 144 192 254 310 378 454
#     4  12  28  46  78 110 151 193 254 314 384 451
#     4  11  27  47  75 107 150 197 249 304 380 453
#     4  12  24  50  74 110 150 192 254 308 376 452
#     4  11  26  48  76 107 148 201 245 310 380 455
#
# _framework density 21.397407999999999
#
# number of rings (size 3 to 8) (size 9 to 14) (size 15 to 20)
#    0.000    0.500    2.500    3.750   14.000    0.000 
#    0.000    0.000    0.000    0.000    0.000    0.000 
#    0.000    0.000    0.000    0.000    0.000    0.000 
#
# Total GULP energy -178874.590012 kJ/mol
# GULP energy per Si atom -5589.830938 kJ/mol
# Density = 2.134871 g / cm^3
# Si number density = 21.397408 Si / 1000 Ang^3
#
#
#
# Elastic Constant Matrix: (Units=GPa)
#
#
# Indices 1 2 3 4 5 6 
#
# 1 135.2604 65.9993 37.2295 0.0000 0.0000 0.0000
# 2 65.9993 109.2157 20.4387 0.0000 0.0000 0.0000
# 3 37.2295 20.4387 68.7878 0.0000 0.0000 0.0000
# 4 0.0000 0.0000 0.0000 41.3604 0.0000 0.0000
# 5 0.0000 0.0000 0.0000 0.0000 -17.2031 0.0000
# 6 0.0000 0.0000 0.0000 0.0000 0.0000 46.5296
#
#
#
# Elastic Compliance Matrix: (Units=1/GPa)
#
#
# Indices 1 2 3 4 5 6 
#
# 1 0.011648 -0.006204 -0.004461 0.000000 0.000000 0.000000
# 2 -0.006204 0.013000 -0.000505 0.000000 0.000000 0.000000
# 3 -0.004461 -0.000505 0.017102 0.000000 0.000000 0.000000
# 4 0.000000 0.000000 0.000000 0.024178 0.000000 0.000000
# 5 0.000000 0.000000 0.000000 0.000000 -0.058129 0.000000
# 6 0.000000 0.000000 0.000000 0.000000 0.000000 0.021492
#
#
# Mechanical properties :
#
#
# Convention : Reuss Voigt Hill
#
# Bulk Modulus (GPa) = 51.51930 62.28878 56.90404
# Shear Modulus (GPa) = 86.05813 26.77714 56.41763
#
# Velocity S-wave (km/s) = 6.34872 3.54138 5.14041
# Velocity P-wave (km/s) = 8.82447 6.77462 7.86660
#
# Compressibility (1/GPa) = 0.01941020
#
# Stress axis : x y z
#
# Youngs Moduli (GPa) = 85.84935 76.92357 58.47358
#
# Poissons Ratio (x) = 0.47726 0.26084
# Poissons Ratio (y) = 0.53263 0.02951
# Poissons Ratio (z) = 0.38296 0.03883
#
# Static dielectric constant tensor:
#      x y z
#    x 1.947120 0.000000 0.000000 
#    y 0.000000 1.755110 0.000000 
#    z 0.000000 0.000000 1.817020 
# 
# From -- ./inp_files/11530.got.cif
#   From: 2010.05.17/outbox.cif.g08.bks.cpg/sg73_6_cif.got.tgz:11530.got - 2010.06.03 17:35:07.
