data_PCOD9533632
_publ_section_title
;
Structure prediction by ZEFSAII (Michael W. Deem and Ramdas Pophale) SiO2 
 PCOD9533632
Probable space group: I B C A 
;
_chemical_formula_sum "Si O2"
_cell_formula_units_Z 72
_cell_length_a 21.298333
_cell_length_b 9.611155
_cell_length_c 14.746983
_cell_angle_alpha 90.000000
_cell_angle_beta 90.000000
_cell_angle_gamma 90.000000
_cell_volume 3018.730716
_symmetry_space_group_name_H-M "I B C A "
_symmetry_group_IT_number 73
_symmetry_cell_setting 'orthorhombic'
loop_
_space_group_symop_operation_xyz
x,y,z
-x,1/2-y,z
x,-y,1/2-z
1/2-x,y,-z
-x,-y,-z
x,1/2+y,-z
-x,y,1/2+z
1/2+x,-y,z
1/2+x,1/2+y,1/2+z
1/2-x,-y,1/2+z
1/2+x,1/2-y,-z
-x,1/2+y,1/2-z
1/2-x,1/2-y,1/2-z
1/2+x,y,1/2-z
1/2-x,1/2+y,z
x,1/2-y,1/2+z
loop_
_atom_site_type_symbol
_atom_site_label
_atom_site_fract_x
_atom_site_fract_y
_atom_site_fract_z
Si Si1 0.750000 0.373385 0.500000
Si Si2 0.896260 0.500000 0.250000
Si Si3 0.693749 0.240041 0.179660
Si Si4 0.615320 0.578259 0.057118
Si Si5 0.059031 0.646085 0.927351
Si Si6 0.383583 0.000000 0.250000
O O1 0.775547 0.283147 0.417039
O O2 0.688742 0.456422 0.462049
O O3 0.851429 0.391074 0.301585
O O4 0.934582 0.413730 0.174492
O O5 0.750000 0.250000 0.250000
O O6 0.654758 0.376684 0.202611
O O7 0.613735 0.744862 0.045898
O O8 0.587163 0.562051 0.159083
O O9 0.571645 0.485863 0.992281
O O10 0.000000 0.750000 0.941443
#
# Coordination Sequence:
#
# PCOD9533632 Si02
#       6
#     8   8  16  16  16   8
#     4  12  24  44  78 112 166 216 252 336 416 490
#     4  12  25  51  76 116 160 210 278 338 408 492
#     4  12  24  43  71 113 164 209 259 320 403 498
#     4  12  27  48  76 117 156 209 271 330 414 488
#     4  12  28  53  80 114 158 216 274 342 404 484
#     4  12  25  43  72 110 162 202 270 322 386 492
#
# _framework density 23.851085000000001
#
# number of rings (size 3 to 8) (size 9 to 14) (size 15 to 20)
#    0.000    0.000    6.667    2.667    0.000    4.444 
#    0.000    2.222    0.000    0.000    0.000    0.000 
#    0.000    0.000    0.000    0.000    0.000    0.000 
#
# Total GULP energy -201107.693123 kJ/mol
# GULP energy per Si atom -5586.324809 kJ/mol
# Density = 2.379680 g / cm^3
# Si number density = 23.851085 Si / 1000 Ang^3
#
#
#
# Elastic Constant Matrix: (Units=GPa)
#
#
# Indices 1 2 3 4 5 6 
#
# 1 112.0190 33.2509 45.5069 0.0000 0.0000 0.0000
# 2 33.2509 153.5860 55.7095 0.0000 0.0000 0.0000
# 3 45.5069 55.7095 211.6902 0.0000 0.0000 0.0000
# 4 0.0000 0.0000 0.0000 54.3616 0.0000 0.0000
# 5 0.0000 0.0000 0.0000 0.0000 25.6871 0.0000
# 6 0.0000 0.0000 0.0000 0.0000 0.0000 47.4129
#
#
#
# Elastic Compliance Matrix: (Units=1/GPa)
#
#
# Indices 1 2 3 4 5 6 
#
# 1 0.010103 -0.001547 -0.001765 0.000000 0.000000 0.000000
# 2 -0.001547 0.007435 -0.001624 0.000000 0.000000 0.000000
# 3 -0.001765 -0.001624 0.005531 0.000000 0.000000 0.000000
# 4 0.000000 0.000000 0.000000 0.018395 0.000000 0.000000
# 5 0.000000 0.000000 0.000000 0.000000 0.038930 0.000000
# 6 0.000000 0.000000 0.000000 0.000000 0.000000 0.021091
#
#
# Mechanical properties :
#
#
# Convention : Reuss Voigt Hill
#
# Bulk Modulus (GPa) = 75.77494 82.91443 79.34469
# Shear Modulus (GPa) = 43.19410 48.34750 45.77080
#
# Velocity S-wave (km/s) = 4.26019 4.50717 4.38542
# Velocity P-wave (km/s) = 7.48585 7.86924 7.67994
#
# Compressibility (1/GPa) = 0.01319698
#
# Stress axis : x y z
#
# Youngs Moduli (GPa) = 98.97837 134.49796 180.81101
#
# Poissons Ratio (x) = 0.20810 0.31908
# Poissons Ratio (y) = 0.15314 0.29365
# Poissons Ratio (z) = 0.17467 0.21843
#
# Static dielectric constant tensor:
#      x y z
#    x 1.962110 0.000000 0.000000 
#    y 0.000000 1.700910 0.000000 
#    z 0.000000 0.000000 2.011740 
# 
# From -- ./inp_files/19692.got.cif
#   From: 2010.05.17/outbox.cif.g08.bks.cpg/sg73_10_cif.got.tgz:19692.got - 2010.06.03 17:35:07.
