data_PCOD9533984
_publ_section_title
;
Structure prediction by ZEFSAII (Michael W. Deem and Ramdas Pophale) SiO2 
 PCOD9533984
Probable space group: I M M A
;
_chemical_formula_sum "Si O2"
_cell_formula_units_Z 96
_cell_length_a 23.285798
_cell_length_b 14.074536
_cell_length_c 20.998025
_cell_angle_alpha 90.000000
_cell_angle_beta 90.000000
_cell_angle_gamma 90.000000
_cell_volume 6881.825567
_symmetry_space_group_name_H-M "I M M A"
_symmetry_group_IT_number 74
_symmetry_cell_setting 'orthorhombic'
loop_
_space_group_symop_operation_xyz
x,y,z
-x,1/2-y,z
x,-y,-z
-x,1/2+y,-z
-x,-y,-z
x,1/2+y,-z
-x,y,z
x,1/2-y,z
1/2+x,1/2+y,1/2+z
1/2-x,-y,1/2+z
1/2+x,1/2-y,1/2-z
1/2-x,y,1/2-z
1/2-x,1/2-y,1/2-z
1/2+x,y,1/2-z
1/2-x,1/2+y,1/2+z
1/2+x,-y,1/2+z
loop_
_atom_site_type_symbol
_atom_site_label
_atom_site_fract_x
_atom_site_fract_y
_atom_site_fract_z
Si Si1 0.849875 0.956729 0.853684
Si Si2 0.065869 0.364728 0.044694
Si Si3 0.718481 0.445907 0.099241
Si Si4 0.317010 0.859971 0.771938
Si Si5 0.228190 0.358156 0.537591
Si Si6 0.139123 0.141033 0.922889
O O1 0.895085 0.903566 0.898532
O O2 0.785674 0.938302 0.880941
O O3 0.850379 0.918875 0.781917
O O4 0.860724 0.068413 0.864504
O O5 0.067374 0.250000 0.047200
O O6 0.000000 0.396021 0.049194
O O7 0.094240 0.390596 0.976883
O O8 0.682459 0.406083 0.158238
O O9 0.706414 0.556255 0.082420
O O10 0.711985 0.385914 0.034494
O O11 0.335330 0.750000 0.773172
O O12 0.250000 0.860923 0.750000
O O13 0.210844 0.250000 0.552906
O O14 0.297632 0.362572 0.544870
O O15 0.127882 0.250000 0.904896
#
# Coordination Sequence:
#
# PCOD9533984 Si02
#       6
#    16  16  16  16  16  16
#     4  10  17  27  39  53  73  99 128 160 193 229
#     4  10  19  28  40  58  77  99 131 170 205 230
#     4   9  16  25  38  57  74  97 129 156 187 227
#     4   9  17  26  38  54  72  94 123 158 190 225
#     4   9  15  24  39  55  75  99 123 154 189 225
#     4   9  17  27  38  52  71  97 129 160 193 227
#
# _framework density 13.949787000000001
#
# number of rings (size 3 to 8) (size 9 to 14) (size 15 to 20)
#    0.000    2.667    1.667    1.500    0.000    2.667 
#    0.000    0.833    0.000    5.000    0.000    0.000 
#    0.000    0.000    0.000    3.000    0.000    5.333 
#
# Total GULP energy -267315.284604 kJ/mol
# GULP energy per Si atom -5569.068429 kJ/mol
# Density = 1.391804 g / cm^3
# Si number density = 13.949787 Si / 1000 Ang^3
#
#
#
# Elastic Constant Matrix: (Units=GPa)
#
#
# Indices 1 2 3 4 5 6 
#
# 1 26.2444 24.8249 26.4779 0.0000 0.0000 0.0000
# 2 24.8249 108.3640 69.9063 0.0000 0.0000 0.0000
# 3 26.4779 69.9063 108.4449 0.0000 0.0000 0.0000
# 4 0.0000 0.0000 0.0000 19.7712 0.0000 0.0000
# 5 0.0000 0.0000 0.0000 0.0000 7.7395 0.0000
# 6 0.0000 0.0000 0.0000 0.0000 0.0000 10.9084
#
#
#
# Elastic Compliance Matrix: (Units=1/GPa)
#
#
# Indices 1 2 3 4 5 6 
#
# 1 0.053109 -0.006508 -0.008772 0.000000 0.000000 0.000000
# 2 -0.006508 0.016595 -0.009109 0.000000 0.000000 0.000000
# 3 -0.008772 -0.009109 0.017235 0.000000 0.000000 0.000000
# 4 0.000000 0.000000 0.000000 0.050579 0.000000 0.000000
# 5 0.000000 0.000000 0.000000 0.000000 0.129207 0.000000
# 6 0.000000 0.000000 0.000000 0.000000 0.000000 0.091672
#
#
# Mechanical properties :
#
#
# Convention : Reuss Voigt Hill
#
# Bulk Modulus (GPa) = 26.20406 53.94128 40.07267
# Shear Modulus (GPa) = 11.90773 15.80676 13.85725
#
# Velocity S-wave (km/s) = 2.92484 3.36983 3.15519
# Velocity P-wave (km/s) = 5.49832 7.34120 6.48555
#
# Compressibility (1/GPa) = 0.03816203
#
# Stress axis : x y z
#
# Youngs Moduli (GPa) = 18.82910 60.25895 58.02235
#
# Poissons Ratio (x) = 0.39215 0.50898
# Poissons Ratio (y) = 0.12254 0.52851
# Poissons Ratio (z) = 0.16517 0.54888
#
# Static dielectric constant tensor:
#      x y z
#    x 1.429450 0.000000 0.000000 
#    y 0.000000 1.497130 0.000000 
#    z 0.000000 0.000000 1.442460 
# 
# From -- ./inp_files/52223.got.cif
#   From: 2010.05.17/outbox.cif.g08.bks.cpg/sg74_27_cif.got.tgz:52223.got - 2010.06.03 17:57:02.
