data_PCOD9533751
_publ_section_title
;
Structure prediction by ZEFSAII (Michael W. Deem and Ramdas Pophale) SiO2 
 PCOD9533751
Probable space group: I B C A 
;
_chemical_formula_sum "Si O2"
_cell_formula_units_Z 60
_cell_length_a 27.000000
_cell_length_b 9.000000
_cell_length_c 24.000000
_cell_angle_alpha 90.000000
_cell_angle_beta 90.000000
_cell_angle_gamma 90.000000
_cell_volume 5832.000000
_symmetry_space_group_name_H-M "I B C A "
_symmetry_group_IT_number 73
_symmetry_cell_setting 'orthorhombic'
loop_
_space_group_symop_operation_xyz
x,y,z
-x,1/2-y,z
x,-y,1/2-z
1/2-x,y,-z
-x,-y,-z
x,1/2+y,-z
-x,y,1/2+z
1/2+x,-y,z
1/2+x,1/2+y,1/2+z
1/2-x,-y,1/2+z
1/2+x,1/2-y,-z
-x,1/2+y,1/2-z
1/2-x,1/2-y,1/2-z
1/2+x,y,1/2-z
1/2-x,1/2+y,z
x,1/2-y,1/2+z
loop_
_atom_site_type_symbol
_atom_site_label
_atom_site_fract_x
_atom_site_fract_y
_atom_site_fract_z
Si Si1 0.084912 0.101504 0.295877
Si Si2 0.123937 0.274319 0.963947
Si Si3 0.822953 0.259822 0.345904
Si Si4 0.054344 0.442226 0.516206
Si Si5 0.925104 0.813177 0.868909
Si Si6 0.251422 0.006940 0.129152
Si Si7 0.000000 0.750000 0.278029
Si Si8 0.679988 0.752757 0.581030
O O1 0.124868 0.223919 0.313716
O O2 0.034571 0.157982 0.265751
O O3 0.111604 0.000000 0.250000
O O4 0.073308 0.981995 0.344191
O O5 0.158840 0.264650 0.910367
O O6 0.092075 0.425563 0.967111
O O7 0.082488 0.144672 0.966724
O O8 0.157606 0.258546 0.019121
O O9 0.786775 0.401508 0.337386
O O10 0.788679 0.115558 0.337408
O O11 0.052474 0.330185 0.569109
O O12 0.000000 0.500000 0.500000
O O13 0.868349 0.762347 0.878550
O O14 0.956564 0.714115 0.824608
O O15 0.216221 0.113172 0.091877
O O16 0.287127 0.896985 0.094549
#
# Coordination Sequence:
#
# PCOD9533751 Si02
#       8
#    16  16  16  16  16  16   8  16
#     4  10  21  44  67  91 120 164 218 279 328 384
#     4  11  22  37  58  93 132 179 215 262 315 379
#     4  11  21  41  61  94 130 165 218 275 319 390
#     4  11  23  36  59  93 136 178 212 250 324 394
#     4  10  21  43  64  91 134 167 210 279 318 392
#     4  10  22  37  65  93 129 177 213 260 333 380
#     4  10  24  40  72  92 114 172 218 264 348 376
#     4  10  21  38  62  94 136 173 215 255 321 395
#
# _framework density 10.288066000000001
#
# number of rings (size 3 to 8) (size 9 to 14) (size 15 to 20)
#    0.000    1.600    2.667    2.000    3.733    4.267 
#    7.200    0.667    0.000    0.000    0.000    0.000 
#    0.000    0.000    0.000    0.000    0.000    0.000 
#
# Total GULP energy -334597.573319 kJ/mol
# GULP energy per Si atom -5576.626222 kJ/mol
# Density = 1.026465 g / cm^3
# Si number density = 10.288066 Si / 1000 Ang^3
#
#
#
# Elastic Constant Matrix: (Units=GPa)
#
#
# Indices 1 2 3 4 5 6 
#
# 1 152.9759 47.2413 36.6119 0.0000 0.0000 0.0000
# 2 47.2413 84.7363 8.1793 0.0000 0.0000 0.0000
# 3 36.6119 8.1793 61.1427 0.0000 0.0000 0.0000
# 4 0.0000 0.0000 0.0000 18.4417 0.0000 0.0000
# 5 0.0000 0.0000 0.0000 0.0000 24.5988 0.0000
# 6 0.0000 0.0000 0.0000 0.0000 0.0000 49.9088
#
#
#
# Elastic Compliance Matrix: (Units=1/GPa)
#
#
# Indices 1 2 3 4 5 6 
#
# 1 0.009123 -0.004618 -0.004845 0.000000 0.000000 0.000000
# 2 -0.004618 0.014294 0.000853 0.000000 0.000000 0.000000
# 3 -0.004845 0.000853 0.019142 0.000000 0.000000 0.000000
# 4 0.000000 0.000000 0.000000 0.054225 0.000000 0.000000
# 5 0.000000 0.000000 0.000000 0.000000 0.040652 0.000000
# 6 0.000000 0.000000 0.000000 0.000000 0.000000 0.020037
#
#
# Mechanical properties :
#
#
# Convention : Reuss Voigt Hill
#
# Bulk Modulus (GPa) = 39.46514 53.65778 46.56146
# Shear Modulus (GPa) = 27.30177 32.37803 29.83990
#
# Velocity S-wave (km/s) = 3.64657 3.97113 3.81231
# Velocity P-wave (km/s) = 6.07879 6.86737 6.48508
#
# Compressibility (1/GPa) = 0.02533882
#
# Stress axis : x y z
#
# Youngs Moduli (GPa) = 109.61655 69.96075 52.24095
#
# Poissons Ratio (x) = 0.32310 0.25310
# Poissons Ratio (y) = 0.50625 -0.04458
# Poissons Ratio (z) = 0.53107 -0.05970
#
# Static dielectric constant tensor:
#      x y z
#    x 1.716720 0.000000 0.000000 
#    y 0.000000 1.800720 0.000000 
#    z 0.000000 0.000000 1.780780 
# 
# From -- ./inp_files/30511.got.cif
#   From: 2010.05.17/outbox.ucp.g08.bks.cvg/sg73_16_cif.got.tgz:30511.got - 2010.06.11 16:36:03.
