data_PCOD9533449
_publ_section_title
;
Structure prediction by ZEFSAII (Michael W. Deem and Ramdas Pophale) SiO2 
 PCOD9533449
Probable space group: I B C A 
;
_chemical_formula_sum "Si O2"
_cell_formula_units_Z 64
_cell_length_a 9.978076
_cell_length_b 17.942496
_cell_length_c 15.528241
_cell_angle_alpha 90.000000
_cell_angle_beta 90.000000
_cell_angle_gamma 90.000000
_cell_volume 2780.045656
_symmetry_space_group_name_H-M "I B C A "
_symmetry_group_IT_number 73
_symmetry_cell_setting 'orthorhombic'
loop_
_space_group_symop_operation_xyz
x,y,z
-x,1/2-y,z
x,-y,1/2-z
1/2-x,y,-z
-x,-y,-z
x,1/2+y,-z
-x,y,1/2+z
1/2+x,-y,z
1/2+x,1/2+y,1/2+z
1/2-x,-y,1/2+z
1/2+x,1/2-y,-z
-x,1/2+y,1/2-z
1/2-x,1/2-y,1/2-z
1/2+x,y,1/2-z
1/2-x,1/2+y,z
x,1/2-y,1/2+z
loop_
_atom_site_type_symbol
_atom_site_label
_atom_site_fract_x
_atom_site_fract_y
_atom_site_fract_z
Si Si1 0.098749 0.934953 0.483265
Si Si2 0.611475 0.786405 0.955527
Si Si3 0.797997 0.821567 0.695536
Si Si4 0.520583 0.083554 0.794158
O O1 0.250000 0.959718 0.500000
O O2 0.070172 0.871491 0.554888
O O3 0.061782 0.914301 0.385007
O O4 0.000000 0.000000 0.500000
O O5 0.500000 0.750000 0.016643
O O6 0.640748 0.722865 0.886471
O O7 0.750000 0.798585 0.000000
O O8 0.750000 0.750000 0.750000
O O9 0.667343 0.876935 0.690476
O O10 0.922547 0.866431 0.735277
O O11 0.533935 0.000000 0.750000
#
# Coordination Sequence:
#
# PCOD9533449 Si02
#       4
#    16  16  16  16
#     4  11  28  47  76 109 155 204 262 324 397 474
#     4  11  24  45  76 109 149 198 265 321 396 472
#     4  12  26  47  78 111 156 211 267 331 400 485
#     4  12  29  49  78 118 167 209 267 335 417 489
#
# _framework density 23.021204000000001
#
# number of rings (size 3 to 8) (size 9 to 14) (size 15 to 20)
#    0.000    0.500    0.000    7.500   14.000    1.000 
#    0.000    0.000    0.000    0.000    0.000    0.000 
#    0.000    0.000    0.000    0.000    0.000    0.000 
#
# Total GULP energy -178247.281324 kJ/mol
# GULP energy per Si atom -5570.227541 kJ/mol
# Density = 2.296881 g / cm^3
# Si number density = 23.021204 Si / 1000 Ang^3
#
#
#
# Elastic Constant Matrix: (Units=GPa)
#
#
# Indices 1 2 3 4 5 6 
#
# 1 162.5668 108.8422 40.6113 0.0000 0.0000 0.0000
# 2 108.8422 194.2830 65.3253 0.0000 0.0000 0.0000
# 3 40.6113 65.3253 109.4727 0.0000 0.0000 0.0000
# 4 0.0000 0.0000 0.0000 72.1700 0.0000 0.0000
# 5 0.0000 0.0000 0.0000 0.0000 26.8362 0.0000
# 6 0.0000 0.0000 0.0000 0.0000 0.0000 56.2631
#
#
#
# Elastic Compliance Matrix: (Units=1/GPa)
#
#
# Indices 1 2 3 4 5 6 
#
# 1 0.009861 -0.005372 -0.000452 0.000000 0.000000 0.000000
# 2 -0.005372 0.009366 -0.003596 0.000000 0.000000 0.000000
# 3 -0.000452 -0.003596 0.011448 0.000000 0.000000 0.000000
# 4 0.000000 0.000000 0.000000 0.013856 0.000000 0.000000
# 5 0.000000 0.000000 0.000000 0.000000 0.037263 0.000000
# 6 0.000000 0.000000 0.000000 0.000000 0.000000 0.017774
#
#
# Mechanical properties :
#
#
# Convention : Reuss Voigt Hill
#
# Bulk Modulus (GPa) = 84.50146 99.54223 92.02185
# Shear Modulus (GPa) = 40.86482 47.82345 44.34414
#
# Velocity S-wave (km/s) = 4.21776 4.56276 4.39365
# Velocity P-wave (km/s) = 7.77849 8.43158 8.11161
#
# Compressibility (1/GPa) = 0.01183411
#
# Stress axis : x y z
#
# Youngs Moduli (GPa) = 101.40650 106.76927 87.34917
#
# Poissons Ratio (x) = 0.57361 0.03952
# Poissons Ratio (y) = 0.54480 0.31410
# Poissons Ratio (z) = 0.04587 0.38393
#
# Static dielectric constant tensor:
#      x y z
#    x 1.790120 0.000000 0.000000 
#    y 0.000000 1.302110 0.000000 
#    z 0.000000 0.000000 2.116890 
# 
# From -- ./inp_files/15868.got.cif
#   From: 2010.05.17/outbox.cif.g08.bks.cpg/sg73_8_cif.got.tgz:15868.got - 2010.06.03 17:35:07.
