data_PCOD9533342
_publ_section_title
;
Structure prediction by ZEFSAII (Michael W. Deem and Ramdas Pophale) SiO2 
 PCOD9533342
Probable space group: I B C A 
;
_chemical_formula_sum "Si O2"
_cell_formula_units_Z 112
_cell_length_a 13.794900
_cell_length_b 27.380040
_cell_length_c 14.470118
_cell_angle_alpha 90.000000
_cell_angle_beta 90.000000
_cell_angle_gamma 90.000000
_cell_volume 5465.434672
_symmetry_space_group_name_H-M "I B C A "
_symmetry_group_IT_number 73
_symmetry_cell_setting 'orthorhombic'
loop_
_space_group_symop_operation_xyz
x,y,z
-x,1/2-y,z
x,-y,1/2-z
1/2-x,y,-z
-x,-y,-z
x,1/2+y,-z
-x,y,1/2+z
1/2+x,-y,z
1/2+x,1/2+y,1/2+z
1/2-x,-y,1/2+z
1/2+x,1/2-y,-z
-x,1/2+y,1/2-z
1/2-x,1/2-y,1/2-z
1/2+x,y,1/2-z
1/2-x,1/2+y,z
x,1/2-y,1/2+z
loop_
_atom_site_type_symbol
_atom_site_label
_atom_site_fract_x
_atom_site_fract_y
_atom_site_fract_z
Si Si1 0.819608 0.056732 0.759243
Si Si2 0.984159 0.880636 0.788874
Si Si3 0.659380 0.117374 0.652192
Si Si4 0.956415 0.073596 0.524469
Si Si5 0.849060 0.973859 0.549910
Si Si6 0.230207 0.726458 0.106661
Si Si7 0.899798 0.778290 0.748364
O O1 0.931544 0.070123 0.743750
O O2 0.750553 0.087093 0.691774
O O3 0.812025 0.062185 0.869120
O O4 0.796841 0.000000 0.750000
O O5 0.973175 0.884200 0.899378
O O6 0.922342 0.835474 0.751028
O O7 0.087686 0.877475 0.740204
O O8 0.602003 0.091870 0.566651
O O9 0.694841 0.170486 0.619498
O O10 0.063347 0.053932 0.500395
O O11 0.897785 0.027283 0.567483
O O12 0.750000 0.986352 0.500000
O O13 0.149840 0.760785 0.153853
O O14 0.326151 0.733256 0.168581
O O15 0.250000 0.736471 0.000000
O O16 0.000000 0.750000 0.761369
#
# Coordination Sequence:
#
# PCOD9533342 Si02
#       7
#    16  16  16  16  16  16  16
#     4  12  24  41  66  97 142 185 228 284 350 415
#     4  12  24  45  67 101 139 180 231 286 358 415
#     4  12  25  43  72 101 134 187 237 285 350 428
#     4  11  25  41  69  99 139 186 243 286 346 433
#     4  11  23  43  62  98 142 186 234 294 347 410
#     4  11  25  46  73 105 135 182 240 286 354 429
#     4  11  24  47  72 101 142 178 229 298 354 422
#
# _framework density 20.492425000000001
#
# number of rings (size 3 to 8) (size 9 to 14) (size 15 to 20)
#    0.000    0.571    5.714    2.571    0.000    2.286 
#    2.571    0.714    0.000    0.000    0.000    0.000 
#    0.000    0.000    0.000    0.000    0.000    0.000 
#
# Total GULP energy -312514.426237 kJ/mol
# GULP energy per Si atom -5580.614754 kJ/mol
# Density = 2.044578 g / cm^3
# Si number density = 20.492425 Si / 1000 Ang^3
#
#
#
# Elastic Constant Matrix: (Units=GPa)
#
#
# Indices 1 2 3 4 5 6 
#
# 1 112.0811 33.3309 44.8567 0.0000 0.0000 -0.0001
# 2 33.3309 85.4408 48.4262 -0.0002 0.0001 -0.0007
# 3 44.8567 48.4262 113.8051 0.0000 -0.0001 -0.0010
# 4 0.0000 -0.0002 0.0000 21.7895 0.0000 -0.0002
# 5 0.0000 0.0001 -0.0001 0.0000 22.0424 -0.0001
# 6 -0.0001 -0.0007 -0.0010 -0.0002 -0.0001 -25.9346
#
#
#
# Elastic Compliance Matrix: (Units=1/GPa)
#
#
# Indices 1 2 3 4 5 6 
#
# 1 0.010956 -0.002407 -0.003294 0.000000 0.000000 0.000000
# 2 -0.002407 0.015953 -0.005839 0.000000 0.000000 0.000000
# 3 -0.003294 -0.005839 0.012570 0.000000 0.000000 0.000000
# 4 0.000000 0.000000 0.000000 0.045894 0.000000 0.000000
# 5 0.000000 0.000000 0.000000 0.000000 0.045367 0.000000
# 6 0.000000 0.000000 0.000000 0.000000 0.000000 -0.038558
#
#
# Mechanical properties :
#
#
# Convention : Reuss Voigt Hill
#
# Bulk Modulus (GPa) = 60.98375 62.72827 61.85601
# Shear Modulus (GPa) = 41.41522 15.89369 28.65445
#
# Velocity S-wave (km/s) = 4.50043 2.78796 3.74343
# Velocity P-wave (km/s) = 7.53850 6.40629 6.99534
#
# Compressibility (1/GPa) = 0.01639781
#
# Stress axis : x y z
#
# Youngs Moduli (GPa) = 91.27150 62.68540 79.55337
#
# Poissons Ratio (x) = 0.15088 0.26207
# Poissons Ratio (y) = 0.21969 0.46455
# Poissons Ratio (z) = 0.30067 0.36605
#
# Static dielectric constant tensor:
#      x y z
#    x 1.715140 0.000000 0.000000 
#    y 0.000000 1.746920 0.000000 
#    z 0.000000 0.000000 1.813090 
# 
# From -- ./inp_files/16337.got.cif
#   From: 2010.05.17/outbox.cif.g08.bks.cpg/sg73_9_cif.got.tgz:16337.got - 2010.06.03 17:35:07.
