data_PCOD9533978
_publ_section_title
;
Structure prediction by ZEFSAII (Michael W. Deem and Ramdas Pophale) SiO2 
 PCOD9533978
Probable space group: I M M A
;
_chemical_formula_sum "Si O2"
_cell_formula_units_Z 104
_cell_length_a 9.665542
_cell_length_b 21.112290
_cell_length_c 21.447812
_cell_angle_alpha 90.000000
_cell_angle_beta 90.000000
_cell_angle_gamma 90.000000
_cell_volume 4376.677529
_symmetry_space_group_name_H-M "I M M A"
_symmetry_group_IT_number 74
_symmetry_cell_setting 'orthorhombic'
loop_
_space_group_symop_operation_xyz
x,y,z
-x,1/2-y,z
x,-y,-z
-x,1/2+y,-z
-x,-y,-z
x,1/2+y,-z
-x,y,z
x,1/2-y,z
1/2+x,1/2+y,1/2+z
1/2-x,-y,1/2+z
1/2+x,1/2-y,1/2-z
1/2-x,y,1/2-z
1/2-x,1/2-y,1/2-z
1/2+x,y,1/2-z
1/2-x,1/2+y,1/2+z
1/2+x,-y,1/2+z
loop_
_atom_site_type_symbol
_atom_site_label
_atom_site_fract_x
_atom_site_fract_y
_atom_site_fract_z
Si Si1 0.653495 0.645229 0.920011
Si Si2 0.842551 0.497376 0.573178
Si Si3 0.739853 0.675302 0.332806
Si Si4 0.342777 0.649978 0.690978
Si Si5 0.658345 0.995751 0.310683
Si Si6 0.150356 0.174931 0.973477
Si Si7 0.500000 0.140866 0.767025
O O1 0.500000 0.672821 0.916535
O O2 0.641741 0.570689 0.906570
O O3 0.762118 0.671772 0.870395
O O4 0.722280 0.649830 0.987186
O O5 0.798770 0.500000 0.500000
O O6 0.729142 0.474881 0.624199
O O7 0.000000 0.470148 0.575220
O O8 0.778416 0.750000 0.326833
O O9 0.678215 0.666026 0.401144
O O10 0.621013 0.659345 0.283954
O O11 0.877742 0.636376 0.320176
O O12 0.500000 0.672639 0.694676
O O13 0.250000 0.667486 0.750000
O O14 0.350338 0.572580 0.689582
O O15 0.500000 0.970888 0.301191
O O16 0.750000 0.979090 0.250000
O O17 0.145655 0.250000 0.985082
O O18 0.000000 0.147476 0.991832
#
# Coordination Sequence:
#
# PCOD9533978 Si02
#       7
#    16  16  16  16  16  16   8
#     4  10  20  33  51  76 103 133 168 207 249 294
#     4   9  18  33  52  76 103 133 167 205 252 300
#     4  10  17  27  43  67  93 121 157 204 255 298
#     4   9  16  28  48  73 102 130 160 202 247 291
#     4   9  16  26  44  73 104 131 162 203 249 294
#     4  10  21  35  49  69 100 137 171 204 249 300
#     4  10  17  26  44  68  94 118 154 210 262 296
#
# _framework density 23.762316999999999
#
# number of rings (size 3 to 8) (size 9 to 14) (size 15 to 20)
#    0.000    2.462    0.769    3.231    1.077    4.923 
#    0.000    0.000    0.000    0.462    4.000    0.000 
#    0.000    0.000    0.000    0.000    0.000    0.000 
#
# Total GULP energy -289741.655719 kJ/mol
# GULP energy per Si atom -5571.954918 kJ/mol
# Density = 2.370823 g / cm^3
# Si number density = 23.762317 Si / 1000 Ang^3
#
#
#
# Elastic Constant Matrix: (Units=GPa)
#
#
# Indices 1 2 3 4 5 6 
#
# 1 231.5900 2.0130 76.9952 0.0000 0.0000 0.0000
# 2 2.0130 59.6794 -7.3084 0.0000 0.0000 0.0000
# 3 76.9952 -7.3084 116.0465 0.0000 0.0000 0.0000
# 4 0.0000 0.0000 0.0000 -13.4322 0.0000 0.0000
# 5 0.0000 0.0000 0.0000 0.0000 39.4777 0.0000
# 6 0.0000 0.0000 0.0000 0.0000 0.0000 -249.5676
#
#
#
# Elastic Compliance Matrix: (Units=1/GPa)
#
#
# Indices 1 2 3 4 5 6 
#
# 1 0.005565 -0.000645 -0.003733 0.000000 0.000000 0.000000
# 2 -0.000645 0.016961 0.001496 0.000000 0.000000 0.000000
# 3 -0.003733 0.001496 0.011188 0.000000 0.000000 0.000000
# 4 0.000000 0.000000 0.000000 -0.074448 0.000000 0.000000
# 5 0.000000 0.000000 0.000000 0.000000 0.025331 0.000000
# 6 0.000000 0.000000 0.000000 0.000000 0.000000 -0.004007
#
#
# Mechanical properties :
#
#
# Convention : Reuss Voigt Hill
#
# Bulk Modulus (GPa) = 35.77708 61.19062 48.48385
# Shear Modulus (GPa) = -1154.49978 -22.33001 -588.41490
#
# Velocity S-wave (km/s) = -22.06599 -3.06882 -15.75318
# Velocity P-wave (km/s) = 25.18177 3.64008 17.61919
#
# Compressibility (1/GPa) = 0.02795085
#
# Stress axis : x y z
#
# Youngs Moduli (GPa) = 179.70962 58.95828 89.38168
#
# Poissons Ratio (x) = 0.03802 0.33363
# Poissons Ratio (y) = 0.11587 -0.13371
# Poissons Ratio (z) = 0.67078 -0.08820
#
# Static dielectric constant tensor:
#      x y z
#    x 1.884610 0.000000 0.000000 
#    y 0.000000 2.037510 0.000000 
#    z 0.000000 0.000000 1.956990 
# 
# From -- ./inp_files/49572.got.cif
#   From: 2010.05.17/outbox.cif.g08.bks.cpg/sg74_25_cif.got.tgz:49572.got - 2010.06.03 17:57:02.
