data_PCOD9533102
_publ_section_title
;
Structure prediction by ZEFSAII (Michael W. Deem and Ramdas Pophale) SiO2 
 PCOD9533102
Probable space group: I B C A 
;
_chemical_formula_sum "Si O2"
_cell_formula_units_Z 72
_cell_length_a 9.485851
_cell_length_b 22.521038
_cell_length_c 13.061276
_cell_angle_alpha 90.000000
_cell_angle_beta 90.000000
_cell_angle_gamma 90.000000
_cell_volume 2790.296207
_symmetry_space_group_name_H-M "I B C A "
_symmetry_group_IT_number 73
_symmetry_cell_setting 'orthorhombic'
loop_
_space_group_symop_operation_xyz
x,y,z
-x,1/2-y,z
x,-y,1/2-z
1/2-x,y,-z
-x,-y,-z
x,1/2+y,-z
-x,y,1/2+z
1/2+x,-y,z
1/2+x,1/2+y,1/2+z
1/2-x,-y,1/2+z
1/2+x,1/2-y,-z
-x,1/2+y,1/2-z
1/2-x,1/2-y,1/2-z
1/2+x,y,1/2-z
1/2-x,1/2+y,z
x,1/2-y,1/2+z
loop_
_atom_site_type_symbol
_atom_site_label
_atom_site_fract_x
_atom_site_fract_y
_atom_site_fract_z
Si Si1 0.071665 0.650078 0.152106
Si Si2 0.500000 0.250000 0.779452
Si Si3 0.262178 0.101278 0.677273
Si Si4 0.517779 0.360476 0.916140
Si Si5 0.372861 0.018148 0.923907
O O1 0.169636 0.605992 0.218314
O O2 0.077002 0.645562 0.030517
O O3 0.102319 0.714087 0.202723
O O4 0.906203 0.638195 0.173813
O O5 0.555389 0.301182 0.855232
O O6 0.313632 0.035755 0.643490
O O7 0.150402 0.128822 0.595054
O O8 0.573787 0.422604 0.869676
O O9 0.250000 0.035117 0.000000
O O10 0.500000 0.000000 0.000000
#
# Coordination Sequence:
#
# PCOD9533102 Si02
#       5
#    16   8  16  16  16
#     4  11  24  48  79 112 163 214 275 344 414 487
#     4  10  26  48  76 120 158 216 286 340 412 494
#     4  11  25  49  76 120 160 212 272 345 415 507
#     4  11  24  49  83 113 166 216 275 336 423 496
#     4  12  23  48  84 116 153 208 270 326 419 505
#
# _framework density 25.803712999999998
#
# number of rings (size 3 to 8) (size 9 to 14) (size 15 to 20)
#    0.000    0.889    4.444    1.333    0.000    7.111 
#    0.000   32.222    0.000    0.000    0.000    0.000 
#    0.000    0.000    0.000    0.000    0.000    0.000 
#
# Total GULP energy -201400.352288 kJ/mol
# GULP energy per Si atom -5594.454230 kJ/mol
# Density = 2.574498 g / cm^3
# Si number density = 25.803713 Si / 1000 Ang^3
#
#
#
# Elastic Constant Matrix: (Units=GPa)
#
#
# Indices 1 2 3 4 5 6 
#
# 1 187.7984 54.3261 43.9124 0.0000 0.0000 0.0000
# 2 54.3261 210.7400 86.4870 0.0000 0.0000 0.0000
# 3 43.9124 86.4870 180.7090 -0.0001 0.0000 0.0000
# 4 0.0000 0.0000 -0.0001 51.8133 0.0000 0.0000
# 5 0.0000 0.0000 0.0000 0.0000 51.7176 0.0000
# 6 0.0000 0.0000 0.0000 0.0000 0.0000 24.2620
#
#
#
# Elastic Compliance Matrix: (Units=1/GPa)
#
#
# Indices 1 2 3 4 5 6 
#
# 1 0.005862 -0.001153 -0.000873 0.000000 0.000000 0.000000
# 2 -0.001153 0.006132 -0.002654 0.000000 0.000000 0.000000
# 3 -0.000873 -0.002654 0.007016 0.000000 0.000000 0.000000
# 4 0.000000 0.000000 0.000000 0.019300 0.000000 0.000000
# 5 0.000000 0.000000 0.000000 0.000000 0.019336 0.000000
# 6 0.000000 0.000000 0.000000 0.000000 0.000000 0.041217
#
#
# Mechanical properties :
#
#
# Convention : Reuss Voigt Hill
#
# Bulk Modulus (GPa) = 103.62722 105.41093 104.51908
# Shear Modulus (GPa) = 44.86706 51.86005 48.36356
#
# Velocity S-wave (km/s) = 4.17440 4.48793 4.33400
# Velocity P-wave (km/s) = 7.96750 8.23378 8.10174
#
# Compressibility (1/GPa) = 0.00964997
#
# Stress axis : x y z
#
# Youngs Moduli (GPa) = 170.57583 163.08344 142.52613
#
# Poissons Ratio (x) = 0.18805 0.12438
# Poissons Ratio (y) = 0.19669 0.37833
# Poissons Ratio (z) = 0.14886 0.43290
#
# Static dielectric constant tensor:
#      x y z
#    x 0.426350 0.000000 0.000000 
#    y 0.000000 2.085890 0.000000 
#    z 0.000000 0.000000 1.669170 
# 
# From -- ./inp_files/24687.got.cif
#   From: 2010.05.17/outbox.cif.g08.bks.cpg/sg73_13_cif.got.tgz:24687.got - 2010.06.03 17:35:07.
