data_PCOD9533883
_publ_section_title
;
Structure prediction by ZEFSAII (Michael W. Deem and Ramdas Pophale) SiO2 
 PCOD9533883
Probable space group: I M M A
;
_chemical_formula_sum "Si O2"
_cell_formula_units_Z 64
_cell_length_a 19.662938
_cell_length_b 17.319344
_cell_length_c 10.909132
_cell_angle_alpha 90.000000
_cell_angle_beta 90.000000
_cell_angle_gamma 90.000000
_cell_volume 3715.096036
_symmetry_space_group_name_H-M "I M M A"
_symmetry_group_IT_number 74
_symmetry_cell_setting 'orthorhombic'
loop_
_space_group_symop_operation_xyz
x,y,z
-x,1/2-y,z
x,-y,-z
-x,1/2+y,-z
-x,-y,-z
x,1/2+y,-z
-x,y,z
x,1/2-y,z
1/2+x,1/2+y,1/2+z
1/2-x,-y,1/2+z
1/2+x,1/2-y,1/2-z
1/2-x,y,1/2-z
1/2-x,1/2-y,1/2-z
1/2+x,y,1/2-z
1/2-x,1/2+y,1/2+z
1/2+x,-y,1/2+z
loop_
_atom_site_type_symbol
_atom_site_label
_atom_site_fract_x
_atom_site_fract_y
_atom_site_fract_z
Si Si1 0.687324 0.061708 0.825241
Si Si2 0.420994 0.994590 0.641617
Si Si3 0.714031 0.112578 0.082937
Si Si4 0.644161 0.664091 0.676811
O O1 0.750000 0.095897 0.750000
O O2 0.624418 0.045076 0.734907
O O3 0.711219 0.976020 0.869201
O O4 0.679747 0.110378 0.949648
O O5 0.500000 0.016141 0.649619
O O6 0.409926 0.904471 0.672359
O O7 0.398240 0.000000 0.500000
O O8 0.674659 0.160856 0.185636
O O9 0.792014 0.140757 0.089322
O O10 0.620169 0.750000 0.647702
#
# Coordination Sequence:
#
# PCOD9533883 Si02
#       4
#    16  16  16  16
#     4  10  16  27  49  73 100 132 168 209 254 293
#     4  10  20  34  52  76 103 133 174 219 261 315
#     4   9  16  27  46  74 101 129 163 210 250 292
#     4  10  18  31  51  74 103 135 168 211 260 310
#
# _framework density 17.22701
#
# number of rings (size 3 to 8) (size 9 to 14) (size 15 to 20)
#    0.000    2.250    5.000    3.000    0.000    0.500 
#    0.000   10.000    0.000   13.500    0.000    0.000 
#    0.000    0.000    0.000    0.000    0.000    0.000 
#
# Total GULP energy -178165.588161 kJ/mol
# GULP energy per Si atom -5567.674630 kJ/mol
# Density = 1.718780 g / cm^3
# Si number density = 17.227010 Si / 1000 Ang^3
#
#
#
# Elastic Constant Matrix: (Units=GPa)
#
#
# Indices 1 2 3 4 5 6 
#
# 1 50.0347 6.4094 47.7281 0.0000 0.0000 0.0000
# 2 6.4094 38.6808 16.7775 0.0000 0.0000 0.0000
# 3 47.7281 16.7775 128.2263 0.0000 0.0000 0.0000
# 4 0.0000 0.0000 0.0000 12.2890 0.0000 0.0000
# 5 0.0000 0.0000 0.0000 0.0000 20.1643 0.0000
# 6 0.0000 0.0000 0.0000 0.0000 0.0000 2.1708
#
#
#
# Elastic Compliance Matrix: (Units=1/GPa)
#
#
# Indices 1 2 3 4 5 6 
#
# 1 0.030990 -0.000140 -0.011517 0.000000 0.000000 0.000000
# 2 -0.000140 0.027409 -0.003534 0.000000 0.000000 0.000000
# 3 -0.011517 -0.003534 0.012548 0.000000 0.000000 0.000000
# 4 0.000000 0.000000 0.000000 0.081373 0.000000 0.000000
# 5 0.000000 0.000000 0.000000 0.000000 0.049593 0.000000
# 6 0.000000 0.000000 0.000000 0.000000 0.000000 0.460660
#
#
# Mechanical properties :
#
#
# Convention : Reuss Voigt Hill
#
# Bulk Modulus (GPa) = 24.65177 39.86355 32.25766
# Shear Modulus (GPa) = 7.07739 16.65994 11.86867
#
# Velocity S-wave (km/s) = 2.02910 3.11317 2.62765
# Velocity P-wave (km/s) = 4.45316 6.00939 5.28883
#
# Compressibility (1/GPa) = 0.04056504
#
# Stress axis : x y z
#
# Youngs Moduli (GPa) = 32.26870 36.48478 79.69497
#
# Poissons Ratio (x) = 0.00510 0.91782
# Poissons Ratio (y) = 0.00451 0.28166
# Poissons Ratio (z) = 0.37163 0.12895
#
# Static dielectric constant tensor:
#      x y z
#    x 1.587230 0.000000 0.000000 
#    y 0.000000 1.610830 0.000000 
#    z 0.000000 0.000000 1.634500 
# 
# From -- ./inp_files/12064.got.cif
#   From: 2010.05.17/outbox.cif.g08.bks.cpg/sg74_7_cif.got.tgz:12064.got - 2010.06.03 17:57:02.
