data_PCOD9533243
_publ_section_title
;
Structure prediction by ZEFSAII (Michael W. Deem and Ramdas Pophale) SiO2 
 PCOD9533243
Probable space group: I B C A 
;
_chemical_formula_sum "Si O2"
_cell_formula_units_Z 96
_cell_length_a 9.736456
_cell_length_b 22.679280
_cell_length_c 20.432261
_cell_angle_alpha 90.000000
_cell_angle_beta 90.000000
_cell_angle_gamma 90.000000
_cell_volume 4511.766300
_symmetry_space_group_name_H-M "I B C A "
_symmetry_group_IT_number 73
_symmetry_cell_setting 'orthorhombic'
loop_
_space_group_symop_operation_xyz
x,y,z
-x,1/2-y,z
x,-y,1/2-z
1/2-x,y,-z
-x,-y,-z
x,1/2+y,-z
-x,y,1/2+z
1/2+x,-y,z
1/2+x,1/2+y,1/2+z
1/2-x,-y,1/2+z
1/2+x,1/2-y,-z
-x,1/2+y,1/2-z
1/2-x,1/2-y,1/2-z
1/2+x,y,1/2-z
1/2-x,1/2+y,z
x,1/2-y,1/2+z
loop_
_atom_site_type_symbol
_atom_site_label
_atom_site_fract_x
_atom_site_fract_y
_atom_site_fract_z
Si Si1 0.650626 0.231125 0.193066
Si Si2 0.800714 0.977314 0.569545
Si Si3 0.366765 0.288640 0.552972
Si Si4 0.405338 0.076825 0.087111
Si Si5 0.808874 0.442411 0.711557
Si Si6 0.964489 0.891874 0.722341
O O1 0.500000 0.250000 0.214718
O O2 0.750000 0.250000 0.250000
O O3 0.678876 0.263881 0.124629
O O4 0.624769 0.161508 0.191533
O O5 0.750000 0.952208 0.500000
O O6 0.732204 0.950892 0.635535
O O7 0.964196 0.965155 0.569404
O O8 0.737620 0.043482 0.573330
O O9 0.500000 0.250000 0.536735
O O10 0.250000 0.279532 0.500000
O O11 0.404102 0.358012 0.556220
O O12 0.437462 0.088837 0.162959
O O13 0.866691 0.500000 0.750000
O O14 0.923301 0.391296 0.720005
O O15 0.661618 0.431783 0.745507
#
# Coordination Sequence:
#
# PCOD9533243 Si02
#       6
#    16  16  16  16  16  16
#     4  11  23  44  68  98 135 174 233 293 353 420
#     4  11  25  42  67 100 142 181 232 284 358 418
#     4  11  25  48  73 101 145 191 238 297 361 432
#     4  11  23  46  68 100 140 182 230 292 345 431
#     4  11  23  39  66  96 136 180 229 285 345 424
#     4  11  22  40  64  96 129 178 230 286 348 407
#
# _framework density 21.277698000000001
#
# number of rings (size 3 to 8) (size 9 to 14) (size 15 to 20)
#    0.000    1.000    5.000    2.500    2.333    1.333 
#    3.000    0.000    0.000    0.000    0.000    0.000 
#    0.000    0.000    0.000    0.000    0.000    0.000 
#
# Total GULP energy -267353.230517 kJ/mol
# GULP energy per Si atom -5569.858969 kJ/mol
# Density = 2.122927 g / cm^3
# Si number density = 21.277698 Si / 1000 Ang^3
#
#
#
# Elastic Constant Matrix: (Units=GPa)
#
#
# Indices 1 2 3 4 5 6 
#
# 1 104.0809 64.8233 85.9918 0.0000 0.0000 0.0000
# 2 64.8233 117.1798 31.4689 0.0000 0.0000 0.0000
# 3 85.9918 31.4689 104.2802 0.0000 0.0000 0.0000
# 4 0.0000 0.0000 0.0000 21.8554 0.0000 0.0000
# 5 0.0000 0.0000 0.0000 0.0000 247.6643 0.0000
# 6 0.0000 0.0000 0.0000 0.0000 0.0000 37.3114
#
#
#
# Elastic Compliance Matrix: (Units=1/GPa)
#
#
# Indices 1 2 3 4 5 6 
#
# 1 0.052255 -0.018864 -0.037398 0.000000 0.000000 0.000000
# 2 -0.018864 0.016096 0.010698 0.000000 0.000000 0.000000
# 3 -0.037398 0.010698 0.037200 0.000000 0.000000 0.000000
# 4 0.000000 0.000000 0.000000 0.045755 0.000000 0.000000
# 5 0.000000 0.000000 0.000000 0.000000 0.004038 0.000000
# 6 0.000000 0.000000 0.000000 0.000000 0.000000 0.026801
#
#
# Mechanical properties :
#
#
# Convention : Reuss Voigt Hill
#
# Bulk Modulus (GPa) = 69.32805 76.67877 73.00341
# Shear Modulus (GPa) = 17.98031 70.91670 44.44850
#
# Velocity S-wave (km/s) = 2.91009 5.77940 4.57549
# Velocity P-wave (km/s) = 6.62908 8.98057 7.89289
#
# Compressibility (1/GPa) = 0.01442418
#
# Stress axis : x y z
#
# Youngs Moduli (GPa) = 19.13690 62.12606 26.88138
#
# Poissons Ratio (x) = 1.17194 1.00531
# Poissons Ratio (y) = 0.36100 -0.28758
# Poissons Ratio (z) = 0.71568 -0.66464
#
# Static dielectric constant tensor:
#      x y z
#    x 1.723320 0.000000 0.000000 
#    y 0.000000 1.542370 0.000000 
#    z 0.000000 0.000000 1.795790 
# 
# From -- ./inp_files/28390.got.cif
#   From: 2010.05.17/outbox.cif.g08.bks.cpg/sg73_15_cif.got.tgz:28390.got - 2010.06.03 17:35:07.
