data_PCOD9533697
_publ_section_title
;
Structure prediction by ZEFSAII (Michael W. Deem and Ramdas Pophale) SiO2 
 PCOD9533697
Probable space group: I B C A 
;
_chemical_formula_sum "Si O2"
_cell_formula_units_Z 48
_cell_length_a 14.583493
_cell_length_b 10.352652
_cell_length_c 14.289004
_cell_angle_alpha 90.000000
_cell_angle_beta 90.000000
_cell_angle_gamma 90.000000
_cell_volume 2157.322788
_symmetry_space_group_name_H-M "I B C A "
_symmetry_group_IT_number 73
_symmetry_cell_setting 'orthorhombic'
loop_
_space_group_symop_operation_xyz
x,y,z
-x,1/2-y,z
x,-y,1/2-z
1/2-x,y,-z
-x,-y,-z
x,1/2+y,-z
-x,y,1/2+z
1/2+x,-y,z
1/2+x,1/2+y,1/2+z
1/2-x,-y,1/2+z
1/2+x,1/2-y,-z
-x,1/2+y,1/2-z
1/2-x,1/2-y,1/2-z
1/2+x,y,1/2-z
1/2-x,1/2+y,z
x,1/2-y,1/2+z
loop_
_atom_site_type_symbol
_atom_site_label
_atom_site_fract_x
_atom_site_fract_y
_atom_site_fract_z
Si Si1 0.836054 0.231958 0.679006
Si Si2 0.750000 0.860463 0.500000
Si Si3 0.000000 0.250000 0.789083
Si Si4 0.573767 0.483887 0.585309
O O1 0.750000 0.250000 0.750000
O O2 0.795130 0.277127 0.581489
O O3 0.918494 0.310784 0.726819
O O4 0.893440 0.101159 0.653187
O O5 0.669073 0.946799 0.461720
O O6 0.041265 0.361961 0.853913
O O7 0.500000 0.500000 0.500000
#
# Coordination Sequence:
#
# PCOD9533697 Si02
#       4
#    16   8   8  16
#     4  12  27  50  76 118 158 205 273 330 408 486
#     4  12  26  48  80 110 162 206 270 326 412 478
#     4  12  26  50  78 112 162 206 272 326 412 482
#     4  12  27  49  80 116 160 214 266 337 400 489
#
# _framework density 22.249801000000001
#
# number of rings (size 3 to 8) (size 9 to 14) (size 15 to 20)
#    0.000    0.000    3.333    6.000    4.667    0.000 
#    0.000    0.000    0.000    0.000    0.000    0.000 
#    0.000    0.000    0.000    0.000    0.000    0.000 
#
# Total GULP energy -133940.359686 kJ/mol
# GULP energy per Si atom -5580.848320 kJ/mol
# Density = 2.219916 g / cm^3
# Si number density = 22.249801 Si / 1000 Ang^3
#
#
#
# Elastic Constant Matrix: (Units=GPa)
#
#
# Indices 1 2 3 4 5 6 
#
# 1 219.6707 45.8032 68.6255 0.0000 0.0000 0.0000
# 2 45.8032 79.0081 35.5970 0.0000 0.0000 0.0000
# 3 68.6255 35.5970 136.0192 0.0000 0.0000 0.0000
# 4 0.0000 0.0000 0.0000 -47.5011 0.0000 0.0000
# 5 0.0000 0.0000 0.0000 0.0000 81.6390 0.0000
# 6 0.0000 0.0000 0.0000 0.0000 0.0000 -7.0298
#
#
#
# Elastic Compliance Matrix: (Units=1/GPa)
#
#
# Indices 1 2 3 4 5 6 
#
# 1 0.005750 -0.002297 -0.002300 0.000000 0.000000 0.000000
# 2 -0.002297 0.015267 -0.002836 0.000000 0.000000 0.000000
# 3 -0.002300 -0.002836 0.009254 0.000000 0.000000 0.000000
# 4 0.000000 0.000000 0.000000 -0.021052 0.000000 0.000000
# 5 0.000000 0.000000 0.000000 0.000000 0.012249 0.000000
# 6 0.000000 0.000000 0.000000 0.000000 0.000000 -0.142251
#
#
# Mechanical properties :
#
#
# Convention : Reuss Voigt Hill
#
# Bulk Modulus (GPa) = 64.91697 81.63880 73.27788
# Shear Modulus (GPa) = -49.61185 24.39978 -12.60604
#
# Velocity S-wave (km/s) = -4.72716 3.31513 -2.38285
# Velocity P-wave (km/s) = 0.74498 7.17113 5.04332
#
# Compressibility (1/GPa) = 0.01540429
#
# Stress axis : x y z
#
# Youngs Moduli (GPa) = 173.92315 65.50264 108.05593
#
# Poissons Ratio (x) = 0.15047 0.24850
# Poissons Ratio (y) = 0.39952 0.30649
# Poissons Ratio (z) = 0.39997 0.18579
#
# Static dielectric constant tensor:
#      x y z
#    x 1.881230 0.000000 0.000000 
#    y 0.000000 1.181270 0.000000 
#    z 0.000000 0.000000 1.984870 
# 
# From -- ./inp_files/10180.got.cif
#   From: 2010.05.17/outbox.cif.g08.bks.cpg/sg73_6_cif.got.tgz:10180.got - 2010.06.03 17:35:07.
