data_PCOD9533346
_publ_section_title
;
Structure prediction by ZEFSAII (Michael W. Deem and Ramdas Pophale) SiO2 
 PCOD9533346
Probable space group: I B C A 
;
_chemical_formula_sum "Si O2"
_cell_formula_units_Z 72
_cell_length_a 8.835386
_cell_length_b 14.091593
_cell_length_c 24.859924
_cell_angle_alpha 90.000000
_cell_angle_beta 90.000000
_cell_angle_gamma 90.000000
_cell_volume 3095.176473
_symmetry_space_group_name_H-M "I B C A "
_symmetry_group_IT_number 73
_symmetry_cell_setting 'orthorhombic'
loop_
_space_group_symop_operation_xyz
x,y,z
-x,1/2-y,z
x,-y,1/2-z
1/2-x,y,-z
-x,-y,-z
x,1/2+y,-z
-x,y,1/2+z
1/2+x,-y,z
1/2+x,1/2+y,1/2+z
1/2-x,-y,1/2+z
1/2+x,1/2-y,-z
-x,1/2+y,1/2-z
1/2-x,1/2-y,1/2-z
1/2+x,y,1/2-z
1/2-x,1/2+y,z
x,1/2-y,1/2+z
loop_
_atom_site_type_symbol
_atom_site_label
_atom_site_fract_x
_atom_site_fract_y
_atom_site_fract_z
Si Si1 0.461059 0.406079 0.967926
Si Si2 0.907430 0.521703 0.312384
Si Si3 0.299856 0.609139 0.636153
Si Si4 0.220059 0.173138 0.112577
Si Si5 0.500000 0.250000 0.049657
O O1 0.333173 0.427028 0.923918
O O2 0.601988 0.366064 0.932155
O O3 0.500000 0.500000 0.000000
O O4 0.420592 0.324509 0.010041
O O5 0.889709 0.500000 0.250000
O O6 0.862334 0.425940 0.343990
O O7 0.793921 0.600093 0.338127
O O8 0.072377 0.562689 0.326011
O O9 0.321390 0.721743 0.633489
O O10 0.380529 0.191091 0.084577
#
# Coordination Sequence:
#
# PCOD9533346 Si02
#       5
#    16  16  16  16   8
#     4  11  23  43  69 101 147 202 237 294 363 443
#     4  11  25  48  75 102 140 196 248 312 382 427
#     4  11  25  47  71 107 150 182 251 311 357 457
#     4  11  26  46  70 110 150 190 255 307 363 457
#     4  12  24  44  70 110 152 198 240 290 380 448
#
# _framework density 23.262001000000001
#
# number of rings (size 3 to 8) (size 9 to 14) (size 15 to 20)
#    0.000    0.889    2.222    4.667    9.333    2.667 
#    0.000    2.222    0.000    0.000    0.000    0.000 
#    0.000    0.000    0.000    0.000    0.000    0.000 
#
# Total GULP energy -201651.566644 kJ/mol
# GULP energy per Si atom -5601.432407 kJ/mol
# Density = 2.320906 g / cm^3
# Si number density = 23.262001 Si / 1000 Ang^3
#
#
#
# Elastic Constant Matrix: (Units=GPa)
#
#
# Indices 1 2 3 4 5 6 
#
# 1 92.4184 25.6827 61.4704 0.0000 0.0000 0.0000
# 2 25.6827 154.7159 74.7225 0.0000 0.0000 0.0000
# 3 61.4704 74.7225 170.1195 0.0000 0.0000 0.0000
# 4 0.0000 0.0000 0.0000 43.1738 0.0000 0.0000
# 5 0.0000 0.0000 0.0000 0.0000 11.5710 0.0000
# 6 0.0000 0.0000 0.0000 0.0000 0.0000 43.7095
#
#
#
# Elastic Compliance Matrix: (Units=1/GPa)
#
#
# Indices 1 2 3 4 5 6 
#
# 1 0.014247 0.000154 -0.005215 0.000000 0.000000 0.000000
# 2 0.000154 0.008205 -0.003660 0.000000 0.000000 0.000000
# 3 -0.005215 -0.003660 0.009370 0.000000 0.000000 0.000000
# 4 0.000000 0.000000 0.000000 0.023162 0.000000 0.000000
# 5 0.000000 0.000000 0.000000 0.000000 0.086423 0.000000
# 6 0.000000 0.000000 0.000000 0.000000 0.000000 0.022878
#
#
# Mechanical properties :
#
#
# Convention : Reuss Voigt Hill
#
# Bulk Modulus (GPa) = 69.54211 82.33388 75.93800
# Shear Modulus (GPa) = 26.80655 36.71607 31.76131
#
# Velocity S-wave (km/s) = 3.39835 3.97718 3.69910
# Velocity P-wave (km/s) = 6.73487 7.52075 7.13863
#
# Compressibility (1/GPa) = 0.01437978
#
# Stress axis : x y z
#
# Youngs Moduli (GPa) = 70.19265 121.87049 106.72105
#
# Poissons Ratio (x) = -0.01876 0.55659
# Poissons Ratio (y) = -0.01081 0.39057
# Poissons Ratio (z) = 0.36608 0.44601
#
# Static dielectric constant tensor:
#      x y z
#    x 1.947110 0.000000 0.000000 
#    y 0.000000 1.886370 0.000000 
#    z 0.000000 0.000000 1.830750 
# 
# From -- ./inp_files/31053.got.cif
#   From: 2010.05.17/outbox.cif.g08.bks.cpg/sg73_16_cif.got.tgz:31053.got - 2010.06.03 17:35:07.
