data_PCOD9533846
_publ_section_title
;
Structure prediction by ZEFSAII (Michael W. Deem and Ramdas Pophale) SiO2 
 PCOD9533846
Probable space group: I M M A
;
_chemical_formula_sum "Si O2"
_cell_formula_units_Z 96
_cell_length_a 29.977560
_cell_length_b 8.921343
_cell_length_c 26.976231
_cell_angle_alpha 90.000000
_cell_angle_beta 90.000000
_cell_angle_gamma 90.000000
_cell_volume 7214.525783
_symmetry_space_group_name_H-M "I M M A"
_symmetry_group_IT_number 74
_symmetry_cell_setting 'orthorhombic'
loop_
_space_group_symop_operation_xyz
x,y,z
-x,1/2-y,z
x,-y,-z
-x,1/2+y,-z
-x,-y,-z
x,1/2+y,-z
-x,y,z
x,1/2-y,z
1/2+x,1/2+y,1/2+z
1/2-x,-y,1/2+z
1/2+x,1/2-y,1/2-z
1/2-x,y,1/2-z
1/2-x,1/2-y,1/2-z
1/2+x,y,1/2-z
1/2-x,1/2+y,1/2+z
1/2+x,-y,1/2+z
loop_
_atom_site_type_symbol
_atom_site_label
_atom_site_fract_x
_atom_site_fract_y
_atom_site_fract_z
Si Si1 0.049139 0.931862 0.714383
Si Si2 0.720040 0.576307 0.300305
Si Si3 0.306587 0.068749 0.850785
Si Si4 0.855913 0.570534 0.743985
Si Si5 0.138103 0.929093 0.447856
Si Si6 0.449200 0.069807 0.097705
O O1 0.048140 0.750000 0.716270
O O2 0.092539 0.980541 0.744708
O O3 0.055357 0.969470 0.656143
O O4 0.000000 0.985990 0.730004
O O5 0.708489 0.750000 0.308371
O O6 0.750000 0.568961 0.250000
O O7 0.754825 0.525150 0.342388
O O8 0.675595 0.485486 0.288303
O O9 0.308689 0.250000 0.844446
O O10 0.328198 0.029942 0.903287
O O11 0.335038 0.994077 0.806875
O O12 0.854548 0.750000 0.741851
O O13 0.136828 0.750000 0.451700
O O14 0.151329 0.000000 0.500000
O O15 0.089269 0.989308 0.432684
O O16 0.500000 0.031986 0.082661
O O17 0.444102 0.250000 0.093547
#
# Coordination Sequence:
#
# PCOD9533846 Si02
#       6
#    16  16  16  16  16  16
#     4   8  14  24  38  56  78 102 124 150 188 226
#     4   8  15  27  40  54  76 100 119 142 182 228
#     4   9  18  31  42  53  73 100 122 148 188 235
#     4  10  16  23  41  63  78  94 122 156 185 216
#     4  11  22  33  45  58  73  94 126 162 201 239
#     4   9  17  31  47  58  71  95 126 160 200 238
#
# _framework density 13.306488
#
# number of rings (size 3 to 8) (size 9 to 14) (size 15 to 20)
#    0.000    2.833    1.667    3.000    0.000    4.333 
#    0.000    0.000    0.000    2.000    0.000    0.000 
#    0.000    0.000    0.000    0.000    0.000    0.833 
#
# Total GULP energy -267235.700073 kJ/mol
# GULP energy per Si atom -5567.410418 kJ/mol
# Density = 1.327620 g / cm^3
# Si number density = 13.306488 Si / 1000 Ang^3
#
#
#
# Elastic Constant Matrix: (Units=GPa)
#
#
# Indices 1 2 3 4 5 6 
#
# 1 111.7192 32.1370 53.0271 0.0000 0.0000 0.0000
# 2 32.1370 21.5162 21.5750 0.0000 0.0000 0.0000
# 3 53.0271 21.5750 52.0666 0.0000 0.0000 0.0000
# 4 0.0000 0.0000 0.0000 14.2753 0.0000 0.0000
# 5 0.0000 0.0000 0.0000 0.0000 15.9784 0.0000
# 6 0.0000 0.0000 0.0000 0.0000 0.0000 8.8965
#
#
#
# Elastic Compliance Matrix: (Units=1/GPa)
#
#
# Indices 1 2 3 4 5 6 
#
# 1 0.020202 -0.016328 -0.013809 0.000000 0.000000 0.000000
# 2 -0.016328 0.092712 -0.021789 0.000000 0.000000 0.000000
# 3 -0.013809 -0.021789 0.042299 0.000000 0.000000 0.000000
# 4 0.000000 0.000000 0.000000 0.070051 0.000000 0.000000
# 5 0.000000 0.000000 0.000000 0.000000 0.062584 0.000000
# 6 0.000000 0.000000 0.000000 0.000000 0.000000 0.112404
#
#
# Mechanical properties :
#
#
# Convention : Reuss Voigt Hill
#
# Bulk Modulus (GPa) = 19.46952 44.30892 31.88922
# Shear Modulus (GPa) = 9.59279 13.06756 11.33018
#
# Velocity S-wave (km/s) = 2.68789 3.13716 2.92117
# Velocity P-wave (km/s) = 4.92914 6.81861 5.94936
#
# Compressibility (1/GPa) = 0.05136232
#
# Stress axis : x y z
#
# Youngs Moduli (GPa) = 49.49928 10.78606 23.64129
#
# Poissons Ratio (x) = 0.17611 0.32647
# Poissons Ratio (y) = 0.80820 0.51511
# Poissons Ratio (z) = 0.68355 0.23501
#
# Static dielectric constant tensor:
#      x y z
#    x 1.465370 0.000000 0.000000 
#    y 0.000000 1.445250 0.000000 
#    z 0.000000 0.000000 1.417330 
# 
# From -- ./inp_files/68884.got.cif
#   From: 2010.05.17/outbox.cif.g08.bks.cpg/sg74_35_cif.got.tgz:68884.got - 2010.06.03 17:57:02.
