data_PCOD9533832
_publ_section_title
;
Structure prediction by ZEFSAII (Michael W. Deem and Ramdas Pophale) SiO2 
 PCOD9533832
Probable space group: I M M A
;
_chemical_formula_sum "Si O2"
_cell_formula_units_Z 100
_cell_length_a 20.543606
_cell_length_b 27.599930
_cell_length_c 7.008880
_cell_angle_alpha 90.000000
_cell_angle_beta 90.000000
_cell_angle_gamma 90.000000
_cell_volume 3974.049591
_symmetry_space_group_name_H-M "I M M A"
_symmetry_group_IT_number 74
_symmetry_cell_setting 'orthorhombic'
loop_
_space_group_symop_operation_xyz
x,y,z
-x,1/2-y,z
x,-y,-z
-x,1/2+y,-z
-x,-y,-z
x,1/2+y,-z
-x,y,z
x,1/2-y,z
1/2+x,1/2+y,1/2+z
1/2-x,-y,1/2+z
1/2+x,1/2-y,1/2-z
1/2-x,y,1/2-z
1/2-x,1/2-y,1/2-z
1/2+x,y,1/2-z
1/2-x,1/2+y,1/2+z
1/2+x,-y,1/2+z
loop_
_atom_site_type_symbol
_atom_site_label
_atom_site_fract_x
_atom_site_fract_y
_atom_site_fract_z
Si Si1 0.672830 0.985031 0.279552
Si Si2 0.500000 0.250000 0.974722
Si Si3 0.117836 0.693446 0.038882
Si Si4 0.764136 0.804758 0.522770
Si Si5 0.428306 0.093228 0.653177
Si Si6 0.570888 0.062010 0.205972
Si Si7 0.599421 0.167038 0.089633
O O1 0.750000 0.980302 0.250000
O O2 0.630620 0.936434 0.254843
O O3 0.667109 0.000000 0.500000
O O4 0.633493 0.028191 0.173755
O O5 0.556049 0.207446 0.992429
O O6 0.102240 0.750000 0.080409
O O7 0.080268 0.651107 0.146930
O O8 0.194920 0.684041 0.069882
O O9 0.104646 0.685252 0.812125
O O10 0.781724 0.750000 0.468847
O O11 0.750000 0.804885 0.750000
O O12 0.828323 0.835685 0.502715
O O13 0.500000 0.079977 0.725145
O O14 0.426941 0.077455 0.429535
O O15 0.500000 0.038270 0.176666
O O16 0.573174 0.112801 0.096087
#
# Coordination Sequence:
#
# PCOD9533832 Si02
#       7
#    16   4  16  16  16  16  16
#     4  10  21  37  56  77 102 135 175 217 264 314
#     4  12  16  20  30  56  94 140 170 202 246 308
#     4   9  16  24  39  63  94 126 164 208 260 309
#     4   8  13  22  31  50  86 131 164 195 239 295
#     4   9  18  30  49  74 102 131 163 211 269 312
#     4   9  17  28  45  70  97 130 169 216 259 304
#     4  10  16  21  35  56  94 133 170 204 248 307
#
# _framework density 25.163250000000001
#
# number of rings (size 3 to 8) (size 9 to 14) (size 15 to 20)
#    0.000    2.720    2.400    1.440    1.120    6.720 
#    0.000    0.000    0.000    2.400    0.000    0.000 
#    0.000    0.000    0.000    0.480    0.000    2.560 
#
# Total GULP energy -279276.154885 kJ/mol
# GULP energy per Si atom -5585.523098 kJ/mol
# Density = 2.510598 g / cm^3
# Si number density = 25.163250 Si / 1000 Ang^3
#
#
#
# Elastic Constant Matrix: (Units=GPa)
#
#
# Indices 1 2 3 4 5 6 
#
# 1 194.9236 109.0294 18.1978 0.0000 0.0000 0.0000
# 2 109.0294 177.7311 47.1191 0.0000 0.0000 0.0000
# 3 18.1978 47.1191 95.3556 0.0000 0.0000 0.0000
# 4 0.0000 0.0000 0.0000 33.3628 0.0000 0.0000
# 5 0.0000 0.0000 0.0000 0.0000 14.3682 0.0000
# 6 0.0000 0.0000 0.0000 0.0000 0.0000 22.2688
#
#
#
# Elastic Compliance Matrix: (Units=1/GPa)
#
#
# Indices 1 2 3 4 5 6 
#
# 1 0.007895 -0.005114 0.001020 0.000000 0.000000 0.000000
# 2 -0.005114 0.009787 -0.003860 0.000000 0.000000 0.000000
# 3 0.001020 -0.003860 0.012200 0.000000 0.000000 0.000000
# 4 0.000000 0.000000 0.000000 0.029973 0.000000 0.000000
# 5 0.000000 0.000000 0.000000 0.000000 0.069598 0.000000
# 6 0.000000 0.000000 0.000000 0.000000 0.000000 0.044906
#
#
# Mechanical properties :
#
#
# Convention : Reuss Voigt Hill
#
# Bulk Modulus (GPa) = 71.55916 90.74477 81.15196
# Shear Modulus (GPa) = 25.65079 33.57756 29.61418
#
# Velocity S-wave (km/s) = 3.19623 3.65689 3.43429
# Velocity P-wave (km/s) = 6.49006 7.34651 6.93152
#
# Compressibility (1/GPa) = 0.01397445
#
# Stress axis : x y z
#
# Youngs Moduli (GPa) = 126.65568 102.17601 81.96820
#
# Poissons Ratio (x) = 0.52252 -0.08363
# Poissons Ratio (y) = 0.64771 0.31642
# Poissons Ratio (z) = -0.12922 0.39442
#
# Static dielectric constant tensor:
#      x y z
#    x 1.964880 0.000000 0.000000 
#    y 0.000000 1.900900 0.000000 
#    z 0.000000 0.000000 2.106190 
# 
# From -- ./inp_files/12770.got.cif
#   From: 2010.05.17/outbox.cif.g08.bks.cpg/sg74_7_cif.got.tgz:12770.got - 2010.06.03 17:57:02.
