data_PCOD9533916
_publ_section_title
;
Structure prediction by ZEFSAII (Michael W. Deem and Ramdas Pophale) SiO2 
 PCOD9533916
Probable space group: I M M A
;
_chemical_formula_sum "Si O2"
_cell_formula_units_Z 112
_cell_length_a 20.401238
_cell_length_b 14.696262
_cell_length_c 18.910913
_cell_angle_alpha 90.000000
_cell_angle_beta 90.000000
_cell_angle_gamma 90.000000
_cell_volume 5669.906600
_symmetry_space_group_name_H-M "I M M A"
_symmetry_group_IT_number 74
_symmetry_cell_setting 'orthorhombic'
loop_
_space_group_symop_operation_xyz
x,y,z
-x,1/2-y,z
x,-y,-z
-x,1/2+y,-z
-x,-y,-z
x,1/2+y,-z
-x,y,z
x,1/2-y,z
1/2+x,1/2+y,1/2+z
1/2-x,-y,1/2+z
1/2+x,1/2-y,1/2-z
1/2-x,y,1/2-z
1/2-x,1/2-y,1/2-z
1/2+x,y,1/2-z
1/2-x,1/2+y,1/2+z
1/2+x,-y,1/2+z
loop_
_atom_site_type_symbol
_atom_site_label
_atom_site_fract_x
_atom_site_fract_y
_atom_site_fract_z
Si Si1 0.431029 0.583520 0.056184
Si Si2 0.698705 0.645296 0.838189
Si Si3 0.075423 0.019803 0.296373
Si Si4 0.840016 0.147325 0.959172
Si Si5 0.924527 0.526456 0.146907
Si Si6 0.799206 0.390046 0.504517
Si Si7 0.343844 0.142532 0.371205
O O1 0.500000 0.632611 0.048189
O O2 0.426166 0.537613 0.132116
O O3 0.366146 0.637654 0.040957
O O4 0.430930 0.500000 0.000000
O O5 0.693715 0.750000 0.814171
O O6 0.637819 0.587804 0.807007
O O7 0.775641 0.614667 0.831678
O O8 0.695710 0.643878 0.924034
O O9 0.000000 0.059294 0.288918
O O10 0.084507 0.952006 0.229716
O O11 0.864508 0.250000 0.948021
O O12 0.878651 0.079128 0.908366
O O13 0.762071 0.142615 0.949809
O O14 0.842253 0.127372 0.043569
O O15 0.903673 0.420524 0.150420
O O16 0.000000 0.538387 0.126196
O O17 0.792809 0.500000 0.500000
O O18 0.351925 0.250000 0.360028
#
# Coordination Sequence:
#
# PCOD9533916 Si02
#       7
#    16  16  16  16  16  16  16
#     4   9  16  29  53  81 109 145 195 239 277 328
#     4  10  19  33  54  84 117 150 185 230 289 351
#     4  10  21  36  52  81 117 157 194 230 281 344
#     4  10  21  38  60  85 114 146 194 253 297 343
#     4  11  24  39  58  84 117 155 197 238 295 361
#     4  10  16  30  58  87 111 149 190 241 289 340
#     4   9  20  38  60  88 118 148 188 239 296 352
#
# _framework density 19.753411
#
# number of rings (size 3 to 8) (size 9 to 14) (size 15 to 20)
#    0.000    2.143    2.857    3.429    0.000    3.143 
#    0.000    4.286    0.000    3.857    0.000    4.000 
#    0.000    0.000    0.000    0.000    0.000    0.000 
#
# Total GULP energy -311871.218715 kJ/mol
# GULP energy per Si atom -5569.128906 kJ/mol
# Density = 1.970845 g / cm^3
# Si number density = 19.753411 Si / 1000 Ang^3
#
#
#
# Elastic Constant Matrix: (Units=GPa)
#
#
# Indices 1 2 3 4 5 6 
#
# 1 137.0228 31.0230 48.0718 0.0000 0.0000 0.0000
# 2 31.0230 49.7180 22.6813 0.0000 0.0000 0.0000
# 3 48.0718 22.6813 84.5091 0.0000 0.0000 0.0000
# 4 0.0000 0.0000 0.0000 13.2996 0.0000 0.0000
# 5 0.0000 0.0000 0.0000 0.0000 37.7387 0.0000
# 6 0.0000 0.0000 0.0000 0.0000 0.0000 -9.9400
#
#
#
# Elastic Compliance Matrix: (Units=1/GPa)
#
#
# Indices 1 2 3 4 5 6 
#
# 1 0.009789 -0.004066 -0.004477 0.000000 0.000000 0.000000
# 2 -0.004066 0.024608 -0.004292 0.000000 0.000000 0.000000
# 3 -0.004477 -0.004292 0.015532 0.000000 0.000000 0.000000
# 4 0.000000 0.000000 0.000000 0.075190 0.000000 0.000000
# 5 0.000000 0.000000 0.000000 0.000000 0.026498 0.000000
# 6 0.000000 0.000000 0.000000 0.000000 0.000000 -0.100603
#
#
# Mechanical properties :
#
#
# Convention : Reuss Voigt Hill
#
# Bulk Modulus (GPa) = 41.22084 52.75579 46.98831
# Shear Modulus (GPa) = 58.98245 19.51790 39.25017
#
# Velocity S-wave (km/s) = 5.47030 3.14678 4.46242
# Velocity P-wave (km/s) = 7.79820 6.32203 7.09859
#
# Compressibility (1/GPa) = 0.02425957
#
# Stress axis : x y z
#
# Youngs Moduli (GPa) = 102.15169 40.63659 64.38410
#
# Poissons Ratio (x) = 0.16522 0.28827
# Poissons Ratio (y) = 0.41533 0.27633
# Poissons Ratio (z) = 0.45737 0.17441
#
# Static dielectric constant tensor:
#      x y z
#    x 1.769340 0.000000 0.000000 
#    y 0.000000 1.566820 0.000000 
#    z 0.000000 0.000000 1.749090 
# 
# From -- ./inp_files/45427.got.cif
#   From: 2010.05.17/outbox.cif.g08.bks.cpg/sg74_23_cif.got.tgz:45427.got - 2010.06.03 17:57:02.
