data_PCOD9533232
_publ_section_title
;
Structure prediction by ZEFSAII (Michael W. Deem and Ramdas Pophale) SiO2 
 PCOD9533232
Probable space group: I B C A 
;
_chemical_formula_sum "Si O2"
_cell_formula_units_Z 64
_cell_length_a 15.343082
_cell_length_b 15.747092
_cell_length_c 10.680171
_cell_angle_alpha 90.000000
_cell_angle_beta 90.000000
_cell_angle_gamma 90.000000
_cell_volume 2580.424621
_symmetry_space_group_name_H-M "I B C A "
_symmetry_group_IT_number 73
_symmetry_cell_setting 'orthorhombic'
loop_
_space_group_symop_operation_xyz
x,y,z
-x,1/2-y,z
x,-y,1/2-z
1/2-x,y,-z
-x,-y,-z
x,1/2+y,-z
-x,y,1/2+z
1/2+x,-y,z
1/2+x,1/2+y,1/2+z
1/2-x,-y,1/2+z
1/2+x,1/2-y,-z
-x,1/2+y,1/2-z
1/2-x,1/2-y,1/2-z
1/2+x,y,1/2-z
1/2-x,1/2+y,z
x,1/2-y,1/2+z
loop_
_atom_site_type_symbol
_atom_site_label
_atom_site_fract_x
_atom_site_fract_y
_atom_site_fract_z
Si Si1 0.544426 0.331179 0.433413
Si Si2 0.496309 0.590012 0.817521
Si Si3 0.757805 0.332587 0.627289
Si Si4 0.200482 0.139774 0.877513
O O1 0.500000 0.250000 0.494558
O O2 0.548168 0.395616 0.552146
O O3 0.490208 0.351751 0.306641
O O4 0.639525 0.310734 0.379440
O O5 0.505411 0.500000 0.750000
O O6 0.395918 0.603856 0.862372
O O7 0.750000 0.383886 0.500000
O O8 0.743950 0.381810 0.754066
O O9 0.704110 0.244338 0.622242
O O10 0.250000 0.111561 0.000000
#
# Coordination Sequence:
#
# PCOD9533232 Si02
#       4
#    16  16  16  16
#     4  11  22  38  65  93 122 168 224 274 325 394
#     4  11  24  41  60  93 135 172 212 269 341 407
#     4   9  18  33  56  89 116 146 202 262 309 365
#     4   9  18  34  57  82 117 157 199 253 310 377
#
# _framework density 24.802119999999999
#
# number of rings (size 3 to 8) (size 9 to 14) (size 15 to 20)
#    0.000    2.000    0.000    4.500    0.000    8.000 
#    0.000    5.000    0.000    7.500    0.000    0.000 
#    0.000    0.000    0.000    0.000    0.000    0.000 
#
# Total GULP energy -178435.029286 kJ/mol
# GULP energy per Si atom -5576.094665 kJ/mol
# Density = 2.474567 g / cm^3
# Si number density = 24.802120 Si / 1000 Ang^3
#
#
#
# Elastic Constant Matrix: (Units=GPa)
#
#
# Indices 1 2 3 4 5 6 
#
# 1 49.6169 19.1133 11.1925 0.0000 0.0000 0.0000
# 2 19.1133 59.1120 18.7473 0.0000 0.0000 0.0000
# 3 11.1925 18.7473 232.0879 0.0000 0.0000 0.0000
# 4 0.0000 0.0000 0.0000 39.7826 0.0000 0.0000
# 5 0.0000 0.0000 0.0000 0.0000 48.0970 0.0000
# 6 0.0000 0.0000 0.0000 0.0000 0.0000 4.6841
#
#
#
# Elastic Compliance Matrix: (Units=1/GPa)
#
#
# Indices 1 2 3 4 5 6 
#
# 1 0.023084 -0.007298 -0.000524 0.000000 0.000000 0.000000
# 2 -0.007298 0.019669 -0.001237 0.000000 0.000000 0.000000
# 3 -0.000524 -0.001237 0.004434 0.000000 0.000000 0.000000
# 4 0.000000 0.000000 0.000000 0.025137 0.000000 0.000000
# 5 0.000000 0.000000 0.000000 0.000000 0.020791 0.000000
# 6 0.000000 0.000000 0.000000 0.000000 0.000000 0.213488
#
#
# Mechanical properties :
#
#
# Convention : Reuss Voigt Hill
#
# Bulk Modulus (GPa) = 34.39989 48.76923 41.58456
# Shear Modulus (GPa) = 14.95175 37.96365 26.45770
#
# Velocity S-wave (km/s) = 2.45795 3.91661 3.26966
# Velocity P-wave (km/s) = 4.68564 6.33712 5.57290
#
# Compressibility (1/GPa) = 0.02906986
#
# Stress axis : x y z
#
# Youngs Moduli (GPa) = 43.32040 50.84144 225.53616
#
# Poissons Ratio (x) = 0.37103 0.11812
# Poissons Ratio (y) = 0.31614 0.27896
# Poissons Ratio (z) = 0.02269 0.06288
#
# Static dielectric constant tensor:
#      x y z
#    x 1.989310 0.000000 0.000000 
#    y 0.000000 2.062010 0.000000 
#    z 0.000000 0.000000 2.122840 
# 
# From -- ./inp_files/10453.got.cif
#   From: 2010.05.17/outbox.cif.g08.bks.cpg/sg73_6_cif.got.tgz:10453.got - 2010.06.03 17:35:07.
