data_PCOD9533147
_publ_section_title
;
Structure prediction by ZEFSAII (Michael W. Deem and Ramdas Pophale) SiO2 
 PCOD9533147
Probable space group: I B C A 
;
_chemical_formula_sum "Si O2"
_cell_formula_units_Z 96
_cell_length_a 22.023648
_cell_length_b 15.739169
_cell_length_c 14.597712
_cell_angle_alpha 90.000000
_cell_angle_beta 90.000000
_cell_angle_gamma 90.000000
_cell_volume 5060.062102
_symmetry_space_group_name_H-M "I B C A "
_symmetry_group_IT_number 73
_symmetry_cell_setting 'orthorhombic'
loop_
_space_group_symop_operation_xyz
x,y,z
-x,1/2-y,z
x,-y,1/2-z
1/2-x,y,-z
-x,-y,-z
x,1/2+y,-z
-x,y,1/2+z
1/2+x,-y,z
1/2+x,1/2+y,1/2+z
1/2-x,-y,1/2+z
1/2+x,1/2-y,-z
-x,1/2+y,1/2-z
1/2-x,1/2-y,1/2-z
1/2+x,y,1/2-z
1/2-x,1/2+y,z
x,1/2-y,1/2+z
loop_
_atom_site_type_symbol
_atom_site_label
_atom_site_fract_x
_atom_site_fract_y
_atom_site_fract_z
Si Si1 0.903675 0.428084 0.673984
Si Si2 0.574739 0.755238 0.226072
Si Si3 0.618764 0.323156 0.580760
Si Si4 0.322137 0.982082 0.996780
Si Si5 0.121186 0.334314 0.536584
Si Si6 0.506632 0.097774 0.975565
O O1 0.905010 0.500000 0.750000
O O2 0.893449 0.337350 0.720545
O O3 0.857180 0.455180 0.592010
O O4 0.969634 0.410811 0.628091
O O5 0.500000 0.750000 0.223788
O O6 0.597488 0.798422 0.318784
O O7 0.602907 0.803888 0.138342
O O8 0.658689 0.408229 0.574332
O O9 0.646644 0.243368 0.524290
O O10 0.558908 0.350642 0.525303
O O11 0.250000 0.981483 0.000000
O O12 0.343064 0.076980 0.968727
O O13 0.054999 0.357234 0.497625
O O14 0.500000 0.000000 0.000000
#
# Coordination Sequence:
#
# PCOD9533147 Si02
#       6
#    16  16  16  16  16  16
#     4  11  23  41  64  95 129 167 217 264 330 398
#     4  12  23  36  66 105 136 166 204 268 345 416
#     4  11  24  41  65  97 136 169 213 267 331 395
#     4  11  26  48  67  86 127 179 228 279 321 373
#     4  12  21  42  65  95 133 169 215 265 333 395
#     4  11  20  37  64  95 134 172 201 263 332 406
#
# _framework density 18.972100000000001
#
# number of rings (size 3 to 8) (size 9 to 14) (size 15 to 20)
#    0.000    0.667    8.333    2.500    2.333    1.333 
#    3.000    0.833    0.000    0.000    0.000    0.000 
#    0.000    0.000    0.000    0.000    0.000    0.000 
#
# Total GULP energy -267537.888256 kJ/mol
# GULP energy per Si atom -5573.706005 kJ/mol
# Density = 1.892892 g / cm^3
# Si number density = 18.972100 Si / 1000 Ang^3
#
#
#
# Elastic Constant Matrix: (Units=GPa)
#
#
# Indices 1 2 3 4 5 6 
#
# 1 68.9529 29.4537 -4.0449 0.0000 0.0000 0.0000
# 2 29.4537 151.9025 21.9321 0.0000 0.0000 0.0000
# 3 -4.0449 21.9321 55.8407 0.0000 0.0000 0.0000
# 4 0.0000 0.0000 0.0000 53.5042 0.0000 0.0000
# 5 0.0000 0.0000 0.0000 0.0000 11.7750 0.0000
# 6 0.0000 0.0000 0.0000 0.0000 0.0000 5.0068
#
#
#
# Elastic Compliance Matrix: (Units=1/GPa)
#
#
# Indices 1 2 3 4 5 6 
#
# 1 0.016146 -0.003498 0.002543 0.000000 0.000000 0.000000
# 2 -0.003498 0.007737 -0.003292 0.000000 0.000000 0.000000
# 3 0.002543 -0.003292 0.019385 0.000000 0.000000 0.000000
# 4 0.000000 0.000000 0.000000 0.018690 0.000000 0.000000
# 5 0.000000 0.000000 0.000000 0.000000 0.084926 0.000000
# 6 0.000000 0.000000 0.000000 0.000000 0.000000 0.199730
#
#
# Mechanical properties :
#
#
# Convention : Reuss Voigt Hill
#
# Bulk Modulus (GPa) = 28.75635 41.26419 35.01027
# Shear Modulus (GPa) = 13.63519 29.34755 21.49137
#
# Velocity S-wave (km/s) = 2.68376 3.93731 3.36934
# Velocity P-wave (km/s) = 4.97931 6.51667 5.79916
#
# Compressibility (1/GPa) = 0.03477492
#
# Stress axis : x y z
#
# Youngs Moduli (GPa) = 61.93477 129.25361 51.58545
#
# Poissons Ratio (x) = 0.45212 -0.13120
# Poissons Ratio (y) = 0.21664 0.16982
# Poissons Ratio (z) = -0.15753 0.42551
#
# Static dielectric constant tensor:
#      x y z
#    x 1.780470 0.000000 0.000000 
#    y 0.000000 1.714080 0.000000 
#    z 0.000000 0.000000 1.717450 
# 
# From -- ./inp_files/17040.got.cif
#   From: 2010.05.17/outbox.cif.g08.bks.cpg/sg73_9_cif.got.tgz:17040.got - 2010.06.03 17:35:07.
