data_PCOD9533078
_publ_section_title
;
Structure prediction by ZEFSAII (Michael W. Deem and Ramdas Pophale) SiO2 
 PCOD9533078
Probable space group: I B C A 
;
_chemical_formula_sum "Si O2"
_cell_formula_units_Z 56
_cell_length_a 23.488249
_cell_length_b 17.388586
_cell_length_c 5.440092
_cell_angle_alpha 90.000000
_cell_angle_beta 90.000000
_cell_angle_gamma 90.000000
_cell_volume 2221.882837
_symmetry_space_group_name_H-M "I B C A "
_symmetry_group_IT_number 73
_symmetry_cell_setting 'orthorhombic'
loop_
_space_group_symop_operation_xyz
x,y,z
-x,1/2-y,z
x,-y,1/2-z
1/2-x,y,-z
-x,-y,-z
x,1/2+y,-z
-x,y,1/2+z
1/2+x,-y,z
1/2+x,1/2+y,1/2+z
1/2-x,-y,1/2+z
1/2+x,1/2-y,-z
-x,1/2+y,1/2-z
1/2-x,1/2-y,1/2-z
1/2+x,y,1/2-z
1/2-x,1/2+y,z
x,1/2-y,1/2+z
loop_
_atom_site_type_symbol
_atom_site_label
_atom_site_fract_x
_atom_site_fract_y
_atom_site_fract_z
Si Si1 0.137439 0.078772 0.897840
Si Si2 0.713054 0.500000 0.750000
Si Si3 0.978623 0.339748 0.026005
Si Si4 0.314518 0.220247 0.274927
O O1 0.168767 0.065127 0.157775
O O2 0.082318 0.131996 0.927577
O O3 0.182469 0.129525 0.746679
O O4 0.125614 0.000000 0.750000
O O5 0.750000 0.489144 0.500000
O O6 0.000000 0.250000 0.050514
O O7 0.017689 0.371100 0.803730
O O8 0.250000 0.250000 0.250000
O O9 0.341967 0.245279 0.528654
#
# Coordination Sequence:
#
# PCOD9533078 Si02
#       4
#    16   8  16  16
#     4  12  30  50  87 121 172 219 283 349 430 489
#     4  12  30  50  78 122 176 214 270 342 422 500
#     4  10  26  50  81 118 161 215 279 346 418 500
#     4  10  26  45  73 110 155 213 274 328 402 498
#
# _framework density 25.203849999999999
#
# number of rings (size 3 to 8) (size 9 to 14) (size 15 to 20)
#    0.000    1.143    1.429    0.000   20.000    3.429 
#    0.000    0.000    0.000    0.000    0.000    0.000 
#    0.000    0.000    0.000    0.000    0.000    0.000 
#
# Total GULP energy -156162.783660 kJ/mol
# GULP energy per Si atom -5577.242274 kJ/mol
# Density = 2.514649 g / cm^3
# Si number density = 25.203850 Si / 1000 Ang^3
#
#
#
# Elastic Constant Matrix: (Units=GPa)
#
#
# Indices 1 2 3 4 5 6 
#
# 1 93.7278 47.5573 -11.2255 0.0000 0.0000 0.0000
# 2 47.5573 116.5403 28.4923 0.0000 0.0000 0.0000
# 3 -11.2255 28.4923 186.4161 0.0000 0.0000 0.0000
# 4 0.0000 0.0000 0.0000 56.5323 0.0000 0.0000
# 5 0.0000 0.0000 0.0000 0.0000 26.0149 0.0000
# 6 0.0000 0.0000 0.0000 0.0000 0.0000 42.9114
#
#
#
# Elastic Compliance Matrix: (Units=1/GPa)
#
#
# Indices 1 2 3 4 5 6 
#
# 1 0.014004 -0.006150 0.001783 0.000000 0.000000 0.000000
# 2 -0.006150 0.011615 -0.002146 0.000000 0.000000 0.000000
# 3 0.001783 -0.002146 0.005800 0.000000 0.000000 0.000000
# 4 0.000000 0.000000 0.000000 0.017689 0.000000 0.000000
# 5 0.000000 0.000000 0.000000 0.000000 0.038440 0.000000
# 6 0.000000 0.000000 0.000000 0.000000 0.000000 0.023304
#
#
# Mechanical properties :
#
#
# Convention : Reuss Voigt Hill
#
# Bulk Modulus (GPa) = 54.36941 58.48138 56.42539
# Shear Modulus (GPa) = 38.45940 47.21575 42.83757
#
# Velocity S-wave (km/s) = 3.91056 4.33292 4.12715
# Velocity P-wave (km/s) = 6.48141 6.94881 6.71918
#
# Compressibility (1/GPa) = 0.01839269
#
# Stress axis : x y z
#
# Youngs Moduli (GPa) = 71.41060 86.09431 172.42342
#
# Poissons Ratio (x) = 0.52952 -0.30748
# Poissons Ratio (y) = 0.43921 0.36996
# Poissons Ratio (z) = -0.12735 0.18473
#
# Static dielectric constant tensor:
#      x y z
#    x 1.868950 0.000000 0.000000 
#    y 0.000000 1.944370 0.000000 
#    z 0.000000 0.000000 2.142250 
# 
# From -- ./inp_files/2473.got.cif
#   From: 2010.05.17/outbox.cif.g08.bks.cpg/sg73_2_cif.got.tgz:2473.got - 2010.06.03 17:35:07.
