data_PCOD9533917
_publ_section_title
;
Structure prediction by ZEFSAII (Michael W. Deem and Ramdas Pophale) SiO2 
 PCOD9533917
Probable space group: I M M A
;
_chemical_formula_sum "Si O2"
_cell_formula_units_Z 84
_cell_length_a 24.127948
_cell_length_b 20.661422
_cell_length_c 8.609763
_cell_angle_alpha 90.000000
_cell_angle_beta 90.000000
_cell_angle_gamma 90.000000
_cell_volume 4292.119383
_symmetry_space_group_name_H-M "I M M A"
_symmetry_group_IT_number 74
_symmetry_cell_setting 'orthorhombic'
loop_
_space_group_symop_operation_xyz
x,y,z
-x,1/2-y,z
x,-y,-z
-x,1/2+y,-z
-x,-y,-z
x,1/2+y,-z
-x,y,z
x,1/2-y,z
1/2+x,1/2+y,1/2+z
1/2-x,-y,1/2+z
1/2+x,1/2-y,1/2-z
1/2-x,y,1/2-z
1/2-x,1/2-y,1/2-z
1/2+x,y,1/2-z
1/2-x,1/2+y,1/2+z
1/2+x,-y,1/2+z
loop_
_atom_site_type_symbol
_atom_site_label
_atom_site_fract_x
_atom_site_fract_y
_atom_site_fract_z
Si Si1 0.120609 0.381687 0.700817
Si Si2 0.186860 0.750000 0.802814
Si Si3 0.500000 0.250000 0.569467
Si Si4 0.500000 0.327321 0.151975
Si Si5 0.500000 0.127251 0.794999
Si Si6 0.688935 0.503724 0.812660
Si Si7 0.877189 0.250000 0.898497
Si Si8 0.620570 0.871275 0.828717
O O1 0.058056 0.409050 0.723477
O O2 0.165344 0.435244 0.746781
O O3 0.124588 0.314366 0.792908
O O4 0.125346 0.369173 0.516370
O O5 0.250000 0.750000 0.750000
O O6 0.156719 0.686796 0.737199
O O7 0.174431 0.750000 0.985788
O O8 0.500000 0.186115 0.675014
O O9 0.436384 0.250000 0.506310
O O10 0.500000 0.250000 0.177680
O O11 0.443607 0.359246 0.213542
O O12 0.500000 0.340886 0.966628
O O13 0.750000 0.517277 0.750000
O O14 0.646247 0.561115 0.773547
O O15 0.691122 0.500000 0.000000
#
# Coordination Sequence:
#
# PCOD9533917 Si02
#       8
#    16   8   4   8   8  16   8  16
#     4   9  19  36  60  85 113 147 190 237 288 347
#     4  12  25  38  53  79 115 151 193 240 283 332
#     4   8  14  30  52  78 112 142 174 224 280 340
#     4  10  16  30  59  88 114 147 181 229 293 348
#     4   8  14  27  55  87 114 137 178 228 293 336
#     4  10  22  39  58  81 112 156 197 236 283 337
#     4  10  21  35  57  87 112 147 191 239 289 340
#     4  10  21  37  58  85 115 146 188 233 289 345
#
# _framework density 19.570751000000001
#
# number of rings (size 3 to 8) (size 9 to 14) (size 15 to 20)
#    0.000    2.286    1.429    1.143    2.667    6.095 
#    0.000    5.238    0.000    0.000    0.000    6.667 
#    0.000    0.000    0.000    0.000    0.000    0.000 
#
# Total GULP energy -234289.649443 kJ/mol
# GULP energy per Si atom -5578.324987 kJ/mol
# Density = 1.952621 g / cm^3
# Si number density = 19.570751 Si / 1000 Ang^3
#
#
#
# Elastic Constant Matrix: (Units=GPa)
#
#
# Indices 1 2 3 4 5 6 
#
# 1 162.8124 78.5617 30.1143 0.0000 0.0000 0.0000
# 2 78.5617 120.5512 22.4344 0.0000 0.0000 0.0000
# 3 30.1143 22.4344 27.5855 0.0000 0.0000 0.0000
# 4 0.0000 0.0000 0.0000 29.8724 0.0000 0.0000
# 5 0.0000 0.0000 0.0000 0.0000 27.1319 0.0000
# 6 0.0000 0.0000 0.0000 0.0000 0.0000 32.1038
#
#
#
# Elastic Compliance Matrix: (Units=1/GPa)
#
#
# Indices 1 2 3 4 5 6 
#
# 1 0.009866 -0.005214 -0.006530 0.000000 0.000000 0.000000
# 2 -0.005214 0.012530 -0.004498 0.000000 0.000000 0.000000
# 3 -0.006530 -0.004498 0.047038 0.000000 0.000000 0.000000
# 4 0.000000 0.000000 0.000000 0.033476 0.000000 0.000000
# 5 0.000000 0.000000 0.000000 0.000000 0.036857 0.000000
# 6 0.000000 0.000000 0.000000 0.000000 0.000000 0.031149
#
#
# Mechanical properties :
#
#
# Convention : Reuss Voigt Hill
#
# Bulk Modulus (GPa) = 27.06410 63.68554 45.37482
# Shear Modulus (GPa) = 23.17859 29.81088 26.49473
#
# Velocity S-wave (km/s) = 3.44517 3.90710 3.68338
# Velocity P-wave (km/s) = 5.44835 7.27776 6.42846
#
# Compressibility (1/GPa) = 0.03694932
#
# Stress axis : x y z
#
# Youngs Moduli (GPa) = 101.35999 79.80567 21.25962
#
# Poissons Ratio (x) = 0.41613 0.13882
# Poissons Ratio (y) = 0.52852 0.09563
# Poissons Ratio (z) = 0.66184 0.35899
#
# Static dielectric constant tensor:
#      x y z
#    x 1.709150 0.000000 0.000000 
#    y 0.000000 1.652660 0.000000 
#    z 0.000000 0.000000 1.705170 
# 
# From -- ./inp_files/13710.got.cif
#   From: 2010.05.17/outbox.cif.g08.bks.cpg/sg74_7_cif.got.tgz:13710.got - 2010.06.03 17:57:02.
