data_PCOD9533054
_publ_section_title
;
Structure prediction by ZEFSAII (Michael W. Deem and Ramdas Pophale) SiO2 
 PCOD9533054
Probable space group: I B C A 
;
_chemical_formula_sum "Si O2"
_cell_formula_units_Z 72
_cell_length_a 13.669410
_cell_length_b 28.052057
_cell_length_c 8.575389
_cell_angle_alpha 90.000000
_cell_angle_beta 90.000000
_cell_angle_gamma 90.000000
_cell_volume 3288.276376
_symmetry_space_group_name_H-M "I B C A "
_symmetry_group_IT_number 73
_symmetry_cell_setting 'orthorhombic'
loop_
_space_group_symop_operation_xyz
x,y,z
-x,1/2-y,z
x,-y,1/2-z
1/2-x,y,-z
-x,-y,-z
x,1/2+y,-z
-x,y,1/2+z
1/2+x,-y,z
1/2+x,1/2+y,1/2+z
1/2-x,-y,1/2+z
1/2+x,1/2-y,-z
-x,1/2+y,1/2-z
1/2-x,1/2-y,1/2-z
1/2+x,y,1/2-z
1/2-x,1/2+y,z
x,1/2-y,1/2+z
loop_
_atom_site_type_symbol
_atom_site_label
_atom_site_fract_x
_atom_site_fract_y
_atom_site_fract_z
Si Si1 0.750000 0.078260 0.000000
Si Si2 0.250000 0.751334 0.000000
Si Si3 0.291813 0.500000 0.250000
Si Si4 0.069643 0.547081 0.996887
Si Si5 0.074955 0.892655 0.809138
Si Si6 0.403759 0.714495 0.754060
O O1 0.656513 0.108340 0.947448
O O2 0.751463 0.043041 0.852622
O O3 0.171637 0.722448 0.103597
O O4 0.327428 0.778724 0.110511
O O5 0.344639 0.528595 0.111099
O O6 0.018891 0.588073 0.897871
O O7 0.090543 0.569465 0.166145
O O8 0.000000 0.500000 0.000000
O O9 0.060981 0.839890 0.744436
O O10 0.500000 0.750000 0.751934
#
# Coordination Sequence:
#
# PCOD9533054 Si02
#       6
#     8   8   8  16  16  16
#     4  12  25  42  67 106 138 188 231 302 349 430
#     4  10  25  50  73 108 154 178 251 314 369 446
#     4  12  24  42  70  94 152 186 230 288 362 400
#     4  12  23  45  66  99 139 188 232 289 330 442
#     4  12  26  43  74 102 140 186 248 281 373 431
#     4  11  26  48  79 106 149 194 242 313 378 442
#
# _framework density 21.895969000000001
#
# number of rings (size 3 to 8) (size 9 to 14) (size 15 to 20)
#    0.000    0.444    4.444    2.667    6.222    1.778 
#    4.000    0.000    0.000    0.000    0.000    0.000 
#    0.000    0.000    0.000    0.000    0.000    0.000 
#
# Total GULP energy -200467.460852 kJ/mol
# GULP energy per Si atom -5568.540579 kJ/mol
# Density = 2.184613 g / cm^3
# Si number density = 21.895969 Si / 1000 Ang^3
#
#
#
# Elastic Constant Matrix: (Units=GPa)
#
#
# Indices 1 2 3 4 5 6 
#
# 1 106.7204 53.2217 46.1596 -0.0005 -0.0001 -0.0001
# 2 53.2217 144.3124 39.4008 0.0006 0.0001 0.0002
# 3 46.1596 39.4008 136.3873 0.0050 -0.0021 0.0007
# 4 -0.0005 0.0006 0.0050 -26.4866 -0.0008 0.0004
# 5 -0.0001 0.0001 -0.0021 -0.0008 49.4960 0.0000
# 6 -0.0001 0.0002 0.0007 0.0004 0.0000 29.3214
#
#
#
# Elastic Compliance Matrix: (Units=1/GPa)
#
#
# Indices 1 2 3 4 5 6 
#
# 1 0.012638 -0.003792 -0.003182 -0.000001 0.000000 0.000000
# 2 -0.003792 0.008661 -0.001219 0.000000 0.000000 0.000000
# 3 -0.003182 -0.001219 0.008761 0.000002 0.000000 0.000000
# 4 -0.000001 0.000000 0.000002 -0.037755 -0.000001 0.000000
# 5 0.000000 0.000000 0.000000 -0.000001 0.020204 0.000000
# 6 0.000000 0.000000 0.000000 0.000000 0.000000 0.034105
#
#
# Mechanical properties :
#
#
# Convention : Reuss Voigt Hill
#
# Bulk Modulus (GPa) = 73.12826 73.88714 73.50770
# Shear Modulus (GPa) = 74.01380 27.04203 50.52792
#
# Velocity S-wave (km/s) = 5.82030 3.51810 4.80900
# Velocity P-wave (km/s) = 8.86783 7.09370 8.02991
#
# Compressibility (1/GPa) = 0.01367460
#
# Stress axis : x y z
#
# Youngs Moduli (GPa) = 79.12957 115.46572 114.14358
#
# Poissons Ratio (x) = 0.43784 0.36316
# Poissons Ratio (y) = 0.30006 0.13909
# Poissons Ratio (z) = 0.25176 0.14070
#
# Static dielectric constant tensor:
#      x y z
#    x 1.849340 0.000000 0.000000 
#    y 0.000000 1.394770 0.000000 
#    z 0.000000 0.000000 1.840320 
# 
# From -- ./inp_files/4852.got.cif
#   From: 2010.05.17/outbox.cif.g08.bks.cpg/sg73_3_cif.got.tgz:4852.got - 2010.06.03 17:35:07.
