data_PCOD9533249
_publ_section_title
;
Structure prediction by ZEFSAII (Michael W. Deem and Ramdas Pophale) SiO2 
 PCOD9533249
Probable space group: I B C A 
;
_chemical_formula_sum "Si O2"
_cell_formula_units_Z 64
_cell_length_a 8.010996
_cell_length_b 16.818668
_cell_length_c 19.807139
_cell_angle_alpha 90.000000
_cell_angle_beta 90.000000
_cell_angle_gamma 90.000000
_cell_volume 2668.700653
_symmetry_space_group_name_H-M "I B C A "
_symmetry_group_IT_number 73
_symmetry_cell_setting 'orthorhombic'
loop_
_space_group_symop_operation_xyz
x,y,z
-x,1/2-y,z
x,-y,1/2-z
1/2-x,y,-z
-x,-y,-z
x,1/2+y,-z
-x,y,1/2+z
1/2+x,-y,z
1/2+x,1/2+y,1/2+z
1/2-x,-y,1/2+z
1/2+x,1/2-y,-z
-x,1/2+y,1/2-z
1/2-x,1/2-y,1/2-z
1/2+x,y,1/2-z
1/2-x,1/2+y,z
x,1/2-y,1/2+z
loop_
_atom_site_type_symbol
_atom_site_label
_atom_site_fract_x
_atom_site_fract_y
_atom_site_fract_z
Si Si1 0.606816 0.075432 0.209146
Si Si2 0.194066 0.124843 0.070706
Si Si3 0.804703 0.181916 0.299988
Si Si4 0.825578 0.954109 0.425412
O O1 0.728013 0.102490 0.268414
O O2 0.493608 0.153481 0.195272
O O3 0.710798 0.064700 0.139753
O O4 0.525673 0.000000 0.250000
O O5 0.221624 0.189995 0.127635
O O6 0.009254 0.085807 0.076647
O O7 0.324838 0.050674 0.078014
O O8 0.250000 0.160625 0.000000
O O9 0.750000 0.250000 0.250000
O O10 0.750000 0.935509 0.500000
#
# Coordination Sequence:
#
# PCOD9533249 Si02
#       4
#    16  16  16  16
#     4  12  24  42  70 104 142 188 247 299 360 434
#     4  11  22  41  69 107 145 186 235 297 367 434
#     4  12  26  44  67 103 148 192 239 299 366 435
#     4  11  22  40  71 109 144 179 239 304 360 427
#
# _framework density 23.981708999999999
#
# number of rings (size 3 to 8) (size 9 to 14) (size 15 to 20)
#    0.000    0.500    2.500    9.000    0.000    0.000 
#    0.000    1.250    0.000    3.000    0.000    0.000 
#    0.000    0.000    0.000    0.000    0.000    0.000 
#
# Total GULP energy -178536.876610 kJ/mol
# GULP energy per Si atom -5579.277394 kJ/mol
# Density = 2.392713 g / cm^3
# Si number density = 23.981709 Si / 1000 Ang^3
#
#
#
# Elastic Constant Matrix: (Units=GPa)
#
#
# Indices 1 2 3 4 5 6 
#
# 1 114.3233 37.4550 66.2650 0.0000 0.0000 0.0000
# 2 37.4550 59.7842 56.7161 0.0000 0.0000 0.0000
# 3 66.2650 56.7161 229.7881 0.0000 0.0000 0.0000
# 4 0.0000 0.0000 0.0000 44.0071 0.0000 0.0000
# 5 0.0000 0.0000 0.0000 0.0000 24.2611 0.0000
# 6 0.0000 0.0000 0.0000 0.0000 0.0000 27.9537
#
#
#
# Elastic Compliance Matrix: (Units=1/GPa)
#
#
# Indices 1 2 3 4 5 6 
#
# 1 0.011697 -0.005390 -0.002043 0.000000 0.000000 0.000000
# 2 -0.005390 0.024325 -0.004449 0.000000 0.000000 0.000000
# 3 -0.002043 -0.004449 0.006039 0.000000 0.000000 0.000000
# 4 0.000000 0.000000 0.000000 0.022724 0.000000 0.000000
# 5 0.000000 0.000000 0.000000 0.000000 0.041218 0.000000
# 6 0.000000 0.000000 0.000000 0.000000 0.000000 0.035773
#
#
# Mechanical properties :
#
#
# Convention : Reuss Voigt Hill
#
# Bulk Modulus (GPa) = 54.65625 80.52977 67.59301
# Shear Modulus (GPa) = 29.13066 35.47501 32.30284
#
# Velocity S-wave (km/s) = 3.48904 3.85028 3.67410
# Velocity P-wave (km/s) = 6.25072 7.30881 6.80038
#
# Compressibility (1/GPa) = 0.01829617
#
# Stress axis : x y z
#
# Youngs Moduli (GPa) = 85.49076 41.10991 165.58772
#
# Poissons Ratio (x) = 0.22160 0.33825
# Poissons Ratio (y) = 0.46083 0.73677
# Poissons Ratio (z) = 0.17463 0.18291
#
# Static dielectric constant tensor:
#      x y z
#    x 2.050080 0.000000 0.000000 
#    y 0.000000 1.937220 0.000000 
#    z 0.000000 0.000000 1.584230 
# 
# From -- ./inp_files/20561.got.cif
#   From: 2010.05.17/outbox.cif.g08.bks.cpg/sg73_11_cif.got.tgz:20561.got - 2010.06.03 17:35:07.
