data_PCOD9533114
_publ_section_title
;
Structure prediction by ZEFSAII (Michael W. Deem and Ramdas Pophale) SiO2 
 PCOD9533114
Probable space group: I B C A 
;
_chemical_formula_sum "Si O2"
_cell_formula_units_Z 64
_cell_length_a 28.489595
_cell_length_b 9.407530
_cell_length_c 9.662199
_cell_angle_alpha 90.000000
_cell_angle_beta 90.000000
_cell_angle_gamma 90.000000
_cell_volume 2589.630881
_symmetry_space_group_name_H-M "I B C A "
_symmetry_group_IT_number 73
_symmetry_cell_setting 'orthorhombic'
loop_
_space_group_symop_operation_xyz
x,y,z
-x,1/2-y,z
x,-y,1/2-z
1/2-x,y,-z
-x,-y,-z
x,1/2+y,-z
-x,y,1/2+z
1/2+x,-y,z
1/2+x,1/2+y,1/2+z
1/2-x,-y,1/2+z
1/2+x,1/2-y,-z
-x,1/2+y,1/2-z
1/2-x,1/2-y,1/2-z
1/2+x,y,1/2-z
1/2-x,1/2+y,z
x,1/2-y,1/2+z
loop_
_atom_site_type_symbol
_atom_site_label
_atom_site_fract_x
_atom_site_fract_y
_atom_site_fract_z
Si Si1 0.585860 0.000000 0.250000
Si Si2 0.536193 0.873621 0.003743
Si Si3 0.250000 0.543879 0.000000
Si Si4 0.372121 0.238519 0.107142
Si Si5 0.692506 0.288990 0.360088
O O1 0.556699 0.889287 0.158006
O O2 0.615027 0.899461 0.350929
O O3 0.500000 0.750000 0.977408
O O4 0.580981 0.857231 0.902162
O O5 0.500000 0.000000 0.000000
O O6 0.284389 0.431609 0.922547
O O7 0.226721 0.652735 0.887397
O O8 0.330156 0.193869 0.209296
O O9 0.351657 0.247284 0.954497
#
# Coordination Sequence:
#
# PCOD9533114 Si02
#       5
#     8  16   8  16  16
#     4  12  26  50  74 114 156 208 262 324 386 464
#     4  12  28  50  78 115 159 214 267 327 390 467
#     4  10  26  50  78 118 152 206 258 338 392 490
#     4  12  26  49  78 116 158 212 256 327 387 479
#     4  11  26  48  80 112 158 201 263 319 408 469
#
# _framework density 24.713947999999998
#
# number of rings (size 3 to 8) (size 9 to 14) (size 15 to 20)
#    0.000    0.500    5.000    1.500    3.500    7.000 
#    4.500    0.000    0.000    0.000    0.000    0.000 
#    0.000    0.000    0.000    0.000    0.000    0.000 
#
# Total GULP energy -179003.734737 kJ/mol
# GULP energy per Si atom -5593.866711 kJ/mol
# Density = 2.465770 g / cm^3
# Si number density = 24.713948 Si / 1000 Ang^3
#
#
#
# Elastic Constant Matrix: (Units=GPa)
#
#
# Indices 1 2 3 4 5 6 
#
# 1 153.3162 76.1322 19.5551 0.0000 0.0000 0.0000
# 2 76.1322 157.9936 6.0761 0.0000 0.0000 0.0000
# 3 19.5551 6.0761 47.5651 0.0000 0.0000 0.0000
# 4 0.0000 0.0000 0.0000 29.9009 0.0000 0.0000
# 5 0.0000 0.0000 0.0000 0.0000 34.5774 0.0000
# 6 0.0000 0.0000 0.0000 0.0000 0.0000 32.2264
#
#
#
# Elastic Compliance Matrix: (Units=1/GPa)
#
#
# Indices 1 2 3 4 5 6 
#
# 1 0.009026 -0.004227 -0.003171 0.000000 0.000000 0.000000
# 2 -0.004227 0.008341 0.000673 0.000000 0.000000 0.000000
# 3 -0.003171 0.000673 0.022242 0.000000 0.000000 0.000000
# 4 0.000000 0.000000 0.000000 0.033444 0.000000 0.000000
# 5 0.000000 0.000000 0.000000 0.000000 0.028921 0.000000
# 6 0.000000 0.000000 0.000000 0.000000 0.000000 0.031030
#
#
# Mechanical properties :
#
#
# Convention : Reuss Voigt Hill
#
# Bulk Modulus (GPa) = 38.23102 62.48907 50.36005
# Shear Modulus (GPa) = 32.22200 36.48171 34.35185
#
# Velocity S-wave (km/s) = 3.61473 3.84625 3.73229
# Velocity P-wave (km/s) = 5.73801 6.71302 6.24457
#
# Compressibility (1/GPa) = 0.02615677
#
# Stress axis : x y z
#
# Youngs Moduli (GPa) = 110.78949 119.89562 44.96099
#
# Poissons Ratio (x) = 0.50685 0.14256
# Poissons Ratio (y) = 0.46836 -0.03024
# Poissons Ratio (z) = 0.35129 -0.08064
#
# Static dielectric constant tensor:
#      x y z
#    x 2.147800 0.000000 0.000000 
#    y 0.000000 1.824600 0.000000 
#    z 0.000000 0.000000 1.932740 
# 
# From -- ./inp_files/14549.got.cif
#   From: 2010.05.17/outbox.cif.g08.bks.cpg/sg73_8_cif.got.tgz:14549.got - 2010.06.03 17:35:07.
