data_PCOD9533913
_publ_section_title
;
Structure prediction by ZEFSAII (Michael W. Deem and Ramdas Pophale) SiO2 
 PCOD9533913
Probable space group: I M M A
;
_chemical_formula_sum "Si O2"
_cell_formula_units_Z 104
_cell_length_a 17.969987
_cell_length_b 13.871938
_cell_length_c 22.344821
_cell_angle_alpha 90.000000
_cell_angle_beta 90.000000
_cell_angle_gamma 90.000000
_cell_volume 5570.084479
_symmetry_space_group_name_H-M "I M M A"
_symmetry_group_IT_number 74
_symmetry_cell_setting 'orthorhombic'
loop_
_space_group_symop_operation_xyz
x,y,z
-x,1/2-y,z
x,-y,-z
-x,1/2+y,-z
-x,-y,-z
x,1/2+y,-z
-x,y,z
x,1/2-y,z
1/2+x,1/2+y,1/2+z
1/2-x,-y,1/2+z
1/2+x,1/2-y,1/2-z
1/2-x,y,1/2-z
1/2-x,1/2-y,1/2-z
1/2+x,y,1/2-z
1/2-x,1/2+y,1/2+z
1/2+x,-y,1/2+z
loop_
_atom_site_type_symbol
_atom_site_label
_atom_site_fract_x
_atom_site_fract_y
_atom_site_fract_z
Si Si1 0.264945 0.135396 0.560879
Si Si2 0.615664 0.500000 0.500000
Si Si3 0.911844 0.534616 0.784652
Si Si4 0.588088 0.634129 0.841052
Si Si5 0.200748 0.364920 0.441757
Si Si6 0.198270 0.861224 0.192202
Si Si7 0.373036 0.862141 0.595926
O O1 0.277463 0.250000 0.553069
O O2 0.335899 0.075434 0.539116
O O3 0.202511 0.106962 0.512010
O O4 0.255952 0.117844 0.631128
O O5 0.582385 0.569117 0.550415
O O6 0.891701 0.578920 0.720026
O O7 0.867098 0.437892 0.800028
O O8 0.891985 0.610402 0.836624
O O9 0.000000 0.517507 0.784954
O O10 0.500000 0.620253 0.852680
O O11 0.599367 0.750000 0.832575
O O12 0.638919 0.597985 0.896041
O O13 0.189838 0.250000 0.441699
O O14 0.284685 0.381725 0.416905
O O15 0.171712 0.750000 0.187560
O O16 0.250000 0.868412 0.250000
O O17 0.386530 0.750000 0.584321
#
# Coordination Sequence:
#
# PCOD9533913 Si02
#       7
#    16   8  16  16  16  16  16
#     4   9  17  31  52  79 109 136 180 236 281 329
#     4  10  16  30  53  78 103 144 178 226 286 330
#     4  11  23  37  56  81 113 154 188 227 290 348
#     4   9  18  32  51  82 123 158 186 223 282 354
#     4   8  16  30  52  80 110 147 185 230 281 333
#     4  10  22  39  60  84 109 143 193 246 288 331
#     4  10  20  33  53  83 113 145 193 238 280 337
#
# _framework density 18.67117
#
# number of rings (size 3 to 8) (size 9 to 14) (size 15 to 20)
#    0.000    2.462    1.538    1.846    2.154    1.231 
#    0.000    2.692    0.000    0.923    0.000   15.077 
#    0.000    0.000    0.000    0.000    0.000    0.000 
#
# Total GULP energy -289701.768341 kJ/mol
# GULP energy per Si atom -5571.187853 kJ/mol
# Density = 1.862867 g / cm^3
# Si number density = 18.671170 Si / 1000 Ang^3
#
#
#
# Elastic Constant Matrix: (Units=GPa)
#
#
# Indices 1 2 3 4 5 6 
#
# 1 50.8783 35.8640 65.7255 0.0000 0.0000 0.0000
# 2 35.8640 94.0833 47.5717 0.0000 0.0000 0.0000
# 3 65.7255 47.5717 194.0056 0.0000 0.0000 0.0000
# 4 0.0000 0.0000 0.0000 28.8500 0.0000 0.0000
# 5 0.0000 0.0000 0.0000 0.0000 -29.1631 0.0000
# 6 0.0000 0.0000 0.0000 0.0000 0.0000 8.8601
#
#
#
# Elastic Compliance Matrix: (Units=1/GPa)
#
#
# Indices 1 2 3 4 5 6 
#
# 1 0.041876 -0.010034 -0.011726 0.000000 0.000000 0.000000
# 2 -0.010034 0.014537 -0.000165 0.000000 0.000000 0.000000
# 3 -0.011726 -0.000165 0.009168 0.000000 0.000000 0.000000
# 4 0.000000 0.000000 0.000000 0.034662 0.000000 0.000000
# 5 0.000000 0.000000 0.000000 0.000000 -0.034290 0.000000
# 6 0.000000 0.000000 0.000000 0.000000 0.000000 0.112866
#
#
# Mechanical properties :
#
#
# Convention : Reuss Voigt Hill
#
# Bulk Modulus (GPa) = 46.01946 70.80995 58.41470
# Shear Modulus (GPa) = 21.74737 14.36315 18.05526
#
# Velocity S-wave (km/s) = 3.41656 2.77658 3.11306
# Velocity P-wave (km/s) = 6.34544 6.94883 6.65398
#
# Compressibility (1/GPa) = 0.02172994
#
# Stress axis : x y z
#
# Youngs Moduli (GPa) = 23.88016 68.78870 109.07793
#
# Poissons Ratio (x) = 0.69019 1.27909
# Poissons Ratio (y) = 0.23960 0.01805
# Poissons Ratio (z) = 0.28003 0.01138
#
# Static dielectric constant tensor:
#      x y z
#    x 1.638450 0.000000 0.000000 
#    y 0.000000 1.670490 0.000000 
#    z 0.000000 0.000000 1.677120 
# 
# From -- ./inp_files/53070.got.cif
#   From: 2010.05.17/outbox.cif.g08.bks.cpg/sg74_27_cif.got.tgz:53070.got - 2010.06.03 17:57:02.
