data_PCOD9533500
_publ_section_title
;
Structure prediction by ZEFSAII (Michael W. Deem and Ramdas Pophale) SiO2 
 PCOD9533500
Probable space group: I B C A 
;
_chemical_formula_sum "Si O2"
_cell_formula_units_Z 64
_cell_length_a 30.086421
_cell_length_b 9.166165
_cell_length_c 9.860457
_cell_angle_alpha 90.000000
_cell_angle_beta 90.000000
_cell_angle_gamma 90.000000
_cell_volume 2719.288228
_symmetry_space_group_name_H-M "I B C A "
_symmetry_group_IT_number 73
_symmetry_cell_setting 'orthorhombic'
loop_
_space_group_symop_operation_xyz
x,y,z
-x,1/2-y,z
x,-y,1/2-z
1/2-x,y,-z
-x,-y,-z
x,1/2+y,-z
-x,y,1/2+z
1/2+x,-y,z
1/2+x,1/2+y,1/2+z
1/2-x,-y,1/2+z
1/2+x,1/2-y,-z
-x,1/2+y,1/2-z
1/2-x,1/2-y,1/2-z
1/2+x,y,1/2-z
1/2-x,1/2+y,z
x,1/2-y,1/2+z
loop_
_atom_site_type_symbol
_atom_site_label
_atom_site_fract_x
_atom_site_fract_y
_atom_site_fract_z
Si Si1 0.991208 0.610599 0.662784
Si Si2 0.572111 0.594728 0.565080
Si Si3 0.226532 0.136790 0.648195
Si Si4 0.624485 0.382363 0.372011
O O1 0.962981 0.500000 0.750000
O O2 0.034036 0.517420 0.620825
O O3 0.041178 0.829798 0.548874
O O4 0.000000 0.750000 0.753643
O O5 0.607258 0.482022 0.498400
O O6 0.595815 0.730523 0.640387
O O7 0.250000 0.118568 0.500000
O O8 0.250000 0.250000 0.750000
O O9 0.175201 0.171384 0.612881
O O10 0.226230 0.000000 0.750000
O O11 0.625656 0.500000 0.250000
#
# Coordination Sequence:
#
# PCOD9533500 Si02
#       4
#    16  16  16  16
#     4  11  25  43  69 105 149 198 247 314 387 463
#     4  11  25  47  71 103 151 195 255 316 389 468
#     4  11  27  51  81 117 162 211 269 342 420 493
#     4  11  27  46  77 113 150 199 265 327 396 489
#
# _framework density 23.535571000000001
#
# number of rings (size 3 to 8) (size 9 to 14) (size 15 to 20)
#    0.000    1.000    2.500    1.500   17.500    0.000 
#    0.000    0.000    0.000    0.000    0.000    0.000 
#    0.000    0.000    0.000    0.000    0.000    0.000 
#
# Total GULP energy -178136.734894 kJ/mol
# GULP energy per Si atom -5566.772965 kJ/mol
# Density = 2.348200 g / cm^3
# Si number density = 23.535571 Si / 1000 Ang^3
#
#
#
# Elastic Constant Matrix: (Units=GPa)
#
#
# Indices 1 2 3 4 5 6 
#
# 1 198.7055 54.2999 53.4885 0.0000 0.0000 0.0000
# 2 54.2999 167.8417 22.1405 0.0000 0.0000 0.0000
# 3 53.4885 22.1405 101.7397 0.0000 0.0000 0.0000
# 4 0.0000 0.0000 0.0000 39.9359 0.0000 0.0000
# 5 0.0000 0.0000 0.0000 0.0000 64.6415 0.0000
# 6 0.0000 0.0000 0.0000 0.0000 0.0000 -18.3981
#
#
#
# Elastic Compliance Matrix: (Units=1/GPa)
#
#
# Indices 1 2 3 4 5 6 
#
# 1 0.006273 -0.001641 -0.002941 0.000000 0.000000 0.000000
# 2 -0.001641 0.006564 -0.000565 0.000000 0.000000 0.000000
# 3 -0.002941 -0.000565 0.011498 0.000000 0.000000 0.000000
# 4 0.000000 0.000000 0.000000 0.025040 0.000000 0.000000
# 5 0.000000 0.000000 0.000000 0.000000 0.015470 0.000000
# 6 0.000000 0.000000 0.000000 0.000000 0.000000 -0.054354
#
#
# Mechanical properties :
#
#
# Convention : Reuss Voigt Hill
#
# Bulk Modulus (GPa) = 71.22767 80.90496 76.06632
# Shear Modulus (GPa) = 196.34349 39.79305 118.06827
#
# Velocity S-wave (km/s) = 9.14359 4.11635 7.09047
# Velocity P-wave (km/s) = 11.90812 7.55266 9.97111
#
# Compressibility (1/GPa) = 0.01403949
#
# Stress axis : x y z
#
# Youngs Moduli (GPa) = 159.42138 152.35512 86.97142
#
# Poissons Ratio (x) = 0.25008 0.25575
# Poissons Ratio (y) = 0.26168 0.04917
# Poissons Ratio (z) = 0.46879 0.08614
#
# Static dielectric constant tensor:
#      x y z
#    x 1.925000 0.000000 0.000000 
#    y 0.000000 4.235890 0.000000 
#    z 0.000000 0.000000 2.382290 
# 
# From -- ./inp_files/9046.got.cif
#   From: 2010.05.17/outbox.cif.g08.bks.cpg/sg73_5_cif.got.tgz:9046.got - 2010.06.03 17:35:07.
