data_PCOD9533408
_publ_section_title
;
Structure prediction by ZEFSAII (Michael W. Deem and Ramdas Pophale) SiO2 
 PCOD9533408
Probable space group: I B C A 
;
_chemical_formula_sum "Si O2"
_cell_formula_units_Z 80
_cell_length_a 16.542522
_cell_length_b 23.077659
_cell_length_c 8.910355
_cell_angle_alpha 90.000000
_cell_angle_beta 90.000000
_cell_angle_gamma 90.000000
_cell_volume 3401.641020
_symmetry_space_group_name_H-M "I B C A "
_symmetry_group_IT_number 73
_symmetry_cell_setting 'orthorhombic'
loop_
_space_group_symop_operation_xyz
x,y,z
-x,1/2-y,z
x,-y,1/2-z
1/2-x,y,-z
-x,-y,-z
x,1/2+y,-z
-x,y,1/2+z
1/2+x,-y,z
1/2+x,1/2+y,1/2+z
1/2-x,-y,1/2+z
1/2+x,1/2-y,-z
-x,1/2+y,1/2-z
1/2-x,1/2-y,1/2-z
1/2+x,y,1/2-z
1/2-x,1/2+y,z
x,1/2-y,1/2+z
loop_
_atom_site_type_symbol
_atom_site_label
_atom_site_fract_x
_atom_site_fract_y
_atom_site_fract_z
Si Si1 0.277916 0.557165 0.838878
Si Si2 0.175666 0.868004 0.110061
Si Si3 0.035931 0.193165 0.205919
Si Si4 0.943972 0.537818 0.108982
Si Si5 0.069010 0.130945 0.903120
O O1 0.304689 0.500000 0.750000
O O2 0.213919 0.594835 0.745842
O O3 0.345245 0.603900 0.878956
O O4 0.250000 0.534385 0.000000
O O5 0.114066 0.819490 0.181453
O O6 0.121650 0.919352 0.032827
O O7 0.250000 0.849254 0.000000
O O8 0.000000 0.250000 0.121702
O O9 0.955289 0.185451 0.306137
O O10 0.052012 0.147100 0.073766
O O11 0.912890 0.500000 0.250000
O O12 0.008214 0.584059 0.167012
O O13 0.000000 0.500000 0.000000
#
# Coordination Sequence:
#
# PCOD9533408 Si02
#       5
#    16  16  16  16  16
#     4  12  26  44  70 110 162 202 241 302 392 471
#     4  11  26  45  72 113 154 194 256 325 382 460
#     4  11  25  51  78 103 144 203 266 328 394 445
#     4  11  24  41  65 103 148 202 247 289 370 464
#     4  11  25  44  72 106 146 195 258 318 374 474
#
# _framework density 23.518059000000001
#
# number of rings (size 3 to 8) (size 9 to 14) (size 15 to 20)
#    0.000    0.800    2.000    4.800   14.000    0.000 
#    0.000    2.000    0.000    0.000    0.000    0.000 
#    0.000    0.000    0.000    0.000    0.000    0.000 
#
# Total GULP energy -222800.873264 kJ/mol
# GULP energy per Si atom -5570.021832 kJ/mol
# Density = 2.346453 g / cm^3
# Si number density = 23.518059 Si / 1000 Ang^3
#
#
#
# Elastic Constant Matrix: (Units=GPa)
#
#
# Indices 1 2 3 4 5 6 
#
# 1 111.8377 54.3454 44.0961 0.0000 0.0000 0.0000
# 2 54.3454 66.2854 34.0848 0.0000 0.0000 0.0000
# 3 44.0961 34.0848 110.4267 0.0000 0.0000 0.0000
# 4 0.0000 0.0000 0.0000 24.3285 0.0000 0.0000
# 5 0.0000 0.0000 0.0000 0.0000 30.3579 0.0000
# 6 0.0000 0.0000 0.0000 0.0000 0.0000 14.9799
#
#
#
# Elastic Compliance Matrix: (Units=1/GPa)
#
#
# Indices 1 2 3 4 5 6 
#
# 1 0.015510 -0.011330 -0.002697 0.000000 0.000000 0.000000
# 2 -0.011330 0.026209 -0.003565 0.000000 0.000000 0.000000
# 3 -0.002697 -0.003565 0.011233 0.000000 0.000000 0.000000
# 4 0.000000 0.000000 0.000000 0.041104 0.000000 0.000000
# 5 0.000000 0.000000 0.000000 0.000000 0.032940 0.000000
# 6 0.000000 0.000000 0.000000 0.000000 0.000000 0.066756
#
#
# Mechanical properties :
#
#
# Convention : Reuss Voigt Hill
#
# Bulk Modulus (GPa) = 56.27934 61.51139 58.89536
# Shear Modulus (GPa) = 21.28942 24.33485 22.81213
#
# Velocity S-wave (km/s) = 3.01198 3.22021 3.11783
# Velocity P-wave (km/s) = 6.00652 6.32757 6.16913
#
# Compressibility (1/GPa) = 0.01776851
#
# Stress axis : x y z
#
# Youngs Moduli (GPa) = 64.47364 38.15542 89.02286
#
# Poissons Ratio (x) = 0.43229 0.24005
# Poissons Ratio (y) = 0.73047 0.31740
# Poissons Ratio (z) = 0.17385 0.13604
#
# Static dielectric constant tensor:
#      x y z
#    x 2.052460 0.000000 0.000000 
#    y 0.000000 7.737590 0.000000 
#    z 0.000000 0.000000 1.940990 
# 
# From -- ./inp_files/5577.got.cif
#   From: 2010.05.17/outbox.cif.g08.bks.cpg/sg73_3_cif.got.tgz:5577.got - 2010.06.03 17:35:07.
