data_PCOD9533003
_publ_section_title
;
Structure prediction by ZEFSAII (Michael W. Deem and Ramdas Pophale) SiO2 
 PCOD9533003
Probable space group: I B C A 
;
_chemical_formula_sum "Si O2"
_cell_formula_units_Z 64
_cell_length_a 27.694981
_cell_length_b 10.253194
_cell_length_c 8.743887
_cell_angle_alpha 90.000000
_cell_angle_beta 90.000000
_cell_angle_gamma 90.000000
_cell_volume 2482.931754
_symmetry_space_group_name_H-M "I B C A "
_symmetry_group_IT_number 73
_symmetry_cell_setting 'orthorhombic'
loop_
_space_group_symop_operation_xyz
x,y,z
-x,1/2-y,z
x,-y,1/2-z
1/2-x,y,-z
-x,-y,-z
x,1/2+y,-z
-x,y,1/2+z
1/2+x,-y,z
1/2+x,1/2+y,1/2+z
1/2-x,-y,1/2+z
1/2+x,1/2-y,-z
-x,1/2+y,1/2-z
1/2-x,1/2-y,1/2-z
1/2+x,y,1/2-z
1/2-x,1/2+y,z
x,1/2-y,1/2+z
loop_
_atom_site_type_symbol
_atom_site_label
_atom_site_fract_x
_atom_site_fract_y
_atom_site_fract_z
Si Si1 0.034383 0.376175 0.011850
Si Si2 0.834471 0.625434 0.483112
Si Si3 0.103737 0.500000 0.250000
Si Si4 0.594885 0.000000 0.250000
Si Si5 0.738220 0.000000 0.250000
Si Si6 0.750000 0.319107 0.500000
O O1 0.069188 0.399876 0.157317
O O2 0.000000 0.250000 0.016593
O O3 0.066382 0.401474 0.861389
O O4 0.000000 0.500000 0.000000
O O5 0.861753 0.571049 0.629791
O O6 0.875375 0.602969 0.354359
O O7 0.792987 0.544491 0.394915
O O8 0.801586 0.747602 0.531817
O O9 0.764360 0.884377 0.336268
#
# Coordination Sequence:
#
# PCOD9533003 Si02
#       6
#    16  16   8   8   8   8
#     4  11  25  51  84 115 166 219 280 341 432 500
#     4  10  24  51  79 113 165 209 265 340 411 479
#     4  10  25  52  81 126 162 206 282 348 413 507
#     4   9  23  51  78 127 156 206 285 345 405 512
#     4  11  26  47  75 119 150 210 285 319 402 497
#     4  12  26  50  82 108 168 222 266 332 412 486
#
# _framework density 25.775980000000001
#
# number of rings (size 3 to 8) (size 9 to 14) (size 15 to 20)
#    0.000    1.500    0.000    2.250    0.000   11.000 
#   45.000    8.750    0.000    0.000    0.000    0.000 
#    0.000    0.000    0.000    0.000    0.000    0.000 
#
# Total GULP energy -178642.786358 kJ/mol
# GULP energy per Si atom -5582.587074 kJ/mol
# Density = 2.571731 g / cm^3
# Si number density = 25.775980 Si / 1000 Ang^3
#
#
#
# Elastic Constant Matrix: (Units=GPa)
#
#
# Indices 1 2 3 4 5 6 
#
# 1 169.9381 82.1371 126.7445 0.0000 0.0000 0.0000
# 2 82.1371 137.7446 81.3951 0.0000 0.0000 0.0000
# 3 126.7445 81.3951 223.5254 0.0000 0.0000 0.0000
# 4 0.0000 0.0000 0.0000 30.5375 0.0000 0.0000
# 5 0.0000 0.0000 0.0000 0.0000 25.0871 0.0000
# 6 0.0000 0.0000 0.0000 0.0000 0.0000 34.3892
#
#
#
# Elastic Compliance Matrix: (Units=1/GPa)
#
#
# Indices 1 2 3 4 5 6 
#
# 1 0.011615 -0.003866 -0.005178 0.000000 0.000000 0.000000
# 2 -0.003866 0.010537 -0.001645 0.000000 0.000000 0.000000
# 3 -0.005178 -0.001645 0.008009 0.000000 0.000000 0.000000
# 4 0.000000 0.000000 0.000000 0.032747 0.000000 0.000000
# 5 0.000000 0.000000 0.000000 0.000000 0.039861 0.000000
# 6 0.000000 0.000000 0.000000 0.000000 0.000000 0.029079
#
#
# Mechanical properties :
#
#
# Convention : Reuss Voigt Hill
#
# Bulk Modulus (GPa) = 113.85968 123.52906 118.69437
# Shear Modulus (GPa) = 32.01961 34.06487 33.04224
#
# Velocity S-wave (km/s) = 3.52835 3.63929 3.58425
# Velocity P-wave (km/s) = 7.80177 8.10478 7.95472
#
# Compressibility (1/GPa) = 0.00878274
#
# Stress axis : x y z
#
# Youngs Moduli (GPa) = 86.09309 94.90194 124.86080
#
# Poissons Ratio (x) = 0.36692 0.64657
# Poissons Ratio (y) = 0.33286 0.20537
# Poissons Ratio (z) = 0.44582 0.15609
#
# Static dielectric constant tensor:
#      x y z
#    x 1.973740 0.000000 0.000000 
#    y 0.000000 2.467890 0.000000 
#    z 0.000000 0.000000 2.045460 
# 
# From -- ./inp_files/8280.got.cif
#   From: 2010.05.17/outbox.cif.g08.bks.cpg/sg73_5_cif.got.tgz:8280.got - 2010.06.03 17:35:07.
