data_PCOD9533329
_publ_section_title
;
Structure prediction by ZEFSAII (Michael W. Deem and Ramdas Pophale) SiO2 
 PCOD9533329
Probable space group: I B C A 
;
_chemical_formula_sum "Si O2"
_cell_formula_units_Z 72
_cell_length_a 13.692421
_cell_length_b 25.670819
_cell_length_c 9.472748
_cell_angle_alpha 90.000000
_cell_angle_beta 90.000000
_cell_angle_gamma 90.000000
_cell_volume 3329.629821
_symmetry_space_group_name_H-M "I B C A "
_symmetry_group_IT_number 73
_symmetry_cell_setting 'orthorhombic'
loop_
_space_group_symop_operation_xyz
x,y,z
-x,1/2-y,z
x,-y,1/2-z
1/2-x,y,-z
-x,-y,-z
x,1/2+y,-z
-x,y,1/2+z
1/2+x,-y,z
1/2+x,1/2+y,1/2+z
1/2-x,-y,1/2+z
1/2+x,1/2-y,-z
-x,1/2+y,1/2-z
1/2-x,1/2-y,1/2-z
1/2+x,y,1/2-z
1/2-x,1/2+y,z
x,1/2-y,1/2+z
loop_
_atom_site_type_symbol
_atom_site_label
_atom_site_fract_x
_atom_site_fract_y
_atom_site_fract_z
Si Si1 0.418460 0.712086 0.443592
Si Si2 0.730671 0.355310 0.742026
Si Si3 0.250000 0.784620 0.500000
Si Si4 0.581905 0.060834 0.221323
Si Si5 0.423409 0.889167 0.084014
O O1 0.500000 0.750000 0.380962
O O2 0.349509 0.681029 0.335241
O O3 0.342549 0.747761 0.530178
O O4 0.467712 0.666605 0.536319
O O5 0.671446 0.406539 0.787821
O O6 0.816383 0.374045 0.639450
O O7 0.773113 0.321297 0.868274
O O8 0.485155 0.083467 0.294843
O O9 0.590384 0.000000 0.250000
O O10 0.581013 0.074797 0.055004
#
# Coordination Sequence:
#
# PCOD9533329 Si02
#       5
#    16  16   8  16  16
#     4  11  23  41  69  98 137 185 221 282 348 411
#     4  11  26  44  66 101 144 175 237 288 343 416
#     4  12  24  42  66 104 136 188 230 272 346 432
#     4  11  25  47  72  99 132 182 234 289 360 408
#     4  11  25  47  69 101 142 175 231 298 337 424
#
# _framework density 21.624026000000001
#
# number of rings (size 3 to 8) (size 9 to 14) (size 15 to 20)
#    0.000    0.889    2.222    4.667    9.333    1.778 
#    4.000    0.000    0.000    0.000    0.000    0.000 
#    0.000    0.000    0.000    0.000    0.000    0.000 
#
# Total GULP energy -201386.887086 kJ/mol
# GULP energy per Si atom -5594.080197 kJ/mol
# Density = 2.157481 g / cm^3
# Si number density = 21.624026 Si / 1000 Ang^3
#
#
#
# Elastic Constant Matrix: (Units=GPa)
#
#
# Indices 1 2 3 4 5 6 
#
# 1 64.8953 74.7830 21.6093 0.0001 0.0000 0.0013
# 2 74.7830 183.1182 62.3432 -0.0001 0.0000 0.0002
# 3 21.6093 62.3432 88.0382 0.0006 0.0000 0.0016
# 4 0.0001 -0.0001 0.0006 22.3836 0.0000 0.0015
# 5 0.0000 0.0000 0.0000 0.0000 27.0628 -0.0008
# 6 0.0013 0.0002 0.0016 0.0015 -0.0008 -35.3942
#
#
#
# Elastic Compliance Matrix: (Units=1/GPa)
#
#
# Indices 1 2 3 4 5 6 
#
# 1 0.029297 -0.012539 0.001689 0.000000 0.000000 0.000001
# 2 -0.012539 0.012563 -0.005818 0.000000 0.000000 -0.000001
# 3 0.001689 -0.005818 0.015064 0.000000 0.000000 0.000001
# 4 0.000000 0.000000 0.000000 0.044676 0.000000 0.000002
# 5 0.000000 0.000000 0.000000 0.000000 0.036951 -0.000001
# 6 0.000001 -0.000001 0.000001 0.000002 -0.000001 -0.028253
#
#
# Mechanical properties :
#
#
# Convention : Reuss Voigt Hill
#
# Bulk Modulus (GPa) = 42.39819 72.61363 57.50591
# Shear Modulus (GPa) = 33.00372 14.63152 23.81762
#
# Velocity S-wave (km/s) = 3.91097 2.60404 3.32240
# Velocity P-wave (km/s) = 6.32801 6.53409 6.43188
#
# Compressibility (1/GPa) = 0.02358591
#
# Stress axis : x y z
#
# Youngs Moduli (GPa) = 34.13304 79.60050 66.38167
#
# Poissons Ratio (x) = 0.99814 -0.11209
# Poissons Ratio (y) = 0.42801 0.38623
# Poissons Ratio (z) = -0.05763 0.46314
#
# Static dielectric constant tensor:
#      x y z
#    x 1.785350 0.000000 0.000000 
#    y 0.000000 1.774550 0.000000 
#    z 0.000000 0.000000 1.807330 
# 
# From -- ./inp_files/4838.got.cif
#   From: 2010.05.17/outbox.cif.g08.bks.cpg/sg73_3_cif.got.tgz:4838.got - 2010.06.03 17:35:07.
