data_PCOD9533105
_publ_section_title
;
Structure prediction by ZEFSAII (Michael W. Deem and Ramdas Pophale) SiO2 
 PCOD9533105
Probable space group: I B C A 
;
_chemical_formula_sum "Si O2"
_cell_formula_units_Z 64
_cell_length_a 19.023309
_cell_length_b 7.805601
_cell_length_c 16.252934
_cell_angle_alpha 90.000000
_cell_angle_beta 90.000000
_cell_angle_gamma 90.000000
_cell_volume 2413.371511
_symmetry_space_group_name_H-M "I B C A "
_symmetry_group_IT_number 73
_symmetry_cell_setting 'orthorhombic'
loop_
_space_group_symop_operation_xyz
x,y,z
-x,1/2-y,z
x,-y,1/2-z
1/2-x,y,-z
-x,-y,-z
x,1/2+y,-z
-x,y,1/2+z
1/2+x,-y,z
1/2+x,1/2+y,1/2+z
1/2-x,-y,1/2+z
1/2+x,1/2-y,-z
-x,1/2+y,1/2-z
1/2-x,1/2-y,1/2-z
1/2+x,y,1/2-z
1/2-x,1/2+y,z
x,1/2-y,1/2+z
loop_
_atom_site_type_symbol
_atom_site_label
_atom_site_fract_x
_atom_site_fract_y
_atom_site_fract_z
Si Si1 0.876475 0.871261 0.810851
Si Si2 0.355035 0.865016 0.337119
Si Si3 0.723825 0.033485 0.092808
Si Si4 0.006547 0.455227 0.095360
O O1 0.879833 0.704638 0.753280
O O2 0.943973 0.984150 0.839216
O O3 0.835797 0.000000 0.750000
O O4 0.828828 0.870579 0.892014
O O5 0.290589 0.996950 0.348788
O O6 0.423753 0.948182 0.377021
O O7 0.322218 0.702161 0.386809
O O8 0.750000 0.037957 0.000000
O O9 0.000000 0.250000 0.098706
O O10 0.000000 0.500000 0.000000
#
# Coordination Sequence:
#
# PCOD9533105 Si02
#       4
#    16  16  16  16
#     4  10  26  49  80 120 169 224 287 361 432 520
#     4  11  27  49  82 124 171 224 296 352 440 516
#     4  11  24  47  82 123 176 227 283 355 433 521
#     4  12  31  51  82 117 170 226 293 362 434 519
#
# _framework density 26.518919
#
# number of rings (size 3 to 8) (size 9 to 14) (size 15 to 20)
#    0.000    1.000    0.000    3.000   17.500    0.000 
#    0.000    0.000    0.000    0.000    0.000    0.000 
#    0.000    0.000    0.000    0.000    0.000    0.000 
#
# Total GULP energy -178678.185954 kJ/mol
# GULP energy per Si atom -5583.693311 kJ/mol
# Density = 2.645856 g / cm^3
# Si number density = 26.518919 Si / 1000 Ang^3
#
#
#
# Elastic Constant Matrix: (Units=GPa)
#
#
# Indices 1 2 3 4 5 6 
#
# 1 255.0779 78.5620 113.5611 0.0000 0.0000 0.0000
# 2 78.5620 148.8886 70.7499 0.0000 0.0000 0.0000
# 3 113.5611 70.7499 197.9511 0.0000 0.0000 0.0000
# 4 0.0000 0.0000 0.0000 -42.7444 0.0000 0.0000
# 5 0.0000 0.0000 0.0000 0.0000 54.6809 0.0000
# 6 0.0000 0.0000 0.0000 0.0000 0.0000 53.6255
#
#
#
# Elastic Compliance Matrix: (Units=1/GPa)
#
#
# Indices 1 2 3 4 5 6 
#
# 1 0.005610 -0.001723 -0.002602 0.000000 0.000000 0.000000
# 2 -0.001723 0.008620 -0.002092 0.000000 0.000000 0.000000
# 3 -0.002602 -0.002092 0.007292 0.000000 0.000000 0.000000
# 4 0.000000 0.000000 0.000000 -0.023395 0.000000 0.000000
# 5 0.000000 0.000000 0.000000 0.000000 0.018288 0.000000
# 6 0.000000 0.000000 0.000000 0.000000 0.000000 0.018648
#
#
# Mechanical properties :
#
#
# Convention : Reuss Voigt Hill
#
# Bulk Modulus (GPa) = 115.12256 125.29596 120.20926
# Shear Modulus (GPa) = 98.43680 35.71537 67.07608
#
# Velocity S-wave (km/s) = 6.09918 3.67384 5.03474
# Velocity P-wave (km/s) = 9.64913 8.08372 8.90091
#
# Compressibility (1/GPa) = 0.00868639
#
# Stress axis : x y z
#
# Youngs Moduli (GPa) = 178.26314 116.00942 137.13004
#
# Poissons Ratio (x) = 0.19994 0.35684
# Poissons Ratio (y) = 0.30723 0.28690
# Poissons Ratio (z) = 0.46388 0.24271
#
# Static dielectric constant tensor:
#      x y z
#    x -2.413920 0.000000 0.000000 
#    y 0.000000 1.543940 0.000000 
#    z 0.000000 0.000000 1.535910 
# 
# From -- ./inp_files/26813.got.cif
#   From: 2010.05.17/outbox.cif.g08.bks.cpg/sg73_14_cif.got.tgz:26813.got - 2010.06.03 17:35:07.
