data_PCOD9533615
_publ_section_title
;
Structure prediction by ZEFSAII (Michael W. Deem and Ramdas Pophale) SiO2 
 PCOD9533615
Probable space group: I B C A 
;
_chemical_formula_sum "Si O2"
_cell_formula_units_Z 120
_cell_length_a 17.040860
_cell_length_b 12.209859
_cell_length_c 26.360909
_cell_angle_alpha 90.000000
_cell_angle_beta 90.000000
_cell_angle_gamma 90.000000
_cell_volume 5484.822015
_symmetry_space_group_name_H-M "I B C A "
_symmetry_group_IT_number 73
_symmetry_cell_setting 'orthorhombic'
loop_
_space_group_symop_operation_xyz
x,y,z
-x,1/2-y,z
x,-y,1/2-z
1/2-x,y,-z
-x,-y,-z
x,1/2+y,-z
-x,y,1/2+z
1/2+x,-y,z
1/2+x,1/2+y,1/2+z
1/2-x,-y,1/2+z
1/2+x,1/2-y,-z
-x,1/2+y,1/2-z
1/2-x,1/2-y,1/2-z
1/2+x,y,1/2-z
1/2-x,1/2+y,z
x,1/2-y,1/2+z
loop_
_atom_site_type_symbol
_atom_site_label
_atom_site_fract_x
_atom_site_fract_y
_atom_site_fract_z
Si Si1 0.708238 0.134849 0.437441
Si Si2 0.250000 0.831744 0.000000
Si Si3 0.702733 0.864436 0.178284
Si Si4 0.883023 0.808198 0.192255
Si Si5 0.406477 0.047898 0.696041
Si Si6 0.421049 0.817992 0.199074
Si Si7 0.640238 0.514046 0.473932
Si Si8 0.548343 0.011281 0.625634
O O1 0.744028 0.251355 0.452601
O O2 0.682613 0.140820 0.380829
O O3 0.642803 0.099359 0.478943
O O4 0.781528 0.051056 0.442503
O O5 0.329635 0.901607 0.001268
O O6 0.791485 0.835999 0.190444
O O7 0.648337 0.770800 0.201583
O O8 0.677061 0.986546 0.192969
O O9 0.899064 0.678396 0.192748
O O10 0.922175 0.858342 0.242850
O O11 0.919407 0.871646 0.144577
O O12 0.460687 0.009078 0.648968
O O13 0.437187 0.000000 0.750000
O O14 0.500000 0.750000 0.187683
O O15 0.410142 0.912573 0.157290
O O16 0.569425 0.503582 0.434164
#
# Coordination Sequence:
#
# PCOD9533615 Si02
#       8
#    16   8  16  16  16  16  16  16
#     4   9  19  39  61  97 134 168 230 293 342 406
#     4   8  16  34  66  88 134 164 216 278 350 394
#     4  12  25  42  67 105 130 181 239 292 343 422
#     4  12  26  42  70  98 134 189 242 290 346 422
#     4  12  26  46  67  97 153 189 232 299 359 424
#     4  12  24  44  67  94 144 188 223 284 358 424
#     4   9  19  37  64  97 127 169 224 283 349 415
#     4  12  23  43  70 101 136 189 233 277 366 435
#
# _framework density 21.878558000000002
#
# number of rings (size 3 to 8) (size 9 to 14) (size 15 to 20)
#    0.000    1.333    4.000    3.600    1.867    2.133 
#    0.000    0.667    0.000    0.000    0.000    0.000 
#    0.000    0.000    0.000    0.000    0.000    0.000 
#
# Total GULP energy -334813.547833 kJ/mol
# GULP energy per Si atom -5580.225797 kJ/mol
# Density = 2.182876 g / cm^3
# Si number density = 21.878558 Si / 1000 Ang^3
#
#
#
# Elastic Constant Matrix: (Units=GPa)
#
#
# Indices 1 2 3 4 5 6 
#
# 1 87.2323 27.1771 13.8448 0.0000 0.0000 0.0000
# 2 27.1771 122.1368 27.6256 0.0000 0.0000 0.0000
# 3 13.8448 27.6256 128.6996 0.0000 0.0000 0.0000
# 4 0.0000 0.0000 0.0000 -9.1422 0.0000 0.0000
# 5 0.0000 0.0000 0.0000 0.0000 5.2711 0.0000
# 6 0.0000 0.0000 0.0000 0.0000 0.0000 29.0363
#
#
#
# Elastic Compliance Matrix: (Units=1/GPa)
#
#
# Indices 1 2 3 4 5 6 
#
# 1 0.012391 -0.002581 -0.000779 0.000000 0.000000 0.000000
# 2 -0.002581 0.009143 -0.001685 0.000000 0.000000 0.000000
# 3 -0.000779 -0.001685 0.008215 0.000000 0.000000 0.000000
# 4 0.000000 0.000000 0.000000 -0.109383 0.000000 0.000000
# 5 0.000000 0.000000 0.000000 0.000000 0.189713 0.000000
# 6 0.000000 0.000000 0.000000 0.000000 0.000000 0.034440
#
#
# Mechanical properties :
#
#
# Convention : Reuss Voigt Hill
#
# Bulk Modulus (GPa) = 50.86470 52.81820 51.84145
# Shear Modulus (GPa) = 31.02464 22.99447 27.00955
#
# Velocity S-wave (km/s) = 3.76977 3.24544 3.51739
# Velocity P-wave (km/s) = 6.49980 6.18367 6.34370
#
# Compressibility (1/GPa) = 0.01966000
#
# Stress axis : x y z
#
# Youngs Moduli (GPa) = 80.70113 109.37380 121.72121
#
# Poissons Ratio (x) = 0.28230 0.09482
# Poissons Ratio (y) = 0.20829 0.20509
# Poissons Ratio (z) = 0.06286 0.18428
#
# Static dielectric constant tensor:
#      x y z
#    x 1.831890 0.000000 0.000000 
#    y 0.000000 1.827970 0.000000 
#    z 0.000000 0.000000 1.695670 
# 
# From -- ./inp_files/32477.got.cif
#   From: 2010.05.17/outbox.cif.g08.bks.cpg/sg73_17_cif.got.tgz:32477.got - 2010.06.03 17:35:07.
