data_PCOD9533150
_publ_section_title
;
Structure prediction by ZEFSAII (Michael W. Deem and Ramdas Pophale) SiO2 
 PCOD9533150
Probable space group: I B C A 
;
_chemical_formula_sum "Si O2"
_cell_formula_units_Z 112
_cell_length_a 30.242306
_cell_length_b 11.436322
_cell_length_c 15.856609
_cell_angle_alpha 90.000000
_cell_angle_beta 90.000000
_cell_angle_gamma 90.000000
_cell_volume 5484.178672
_symmetry_space_group_name_H-M "I B C A "
_symmetry_group_IT_number 73
_symmetry_cell_setting 'orthorhombic'
loop_
_space_group_symop_operation_xyz
x,y,z
-x,1/2-y,z
x,-y,1/2-z
1/2-x,y,-z
-x,-y,-z
x,1/2+y,-z
-x,y,1/2+z
1/2+x,-y,z
1/2+x,1/2+y,1/2+z
1/2-x,-y,1/2+z
1/2+x,1/2-y,-z
-x,1/2+y,1/2-z
1/2-x,1/2-y,1/2-z
1/2+x,y,1/2-z
1/2-x,1/2+y,z
x,1/2-y,1/2+z
loop_
_atom_site_type_symbol
_atom_site_label
_atom_site_fract_x
_atom_site_fract_y
_atom_site_fract_z
Si Si1 0.843667 0.611724 0.449213
Si Si2 0.500000 0.750000 0.714797
Si Si3 0.876189 0.026794 0.374538
Si Si4 0.456002 0.500000 0.750000
Si Si5 0.279232 0.052774 0.652263
Si Si6 0.411816 0.375359 0.295335
Si Si7 0.165612 0.258896 0.286610
Si Si8 0.191126 0.168762 0.611659
O O1 0.870340 0.579863 0.532795
O O2 0.806637 0.524857 0.413192
O O3 0.879838 0.611547 0.374829
O O4 0.817390 0.734128 0.458306
O O5 0.482486 0.624119 0.753234
O O6 0.545303 0.697965 0.676604
O O7 0.845675 0.112197 0.318003
O O8 0.923413 0.009694 0.330961
O O9 0.854154 0.901299 0.381022
O O10 0.305459 0.175051 0.656187
O O11 0.231392 0.079772 0.613400
O O12 0.277953 0.000000 0.750000
O O13 0.421393 0.500000 0.250000
O O14 0.381867 0.301554 0.229802
O O15 0.193508 0.263775 0.200460
#
# Coordination Sequence:
#
# PCOD9533150 Si02
#       8
#    16   8  16   8  16  16  16  16
#     4  11  26  43  64  97 138 184 220 277 340 408
#     4  12  24  42  80 104 132 160 236 292 338 436
#     4  12  25  45  68  94 140 185 224 276 342 405
#     4  12  24  48  74 108 128 182 224 284 358 420
#     4  12  22  40  68  99 133 183 234 285 331 389
#     4  11  20  43  70  98 130 172 222 269 345 422
#     4  11  20  41  69  92 131 182 227 272 332 403
#     4  11  24  41  64  98 131 177 239 278 325 391
#
# _framework density 20.422383
#
# number of rings (size 3 to 8) (size 9 to 14) (size 15 to 20)
#    0.000    0.571    7.857    2.143    4.000    0.571 
#    0.000    1.429    0.000    0.000    0.000    0.000 
#    0.000    0.000    0.000    0.000    0.000    0.000 
#
# Total GULP energy -312100.038288 kJ/mol
# GULP energy per Si atom -5573.214969 kJ/mol
# Density = 2.037590 g / cm^3
# Si number density = 20.422383 Si / 1000 Ang^3
#
#
#
# Elastic Constant Matrix: (Units=GPa)
#
#
# Indices 1 2 3 4 5 6 
#
# 1 115.7963 30.5246 20.7883 0.0000 0.0000 0.0000
# 2 30.5246 99.7419 20.0068 0.0000 0.0000 0.0000
# 3 20.7883 20.0068 73.2520 0.0000 0.0000 0.0000
# 4 0.0000 0.0000 0.0000 -2.4268 0.0000 0.0000
# 5 0.0000 0.0000 0.0000 0.0000 -3.2788 0.0000
# 6 0.0000 0.0000 0.0000 0.0000 0.0000 29.5777
#
#
#
# Elastic Compliance Matrix: (Units=1/GPa)
#
#
# Indices 1 2 3 4 5 6 
#
# 1 0.009676 -0.002550 -0.002049 0.000000 0.000000 0.000000
# 2 -0.002550 0.011279 -0.002357 0.000000 0.000000 0.000000
# 3 -0.002049 -0.002357 0.014877 0.000000 0.000000 0.000000
# 4 0.000000 0.000000 0.000000 -0.412065 0.000000 0.000000
# 5 0.000000 0.000000 0.000000 0.000000 -0.304994 0.000000
# 6 0.000000 0.000000 0.000000 0.000000 0.000000 0.033809
#
#
# Mechanical properties :
#
#
# Convention : Reuss Voigt Hill
#
# Bulk Modulus (GPa) = 45.62251 47.93660 46.77956
# Shear Modulus (GPa) = -7.98469 19.27246 5.64388
#
# Velocity S-wave (km/s) = -1.97946 3.07529 1.66420
# Velocity P-wave (km/s) = 4.14290 6.01111 5.16222
#
# Compressibility (1/GPa) = 0.02191901
#
# Stress axis : x y z
#
# Youngs Moduli (GPa) = 103.34838 88.65988 67.21854
#
# Poissons Ratio (x) = 0.22609 0.13776
# Poissons Ratio (y) = 0.26355 0.15843
# Poissons Ratio (z) = 0.21181 0.20896
#
# Static dielectric constant tensor:
#      x y z
#    x 1.716760 0.000000 0.000000 
#    y 0.000000 1.791880 0.000000 
#    z 0.000000 0.000000 1.852230 
# 
# From -- ./inp_files/20078.got.cif
#   From: 2010.05.17/outbox.cif.g08.bks.cpg/sg73_11_cif.got.tgz:20078.got - 2010.06.03 17:35:07.
