data_PCOD9533448
_publ_section_title
;
Structure prediction by ZEFSAII (Michael W. Deem and Ramdas Pophale) SiO2 
 PCOD9533448
Probable space group: I B C A 
;
_chemical_formula_sum "Si O2"
_cell_formula_units_Z 120
_cell_length_a 8.465643
_cell_length_b 25.817631
_cell_length_c 23.329493
_cell_angle_alpha 90.000000
_cell_angle_beta 90.000000
_cell_angle_gamma 90.000000
_cell_volume 5098.960413
_symmetry_space_group_name_H-M "I B C A "
_symmetry_group_IT_number 73
_symmetry_cell_setting 'orthorhombic'
loop_
_space_group_symop_operation_xyz
x,y,z
-x,1/2-y,z
x,-y,1/2-z
1/2-x,y,-z
-x,-y,-z
x,1/2+y,-z
-x,y,1/2+z
1/2+x,-y,z
1/2+x,1/2+y,1/2+z
1/2-x,-y,1/2+z
1/2+x,1/2-y,-z
-x,1/2+y,1/2-z
1/2-x,1/2-y,1/2-z
1/2+x,y,1/2-z
1/2-x,1/2+y,z
x,1/2-y,1/2+z
loop_
_atom_site_type_symbol
_atom_site_label
_atom_site_fract_x
_atom_site_fract_y
_atom_site_fract_z
Si Si1 0.154700 0.591397 0.440552
Si Si2 0.164720 0.278111 0.365348
Si Si3 0.744560 0.386453 0.314213
Si Si4 0.432590 0.486673 0.187152
Si Si5 0.708355 0.869992 0.058780
Si Si6 0.978474 0.327082 0.757508
Si Si7 0.701195 0.526966 0.396722
Si Si8 0.500000 0.250000 0.843703
O O1 0.250000 0.601115 0.500000
O O2 0.219979 0.617078 0.382134
O O3 0.173094 0.528815 0.427199
O O4 0.976666 0.614436 0.442012
O O5 0.215623 0.333260 0.392995
O O6 0.128531 0.291336 0.298456
O O7 0.328905 0.246039 0.373876
O O8 0.000000 0.250000 0.385391
O O9 0.796455 0.444976 0.304547
O O10 0.605605 0.376952 0.269113
O O11 0.875485 0.345270 0.295100
O O12 0.487773 0.500000 0.250000
O O13 0.565849 0.461872 0.148685
O O14 0.357916 0.528463 0.143445
O O15 0.795362 0.925373 0.060738
O O16 0.750000 0.841865 0.000000
O O17 0.018468 0.297686 0.699336
#
# Coordination Sequence:
#
# PCOD9533448 Si02
#       8
#    16  16  16  16  16  16  16   8
#     4  11  27  50  74 114 161 213 274 328 390 475
#     4  12  27  49  80 114 156 199 266 340 416 485
#     4  11  27  41  71 106 152 199 251 321 384 477
#     4  11  25  39  62 106 154 208 243 309 388 465
#     4  12  29  51  79 111 150 209 273 336 403 480
#     4  12  23  45  75 109 146 193 254 318 405 485
#     4  11  24  45  74 105 156 207 263 320 386 472
#     4  12  24  48  76 114 148 196 244 340 406 496
#
# _framework density 23.534208
#
# number of rings (size 3 to 8) (size 9 to 14) (size 15 to 20)
#    0.000    0.533    3.333    3.600   13.067    1.067 
#    1.200    0.000    0.000    0.000    0.000    0.000 
#    0.000    0.000    0.000    0.000    0.000    0.000 
#
# Total GULP energy -335015.240014 kJ/mol
# GULP energy per Si atom -5583.587334 kJ/mol
# Density = 2.348064 g / cm^3
# Si number density = 23.534208 Si / 1000 Ang^3
#
#
#
# Elastic Constant Matrix: (Units=GPa)
#
#
# Indices 1 2 3 4 5 6 
#
# 1 137.8830 38.8137 55.1446 0.0000 0.0000 0.0000
# 2 38.8137 76.7361 25.4709 0.0000 0.0000 0.0000
# 3 55.1446 25.4709 90.3419 0.0000 0.0000 0.0000
# 4 0.0000 0.0000 0.0000 22.9311 0.0000 0.0000
# 5 0.0000 0.0000 0.0000 0.0000 39.1593 0.0000
# 6 0.0000 0.0000 0.0000 0.0000 0.0000 38.3959
#
#
#
# Elastic Compliance Matrix: (Units=1/GPa)
#
#
# Indices 1 2 3 4 5 6 
#
# 1 0.010369 -0.003469 -0.005351 0.000000 0.000000 0.000000
# 2 -0.003469 0.015537 -0.002263 0.000000 0.000000 0.000000
# 3 -0.005351 -0.002263 0.014974 0.000000 0.000000 0.000000
# 4 0.000000 0.000000 0.000000 0.043609 0.000000 0.000000
# 5 0.000000 0.000000 0.000000 0.000000 0.025537 0.000000
# 6 0.000000 0.000000 0.000000 0.000000 0.000000 0.026044
#
#
# Mechanical properties :
#
#
# Convention : Reuss Voigt Hill
#
# Bulk Modulus (GPa) = 53.43722 60.42438 56.93080
# Shear Modulus (GPa) = 30.39982 32.46606 31.43294
#
# Velocity S-wave (km/s) = 3.59796 3.71823 3.65859
# Velocity P-wave (km/s) = 6.32581 6.64564 6.48770
#
# Compressibility (1/GPa) = 0.01871355
#
# Stress axis : x y z
#
# Youngs Moduli (GPa) = 96.44010 64.36100 66.78372
#
# Poissons Ratio (x) = 0.22324 0.35739
# Poissons Ratio (y) = 0.33450 0.15116
# Poissons Ratio (z) = 0.51609 0.14568
#
# Static dielectric constant tensor:
#      x y z
#    x 2.055120 0.000000 0.000000 
#    y 0.000000 1.979120 0.000000 
#    z 0.000000 0.000000 1.832380 
# 
# From -- ./inp_files/28542.got.cif
#   From: 2010.05.17/outbox.cif.g08.bks.cpg/sg73_15_cif.got.tgz:28542.got - 2010.06.03 17:35:07.
