data_PCOD9533454
_publ_section_title
;
Structure prediction by ZEFSAII (Michael W. Deem and Ramdas Pophale) SiO2 
 PCOD9533454
Probable space group: I B C A 
;
_chemical_formula_sum "Si O2"
_cell_formula_units_Z 88
_cell_length_a 12.902123
_cell_length_b 13.008308
_cell_length_c 24.605663
_cell_angle_alpha 90.000000
_cell_angle_beta 90.000000
_cell_angle_gamma 90.000000
_cell_volume 4129.686278
_symmetry_space_group_name_H-M "I B C A "
_symmetry_group_IT_number 73
_symmetry_cell_setting 'orthorhombic'
loop_
_space_group_symop_operation_xyz
x,y,z
-x,1/2-y,z
x,-y,1/2-z
1/2-x,y,-z
-x,-y,-z
x,1/2+y,-z
-x,y,1/2+z
1/2+x,-y,z
1/2+x,1/2+y,1/2+z
1/2-x,-y,1/2+z
1/2+x,1/2-y,-z
-x,1/2+y,1/2-z
1/2-x,1/2-y,1/2-z
1/2+x,y,1/2-z
1/2-x,1/2+y,z
x,1/2-y,1/2+z
loop_
_atom_site_type_symbol
_atom_site_label
_atom_site_fract_x
_atom_site_fract_y
_atom_site_fract_z
Si Si1 0.506893 0.526098 0.332113
Si Si2 0.657450 0.650196 0.701845
Si Si3 0.377726 0.220591 0.914168
Si Si4 0.250000 0.855439 0.000000
Si Si5 0.576154 0.496393 0.550295
Si Si6 0.000000 0.250000 0.279040
Si Si7 0.319915 0.000000 0.250000
O O1 0.416440 0.448937 0.311669
O O2 0.492190 0.528133 0.396467
O O3 0.504951 0.644149 0.312409
O O4 0.608280 0.480341 0.302781
O O5 0.676170 0.707398 0.644663
O O6 0.596808 0.728573 0.740004
O O7 0.751144 0.597265 0.733256
O O8 0.500000 0.250000 0.906067
O O9 0.376854 0.108076 0.939978
O O10 0.319355 0.293155 0.956495
O O11 0.330624 0.920298 0.963773
O O12 0.500000 0.500000 0.500000
#
# Coordination Sequence:
#
# PCOD9533454 Si02
#       7
#    16  16  16   8  16   8   8
#     4  11  26  45  69 108 150 184 245 311 364 441
#     4  11  24  46  68 103 149 196 239 300 383 445
#     4  11  24  47  77 106 150 199 252 313 379 459
#     4  12  26  50  80 112 144 206 262 302 396 446
#     4  11  26  49  76 107 155 191 245 327 371 443
#     4  12  20  46  70 100 152 186 238 304 366 448
#     4  12  22  46  72 104 152 192 244 306 368 456
#
# _framework density 21.309125000000002
#
# number of rings (size 3 to 8) (size 9 to 14) (size 15 to 20)
#    0.000    0.727    6.364    0.545    0.000    8.000 
#    6.545    0.000    0.000    0.000    0.000    0.000 
#    0.000    0.000    0.000    0.000    0.000    0.000 
#
# Total GULP energy -245967.808407 kJ/mol
# GULP energy per Si atom -5590.177464 kJ/mol
# Density = 2.126062 g / cm^3
# Si number density = 21.309125 Si / 1000 Ang^3
#
#
#
# Elastic Constant Matrix: (Units=GPa)
#
#
# Indices 1 2 3 4 5 6 
#
# 1 111.0673 45.1766 82.8190 0.0000 0.0000 0.0000
# 2 45.1766 129.2121 74.2847 0.0000 0.0000 0.0000
# 3 82.8190 74.2847 184.4081 0.0000 0.0000 0.0000
# 4 0.0000 0.0000 0.0000 37.0876 0.0000 0.0000
# 5 0.0000 0.0000 0.0000 0.0000 88.3596 0.0000
# 6 0.0000 0.0000 0.0000 0.0000 0.0000 50.1980
#
#
#
# Elastic Compliance Matrix: (Units=1/GPa)
#
#
# Indices 1 2 3 4 5 6 
#
# 1 0.013799 -0.001642 -0.005536 0.000000 0.000000 0.000000
# 2 -0.001642 0.010267 -0.003398 0.000000 0.000000 0.000000
# 3 -0.005536 -0.003398 0.009278 0.000000 0.000000 0.000000
# 4 0.000000 0.000000 0.000000 0.026963 0.000000 0.000000
# 5 0.000000 0.000000 0.000000 0.000000 0.011317 0.000000
# 6 0.000000 0.000000 0.000000 0.000000 0.000000 0.019921
#
#
# Mechanical properties :
#
#
# Convention : Reuss Voigt Hill
#
# Bulk Modulus (GPa) = 82.02345 92.13866 87.08106
# Shear Modulus (GPa) = 42.82182 49.95619 46.38901
#
# Velocity S-wave (km/s) = 4.48767 4.84711 4.67085
# Velocity P-wave (km/s) = 8.08875 8.64054 8.36919
#
# Compressibility (1/GPa) = 0.01219164
#
# Stress axis : x y z
#
# Youngs Moduli (GPa) = 72.46682 97.39856 107.78228
#
# Poissons Ratio (x) = 0.15993 0.59668
# Poissons Ratio (y) = 0.11900 0.36629
# Poissons Ratio (z) = 0.40117 0.33100
#
# Static dielectric constant tensor:
#      x y z
#    x 1.731340 0.000000 0.000000 
#    y 0.000000 1.783370 0.000000 
#    z 0.000000 0.000000 1.881530 
# 
# From -- ./inp_files/31727.got.cif
#   From: 2010.05.17/outbox.cif.g08.bks.cpg/sg73_16_cif.got.tgz:31727.got - 2010.06.03 17:35:07.
