data_PCOD9533430
_publ_section_title
;
Structure prediction by ZEFSAII (Michael W. Deem and Ramdas Pophale) SiO2 
 PCOD9533430
Probable space group: I B C A 
;
_chemical_formula_sum "Si O2"
_cell_formula_units_Z 64
_cell_length_a 11.851548
_cell_length_b 9.406996
_cell_length_c 25.238590
_cell_angle_alpha 90.000000
_cell_angle_beta 90.000000
_cell_angle_gamma 90.000000
_cell_volume 2813.786410
_symmetry_space_group_name_H-M "I B C A "
_symmetry_group_IT_number 73
_symmetry_cell_setting 'orthorhombic'
loop_
_space_group_symop_operation_xyz
x,y,z
-x,1/2-y,z
x,-y,1/2-z
1/2-x,y,-z
-x,-y,-z
x,1/2+y,-z
-x,y,1/2+z
1/2+x,-y,z
1/2+x,1/2+y,1/2+z
1/2-x,-y,1/2+z
1/2+x,1/2-y,-z
-x,1/2+y,1/2-z
1/2-x,1/2-y,1/2-z
1/2+x,y,1/2-z
1/2-x,1/2+y,z
x,1/2-y,1/2+z
loop_
_atom_site_type_symbol
_atom_site_label
_atom_site_fract_x
_atom_site_fract_y
_atom_site_fract_z
Si Si1 0.207017 0.672180 0.582293
Si Si2 0.689355 0.420813 0.847468
Si Si3 0.500000 0.750000 0.714743
Si Si4 0.075264 0.869911 0.979662
Si Si5 0.347261 0.000000 0.250000
O O1 0.243653 0.807160 0.616467
O O2 0.148077 0.552691 0.617533
O O3 0.320579 0.598070 0.558748
O O4 0.130783 0.704109 0.531463
O O5 0.586207 0.340562 0.820345
O O6 0.769473 0.485663 0.801830
O O7 0.425011 0.639256 0.747486
O O8 0.000000 0.750000 0.952231
O O9 0.000000 0.000000 0.000000
#
# Coordination Sequence:
#
# PCOD9533430 Si02
#       5
#    16  16   8  16   8
#     4  11  26  43  70 104 142 186 238 293 350 430
#     4  12  26  48  70 106 146 186 241 297 354 431
#     4  12  28  46  76 102 142 190 240 288 378 422
#     4  11  24  44  69 101 143 185 234 292 357 420
#     4  12  28  50  72 106 146 186 240 312 348 432
#
# _framework density 22.745152999999998
#
# number of rings (size 3 to 8) (size 9 to 14) (size 15 to 20)
#    0.000    0.500    2.500    4.500    8.750    6.000 
#    0.000    0.000    0.000    0.000    0.000    0.000 
#    0.000    0.000    0.000    0.000    0.000    0.000 
#
# Total GULP energy -179242.431808 kJ/mol
# GULP energy per Si atom -5601.325994 kJ/mol
# Density = 2.269338 g / cm^3
# Si number density = 22.745153 Si / 1000 Ang^3
#
#
#
# Elastic Constant Matrix: (Units=GPa)
#
#
# Indices 1 2 3 4 5 6 
#
# 1 73.2091 -1.1844 -2.0758 0.0000 0.0000 0.0000
# 2 -1.1844 60.1894 -2.4333 0.0000 0.0000 0.0000
# 3 -2.0758 -2.4333 65.5829 0.0000 0.0000 0.0000
# 4 0.0000 0.0000 0.0000 60.5176 0.0000 0.0000
# 5 0.0000 0.0000 0.0000 0.0000 6.7488 0.0000
# 6 0.0000 0.0000 0.0000 0.0000 0.0000 49.1652
#
#
#
# Elastic Compliance Matrix: (Units=1/GPa)
#
#
# Indices 1 2 3 4 5 6 
#
# 1 0.013677 0.000287 0.000444 0.000000 0.000000 0.000000
# 2 0.000287 0.016645 0.000627 0.000000 0.000000 0.000000
# 3 0.000444 0.000627 0.015285 0.000000 0.000000 0.000000
# 4 0.000000 0.000000 0.000000 0.016524 0.000000 0.000000
# 5 0.000000 0.000000 0.000000 0.000000 0.148173 0.000000
# 6 0.000000 0.000000 0.000000 0.000000 0.000000 0.020340
#
#
# Mechanical properties :
#
#
# Convention : Reuss Voigt Hill
#
# Bulk Modulus (GPa) = 20.69466 20.84382 20.76924
# Shear Modulus (GPa) = 20.48870 36.93133 28.71002
#
# Velocity S-wave (km/s) = 3.00458 4.03389 3.55667
# Velocity P-wave (km/s) = 4.59945 5.55701 5.10075
#
# Compressibility (1/GPa) = 0.04832164
#
# Stress axis : x y z
#
# Youngs Moduli (GPa) = 73.11694 60.07741 65.42286
#
# Poissons Ratio (x) = -0.01725 -0.02902
# Poissons Ratio (y) = -0.02099 -0.04100
# Poissons Ratio (z) = -0.03243 -0.03765
#
# Static dielectric constant tensor:
#      x y z
#    x 1.856350 0.000000 0.000000 
#    y 0.000000 1.741520 0.000000 
#    z 0.000000 0.000000 1.821680 
# 
# From -- ./inp_files/4043.got.cif
#   From: 2010.05.17/outbox.cif.g08.bks.cpg/sg73_3_cif.got.tgz:4043.got - 2010.06.03 17:35:07.
