data_PCOD9533058
_publ_section_title
;
Structure prediction by ZEFSAII (Michael W. Deem and Ramdas Pophale) SiO2 
 PCOD9533058
Probable space group: I B C A 
;
_chemical_formula_sum "Si O2"
_cell_formula_units_Z 112
_cell_length_a 12.269762
_cell_length_b 26.429666
_cell_length_c 13.487723
_cell_angle_alpha 90.000000
_cell_angle_beta 90.000000
_cell_angle_gamma 90.000000
_cell_volume 4373.875850
_symmetry_space_group_name_H-M "I B C A "
_symmetry_group_IT_number 73
_symmetry_cell_setting 'orthorhombic'
loop_
_space_group_symop_operation_xyz
x,y,z
-x,1/2-y,z
x,-y,1/2-z
1/2-x,y,-z
-x,-y,-z
x,1/2+y,-z
-x,y,1/2+z
1/2+x,-y,z
1/2+x,1/2+y,1/2+z
1/2-x,-y,1/2+z
1/2+x,1/2-y,-z
-x,1/2+y,1/2-z
1/2-x,1/2-y,1/2-z
1/2+x,y,1/2-z
1/2-x,1/2+y,z
x,1/2-y,1/2+z
loop_
_atom_site_type_symbol
_atom_site_label
_atom_site_fract_x
_atom_site_fract_y
_atom_site_fract_z
Si Si1 0.375458 0.992539 0.419206
Si Si2 0.603061 0.281413 0.676125
Si Si3 0.333958 0.612158 0.584570
Si Si4 0.101797 0.025725 0.148940
Si Si5 0.247815 0.595186 0.196550
Si Si6 0.990238 0.690226 0.478486
Si Si7 0.768468 0.194102 0.624579
O O1 0.367256 0.973508 0.531717
O O2 0.305022 0.955933 0.349159
O O3 0.357463 0.052775 0.433834
O O4 0.491375 0.994030 0.365316
O O5 0.500000 0.250000 0.716435
O O6 0.544372 0.313470 0.588957
O O7 0.693436 0.244060 0.625643
O O8 0.664310 0.303853 0.770541
O O9 0.250000 0.629523 0.500000
O O10 0.279300 0.607541 0.691342
O O11 0.435494 0.650610 0.582304
O O12 0.123712 0.083880 0.179254
O O13 0.147195 0.000000 0.250000
O O14 0.203005 0.642193 0.135895
O O15 0.861497 0.685033 0.457259
O O16 0.000000 0.750000 0.453281
#
# Coordination Sequence:
#
# PCOD9533058 Si02
#       7
#    16  16  16  16  16  16  16
#     4  11  25  47  73 108 157 205 266 332 405 499
#     4  10  25  51  79 113 160 215 275 345 423 506
#     4  12  25  44  78 112 156 215 272 335 418 500
#     4  11  23  45  72 104 154 202 261 330 404 480
#     4  12  25  45  75 115 154 209 268 338 410 496
#     4  11  27  48  77 115 156 203 275 341 417 495
#     4  11  26  48  80 112 163 208 269 347 420 501
#
# _framework density 25.606577999999999
#
# number of rings (size 3 to 8) (size 9 to 14) (size 15 to 20)
#    0.000    0.857    0.000    6.429    8.000    1.714 
#   20.571    0.000    0.000    0.000    0.000    0.000 
#    0.000    0.000    0.000    0.000    0.000    0.000 
#
# Total GULP energy -312204.159225 kJ/mol
# GULP energy per Si atom -5575.074272 kJ/mol
# Density = 2.554830 g / cm^3
# Si number density = 25.606578 Si / 1000 Ang^3
#
#
#
# Elastic Constant Matrix: (Units=GPa)
#
#
# Indices 1 2 3 4 5 6 
#
# 1 104.1920 25.8959 63.4009 -0.0002 -0.0001 0.0000
# 2 25.8959 78.6301 38.3664 -0.0002 0.0000 -0.0001
# 3 63.4009 38.3664 186.3567 -0.0009 0.0002 0.0000
# 4 -0.0002 -0.0002 -0.0009 15.5986 0.0001 0.0000
# 5 -0.0001 0.0000 0.0002 0.0001 24.7066 -0.0001
# 6 0.0000 -0.0001 0.0000 0.0000 -0.0001 26.5950
#
#
#
# Elastic Compliance Matrix: (Units=1/GPa)
#
#
# Indices 1 2 3 4 5 6 
#
# 1 0.012455 -0.002262 -0.003772 0.000000 0.000000 0.000000
# 2 -0.002262 0.014549 -0.002226 0.000000 0.000000 0.000000
# 3 -0.003772 -0.002226 0.007107 0.000000 0.000000 0.000000
# 4 0.000000 0.000000 0.000000 0.064108 0.000000 0.000000
# 5 0.000000 0.000000 0.000000 0.000000 0.040475 0.000000
# 6 0.000000 0.000000 0.000000 0.000000 0.000000 0.037601
#
#
# Mechanical properties :
#
#
# Convention : Reuss Voigt Hill
#
# Bulk Modulus (GPa) = 56.84121 69.38948 63.11535
# Shear Modulus (GPa) = 25.16639 29.48107 27.32373
#
# Velocity S-wave (km/s) = 3.13838 3.39677 3.27013
# Velocity P-wave (km/s) = 5.94800 6.52236 6.24179
#
# Compressibility (1/GPa) = 0.01759287
#
# Stress axis : x y z
#
# Youngs Moduli (GPa) = 80.29020 68.73501 140.69687
#
# Poissons Ratio (x) = 0.15544 0.53067
# Poissons Ratio (y) = 0.18158 0.31317
# Poissons Ratio (z) = 0.30283 0.15299
#
# Static dielectric constant tensor:
#      x y z
#    x 2.254900 0.000000 0.000000 
#    y 0.000000 2.098400 0.000000 
#    z 0.000000 0.000000 1.934820 
# 
# From -- ./inp_files/17395.got.cif
#   From: 2010.05.17/outbox.cif.g08.bks.cpg/sg73_9_cif.got.tgz:17395.got - 2010.06.03 17:35:07.
