data_PCOD9533111
_publ_section_title
;
Structure prediction by ZEFSAII (Michael W. Deem and Ramdas Pophale) SiO2 
 PCOD9533111
Probable space group: I B C A 
;
_chemical_formula_sum "Si O2"
_cell_formula_units_Z 120
_cell_length_a 21.639114
_cell_length_b 9.521798
_cell_length_c 26.170666
_cell_angle_alpha 90.000000
_cell_angle_beta 90.000000
_cell_angle_gamma 90.000000
_cell_volume 5392.289664
_symmetry_space_group_name_H-M "I B C A "
_symmetry_group_IT_number 73
_symmetry_cell_setting 'orthorhombic'
loop_
_space_group_symop_operation_xyz
x,y,z
-x,1/2-y,z
x,-y,1/2-z
1/2-x,y,-z
-x,-y,-z
x,1/2+y,-z
-x,y,1/2+z
1/2+x,-y,z
1/2+x,1/2+y,1/2+z
1/2-x,-y,1/2+z
1/2+x,1/2-y,-z
-x,1/2+y,1/2-z
1/2-x,1/2-y,1/2-z
1/2+x,y,1/2-z
1/2-x,1/2+y,z
x,1/2-y,1/2+z
loop_
_atom_site_type_symbol
_atom_site_label
_atom_site_fract_x
_atom_site_fract_y
_atom_site_fract_z
Si Si1 0.712609 0.182459 0.050123
Si Si2 0.333819 0.305273 0.893225
Si Si3 0.726494 0.000000 0.250000
Si Si4 0.884176 0.428849 0.955681
Si Si5 0.606624 0.024718 0.428148
Si Si6 0.534684 0.892314 0.712530
Si Si7 0.165387 0.211954 0.727855
Si Si8 0.987013 0.600330 0.625318
O O1 0.765066 0.234254 0.088286
O O2 0.666797 0.308402 0.035341
O O3 0.670111 0.064090 0.075641
O O4 0.750000 0.131711 0.000000
O O5 0.353531 0.444382 0.923914
O O6 0.379929 0.181202 0.908968
O O7 0.330167 0.319331 0.832762
O O8 0.781843 0.120527 0.254716
O O9 0.675154 0.123018 0.262725
O O10 0.940319 0.372755 0.921581
O O11 0.907077 0.476839 0.011240
O O12 0.551130 0.959540 0.396291
O O13 0.500000 0.750000 0.699487
O O14 0.597282 0.844271 0.740835
O O15 0.499787 0.000000 0.750000
O O16 0.543193 0.983836 0.661567
O O17 0.000000 0.750000 0.651478
#
# Coordination Sequence:
#
# PCOD9533111 Si02
#       8
#    16  16   8  16  16  16  16  16
#     4  12  24  43  68  99 147 190 241 288 349 426
#     4  12  26  40  71 106 141 186 240 294 360 429
#     4  10  26  50  78 106 148 184 240 304 388 452
#     4  12  24  45  68  99 145 192 241 297 349 423
#     4  12  25  45  68 102 143 194 239 297 354 427
#     4  12  27  52  79 108 143 187 243 313 376 440
#     4  11  25  50  74 110 143 189 238 306 374 444
#     4  12  27  49  70 104 141 190 247 295 364 439
#
# _framework density 22.253996999999998
#
# number of rings (size 3 to 8) (size 9 to 14) (size 15 to 20)
#    0.000    0.267    6.000    2.400    4.667    0.000 
#    2.400    0.000    0.000    0.000    0.000    0.000 
#    0.000    0.000    0.000    0.000    0.000    0.000 
#
# Total GULP energy -334685.914594 kJ/mol
# GULP energy per Si atom -5578.098577 kJ/mol
# Density = 2.220335 g / cm^3
# Si number density = 22.253997 Si / 1000 Ang^3
#
#
#
# Elastic Constant Matrix: (Units=GPa)
#
#
# Indices 1 2 3 4 5 6 
#
# 1 94.9165 32.1313 6.1197 0.0000 0.0000 0.0000
# 2 32.1313 89.4133 -7.9733 0.0000 0.0000 0.0000
# 3 6.1197 -7.9733 138.9544 0.0000 0.0000 0.0000
# 4 0.0000 0.0000 0.0000 27.7576 0.0000 0.0000
# 5 0.0000 0.0000 0.0000 0.0000 6.8136 0.0000
# 6 0.0000 0.0000 0.0000 0.0000 0.0000 51.1585
#
#
#
# Elastic Compliance Matrix: (Units=1/GPa)
#
#
# Indices 1 2 3 4 5 6 
#
# 1 0.012079 -0.004411 -0.000785 0.000000 0.000000 0.000000
# 2 -0.004411 0.012852 0.000932 0.000000 0.000000 0.000000
# 3 -0.000785 0.000932 0.007285 0.000000 0.000000 0.000000
# 4 0.000000 0.000000 0.000000 0.036026 0.000000 0.000000
# 5 0.000000 0.000000 0.000000 0.000000 0.146766 0.000000
# 6 0.000000 0.000000 0.000000 0.000000 0.000000 0.019547
#
#
# Mechanical properties :
#
#
# Convention : Reuss Voigt Hill
#
# Bulk Modulus (GPa) = 42.21580 42.64884 42.43232
# Shear Modulus (GPa) = 19.92192 36.67969 28.30080
#
# Velocity S-wave (km/s) = 2.99525 4.06424 3.56998
# Velocity P-wave (km/s) = 5.56535 6.42108 6.00847
#
# Compressibility (1/GPa) = 0.02368782
#
# Stress axis : x y z
#
# Youngs Moduli (GPa) = 82.78588 77.80793 137.27511
#
# Poissons Ratio (x) = 0.34320 0.10777
# Poissons Ratio (y) = 0.36515 -0.12790
# Poissons Ratio (z) = 0.06499 -0.07250
#
# Static dielectric constant tensor:
#      x y z
#    x 1.837400 0.000000 0.000000 
#    y 0.000000 1.835600 0.000000 
#    z 0.000000 0.000000 1.881440 
# 
# From -- ./inp_files/32892.got.cif
#   From: 2010.05.17/outbox.cif.g08.bks.cpg/sg73_17_cif.got.tgz:32892.got - 2010.06.03 17:35:07.
