data_PCOD9533812
_publ_section_title
;
Structure prediction by ZEFSAII (Michael W. Deem and Ramdas Pophale) SiO2 
 PCOD9533812
Probable space group: I M M A
;
_chemical_formula_sum "Si O2"
_cell_formula_units_Z 68
_cell_length_a 23.380007
_cell_length_b 18.562425
_cell_length_c 8.812223
_cell_angle_alpha 90.000000
_cell_angle_beta 90.000000
_cell_angle_gamma 90.000000
_cell_volume 3824.413368
_symmetry_space_group_name_H-M "I M M A"
_symmetry_group_IT_number 74
_symmetry_cell_setting 'orthorhombic'
loop_
_space_group_symop_operation_xyz
x,y,z
-x,1/2-y,z
x,-y,-z
-x,1/2+y,-z
-x,-y,-z
x,1/2+y,-z
-x,y,z
x,1/2-y,z
1/2+x,1/2+y,1/2+z
1/2-x,-y,1/2+z
1/2+x,1/2-y,1/2-z
1/2-x,y,1/2-z
1/2-x,1/2-y,1/2-z
1/2+x,y,1/2-z
1/2-x,1/2+y,1/2+z
1/2+x,-y,1/2+z
loop_
_atom_site_type_symbol
_atom_site_label
_atom_site_fract_x
_atom_site_fract_y
_atom_site_fract_z
Si Si1 0.500000 0.834260 0.281259
Si Si2 0.881066 0.164695 0.949271
Si Si3 0.500000 0.915671 0.965846
Si Si4 0.189449 0.465034 0.831602
Si Si5 0.500000 0.000000 0.500000
Si Si6 0.906337 0.071513 0.226323
O O1 0.500000 0.750000 0.248359
O O2 0.555703 0.850723 0.381029
O O3 0.500000 0.876213 0.125447
O O4 0.870200 0.250000 0.938299
O O5 0.837680 0.113862 0.857784
O O6 0.883086 0.136525 0.122024
O O7 0.556800 0.900465 0.867445
O O8 0.500000 0.000000 0.000000
O O9 0.250000 0.462195 0.750000
O O10 0.145190 0.516416 0.740772
O O11 0.194135 0.500000 0.000000
O O12 0.549743 0.972998 0.620528
#
# Coordination Sequence:
#
# PCOD9533812 Si02
#       6
#     8  16   8  16   4  16
#     4  10  21  34  50  80 115 138 170 225 283 330
#     4  10  20  36  58  78 103 146 188 223 268 328
#     4  11  22  29  52  83 113 141 170 222 288 331
#     4  10  21  36  55  78 107 140 184 231 269 323
#     4  10  14  32  60  76 100 130 188 222 264 302
#     4  10  20  34  57  79 107 144 183 230 267 329
#
# _framework density 17.780504000000001
#
# number of rings (size 3 to 8) (size 9 to 14) (size 15 to 20)
#    0.000    1.882    3.529    2.824    3.294    4.235 
#    0.000    0.000    0.000   11.294    0.000    0.000 
#    0.000    0.000    0.000    0.000    0.000    0.000 
#
# Total GULP energy -189323.700589 kJ/mol
# GULP energy per Si atom -5568.344135 kJ/mol
# Density = 1.774004 g / cm^3
# Si number density = 17.780504 Si / 1000 Ang^3
#
#
#
# Elastic Constant Matrix: (Units=GPa)
#
#
# Indices 1 2 3 4 5 6 
#
# 1 126.9305 58.6525 14.2893 0.0000 0.0000 0.0000
# 2 58.6525 115.6835 39.1107 0.0000 0.0000 0.0000
# 3 14.2893 39.1107 43.6897 0.0000 0.0000 0.0000
# 4 0.0000 0.0000 0.0000 23.4475 0.0000 0.0000
# 5 0.0000 0.0000 0.0000 0.0000 49.4398 0.0000
# 6 0.0000 0.0000 0.0000 0.0000 0.0000 20.8546
#
#
#
# Elastic Compliance Matrix: (Units=1/GPa)
#
#
# Indices 1 2 3 4 5 6 
#
# 1 0.010397 -0.005910 0.001890 0.000000 0.000000 0.000000
# 2 -0.005910 0.015756 -0.012171 0.000000 0.000000 0.000000
# 3 0.001890 -0.012171 0.033166 0.000000 0.000000 0.000000
# 4 0.000000 0.000000 0.000000 0.042648 0.000000 0.000000
# 5 0.000000 0.000000 0.000000 0.000000 0.020227 0.000000
# 6 0.000000 0.000000 0.000000 0.000000 0.000000 0.047951
#
#
# Mechanical properties :
#
#
# Convention : Reuss Voigt Hill
#
# Bulk Modulus (GPa) = 37.12497 56.71208 46.91852
# Shear Modulus (GPa) = 23.64004 30.36514 27.00259
#
# Velocity S-wave (km/s) = 3.65025 4.13701 3.90123
# Velocity P-wave (km/s) = 6.22019 7.40167 6.83650
#
# Compressibility (1/GPa) = 0.02693605
#
# Stress axis : x y z
#
# Youngs Moduli (GPa) = 96.18581 63.46872 30.15127
#
# Poissons Ratio (x) = 0.37512 -0.05700
# Poissons Ratio (y) = 0.56849 0.36698
# Poissons Ratio (z) = -0.18184 0.77250
#
# Static dielectric constant tensor:
#      x y z
#    x 1.606850 0.000000 0.000000 
#    y 0.000000 1.644880 0.000000 
#    z 0.000000 0.000000 1.637970 
# 
# From -- ./inp_files/13492.got.cif
#   From: 2010.05.17/outbox.cif.g08.bks.cpg/sg74_7_cif.got.tgz:13492.got - 2010.06.03 17:57:02.
