data_PCOD9533127
_publ_section_title
;
Structure prediction by ZEFSAII (Michael W. Deem and Ramdas Pophale) SiO2 
 PCOD9533127
Probable space group: I B C A 
;
_chemical_formula_sum "Si O2"
_cell_formula_units_Z 80
_cell_length_a 19.311732
_cell_length_b 16.965625
_cell_length_c 10.352227
_cell_angle_alpha 90.000000
_cell_angle_beta 90.000000
_cell_angle_gamma 90.000000
_cell_volume 3391.758138
_symmetry_space_group_name_H-M "I B C A "
_symmetry_group_IT_number 73
_symmetry_cell_setting 'orthorhombic'
loop_
_space_group_symop_operation_xyz
x,y,z
-x,1/2-y,z
x,-y,1/2-z
1/2-x,y,-z
-x,-y,-z
x,1/2+y,-z
-x,y,1/2+z
1/2+x,-y,z
1/2+x,1/2+y,1/2+z
1/2-x,-y,1/2+z
1/2+x,1/2-y,-z
-x,1/2+y,1/2-z
1/2-x,1/2-y,1/2-z
1/2+x,y,1/2-z
1/2-x,1/2+y,z
x,1/2-y,1/2+z
loop_
_atom_site_type_symbol
_atom_site_label
_atom_site_fract_x
_atom_site_fract_y
_atom_site_fract_z
Si Si1 0.134033 0.324217 0.944896
Si Si2 0.074651 0.000000 0.750000
Si Si3 0.750000 0.298384 0.000000
Si Si4 0.009551 0.335209 0.141146
Si Si5 0.670986 0.510998 0.012147
Si Si6 0.634170 0.384350 0.842889
O O1 0.188754 0.253793 0.937544
O O2 0.121512 0.357328 0.802347
O O3 0.064538 0.316183 0.028400
O O4 0.170471 0.395645 0.021088
O O5 0.033550 0.081855 0.711915
O O6 0.125809 0.019941 0.869070
O O7 0.705390 0.345486 0.893422
O O8 0.000000 0.250000 0.214209
O O9 0.934189 0.354046 0.084485
O O10 0.750000 0.487271 0.000000
O O11 0.637694 0.475221 0.883376
#
# Coordination Sequence:
#
# PCOD9533127 Si02
#       6
#    16   8   8  16  16  16
#     4  11  26  47  72 105 150 193 255 311 389 458
#     4  10  28  46  78 114 160 196 270 316 370 482
#     4  12  24  48  68 116 142 188 258 316 386 468
#     4  11  26  50  74 112 151 209 249 317 390 459
#     4  11  25  45  73 105 149 200 249 316 387 445
#     4  12  27  43  76 107 147 194 252 315 388 465
#
# _framework density 23.586587000000002
#
# number of rings (size 3 to 8) (size 9 to 14) (size 15 to 20)
#    0.000    0.800    4.000    1.200    8.400    4.000 
#    0.000    0.000    0.000    0.000    0.000    0.000 
#    0.000    0.000    0.000    0.000    0.000    0.000 
#
# Total GULP energy -222938.507795 kJ/mol
# GULP energy per Si atom -5573.462695 kJ/mol
# Density = 2.353290 g / cm^3
# Si number density = 23.586587 Si / 1000 Ang^3
#
#
#
# Elastic Constant Matrix: (Units=GPa)
#
#
# Indices 1 2 3 4 5 6 
#
# 1 156.4676 49.1286 36.5969 0.0000 0.0000 0.0000
# 2 49.1286 119.9668 30.0381 0.0000 0.0000 0.0000
# 3 36.5969 30.0381 107.3203 0.0000 0.0000 0.0000
# 4 0.0000 0.0000 0.0000 36.1152 0.0000 0.0000
# 5 0.0000 0.0000 0.0000 0.0000 20.1658 0.0000
# 6 0.0000 0.0000 0.0000 0.0000 0.0000 -65.5537
#
#
#
# Elastic Compliance Matrix: (Units=1/GPa)
#
#
# Indices 1 2 3 4 5 6 
#
# 1 0.007667 -0.002672 -0.001866 0.000000 0.000000 0.000000
# 2 -0.002672 0.009895 -0.001858 0.000000 0.000000 0.000000
# 3 -0.001866 -0.001858 0.010474 0.000000 0.000000 0.000000
# 4 0.000000 0.000000 0.000000 0.027689 0.000000 0.000000
# 5 0.000000 0.000000 0.000000 0.000000 0.049589 0.000000
# 6 0.000000 0.000000 0.000000 0.000000 0.000000 -0.015255
#
#
# Mechanical properties :
#
#
# Convention : Reuss Voigt Hill
#
# Bulk Modulus (GPa) = 65.60680 68.36466 66.98573
# Shear Modulus (GPa) = 46.32422 16.01154 31.16788
#
# Velocity S-wave (km/s) = 4.43652 2.60828 3.63908
# Velocity P-wave (km/s) = 7.35658 6.17400 6.79108
#
# Compressibility (1/GPa) = 0.01524232
#
# Stress axis : x y z
#
# Youngs Moduli (GPa) = 130.43384 101.05796 95.46997
#
# Poissons Ratio (x) = 0.27006 0.17819
# Poissons Ratio (y) = 0.34856 0.17742
# Poissons Ratio (z) = 0.24345 0.18780
#
# Static dielectric constant tensor:
#      x y z
#    x 1.905950 0.000000 0.000000 
#    y 0.000000 1.998780 0.000000 
#    z 0.000000 0.000000 1.915570 
# 
# From -- ./inp_files/12696.got.cif
#   From: 2010.05.17/outbox.cif.g08.bks.cpg/sg73_7_cif.got.tgz:12696.got - 2010.06.03 17:35:07.
