data_PCOD9533143
_publ_section_title
;
Structure prediction by ZEFSAII (Michael W. Deem and Ramdas Pophale) SiO2 
 PCOD9533143
Probable space group: I B C A 
;
_chemical_formula_sum "Si O2"
_cell_formula_units_Z 104
_cell_length_a 19.687425
_cell_length_b 14.561081
_cell_length_c 18.463658
_cell_angle_alpha 90.000000
_cell_angle_beta 90.000000
_cell_angle_gamma 90.000000
_cell_volume 5292.980349
_symmetry_space_group_name_H-M "I B C A "
_symmetry_group_IT_number 73
_symmetry_cell_setting 'orthorhombic'
loop_
_space_group_symop_operation_xyz
x,y,z
-x,1/2-y,z
x,-y,1/2-z
1/2-x,y,-z
-x,-y,-z
x,1/2+y,-z
-x,y,1/2+z
1/2+x,-y,z
1/2+x,1/2+y,1/2+z
1/2-x,-y,1/2+z
1/2+x,1/2-y,-z
-x,1/2+y,1/2-z
1/2-x,1/2-y,1/2-z
1/2+x,y,1/2-z
1/2-x,1/2+y,z
x,1/2-y,1/2+z
loop_
_atom_site_type_symbol
_atom_site_label
_atom_site_fract_x
_atom_site_fract_y
_atom_site_fract_z
Si Si1 0.742500 0.333550 0.354354
Si Si2 0.500000 0.750000 0.673993
Si Si3 0.718386 0.131504 0.293793
Si Si4 0.068187 0.393479 0.768338
Si Si5 0.879810 0.728802 0.939886
Si Si6 0.313641 0.570329 0.053449
Si Si7 0.615582 0.887700 0.426015
O O1 0.743852 0.227685 0.326857
O O2 0.739420 0.389517 0.278800
O O3 0.678539 0.337144 0.406990
O O4 0.809856 0.355068 0.399030
O O5 0.511859 0.663802 0.726382
O O6 0.564183 0.759370 0.621590
O O7 0.641584 0.139859 0.262641
O O8 0.713006 0.065849 0.363097
O O9 0.063511 0.500000 0.750000
O O10 0.069382 0.383666 0.854732
O O11 0.846165 0.828274 0.956134
O O12 0.907876 0.679737 0.011000
O O13 0.370400 0.491401 0.046863
O O14 0.250000 0.558018 0.000000
#
# Coordination Sequence:
#
# PCOD9533143 Si02
#       7
#    16   8  16  16  16  16  16
#     4   9  17  32  59  90 120 151 196 256 326 380
#     4  12  24  42  66  80 126 182 218 262 314 360
#     4   9  17  33  59  89 117 160 198 258 316 388
#     4  11  21  43  67  88 119 172 223 259 315 385
#     4  11  22  40  58  92 128 163 209 266 314 380
#     4  11  20  36  62  97 127 163 199 258 339 390
#     4  11  22  37  66  94 123 159 206 266 331 391
#
# _framework density 19.648665000000001
#
# number of rings (size 3 to 8) (size 9 to 14) (size 15 to 20)
#    0.000    1.538    4.615    3.231    0.000    0.615 
#    0.000    4.615    3.385    0.000    0.000    0.000 
#    0.000    0.000    0.000    0.000    0.000    0.000 
#
# Total GULP energy -290205.138138 kJ/mol
# GULP energy per Si atom -5580.868041 kJ/mol
# Density = 1.960394 g / cm^3
# Si number density = 19.648665 Si / 1000 Ang^3
#
#
#
# Elastic Constant Matrix: (Units=GPa)
#
#
# Indices 1 2 3 4 5 6 
#
# 1 14.3520 10.0900 8.8660 0.0000 0.0000 0.0000
# 2 10.0900 93.1568 42.8809 0.0000 0.0000 0.0000
# 3 8.8660 42.8809 127.3290 0.0000 0.0000 0.0000
# 4 0.0000 0.0000 0.0000 24.5024 0.0000 0.0000
# 5 0.0000 0.0000 0.0000 0.0000 22.4986 0.0000
# 6 0.0000 0.0000 0.0000 0.0000 0.0000 4.2054
#
#
#
# Elastic Compliance Matrix: (Units=1/GPa)
#
#
# Indices 1 2 3 4 5 6 
#
# 1 0.076374 -0.006893 -0.002997 0.000000 0.000000 0.000000
# 2 -0.006893 0.013326 -0.004008 0.000000 0.000000 0.000000
# 3 -0.002997 -0.004008 0.009412 0.000000 0.000000 0.000000
# 4 0.000000 0.000000 0.000000 0.040812 0.000000 0.000000
# 5 0.000000 0.000000 0.000000 0.000000 0.044447 0.000000
# 6 0.000000 0.000000 0.000000 0.000000 0.000000 0.237788
#
#
# Mechanical properties :
#
#
# Convention : Reuss Voigt Hill
#
# Bulk Modulus (GPa) = 14.02185 39.83464 26.92825
# Shear Modulus (GPa) = 10.55462 21.77467 16.16464
#
# Velocity S-wave (km/s) = 2.32020 3.33258 2.87136
# Velocity P-wave (km/s) = 3.78544 5.92668 4.97268
#
# Compressibility (1/GPa) = 0.07131724
#
# Stress axis : x y z
#
# Youngs Moduli (GPa) = 13.09348 75.04111 106.24641
#
# Poissons Ratio (x) = 0.51724 0.31839
# Poissons Ratio (y) = 0.09025 0.42582
# Poissons Ratio (z) = 0.03924 0.30076
#
# Static dielectric constant tensor:
#      x y z
#    x 1.806220 0.000000 0.000000 
#    y 0.000000 1.724160 0.000000 
#    z 0.000000 0.000000 1.725060 
# 
# From -- ./inp_files/23199.got.cif
#   From: 2010.05.17/outbox.cif.g08.bks.cpg/sg73_12_cif.got.tgz:23199.got - 2010.06.03 17:35:07.
