data_PCOD9533560
_publ_section_title
;
Structure prediction by ZEFSAII (Michael W. Deem and Ramdas Pophale) SiO2 
 PCOD9533560
Probable space group: I B C A 
;
_chemical_formula_sum "Si O2"
_cell_formula_units_Z 56
_cell_length_a 16.815842
_cell_length_b 15.850773
_cell_length_c 7.309778
_cell_angle_alpha 90.000000
_cell_angle_beta 90.000000
_cell_angle_gamma 90.000000
_cell_volume 1948.378157
_symmetry_space_group_name_H-M "I B C A "
_symmetry_group_IT_number 73
_symmetry_cell_setting 'orthorhombic'
loop_
_space_group_symop_operation_xyz
x,y,z
-x,1/2-y,z
x,-y,1/2-z
1/2-x,y,-z
-x,-y,-z
x,1/2+y,-z
-x,y,1/2+z
1/2+x,-y,z
1/2+x,1/2+y,1/2+z
1/2-x,-y,1/2+z
1/2+x,1/2-y,-z
-x,1/2+y,1/2-z
1/2-x,1/2-y,1/2-z
1/2+x,y,1/2-z
1/2-x,1/2+y,z
x,1/2-y,1/2+z
loop_
_atom_site_type_symbol
_atom_site_label
_atom_site_fract_x
_atom_site_fract_y
_atom_site_fract_z
Si Si1 0.000000 0.750000 0.099930
Si Si2 0.843101 0.558228 0.520125
Si Si3 0.162882 0.763035 0.323544
Si Si4 0.094758 0.611052 0.428131
O O1 0.078359 0.743715 0.224845
O O2 0.014391 0.839992 0.994212
O O3 0.750000 0.530868 0.500000
O O4 0.844168 0.643853 0.404180
O O5 0.894575 0.476478 0.464451
O O6 0.874703 0.583665 0.723898
O O7 0.250000 0.750000 0.250000
O O8 0.157034 0.685612 0.472023
#
# Coordination Sequence:
#
# PCOD9533560 Si02
#       4
#     8  16  16  16
#     4  12  30  50  86 130 184 254 310 392 472 552
#     4  11  26  51  93 135 175 249 310 390 483 562
#     4  12  27  55  90 129 184 247 312 383 472 563
#     4  11  27  51  85 130 182 233 316 383 465 560
#
# _framework density 28.741855999999999
#
# number of rings (size 3 to 8) (size 9 to 14) (size 15 to 20)
#    0.000    0.571    2.857    2.571    4.000    2.286 
#    0.000   25.714    0.000    0.000    0.000    0.000 
#    0.000    0.000    0.000    0.000    0.000    0.000 
#
# Total GULP energy -156141.533764 kJ/mol
# GULP energy per Si atom -5576.483349 kJ/mol
# Density = 2.867644 g / cm^3
# Si number density = 28.741856 Si / 1000 Ang^3
#
#
#
# Elastic Constant Matrix: (Units=GPa)
#
#
# Indices 1 2 3 4 5 6 
#
# 1 225.4273 113.5696 109.8115 0.0000 0.0000 0.0000
# 2 113.5696 318.5591 62.3420 0.0000 0.0000 0.0000
# 3 109.8115 62.3420 113.2437 0.0000 0.0000 0.0000
# 4 0.0000 0.0000 0.0000 45.5697 0.0000 0.0000
# 5 0.0000 0.0000 0.0000 0.0000 74.1220 0.0000
# 6 0.0000 0.0000 0.0000 0.0000 0.0000 67.8198
#
#
#
# Elastic Compliance Matrix: (Units=1/GPa)
#
#
# Indices 1 2 3 4 5 6 
#
# 1 0.009173 -0.001714 -0.007951 0.000000 0.000000 0.000000
# 2 -0.001714 0.003838 -0.000451 0.000000 0.000000 0.000000
# 3 -0.007951 -0.000451 0.016789 0.000000 0.000000 0.000000
# 4 0.000000 0.000000 0.000000 0.021944 0.000000 0.000000
# 5 0.000000 0.000000 0.000000 0.000000 0.013491 0.000000
# 6 0.000000 0.000000 0.000000 0.000000 0.000000 0.014745
#
#
# Mechanical properties :
#
#
# Convention : Reuss Voigt Hill
#
# Bulk Modulus (GPa) = 104.51768 136.51961 120.51864
# Shear Modulus (GPa) = 48.35470 62.26943 55.31207
#
# Velocity S-wave (km/s) = 4.10613 4.65962 4.39161
# Velocity P-wave (km/s) = 7.67617 8.74935 8.23027
#
# Compressibility (1/GPa) = 0.00956776
#
# Stress axis : x y z
#
# Youngs Moduli (GPa) = 109.01775 260.51847 59.56318
#
# Poissons Ratio (x) = 0.44657 0.47359
# Poissons Ratio (y) = 0.18687 0.02686
# Poissons Ratio (z) = 0.86681 0.11747
#
# Static dielectric constant tensor:
#      x y z
#    x 2.166730 0.000000 0.000000 
#    y 0.000000 2.450670 0.000000 
#    z 0.000000 0.000000 3.307160 
# 
# From -- ./inp_files/5120.got.cif
#   From: 2010.05.17/outbox.cif.g08.bks.cpg/sg73_3_cif.got.tgz:5120.got - 2010.06.03 17:35:07.
