data_PCOD9533420
_publ_section_title
;
Structure prediction by ZEFSAII (Michael W. Deem and Ramdas Pophale) SiO2 
 PCOD9533420
Probable space group: I B C A 
;
_chemical_formula_sum "Si O2"
_cell_formula_units_Z 64
_cell_length_a 8.139495
_cell_length_b 9.986072
_cell_length_c 30.384775
_cell_angle_alpha 90.000000
_cell_angle_beta 90.000000
_cell_angle_gamma 90.000000
_cell_volume 2469.722615
_symmetry_space_group_name_H-M "I B C A "
_symmetry_group_IT_number 73
_symmetry_cell_setting 'orthorhombic'
loop_
_space_group_symop_operation_xyz
x,y,z
-x,1/2-y,z
x,-y,1/2-z
1/2-x,y,-z
-x,-y,-z
x,1/2+y,-z
-x,y,1/2+z
1/2+x,-y,z
1/2+x,1/2+y,1/2+z
1/2-x,-y,1/2+z
1/2+x,1/2-y,-z
-x,1/2+y,1/2-z
1/2-x,1/2-y,1/2-z
1/2+x,y,1/2-z
1/2-x,1/2+y,z
x,1/2-y,1/2+z
loop_
_atom_site_type_symbol
_atom_site_label
_atom_site_fract_x
_atom_site_fract_y
_atom_site_fract_z
Si Si1 0.638608 0.442213 0.846639
Si Si2 0.596331 0.115556 0.715207
Si Si3 0.560205 0.613726 0.966630
Si Si4 0.125877 0.567732 0.410478
O O1 0.523840 0.530630 0.815913
O O2 0.758767 0.548310 0.869232
O O3 0.544279 0.378621 0.888937
O O4 0.746166 0.347437 0.815112
O O5 0.500000 0.250000 0.730572
O O6 0.648810 0.000000 0.750000
O O7 0.500000 0.750000 0.987027
O O8 0.439841 0.578947 0.925850
O O9 0.500000 0.500000 0.000000
O O10 0.752502 0.616794 0.051246
#
# Coordination Sequence:
#
# PCOD9533420 Si02
#       4
#    16  16  16  16
#     4   9  21  42  66  98 136 180 233 295 356 421
#     4  11  24  43  68 103 144 187 236 293 362 435
#     4  11  24  43  68 103 144 186 233 287 352 428
#     4   9  21  42  66  98 136 181 234 291 351 417
#
# _framework density 25.913843
#
# number of rings (size 3 to 8) (size 9 to 14) (size 15 to 20)
#    0.000    2.000    0.000    1.500    0.000   17.000 
#    0.000   20.000    0.000    0.000    0.000    3.500 
#    0.000    0.000    0.000    0.000    0.000    0.000 
#
# Total GULP energy -178287.877670 kJ/mol
# GULP energy per Si atom -5571.496177 kJ/mol
# Density = 2.585486 g / cm^3
# Si number density = 25.913843 Si / 1000 Ang^3
#
#
#
# Elastic Constant Matrix: (Units=GPa)
#
#
# Indices 1 2 3 4 5 6 
#
# 1 162.3356 34.3889 58.3637 0.0000 0.0000 0.0000
# 2 34.3889 136.2052 25.3585 0.0000 0.0000 0.0000
# 3 58.3637 25.3585 99.8463 0.0000 0.0000 0.0000
# 4 0.0000 0.0000 0.0000 3.3513 0.0000 0.0000
# 5 0.0000 0.0000 0.0000 0.0000 74.2033 0.0000
# 6 0.0000 0.0000 0.0000 0.0000 0.0000 20.1652
#
#
#
# Elastic Compliance Matrix: (Units=1/GPa)
#
#
# Indices 1 2 3 4 5 6 
#
# 1 0.007983 -0.001204 -0.004361 0.000000 0.000000 0.000000
# 2 -0.001204 0.007888 -0.001300 0.000000 0.000000 0.000000
# 3 -0.004361 -0.001300 0.012894 0.000000 0.000000 0.000000
# 4 0.000000 0.000000 0.000000 0.298387 0.000000 0.000000
# 5 0.000000 0.000000 0.000000 0.000000 0.013476 0.000000
# 6 0.000000 0.000000 0.000000 0.000000 0.000000 0.049590
#
#
# Mechanical properties :
#
#
# Convention : Reuss Voigt Hill
#
# Bulk Modulus (GPa) = 66.50213 70.51216 68.50714
# Shear Modulus (GPa) = 12.22616 38.22903 25.22760
#
# Velocity S-wave (km/s) = 2.17445 3.84505 3.12351
# Velocity P-wave (km/s) = 5.65887 6.85433 6.28509
#
# Compressibility (1/GPa) = 0.01503711
#
# Stress axis : x y z
#
# Youngs Moduli (GPa) = 125.26981 126.77902 77.55325
#
# Poissons Ratio (x) = 0.15260 0.33817
# Poissons Ratio (y) = 0.15078 0.10080
# Poissons Ratio (z) = 0.54624 0.16478
#
# Static dielectric constant tensor:
#      x y z
#    x 1.663690 0.000000 0.000000 
#    y 0.000000 2.005170 0.000000 
#    z 0.000000 0.000000 2.144990 
# 
# From -- ./inp_files/33454.got.cif
#   From: 2010.05.17/outbox.cif.g08.bks.cpg/sg73_17_cif.got.tgz:33454.got - 2010.06.03 17:35:07.
