data_PCOD9533142
_publ_section_title
;
Structure prediction by ZEFSAII (Michael W. Deem and Ramdas Pophale) SiO2 
 PCOD9533142
Probable space group: I B C A 
;
_chemical_formula_sum "Si O2"
_cell_formula_units_Z 96
_cell_length_a 16.891597
_cell_length_b 10.660098
_cell_length_c 24.817416
_cell_angle_alpha 90.000000
_cell_angle_beta 90.000000
_cell_angle_gamma 90.000000
_cell_volume 4468.774800
_symmetry_space_group_name_H-M "I B C A "
_symmetry_group_IT_number 73
_symmetry_cell_setting 'orthorhombic'
loop_
_space_group_symop_operation_xyz
x,y,z
-x,1/2-y,z
x,-y,1/2-z
1/2-x,y,-z
-x,-y,-z
x,1/2+y,-z
-x,y,1/2+z
1/2+x,-y,z
1/2+x,1/2+y,1/2+z
1/2-x,-y,1/2+z
1/2+x,1/2-y,-z
-x,1/2+y,1/2-z
1/2-x,1/2-y,1/2-z
1/2+x,y,1/2-z
1/2-x,1/2+y,z
x,1/2-y,1/2+z
loop_
_atom_site_type_symbol
_atom_site_label
_atom_site_fract_x
_atom_site_fract_y
_atom_site_fract_z
Si Si1 0.454344 0.510637 0.690484
Si Si2 0.595644 0.252018 0.187740
Si Si3 0.725869 0.674748 0.880879
Si Si4 0.788076 0.418548 0.057927
Si Si5 0.948261 0.621685 0.395355
Si Si6 0.355102 0.260160 0.301871
O O1 0.495824 0.500000 0.750000
O O2 0.389156 0.401526 0.688821
O O3 0.497007 0.515840 0.632313
O O4 0.416310 0.646012 0.694494
O O5 0.500000 0.250000 0.189394
O O6 0.634804 0.192897 0.135654
O O7 0.635121 0.194963 0.241180
O O8 0.737242 0.536422 0.904589
O O9 0.755157 0.784650 0.920820
O O10 0.774699 0.705798 0.826254
O O11 0.884795 0.410642 0.058451
O O12 0.750000 0.441485 0.000000
O O13 0.888858 0.643341 0.344808
O O14 0.000000 0.750000 0.405910
#
# Coordination Sequence:
#
# PCOD9533142 Si02
#       6
#    16  16  16  16  16  16
#     4   9  16  29  52  85 124 160 191 235 292 360
#     4  11  20  32  54  88 126 159 195 242 296 361
#     4  11  23  40  62  89 122 161 203 250 303 363
#     4  11  24  43  65  87 117 160 210 261 306 347
#     4   9  18  35  60  89 120 159 200 241 301 367
#     4   9  18  33  55  85 123 162 196 232 291 369
#
# _framework density 21.482398
#
# number of rings (size 3 to 8) (size 9 to 14) (size 15 to 20)
#    0.000    2.000    0.000    5.500    0.000    0.000 
#    0.000    6.667    0.000   16.000    0.000    0.000 
#    0.000    0.000    0.000    0.000    0.000    0.000 
#
# Total GULP energy -267253.193915 kJ/mol
# GULP energy per Si atom -5567.774873 kJ/mol
# Density = 2.143350 g / cm^3
# Si number density = 21.482398 Si / 1000 Ang^3
#
#
#
# Elastic Constant Matrix: (Units=GPa)
#
#
# Indices 1 2 3 4 5 6 
#
# 1 73.0452 -3.1150 42.0598 0.0000 0.0000 0.0000
# 2 -3.1150 67.9523 2.9725 0.0000 0.0000 0.0000
# 3 42.0598 2.9725 62.2388 0.0000 0.0000 0.0000
# 4 0.0000 0.0000 0.0000 20.0009 0.0000 0.0000
# 5 0.0000 0.0000 0.0000 0.0000 34.8605 0.0000
# 6 0.0000 0.0000 0.0000 0.0000 0.0000 24.5022
#
#
#
# Elastic Compliance Matrix: (Units=1/GPa)
#
#
# Indices 1 2 3 4 5 6 
#
# 1 0.022607 0.001708 -0.015359 0.000000 0.000000 0.000000
# 2 0.001708 0.014876 -0.001865 0.000000 0.000000 0.000000
# 3 -0.015359 -0.001865 0.026535 0.000000 0.000000 0.000000
# 4 0.000000 0.000000 0.000000 0.049998 0.000000 0.000000
# 5 0.000000 0.000000 0.000000 0.000000 0.028686 0.000000
# 6 0.000000 0.000000 0.000000 0.000000 0.000000 0.040813
#
#
# Mechanical properties :
#
#
# Convention : Reuss Voigt Hill
#
# Bulk Modulus (GPa) = 30.31471 31.89679 31.10575
# Shear Modulus (GPa) = 22.16894 26.62732 24.39813
#
# Velocity S-wave (km/s) = 3.21590 3.52447 3.37371
# Velocity P-wave (km/s) = 5.28501 5.60737 5.44858
#
# Compressibility (1/GPa) = 0.03298729
#
# Stress axis : x y z
#
# Youngs Moduli (GPa) = 44.23485 67.22200 37.68561
#
# Poissons Ratio (x) = -0.11482 0.57880
# Poissons Ratio (y) = -0.07556 0.07028
# Poissons Ratio (z) = 0.67939 0.12536
#
# Static dielectric constant tensor:
#      x y z
#    x 1.908920 0.000000 0.000000 
#    y 0.000000 1.866990 0.000000 
#    z 0.000000 0.000000 1.829180 
# 
# From -- ./inp_files/29774.got.cif
#   From: 2010.05.17/outbox.cif.g08.bks.cpg/sg73_15_cif.got.tgz:29774.got - 2010.06.03 17:35:07.
