data_PCOD9533470
_publ_section_title
;
Structure prediction by ZEFSAII (Michael W. Deem and Ramdas Pophale) SiO2 
 PCOD9533470
Probable space group: I B C A 
;
_chemical_formula_sum "Si O2"
_cell_formula_units_Z 112
_cell_length_a 14.478317
_cell_length_b 11.292578
_cell_length_c 31.770091
_cell_angle_alpha 90.000000
_cell_angle_beta 90.000000
_cell_angle_gamma 90.000000
_cell_volume 5194.331217
_symmetry_space_group_name_H-M "I B C A "
_symmetry_group_IT_number 73
_symmetry_cell_setting 'orthorhombic'
loop_
_space_group_symop_operation_xyz
x,y,z
-x,1/2-y,z
x,-y,1/2-z
1/2-x,y,-z
-x,-y,-z
x,1/2+y,-z
-x,y,1/2+z
1/2+x,-y,z
1/2+x,1/2+y,1/2+z
1/2-x,-y,1/2+z
1/2+x,1/2-y,-z
-x,1/2+y,1/2-z
1/2-x,1/2-y,1/2-z
1/2+x,y,1/2-z
1/2-x,1/2+y,z
x,1/2-y,1/2+z
loop_
_atom_site_type_symbol
_atom_site_label
_atom_site_fract_x
_atom_site_fract_y
_atom_site_fract_z
Si Si1 0.880348 0.958639 0.117570
Si Si2 0.406136 0.174253 0.440463
Si Si3 0.393970 0.391838 0.316479
Si Si4 0.674206 0.598064 0.592397
Si Si5 0.000000 0.750000 0.588253
Si Si6 0.086008 0.564961 0.523685
Si Si7 0.893617 0.116190 0.197127
Si Si8 0.251446 0.500000 0.250000
O O1 0.779860 0.931999 0.099740
O O2 0.938397 0.838492 0.115819
O O3 0.925527 0.060006 0.088185
O O4 0.868798 0.017770 0.162697
O O5 0.500000 0.250000 0.447359
O O6 0.339158 0.262940 0.416252
O O7 0.365922 0.130042 0.484558
O O8 0.381880 0.435039 0.364800
O O9 0.496661 0.405997 0.296954
O O10 0.381748 0.249949 0.318748
O O11 0.318184 0.452751 0.286873
O O12 0.640335 0.530569 0.550830
O O13 0.943741 0.835123 0.556822
O O14 0.000000 0.500000 0.500000
O O15 0.820895 0.099542 0.234506
#
# Coordination Sequence:
#
# PCOD9533470 Si02
#       8
#    16  16  16  16   8  16  16   8
#     4  12  27  45  71 107 143 194 257 309 369 450
#     4  12  23  47  72  96 143 201 245 296 378 445
#     4  11  24  46  78 106 148 198 239 302 378 448
#     4  12  26  46  72 104 148 197 252 311 364 453
#     4  12  24  44  64 102 146 186 244 318 368 426
#     4  12  23  44  69 101 142 194 248 307 369 437
#     4  11  24  47  74 108 144 193 240 293 384 447
#     4  12  24  48  76 116 148 178 246 316 360 460
#
# _framework density 21.561968
#
# number of rings (size 3 to 8) (size 9 to 14) (size 15 to 20)
#    0.000    0.286    6.429    2.571    2.000    0.571 
#    2.571    1.429    0.000    0.000    0.000    0.000 
#    0.000    0.000    0.000    0.000    0.000    0.000 
#
# Total GULP energy -313119.142191 kJ/mol
# GULP energy per Si atom -5591.413253 kJ/mol
# Density = 2.151289 g / cm^3
# Si number density = 21.561968 Si / 1000 Ang^3
#
#
#
# Elastic Constant Matrix: (Units=GPa)
#
#
# Indices 1 2 3 4 5 6 
#
# 1 119.8318 48.0413 50.9044 0.0000 0.0000 0.0000
# 2 48.0413 106.1144 25.3358 0.0000 0.0000 0.0000
# 3 50.9044 25.3358 96.5200 0.0000 0.0000 0.0000
# 4 0.0000 0.0000 0.0000 40.0882 0.0000 0.0000
# 5 0.0000 0.0000 0.0000 0.0000 39.6495 0.0000
# 6 0.0000 0.0000 0.0000 0.0000 0.0000 13.8174
#
#
#
# Elastic Compliance Matrix: (Units=1/GPa)
#
#
# Indices 1 2 3 4 5 6 
#
# 1 0.012362 -0.004310 -0.005388 0.000000 0.000000 0.000000
# 2 -0.004310 0.011557 -0.000760 0.000000 0.000000 0.000000
# 3 -0.005388 -0.000760 0.013402 0.000000 0.000000 0.000000
# 4 0.000000 0.000000 0.000000 0.024945 0.000000 0.000000
# 5 0.000000 0.000000 0.000000 0.000000 0.025221 0.000000
# 6 0.000000 0.000000 0.000000 0.000000 0.000000 0.072373
#
#
# Mechanical properties :
#
#
# Convention : Reuss Voigt Hill
#
# Bulk Modulus (GPa) = 60.96476 63.44768 62.20622
# Shear Modulus (GPa) = 26.84645 31.92334 29.38489
#
# Velocity S-wave (km/s) = 3.53240 3.85195 3.69563
# Velocity P-wave (km/s) = 6.70617 7.01947 6.86461
#
# Compressibility (1/GPa) = 0.01640292
#
# Stress axis : x y z
#
# Youngs Moduli (GPa) = 80.89365 86.53008 74.61634
#
# Poissons Ratio (x) = 0.37296 0.40205
# Poissons Ratio (y) = 0.34866 0.05674
# Poissons Ratio (z) = 0.43588 0.06580
#
# Static dielectric constant tensor:
#      x y z
#    x 1.827080 0.000000 0.000000 
#    y 0.000000 1.789480 0.000000 
#    z 0.000000 0.000000 1.799670 
# 
# From -- ./inp_files/34349.got.cif
#   From: 2010.05.17/outbox.cif.g08.bks.cpg/sg73_18_cif.got.tgz:34349.got - 2010.06.03 17:35:07.
