data_PCOD9533160
_publ_section_title
;
Structure prediction by ZEFSAII (Michael W. Deem and Ramdas Pophale) SiO2 
 PCOD9533160
Probable space group: I B C A 
;
_chemical_formula_sum "Si O2"
_cell_formula_units_Z 96
_cell_length_a 15.184355
_cell_length_b 22.339635
_cell_length_c 10.156760
_cell_angle_alpha 90.000000
_cell_angle_beta 90.000000
_cell_angle_gamma 90.000000
_cell_volume 3445.304506
_symmetry_space_group_name_H-M "I B C A "
_symmetry_group_IT_number 73
_symmetry_cell_setting 'orthorhombic'
loop_
_space_group_symop_operation_xyz
x,y,z
-x,1/2-y,z
x,-y,1/2-z
1/2-x,y,-z
-x,-y,-z
x,1/2+y,-z
-x,y,1/2+z
1/2+x,-y,z
1/2+x,1/2+y,1/2+z
1/2-x,-y,1/2+z
1/2+x,1/2-y,-z
-x,1/2+y,1/2-z
1/2-x,1/2-y,1/2-z
1/2+x,y,1/2-z
1/2-x,1/2+y,z
x,1/2-y,1/2+z
loop_
_atom_site_type_symbol
_atom_site_label
_atom_site_fract_x
_atom_site_fract_y
_atom_site_fract_z
Si Si1 0.360277 0.857247 0.827527
Si Si2 0.338834 0.691132 0.063494
Si Si3 0.337380 0.879626 0.200985
Si Si4 0.901952 0.256544 0.828592
Si Si5 0.993680 0.441440 0.169434
Si Si6 0.660013 0.058721 0.517966
O O1 0.353606 0.799220 0.717689
O O2 0.264163 0.884718 0.845645
O O3 0.380970 0.804777 0.927202
O O4 0.437005 0.899021 0.771570
O O5 0.250000 0.716948 0.000000
O O6 0.414915 0.700836 0.962262
O O7 0.323585 0.619519 0.067061
O O8 0.350624 0.811177 0.246291
O O9 0.419602 0.906280 0.119190
O O10 0.346539 0.920264 0.333026
O O11 0.000000 0.250000 0.771185
O O12 0.017610 0.500000 0.250000
O O13 0.927840 0.462029 0.052874
O O14 0.750000 0.021440 0.500000
#
# Coordination Sequence:
#
# PCOD9533160 Si02
#       6
#    16  16  16  16  16  16
#     4  11  21  41  64  91 130 169 214 261 328 392
#     4   9  17  33  56  85 113 166 202 233 313 395
#     4  11  21  40  65  91 125 171 215 264 328 395
#     4  11  21  35  58  94 127 163 209 271 319 385
#     4  11  24  40  66  98 123 167 229 272 316 387
#     4   9  17  40  66  86 120 173 213 254 324 399
#
# _framework density 27.864011000000001
#
# number of rings (size 3 to 8) (size 9 to 14) (size 15 to 20)
#    0.000    1.667    8.333    0.500    0.000    2.000 
#    3.000    0.000    0.000    0.000    0.000    0.000 
#    0.000    0.000    0.000    0.000    0.000    0.000 
#
# Total GULP energy -267529.232163 kJ/mol
# GULP energy per Si atom -5573.525670 kJ/mol
# Density = 2.780059 g / cm^3
# Si number density = 27.864011 Si / 1000 Ang^3
#
#
#
# Elastic Constant Matrix: (Units=GPa)
#
#
# Indices 1 2 3 4 5 6 
#
# 1 202.6481 55.3342 -8.2264 0.0000 0.0000 0.0000
# 2 55.3342 120.7127 -5.8963 0.0000 0.0000 0.0000
# 3 -8.2264 -5.8963 76.3005 0.0000 -0.0001 0.0000
# 4 0.0000 0.0000 0.0000 22.2707 0.0000 0.0000
# 5 0.0000 0.0000 -0.0001 0.0000 27.6537 0.0000
# 6 0.0000 0.0000 0.0000 0.0000 0.0000 19.2794
#
#
#
# Elastic Compliance Matrix: (Units=1/GPa)
#
#
# Indices 1 2 3 4 5 6 
#
# 1 0.005653 -0.002571 0.000411 0.000000 0.000000 0.000000
# 2 -0.002571 0.009485 0.000456 0.000000 0.000000 0.000000
# 3 0.000411 0.000456 0.013186 0.000000 0.000000 0.000000
# 4 0.000000 0.000000 0.000000 0.044902 0.000000 0.000000
# 5 0.000000 0.000000 0.000000 0.000000 0.036162 0.000000
# 6 0.000000 0.000000 0.000000 0.000000 0.000000 0.051869
#
#
# Mechanical properties :
#
#
# Convention : Reuss Voigt Hill
#
# Bulk Modulus (GPa) = 40.13745 53.56494 46.85119
# Shear Modulus (GPa) = 28.90654 37.73741 33.32197
#
# Velocity S-wave (km/s) = 3.22439 3.68413 3.46190
# Velocity P-wave (km/s) = 5.31961 6.11249 5.72978
#
# Compressibility (1/GPa) = 0.02491439
#
# Stress axis : x y z
#
# Youngs Moduli (GPa) = 176.88178 105.42801 75.84043
#
# Poissons Ratio (x) = 0.27111 -0.03116
# Poissons Ratio (y) = 0.45485 -0.03456
# Poissons Ratio (z) = -0.07267 -0.04805
#
# Static dielectric constant tensor:
#      x y z
#    x 2.287270 0.000000 0.000000 
#    y 0.000000 2.243480 0.000000 
#    z 0.000000 0.000000 2.462030 
# 
# From -- ./inp_files/17076.got.cif
#   From: 2010.05.17/outbox.cif.g08.bks.cpg/sg73_9_cif.got.tgz:17076.got - 2010.06.03 17:35:07.
