data_PCOD9533440
_publ_section_title
;
Structure prediction by ZEFSAII (Michael W. Deem and Ramdas Pophale) SiO2 
 PCOD9533440
Probable space group: I B C A 
;
_chemical_formula_sum "Si O2"
_cell_formula_units_Z 104
_cell_length_a 19.241607
_cell_length_b 20.169320
_cell_length_c 13.621147
_cell_angle_alpha 90.000000
_cell_angle_beta 90.000000
_cell_angle_gamma 90.000000
_cell_volume 5286.232695
_symmetry_space_group_name_H-M "I B C A "
_symmetry_group_IT_number 73
_symmetry_cell_setting 'orthorhombic'
loop_
_space_group_symop_operation_xyz
x,y,z
-x,1/2-y,z
x,-y,1/2-z
1/2-x,y,-z
-x,-y,-z
x,1/2+y,-z
-x,y,1/2+z
1/2+x,-y,z
1/2+x,1/2+y,1/2+z
1/2-x,-y,1/2+z
1/2+x,1/2-y,-z
-x,1/2+y,1/2-z
1/2-x,1/2-y,1/2-z
1/2+x,y,1/2-z
1/2-x,1/2+y,z
x,1/2-y,1/2+z
loop_
_atom_site_type_symbol
_atom_site_label
_atom_site_fract_x
_atom_site_fract_y
_atom_site_fract_z
Si Si1 0.777292 0.707507 0.387868
Si Si2 0.791926 0.465146 0.595614
Si Si3 0.958056 0.082264 0.269739
Si Si4 0.798661 0.500000 0.250000
Si Si5 0.928812 0.463856 0.975133
Si Si6 0.820590 0.160384 0.214781
Si Si7 0.607167 0.104219 0.320254
O O1 0.750000 0.699414 0.500000
O O2 0.802972 0.781912 0.363096
O O3 0.714138 0.685803 0.315562
O O4 0.844240 0.665016 0.352268
O O5 0.750000 0.448461 0.500000
O O6 0.748765 0.519138 0.656770
O O7 0.868152 0.489069 0.567656
O O8 0.786596 0.405022 0.670059
O O9 0.947867 0.086037 0.387145
O O10 0.898288 0.130998 0.227935
O O11 0.030301 0.109015 0.225893
O O12 0.953678 0.000000 0.250000
O O13 0.851191 0.438859 0.260041
O O14 0.901944 0.434446 0.076894
O O15 0.000000 0.500000 0.000000
#
# Coordination Sequence:
#
# PCOD9533440 Si02
#       7
#    16  16  16   8  16  16  16
#     4  11  26  46  70  96 134 188 241 288 343 414
#     4  12  23  36  65  96 132 175 229 287 353 423
#     4  12  23  41  66  99 140 177 219 287 356 424
#     4  12  22  38  62 106 134 170 236 290 358 412
#     4  12  23  39  64 100 139 179 217 285 362 423
#     4  11  24  45  67  95 137 180 230 290 348 415
#     4  12  24  42  67 100 140 179 229 290 350 427
#
# _framework density 19.673746000000001
#
# number of rings (size 3 to 8) (size 9 to 14) (size 15 to 20)
#    0.000    0.308    6.923    2.308    2.154    0.615 
#    0.000    0.000    0.000    7.385    0.000    0.000 
#    0.000    0.000    0.000    0.000    0.000    0.000 
#
# Total GULP energy -289720.709530 kJ/mol
# GULP energy per Si atom -5571.552106 kJ/mol
# Density = 1.962897 g / cm^3
# Si number density = 19.673746 Si / 1000 Ang^3
#
#
#
# Elastic Constant Matrix: (Units=GPa)
#
#
# Indices 1 2 3 4 5 6 
#
# 1 172.3292 45.4252 43.3479 0.0000 0.0000 0.0000
# 2 45.4252 49.7688 -1.4064 0.0000 0.0000 0.0000
# 3 43.3479 -1.4064 85.7951 0.0000 0.0000 0.0000
# 4 0.0000 0.0000 0.0000 26.2018 0.0000 0.0000
# 5 0.0000 0.0000 0.0000 0.0000 40.9290 0.0000
# 6 0.0000 0.0000 0.0000 0.0000 0.0000 32.6446
#
#
#
# Elastic Compliance Matrix: (Units=1/GPa)
#
#
# Indices 1 2 3 4 5 6 
#
# 1 0.009290 -0.008616 -0.004835 0.000000 0.000000 0.000000
# 2 -0.008616 0.028093 0.004814 0.000000 0.000000 0.000000
# 3 -0.004835 0.004814 0.014178 0.000000 0.000000 0.000000
# 4 0.000000 0.000000 0.000000 0.038165 0.000000 0.000000
# 5 0.000000 0.000000 0.000000 0.000000 0.024433 0.000000
# 6 0.000000 0.000000 0.000000 0.000000 0.000000 0.030633
#
#
# Mechanical properties :
#
#
# Convention : Reuss Voigt Hill
#
# Bulk Modulus (GPa) = 29.16648 53.62518 41.39583
# Shear Modulus (GPa) = 28.81926 34.65682 31.73804
#
# Velocity S-wave (km/s) = 3.83150 4.20167 4.02085
# Velocity P-wave (km/s) = 5.86780 7.13128 6.53017
#
# Compressibility (1/GPa) = 0.03428593
#
# Stress axis : x y z
#
# Youngs Moduli (GPa) = 107.63990 35.59606 70.53416
#
# Poissons Ratio (x) = 0.30670 0.34104
# Poissons Ratio (y) = 0.92743 -0.33953
# Poissons Ratio (z) = 0.52045 -0.17135
#
# Static dielectric constant tensor:
#      x y z
#    x 1.753510 0.000000 0.000000 
#    y 0.000000 1.780050 0.000000 
#    z 0.000000 0.000000 1.761780 
# 
# From -- ./inp_files/18152.got.cif
#   From: 2010.05.17/outbox.cif.g08.bks.cpg/sg73_10_cif.got.tgz:18152.got - 2010.06.03 17:35:07.
