data_PCOD9533052
_publ_section_title
;
Structure prediction by ZEFSAII (Michael W. Deem and Ramdas Pophale) SiO2 
 PCOD9533052
Probable space group: I B C A 
;
_chemical_formula_sum "Si O2"
_cell_formula_units_Z 48
_cell_length_a 11.489497
_cell_length_b 14.398710
_cell_length_c 11.234478
_cell_angle_alpha 90.000000
_cell_angle_beta 90.000000
_cell_angle_gamma 90.000000
_cell_volume 1858.563907
_symmetry_space_group_name_H-M "I B C A "
_symmetry_group_IT_number 73
_symmetry_cell_setting 'orthorhombic'
loop_
_space_group_symop_operation_xyz
x,y,z
-x,1/2-y,z
x,-y,1/2-z
1/2-x,y,-z
-x,-y,-z
x,1/2+y,-z
-x,y,1/2+z
1/2+x,-y,z
1/2+x,1/2+y,1/2+z
1/2-x,-y,1/2+z
1/2+x,1/2-y,-z
-x,1/2+y,1/2-z
1/2-x,1/2-y,1/2-z
1/2+x,y,1/2-z
1/2-x,1/2+y,z
x,1/2-y,1/2+z
loop_
_atom_site_type_symbol
_atom_site_label
_atom_site_fract_x
_atom_site_fract_y
_atom_site_fract_z
Si Si1 0.602888 0.448788 0.575287
Si Si2 0.785907 0.116300 0.695773
Si Si3 0.621777 0.803125 0.628845
O O1 0.500000 0.500000 0.500000
O O2 0.609633 0.399150 0.706349
O O3 0.693980 0.530946 0.608017
O O4 0.626471 0.362990 0.489315
O O5 0.665883 0.125744 0.768786
O O6 0.793571 0.214896 0.632481
O O7 0.500000 0.750000 0.641856
#
# Coordination Sequence:
#
# PCOD9533052 Si02
#       3
#    16  16  16
#     4  11  23  50  77 118 161 219 276 347 424 506
#     4  10  25  49  75 118 160 210 279 344 417 509
#     4  11  23  49  80 113 158 214 269 347 423 496
#
# _framework density 25.826391999999998
#
# number of rings (size 3 to 8) (size 9 to 14) (size 15 to 20)
#    0.000    1.333    3.333    1.000    0.000    1.333 
#   18.000   16.667    0.000    0.000    0.000    0.000 
#    0.000    0.000    0.000    0.000    0.000    0.000 
#
# Total GULP energy -133753.338881 kJ/mol
# GULP energy per Si atom -5573.055787 kJ/mol
# Density = 2.576761 g / cm^3
# Si number density = 25.826392 Si / 1000 Ang^3
#
#
#
# Elastic Constant Matrix: (Units=GPa)
#
#
# Indices 1 2 3 4 5 6 
#
# 1 109.1897 48.1232 75.2830 0.0000 0.0000 0.0000
# 2 48.1232 229.3712 107.9447 0.0000 0.0000 0.0000
# 3 75.2830 107.9447 197.0773 0.0000 0.0000 0.0000
# 4 0.0000 0.0000 0.0000 81.4485 0.0000 0.0000
# 5 0.0000 0.0000 0.0000 0.0000 20.9998 0.0000
# 6 0.0000 0.0000 0.0000 0.0000 0.0000 48.0649
#
#
#
# Elastic Compliance Matrix: (Units=1/GPa)
#
#
# Indices 1 2 3 4 5 6 
#
# 1 0.012476 -0.000505 -0.004489 0.000000 0.000000 0.000000
# 2 -0.000505 0.005894 -0.003036 0.000000 0.000000 0.000000
# 3 -0.004489 -0.003036 0.008452 0.000000 0.000000 0.000000
# 4 0.000000 0.000000 0.000000 0.012278 0.000000 0.000000
# 5 0.000000 0.000000 0.000000 0.000000 0.047620 0.000000
# 6 0.000000 0.000000 0.000000 0.000000 0.000000 0.020805
#
#
# Mechanical properties :
#
#
# Convention : Reuss Voigt Hill
#
# Bulk Modulus (GPa) = 92.91438 110.92667 101.92053
# Shear Modulus (GPa) = 39.31692 50.38845 44.85268
#
# Velocity S-wave (km/s) = 3.90597 4.42186 4.17189
# Velocity P-wave (km/s) = 7.50978 8.31352 7.92185
#
# Compressibility (1/GPa) = 0.01076260
#
# Stress axis : x y z
#
# Youngs Moduli (GPa) = 80.15310 169.65699 118.31860
#
# Poissons Ratio (x) = 0.08564 0.53117
# Poissons Ratio (y) = 0.04046 0.35917
# Poissons Ratio (z) = 0.35984 0.51501
#
# Static dielectric constant tensor:
#      x y z
#    x 2.131440 0.000000 0.000000 
#    y 0.000000 1.963140 0.000000 
#    z 0.000000 0.000000 2.073710 
# 
# From -- ./inp_files/10164.got.cif
#   From: 2010.05.17/outbox.cif.g08.bks.cpg/sg73_6_cif.got.tgz:10164.got - 2010.06.03 17:35:07.
