data_PCOD9533639
_publ_section_title
;
Structure prediction by ZEFSAII (Michael W. Deem and Ramdas Pophale) SiO2 
 PCOD9533639
Probable space group: I B C A 
;
_chemical_formula_sum "Si O2"
_cell_formula_units_Z 56
_cell_length_a 8.914760
_cell_length_b 10.936648
_cell_length_c 20.450702
_cell_angle_alpha 90.000000
_cell_angle_beta 90.000000
_cell_angle_gamma 90.000000
_cell_volume 1993.894202
_symmetry_space_group_name_H-M "I B C A "
_symmetry_group_IT_number 73
_symmetry_cell_setting 'orthorhombic'
loop_
_space_group_symop_operation_xyz
x,y,z
-x,1/2-y,z
x,-y,1/2-z
1/2-x,y,-z
-x,-y,-z
x,1/2+y,-z
-x,y,1/2+z
1/2+x,-y,z
1/2+x,1/2+y,1/2+z
1/2-x,-y,1/2+z
1/2+x,1/2-y,-z
-x,1/2+y,1/2-z
1/2-x,1/2-y,1/2-z
1/2+x,y,1/2-z
1/2-x,1/2+y,z
x,1/2-y,1/2+z
loop_
_atom_site_type_symbol
_atom_site_label
_atom_site_fract_x
_atom_site_fract_y
_atom_site_fract_z
Si Si1 0.758857 0.500000 0.250000
Si Si2 0.255296 0.837409 0.924005
Si Si3 0.672797 0.204970 0.698749
Si Si4 0.500619 0.509108 0.140883
O O1 0.737650 0.659680 0.225543
O O2 0.624215 0.447987 0.191063
O O3 0.279087 0.721620 0.877692
O O4 0.099601 0.901649 0.902791
O O5 0.398267 0.923409 0.905257
O O6 0.250000 0.808975 0.000000
O O7 0.500000 0.250000 0.704824
O O8 0.885105 0.054175 0.695101
#
# Coordination Sequence:
#
# PCOD9533639 Si02
#       4
#     8  16  16  16
#     4  12  24  46  76 114 146 194 262 324 386 430
#     4  12  28  49  76 111 157 207 255 312 397 472
#     4  12  24  48  76 112 146 196 260 320 383 455
#     4  12  25  50  73 112 155 197 254 327 378 463
#
# _framework density 28.085743999999998
#
# number of rings (size 3 to 8) (size 9 to 14) (size 15 to 20)
#    0.000    0.000    5.714    4.286    0.000    4.571 
#   10.286    0.000    0.000    0.000    0.000    0.000 
#    0.000    0.000    0.000    0.000    0.000    0.000 
#
# Total GULP energy -156678.002787 kJ/mol
# GULP energy per Si atom -5595.642957 kJ/mol
# Density = 2.802182 g / cm^3
# Si number density = 28.085744 Si / 1000 Ang^3
#
#
#
# Elastic Constant Matrix: (Units=GPa)
#
#
# Indices 1 2 3 4 5 6 
#
# 1 172.4159 24.1761 74.4062 0.0000 0.0000 0.0000
# 2 24.1761 188.2620 96.1310 0.0000 0.0000 0.0000
# 3 74.4062 96.1310 307.2148 0.0000 0.0000 0.0000
# 4 0.0000 0.0000 0.0000 45.0374 0.0000 0.0000
# 5 0.0000 0.0000 0.0000 0.0000 49.4031 0.0000
# 6 0.0000 0.0000 0.0000 0.0000 0.0000 50.4339
#
#
#
# Elastic Compliance Matrix: (Units=1/GPa)
#
#
# Indices 1 2 3 4 5 6 
#
# 1 0.006477 -0.000037 -0.001557 0.000000 0.000000 0.000000
# 2 -0.000037 0.006322 -0.001969 0.000000 0.000000 0.000000
# 3 -0.001557 -0.001969 0.004248 0.000000 0.000000 0.000000
# 4 0.000000 0.000000 0.000000 0.022204 0.000000 0.000000
# 5 0.000000 0.000000 0.000000 0.000000 0.020242 0.000000
# 6 0.000000 0.000000 0.000000 0.000000 0.000000 0.019828
#
#
# Mechanical properties :
#
#
# Convention : Reuss Voigt Hill
#
# Bulk Modulus (GPa) = 100.79507 117.47992 109.13749
# Shear Modulus (GPa) = 55.70753 60.52019 58.11386
#
# Velocity S-wave (km/s) = 4.45846 4.64706 4.55374
# Velocity P-wave (km/s) = 7.90380 8.40912 8.16037
#
# Compressibility (1/GPa) = 0.00992112
#
# Stress axis : x y z
#
# Youngs Moduli (GPa) = 154.38998 158.17639 235.37940
#
# Poissons Ratio (x) = 0.00579 0.36655
# Poissons Ratio (y) = 0.00565 0.46355
# Poissons Ratio (z) = 0.24043 0.31151
#
# Static dielectric constant tensor:
#      x y z
#    x 2.130030 0.000000 0.000000 
#    y 0.000000 2.559720 0.000000 
#    z 0.000000 0.000000 1.983600 
# 
# From -- ./inp_files/18386.got.cif
#   From: 2010.05.17/outbox.cif.g08.bks.cpg/sg73_10_cif.got.tgz:18386.got - 2010.06.03 17:35:07.
