data_PCOD9533580
_publ_section_title
;
Structure prediction by ZEFSAII (Michael W. Deem and Ramdas Pophale) SiO2 
 PCOD9533580
Probable space group: I B C A 
;
_chemical_formula_sum "Si O2"
_cell_formula_units_Z 48
_cell_length_a 11.792632
_cell_length_b 12.273093
_cell_length_c 13.569682
_cell_angle_alpha 90.000000
_cell_angle_beta 90.000000
_cell_angle_gamma 90.000000
_cell_volume 1963.968155
_symmetry_space_group_name_H-M "I B C A "
_symmetry_group_IT_number 73
_symmetry_cell_setting 'orthorhombic'
loop_
_space_group_symop_operation_xyz
x,y,z
-x,1/2-y,z
x,-y,1/2-z
1/2-x,y,-z
-x,-y,-z
x,1/2+y,-z
-x,y,1/2+z
1/2+x,-y,z
1/2+x,1/2+y,1/2+z
1/2-x,-y,1/2+z
1/2+x,1/2-y,-z
-x,1/2+y,1/2-z
1/2-x,1/2-y,1/2-z
1/2+x,y,1/2-z
1/2-x,1/2+y,z
x,1/2-y,1/2+z
loop_
_atom_site_type_symbol
_atom_site_label
_atom_site_fract_x
_atom_site_fract_y
_atom_site_fract_z
Si Si1 0.750000 0.409922 0.500000
Si Si2 0.394103 0.399290 0.438173
Si Si3 0.181697 0.281595 0.373965
Si Si4 0.000000 0.750000 0.792934
O O1 0.636299 0.482769 0.517050
O O2 0.755570 0.328895 0.407133
O O3 0.278484 0.373360 0.376138
O O4 0.394142 0.320345 0.533010
O O5 0.486555 0.356679 0.361929
O O6 0.106838 0.266194 0.278821
#
# Coordination Sequence:
#
# PCOD9533580 Si02
#       4
#     8  16  16   8
#     4   8  18  42  62  78 122 178 208 252 340 414
#     4   9  20  39  59  83 125 170 211 271 339 396
#     4   9  20  39  59  83 125 170 211 271 339 396
#     4  12  20  34  60  92 118 156 218 276 322 388
#
# _framework density 24.440315999999999
#
# number of rings (size 3 to 8) (size 9 to 14) (size 15 to 20)
#    0.000    3.333    0.000    2.000    0.000    1.333 
#    0.000   43.333    0.000    0.000    0.000    0.000 
#    0.000    0.000    0.000    0.000    0.000    0.000 
#
# Total GULP energy -133840.001823 kJ/mol
# GULP energy per Si atom -5576.666743 kJ/mol
# Density = 2.438469 g / cm^3
# Si number density = 24.440316 Si / 1000 Ang^3
#
#
#
# Elastic Constant Matrix: (Units=GPa)
#
#
# Indices 1 2 3 4 5 6 
#
# 1 73.1960 28.9616 59.7305 0.0000 0.0000 0.0000
# 2 28.9616 95.0192 40.8278 0.0000 0.0000 0.0000
# 3 59.7305 40.8278 165.0871 0.0000 0.0000 0.0000
# 4 0.0000 0.0000 0.0000 23.5689 0.0000 0.0000
# 5 0.0000 0.0000 0.0000 0.0000 73.9925 0.0000
# 6 0.0000 0.0000 0.0000 0.0000 0.0000 26.3612
#
#
#
# Elastic Compliance Matrix: (Units=1/GPa)
#
#
# Indices 1 2 3 4 5 6 
#
# 1 0.020320 -0.003395 -0.006512 0.000000 0.000000 0.000000
# 2 -0.003395 0.012343 -0.001824 0.000000 0.000000 0.000000
# 3 -0.006512 -0.001824 0.008865 0.000000 0.000000 0.000000
# 4 0.000000 0.000000 0.000000 0.042429 0.000000 0.000000
# 5 0.000000 0.000000 0.000000 0.000000 0.013515 0.000000
# 6 0.000000 0.000000 0.000000 0.000000 0.000000 0.037934
#
#
# Mechanical properties :
#
#
# Convention : Reuss Voigt Hill
#
# Bulk Modulus (GPa) = 55.35834 65.81577 60.58705
# Shear Modulus (GPa) = 30.32335 38.37002 34.34668
#
# Velocity S-wave (km/s) = 3.52619 3.96656 3.75284
# Velocity P-wave (km/s) = 6.26724 6.92573 6.60470
#
# Compressibility (1/GPa) = 0.01806413
#
# Stress axis : x y z
#
# Youngs Moduli (GPa) = 49.21380 81.01893 112.80685
#
# Poissons Ratio (x) = 0.27507 0.73462
# Poissons Ratio (y) = 0.16709 0.20577
# Poissons Ratio (z) = 0.32049 0.14779
#
# Static dielectric constant tensor:
#      x y z
#    x 2.046010 0.000000 0.000000 
#    y 0.000000 1.988700 0.000000 
#    z 0.000000 0.000000 1.905280 
# 
# From -- ./inp_files/10139.got.cif
#   From: 2010.05.17/outbox.cif.g08.bks.cpg/sg73_6_cif.got.tgz:10139.got - 2010.06.03 17:35:07.
