data_PCOD9533267
_publ_section_title
;
Structure prediction by ZEFSAII (Michael W. Deem and Ramdas Pophale) SiO2 
 PCOD9533267
Probable space group: I B C A 
;
_chemical_formula_sum "Si O2"
_cell_formula_units_Z 88
_cell_length_a 21.014856
_cell_length_b 13.252452
_cell_length_c 13.445220
_cell_angle_alpha 90.000000
_cell_angle_beta 90.000000
_cell_angle_gamma 90.000000
_cell_volume 3744.471860
_symmetry_space_group_name_H-M "I B C A "
_symmetry_group_IT_number 73
_symmetry_cell_setting 'orthorhombic'
loop_
_space_group_symop_operation_xyz
x,y,z
-x,1/2-y,z
x,-y,1/2-z
1/2-x,y,-z
-x,-y,-z
x,1/2+y,-z
-x,y,1/2+z
1/2+x,-y,z
1/2+x,1/2+y,1/2+z
1/2-x,-y,1/2+z
1/2+x,1/2-y,-z
-x,1/2+y,1/2-z
1/2-x,1/2-y,1/2-z
1/2+x,y,1/2-z
1/2-x,1/2+y,z
x,1/2-y,1/2+z
loop_
_atom_site_type_symbol
_atom_site_label
_atom_site_fract_x
_atom_site_fract_y
_atom_site_fract_z
Si Si1 0.858058 0.854722 0.486550
Si Si2 0.269798 0.401335 0.314918
Si Si3 0.396545 0.284486 0.316187
Si Si4 0.750000 0.012083 0.000000
Si Si5 0.634480 0.679494 0.368567
Si Si6 0.567277 0.457191 0.963922
O O1 0.897852 0.802624 0.399793
O O2 0.797844 0.914439 0.443017
O O3 0.837534 0.766456 0.560128
O O4 0.894458 0.938590 0.550297
O O5 0.280410 0.500000 0.250000
O O6 0.323003 0.318027 0.295888
O O7 0.284865 0.438236 0.426121
O O8 0.195675 0.371346 0.316538
O O9 0.412672 0.231981 0.211425
O O10 0.430292 0.381416 0.368436
O O11 0.597897 0.603190 0.442130
O O12 0.500000 0.500000 0.000000
#
# Coordination Sequence:
#
# PCOD9533267 Si02
#       6
#    16  16  16   8  16  16
#     4  11  22  42  68  95 142 174 231 280 349 414
#     4  12  22  38  68 104 143 176 220 280 353 425
#     4  11  24  42  68 104 138 180 229 284 350 413
#     4  12  18  36  66  96 134 184 206 272 360 410
#     4  11  24  42  68 104 138 180 229 284 350 413
#     4  11  26  48  71  94 136 187 237 285 335 405
#
# _framework density 23.501313
#
# number of rings (size 3 to 8) (size 9 to 14) (size 15 to 20)
#    0.000    0.727    3.636    4.909    0.000    2.909 
#    0.000    5.455    0.000    0.000    0.000    0.000 
#    0.000    0.000    0.000    0.000    0.000    0.000 
#
# Total GULP energy -245753.286464 kJ/mol
# GULP energy per Si atom -5585.301965 kJ/mol
# Density = 2.344782 g / cm^3
# Si number density = 23.501313 Si / 1000 Ang^3
#
#
#
# Elastic Constant Matrix: (Units=GPa)
#
#
# Indices 1 2 3 4 5 6 
#
# 1 74.5294 25.8692 -6.5577 0.0000 0.0000 0.0000
# 2 25.8692 128.1366 31.5778 0.0000 0.0000 0.0000
# 3 -6.5577 31.5778 93.1242 0.0000 0.0000 0.0000
# 4 0.0000 0.0000 0.0000 49.7307 0.0000 0.0000
# 5 0.0000 0.0000 0.0000 0.0000 12.1367 0.0000
# 6 0.0000 0.0000 0.0000 0.0000 0.0000 7.7075
#
#
#
# Elastic Compliance Matrix: (Units=1/GPa)
#
#
# Indices 1 2 3 4 5 6 
#
# 1 0.014848 -0.003552 0.002250 0.000000 0.000000 0.000000
# 2 -0.003552 0.009366 -0.003426 0.000000 0.000000 0.000000
# 3 0.002250 -0.003426 0.012059 0.000000 0.000000 0.000000
# 4 0.000000 0.000000 0.000000 0.020108 0.000000 0.000000
# 5 0.000000 0.000000 0.000000 0.000000 0.082394 0.000000
# 6 0.000000 0.000000 0.000000 0.000000 0.000000 0.129743
#
#
# Mechanical properties :
#
#
# Convention : Reuss Voigt Hill
#
# Bulk Modulus (GPa) = 37.29045 44.17431 40.73238
# Shear Modulus (GPa) = 17.42684 30.24171 23.83428
#
# Velocity S-wave (km/s) = 2.72605 3.59110 3.18806
# Velocity P-wave (km/s) = 5.08039 6.00267 5.56068
#
# Compressibility (1/GPa) = 0.02681652
#
# Stress axis : x y z
#
# Youngs Moduli (GPa) = 67.34689 106.77348 82.92884
#
# Poissons Ratio (x) = 0.37929 -0.18660
# Poissons Ratio (y) = 0.23923 0.28411
# Poissons Ratio (z) = -0.15154 0.36580
#
# Static dielectric constant tensor:
#      x y z
#    x 2.006640 0.000000 0.000000 
#    y 0.000000 1.872180 0.000000 
#    z 0.000000 0.000000 2.004440 
# 
# From -- ./inp_files/10967.got.cif
#   From: 2010.05.17/outbox.cif.g08.bks.cpg/sg73_6_cif.got.tgz:10967.got - 2010.06.03 17:35:07.
