data_PCOD9533357
_publ_section_title
;
Structure prediction by ZEFSAII (Michael W. Deem and Ramdas Pophale) SiO2 
 PCOD9533357
Probable space group: I B C A 
;
_chemical_formula_sum "Si O2"
_cell_formula_units_Z 104
_cell_length_a 21.292144
_cell_length_b 9.130785
_cell_length_c 22.306514
_cell_angle_alpha 90.000000
_cell_angle_beta 90.000000
_cell_angle_gamma 90.000000
_cell_volume 4336.698369
_symmetry_space_group_name_H-M "I B C A "
_symmetry_group_IT_number 73
_symmetry_cell_setting 'orthorhombic'
loop_
_space_group_symop_operation_xyz
x,y,z
-x,1/2-y,z
x,-y,1/2-z
1/2-x,y,-z
-x,-y,-z
x,1/2+y,-z
-x,y,1/2+z
1/2+x,-y,z
1/2+x,1/2+y,1/2+z
1/2-x,-y,1/2+z
1/2+x,1/2-y,-z
-x,1/2+y,1/2-z
1/2-x,1/2-y,1/2-z
1/2+x,y,1/2-z
1/2-x,1/2+y,z
x,1/2-y,1/2+z
loop_
_atom_site_type_symbol
_atom_site_label
_atom_site_fract_x
_atom_site_fract_y
_atom_site_fract_z
Si Si1 0.556038 0.000000 0.750000
Si Si2 0.772786 0.842803 0.649220
Si Si3 0.000000 0.750000 0.159767
Si Si4 0.948651 0.583043 0.043598
Si Si5 0.352079 0.500000 0.250000
Si Si6 0.116132 0.710937 0.952878
Si Si7 0.747248 0.617877 0.565054
Si Si8 0.371952 0.232862 0.324663
O O1 0.523403 0.878855 0.794200
O O2 0.600955 0.900920 0.710384
O O3 0.796798 0.718376 0.602135
O O4 0.703785 0.785376 0.669772
O O5 0.812844 0.889479 0.706991
O O6 0.767064 0.991532 0.612033
O O7 0.035432 0.852308 0.109172
O O8 0.895308 0.461102 0.049011
O O9 0.921188 0.716244 0.005604
O O10 0.000000 0.500000 0.000000
O O11 0.387480 0.387513 0.293328
O O12 0.190723 0.730410 0.951494
O O13 0.095535 0.772982 0.889313
O O14 0.750000 0.544818 0.500000
#
# Coordination Sequence:
#
# PCOD9533357 Si02
#       8
#     8  16   8  16   8  16  16  16
#     4  12  31  47  76 104 148 192 252 311 379 476
#     4  11  23  44  65 102 144 196 243 290 357 426
#     4  12  30  52  76 110 142 202 236 332 392 458
#     4  12  25  50  78 108 140 186 249 321 391 449
#     4  12  23  45  70 102 146 200 236 299 351 434
#     4  11  26  45  74 108 141 189 243 307 377 453
#     4  11  26  41  67 102 150 194 239 302 358 433
#     4  11  27  45  71 107 143 193 250 298 365 453
#
# _framework density 23.981376000000001
#
# number of rings (size 3 to 8) (size 9 to 14) (size 15 to 20)
#    0.000    0.615    4.615    2.308   12.923    0.000 
#    0.000    0.000    0.000    0.000    0.000    0.000 
#    0.000    0.000    0.000    0.000    0.000    0.000 
#
# Total GULP energy -289915.421370 kJ/mol
# GULP energy per Si atom -5575.296565 kJ/mol
# Density = 2.392679 g / cm^3
# Si number density = 23.981376 Si / 1000 Ang^3
#
#
#
# Elastic Constant Matrix: (Units=GPa)
#
#
# Indices 1 2 3 4 5 6 
#
# 1 33.4897 23.7058 19.7367 0.0000 0.0000 0.0000
# 2 23.7058 116.2913 39.0483 0.0000 0.0000 0.0000
# 3 19.7367 39.0483 151.2693 0.0000 0.0000 0.0000
# 4 0.0000 0.0000 0.0000 64.6128 0.0000 0.0000
# 5 0.0000 0.0000 0.0000 0.0000 8.5369 0.0000
# 6 0.0000 0.0000 0.0000 0.0000 0.0000 85.0505
#
#
#
# Elastic Compliance Matrix: (Units=1/GPa)
#
#
# Indices 1 2 3 4 5 6 
#
# 1 0.036162 -0.006337 -0.003082 0.000000 0.000000 0.000000
# 2 -0.006337 0.010525 -0.001890 0.000000 0.000000 0.000000
# 3 -0.003082 -0.001890 0.007501 0.000000 0.000000 0.000000
# 4 0.000000 0.000000 0.000000 0.015477 0.000000 0.000000
# 5 0.000000 0.000000 0.000000 0.000000 0.117138 0.000000
# 6 0.000000 0.000000 0.000000 0.000000 0.000000 0.011758
#
#
# Mechanical properties :
#
#
# Convention : Reuss Voigt Hill
#
# Bulk Modulus (GPa) = 31.67595 51.78133 41.72864
# Shear Modulus (GPa) = 21.57936 46.21067 33.89501
#
# Velocity S-wave (km/s) = 3.00298 4.39445 3.76359
# Velocity P-wave (km/s) = 5.02604 6.88386 6.02697
#
# Compressibility (1/GPa) = 0.03156969
#
# Stress axis : x y z
#
# Youngs Moduli (GPa) = 27.65343 95.00736 133.31795
#
# Poissons Ratio (x) = 0.60201 0.41095
# Poissons Ratio (y) = 0.17523 0.25201
# Poissons Ratio (z) = 0.08524 0.17959
#
# Static dielectric constant tensor:
#      x y z
#    x 2.051290 0.000000 0.000000 
#    y 0.000000 1.885480 0.000000 
#    z 0.000000 0.000000 1.964780 
# 
# From -- ./inp_files/7914.got.cif
#   From: 2010.05.17/outbox.cif.g08.bks.cpg/sg73_4_cif.got.tgz:7914.got - 2010.06.03 17:35:07.
