data_PCOD9533763
_publ_section_title
;
Structure prediction by ZEFSAII (Michael W. Deem and Ramdas Pophale) SiO2 
 PCOD9533763
Probable space group: I B C A 
;
_chemical_formula_sum "Si O2"
_cell_formula_units_Z 56
_cell_length_a 12.000000
_cell_length_b 30.000000
_cell_length_c 15.000000
_cell_angle_alpha 90.000000
_cell_angle_beta 90.000000
_cell_angle_gamma 90.000000
_cell_volume 5400.000000
_symmetry_space_group_name_H-M "I B C A "
_symmetry_group_IT_number 73
_symmetry_cell_setting 'orthorhombic'
loop_
_space_group_symop_operation_xyz
x,y,z
-x,1/2-y,z
x,-y,1/2-z
1/2-x,y,-z
-x,-y,-z
x,1/2+y,-z
-x,y,1/2+z
1/2+x,-y,z
1/2+x,1/2+y,1/2+z
1/2-x,-y,1/2+z
1/2+x,1/2-y,-z
-x,1/2+y,1/2-z
1/2-x,1/2-y,1/2-z
1/2+x,y,1/2-z
1/2-x,1/2+y,z
x,1/2-y,1/2+z
loop_
_atom_site_type_symbol
_atom_site_label
_atom_site_fract_x
_atom_site_fract_y
_atom_site_fract_z
Si Si1 0.262940 0.087828 0.393241
Si Si2 0.625115 0.273051 0.747401
Si Si3 0.920689 0.874967 0.058069
Si Si4 0.319176 0.138419 0.863799
Si Si5 0.007165 0.060058 0.168044
Si Si6 0.036135 0.539275 0.630105
Si Si7 0.840761 0.825484 0.578910
O O1 0.250000 0.089749 0.500000
O O2 0.389882 0.079130 0.367594
O O3 0.224470 0.136901 0.362935
O O4 0.166984 0.052988 0.366518
O O5 0.500000 0.250000 0.766957
O O6 0.750000 0.250000 0.750000
O O7 0.640227 0.317406 0.810088
O O8 0.624605 0.285778 0.643049
O O9 0.817347 0.866686 0.128734
O O10 0.965225 0.926275 0.068731
O O11 0.038903 0.848219 0.058525
O O12 0.864744 0.861292 0.965195
O O13 0.388616 0.094481 0.831532
O O14 0.989434 0.048270 0.271304
O O15 0.028636 0.013685 0.115339
O O16 0.750000 0.814419 0.500000
#
# Coordination Sequence:
#
# PCOD9533763 Si02
#       7
#    16  16  16  16  16  16  16
#     4  10  22  40  66  95 133 184 237 283 351 435
#     4  12  29  49  74 111 140 182 241 306 373 456
#     4  10  23  43  68 106 140 183 237 287 347 442
#     4  11  24  44  71  99 142 185 232 298 370 422
#     4  11  24  38  69  94 143 191 232 294 349 423
#     4  10  24  39  60 105 139 185 241 286 345 419
#     4  10  22  46  74  98 139 183 230 286 368 431
#
# _framework density 10.370369999999999
#
# number of rings (size 3 to 8) (size 9 to 14) (size 15 to 20)
#    0.000    1.429    0.000    5.143   10.000    3.429 
#    5.143    0.000    0.000    0.000    0.000    0.000 
#    0.000    0.000    0.000    0.000    0.000    0.000 
#
# Total GULP energy -311870.241203 kJ/mol
# GULP energy per Si atom -5569.111450 kJ/mol
# Density = 1.034677 g / cm^3
# Si number density = 10.370370 Si / 1000 Ang^3
#
#
#
# Elastic Constant Matrix: (Units=GPa)
#
#
# Indices 1 2 3 4 5 6 
#
# 1 175.0390 57.3737 35.3031 0.0000 0.0000 0.0000
# 2 57.3737 101.5225 40.6580 0.0000 0.0000 0.0000
# 3 35.3031 40.6580 74.6860 0.0002 -0.0001 0.0000
# 4 0.0000 0.0000 0.0002 33.4292 -0.0001 0.0000
# 5 0.0000 0.0000 -0.0001 -0.0001 41.8917 0.0000
# 6 0.0000 0.0000 0.0000 0.0000 0.0000 37.2551
#
#
#
# Elastic Compliance Matrix: (Units=1/GPa)
#
#
# Indices 1 2 3 4 5 6 
#
# 1 0.007142 -0.003433 -0.001507 0.000000 0.000000 0.000000
# 2 -0.003433 0.014246 -0.006133 0.000000 0.000000 0.000000
# 3 -0.001507 -0.006133 0.017440 0.000000 0.000000 0.000000
# 4 0.000000 0.000000 0.000000 0.029914 0.000000 0.000000
# 5 0.000000 0.000000 0.000000 0.000000 0.023871 0.000000
# 6 0.000000 0.000000 0.000000 0.000000 0.000000 0.026842
#
#
# Mechanical properties :
#
#
# Convention : Reuss Voigt Hill
#
# Bulk Modulus (GPa) = 59.94052 68.65742 64.29897
# Shear Modulus (GPa) = 33.97614 37.04271 35.50943
#
# Velocity S-wave (km/s) = 4.05178 4.23068 4.14220
# Velocity P-wave (km/s) = 7.13105 7.55244 7.34477
#
# Compressibility (1/GPa) = 0.01668321
#
# Stress axis : x y z
#
# Youngs Moduli (GPa) = 140.01395 70.19528 57.33788
#
# Poissons Ratio (x) = 0.24095 0.08643
# Poissons Ratio (y) = 0.48061 0.35164
# Poissons Ratio (z) = 0.21105 0.43049
#
# Static dielectric constant tensor:
#      x y z
#    x 1.736890 0.000000 0.000000 
#    y 0.000000 1.809540 0.000000 
#    z 0.000000 0.000000 1.826710 
# 
# From -- ./inp_files/16320.got.cif
#   From: 2010.05.17/outbox.ucp.g08.bks.cvg/sg73_9_cif.got.tgz:16320.got - 2010.06.11 16:36:03.
