data_PCOD9533982
_publ_section_title
;
Structure prediction by ZEFSAII (Michael W. Deem and Ramdas Pophale) SiO2 
 PCOD9533982
Probable space group: I M M A
;
_chemical_formula_sum "Si O2"
_cell_formula_units_Z 96
_cell_length_a 21.335686
_cell_length_b 20.037076
_cell_length_c 13.624009
_cell_angle_alpha 90.000000
_cell_angle_beta 90.000000
_cell_angle_gamma 90.000000
_cell_volume 5824.328724
_symmetry_space_group_name_H-M "I M M A"
_symmetry_group_IT_number 74
_symmetry_cell_setting 'orthorhombic'
loop_
_space_group_symop_operation_xyz
x,y,z
-x,1/2-y,z
x,-y,-z
-x,1/2+y,-z
-x,-y,-z
x,1/2+y,-z
-x,y,z
x,1/2-y,z
1/2+x,1/2+y,1/2+z
1/2-x,-y,1/2+z
1/2+x,1/2-y,1/2-z
1/2-x,y,1/2-z
1/2-x,1/2-y,1/2-z
1/2+x,y,1/2-z
1/2-x,1/2+y,1/2+z
1/2+x,-y,1/2+z
loop_
_atom_site_type_symbol
_atom_site_label
_atom_site_fract_x
_atom_site_fract_y
_atom_site_fract_z
Si Si1 0.430136 0.959603 0.603289
Si Si2 0.271188 0.889348 0.485980
Si Si3 0.432247 0.168948 0.727380
Si Si4 0.098000 0.326691 0.996425
Si Si5 0.805938 0.330007 0.672683
Si Si6 0.205386 0.513498 0.843372
O O1 0.500000 0.974880 0.641358
O O2 0.425798 0.881805 0.572309
O O3 0.369392 0.974934 0.669670
O O4 0.422370 0.000000 0.500000
O O5 0.326919 0.835597 0.489418
O O6 0.211111 0.858035 0.433929
O O7 0.268376 0.924822 0.591137
O O8 0.290607 0.948371 0.411602
O O9 0.500000 0.145693 0.763821
O O10 0.430866 0.250000 0.733993
O O11 0.426627 0.154567 0.611802
O O12 0.371286 0.143780 0.784046
O O13 0.081450 0.250000 0.017324
O O14 0.808898 0.250000 0.667274
O O15 0.750000 0.345201 0.750000
O O16 0.250000 0.506090 0.750000
#
# Coordination Sequence:
#
# PCOD9533982 Si02
#       6
#    16  16  16  16  16  16
#     4  10  19  33  50  73 102 132 167 205 252 309
#     4  10  18  31  48  72  95 127 163 205 245 299
#     4   9  17  26  38  66 103 130 153 187 240 304
#     4  10  17  28  47  74 104 129 154 197 259 316
#     4  10  17  26  45  69  94 126 159 197 249 308
#     4  10  20  34  51  70  96 132 172 204 246 295
#
# _framework density 16.482586000000001
#
# number of rings (size 3 to 8) (size 9 to 14) (size 15 to 20)
#    0.000    2.167    5.000    1.500    0.000    1.000 
#    0.000    0.000    0.000   13.500    0.000    2.333 
#    0.000    0.000    0.000    0.000    0.000    0.000 
#
# Total GULP energy -267500.977971 kJ/mol
# GULP energy per Si atom -5572.937041 kJ/mol
# Density = 1.644507 g / cm^3
# Si number density = 16.482586 Si / 1000 Ang^3
#
#
#
# Elastic Constant Matrix: (Units=GPa)
#
#
# Indices 1 2 3 4 5 6 
#
# 1 118.3589 14.4448 27.6788 0.0000 0.0000 0.0000
# 2 14.4448 52.3767 9.6838 0.0000 0.0000 0.0000
# 3 27.6788 9.6838 34.0054 0.0000 0.0000 0.0000
# 4 0.0000 0.0000 0.0000 19.1748 0.0000 0.0000
# 5 0.0000 0.0000 0.0000 0.0000 17.4665 0.0000
# 6 0.0000 0.0000 0.0000 0.0000 0.0000 9.1358
#
#
#
# Elastic Compliance Matrix: (Units=1/GPa)
#
#
# Indices 1 2 3 4 5 6 
#
# 1 0.010531 -0.001393 -0.008175 0.000000 0.000000 0.000000
# 2 -0.001393 0.020338 -0.004658 0.000000 0.000000 0.000000
# 3 -0.008175 -0.004658 0.037387 0.000000 0.000000 0.000000
# 4 0.000000 0.000000 0.000000 0.052152 0.000000 0.000000
# 5 0.000000 0.000000 0.000000 0.000000 0.057252 0.000000
# 6 0.000000 0.000000 0.000000 0.000000 0.000000 0.109459
#
#
# Mechanical properties :
#
#
# Convention : Reuss Voigt Hill
#
# Bulk Modulus (GPa) = 25.12265 34.26176 29.69220
# Shear Modulus (GPa) = 15.20504 19.35100 17.27802
#
# Velocity S-wave (km/s) = 3.04055 3.43012 3.24120
# Velocity P-wave (km/s) = 5.25372 6.04313 5.66220
#
# Compressibility (1/GPa) = 0.03980472
#
# Stress axis : x y z
#
# Youngs Moduli (GPa) = 94.96166 49.16958 26.74696
#
# Poissons Ratio (x) = 0.06848 0.21865
# Poissons Ratio (y) = 0.13226 0.12459
# Poissons Ratio (z) = 0.77629 0.22903
#
# Static dielectric constant tensor:
#      x y z
#    x 1.606720 0.000000 0.000000 
#    y 0.000000 1.595970 0.000000 
#    z 0.000000 0.000000 1.533050 
# 
# From -- ./inp_files/35600.got.cif
#   From: 2010.05.17/outbox.cif.g08.bks.cpg/sg74_18_cif.got.tgz:35600.got - 2010.06.03 17:57:02.
