data_PCOD9533064
_publ_section_title
;
Structure prediction by ZEFSAII (Michael W. Deem and Ramdas Pophale) SiO2 
 PCOD9533064
Probable space group: I B C A 
;
_chemical_formula_sum "Si O2"
_cell_formula_units_Z 120
_cell_length_a 18.238964
_cell_length_b 11.362868
_cell_length_c 26.090725
_cell_angle_alpha 90.000000
_cell_angle_beta 90.000000
_cell_angle_gamma 90.000000
_cell_volume 5407.222929
_symmetry_space_group_name_H-M "I B C A "
_symmetry_group_IT_number 73
_symmetry_cell_setting 'orthorhombic'
loop_
_space_group_symop_operation_xyz
x,y,z
-x,1/2-y,z
x,-y,1/2-z
1/2-x,y,-z
-x,-y,-z
x,1/2+y,-z
-x,y,1/2+z
1/2+x,-y,z
1/2+x,1/2+y,1/2+z
1/2-x,-y,1/2+z
1/2+x,1/2-y,-z
-x,1/2+y,1/2-z
1/2-x,1/2-y,1/2-z
1/2+x,y,1/2-z
1/2-x,1/2+y,z
x,1/2-y,1/2+z
loop_
_atom_site_type_symbol
_atom_site_label
_atom_site_fract_x
_atom_site_fract_y
_atom_site_fract_z
Si Si1 0.308920 0.283859 0.927665
Si Si2 0.645145 0.240470 0.534765
Si Si3 0.574901 0.565577 0.912674
Si Si4 0.075748 0.793505 0.187420
Si Si5 0.367286 0.500000 0.250000
Si Si6 0.193471 0.413153 0.650098
Si Si7 0.346667 0.557001 0.806902
Si Si8 0.587434 0.994624 0.908053
O O1 0.222653 0.287746 0.941973
O O2 0.310508 0.214983 0.874264
O O3 0.357894 0.400688 0.924212
O O4 0.342006 0.209594 0.975372
O O5 0.595395 0.357446 0.538002
O O6 0.616709 0.126369 0.565500
O O7 0.565634 0.671768 0.871497
O O8 0.640441 0.489661 0.886820
O O9 0.499257 0.495954 0.920209
O O10 0.089630 0.915495 0.213905
O O11 0.138196 0.696974 0.196835
O O12 0.000000 0.750000 0.209578
O O13 0.326720 0.416313 0.290088
O O14 0.275590 0.462526 0.656720
O O15 0.343215 0.500000 0.750000
O O16 0.410155 0.513795 0.845544
#
# Coordination Sequence:
#
# PCOD9533064 Si02
#       8
#    16  16  16  16   8  16  16  16
#     4  11  27  43  74 107 144 188 244 310 358 434
#     4  11  24  46  74 103 141 196 242 295 371 438
#     4  11  23  46  74  98 145 192 238 299 370 439
#     4  11  22  43  68  97 135 185 233 285 360 431
#     4  10  26  42  66  96 140 186 228 292 364 428
#     4  11  24  48  66 102 144 183 238 302 361 427
#     4  12  25  42  77 106 140 189 246 298 362 446
#     4  12  25  47  72 108 146 188 246 302 367 449
#
# _framework density 22.192537999999999
#
# number of rings (size 3 to 8) (size 9 to 14) (size 15 to 20)
#    0.000    0.800    4.667    1.200    4.667    3.733 
#    2.400    0.000    0.000    0.000    0.000    0.000 
#    0.000    0.000    0.000    0.000    0.000    0.000 
#
# Total GULP energy -334546.283114 kJ/mol
# GULP energy per Si atom -5575.771385 kJ/mol
# Density = 2.214203 g / cm^3
# Si number density = 22.192538 Si / 1000 Ang^3
#
#
#
# Elastic Constant Matrix: (Units=GPa)
#
#
# Indices 1 2 3 4 5 6 
#
# 1 100.4687 27.3892 19.4077 0.0000 0.0000 0.0000
# 2 27.3892 70.9501 27.6728 0.0000 0.0000 0.0000
# 3 19.4077 27.6728 102.9776 0.0000 0.0000 0.0000
# 4 0.0000 0.0000 0.0000 1303.3146 0.0000 0.0000
# 5 0.0000 0.0000 0.0000 0.0000 6.2143 0.0000
# 6 0.0000 0.0000 0.0000 0.0000 0.0000 37.0453
#
#
#
# Elastic Compliance Matrix: (Units=1/GPa)
#
#
# Indices 1 2 3 4 5 6 
#
# 1 0.011227 -0.003920 -0.001063 0.000000 0.000000 0.000000
# 2 -0.003920 0.017113 -0.003860 0.000000 0.000000 0.000000
# 3 -0.001063 -0.003860 0.010948 0.000000 0.000000 0.000000
# 4 0.000000 0.000000 0.000000 0.000767 0.000000 0.000000
# 5 0.000000 0.000000 0.000000 0.000000 0.160919 0.000000
# 6 0.000000 0.000000 0.000000 0.000000 0.000000 0.026994
#
#
# Mechanical properties :
#
#
# Convention : Reuss Voigt Hill
#
# Bulk Modulus (GPa) = 46.28751 47.03731 46.66241
# Shear Modulus (GPa) = 19.77420 282.64330 151.20875
#
# Velocity S-wave (km/s) = 2.98825 11.29761 8.26334
# Velocity P-wave (km/s) = 5.72789 13.83555 10.58847
#
# Compressibility (1/GPa) = 0.02160410
#
# Stress axis : x y z
#
# Youngs Moduli (GPa) = 89.06975 58.43490 91.33749
#
# Poissons Ratio (x) = 0.22904 0.09706
# Poissons Ratio (y) = 0.34912 0.35257
# Poissons Ratio (z) = 0.09465 0.22556
#
# Static dielectric constant tensor:
#      x y z
#    x 2.243540 0.000000 0.000000 
#    y 0.000000 1.791670 0.000000 
#    z 0.000000 0.000000 -0.919870 
# 
# From -- ./inp_files/32468.got.cif
#   From: 2010.05.17/outbox.cif.g08.bks.cpg/sg73_17_cif.got.tgz:32468.got - 2010.06.03 17:35:07.
