data_PCOD9533936
_publ_section_title
;
Structure prediction by ZEFSAII (Michael W. Deem and Ramdas Pophale) SiO2 
 PCOD9533936
Probable space group: I M M A
;
_chemical_formula_sum "Si O2"
_cell_formula_units_Z 72
_cell_length_a 23.640388
_cell_length_b 8.843999
_cell_length_c 24.090883
_cell_angle_alpha 90.000000
_cell_angle_beta 90.000000
_cell_angle_gamma 90.000000
_cell_volume 5036.815043
_symmetry_space_group_name_H-M "I M M A"
_symmetry_group_IT_number 74
_symmetry_cell_setting 'orthorhombic'
loop_
_space_group_symop_operation_xyz
x,y,z
-x,1/2-y,z
x,-y,-z
-x,1/2+y,-z
-x,-y,-z
x,1/2+y,-z
-x,y,z
x,1/2-y,z
1/2+x,1/2+y,1/2+z
1/2-x,-y,1/2+z
1/2+x,1/2-y,1/2-z
1/2-x,y,1/2-z
1/2-x,1/2-y,1/2-z
1/2+x,y,1/2-z
1/2-x,1/2+y,1/2+z
1/2+x,-y,1/2+z
loop_
_atom_site_type_symbol
_atom_site_label
_atom_site_fract_x
_atom_site_fract_y
_atom_site_fract_z
Si Si1 0.677091 0.430260 0.704460
Si Si2 0.000000 0.429131 0.560880
Si Si3 0.713120 0.068893 0.176283
Si Si4 0.064349 0.068696 0.231969
Si Si5 0.092724 0.430501 0.360497
O O1 0.680479 0.250000 0.705535
O O2 0.693513 0.498626 0.764839
O O3 0.725630 0.497870 0.664496
O O4 0.612989 0.486307 0.696991
O O5 0.000000 0.500000 0.500000
O O6 0.054445 0.484609 0.595533
O O7 0.000000 0.250000 0.556809
O O8 0.717905 0.250000 0.182231
O O9 0.659909 0.037258 0.136391
O O10 0.072278 0.250000 0.227463
O O11 0.072889 0.031617 0.297519
O O12 0.000000 0.031217 0.216454
O O13 0.084542 0.250000 0.366903
#
# Coordination Sequence:
#
# PCOD9533936 Si02
#       5
#    16   8  16  16  16
#     4  10  17  23  34  55  79  97 121 161 193 221
#     4  12  24  34  46  60  78 100 126 164 208 250
#     4   9  16  27  41  53  70  98 125 152 189 235
#     4   9  16  27  41  54  74 105 134 159 191 236
#     4   9  17  31  46  58  72  93 127 164 199 238
#
# _framework density 14.294746999999999
#
# number of rings (size 3 to 8) (size 9 to 14) (size 15 to 20)
#    0.000    2.444    1.111    6.333    0.000    4.889 
#    0.000    0.000    0.000    0.000    0.000    0.000 
#    0.000    0.000    0.000    0.000    0.000    1.111 
#
# Total GULP energy -200449.882359 kJ/mol
# GULP energy per Si atom -5568.052288 kJ/mol
# Density = 1.426221 g / cm^3
# Si number density = 14.294747 Si / 1000 Ang^3
#
#
#
# Elastic Constant Matrix: (Units=GPa)
#
#
# Indices 1 2 3 4 5 6 
#
# 1 157.9564 70.8069 35.2014 0.0000 0.0000 0.0000
# 2 70.8069 80.3869 25.2047 0.0000 0.0000 0.0000
# 3 35.2014 25.2047 27.8614 0.0000 0.0000 0.0000
# 4 0.0000 0.0000 0.0000 11.6570 0.0000 0.0000
# 5 0.0000 0.0000 0.0000 0.0000 7.2430 0.0000
# 6 0.0000 0.0000 0.0000 0.0000 0.0000 14.4305
#
#
#
# Elastic Compliance Matrix: (Units=1/GPa)
#
#
# Indices 1 2 3 4 5 6 
#
# 1 0.011478 -0.007766 -0.007477 0.000000 0.000000 0.000000
# 2 -0.007766 0.022620 -0.010651 0.000000 0.000000 0.000000
# 3 -0.007477 -0.010651 0.054974 0.000000 0.000000 0.000000
# 4 0.000000 0.000000 0.000000 0.085785 0.000000 0.000000
# 5 0.000000 0.000000 0.000000 0.000000 0.138065 0.000000
# 6 0.000000 0.000000 0.000000 0.000000 0.000000 0.069298
#
#
# Mechanical properties :
#
#
# Convention : Reuss Voigt Hill
#
# Bulk Modulus (GPa) = 26.82086 58.73675 42.77881
# Shear Modulus (GPa) = 11.19983 15.66556 13.43269
#
# Velocity S-wave (km/s) = 2.80213 3.31402 3.06877
# Velocity P-wave (km/s) = 5.41043 7.47145 6.52286
#
# Compressibility (1/GPa) = 0.03728441
#
# Stress axis : x y z
#
# Youngs Moduli (GPa) = 87.11988 44.20853 18.19055
#
# Poissons Ratio (x) = 0.34333 0.13600
# Poissons Ratio (y) = 0.67659 0.19375
# Poissons Ratio (z) = 0.65137 0.47086
#
# Static dielectric constant tensor:
#      x y z
#    x 1.547960 0.000000 0.000000 
#    y 0.000000 1.472900 0.000000 
#    z 0.000000 0.000000 1.423980 
# 
# From -- ./inp_files/54359.got.cif
#   From: 2010.05.17/outbox.cif.g08.bks.cpg/sg74_28_cif.got.tgz:54359.got - 2010.06.03 17:57:02.
