data_PCOD9533529
_publ_section_title
;
Structure prediction by ZEFSAII (Michael W. Deem and Ramdas Pophale) SiO2 
 PCOD9533529
Probable space group: I B C A 
;
_chemical_formula_sum "Si O2"
_cell_formula_units_Z 120
_cell_length_a 27.133970
_cell_length_b 17.211125
_cell_length_c 11.258037
_cell_angle_alpha 90.000000
_cell_angle_beta 90.000000
_cell_angle_gamma 90.000000
_cell_volume 5257.572509
_symmetry_space_group_name_H-M "I B C A "
_symmetry_group_IT_number 73
_symmetry_cell_setting 'orthorhombic'
loop_
_space_group_symop_operation_xyz
x,y,z
-x,1/2-y,z
x,-y,1/2-z
1/2-x,y,-z
-x,-y,-z
x,1/2+y,-z
-x,y,1/2+z
1/2+x,-y,z
1/2+x,1/2+y,1/2+z
1/2-x,-y,1/2+z
1/2+x,1/2-y,-z
-x,1/2+y,1/2-z
1/2-x,1/2-y,1/2-z
1/2+x,y,1/2-z
1/2-x,1/2+y,z
x,1/2-y,1/2+z
loop_
_atom_site_type_symbol
_atom_site_label
_atom_site_fract_x
_atom_site_fract_y
_atom_site_fract_z
Si Si1 0.395260 0.339569 0.661578
Si Si2 0.297111 0.412379 0.745914
Si Si3 0.892433 0.000000 0.750000
Si Si4 0.554185 0.437894 0.972337
Si Si5 0.449422 0.905553 0.103723
Si Si6 0.624754 0.186718 0.062239
Si Si7 0.190577 0.123863 0.247944
Si Si8 0.293976 0.269955 0.909082
O O1 0.338231 0.364541 0.675998
O O2 0.412752 0.374208 0.536830
O O3 0.426716 0.375799 0.771510
O O4 0.398163 0.245773 0.657712
O O5 0.316837 0.500000 0.750000
O O6 0.240389 0.419079 0.706918
O O7 0.290568 0.358602 0.862693
O O8 0.927460 0.007636 0.635945
O O9 0.855583 0.070363 0.713969
O O10 0.506769 0.390753 0.923867
O O11 0.549568 0.501671 0.078883
O O12 0.414672 0.865085 0.005018
O O13 0.670941 0.139530 0.118349
O O14 0.652899 0.239138 0.967668
O O15 0.203178 0.208981 0.197838
O O16 0.250000 0.251584 0.000000
#
# Coordination Sequence:
#
# PCOD9533529 Si02
#       8
#    16  16   8  16  16  16  16  16
#     4  12  26  47  77 109 149 194 254 310 384 462
#     4  12  24  42  71 109 149 193 250 307 374 462
#     4  12  26  48  74 108 160 194 256 314 384 458
#     4  11  27  46  75 109 143 197 247 319 380 450
#     4  11  25  47  77 106 143 194 253 313 385 453
#     4  12  23  45  71 106 144 194 245 310 379 450
#     4  12  24  44  68 105 149 199 244 306 374 455
#     4  12  24  43  72 106 152 203 251 310 381 463
#
# _framework density 22.824221999999999
#
# number of rings (size 3 to 8) (size 9 to 14) (size 15 to 20)
#    0.000    0.267    6.000    3.200    3.733    0.533 
#    0.000    2.000    0.000    0.000    0.000    0.000 
#    0.000    0.000    0.000    0.000    0.000    0.000 
#
# Total GULP energy -334080.152088 kJ/mol
# GULP energy per Si atom -5568.002535 kJ/mol
# Density = 2.277227 g / cm^3
# Si number density = 22.824222 Si / 1000 Ang^3
#
#
#
# Elastic Constant Matrix: (Units=GPa)
#
#
# Indices 1 2 3 4 5 6 
#
# 1 132.8134 25.9756 58.1168 0.0000 0.0000 0.0000
# 2 25.9756 77.9938 12.7445 0.0000 0.0000 0.0000
# 3 58.1168 12.7445 55.2265 0.0000 0.0000 0.0000
# 4 0.0000 0.0000 0.0000 30.4855 0.0000 0.0000
# 5 0.0000 0.0000 0.0000 0.0000 588.2858 0.0000
# 6 0.0000 0.0000 0.0000 0.0000 0.0000 13.7808
#
#
#
# Elastic Compliance Matrix: (Units=1/GPa)
#
#
# Indices 1 2 3 4 5 6 
#
# 1 0.014378 -0.002407 -0.014575 0.000000 0.000000 0.000000
# 2 -0.002407 0.013727 -0.000635 0.000000 0.000000 0.000000
# 3 -0.014575 -0.000635 0.033591 0.000000 0.000000 0.000000
# 4 0.000000 0.000000 0.000000 0.032802 0.000000 0.000000
# 5 0.000000 0.000000 0.000000 0.000000 0.001700 0.000000
# 6 0.000000 0.000000 0.000000 0.000000 0.000000 0.072565
#
#
# Mechanical properties :
#
#
# Convention : Reuss Voigt Hill
#
# Bulk Modulus (GPa) = 37.78883 51.07862 44.43372
# Shear Modulus (GPa) = 23.49434 137.79021 80.64227
#
# Velocity S-wave (km/s) = 3.21184 7.77825 5.95051
# Velocity P-wave (km/s) = 5.50881 10.15362 8.16832
#
# Compressibility (1/GPa) = 0.02646285
#
# Stress axis : x y z
#
# Youngs Moduli (GPa) = 69.55176 72.84983 29.76958
#
# Poissons Ratio (x) = 0.17534 0.43389
# Poissons Ratio (y) = 0.16740 0.01890
# Poissons Ratio (z) = 1.01370 0.04625
#
# Static dielectric constant tensor:
#      x y z
#    x 1.959950 0.000000 0.000000 
#    y 0.000000 1.924250 0.000000 
#    z 0.000000 0.000000 2.113430 
# 
# From -- ./inp_files/14367.got.cif
#   From: 2010.05.17/outbox.cif.g08.bks.cpg/sg73_8_cif.got.tgz:14367.got - 2010.06.03 17:35:07.
