data_PCOD9533062
_publ_section_title
;
Structure prediction by ZEFSAII (Michael W. Deem and Ramdas Pophale) SiO2 
 PCOD9533062
Probable space group: I B C A 
;
_chemical_formula_sum "Si O2"
_cell_formula_units_Z 104
_cell_length_a 26.209589
_cell_length_b 16.983233
_cell_length_c 10.941099
_cell_angle_alpha 90.000000
_cell_angle_beta 90.000000
_cell_angle_gamma 90.000000
_cell_volume 4870.140902
_symmetry_space_group_name_H-M "I B C A "
_symmetry_group_IT_number 73
_symmetry_cell_setting 'orthorhombic'
loop_
_space_group_symop_operation_xyz
x,y,z
-x,1/2-y,z
x,-y,1/2-z
1/2-x,y,-z
-x,-y,-z
x,1/2+y,-z
-x,y,1/2+z
1/2+x,-y,z
1/2+x,1/2+y,1/2+z
1/2-x,-y,1/2+z
1/2+x,1/2-y,-z
-x,1/2+y,1/2-z
1/2-x,1/2-y,1/2-z
1/2+x,y,1/2-z
1/2-x,1/2+y,z
x,1/2-y,1/2+z
loop_
_atom_site_type_symbol
_atom_site_label
_atom_site_fract_x
_atom_site_fract_y
_atom_site_fract_z
Si Si1 0.711266 0.620332 0.594282
Si Si2 0.858016 0.076732 0.082195
Si Si3 0.222907 0.000000 0.750000
Si Si4 0.566825 0.174273 0.775350
Si Si5 0.104812 0.591031 0.039324
Si Si6 0.952854 0.140667 0.700593
Si Si7 0.147641 0.087967 0.306332
O O1 0.750000 0.663697 0.500000
O O2 0.744937 0.547967 0.648725
O O3 0.661987 0.601637 0.512173
O O4 0.682064 0.645244 0.720719
O O5 0.893801 0.147598 0.121633
O O6 0.813198 0.060838 0.178377
O O7 0.893739 0.998755 0.084210
O O8 0.836715 0.087898 0.946396
O O9 0.592101 0.150921 0.646956
O O10 0.556016 0.265805 0.792957
O O11 0.512680 0.128797 0.780199
O O12 0.066231 0.606149 0.928267
O O13 0.912443 0.106863 0.797696
O O14 0.151904 0.000000 0.250000
#
# Coordination Sequence:
#
# PCOD9533062 Si02
#       7
#    16  16   8  16  16  16  16
#     4  11  19  36  64  93 128 164 205 269 330 379
#     4  12  22  39  62 103 124 160 224 271 323 388
#     4  12  20  36  64 100 124 164 210 274 336 392
#     4  11  25  42  64  92 129 178 224 257 330 400
#     4  11  22  43  62 100 129 163 222 278 326 379
#     4  10  26  42  62  91 129 184 212 264 328 397
#     4  11  21  39  61  97 125 167 214 267 327 384
#
# _framework density 21.354617000000001
#
# number of rings (size 3 to 8) (size 9 to 14) (size 15 to 20)
#    0.000    0.923    6.923    0.000    4.308    3.077 
#    0.000    0.000    0.000   14.769    8.000    0.000 
#    0.000    0.000    0.000    0.000    0.000    0.000 
#
# Total GULP energy -290111.948944 kJ/mol
# GULP energy per Si atom -5579.075941 kJ/mol
# Density = 2.130601 g / cm^3
# Si number density = 21.354617 Si / 1000 Ang^3
#
#
#
# Elastic Constant Matrix: (Units=GPa)
#
#
# Indices 1 2 3 4 5 6 
#
# 1 127.9420 12.8670 54.2113 0.0000 0.0000 0.0000
# 2 12.8670 23.3816 7.7076 0.0000 0.0000 0.0000
# 3 54.2113 7.7076 119.4255 0.0000 0.0000 0.0000
# 4 0.0000 0.0000 0.0000 10.6511 0.0000 0.0000
# 5 0.0000 0.0000 0.0000 0.0000 23.2964 0.0000
# 6 0.0000 0.0000 0.0000 0.0000 0.0000 -36.7752
#
#
#
# Elastic Compliance Matrix: (Units=1/GPa)
#
#
# Indices 1 2 3 4 5 6 
#
# 1 0.010050 -0.004114 -0.004297 0.000000 0.000000 0.000000
# 2 -0.004114 0.045383 -0.001061 0.000000 0.000000 0.000000
# 3 -0.004297 -0.001061 0.010392 0.000000 0.000000 0.000000
# 4 0.000000 0.000000 0.000000 0.093887 0.000000 0.000000
# 5 0.000000 0.000000 0.000000 0.000000 0.042925 0.000000
# 6 0.000000 0.000000 0.000000 0.000000 0.000000 -0.027192
#
#
# Mechanical properties :
#
#
# Convention : Reuss Voigt Hill
#
# Bulk Modulus (GPa) = 21.33076 46.70233 34.01654
# Shear Modulus (GPa) = 23.80762 12.49869 18.15315
#
# Velocity S-wave (km/s) = 3.34259 2.42191 2.91878
# Velocity P-wave (km/s) = 4.99076 5.45328 5.22714
#
# Compressibility (1/GPa) = 0.04688066
#
# Stress axis : x y z
#
# Youngs Moduli (GPa) = 99.49846 22.03484 96.22478
#
# Poissons Ratio (x) = 0.09066 0.41345
# Poissons Ratio (y) = 0.40938 0.10212
# Poissons Ratio (z) = 0.42751 0.02339
#
# Static dielectric constant tensor:
#      x y z
#    x 1.802250 0.000000 0.000000 
#    y 0.000000 1.779110 0.000000 
#    z 0.000000 0.000000 1.805640 
# 
# From -- ./inp_files/14318.got.cif
#   From: 2010.05.17/outbox.cif.g08.bks.cpg/sg73_8_cif.got.tgz:14318.got - 2010.06.03 17:35:07.
