data_PCOD9533594
_publ_section_title
;
Structure prediction by ZEFSAII (Michael W. Deem and Ramdas Pophale) SiO2 
 PCOD9533594
Probable space group: I B C A 
;
_chemical_formula_sum "Si O2"
_cell_formula_units_Z 112
_cell_length_a 13.928984
_cell_length_b 21.554953
_cell_length_c 16.706734
_cell_angle_alpha 90.000000
_cell_angle_beta 90.000000
_cell_angle_gamma 90.000000
_cell_volume 5016.006351
_symmetry_space_group_name_H-M "I B C A "
_symmetry_group_IT_number 73
_symmetry_cell_setting 'orthorhombic'
loop_
_space_group_symop_operation_xyz
x,y,z
-x,1/2-y,z
x,-y,1/2-z
1/2-x,y,-z
-x,-y,-z
x,1/2+y,-z
-x,y,1/2+z
1/2+x,-y,z
1/2+x,1/2+y,1/2+z
1/2-x,-y,1/2+z
1/2+x,1/2-y,-z
-x,1/2+y,1/2-z
1/2-x,1/2-y,1/2-z
1/2+x,y,1/2-z
1/2-x,1/2+y,z
x,1/2-y,1/2+z
loop_
_atom_site_type_symbol
_atom_site_label
_atom_site_fract_x
_atom_site_fract_y
_atom_site_fract_z
Si Si1 0.440486 0.367221 0.679442
Si Si2 0.382874 0.996949 0.376128
Si Si3 0.750000 0.029985 0.500000
Si Si4 0.446616 0.074151 0.930396
Si Si5 0.250000 0.163838 0.500000
Si Si6 0.465042 0.686899 0.473311
Si Si7 0.318802 0.379765 0.819550
Si Si8 0.375118 0.425439 0.254394
O O1 0.377182 0.425171 0.646613
O O2 0.472744 0.321285 0.608577
O O3 0.387304 0.340370 0.758590
O O4 0.538550 0.403054 0.699496
O O5 0.483367 0.014505 0.419000
O O6 0.375146 0.053731 0.315178
O O7 0.285647 0.009783 0.426070
O O8 0.651963 0.063299 0.477614
O O9 0.408270 0.091657 0.843209
O O10 0.506873 0.126898 0.974319
O O11 0.350078 0.190911 0.534798
O O12 0.204495 0.139358 0.588093
O O13 0.500000 0.750000 0.513847
O O14 0.219058 0.391047 0.775064
O O15 0.362398 0.500000 0.250000
#
# Coordination Sequence:
#
# PCOD9533594 Si02
#       8
#    16  16   8  16   8  16  16  16
#     4  12  23  45  66 106 150 186 235 299 363 438
#     4  12  23  39  67 106 151 190 226 289 364 447
#     4  12  25  35  64 112 144 183 235 284 368 446
#     4  12  25  44  69 105 144 196 239 300 365 442
#     4  12  25  53  80 106 140 195 255 306 358 448
#     4  12  29  53  76  99 141 194 260 313 362 425
#     4  12  24  41  71 112 149 189 236 288 375 448
#     4  12  22  39  68 105 151 187 223 288 369 454
#
# _framework density 22.328520999999999
#
# number of rings (size 3 to 8) (size 9 to 14) (size 15 to 20)
#    0.000    0.000    7.143    3.857    0.000    0.571 
#    0.000    3.571    0.000    0.000    0.000    0.000 
#    0.000    0.000    0.000    0.000    0.000    0.000 
#
# Total GULP energy -311876.685073 kJ/mol
# GULP energy per Si atom -5569.226519 kJ/mol
# Density = 2.227770 g / cm^3
# Si number density = 22.328521 Si / 1000 Ang^3
#
#
#
# Elastic Constant Matrix: (Units=GPa)
#
#
# Indices 1 2 3 4 5 6 
#
# 1 154.0358 13.8347 26.7885 0.0000 0.0000 0.0000
# 2 13.8347 34.3690 6.4577 0.0000 0.0000 0.0000
# 3 26.7885 6.4577 94.2053 0.0000 -0.0001 -0.0001
# 4 0.0000 0.0000 0.0000 19.6002 -0.0001 0.0000
# 5 0.0000 0.0000 -0.0001 -0.0001 26.9807 0.0000
# 6 0.0000 0.0000 -0.0001 0.0000 0.0000 13.9447
#
#
#
# Elastic Compliance Matrix: (Units=1/GPa)
#
#
# Indices 1 2 3 4 5 6 
#
# 1 0.007034 -0.002487 -0.001830 0.000000 0.000000 0.000000
# 2 -0.002487 0.030355 -0.001373 0.000000 0.000000 0.000000
# 3 -0.001830 -0.001373 0.011230 0.000000 0.000000 0.000000
# 4 0.000000 0.000000 0.000000 0.051020 0.000000 0.000000
# 5 0.000000 0.000000 0.000000 0.000000 0.037064 0.000000
# 6 0.000000 0.000000 0.000000 0.000000 0.000000 0.071712
#
#
# Mechanical properties :
#
#
# Convention : Reuss Voigt Hill
#
# Bulk Modulus (GPa) = 26.85475 41.86353 34.35914
# Shear Modulus (GPa) = 21.53248 27.80707 24.66978
#
# Velocity S-wave (km/s) = 3.10877 3.53280 3.32754
# Velocity P-wave (km/s) = 4.99391 5.95235 5.49407
#
# Compressibility (1/GPa) = 0.03723736
#
# Stress axis : x y z
#
# Youngs Moduli (GPa) = 142.17491 32.94314 89.05094
#
# Poissons Ratio (x) = 0.08195 0.16293
# Poissons Ratio (y) = 0.35366 0.12231
# Poissons Ratio (z) = 0.26012 0.04525
#
# Static dielectric constant tensor:
#      x y z
#    x 1.853130 0.000000 0.000000 
#    y 0.000000 1.819120 0.000000 
#    z 0.000000 0.000000 2.087150 
# 
# From -- ./inp_files/17416.got.cif
#   From: 2010.05.17/outbox.cif.g08.bks.cpg/sg73_9_cif.got.tgz:17416.got - 2010.06.03 17:35:07.
