data_PCOD9533412
_publ_section_title
;
Structure prediction by ZEFSAII (Michael W. Deem and Ramdas Pophale) SiO2 
 PCOD9533412
Probable space group: I B C A 
;
_chemical_formula_sum "Si O2"
_cell_formula_units_Z 96
_cell_length_a 15.638113
_cell_length_b 19.290994
_cell_length_c 13.607518
_cell_angle_alpha 90.000000
_cell_angle_beta 90.000000
_cell_angle_gamma 90.000000
_cell_volume 4105.044510
_symmetry_space_group_name_H-M "I B C A "
_symmetry_group_IT_number 73
_symmetry_cell_setting 'orthorhombic'
loop_
_space_group_symop_operation_xyz
x,y,z
-x,1/2-y,z
x,-y,1/2-z
1/2-x,y,-z
-x,-y,-z
x,1/2+y,-z
-x,y,1/2+z
1/2+x,-y,z
1/2+x,1/2+y,1/2+z
1/2-x,-y,1/2+z
1/2+x,1/2-y,-z
-x,1/2+y,1/2-z
1/2-x,1/2-y,1/2-z
1/2+x,y,1/2-z
1/2-x,1/2+y,z
x,1/2-y,1/2+z
loop_
_atom_site_type_symbol
_atom_site_label
_atom_site_fract_x
_atom_site_fract_y
_atom_site_fract_z
Si Si1 0.439905 0.026528 0.857628
Si Si2 0.876499 0.826549 0.810597
Si Si3 0.699319 0.157707 0.602854
Si Si4 0.750000 0.098985 0.000000
Si Si5 0.392571 0.304051 0.092231
Si Si6 0.000000 0.750000 0.439384
Si Si7 0.126302 0.004768 0.926248
O O1 0.413640 0.106066 0.862248
O O2 0.411168 0.000000 0.750000
O O3 0.541080 0.014973 0.868241
O O4 0.397577 0.997419 0.957229
O O5 0.773889 0.830172 0.816184
O O6 0.913419 0.826706 0.701554
O O7 0.918163 0.764316 0.871871
O O8 0.750000 0.159816 0.500000
O O9 0.637367 0.223876 0.602140
O O10 0.655736 0.082088 0.604396
O O11 0.683382 0.149419 0.052290
O O12 0.796489 0.049707 0.080098
O O13 0.469021 0.309261 0.014443
#
# Coordination Sequence:
#
# PCOD9533412 Si02
#       7
#    16  16  16   8  16   8  16
#     4  11  24  42  64  99 135 175 228 281 340 424
#     4  12  25  43  70 100 136 179 229 288 350 418
#     4  12  22  47  68  96 137 183 229 288 354 420
#     4  12  22  42  66 100 134 172 228 292 344 410
#     4  12  26  42  71 103 136 179 235 288 352 423
#     4  12  24  46  66  94 140 176 224 284 350 416
#     4  11  24  43  72  94 135 189 225 280 360 415
#
# _framework density 23.385860999999998
#
# number of rings (size 3 to 8) (size 9 to 14) (size 15 to 20)
#    0.000    0.333    5.000    3.000    0.000    6.667 
#    0.000    0.833    0.000    0.000    0.000    0.000 
#    0.000    0.000    0.000    0.000    0.000    0.000 
#
# Total GULP energy -268577.198732 kJ/mol
# GULP energy per Si atom -5595.358307 kJ/mol
# Density = 2.333263 g / cm^3
# Si number density = 23.385861 Si / 1000 Ang^3
#
#
#
# Elastic Constant Matrix: (Units=GPa)
#
#
# Indices 1 2 3 4 5 6 
#
# 1 92.8201 36.9432 -2.4953 0.0000 0.0000 0.0000
# 2 36.9432 88.9681 -7.3331 0.0000 0.0000 0.0000
# 3 -2.4953 -7.3331 78.5372 0.0000 0.0000 0.0000
# 4 0.0000 0.0000 0.0000 16.6408 0.0000 0.0000
# 5 0.0000 0.0000 0.0000 0.0000 22.7119 0.0000
# 6 0.0000 0.0000 0.0000 0.0000 0.0000 -50.1859
#
#
#
# Elastic Compliance Matrix: (Units=1/GPa)
#
#
# Indices 1 2 3 4 5 6 
#
# 1 0.012907 -0.005367 -0.000091 0.000000 0.000000 0.000000
# 2 -0.005367 0.013559 0.001095 0.000000 0.000000 0.000000
# 3 -0.000091 0.001095 0.012832 0.000000 0.000000 0.000000
# 4 0.000000 0.000000 0.000000 0.060093 0.000000 0.000000
# 5 0.000000 0.000000 0.000000 0.000000 0.044030 0.000000
# 6 0.000000 0.000000 0.000000 0.000000 0.000000 -0.019926
#
#
# Mechanical properties :
#
#
# Convention : Reuss Voigt Hill
#
# Bulk Modulus (GPa) = 32.70855 34.95053 33.82954
# Shear Modulus (GPa) = 35.10938 13.38071 24.24505
#
# Velocity S-wave (km/s) = 3.87888 2.39460 3.22334
# Velocity P-wave (km/s) = 5.83761 4.75638 5.32451
#
# Compressibility (1/GPa) = 0.03057305
#
# Stress axis : x y z
#
# Youngs Moduli (GPa) = 77.47585 73.75212 77.92887
#
# Poissons Ratio (x) = 0.39584 0.00709
# Poissons Ratio (y) = 0.41582 -0.08537
# Poissons Ratio (z) = 0.00705 -0.08079
#
# Static dielectric constant tensor:
#      x y z
#    x 1.933500 0.000000 0.000000 
#    y 0.000000 1.901360 0.000000 
#    z 0.000000 0.000000 1.927110 
# 
# From -- ./inp_files/17090.got.cif
#   From: 2010.05.17/outbox.cif.g08.bks.cpg/sg73_9_cif.got.tgz:17090.got - 2010.06.03 17:35:07.
