data_PCOD9533709
_publ_section_title
;
Structure prediction by ZEFSAII (Michael W. Deem and Ramdas Pophale) SiO2 
 PCOD9533709
Probable space group: I B C A 
;
_chemical_formula_sum "Si O2"
_cell_formula_units_Z 56
_cell_length_a 22.659892
_cell_length_b 5.299214
_cell_length_c 16.547384
_cell_angle_alpha 90.000000
_cell_angle_beta 90.000000
_cell_angle_gamma 90.000000
_cell_volume 1987.003532
_symmetry_space_group_name_H-M "I B C A "
_symmetry_group_IT_number 73
_symmetry_cell_setting 'orthorhombic'
loop_
_space_group_symop_operation_xyz
x,y,z
-x,1/2-y,z
x,-y,1/2-z
1/2-x,y,-z
-x,-y,-z
x,1/2+y,-z
-x,y,1/2+z
1/2+x,-y,z
1/2+x,1/2+y,1/2+z
1/2-x,-y,1/2+z
1/2+x,1/2-y,-z
-x,1/2+y,1/2-z
1/2-x,1/2-y,1/2-z
1/2+x,y,1/2-z
1/2-x,1/2+y,z
x,1/2-y,1/2+z
loop_
_atom_site_type_symbol
_atom_site_label
_atom_site_fract_x
_atom_site_fract_y
_atom_site_fract_z
Si Si1 0.432596 0.835180 0.830469
Si Si2 0.839331 0.500000 0.750000
Si Si3 0.910324 0.204450 0.000597
Si Si4 0.711487 0.283819 0.403195
O O1 0.500000 0.750000 0.828495
O O2 0.381221 0.635880 0.814291
O O3 0.415530 0.976498 0.914081
O O4 0.427548 0.000000 0.750000
O O5 0.806241 0.305004 0.691739
O O6 0.938362 0.454920 0.957582
O O7 0.843582 0.198707 0.034456
O O8 0.753106 0.526428 0.413902
#
# Coordination Sequence:
#
# PCOD9533709 Si02
#       4
#    16   8  16  16
#     4  12  28  52  85 116 163 213 271 344 415 481
#     4  12  26  54  78 120 156 212 272 336 396 500
#     4  12  27  52  79 120 161 210 266 335 396 491
#     4  12  28  51  80 117 162 216 266 334 405 479
#
# _framework density 28.183143000000001
#
# number of rings (size 3 to 8) (size 9 to 14) (size 15 to 20)
#    0.000    0.000    4.286    4.286    4.000    4.571 
#    0.000    0.000    0.000    0.000    0.000    0.000 
#    0.000    0.000    0.000    0.000    0.000    0.000 
#
# Total GULP energy -156091.461523 kJ/mol
# GULP energy per Si atom -5574.695054 kJ/mol
# Density = 2.811900 g / cm^3
# Si number density = 28.183143 Si / 1000 Ang^3
#
#
#
# Elastic Constant Matrix: (Units=GPa)
#
#
# Indices 1 2 3 4 5 6 
#
# 1 126.9358 42.3309 39.8261 0.0000 0.0000 0.0000
# 2 42.3309 646.7563 338.2516 0.0000 0.0000 0.0000
# 3 39.8261 338.2516 485.9986 0.0000 0.0000 0.0000
# 4 0.0000 0.0000 0.0000 1.4317 0.0000 0.0000
# 5 0.0000 0.0000 0.0000 0.0000 58.8223 0.0000
# 6 0.0000 0.0000 0.0000 0.0000 0.0000 -94.5224
#
#
#
# Elastic Compliance Matrix: (Units=1/GPa)
#
#
# Indices 1 2 3 4 5 6 
#
# 1 0.008120 -0.000288 -0.000465 0.000000 0.000000 0.000000
# 2 -0.000288 0.002441 -0.001676 0.000000 0.000000 0.000000
# 3 -0.000465 -0.001676 0.003262 0.000000 0.000000 0.000000
# 4 0.000000 0.000000 0.000000 0.698469 0.000000 0.000000
# 5 0.000000 0.000000 0.000000 0.000000 0.017000 0.000000
# 6 0.000000 0.000000 0.000000 0.000000 0.000000 -0.010580
#
#
# Mechanical properties :
#
#
# Convention : Reuss Voigt Hill
#
# Bulk Modulus (GPa) = 111.53338 233.38977 172.46158
# Shear Modulus (GPa) = 6.88176 49.09846 27.99011
#
# Velocity S-wave (km/s) = 1.56432 4.17840 3.15485
# Velocity P-wave (km/s) = 6.55158 10.30875 8.63694
#
# Compressibility (1/GPa) = 0.00896593
#
# Stress axis : x y z
#
# Youngs Moduli (GPa) = 123.15310 409.60918 306.57459
#
# Poissons Ratio (x) = 0.11815 0.14245
# Poissons Ratio (y) = 0.03552 0.51367
# Poissons Ratio (z) = 0.05722 0.68631
#
# Static dielectric constant tensor:
#      x y z
#    x 2.062240 0.000000 0.000000 
#    y 0.000000 2.677620 0.000000 
#    z 0.000000 0.000000 -11.989720 
# 
# From -- ./inp_files/23761.got.cif
#   From: 2010.05.17/outbox.cif.g08.bks.cpg/sg73_12_cif.got.tgz:23761.got - 2010.06.03 17:35:07.
