data_PCOD9533157
_publ_section_title
;
Structure prediction by ZEFSAII (Michael W. Deem and Ramdas Pophale) SiO2 
 PCOD9533157
Probable space group: I B C A 
;
_chemical_formula_sum "Si O2"
_cell_formula_units_Z 64
_cell_length_a 7.519280
_cell_length_b 28.124764
_cell_length_c 11.936952
_cell_angle_alpha 90.000000
_cell_angle_beta 90.000000
_cell_angle_gamma 90.000000
_cell_volume 2524.402442
_symmetry_space_group_name_H-M "I B C A "
_symmetry_group_IT_number 73
_symmetry_cell_setting 'orthorhombic'
loop_
_space_group_symop_operation_xyz
x,y,z
-x,1/2-y,z
x,-y,1/2-z
1/2-x,y,-z
-x,-y,-z
x,1/2+y,-z
-x,y,1/2+z
1/2+x,-y,z
1/2+x,1/2+y,1/2+z
1/2-x,-y,1/2+z
1/2+x,1/2-y,-z
-x,1/2+y,1/2-z
1/2-x,1/2-y,1/2-z
1/2+x,y,1/2-z
1/2-x,1/2+y,z
x,1/2-y,1/2+z
loop_
_atom_site_type_symbol
_atom_site_label
_atom_site_fract_x
_atom_site_fract_y
_atom_site_fract_z
Si Si1 0.889861 0.141949 0.662077
Si Si2 0.378328 0.286793 0.683870
Si Si3 0.277226 0.450412 0.186639
Si Si4 0.037947 0.564071 0.982856
O O1 0.738262 0.176277 0.620255
O O2 0.933487 0.053684 0.904426
O O3 0.977387 0.118670 0.554217
O O4 0.014486 0.176896 0.734143
O O5 0.500000 0.250000 0.617343
O O6 0.250000 0.250000 0.750000
O O7 0.292395 0.500000 0.250000
O O8 0.305460 0.403002 0.265253
O O9 0.090868 0.454803 0.117758
O O10 0.250000 0.552547 0.000000
#
# Coordination Sequence:
#
# PCOD9533157 Si02
#       4
#    16  16  16  16
#     4  11  20  45  75 108 157 211 265 336 407 485
#     4   9  19  36  73 116 149 208 271 327 417 482
#     4  11  27  50  76 115 166 212 272 339 413 495
#     4  11  26  49  79 116 157 209 279 335 408 492
#
# _framework density 25.352535
#
# number of rings (size 3 to 8) (size 9 to 14) (size 15 to 20)
#    0.000    1.500    2.500    1.500    0.000    3.000 
#    4.500    0.000    0.000   57.000    0.000    0.000 
#    0.000    0.000    0.000    0.000    0.000    0.000 
#
# Total GULP energy -178532.335603 kJ/mol
# GULP energy per Si atom -5579.135488 kJ/mol
# Density = 2.529483 g / cm^3
# Si number density = 25.352535 Si / 1000 Ang^3
#
#
#
# Elastic Constant Matrix: (Units=GPa)
#
#
# Indices 1 2 3 4 5 6 
#
# 1 157.2449 76.5117 68.8593 0.0000 0.0000 0.0000
# 2 76.5117 233.2384 85.4130 -0.0002 0.0000 0.0000
# 3 68.8593 85.4130 122.1678 -0.0005 -0.0001 0.0000
# 4 0.0000 -0.0002 -0.0005 7.4978 0.0001 0.0000
# 5 0.0000 0.0000 -0.0001 0.0001 29.5563 0.0000
# 6 0.0000 0.0000 0.0000 0.0000 0.0000 74.9312
#
#
#
# Elastic Compliance Matrix: (Units=1/GPa)
#
#
# Indices 1 2 3 4 5 6 
#
# 1 0.008788 -0.001437 -0.003949 0.000000 0.000000 0.000000
# 2 -0.001437 0.005998 -0.003384 0.000000 0.000000 0.000000
# 3 -0.003949 -0.003384 0.012777 0.000001 0.000000 0.000000
# 4 0.000000 0.000000 0.000001 0.133373 0.000000 0.000000
# 5 0.000000 0.000000 0.000000 0.000000 0.033834 0.000000
# 6 0.000000 0.000000 0.000000 0.000000 0.000000 0.013346
#
#
# Mechanical properties :
#
#
# Convention : Reuss Voigt Hill
#
# Bulk Modulus (GPa) = 99.75695 108.24659 104.00177
# Shear Modulus (GPa) = 21.83466 41.18820 31.51143
#
# Velocity S-wave (km/s) = 2.93788 4.03503 3.52935
# Velocity P-wave (km/s) = 7.13733 8.03106 7.59735
#
# Compressibility (1/GPa) = 0.01002436
#
# Stress axis : x y z
#
# Youngs Moduli (GPa) = 113.79467 166.72689 78.26724
#
# Poissons Ratio (x) = 0.23954 0.30905
# Poissons Ratio (y) = 0.16349 0.26482
# Poissons Ratio (z) = 0.44934 0.56413
#
# Static dielectric constant tensor:
#      x y z
#    x 2.259380 0.000000 0.000000 
#    y 0.000000 1.982460 0.000000 
#    z 0.000000 0.000000 2.023900 
# 
# From -- ./inp_files/15556.got.cif
#   From: 2010.05.17/outbox.cif.g08.bks.cpg/sg73_8_cif.got.tgz:15556.got - 2010.06.03 17:35:07.
