data_PCOD9533630
_publ_section_title
;
Structure prediction by ZEFSAII (Michael W. Deem and Ramdas Pophale) SiO2 
 PCOD9533630
Probable space group: I B C A 
;
_chemical_formula_sum "Si O2"
_cell_formula_units_Z 96
_cell_length_a 20.452957
_cell_length_b 13.115938
_cell_length_c 16.675771
_cell_angle_alpha 90.000000
_cell_angle_beta 90.000000
_cell_angle_gamma 90.000000
_cell_volume 4473.437591
_symmetry_space_group_name_H-M "I B C A "
_symmetry_group_IT_number 73
_symmetry_cell_setting 'orthorhombic'
loop_
_space_group_symop_operation_xyz
x,y,z
-x,1/2-y,z
x,-y,1/2-z
1/2-x,y,-z
-x,-y,-z
x,1/2+y,-z
-x,y,1/2+z
1/2+x,-y,z
1/2+x,1/2+y,1/2+z
1/2-x,-y,1/2+z
1/2+x,1/2-y,-z
-x,1/2+y,1/2-z
1/2-x,1/2-y,1/2-z
1/2+x,y,1/2-z
1/2-x,1/2+y,z
x,1/2-y,1/2+z
loop_
_atom_site_type_symbol
_atom_site_label
_atom_site_fract_x
_atom_site_fract_y
_atom_site_fract_z
Si Si1 0.442778 0.557672 0.048405
Si Si2 0.354258 0.070883 0.672519
Si Si3 0.000000 0.750000 0.356984
Si Si4 0.381704 0.712876 0.755906
Si Si5 0.750000 0.287248 0.000000
Si Si6 0.790166 0.361621 0.623740
Si Si7 0.846311 0.081709 0.404383
O O1 0.403104 0.486970 0.111815
O O2 0.470472 0.657666 0.091760
O O3 0.500000 0.500000 0.000000
O O4 0.391769 0.590762 0.981070
O O5 0.384393 0.175562 0.705327
O O6 0.285345 0.104056 0.632743
O O7 0.340862 0.000000 0.750000
O O8 0.943337 0.797154 0.301789
O O9 0.317212 0.696222 0.701647
O O10 0.378199 0.631853 0.826909
O O11 0.701740 0.211873 0.952515
O O12 0.781811 0.356437 0.931220
O O13 0.830137 0.464908 0.612369
#
# Coordination Sequence:
#
# PCOD9533630 Si02
#       7
#    16  16   8  16   8  16  16
#     4  12  29  47  73 106 149 196 256 318 382 461
#     4  12  25  47  76 111 146 197 252 319 389 469
#     4  12  28  50  76 104 152 204 264 310 380 476
#     4  12  27  48  76 108 149 203 254 315 384 469
#     4  12  24  42  74 106 152 192 244 316 394 460
#     4  12  26  47  74 115 151 196 254 321 395 471
#     4  12  27  44  75 106 148 192 250 316 392 463
#
# _framework density 21.460007000000001
#
# number of rings (size 3 to 8) (size 9 to 14) (size 15 to 20)
#    0.000    0.000    3.333    6.500    7.000    0.000 
#    0.000    0.000    0.000    0.000    0.000    0.000 
#    0.000    0.000    0.000    0.000    0.000    0.000 
#
# Total GULP energy -268843.257033 kJ/mol
# GULP energy per Si atom -5600.901188 kJ/mol
# Density = 2.141116 g / cm^3
# Si number density = 21.460007 Si / 1000 Ang^3
#
#
#
# Elastic Constant Matrix: (Units=GPa)
#
#
# Indices 1 2 3 4 5 6 
#
# 1 43.3573 17.9112 28.6274 0.0000 0.0000 0.0000
# 2 17.9112 83.9224 49.2983 0.0000 0.0000 0.0000
# 3 28.6274 49.2983 128.9517 0.0000 0.0000 0.0000
# 4 0.0000 0.0000 0.0000 41.5136 0.0000 0.0000
# 5 0.0000 0.0000 0.0000 0.0000 63.0474 0.0000
# 6 0.0000 0.0000 0.0000 0.0000 0.0000 31.1943
#
#
#
# Elastic Compliance Matrix: (Units=1/GPa)
#
#
# Indices 1 2 3 4 5 6 
#
# 1 0.027582 -0.002953 -0.004994 0.000000 0.000000 0.000000
# 2 -0.002953 0.015683 -0.005340 0.000000 0.000000 0.000000
# 3 -0.004994 -0.005340 0.010905 0.000000 0.000000 0.000000
# 4 0.000000 0.000000 0.000000 0.024088 0.000000 0.000000
# 5 0.000000 0.000000 0.000000 0.000000 0.015861 0.000000
# 6 0.000000 0.000000 0.000000 0.000000 0.000000 0.032057
#
#
# Mechanical properties :
#
#
# Convention : Reuss Voigt Hill
#
# Bulk Modulus (GPa) = 36.23818 49.76726 43.00272
# Shear Modulus (GPa) = 30.87395 37.84404 34.35900
#
# Velocity S-wave (km/s) = 3.79710 4.20392 4.00568
# Velocity P-wave (km/s) = 6.01224 6.84142 6.44019
#
# Compressibility (1/GPa) = 0.02759520
#
# Stress axis : x y z
#
# Youngs Moduli (GPa) = 36.25613 63.76383 91.70048
#
# Poissons Ratio (x) = 0.18828 0.45798
# Poissons Ratio (y) = 0.10706 0.48968
# Poissons Ratio (z) = 0.18107 0.34050
#
# Static dielectric constant tensor:
#      x y z
#    x 1.852350 0.000000 0.000000 
#    y 0.000000 1.805360 0.000000 
#    z 0.000000 0.000000 1.786150 
# 
# From -- ./inp_files/18696.got.cif
#   From: 2010.05.17/outbox.cif.g08.bks.cpg/sg73_10_cif.got.tgz:18696.got - 2010.06.03 17:35:07.
