data_PCOD9533452
_publ_section_title
;
Structure prediction by ZEFSAII (Michael W. Deem and Ramdas Pophale) SiO2 
 PCOD9533452
Probable space group: I B C A 
;
_chemical_formula_sum "Si O2"
_cell_formula_units_Z 72
_cell_length_a 13.777966
_cell_length_b 15.414070
_cell_length_c 17.518286
_cell_angle_alpha 90.000000
_cell_angle_beta 90.000000
_cell_angle_gamma 90.000000
_cell_volume 3720.437797
_symmetry_space_group_name_H-M "I B C A "
_symmetry_group_IT_number 73
_symmetry_cell_setting 'orthorhombic'
loop_
_space_group_symop_operation_xyz
x,y,z
-x,1/2-y,z
x,-y,1/2-z
1/2-x,y,-z
-x,-y,-z
x,1/2+y,-z
-x,y,1/2+z
1/2+x,-y,z
1/2+x,1/2+y,1/2+z
1/2-x,-y,1/2+z
1/2+x,1/2-y,-z
-x,1/2+y,1/2-z
1/2-x,1/2-y,1/2-z
1/2+x,y,1/2-z
1/2-x,1/2+y,z
x,1/2-y,1/2+z
loop_
_atom_site_type_symbol
_atom_site_label
_atom_site_fract_x
_atom_site_fract_y
_atom_site_fract_z
Si Si1 0.500000 0.250000 0.169202
Si Si2 0.373969 0.601172 0.414315
Si Si3 0.650068 0.370181 0.405849
Si Si4 0.037947 0.944867 0.325738
Si Si5 0.147182 0.733130 0.789451
O O1 0.442829 0.323422 0.121679
O O2 0.578392 0.284885 0.229913
O O3 0.369745 0.616789 0.504945
O O4 0.261465 0.605027 0.387923
O O5 0.412959 0.508061 0.388117
O O6 0.565444 0.418204 0.360282
O O7 0.643107 0.272695 0.373953
O O8 0.106550 0.864065 0.300473
O O9 0.023228 0.000000 0.250000
O O10 0.250000 0.750000 0.750000
#
# Coordination Sequence:
#
# PCOD9533452 Si02
#       5
#     8  16  16  16  16
#     4  12  22  42  66  92 134 166 230 262 336 392
#     4  11  26  43  65 100 133 174 220 286 328 402
#     4  11  24  46  64  95 138 172 222 274 342 397
#     4  12  23  43  67  99 131 176 224 273 333 398
#     4  12  23  43  69  99 131 177 224 271 330 406
#
# _framework density 19.352561000000001
#
# number of rings (size 3 to 8) (size 9 to 14) (size 15 to 20)
#    0.000    0.444    6.667    0.667    3.111    4.444 
#    0.000    2.222    0.000    0.000    0.000    0.000 
#    0.000    0.000    0.000    0.000    0.000    0.000 
#
# Total GULP energy -200712.581762 kJ/mol
# GULP energy per Si atom -5575.349493 kJ/mol
# Density = 1.930851 g / cm^3
# Si number density = 19.352561 Si / 1000 Ang^3
#
#
#
# Elastic Constant Matrix: (Units=GPa)
#
#
# Indices 1 2 3 4 5 6 
#
# 1 185.8892 79.2826 66.5803 0.0000 0.0000 0.0000
# 2 79.2826 124.8345 64.7014 0.0000 0.0000 0.0000
# 3 66.5803 64.7014 113.1899 0.0000 0.0000 0.0000
# 4 0.0000 0.0000 0.0000 36.6189 0.0000 0.0000
# 5 0.0000 0.0000 0.0000 0.0000 40.0974 0.0000
# 6 0.0000 0.0000 0.0000 0.0000 0.0000 22.5889
#
#
#
# Elastic Compliance Matrix: (Units=1/GPa)
#
#
# Indices 1 2 3 4 5 6 
#
# 1 0.007850 -0.003684 -0.002512 0.000000 0.000000 0.000000
# 2 -0.003684 0.013112 -0.005328 0.000000 0.000000 0.000000
# 3 -0.002512 -0.005328 0.013358 0.000000 0.000000 0.000000
# 4 0.000000 0.000000 0.000000 0.027308 0.000000 0.000000
# 5 0.000000 0.000000 0.000000 0.000000 0.024939 0.000000
# 6 0.000000 0.000000 0.000000 0.000000 0.000000 0.044270
#
#
# Mechanical properties :
#
#
# Convention : Reuss Voigt Hill
#
# Bulk Modulus (GPa) = 88.71271 93.89360 91.30316
# Shear Modulus (GPa) = 31.71737 34.08433 32.90085
#
# Velocity S-wave (km/s) = 4.05275 4.20126 4.12767
# Velocity P-wave (km/s) = 8.23648 8.49452 8.36649
#
# Compressibility (1/GPa) = 0.01127234
#
# Stress axis : x y z
#
# Youngs Moduli (GPa) = 127.38081 76.26769 74.86212
#
# Poissons Ratio (x) = 0.28096 0.18806
# Poissons Ratio (y) = 0.46926 0.39886
# Poissons Ratio (z) = 0.31998 0.40635
#
# Static dielectric constant tensor:
#      x y z
#    x 1.737080 0.000000 0.000000 
#    y 0.000000 1.699730 0.000000 
#    z 0.000000 0.000000 1.682060 
# 
# From -- ./inp_files/11644.got.cif
#   From: 2010.05.17/outbox.cif.g08.bks.cpg/sg73_6_cif.got.tgz:11644.got - 2010.06.03 17:35:07.
