data_PCOD9533035
_publ_section_title
;
Structure prediction by ZEFSAII (Michael W. Deem and Ramdas Pophale) SiO2 
 PCOD9533035
Probable space group: I B C A 
;
_chemical_formula_sum "Si O2"
_cell_formula_units_Z 64
_cell_length_a 25.256564
_cell_length_b 19.352167
_cell_length_c 4.960641
_cell_angle_alpha 90.000000
_cell_angle_beta 90.000000
_cell_angle_gamma 90.000000
_cell_volume 2424.608753
_symmetry_space_group_name_H-M "I B C A "
_symmetry_group_IT_number 73
_symmetry_cell_setting 'orthorhombic'
loop_
_space_group_symop_operation_xyz
x,y,z
-x,1/2-y,z
x,-y,1/2-z
1/2-x,y,-z
-x,-y,-z
x,1/2+y,-z
-x,y,1/2+z
1/2+x,-y,z
1/2+x,1/2+y,1/2+z
1/2-x,-y,1/2+z
1/2+x,1/2-y,-z
-x,1/2+y,1/2-z
1/2-x,1/2-y,1/2-z
1/2+x,y,1/2-z
1/2-x,1/2+y,z
x,1/2-y,1/2+z
loop_
_atom_site_type_symbol
_atom_site_label
_atom_site_fract_x
_atom_site_fract_y
_atom_site_fract_z
Si Si1 0.195273 0.796087 0.610289
Si Si2 0.378986 0.899591 0.647009
Si Si3 0.945366 0.000000 0.250000
Si Si4 0.288812 0.000000 0.750000
Si Si5 0.528401 0.142363 0.981384
O O1 0.250000 0.829475 0.500000
O O2 0.193776 0.728817 0.416119
O O3 0.146498 0.844634 0.552582
O O4 0.329473 0.936507 0.790867
O O5 0.417365 0.859538 0.853322
O O6 0.409195 0.957228 0.465721
O O7 0.975701 0.939872 0.411162
O O8 0.250000 0.991439 0.500000
O O9 0.483554 0.170826 0.184984
#
# Coordination Sequence:
#
# PCOD9533035 Si02
#       5
#    16  16   8   8  16
#     4  10  25  47  71  96 127 179 237 283 328 395
#     4  12  26  42  70 101 141 176 227 274 349 406
#     4  12  23  41  64 106 142 180 215 275 346 408
#     4  12  27  41  62 100 144 176 207 271 356 416
#     4  12  25  41  66 101 142 180 223 272 333 415
#
# _framework density 26.396013
#
# number of rings (size 3 to 8) (size 9 to 14) (size 15 to 20)
#    0.000    0.500    5.000    2.250    3.500    3.000 
#    0.000    0.000    0.000    4.500    0.000    0.000 
#    0.000    0.000    0.000    0.000    0.000    0.000 
#
# Total GULP energy -179104.949465 kJ/mol
# GULP energy per Si atom -5597.029671 kJ/mol
# Density = 2.633593 g / cm^3
# Si number density = 26.396013 Si / 1000 Ang^3
#
#
#
# Elastic Constant Matrix: (Units=GPa)
#
#
# Indices 1 2 3 4 5 6 
#
# 1 147.8504 22.8607 51.0382 0.0000 0.0000 0.0000
# 2 22.8607 52.4381 7.5072 0.0000 0.0000 0.0000
# 3 51.0382 7.5072 132.2289 0.0000 0.0000 0.0000
# 4 0.0000 0.0000 0.0000 22.2816 0.0000 0.0000
# 5 0.0000 0.0000 0.0000 0.0000 50.4570 0.0000
# 6 0.0000 0.0000 0.0000 0.0000 0.0000 41.0150
#
#
#
# Elastic Compliance Matrix: (Units=1/GPa)
#
#
# Indices 1 2 3 4 5 6 
#
# 1 0.008300 -0.003186 -0.003023 0.000000 0.000000 0.000000
# 2 -0.003186 0.020449 0.000069 0.000000 0.000000 0.000000
# 3 -0.003023 0.000069 0.008725 0.000000 0.000000 0.000000
# 4 0.000000 0.000000 0.000000 0.044880 0.000000 0.000000
# 5 0.000000 0.000000 0.000000 0.000000 0.019819 0.000000
# 6 0.000000 0.000000 0.000000 0.000000 0.000000 0.024381
#
#
# Mechanical properties :
#
#
# Convention : Reuss Voigt Hill
#
# Bulk Modulus (GPa) = 39.69061 55.03663 47.36362
# Shear Modulus (GPa) = 33.96005 39.49146 36.72575
#
# Velocity S-wave (km/s) = 3.59076 3.87216 3.73411
# Velocity P-wave (km/s) = 5.67984 6.39430 6.04763
#
# Compressibility (1/GPa) = 0.02519488
#
# Stress axis : x y z
#
# Youngs Moduli (GPa) = 120.48826 48.90206 114.60736
#
# Poissons Ratio (x) = 0.15578 0.34642
# Poissons Ratio (y) = 0.38382 -0.00786
# Poissons Ratio (z) = 0.36419 -0.00335
#
# Static dielectric constant tensor:
#      x y z
#    x 2.133600 0.000000 0.000000 
#    y 0.000000 2.113210 0.000000 
#    z 0.000000 0.000000 2.078340 
# 
# From -- ./inp_files/1571.got.cif
#   From: 2010.05.17/outbox.cif.g08.bks.cpg/sg73_1_cif.got.tgz:1571.got - 2010.06.03 17:35:07.
