data_PCOD9533394
_publ_section_title
;
Structure prediction by ZEFSAII (Michael W. Deem and Ramdas Pophale) SiO2 
 PCOD9533394
Probable space group: I B C A 
;
_chemical_formula_sum "Si O2"
_cell_formula_units_Z 112
_cell_length_a 11.458293
_cell_length_b 26.399570
_cell_length_c 15.191936
_cell_angle_alpha 90.000000
_cell_angle_beta 90.000000
_cell_angle_gamma 90.000000
_cell_volume 4595.469612
_symmetry_space_group_name_H-M "I B C A "
_symmetry_group_IT_number 73
_symmetry_cell_setting 'orthorhombic'
loop_
_space_group_symop_operation_xyz
x,y,z
-x,1/2-y,z
x,-y,1/2-z
1/2-x,y,-z
-x,-y,-z
x,1/2+y,-z
-x,y,1/2+z
1/2+x,-y,z
1/2+x,1/2+y,1/2+z
1/2-x,-y,1/2+z
1/2+x,1/2-y,-z
-x,1/2+y,1/2-z
1/2-x,1/2-y,1/2-z
1/2+x,y,1/2-z
1/2-x,1/2+y,z
x,1/2-y,1/2+z
loop_
_atom_site_type_symbol
_atom_site_label
_atom_site_fract_x
_atom_site_fract_y
_atom_site_fract_z
Si Si1 0.385460 0.681831 0.838707
Si Si2 0.230486 0.099811 0.601412
Si Si3 0.632239 0.632850 0.628138
Si Si4 0.899458 0.302640 0.647211
Si Si5 0.750000 0.932778 0.000000
Si Si6 0.651094 0.998521 0.842214
Si Si7 0.458638 0.917630 0.797670
Si Si8 0.000000 0.750000 0.509818
O O1 0.254018 0.662020 0.854976
O O2 0.389719 0.715838 0.748402
O O3 0.462089 0.631978 0.816734
O O4 0.441750 0.709670 0.922896
O O5 0.250000 0.107637 0.500000
O O6 0.195213 0.152905 0.642879
O O7 0.352350 0.080253 0.636120
O O8 0.137349 0.056203 0.625516
O O9 0.525179 0.671053 0.632962
O O10 0.647998 0.603447 0.536403
O O11 0.602254 0.592296 0.703928
O O12 0.899064 0.268783 0.559009
O O13 0.788849 0.967706 0.080085
O O14 0.538756 0.965719 0.815950
O O15 0.720698 0.000000 0.750000
#
# Coordination Sequence:
#
# PCOD9533394 Si02
#       8
#    16  16  16  16   8  16  16   8
#     4  11  23  50  76 111 156 202 254 327 397 465
#     4  12  26  46  73 110 153 202 252 313 388 453
#     4  11  23  47  80 109 151 209 252 323 390 463
#     4  11  26  49  73 112 153 198 253 323 394 462
#     4  12  24  44  80 108 154 202 270 300 376 466
#     4  12  26  47  71 114 152 203 258 311 374 464
#     4  11  25  49  77 104 158 204 249 320 394 456
#     4  12  26  48  78 112 148 196 266 318 386 480
#
# _framework density 24.371829000000002
#
# number of rings (size 3 to 8) (size 9 to 14) (size 15 to 20)
#    0.000    0.571    3.571    4.714    2.000    3.429 
#    7.714    2.143    0.000    0.000    0.000    0.000 
#    0.000    0.000    0.000    0.000    0.000    0.000 
#
# Total GULP energy -313426.429483 kJ/mol
# GULP energy per Si atom -5596.900526 kJ/mol
# Density = 2.431636 g / cm^3
# Si number density = 24.371829 Si / 1000 Ang^3
#
#
#
# Elastic Constant Matrix: (Units=GPa)
#
#
# Indices 1 2 3 4 5 6 
#
# 1 51.8139 -0.0171 4.0330 0.0000 0.0000 0.0000
# 2 -0.0171 56.5627 26.1579 0.0001 0.0000 0.0000
# 3 4.0330 26.1579 153.9036 -0.0002 -0.0003 0.0001
# 4 0.0000 0.0001 -0.0002 38.6590 -0.0001 0.0000
# 5 0.0000 0.0000 -0.0003 -0.0001 -38.6698 0.0000
# 6 0.0000 0.0000 0.0001 0.0000 0.0000 25.9122
#
#
#
# Elastic Compliance Matrix: (Units=1/GPa)
#
#
# Indices 1 2 3 4 5 6 
#
# 1 0.019343 0.000261 -0.000551 0.000000 0.000000 0.000000
# 2 0.000261 0.019191 -0.003269 0.000000 0.000000 0.000000
# 3 -0.000551 -0.003269 0.007068 0.000000 0.000000 0.000000
# 4 0.000000 0.000000 0.000000 0.025867 0.000000 0.000000
# 5 0.000000 0.000000 0.000000 0.000000 -0.025860 0.000000
# 6 0.000000 0.000000 0.000000 0.000000 0.000000 0.038592
#
#
# Mechanical properties :
#
#
# Convention : Reuss Voigt Hill
#
# Bulk Modulus (GPa) = 25.98520 35.84753 30.91637
# Shear Modulus (GPa) = 48.00926 20.65404 34.33165
#
# Velocity S-wave (km/s) = 4.44313 2.91427 3.75729
# Velocity P-wave (km/s) = 6.08334 5.10534 5.61567
#
# Compressibility (1/GPa) = 0.03848344
#
# Stress axis : x y z
#
# Youngs Moduli (GPa) = 51.69870 52.10727 141.49149
#
# Poissons Ratio (x) = -0.01359 0.07799
# Poissons Ratio (y) = -0.01348 0.46248
# Poissons Ratio (z) = 0.02850 0.17032
#
# Static dielectric constant tensor:
#      x y z
#    x 1.918760 0.000000 0.000000 
#    y 0.000000 2.009180 0.000000 
#    z 0.000000 0.000000 1.979740 
# 
# From -- ./inp_files/16393.got.cif
#   From: 2010.05.17/outbox.cif.g08.bks.cpg/sg73_9_cif.got.tgz:16393.got - 2010.06.03 17:35:07.
