data_PCOD9533095
_publ_section_title
;
Structure prediction by ZEFSAII (Michael W. Deem and Ramdas Pophale) SiO2 
 PCOD9533095
Probable space group: I B C A 
;
_chemical_formula_sum "Si O2"
_cell_formula_units_Z 112
_cell_length_a 14.491498
_cell_length_b 14.426086
_cell_length_c 22.319236
_cell_angle_alpha 90.000000
_cell_angle_beta 90.000000
_cell_angle_gamma 90.000000
_cell_volume 4665.961194
_symmetry_space_group_name_H-M "I B C A "
_symmetry_group_IT_number 73
_symmetry_cell_setting 'orthorhombic'
loop_
_space_group_symop_operation_xyz
x,y,z
-x,1/2-y,z
x,-y,1/2-z
1/2-x,y,-z
-x,-y,-z
x,1/2+y,-z
-x,y,1/2+z
1/2+x,-y,z
1/2+x,1/2+y,1/2+z
1/2-x,-y,1/2+z
1/2+x,1/2-y,-z
-x,1/2+y,1/2-z
1/2-x,1/2-y,1/2-z
1/2+x,y,1/2-z
1/2-x,1/2+y,z
x,1/2-y,1/2+z
loop_
_atom_site_type_symbol
_atom_site_label
_atom_site_fract_x
_atom_site_fract_y
_atom_site_fract_z
Si Si1 0.599594 0.277970 0.206940
Si Si2 0.450829 0.888963 0.968503
Si Si3 0.850748 0.892936 0.319717
Si Si4 0.185734 0.408802 0.753301
Si Si5 0.673867 0.309303 0.874942
Si Si6 0.995337 0.935229 0.904741
Si Si7 0.365525 0.198516 0.070835
O O1 0.500000 0.250000 0.229439
O O2 0.632097 0.353509 0.253370
O O3 0.655457 0.182872 0.210962
O O4 0.598802 0.309599 0.139143
O O5 0.560441 0.862776 0.964753
O O6 0.387763 0.802351 0.951349
O O7 0.438691 0.973095 0.922426
O O8 0.439971 0.917139 0.037332
O O9 0.760201 0.950173 0.302200
O O10 0.835225 0.799911 0.359411
O O11 0.936164 0.945083 0.348805
O O12 0.120766 0.500000 0.750000
O O13 0.197537 0.362493 0.687375
O O14 0.576167 0.351636 0.894568
O O15 0.756818 0.321990 0.922815
#
# Coordination Sequence:
#
# PCOD9533095 Si02
#       7
#    16  16  16  16  16  16  16
#     4  11  20  41  64  97 133 180 222 276 349 429
#     4  10  26  48  69 102 139 189 242 292 345 420
#     4  11  22  41  68  99 139 178 226 289 351 420
#     4  11  24  39  65 106 144 172 233 292 358 428
#     4  11  23  42  70 102 138 182 231 288 352 426
#     4  11  26  47  72 102 141 181 247 299 343 412
#     4  11  22  43  75  93 142 182 228 283 358 423
#
# _framework density 24.003629
#
# number of rings (size 3 to 8) (size 9 to 14) (size 15 to 20)
#    0.000    1.143    4.286    3.000    8.000    0.571 
#    0.000    0.714    0.000    0.000    0.000    0.000 
#    0.000    0.000    0.000    0.000    0.000    0.000 
#
# Total GULP energy -312670.835582 kJ/mol
# GULP energy per Si atom -5583.407778 kJ/mol
# Density = 2.394900 g / cm^3
# Si number density = 24.003629 Si / 1000 Ang^3
#
#
#
# Elastic Constant Matrix: (Units=GPa)
#
#
# Indices 1 2 3 4 5 6 
#
# 1 55.6564 -7.1423 7.2419 0.0000 0.0000 0.0000
# 2 -7.1423 79.5347 19.3059 0.0000 0.0000 0.0000
# 3 7.2419 19.3059 72.8212 0.0000 0.0000 0.0000
# 4 0.0000 0.0000 0.0000 35.6091 0.0000 0.0000
# 5 0.0000 0.0000 0.0000 0.0000 14.8445 0.0000
# 6 0.0000 0.0000 0.0000 0.0000 0.0000 -3.1317
#
#
#
# Elastic Compliance Matrix: (Units=1/GPa)
#
#
# Indices 1 2 3 4 5 6 
#
# 1 0.018576 0.002262 -0.002447 0.000000 0.000000 0.000000
# 2 0.002262 0.013713 -0.003861 0.000000 0.000000 0.000000
# 3 -0.002447 -0.003861 0.014999 0.000000 0.000000 0.000000
# 4 0.000000 0.000000 0.000000 0.028083 0.000000 0.000000
# 5 0.000000 0.000000 0.000000 0.000000 0.067365 0.000000
# 6 0.000000 0.000000 0.000000 0.000000 0.000000 -0.319315
#
#
# Mechanical properties :
#
#
# Convention : Reuss Voigt Hill
#
# Bulk Modulus (GPa) = 25.51179 27.42482 26.46831
# Shear Modulus (GPa) = -32.17051 22.03816 -5.06617
#
# Velocity S-wave (km/s) = -3.66489 3.03333 -1.45436
# Velocity P-wave (km/s) = 2.69392 4.87014 2.86889
#
# Compressibility (1/GPa) = 0.03919757
#
# Stress axis : x y z
#
# Youngs Moduli (GPa) = 53.83264 72.92155 66.67062
#
# Poissons Ratio (x) = -0.16496 0.16315
# Poissons Ratio (y) = -0.12178 0.25739
# Poissons Ratio (z) = 0.13173 0.28152
#
# Static dielectric constant tensor:
#      x y z
#    x 1.981390 0.000000 0.000000 
#    y 0.000000 1.894510 0.000000 
#    z 0.000000 0.000000 1.885370 
# 
# From -- ./inp_files/29558.got.cif
#   From: 2010.05.17/outbox.cif.g08.bks.cpg/sg73_15_cif.got.tgz:29558.got - 2010.06.03 17:35:07.
