data_PCOD9533456
_publ_section_title
;
Structure prediction by ZEFSAII (Michael W. Deem and Ramdas Pophale) SiO2 
 PCOD9533456
Probable space group: I B C A 
;
_chemical_formula_sum "Si O2"
_cell_formula_units_Z 112
_cell_length_a 29.451902
_cell_length_b 11.540388
_cell_length_c 14.261067
_cell_angle_alpha 90.000000
_cell_angle_beta 90.000000
_cell_angle_gamma 90.000000
_cell_volume 4847.142386
_symmetry_space_group_name_H-M "I B C A "
_symmetry_group_IT_number 73
_symmetry_cell_setting 'orthorhombic'
loop_
_space_group_symop_operation_xyz
x,y,z
-x,1/2-y,z
x,-y,1/2-z
1/2-x,y,-z
-x,-y,-z
x,1/2+y,-z
-x,y,1/2+z
1/2+x,-y,z
1/2+x,1/2+y,1/2+z
1/2-x,-y,1/2+z
1/2+x,1/2-y,-z
-x,1/2+y,1/2-z
1/2-x,1/2-y,1/2-z
1/2+x,y,1/2-z
1/2-x,1/2+y,z
x,1/2-y,1/2+z
loop_
_atom_site_type_symbol
_atom_site_label
_atom_site_fract_x
_atom_site_fract_y
_atom_site_fract_z
Si Si1 0.524403 0.374017 0.261492
Si Si2 0.310039 0.949875 0.645237
Si Si3 0.024326 0.624202 0.484734
Si Si4 0.160331 0.695888 0.387415
Si Si5 0.880796 0.367048 0.424870
Si Si6 0.709367 0.015385 0.637998
Si Si7 0.121819 0.351174 0.308284
O O1 0.500000 0.250000 0.239745
O O2 0.499672 0.500000 0.250000
O O3 0.535512 0.365680 0.373107
O O4 0.568814 0.386067 0.193515
O O5 0.326367 0.819844 0.647256
O O6 0.258588 0.942237 0.606683
O O7 0.309342 0.000000 0.750000
O O8 0.346201 0.027137 0.588445
O O9 0.067502 0.606977 0.552106
O O10 0.000000 0.750000 0.506456
O O11 0.000000 0.500000 0.500000
O O12 0.133316 0.703474 0.482556
O O13 0.202247 0.610907 0.405052
O O14 0.134797 0.635447 0.300720
O O15 0.877207 0.282436 0.337229
O O16 0.662430 0.089465 0.630553
O O17 0.714186 0.000000 0.750000
#
# Coordination Sequence:
#
# PCOD9533456 Si02
#       7
#    16  16  16  16  16  16  16
#     4  11  26  47  77 108 145 195 257 306 375 456
#     4  11  25  46  72 107 145 191 246 308 369 436
#     4  11  29  50  73 109 151 191 248 318 377 445
#     4  11  24  46  69 102 148 187 245 298 366 448
#     4  12  28  44  77 107 145 195 244 307 376 440
#     4   9  23  43  73 101 145 195 243 301 368 440
#     4  11  24  47  75 105 145 197 244 302 371 452
#
# _framework density 23.106397999999999
#
# number of rings (size 3 to 8) (size 9 to 14) (size 15 to 20)
#    0.000    1.143    2.857    1.286   10.000    2.286 
#    0.000    0.000    0.000    0.000    0.000    0.000 
#    0.000    0.000    0.000    0.000    0.000    0.000 
#
# Total GULP energy -312322.449924 kJ/mol
# GULP energy per Si atom -5577.186606 kJ/mol
# Density = 2.305381 g / cm^3
# Si number density = 23.106398 Si / 1000 Ang^3
#
#
#
# Elastic Constant Matrix: (Units=GPa)
#
#
# Indices 1 2 3 4 5 6 
#
# 1 149.0467 92.7461 31.4320 0.0000 0.0000 0.0000
# 2 92.7461 155.2562 7.7300 0.0000 0.0000 0.0000
# 3 31.4320 7.7300 62.9270 0.0000 0.0000 0.0000
# 4 0.0000 0.0000 0.0000 31.3291 0.0000 0.0000
# 5 0.0000 0.0000 0.0000 0.0000 118.0845 0.0000
# 6 0.0000 0.0000 0.0000 0.0000 0.0000 25.5542
#
#
#
# Elastic Compliance Matrix: (Units=1/GPa)
#
#
# Indices 1 2 3 4 5 6 
#
# 1 0.012173 -0.007012 -0.005219 0.000000 0.000000 0.000000
# 2 -0.007012 0.010520 0.002210 0.000000 0.000000 0.000000
# 3 -0.005219 0.002210 0.018227 0.000000 0.000000 0.000000
# 4 0.000000 0.000000 0.000000 0.031919 0.000000 0.000000
# 5 0.000000 0.000000 0.000000 0.000000 0.008469 0.000000
# 6 0.000000 0.000000 0.000000 0.000000 0.000000 0.039133
#
#
# Mechanical properties :
#
#
# Convention : Reuss Voigt Hill
#
# Bulk Modulus (GPa) = 47.89747 70.11623 59.00685
# Shear Modulus (GPa) = 33.91167 50.68169 42.29668
#
# Velocity S-wave (km/s) = 3.83512 4.68846 4.28310
# Velocity P-wave (km/s) = 6.35492 7.72785 7.07477
#
# Compressibility (1/GPa) = 0.02087793
#
# Stress axis : x y z
#
# Youngs Moduli (GPa) = 82.14622 95.05843 54.86398
#
# Poissons Ratio (x) = 0.66657 0.28635
# Poissons Ratio (y) = 0.57603 -0.12127
# Poissons Ratio (z) = 0.42874 -0.21011
#
# Static dielectric constant tensor:
#      x y z
#    x 2.121370 0.000000 0.000000 
#    y 0.000000 1.864590 0.000000 
#    z 0.000000 0.000000 1.637510 
# 
# From -- ./inp_files/20056.got.cif
#   From: 2010.05.17/outbox.cif.g08.bks.cpg/sg73_11_cif.got.tgz:20056.got - 2010.06.03 17:35:07.
