data_PCOD9533195
_publ_section_title
;
Structure prediction by ZEFSAII (Michael W. Deem and Ramdas Pophale) SiO2 
 PCOD9533195
Probable space group: I B C A 
;
_chemical_formula_sum "Si O2"
_cell_formula_units_Z 120
_cell_length_a 21.637470
_cell_length_b 18.941035
_cell_length_c 13.778769
_cell_angle_alpha 90.000000
_cell_angle_beta 90.000000
_cell_angle_gamma 90.000000
_cell_volume 5647.036627
_symmetry_space_group_name_H-M "I B C A "
_symmetry_group_IT_number 73
_symmetry_cell_setting 'orthorhombic'
loop_
_space_group_symop_operation_xyz
x,y,z
-x,1/2-y,z
x,-y,1/2-z
1/2-x,y,-z
-x,-y,-z
x,1/2+y,-z
-x,y,1/2+z
1/2+x,-y,z
1/2+x,1/2+y,1/2+z
1/2-x,-y,1/2+z
1/2+x,1/2-y,-z
-x,1/2+y,1/2-z
1/2-x,1/2-y,1/2-z
1/2+x,y,1/2-z
1/2-x,1/2+y,z
x,1/2-y,1/2+z
loop_
_atom_site_type_symbol
_atom_site_label
_atom_site_fract_x
_atom_site_fract_y
_atom_site_fract_z
Si Si1 0.250000 0.039790 0.000000
Si Si2 0.658456 0.165046 0.500627
Si Si3 0.397842 0.252414 0.665168
Si Si4 0.999580 0.355139 0.789434
Si Si5 0.938166 0.055568 0.924384
Si Si6 0.689500 0.446228 0.666898
Si Si7 0.467390 0.393863 0.426936
Si Si8 0.795384 0.690559 0.287919
O O1 0.307128 0.091782 0.029841
O O2 0.269036 0.989944 0.909307
O O3 0.650976 0.225790 0.581788
O O4 0.586186 0.153017 0.474686
O O5 0.697249 0.183522 0.403448
O O6 0.453918 0.197025 0.650845
O O7 0.431909 0.323926 0.698153
O O8 0.361719 0.216647 0.752314
O O9 0.011773 0.428894 0.840559
O O10 0.018487 0.363141 0.678472
O O11 0.870283 0.079949 0.892638
O O12 0.936711 0.971457 0.931175
O O13 0.968191 0.093887 0.016752
O O14 0.666321 0.500000 0.750000
O O15 0.718043 0.381981 0.729203
O O16 0.750000 0.750000 0.250000
#
# Coordination Sequence:
#
# PCOD9533195 Si02
#       8
#     8  16  16  16  16  16  16  16
#     4  12  26  44  78 102 136 186 242 300 358 424
#     4  12  23  47  68 101 144 185 234 299 362 418
#     4  11  25  40  68 101 140 185 232 283 351 437
#     4  11  22  43  64 104 141 178 229 284 357 429
#     4  11  21  41  71 101 127 178 232 280 361 426
#     4  12  24  48  74 101 139 187 239 296 364 435
#     4  11  22  40  72 100 134 180 224 293 356 423
#     4  12  26  48  72  99 139 193 237 291 358 424
#
# _framework density 21.250083
#
# number of rings (size 3 to 8) (size 9 to 14) (size 15 to 20)
#    0.000    0.533    6.667    2.000    0.000    2.133 
#    2.400    0.000    0.000    0.000    0.000    0.000 
#    0.000    0.000    0.000    0.000    0.000    0.000 
#
# Total GULP energy -334657.211939 kJ/mol
# GULP energy per Si atom -5577.620199 kJ/mol
# Density = 2.120172 g / cm^3
# Si number density = 21.250083 Si / 1000 Ang^3
#
#
#
# Elastic Constant Matrix: (Units=GPa)
#
#
# Indices 1 2 3 4 5 6 
#
# 1 49.6785 22.4232 33.8389 0.0000 0.0000 0.0000
# 2 22.4232 64.5718 43.0987 0.0000 0.0000 0.0000
# 3 33.8389 43.0987 127.4115 0.0000 0.0000 0.0000
# 4 0.0000 0.0000 0.0000 29.6063 0.0000 0.0000
# 5 0.0000 0.0000 0.0000 0.0000 32.5522 0.0000
# 6 0.0000 0.0000 0.0000 0.0000 0.0000 45.7373
#
#
#
# Elastic Compliance Matrix: (Units=1/GPa)
#
#
# Indices 1 2 3 4 5 6 
#
# 1 0.026122 -0.005736 -0.004998 0.000000 0.000000 0.000000
# 2 -0.005736 0.021262 -0.005669 0.000000 0.000000 0.000000
# 3 -0.004998 -0.005669 0.011093 0.000000 0.000000 0.000000
# 4 0.000000 0.000000 0.000000 0.033777 0.000000 0.000000
# 5 0.000000 0.000000 0.000000 0.000000 0.030720 0.000000
# 6 0.000000 0.000000 0.000000 0.000000 0.000000 0.021864
#
#
# Mechanical properties :
#
#
# Convention : Reuss Voigt Hill
#
# Bulk Modulus (GPa) = 38.95030 48.93152 43.94091
# Shear Modulus (GPa) = 26.85275 31.06590 28.95932
#
# Velocity S-wave (km/s) = 3.55865 3.82765 3.69560
# Velocity P-wave (km/s) = 5.93756 6.52771 6.23962
#
# Compressibility (1/GPa) = 0.02567375
#
# Stress axis : x y z
#
# Youngs Moduli (GPa) = 38.28122 47.03205 90.14294
#
# Poissons Ratio (x) = 0.26976 0.45050
# Poissons Ratio (y) = 0.21957 0.51101
# Poissons Ratio (z) = 0.19132 0.26662
#
# Static dielectric constant tensor:
#      x y z
#    x 1.849940 0.000000 0.000000 
#    y 0.000000 1.889190 0.000000 
#    z 0.000000 0.000000 1.811030 
# 
# From -- ./inp_files/13828.got.cif
#   From: 2010.05.17/outbox.cif.g08.bks.cpg/sg73_7_cif.got.tgz:13828.got - 2010.06.03 17:35:07.
