data_PCOD9533437
_publ_section_title
;
Structure prediction by ZEFSAII (Michael W. Deem and Ramdas Pophale) SiO2 
 PCOD9533437
Probable space group: I B C A 
;
_chemical_formula_sum "Si O2"
_cell_formula_units_Z 88
_cell_length_a 14.719825
_cell_length_b 22.794287
_cell_length_c 11.335561
_cell_angle_alpha 90.000000
_cell_angle_beta 90.000000
_cell_angle_gamma 90.000000
_cell_volume 3803.397155
_symmetry_space_group_name_H-M "I B C A "
_symmetry_group_IT_number 73
_symmetry_cell_setting 'orthorhombic'
loop_
_space_group_symop_operation_xyz
x,y,z
-x,1/2-y,z
x,-y,1/2-z
1/2-x,y,-z
-x,-y,-z
x,1/2+y,-z
-x,y,1/2+z
1/2+x,-y,z
1/2+x,1/2+y,1/2+z
1/2-x,-y,1/2+z
1/2+x,1/2-y,-z
-x,1/2+y,1/2-z
1/2-x,1/2-y,1/2-z
1/2+x,y,1/2-z
1/2-x,1/2+y,z
x,1/2-y,1/2+z
loop_
_atom_site_type_symbol
_atom_site_label
_atom_site_fract_x
_atom_site_fract_y
_atom_site_fract_z
Si Si1 0.672765 0.122163 0.828055
Si Si2 0.750000 0.975901 0.500000
Si Si3 0.573970 0.496024 0.904664
Si Si4 0.012410 0.397685 0.774492
Si Si5 0.894173 0.268589 0.535921
Si Si6 0.347828 0.701460 0.275110
O O1 0.596827 0.107747 0.728387
O O2 0.621385 0.164208 0.922684
O O3 0.761345 0.157671 0.783122
O O4 0.705232 0.064952 0.899284
O O5 0.824797 0.016051 0.559580
O O6 0.569482 0.564521 0.867870
O O7 0.536622 0.442557 0.829268
O O8 0.500000 0.500000 0.000000
O O9 0.058436 0.335061 0.770218
O O10 0.854056 0.263996 0.401837
O O11 0.848934 0.235103 0.649125
O O12 0.000000 0.250000 0.530877
#
# Coordination Sequence:
#
# PCOD9533437 Si02
#       6
#    16   8  16  16  16  16
#     4  12  23  45  76 104 147 202 243 309 382 454
#     4  12  22  46  78 102 154 196 240 308 392 450
#     4  11  24  44  73 108 146 191 252 307 377 461
#     4  11  25  45  73 108 145 195 249 310 378 454
#     4  12  25  45  76 106 148 197 253 309 387 451
#     4  12  26  48  73 111 150 202 253 316 378 458
#
# _framework density 23.137211000000001
#
# number of rings (size 3 to 8) (size 9 to 14) (size 15 to 20)
#    0.000    0.364    7.273    1.091    0.000    1.455 
#    0.000    0.000    4.000    0.000    0.000    0.000 
#    0.000    0.000    0.000    0.000    0.000    0.000 
#
# Total GULP energy -245238.205707 kJ/mol
# GULP energy per Si atom -5573.595584 kJ/mol
# Density = 2.308455 g / cm^3
# Si number density = 23.137211 Si / 1000 Ang^3
#
#
#
# Elastic Constant Matrix: (Units=GPa)
#
#
# Indices 1 2 3 4 5 6 
#
# 1 115.9129 -11.0050 13.1752 0.0000 0.0000 0.0000
# 2 -11.0050 40.2040 10.3856 0.0000 0.0000 0.0000
# 3 13.1752 10.3856 109.4626 -0.0002 0.0000 0.0000
# 4 0.0000 0.0000 -0.0002 45.1953 0.0000 0.0000
# 5 0.0000 0.0000 0.0000 0.0000 28.3045 0.0000
# 6 0.0000 0.0000 0.0000 0.0000 0.0000 47.1086
#
#
#
# Elastic Compliance Matrix: (Units=1/GPa)
#
#
# Indices 1 2 3 4 5 6 
#
# 1 0.009050 0.002828 -0.001358 0.000000 0.000000 0.000000
# 2 0.002828 0.026382 -0.002843 0.000000 0.000000 0.000000
# 3 -0.001358 -0.002843 0.009569 0.000000 0.000000 0.000000
# 4 0.000000 0.000000 0.000000 0.022126 0.000000 0.000000
# 5 0.000000 0.000000 0.000000 0.000000 0.035330 0.000000
# 6 0.000000 0.000000 0.000000 0.000000 0.000000 0.021228
#
#
# Mechanical properties :
#
#
# Convention : Reuss Voigt Hill
#
# Bulk Modulus (GPa) = 23.66624 32.29903 27.98264
# Shear Modulus (GPa) = 35.58334 40.98993 38.28664
#
# Velocity S-wave (km/s) = 3.92590 4.21361 4.07229
# Velocity P-wave (km/s) = 5.54987 6.13700 5.85080
#
# Compressibility (1/GPa) = 0.04225428
#
# Stress axis : x y z
#
# Youngs Moduli (GPa) = 110.49770 37.90495 104.50714
#
# Poissons Ratio (x) = -0.10719 0.14188
# Poissons Ratio (y) = -0.31248 0.29716
# Poissons Ratio (z) = 0.15001 0.10778
#
# Static dielectric constant tensor:
#      x y z
#    x 1.788970 0.000000 0.000000 
#    y 0.000000 1.910270 0.000000 
#    z 0.000000 0.000000 2.109300 
# 
# From -- ./inp_files/10937.got.cif
#   From: 2010.05.17/outbox.cif.g08.bks.cpg/sg73_6_cif.got.tgz:10937.got - 2010.06.03 17:35:07.
