data_PCOD9533290
_publ_section_title
;
Structure prediction by ZEFSAII (Michael W. Deem and Ramdas Pophale) SiO2 
 PCOD9533290
Probable space group: I B C A 
;
_chemical_formula_sum "Si O2"
_cell_formula_units_Z 112
_cell_length_a 22.093458
_cell_length_b 14.204871
_cell_length_c 14.288002
_cell_angle_alpha 90.000000
_cell_angle_beta 90.000000
_cell_angle_gamma 90.000000
_cell_volume 4484.071119
_symmetry_space_group_name_H-M "I B C A "
_symmetry_group_IT_number 73
_symmetry_cell_setting 'orthorhombic'
loop_
_space_group_symop_operation_xyz
x,y,z
-x,1/2-y,z
x,-y,1/2-z
1/2-x,y,-z
-x,-y,-z
x,1/2+y,-z
-x,y,1/2+z
1/2+x,-y,z
1/2+x,1/2+y,1/2+z
1/2-x,-y,1/2+z
1/2+x,1/2-y,-z
-x,1/2+y,1/2-z
1/2-x,1/2-y,1/2-z
1/2+x,y,1/2-z
1/2-x,1/2+y,z
x,1/2-y,1/2+z
loop_
_atom_site_type_symbol
_atom_site_label
_atom_site_fract_x
_atom_site_fract_y
_atom_site_fract_z
Si Si1 0.669114 0.203988 0.691796
Si Si2 0.712850 0.808272 0.087191
Si Si3 0.504057 0.860934 0.255196
Si Si4 0.087835 0.926614 0.595455
Si Si5 0.857875 0.602527 0.264616
Si Si6 0.858303 0.625519 0.899852
Si Si7 0.986853 0.855824 0.466088
O O1 0.738098 0.179604 0.670315
O O2 0.628144 0.166028 0.607797
O O3 0.666746 0.315437 0.699192
O O4 0.641912 0.161323 0.789507
O O5 0.654711 0.862755 0.128583
O O6 0.693093 0.699941 0.067720
O O7 0.750000 0.846724 0.000000
O O8 0.500000 0.750000 0.282075
O O9 0.459160 0.920881 0.318234
O O10 0.571939 0.896921 0.262445
O O11 0.490480 0.864409 0.145689
O O12 0.039708 0.919749 0.510792
O O13 0.136057 0.011910 0.604728
O O14 0.831271 0.500000 0.250000
O O15 0.914317 0.636121 0.973440
O O16 0.000000 0.750000 0.496854
#
# Coordination Sequence:
#
# PCOD9533290 Si02
#       7
#    16  16  16  16  16  16  16
#     4  11  24  47  77 102 149 209 263 314 398 458
#     4  11  27  51  80 107 152 207 269 331 390 455
#     4  11  22  45  71 109 161 207 248 319 402 479
#     4  12  25  43  78 117 151 209 254 318 403 482
#     4  11  25  45  75 108 150 196 263 319 392 476
#     4  11  24  48  72 109 155 201 260 321 383 474
#     4  11  24  41  70 109 165 198 254 315 399 472
#
# _framework density 24.977304
#
# number of rings (size 3 to 8) (size 9 to 14) (size 15 to 20)
#    0.000    0.857    2.857    5.571    6.000    2.286 
#    2.571    1.429    0.000    0.000    0.000    0.000 
#    0.000    0.000    0.000    0.000    0.000    0.000 
#
# Total GULP energy -312379.282279 kJ/mol
# GULP energy per Si atom -5578.201469 kJ/mol
# Density = 2.492045 g / cm^3
# Si number density = 24.977304 Si / 1000 Ang^3
#
#
#
# Elastic Constant Matrix: (Units=GPa)
#
#
# Indices 1 2 3 4 5 6 
#
# 1 107.5750 15.4956 14.3831 0.0000 0.0000 0.0000
# 2 15.4956 157.8524 23.5124 0.0000 0.0000 0.0000
# 3 14.3831 23.5124 68.5228 0.0000 0.0000 0.0000
# 4 0.0000 0.0000 0.0000 1.2429 0.0000 0.0000
# 5 0.0000 0.0000 0.0000 0.0000 -2.5531 0.0000
# 6 0.0000 0.0000 0.0000 0.0000 0.0000 22.7926
#
#
#
# Elastic Compliance Matrix: (Units=1/GPa)
#
#
# Indices 1 2 3 4 5 6 
#
# 1 0.009633 -0.000679 -0.001789 0.000000 0.000000 0.000000
# 2 -0.000679 0.006724 -0.002165 0.000000 0.000000 0.000000
# 3 -0.001789 -0.002165 0.015712 0.000000 0.000000 0.000000
# 4 0.000000 0.000000 0.000000 0.804563 0.000000 0.000000
# 5 0.000000 0.000000 0.000000 0.000000 -0.391684 0.000000
# 6 0.000000 0.000000 0.000000 0.000000 0.000000 0.043874
#
#
# Mechanical properties :
#
#
# Convention : Reuss Voigt Hill
#
# Bulk Modulus (GPa) = 43.85313 48.97024 46.41169
# Shear Modulus (GPa) = 9.88752 23.00044 16.44398
#
# Velocity S-wave (km/s) = 1.99178 3.03785 2.56863
# Velocity P-wave (km/s) = 4.78382 5.65271 5.23632
#
# Compressibility (1/GPa) = 0.02280339
#
# Stress axis : x y z
#
# Youngs Moduli (GPa) = 103.81141 148.71792 63.64580
#
# Poissons Ratio (x) = 0.10100 0.11386
# Poissons Ratio (y) = 0.07050 0.13777
# Poissons Ratio (z) = 0.18571 0.32193
#
# Static dielectric constant tensor:
#      x y z
#    x 2.121090 0.000000 0.000000 
#    y 0.000000 2.045200 0.000000 
#    z 0.000000 0.000000 2.071890 
# 
# From -- ./inp_files/19405.got.cif
#   From: 2010.05.17/outbox.cif.g08.bks.cpg/sg73_10_cif.got.tgz:19405.got - 2010.06.03 17:35:07.
