data_PCOD9533816
_publ_section_title
;
Structure prediction by ZEFSAII (Michael W. Deem and Ramdas Pophale) SiO2 
 PCOD9533816
Probable space group: I M M A
;
_chemical_formula_sum "Si O2"
_cell_formula_units_Z 88
_cell_length_a 21.494432
_cell_length_b 24.991647
_cell_length_c 7.182583
_cell_angle_alpha 90.000000
_cell_angle_beta 90.000000
_cell_angle_gamma 90.000000
_cell_volume 3858.348965
_symmetry_space_group_name_H-M "I M M A"
_symmetry_group_IT_number 74
_symmetry_cell_setting 'orthorhombic'
loop_
_space_group_symop_operation_xyz
x,y,z
-x,1/2-y,z
x,-y,-z
-x,1/2+y,-z
-x,-y,-z
x,1/2+y,-z
-x,y,z
x,1/2-y,z
1/2+x,1/2+y,1/2+z
1/2-x,-y,1/2+z
1/2+x,1/2-y,1/2-z
1/2-x,y,1/2-z
1/2-x,1/2-y,1/2-z
1/2+x,y,1/2-z
1/2-x,1/2+y,1/2+z
1/2+x,-y,1/2+z
loop_
_atom_site_type_symbol
_atom_site_label
_atom_site_fract_x
_atom_site_fract_y
_atom_site_fract_z
Si Si1 0.389734 0.135262 0.541167
Si Si2 0.904269 0.750000 0.075158
Si Si3 0.500000 0.562248 0.461749
Si Si4 0.382777 0.633158 0.002400
Si Si5 0.072080 0.250000 0.484104
Si Si6 0.251879 0.131216 0.957940
Si Si7 0.000000 0.063753 0.520927
Si Si8 0.259071 0.250000 0.473443
O O1 0.421223 0.192420 0.494320
O O2 0.436288 0.089841 0.474690
O O3 0.383219 0.135776 0.768725
O O4 0.318758 0.129111 0.469335
O O5 0.924321 0.750000 0.289865
O O6 0.829914 0.750000 0.043386
O O7 0.500000 0.500000 0.500000
O O8 0.500000 0.572780 0.241713
O O9 0.396683 0.693429 0.929843
O O10 0.314741 0.610762 0.947095
O O11 0.438574 0.593712 0.949026
O O12 0.000000 0.250000 0.428762
O O13 0.250000 0.108395 0.750000
O O14 0.267675 0.194857 0.950194
O O15 0.000000 0.000000 0.500000
O O16 0.250000 0.250000 0.250000
#
# Coordination Sequence:
#
# PCOD9533816 Si02
#       8
#    16   8   8  16   8  16   8   8
#     4   8  16  28  49  76 100 119 161 205 257 292
#     4   8  16  26  44  72 101 126 155 202 243 290
#     4  10  20  35  53  71  93 132 165 212 258 302
#     4   9  16  28  49  75 101 126 158 204 257 293
#     4  10  15  23  46  83 106 120 159 217 258 288
#     4   9  16  30  50  74  97 126 165 217 250 291
#     4  10  20  35  49  69  97 128 167 204 248 310
#     4  10  18  29  43  70 108 145 163 185 241 312
#
# _framework density 22.807683999999998
#
# number of rings (size 3 to 8) (size 9 to 14) (size 15 to 20)
#    0.000    2.909    0.909    1.909    3.818    1.455 
#    0.000    4.545    0.000    0.000    2.364    0.000 
#    0.000    0.000    0.000    0.000    0.000    0.000 
#
# Total GULP energy -245392.958003 kJ/mol
# GULP energy per Si atom -5577.112682 kJ/mol
# Density = 2.275577 g / cm^3
# Si number density = 22.807684 Si / 1000 Ang^3
#
#
#
# Elastic Constant Matrix: (Units=GPa)
#
#
# Indices 1 2 3 4 5 6 
#
# 1 200.5275 82.3887 -8.7098 0.0000 0.0000 0.0000
# 2 82.3887 132.1459 -13.2181 0.0000 0.0000 0.0000
# 3 -8.7098 -13.2181 107.8771 0.0000 0.0000 0.0000
# 4 0.0000 0.0000 0.0000 9.7508 0.0000 0.0000
# 5 0.0000 0.0000 0.0000 0.0000 -16.8757 0.0000
# 6 0.0000 0.0000 0.0000 0.0000 0.0000 0.4975
#
#
#
# Elastic Compliance Matrix: (Units=1/GPa)
#
#
# Indices 1 2 3 4 5 6 
#
# 1 0.006704 -0.004177 0.000029 0.000000 0.000000 0.000000
# 2 -0.004177 0.010264 0.000920 0.000000 0.000000 0.000000
# 3 0.000029 0.000920 0.009385 0.000000 0.000000 0.000000
# 4 0.000000 0.000000 0.000000 0.102556 0.000000 0.000000
# 5 0.000000 0.000000 0.000000 0.000000 -0.059257 0.000000
# 6 0.000000 0.000000 0.000000 0.000000 0.000000 2.009938
#
#
# Mechanical properties :
#
#
# Convention : Reuss Voigt Hill
#
# Bulk Modulus (GPa) = 50.25457 62.38578 56.32017
# Shear Modulus (GPa) = 2.38928 24.01386 13.20157
#
# Velocity S-wave (km/s) = 1.02462 3.24834 2.40848
# Velocity P-wave (km/s) = 4.84579 6.44060 5.69925
#
# Compressibility (1/GPa) = 0.01989869
#
# Stress axis : x y z
#
# Youngs Moduli (GPa) = 149.15884 97.43136 106.55346
#
# Poissons Ratio (x) = 0.40696 -0.00314
# Poissons Ratio (y) = 0.62303 -0.09807
# Poissons Ratio (z) = -0.00440 -0.08967
#
# Static dielectric constant tensor:
#      x y z
#    x 1.868410 0.000000 0.000000 
#    y 0.000000 1.825480 0.000000 
#    z 0.000000 0.000000 1.954180 
# 
# From -- ./inp_files/12535.got.cif
#   From: 2010.05.17/outbox.cif.g08.bks.cpg/sg74_7_cif.got.tgz:12535.got - 2010.06.03 17:57:02.
