data_PCOD9533545
_publ_section_title
;
Structure prediction by ZEFSAII (Michael W. Deem and Ramdas Pophale) SiO2 
 PCOD9533545
Probable space group: I B C A 
;
_chemical_formula_sum "Si O2"
_cell_formula_units_Z 64
_cell_length_a 30.049182
_cell_length_b 9.924049
_cell_length_c 9.709822
_cell_angle_alpha 90.000000
_cell_angle_beta 90.000000
_cell_angle_gamma 90.000000
_cell_volume 2895.561694
_symmetry_space_group_name_H-M "I B C A "
_symmetry_group_IT_number 73
_symmetry_cell_setting 'orthorhombic'
loop_
_space_group_symop_operation_xyz
x,y,z
-x,1/2-y,z
x,-y,1/2-z
1/2-x,y,-z
-x,-y,-z
x,1/2+y,-z
-x,y,1/2+z
1/2+x,-y,z
1/2+x,1/2+y,1/2+z
1/2-x,-y,1/2+z
1/2+x,1/2-y,-z
-x,1/2+y,1/2-z
1/2-x,1/2-y,1/2-z
1/2+x,y,1/2-z
1/2-x,1/2+y,z
x,1/2-y,1/2+z
loop_
_atom_site_type_symbol
_atom_site_label
_atom_site_fract_x
_atom_site_fract_y
_atom_site_fract_z
Si Si1 0.735936 0.623027 0.340502
Si Si2 0.542619 0.153756 0.196879
Si Si3 0.402332 0.765419 0.056418
Si Si4 0.636897 0.975484 0.891974
O O1 0.755363 0.500000 0.250000
O O2 0.750000 0.630359 0.500000
O O3 0.750000 0.750000 0.250000
O O4 0.683250 0.593881 0.352734
O O5 0.500000 0.250000 0.208762
O O6 0.560363 0.164414 0.039972
O O7 0.579716 0.222022 0.295053
O O8 0.535245 0.000000 0.250000
O O9 0.388065 0.625266 0.989956
O O10 0.361509 0.872084 0.052063
O O11 0.610640 0.000000 0.750000
#
# Coordination Sequence:
#
# PCOD9533545 Si02
#       4
#    16  16  16  16
#     4  11  27  48  74 110 151 196 245 302 373 449
#     4  12  28  45  71 103 142 195 244 310 373 440
#     4  12  25  47  71 103 143 185 250 300 366 435
#     4  11  26  45  74 106 142 189 242 305 361 444
#
# _framework density 22.102792999999998
#
# number of rings (size 3 to 8) (size 9 to 14) (size 15 to 20)
#    0.000    0.500    5.000    1.500   14.000    2.000 
#    0.000    0.000    0.000    0.000    0.000    0.000 
#    0.000    0.000    0.000    0.000    0.000    0.000 
#
# Total GULP energy -178613.430440 kJ/mol
# GULP energy per Si atom -5581.669701 kJ/mol
# Density = 2.205249 g / cm^3
# Si number density = 22.102793 Si / 1000 Ang^3
#
#
#
# Elastic Constant Matrix: (Units=GPa)
#
#
# Indices 1 2 3 4 5 6 
#
# 1 47.8062 28.4867 -4.3974 0.0000 0.0000 0.0000
# 2 28.4867 192.4552 34.6024 0.0000 0.0000 0.0000
# 3 -4.3974 34.6024 103.0403 0.0000 0.0000 0.0000
# 4 0.0000 0.0000 0.0000 41.5653 0.0000 0.0000
# 5 0.0000 0.0000 0.0000 0.0000 35.2649 0.0000
# 6 0.0000 0.0000 0.0000 0.0000 0.0000 23.7809
#
#
#
# Elastic Compliance Matrix: (Units=1/GPa)
#
#
# Indices 1 2 3 4 5 6 
#
# 1 0.023445 -0.003885 0.002305 0.000000 0.000000 0.000000
# 2 -0.003885 0.006174 -0.002239 0.000000 0.000000 0.000000
# 3 0.002305 -0.002239 0.010555 0.000000 0.000000 0.000000
# 4 0.000000 0.000000 0.000000 0.024059 0.000000 0.000000
# 5 0.000000 0.000000 0.000000 0.000000 0.028357 0.000000
# 6 0.000000 0.000000 0.000000 0.000000 0.000000 0.042051
#
#
# Mechanical properties :
#
#
# Convention : Reuss Voigt Hill
#
# Bulk Modulus (GPa) = 30.73494 51.18724 40.96109
# Shear Modulus (GPa) = 32.65374 39.09621 35.87498
#
# Velocity S-wave (km/s) = 3.84781 4.21032 4.03314
# Velocity P-wave (km/s) = 5.80315 6.84432 6.34512
#
# Compressibility (1/GPa) = 0.03253626
#
# Stress axis : x y z
#
# Youngs Moduli (GPa) = 42.65374 161.98109 94.74014
#
# Poissons Ratio (x) = 0.62924 -0.21838
# Poissons Ratio (y) = 0.16569 0.21212
# Poissons Ratio (z) = -0.09832 0.36267
#
# Static dielectric constant tensor:
#      x y z
#    x 1.862720 0.000000 0.000000 
#    y 0.000000 1.868710 0.000000 
#    z 0.000000 0.000000 1.430650 
# 
# From -- ./inp_files/3967.got.cif
#   From: 2010.05.17/outbox.cif.g08.bks.cpg/sg73_2_cif.got.tgz:3967.got - 2010.06.03 17:35:07.
