data_PCOD9533310
_publ_section_title
;
Structure prediction by ZEFSAII (Michael W. Deem and Ramdas Pophale) SiO2 
 PCOD9533310
Probable space group: I B C A 
;
_chemical_formula_sum "Si O2"
_cell_formula_units_Z 104
_cell_length_a 19.964576
_cell_length_b 18.065186
_cell_length_c 14.446801
_cell_angle_alpha 90.000000
_cell_angle_beta 90.000000
_cell_angle_gamma 90.000000
_cell_volume 5210.437841
_symmetry_space_group_name_H-M "I B C A "
_symmetry_group_IT_number 73
_symmetry_cell_setting 'orthorhombic'
loop_
_space_group_symop_operation_xyz
x,y,z
-x,1/2-y,z
x,-y,1/2-z
1/2-x,y,-z
-x,-y,-z
x,1/2+y,-z
-x,y,1/2+z
1/2+x,-y,z
1/2+x,1/2+y,1/2+z
1/2-x,-y,1/2+z
1/2+x,1/2-y,-z
-x,1/2+y,1/2-z
1/2-x,1/2-y,1/2-z
1/2+x,y,1/2-z
1/2-x,1/2+y,z
x,1/2-y,1/2+z
loop_
_atom_site_type_symbol
_atom_site_label
_atom_site_fract_x
_atom_site_fract_y
_atom_site_fract_z
Si Si1 0.489272 0.081272 0.453376
Si Si2 0.501015 0.338957 0.624888
Si Si3 0.250000 0.664494 0.000000
Si Si4 0.553374 0.316173 0.821390
Si Si5 0.142137 0.915401 0.843695
Si Si6 0.143589 0.420614 0.377032
Si Si7 0.695415 0.758650 0.667422
O O1 0.459630 0.129979 0.536971
O O2 0.551699 0.124696 0.405655
O O3 0.436420 0.086956 0.369561
O O4 0.500000 0.000000 0.500000
O O5 0.500000 0.250000 0.618390
O O6 0.532085 0.354474 0.724955
O O7 0.429726 0.381773 0.614352
O O8 0.193802 0.619669 0.055150
O O9 0.282515 0.713023 0.079400
O O10 0.500000 0.250000 0.841945
O O11 0.623755 0.275572 0.803202
O O12 0.154220 0.916739 0.733538
O O13 0.181974 0.841836 0.868074
O O14 0.156956 0.992430 0.894112
O O15 0.750000 0.750000 0.750000
#
# Coordination Sequence:
#
# PCOD9533310 Si02
#       7
#    16  16   8  16  16  16  16
#     4  12  23  38  67 107 142 185 236 302 371 446
#     4  11  23  38  70 100 137 179 240 291 370 426
#     4  12  28  44  76 102 148 188 260 296 372 464
#     4  11  23  44  70 103 146 180 240 305 361 442
#     4  11  23  44  71  96 147 190 239 299 383 437
#     4  11  23  46  70  99 139 201 237 300 375 452
#     4  12  26  47  73 109 142 194 250 311 376 449
#
# _framework density 19.959935999999999
#
# number of rings (size 3 to 8) (size 9 to 14) (size 15 to 20)
#    0.000    0.615    6.154    2.308    2.154    1.231 
#    0.000    0.000    3.385    0.000    0.000    0.000 
#    0.000    0.000    0.000    0.000    0.000    0.000 
#
# Total GULP energy -289699.277646 kJ/mol
# GULP energy per Si atom -5571.139955 kJ/mol
# Density = 1.991451 g / cm^3
# Si number density = 19.959936 Si / 1000 Ang^3
#
#
#
# Elastic Constant Matrix: (Units=GPa)
#
#
# Indices 1 2 3 4 5 6 
#
# 1 115.0485 58.9038 43.5021 0.0000 0.0000 0.0000
# 2 58.9038 142.2091 56.8669 0.0000 0.0000 0.0000
# 3 43.5021 56.8669 115.6365 0.0000 0.0000 0.0000
# 4 0.0000 0.0000 0.0000 31.9432 0.0000 0.0000
# 5 0.0000 0.0000 0.0000 0.0000 29.9869 0.0000
# 6 0.0000 0.0000 0.0000 0.0000 0.0000 16.9068
#
#
#
# Elastic Compliance Matrix: (Units=1/GPa)
#
#
# Indices 1 2 3 4 5 6 
#
# 1 0.011579 -0.003802 -0.002486 0.000000 0.000000 0.000000
# 2 -0.003802 0.010001 -0.003488 0.000000 0.000000 0.000000
# 3 -0.002486 -0.003488 0.011299 0.000000 0.000000 0.000000
# 4 0.000000 0.000000 0.000000 0.031306 0.000000 0.000000
# 5 0.000000 0.000000 0.000000 0.000000 0.033348 0.000000
# 6 0.000000 0.000000 0.000000 0.000000 0.000000 0.059148
#
#
# Mechanical properties :
#
#
# Convention : Reuss Voigt Hill
#
# Bulk Modulus (GPa) = 75.04048 76.82664 75.93356
# Shear Modulus (GPa) = 27.67409 30.00879 28.84144
#
# Velocity S-wave (km/s) = 3.72759 3.88164 3.80540
# Velocity P-wave (km/s) = 7.49691 7.65921 7.57850
#
# Compressibility (1/GPa) = 0.01332614
#
# Stress axis : x y z
#
# Youngs Moduli (GPa) = 86.36685 99.98524 88.50703
#
# Poissons Ratio (x) = 0.38011 0.22005
# Poissons Ratio (y) = 0.32834 0.30874
# Poissons Ratio (z) = 0.21473 0.34878
#
# Static dielectric constant tensor:
#      x y z
#    x 1.854760 0.000000 0.000000 
#    y 0.000000 1.704070 0.000000 
#    z 0.000000 0.000000 1.734730 
# 
# From -- ./inp_files/18792.got.cif
#   From: 2010.05.17/outbox.cif.g08.bks.cpg/sg73_10_cif.got.tgz:18792.got - 2010.06.03 17:35:07.
