data_PCOD9533831
_publ_section_title
;
Structure prediction by ZEFSAII (Michael W. Deem and Ramdas Pophale) SiO2 
 PCOD9533831
Probable space group: I M M A
;
_chemical_formula_sum "Si O2"
_cell_formula_units_Z 48
_cell_length_a 12.875424
_cell_length_b 21.998473
_cell_length_c 6.837071
_cell_angle_alpha 90.000000
_cell_angle_beta 90.000000
_cell_angle_gamma 90.000000
_cell_volume 1936.529715
_symmetry_space_group_name_H-M "I M M A"
_symmetry_group_IT_number 74
_symmetry_cell_setting 'orthorhombic'
loop_
_space_group_symop_operation_xyz
x,y,z
-x,1/2-y,z
x,-y,-z
-x,1/2+y,-z
-x,-y,-z
x,1/2+y,-z
-x,y,z
x,1/2-y,z
1/2+x,1/2+y,1/2+z
1/2-x,-y,1/2+z
1/2+x,1/2-y,1/2-z
1/2-x,y,1/2-z
1/2-x,1/2-y,1/2-z
1/2+x,y,1/2-z
1/2-x,1/2+y,1/2+z
1/2+x,-y,1/2+z
loop_
_atom_site_type_symbol
_atom_site_label
_atom_site_fract_x
_atom_site_fract_y
_atom_site_fract_z
Si Si1 0.385608 0.845130 0.591589
Si Si2 0.338961 0.682399 0.043264
Si Si3 0.500000 0.414666 0.850394
Si Si4 0.500000 0.455700 0.300369
O O1 0.500000 0.824699 0.522179
O O2 0.372714 0.821575 0.814121
O O3 0.284794 0.826592 0.472242
O O4 0.400553 0.918195 0.618387
O O5 0.364374 0.750000 0.113402
O O6 0.400026 0.629072 0.153704
O O7 0.500000 0.440267 0.069904
O O8 0.500000 0.471495 0.701522
#
# Coordination Sequence:
#
# PCOD9533831 Si02
#       4
#    16  16   8   8
#     4   8  15  24  35  51  74 108 139 163 192 237
#     4  10  16  21  34  59  84 105 125 163 213 250
#     4   9  15  24  36  54  76 110 134 164 203 240
#     4   7  14  26  36  48  69 109 150 160 191 225
#
# _framework density 24.786608000000001
#
# number of rings (size 3 to 8) (size 9 to 14) (size 15 to 20)
#    1.000    2.333    1.667    2.500    0.000    2.000 
#    0.000    0.000    0.000    0.000    4.333    7.000 
#    0.000    0.000    0.000  396.000    0.000    0.000 
#
# Total GULP energy -134079.795576 kJ/mol
# GULP energy per Si atom -5586.658149 kJ/mol
# Density = 2.473019 g / cm^3
# Si number density = 24.786608 Si / 1000 Ang^3
#
#
#
# Elastic Constant Matrix: (Units=GPa)
#
#
# Indices 1 2 3 4 5 6 
#
# 1 173.6904 66.8736 10.9790 -0.0016 -0.0001 -0.0001
# 2 66.8736 244.0137 34.0204 -0.0028 0.0006 0.0001
# 3 10.9790 34.0204 46.5223 -0.0188 0.0032 0.0007
# 4 -0.0016 -0.0028 -0.0188 43.9453 0.0013 0.0005
# 5 -0.0001 0.0006 0.0032 0.0013 56.8078 0.0003
# 6 -0.0001 0.0001 0.0007 0.0005 0.0003 13.9378
#
#
#
# Elastic Compliance Matrix: (Units=1/GPa)
#
#
# Indices 1 2 3 4 5 6 
#
# 1 0.006439 -0.001729 -0.000255 0.000000 0.000000 0.000000
# 2 -0.001729 0.005028 -0.003269 -0.000001 0.000000 0.000000
# 3 -0.000255 -0.003269 0.023946 0.000010 -0.000001 -0.000001
# 4 0.000000 -0.000001 0.000010 0.022756 -0.000001 -0.000001
# 5 0.000000 0.000000 -0.000001 -0.000001 0.017603 0.000000
# 6 0.000000 0.000000 -0.000001 -0.000001 0.000000 0.071747
#
#
# Mechanical properties :
#
#
# Convention : Reuss Voigt Hill
#
# Bulk Modulus (GPa) = 40.14974 76.44136 58.29555
# Shear Modulus (GPa) = 30.06137 46.42840 38.24488
#
# Velocity S-wave (km/s) = 3.48632 4.33266 3.93232
# Velocity P-wave (km/s) = 5.69554 7.47903 6.64737
#
# Compressibility (1/GPa) = 0.02490676
#
# Stress axis : x y z
#
# Youngs Moduli (GPa) = 155.29764 198.89738 41.76150
#
# Poissons Ratio (x) = 0.34392 0.01066
# Poissons Ratio (y) = 0.26853 0.13650
# Poissons Ratio (z) = 0.03962 0.65011
#
# Static dielectric constant tensor:
#      x y z
#    x 1.901760 0.000000 0.000000 
#    y 0.000000 1.959540 0.000000 
#    z 0.000000 0.000000 2.095950 
# 
# From -- ./inp_files/30023.got.cif
#   From: 2010.05.17/outbox.cif.g08.bks.cpg/sg74_16_cif.got.tgz:30023.got - 2010.06.03 17:57:02.
