data_PCOD9533667
_publ_section_title
;
Structure prediction by ZEFSAII (Michael W. Deem and Ramdas Pophale) SiO2 
 PCOD9533667
Probable space group: I B C A 
;
_chemical_formula_sum "Si O2"
_cell_formula_units_Z 120
_cell_length_a 22.990709
_cell_length_b 23.620855
_cell_length_c 8.048936
_cell_angle_alpha 90.000000
_cell_angle_beta 90.000000
_cell_angle_gamma 90.000000
_cell_volume 4371.056823
_symmetry_space_group_name_H-M "I B C A "
_symmetry_group_IT_number 73
_symmetry_cell_setting 'orthorhombic'
loop_
_space_group_symop_operation_xyz
x,y,z
-x,1/2-y,z
x,-y,1/2-z
1/2-x,y,-z
-x,-y,-z
x,1/2+y,-z
-x,y,1/2+z
1/2+x,-y,z
1/2+x,1/2+y,1/2+z
1/2-x,-y,1/2+z
1/2+x,1/2-y,-z
-x,1/2+y,1/2-z
1/2-x,1/2-y,1/2-z
1/2+x,y,1/2-z
1/2-x,1/2+y,z
x,1/2-y,1/2+z
loop_
_atom_site_type_symbol
_atom_site_label
_atom_site_fract_x
_atom_site_fract_y
_atom_site_fract_z
Si Si1 0.043174 0.378385 0.828263
Si Si2 0.750000 0.274847 0.500000
Si Si3 0.853610 0.198238 0.370285
Si Si4 0.061416 0.261550 0.645879
Si Si5 0.334947 0.371035 0.045878
Si Si6 0.671666 0.996250 0.562487
Si Si7 0.309787 0.390029 0.426257
Si Si8 0.548345 0.951183 0.001395
O O1 0.043590 0.315653 0.755701
O O2 0.095123 0.374201 0.962461
O O3 0.060652 0.423429 0.682885
O O4 0.982756 0.400701 0.900067
O O5 0.792414 0.235399 0.381569
O O6 0.700119 0.322172 0.446316
O O7 0.885441 0.219940 0.534971
O O8 0.905436 0.212418 0.244429
O O9 0.848896 0.132197 0.419294
O O10 0.000000 0.250000 0.558219
O O11 0.321809 0.365255 0.244333
O O12 0.316264 0.433057 0.993541
O O13 0.693245 0.042706 0.430517
O O14 0.604097 0.015433 0.564157
O O15 0.693643 0.000000 0.750000
O O16 0.250000 0.368557 0.500000
O O17 0.500000 0.000000 0.000000
#
# Coordination Sequence:
#
# PCOD9533667 Si02
#       8
#    16   8  16  16  16  16  16  16
#     4  12  26  48  72 114 152 203 255 321 397 466
#     4  12  28  48  86 110 154 204 270 328 394 480
#     4  12  26  52  76 116 151 208 265 320 395 475
#     4  12  29  47  77 110 161 203 258 326 394 473
#     4  12  27  51  76 110 157 201 258 333 398 466
#     4  12  28  48  74 115 151 201 262 316 398 481
#     4  12  28  48  78 107 152 204 254 326 393 474
#     4  12  25  45  77 106 151 201 255 318 390 480
#
# _framework density 27.453313000000001
#
# number of rings (size 3 to 8) (size 9 to 14) (size 15 to 20)
#    0.000    0.000    6.000    2.000   10.267    1.067 
#    0.000    0.000    0.000    0.000    0.000    0.000 
#    0.000    0.000    0.000    0.000    0.000    0.000 
#
# Total GULP energy -335278.237146 kJ/mol
# GULP energy per Si atom -5587.970619 kJ/mol
# Density = 2.739083 g / cm^3
# Si number density = 27.453313 Si / 1000 Ang^3
#
#
#
# Elastic Constant Matrix: (Units=GPa)
#
#
# Indices 1 2 3 4 5 6 
#
# 1 174.0637 42.1789 24.0182 0.0000 0.0000 0.0000
# 2 42.1789 154.4176 39.3587 0.0000 0.0000 0.0000
# 3 24.0182 39.3587 72.8983 0.0000 0.0000 0.0000
# 4 0.0000 0.0000 0.0000 17.5008 0.0000 0.0000
# 5 0.0000 0.0000 0.0000 0.0000 42.7703 0.0000
# 6 0.0000 0.0000 0.0000 0.0000 0.0000 58.9315
#
#
#
# Elastic Compliance Matrix: (Units=1/GPa)
#
#
# Indices 1 2 3 4 5 6 
#
# 1 0.006260 -0.001373 -0.001321 0.000000 0.000000 0.000000
# 2 -0.001373 0.007811 -0.003765 0.000000 0.000000 0.000000
# 3 -0.001321 -0.003765 0.016186 0.000000 0.000000 0.000000
# 4 0.000000 0.000000 0.000000 0.057140 0.000000 0.000000
# 5 0.000000 0.000000 0.000000 0.000000 0.023381 0.000000
# 6 0.000000 0.000000 0.000000 0.000000 0.000000 0.016969
#
#
# Mechanical properties :
#
#
# Convention : Reuss Voigt Hill
#
# Bulk Modulus (GPa) = 57.67549 68.05454 62.86502
# Shear Modulus (GPa) = 34.14287 43.56209 38.85248
#
# Velocity S-wave (km/s) = 3.53040 3.98775 3.76602
# Velocity P-wave (km/s) = 6.13779 6.78571 6.46987
#
# Compressibility (1/GPa) = 0.01733839
#
# Stress axis : x y z
#
# Youngs Moduli (GPa) = 159.74259 128.03170 61.78339
#
# Poissons Ratio (x) = 0.17581 0.08162
# Poissons Ratio (y) = 0.21936 0.23259
# Poissons Ratio (z) = 0.21104 0.48199
#
# Static dielectric constant tensor:
#      x y z
#    x 2.291590 0.000000 0.000000 
#    y 0.000000 2.138330 0.000000 
#    z 0.000000 0.000000 2.195580 
# 
# From -- ./inp_files/7396.got.cif
#   From: 2010.05.17/outbox.cif.g08.bks.cpg/sg73_4_cif.got.tgz:7396.got - 2010.06.03 17:35:07.
