data_PCOD9533047
_publ_section_title
;
Structure prediction by ZEFSAII (Michael W. Deem and Ramdas Pophale) SiO2 
 PCOD9533047
Probable space group: I B C A 
;
_chemical_formula_sum "Si O2"
_cell_formula_units_Z 64
_cell_length_a 7.629792
_cell_length_b 17.059712
_cell_length_c 21.694186
_cell_angle_alpha 90.000000
_cell_angle_beta 90.000000
_cell_angle_gamma 90.000000
_cell_volume 2823.759813
_symmetry_space_group_name_H-M "I B C A "
_symmetry_group_IT_number 73
_symmetry_cell_setting 'orthorhombic'
loop_
_space_group_symop_operation_xyz
x,y,z
-x,1/2-y,z
x,-y,1/2-z
1/2-x,y,-z
-x,-y,-z
x,1/2+y,-z
-x,y,1/2+z
1/2+x,-y,z
1/2+x,1/2+y,1/2+z
1/2-x,-y,1/2+z
1/2+x,1/2-y,-z
-x,1/2+y,1/2-z
1/2-x,1/2-y,1/2-z
1/2+x,y,1/2-z
1/2-x,1/2+y,z
x,1/2-y,1/2+z
loop_
_atom_site_type_symbol
_atom_site_label
_atom_site_fract_x
_atom_site_fract_y
_atom_site_fract_z
Si Si1 0.443309 0.061582 0.693849
Si Si2 0.687535 0.711060 0.069073
Si Si3 0.235146 0.804878 0.688759
Si Si4 0.433785 0.586082 0.649143
O O1 0.573849 0.134490 0.693020
O O2 0.240707 0.083996 0.691334
O O3 0.413116 0.143015 0.823216
O O4 0.491996 0.000796 0.639607
O O5 0.500000 0.750000 0.071204
O O6 0.213713 0.748180 0.126970
O O7 0.647453 0.622208 0.087494
O O8 0.750000 0.721112 0.000000
O O9 0.250000 0.750000 0.750000
O O10 0.534378 0.500000 0.750000
#
# Coordination Sequence:
#
# PCOD9533047 Si02
#       4
#    16  16  16  16
#     4  12  25  43  71 106 154 198 241 306 384 448
#     4  10  25  49  73 106 146 194 256 313 377 448
#     4  11  26  49  75 112 149 193 253 315 380 449
#     4  11  25  46  68 107 146 195 244 305 375 456
#
# _framework density 22.664815000000001
#
# number of rings (size 3 to 8) (size 9 to 14) (size 15 to 20)
#    0.000    1.000    2.500    2.250    7.000    2.000 
#    0.000    2.500    0.000    0.000    0.000    0.000 
#    0.000    0.000    0.000    0.000    0.000    0.000 
#
# Total GULP energy -178800.525369 kJ/mol
# GULP energy per Si atom -5587.516418 kJ/mol
# Density = 2.261323 g / cm^3
# Si number density = 22.664815 Si / 1000 Ang^3
#
#
#
# Elastic Constant Matrix: (Units=GPa)
#
#
# Indices 1 2 3 4 5 6 
#
# 1 173.8275 56.7881 39.1737 0.0000 0.0000 0.0000
# 2 56.7881 127.9633 47.6028 0.0000 0.0000 0.0000
# 3 39.1737 47.6028 136.5721 0.0000 0.0000 0.0000
# 4 0.0000 0.0000 0.0000 17.8508 0.0000 0.0000
# 5 0.0000 0.0000 0.0000 0.0000 34.9614 0.0000
# 6 0.0000 0.0000 0.0000 0.0000 0.0000 45.5966
#
#
#
# Elastic Compliance Matrix: (Units=1/GPa)
#
#
# Indices 1 2 3 4 5 6 
#
# 1 0.006855 -0.002655 -0.001041 0.000000 0.000000 0.000000
# 2 -0.002655 0.010007 -0.002727 0.000000 0.000000 0.000000
# 3 -0.001041 -0.002727 0.008571 0.000000 0.000000 0.000000
# 4 0.000000 0.000000 0.000000 0.056020 0.000000 0.000000
# 5 0.000000 0.000000 0.000000 0.000000 0.028603 0.000000
# 6 0.000000 0.000000 0.000000 0.000000 0.000000 0.021931
#
#
# Mechanical properties :
#
#
# Convention : Reuss Voigt Hill
#
# Bulk Modulus (GPa) = 79.43734 80.61024 80.02379
# Shear Modulus (GPa) = 33.55075 39.33497 36.44286
#
# Velocity S-wave (km/s) = 3.85164 4.17046 4.01422
# Velocity P-wave (km/s) = 7.40979 7.67032 7.54118
#
# Compressibility (1/GPa) = 0.01258854
#
# Stress axis : x y z
#
# Youngs Moduli (GPa) = 145.88538 99.92803 116.67200
#
# Poissons Ratio (x) = 0.26529 0.12143
# Poissons Ratio (y) = 0.38730 0.31811
# Poissons Ratio (z) = 0.15184 0.27246
#
# Static dielectric constant tensor:
#      x y z
#    x 1.855830 0.000000 0.000000 
#    y 0.000000 1.991940 0.000000 
#    z 0.000000 0.000000 2.034860 
# 
# From -- ./inp_files/20651.got.cif
#   From: 2010.05.17/outbox.cif.g08.bks.cpg/sg73_11_cif.got.tgz:20651.got - 2010.06.03 17:35:07.
