data_PCOD9533777
_publ_section_title
;
Structure prediction by ZEFSAII (Michael W. Deem and Ramdas Pophale) SiO2 
 PCOD9533777
Probable space group: I B C A 
;
_chemical_formula_sum "Si O2"
_cell_formula_units_Z 56
_cell_length_a 15.000000
_cell_length_b 27.000000
_cell_length_c 15.000000
_cell_angle_alpha 90.000000
_cell_angle_beta 90.000000
_cell_angle_gamma 90.000000
_cell_volume 6075.000000
_symmetry_space_group_name_H-M "I B C A "
_symmetry_group_IT_number 73
_symmetry_cell_setting 'orthorhombic'
loop_
_space_group_symop_operation_xyz
x,y,z
-x,1/2-y,z
x,-y,1/2-z
1/2-x,y,-z
-x,-y,-z
x,1/2+y,-z
-x,y,1/2+z
1/2+x,-y,z
1/2+x,1/2+y,1/2+z
1/2-x,-y,1/2+z
1/2+x,1/2-y,-z
-x,1/2+y,1/2-z
1/2-x,1/2-y,1/2-z
1/2+x,y,1/2-z
1/2-x,1/2+y,z
x,1/2-y,1/2+z
loop_
_atom_site_type_symbol
_atom_site_label
_atom_site_fract_x
_atom_site_fract_y
_atom_site_fract_z
Si Si1 0.091961 0.114307 0.656653
Si Si2 0.177697 0.894888 0.568630
Si Si3 0.010616 0.439538 0.982029
Si Si4 0.265538 0.780187 0.394338
Si Si5 0.259965 0.059068 0.247652
Si Si6 0.554745 0.942174 0.275466
Si Si7 0.105306 0.731259 0.279127
O O1 0.187083 0.088184 0.675780
O O2 0.101515 0.173885 0.680404
O O3 0.061490 0.091521 0.560088
O O4 0.017766 0.091793 0.725168
O O5 0.250000 0.914637 0.500000
O O6 0.082610 0.909603 0.528236
O O7 0.205769 0.837845 0.589400
O O8 0.189912 0.923346 0.659929
O O9 0.051838 0.436833 0.882522
O O10 0.000000 0.500000 0.000000
O O11 0.250000 0.762107 0.500000
O O12 0.172543 0.764254 0.343325
O O13 0.344021 0.765671 0.319495
O O14 0.155020 0.071022 0.244776
O O15 0.268075 0.000000 0.250000
O O16 0.537545 0.000000 0.250000
O O17 0.000000 0.750000 0.275721
#
# Coordination Sequence:
#
# PCOD9533777 Si02
#       7
#    16  16  16  16  16  16  16
#     4  12  24  45  67 100 140 178 230 290 351 410
#     4  11  23  42  70  93 127 187 230 271 344 426
#     4  12  24  41  68 101 140 180 230 286 347 434
#     4  10  24  49  71 100 136 181 239 295 363 439
#     4  11  23  41  65  95 137 176 221 279 344 417
#     4  11  23  41  65  97 137 185 222 276 344 420
#     4  11  26  45  73 102 137 180 235 307 360 424
#
# _framework density 9.2181069999999998
#
# number of rings (size 3 to 8) (size 9 to 14) (size 15 to 20)
#    0.000    0.857    4.286    2.143    8.000    1.143 
#    5.143    0.000    0.000    0.000    0.000    0.000 
#    0.000    0.000    0.000    0.000    0.000    0.000 
#
# Total GULP energy -311753.348480 kJ/mol
# GULP energy per Si atom -5567.024080 kJ/mol
# Density = 0.919713 g / cm^3
# Si number density = 9.218107 Si / 1000 Ang^3
#
#
#
# Elastic Constant Matrix: (Units=GPa)
#
#
# Indices 1 2 3 4 5 6 
#
# 1 122.9575 39.6354 18.4275 0.0000 0.0000 0.0000
# 2 39.6354 98.5831 10.5881 0.0003 0.0000 0.0000
# 3 18.4275 10.5881 129.7395 0.0004 0.0000 0.0000
# 4 0.0000 0.0003 0.0004 11.6794 0.0000 0.0000
# 5 0.0000 0.0000 0.0000 0.0000 46.3381 0.0000
# 6 0.0000 0.0000 0.0000 0.0000 0.0000 29.7691
#
#
#
# Elastic Compliance Matrix: (Units=1/GPa)
#
#
# Indices 1 2 3 4 5 6 
#
# 1 0.009482 -0.003700 -0.001045 0.000000 0.000000 0.000000
# 2 -0.003700 0.011677 -0.000427 0.000000 0.000000 0.000000
# 3 -0.001045 -0.000427 0.007891 0.000000 0.000000 0.000000
# 4 0.000000 0.000000 0.000000 0.085621 0.000000 0.000000
# 5 0.000000 0.000000 0.000000 0.000000 0.021581 0.000000
# 6 0.000000 0.000000 0.000000 0.000000 0.000000 0.033592
#
#
# Mechanical properties :
#
#
# Convention : Reuss Voigt Hill
#
# Bulk Modulus (GPa) = 53.45953 54.28690 53.87322
# Shear Modulus (GPa) = 26.82065 36.39928 31.60997
#
# Velocity S-wave (km/s) = 3.81830 4.44817 4.14521
# Velocity P-wave (km/s) = 6.96413 7.47605 7.22463
#
# Compressibility (1/GPa) = 0.01870574
#
# Stress axis : x y z
#
# Youngs Moduli (GPa) = 105.46066 85.63650 126.72602
#
# Poissons Ratio (x) = 0.31686 0.13241
# Poissons Ratio (y) = 0.39022 0.05417
# Poissons Ratio (z) = 0.11019 0.03660
#
# Static dielectric constant tensor:
#      x y z
#    x 1.662310 0.000000 0.000000 
#    y 0.000000 1.652610 0.000000 
#    z 0.000000 0.000000 1.721090 
# 
# From -- ./inp_files/17364.got.cif
#   From: 2010.05.17/outbox.ucp.g08.bks.cvg/sg73_9_cif.got.tgz:17364.got - 2010.06.11 16:36:03.
