data_PCOD9533416
_publ_section_title
;
Structure prediction by ZEFSAII (Michael W. Deem and Ramdas Pophale) SiO2 
 PCOD9533416
Probable space group: I B C A 
;
_chemical_formula_sum "Si O2"
_cell_formula_units_Z 104
_cell_length_a 26.553365
_cell_length_b 19.035501
_cell_length_c 9.543326
_cell_angle_alpha 90.000000
_cell_angle_beta 90.000000
_cell_angle_gamma 90.000000
_cell_volume 4823.737170
_symmetry_space_group_name_H-M "I B C A "
_symmetry_group_IT_number 73
_symmetry_cell_setting 'orthorhombic'
loop_
_space_group_symop_operation_xyz
x,y,z
-x,1/2-y,z
x,-y,1/2-z
1/2-x,y,-z
-x,-y,-z
x,1/2+y,-z
-x,y,1/2+z
1/2+x,-y,z
1/2+x,1/2+y,1/2+z
1/2-x,-y,1/2+z
1/2+x,1/2-y,-z
-x,1/2+y,1/2-z
1/2-x,1/2-y,1/2-z
1/2+x,y,1/2-z
1/2-x,1/2+y,z
x,1/2-y,1/2+z
loop_
_atom_site_type_symbol
_atom_site_label
_atom_site_fract_x
_atom_site_fract_y
_atom_site_fract_z
Si Si1 0.518206 0.101374 0.824125
Si Si2 0.364702 0.259822 0.972157
Si Si3 0.781611 0.559234 0.856024
Si Si4 0.570514 0.500000 0.750000
Si Si5 0.699132 0.709386 0.283585
Si Si6 0.968357 0.188166 0.444143
Si Si7 0.884275 0.073924 0.010513
O O1 0.468283 0.054730 0.818864
O O2 0.533899 0.126648 0.670071
O O3 0.502524 0.164721 0.925767
O O4 0.565753 0.065551 0.896590
O O5 0.319423 0.224967 0.060264
O O6 0.414630 0.215853 0.005025
O O7 0.373285 0.342385 0.008173
O O8 0.347015 0.261736 0.811557
O O9 0.761239 0.500000 0.750000
O O10 0.789961 0.630130 0.766161
O O11 0.750000 0.570895 0.000000
O O12 0.836949 0.539562 0.912723
O O13 0.604257 0.460883 0.637163
O O14 0.750000 0.750000 0.250000
O O15 0.000000 0.250000 0.371813
#
# Coordination Sequence:
#
# PCOD9533416 Si02
#       7
#    16  16  16   8  16  16  16
#     4  12  25  43  64  99 141 187 231 286 347 412
#     4  11  24  42  70 104 133 184 228 288 362 396
#     4  11  27  50  75 107 141 182 231 293 350 424
#     4  12  26  42  68  98 140 198 232 286 346 420
#     4  11  24  47  74 103 142 176 230 295 349 421
#     4  12  24  39  66  97 138 174 231 285 340 415
#     4  11  25  45  68  99 144 180 238 293 343 420
#
# _framework density 21.560046
#
# number of rings (size 3 to 8) (size 9 to 14) (size 15 to 20)
#    0.000    0.615    3.077    5.077    6.462    2.462 
#    0.000    0.000    0.000    0.000    0.000    0.000 
#    0.000    0.000    0.000    0.000    0.000    0.000 
#
# Total GULP energy -290847.289634 kJ/mol
# GULP energy per Si atom -5593.217108 kJ/mol
# Density = 2.151097 g / cm^3
# Si number density = 21.560046 Si / 1000 Ang^3
#
#
#
# Elastic Constant Matrix: (Units=GPa)
#
#
# Indices 1 2 3 4 5 6 
#
# 1 42.3707 -3.5916 -12.0351 0.0000 0.0000 0.0000
# 2 -3.5916 37.7540 23.2223 0.0000 0.0000 0.0000
# 3 -12.0351 23.2223 67.3904 0.0000 0.0000 0.0000
# 4 0.0000 0.0000 0.0000 24.5074 0.0000 0.0000
# 5 0.0000 0.0000 0.0000 0.0000 9.5480 0.0000
# 6 0.0000 0.0000 0.0000 0.0000 0.0000 22.5933
#
#
#
# Elastic Compliance Matrix: (Units=1/GPa)
#
#
# Indices 1 2 3 4 5 6 
#
# 1 0.024869 -0.000464 0.004601 0.000000 0.000000 0.000000
# 2 -0.000464 0.033620 -0.011668 0.000000 0.000000 0.000000
# 3 0.004601 -0.011668 0.019681 0.000000 0.000000 0.000000
# 4 0.000000 0.000000 0.000000 0.040804 0.000000 0.000000
# 5 0.000000 0.000000 0.000000 0.000000 0.104734 0.000000
# 6 0.000000 0.000000 0.000000 0.000000 0.000000 0.044261
#
#
# Mechanical properties :
#
#
# Convention : Reuss Voigt Hill
#
# Bulk Modulus (GPa) = 15.84591 18.07847 16.96219
# Shear Modulus (GPa) = 16.44371 20.65772 18.55072
#
# Velocity S-wave (km/s) = 2.76469 3.09876 2.93648
# Velocity P-wave (km/s) = 4.19010 4.60504 4.40246
#
# Compressibility (1/GPa) = 0.06310776
#
# Stress axis : x y z
#
# Youngs Moduli (GPa) = 40.21099 29.74414 50.80937
#
# Poissons Ratio (x) = 0.01381 -0.23379
# Poissons Ratio (y) = 0.01867 0.59285
# Poissons Ratio (z) = -0.18502 0.34706
#
# Static dielectric constant tensor:
#      x y z
#    x 1.754750 0.000000 0.000000 
#    y 0.000000 1.982400 0.000000 
#    z 0.000000 0.000000 1.784200 
# 
# From -- ./inp_files/7888.got.cif
#   From: 2010.05.17/outbox.cif.g08.bks.cpg/sg73_4_cif.got.tgz:7888.got - 2010.06.03 17:35:07.
