data_PCOD9533144
_publ_section_title
;
Structure prediction by ZEFSAII (Michael W. Deem and Ramdas Pophale) SiO2 
 PCOD9533144
Probable space group: I B C A 
;
_chemical_formula_sum "Si O2"
_cell_formula_units_Z 88
_cell_length_a 10.870923
_cell_length_b 17.812044
_cell_length_c 18.984211
_cell_angle_alpha 90.000000
_cell_angle_beta 90.000000
_cell_angle_gamma 90.000000
_cell_volume 3675.976540
_symmetry_space_group_name_H-M "I B C A "
_symmetry_group_IT_number 73
_symmetry_cell_setting 'orthorhombic'
loop_
_space_group_symop_operation_xyz
x,y,z
-x,1/2-y,z
x,-y,1/2-z
1/2-x,y,-z
-x,-y,-z
x,1/2+y,-z
-x,y,1/2+z
1/2+x,-y,z
1/2+x,1/2+y,1/2+z
1/2-x,-y,1/2+z
1/2+x,1/2-y,-z
-x,1/2+y,1/2-z
1/2-x,1/2-y,1/2-z
1/2+x,y,1/2-z
1/2-x,1/2+y,z
x,1/2-y,1/2+z
loop_
_atom_site_type_symbol
_atom_site_label
_atom_site_fract_x
_atom_site_fract_y
_atom_site_fract_z
Si Si1 0.519361 0.071304 0.216584
Si Si2 0.026806 0.862275 0.479447
Si Si3 0.750000 0.609019 0.000000
Si Si4 0.901103 0.807956 0.825621
Si Si5 0.330399 0.014000 0.903373
Si Si6 0.161713 0.658140 0.121731
O O1 0.591164 0.119190 0.275477
O O2 0.444274 0.133353 0.174042
O O3 0.445217 0.000000 0.250000
O O4 0.600818 0.026256 0.160348
O O5 0.048043 0.825645 0.403764
O O6 0.077008 0.946882 0.460692
O O7 0.107312 0.828641 0.543750
O O8 0.883795 0.853625 0.499862
O O9 0.750062 0.552756 0.934573
O O10 0.759358 0.785137 0.842151
O O11 0.000000 0.750000 0.795734
O O12 0.241228 0.082138 0.885770
#
# Coordination Sequence:
#
# PCOD9533144 Si02
#       6
#    16  16   8  16  16  16
#     4  12  24  39  67 111 141 186 237 295 372 430
#     4  11  22  42  65 103 136 182 235 290 355 414
#     4  12  20  34  64 102 146 164 222 300 352 410
#     4  11  27  49  68  93 142 193 236 294 364 434
#     4  11  20  36  65 104 143 175 223 292 359 418
#     4  11  23  41  72 102 141 183 238 299 360 429
#
# _framework density 23.939216999999999
#
# number of rings (size 3 to 8) (size 9 to 14) (size 15 to 20)
#    0.000    0.727    7.273    3.273    2.545    0.727 
#    3.273    0.909    0.000    0.000    0.000    0.000 
#    0.000    0.000    0.000    0.000    0.000    0.000 
#
# Total GULP energy -245434.354285 kJ/mol
# GULP energy per Si atom -5578.053506 kJ/mol
# Density = 2.388473 g / cm^3
# Si number density = 23.939217 Si / 1000 Ang^3
#
#
#
# Elastic Constant Matrix: (Units=GPa)
#
#
# Indices 1 2 3 4 5 6 
#
# 1 115.0139 17.0845 36.9151 0.0000 0.0000 0.0000
# 2 17.0845 48.4345 17.9151 0.0000 0.0000 0.0000
# 3 36.9151 17.9151 88.7400 0.0000 0.0000 0.0000
# 4 0.0000 0.0000 0.0000 41.3533 0.0000 0.0000
# 5 0.0000 0.0000 0.0000 0.0000 -6.9706 0.0000
# 6 0.0000 0.0000 0.0000 0.0000 0.0000 17.5159
#
#
#
# Elastic Compliance Matrix: (Units=1/GPa)
#
#
# Indices 1 2 3 4 5 6 
#
# 1 0.010247 -0.002202 -0.003818 0.000000 0.000000 0.000000
# 2 -0.002202 0.022786 -0.003684 0.000000 0.000000 0.000000
# 3 -0.003818 -0.003684 0.013601 0.000000 0.000000 0.000000
# 4 0.000000 0.000000 0.000000 0.024182 0.000000 0.000000
# 5 0.000000 0.000000 0.000000 0.000000 -0.143460 0.000000
# 6 0.000000 0.000000 0.000000 0.000000 0.000000 0.057091
#
#
# Mechanical properties :
#
#
# Convention : Reuss Voigt Hill
#
# Bulk Modulus (GPa) = 36.73059 44.00196 40.36628
# Shear Modulus (GPa) = 386.67359 22.39797 204.53578
#
# Velocity S-wave (km/s) = 12.72296 3.06211 9.25338
# Velocity P-wave (km/s) = 15.20553 5.56081 11.44838
#
# Compressibility (1/GPa) = 0.02722527
#
# Stress axis : x y z
#
# Youngs Moduli (GPa) = 97.58748 43.88680 73.52442
#
# Poissons Ratio (x) = 0.09665 0.28073
# Poissons Ratio (y) = 0.21492 0.27086
# Poissons Ratio (z) = 0.37260 0.16168
#
# Static dielectric constant tensor:
#      x y z
#    x 1.994940 0.000000 0.000000 
#    y 0.000000 2.024650 0.000000 
#    z 0.000000 0.000000 1.958000 
# 
# From -- ./inp_files/25416.got.cif
#   From: 2010.05.17/outbox.cif.g08.bks.cpg/sg73_13_cif.got.tgz:25416.got - 2010.06.03 17:35:07.
