data_PCOD9533979
_publ_section_title
;
Structure prediction by ZEFSAII (Michael W. Deem and Ramdas Pophale) SiO2 
 PCOD9533979
Probable space group: I M M A
;
_chemical_formula_sum "Si O2"
_cell_formula_units_Z 80
_cell_length_a 8.798492
_cell_length_b 33.431648
_cell_length_c 15.117160
_cell_angle_alpha 90.000000
_cell_angle_beta 90.000000
_cell_angle_gamma 90.000000
_cell_volume 4446.683702
_symmetry_space_group_name_H-M "I M M A"
_symmetry_group_IT_number 74
_symmetry_cell_setting 'orthorhombic'
loop_
_space_group_symop_operation_xyz
x,y,z
-x,1/2-y,z
x,-y,-z
-x,1/2+y,-z
-x,-y,-z
x,1/2+y,-z
-x,y,z
x,1/2-y,z
1/2+x,1/2+y,1/2+z
1/2-x,-y,1/2+z
1/2+x,1/2-y,1/2-z
1/2-x,y,1/2-z
1/2-x,1/2-y,1/2-z
1/2+x,y,1/2-z
1/2-x,1/2+y,1/2+z
1/2+x,-y,1/2+z
loop_
_atom_site_type_symbol
_atom_site_label
_atom_site_fract_x
_atom_site_fract_y
_atom_site_fract_z
Si Si1 0.820180 0.527783 0.893205
Si Si2 0.819018 0.051034 0.583604
Si Si3 0.818685 0.296672 0.652624
Si Si4 0.821858 0.383438 0.160360
Si Si5 0.682952 0.367033 0.540036
O O1 0.748564 0.486138 0.860819
O O2 0.804432 0.568331 0.838394
O O3 0.000000 0.521838 0.908697
O O4 0.736075 0.539609 0.984447
O O5 0.750023 0.095155 0.594550
O O6 0.000000 0.051790 0.590133
O O7 0.791098 0.250000 0.630684
O O8 0.750000 0.303793 0.750000
O O9 0.740131 0.326604 0.584486
O O10 0.000000 0.303296 0.654255
O O11 0.750000 0.366757 0.250000
O O12 0.765239 0.369822 0.063157
O O13 0.000000 0.374484 0.162169
O O14 0.500000 0.370213 0.540913
#
# Coordination Sequence:
#
# PCOD9533979 Si02
#       5
#    16  16  16  16  16
#     4   9  16  28  43  63  94 133 175 219 267 311
#     4  10  17  26  44  70  96 129 173 218 264 310
#     4  10  21  38  61  88 113 136 164 203 255 316
#     4   9  19  32  49  73 103 141 183 225 265 306
#     4  10  20  35  54  78 108 142 177 216 265 316
#
# _framework density 17.990933999999999
#
# number of rings (size 3 to 8) (size 9 to 14) (size 15 to 20)
#    0.000    2.400    0.000    6.000    0.000    6.000 
#    0.000    1.000    0.000    3.000    0.000    0.000 
#    0.000    0.000    0.000    0.000    0.000    0.000 
#
# Total GULP energy -222848.227032 kJ/mol
# GULP energy per Si atom -5571.205676 kJ/mol
# Density = 1.794999 g / cm^3
# Si number density = 17.990934 Si / 1000 Ang^3
#
#
#
# Elastic Constant Matrix: (Units=GPa)
#
#
# Indices 1 2 3 4 5 6 
#
# 1 90.5205 52.4518 41.0918 0.0000 0.0000 0.0000
# 2 52.4518 94.6302 51.9925 0.0000 0.0000 0.0000
# 3 41.0918 51.9925 68.8549 0.0000 0.0000 0.0000
# 4 0.0000 0.0000 0.0000 4.9725 0.0000 0.0000
# 5 0.0000 0.0000 0.0000 0.0000 18.3571 0.0000
# 6 0.0000 0.0000 0.0000 0.0000 0.0000 30.5977
#
#
#
# Elastic Compliance Matrix: (Units=1/GPa)
#
#
# Indices 1 2 3 4 5 6 
#
# 1 0.017328 -0.006705 -0.005279 0.000000 0.000000 0.000000
# 2 -0.006705 0.020654 -0.011595 0.000000 0.000000 0.000000
# 3 -0.005279 -0.011595 0.026429 0.000000 0.000000 0.000000
# 4 0.000000 0.000000 0.000000 0.201104 0.000000 0.000000
# 5 0.000000 0.000000 0.000000 0.000000 0.054475 0.000000
# 6 0.000000 0.000000 0.000000 0.000000 0.000000 0.032682
#
#
# Mechanical properties :
#
#
# Convention : Reuss Voigt Hill
#
# Bulk Modulus (GPa) = 57.95354 60.56421 59.25888
# Shear Modulus (GPa) = 12.32800 18.01677 15.17239
#
# Velocity S-wave (km/s) = 2.62054 3.16798 2.90717
# Velocity P-wave (km/s) = 6.43730 6.86428 6.65421
#
# Compressibility (1/GPa) = 0.01725520
#
# Stress axis : x y z
#
# Youngs Moduli (GPa) = 57.70853 48.41635 37.83733
#
# Poissons Ratio (x) = 0.32461 0.19974
# Poissons Ratio (y) = 0.38691 0.43872
# Poissons Ratio (z) = 0.30463 0.56138
#
# Static dielectric constant tensor:
#      x y z
#    x 1.603670 0.000000 0.000000 
#    y 0.000000 1.646150 0.000000 
#    z 0.000000 0.000000 1.650540 
# 
# From -- ./inp_files/39963.got.cif
#   From: 2010.05.17/outbox.cif.g08.bks.cpg/sg74_20_cif.got.tgz:39963.got - 2010.06.03 17:57:02.
