data_PCOD9533562
_publ_section_title
;
Structure prediction by ZEFSAII (Michael W. Deem and Ramdas Pophale) SiO2 
 PCOD9533562
Probable space group: I B C A 
;
_chemical_formula_sum "Si O2"
_cell_formula_units_Z 72
_cell_length_a 9.854851
_cell_length_b 18.274261
_cell_length_c 14.566825
_cell_angle_alpha 90.000000
_cell_angle_beta 90.000000
_cell_angle_gamma 90.000000
_cell_volume 2623.341252
_symmetry_space_group_name_H-M "I B C A "
_symmetry_group_IT_number 73
_symmetry_cell_setting 'orthorhombic'
loop_
_space_group_symop_operation_xyz
x,y,z
-x,1/2-y,z
x,-y,1/2-z
1/2-x,y,-z
-x,-y,-z
x,1/2+y,-z
-x,y,1/2+z
1/2+x,-y,z
1/2+x,1/2+y,1/2+z
1/2-x,-y,1/2+z
1/2+x,1/2-y,-z
-x,1/2+y,1/2-z
1/2-x,1/2-y,1/2-z
1/2+x,y,1/2-z
1/2-x,1/2+y,z
x,1/2-y,1/2+z
loop_
_atom_site_type_symbol
_atom_site_label
_atom_site_fract_x
_atom_site_fract_y
_atom_site_fract_z
Si Si1 0.412145 0.544902 0.074295
Si Si2 0.365607 0.533518 0.835438
Si Si3 0.124597 0.301822 0.648123
Si Si4 0.250000 0.194247 0.500000
Si Si5 0.561336 0.331054 0.652734
O O1 0.508792 0.521783 0.157877
O O2 0.253454 0.529847 0.089890
O O3 0.500000 0.500000 0.000000
O O4 0.642702 0.646981 0.940500
O O5 0.287217 0.500000 0.750000
O O6 0.085564 0.632439 0.919574
O O7 0.434331 0.613471 0.835168
O O8 0.211670 0.248520 0.583957
O O9 0.152655 0.331080 0.752562
O O10 0.000000 0.250000 0.670004
O O11 0.500000 0.250000 0.636383
#
# Coordination Sequence:
#
# PCOD9533562 Si02
#       5
#    16  16  16   8  16
#     4  12  29  51  83 123 171 223 287 359 432 518
#     4  12  27  55  85 121 170 229 288 350 440 525
#     4  11  27  51  77 126 172 230 291 365 438 522
#     4  12  26  46  86 124 174 230 302 358 440 522
#     4  11  26  52  82 124 172 230 294 365 432 519
#
# _framework density 27.445914999999999
#
# number of rings (size 3 to 8) (size 9 to 14) (size 15 to 20)
#    0.000    0.444    2.222    4.000    9.333    3.556 
#    0.000    0.000    0.000    0.000    0.000    0.000 
#    0.000    0.000    0.000    0.000    0.000    0.000 
#
# Total GULP energy -200910.102883 kJ/mol
# GULP energy per Si atom -5580.836191 kJ/mol
# Density = 2.738345 g / cm^3
# Si number density = 27.445915 Si / 1000 Ang^3
#
#
#
# Elastic Constant Matrix: (Units=GPa)
#
#
# Indices 1 2 3 4 5 6 
#
# 1 149.6169 49.5124 73.5654 0.0000 0.0000 0.0000
# 2 49.5124 133.0635 7.9514 0.0000 0.0001 0.0000
# 3 73.5654 7.9514 220.3658 0.0001 0.0001 0.0000
# 4 0.0000 0.0000 0.0001 38.7853 0.0001 0.0000
# 5 0.0000 0.0001 0.0001 0.0001 307.4559 0.0000
# 6 0.0000 0.0000 0.0000 0.0000 0.0000 47.6459
#
#
#
# Elastic Compliance Matrix: (Units=1/GPa)
#
#
# Indices 1 2 3 4 5 6 
#
# 1 0.009215 -0.003252 -0.002959 0.000000 0.000000 0.000000
# 2 -0.003252 0.008679 0.000772 0.000000 0.000000 0.000000
# 3 -0.002959 0.000772 0.005498 0.000000 0.000000 0.000000
# 4 0.000000 0.000000 0.000000 0.025783 0.000000 0.000000
# 5 0.000000 0.000000 0.000000 0.000000 0.003252 0.000000
# 6 0.000000 0.000000 0.000000 0.000000 0.000000 0.020988
#
#
# Mechanical properties :
#
#
# Convention : Reuss Voigt Hill
#
# Bulk Modulus (GPa) = 79.90464 85.01160 82.45812
# Shear Modulus (GPa) = 56.52038 103.57854 80.04946
#
# Velocity S-wave (km/s) = 4.54291 6.14988 5.40644
# Velocity P-wave (km/s) = 7.52955 9.02605 8.31155
#
# Compressibility (1/GPa) = 0.01251492
#
# Stress axis : x y z
#
# Youngs Moduli (GPa) = 108.52177 115.21942 181.89102
#
# Poissons Ratio (x) = 0.37469 0.53819
# Poissons Ratio (y) = 0.35291 -0.14050
# Poissons Ratio (z) = 0.32110 -0.08900
#
# Static dielectric constant tensor:
#      x y z
#    x 2.223580 0.000000 0.000000 
#    y 0.000000 2.134630 0.000000 
#    z 0.000000 0.000000 2.183130 
# 
# From -- ./inp_files/24705.got.cif
#   From: 2010.05.17/outbox.cif.g08.bks.cpg/sg73_13_cif.got.tgz:24705.got - 2010.06.03 17:35:07.
