data_PCOD9533203
_publ_section_title
;
Structure prediction by ZEFSAII (Michael W. Deem and Ramdas Pophale) SiO2 
 PCOD9533203
Probable space group: I B C A 
;
_chemical_formula_sum "Si O2"
_cell_formula_units_Z 104
_cell_length_a 8.858559
_cell_length_b 19.407915
_cell_length_c 27.391722
_cell_angle_alpha 90.000000
_cell_angle_beta 90.000000
_cell_angle_gamma 90.000000
_cell_volume 4709.353582
_symmetry_space_group_name_H-M "I B C A "
_symmetry_group_IT_number 73
_symmetry_cell_setting 'orthorhombic'
loop_
_space_group_symop_operation_xyz
x,y,z
-x,1/2-y,z
x,-y,1/2-z
1/2-x,y,-z
-x,-y,-z
x,1/2+y,-z
-x,y,1/2+z
1/2+x,-y,z
1/2+x,1/2+y,1/2+z
1/2-x,-y,1/2+z
1/2+x,1/2-y,-z
-x,1/2+y,1/2-z
1/2-x,1/2-y,1/2-z
1/2+x,y,1/2-z
1/2-x,1/2+y,z
x,1/2-y,1/2+z
loop_
_atom_site_type_symbol
_atom_site_label
_atom_site_fract_x
_atom_site_fract_y
_atom_site_fract_z
Si Si1 0.173906 0.489757 0.111623
Si Si2 0.436268 0.547698 0.044189
Si Si3 0.500000 0.250000 0.375277
Si Si4 0.259302 0.688452 0.050912
Si Si5 0.958842 0.639858 0.629930
Si Si6 0.136646 0.196358 0.772124
Si Si7 0.203642 0.366465 0.175425
O O1 0.318859 0.507962 0.079221
O O2 0.082753 0.559691 0.122158
O O3 0.195028 0.445766 0.159611
O O4 0.080103 0.438378 0.077251
O O5 0.350772 0.618770 0.034836
O O6 0.500000 0.500000 0.000000
O O7 0.367145 0.277248 0.409689
O O8 0.421317 0.188036 0.344783
O O9 0.101084 0.673379 0.079158
O O10 0.250000 0.729183 0.000000
O O11 0.852394 0.667748 0.673513
O O12 0.129636 0.652016 0.651016
O O13 0.250000 0.250000 0.750000
O O14 0.163905 0.135903 0.733048
O O15 0.000000 0.250000 0.772916
#
# Coordination Sequence:
#
# PCOD9533203 Si02
#       7
#    16  16   8  16  16  16  16
#     4  11  23  42  69 103 138 179 238 293 362 417
#     4  11  21  42  69  99 135 185 238 292 348 424
#     4  12  26  44  70 100 140 188 236 294 346 430
#     4  11  26  45  66 102 144 183 235 290 354 426
#     4  11  26  47  71 102 144 183 228 301 355 417
#     4  12  25  44  72 105 135 185 241 279 350 431
#     4  12  25  46  72 101 142 187 234 297 354 425
#
# _framework density 22.083711000000001
#
# number of rings (size 3 to 8) (size 9 to 14) (size 15 to 20)
#    0.000    0.615    5.385    3.231    0.000    1.846 
#    0.000    1.538    0.000    0.000    0.000    0.000 
#    0.000    0.000    0.000    0.000    0.000    0.000 
#
# Total GULP energy -289476.401164 kJ/mol
# GULP energy per Si atom -5566.853869 kJ/mol
# Density = 2.203345 g / cm^3
# Si number density = 22.083711 Si / 1000 Ang^3
#
#
#
# Elastic Constant Matrix: (Units=GPa)
#
#
# Indices 1 2 3 4 5 6 
#
# 1 52.3707 8.4033 13.2063 0.0000 0.0000 0.0000
# 2 8.4033 43.7478 3.4268 0.0000 0.0000 0.0000
# 3 13.2063 3.4268 113.7206 0.0000 0.0000 0.0000
# 4 0.0000 0.0000 0.0000 30.3397 0.0000 0.0000
# 5 0.0000 0.0000 0.0000 0.0000 20.8663 0.0000
# 6 0.0000 0.0000 0.0000 0.0000 0.0000 23.0185
#
#
#
# Elastic Compliance Matrix: (Units=1/GPa)
#
#
# Indices 1 2 3 4 5 6 
#
# 1 0.020256 -0.003715 -0.002240 0.000000 0.000000 0.000000
# 2 -0.003715 0.023594 -0.000280 0.000000 0.000000 0.000000
# 3 -0.002240 -0.000280 0.009062 0.000000 0.000000 0.000000
# 4 0.000000 0.000000 0.000000 0.032960 0.000000 0.000000
# 5 0.000000 0.000000 0.000000 0.000000 0.047924 0.000000
# 6 0.000000 0.000000 0.000000 0.000000 0.000000 0.043443
#
#
# Mechanical properties :
#
#
# Convention : Reuss Voigt Hill
#
# Bulk Modulus (GPa) = 24.72717 28.87909 26.80313
# Shear Modulus (GPa) = 24.60750 27.16508 25.88629
#
# Velocity S-wave (km/s) = 3.34171 3.51108 3.42744
# Velocity P-wave (km/s) = 5.10986 5.43529 5.27509
#
# Compressibility (1/GPa) = 0.04044134
#
# Stress axis : x y z
#
# Youngs Moduli (GPa) = 49.36873 42.38393 110.35003
#
# Poissons Ratio (x) = 0.15747 0.24722
# Poissons Ratio (y) = 0.18342 0.03084
# Poissons Ratio (z) = 0.11060 0.01185
#
# Static dielectric constant tensor:
#      x y z
#    x 1.892090 0.000000 0.000000 
#    y 0.000000 1.829930 0.000000 
#    z 0.000000 0.000000 1.937410 
# 
# From -- ./inp_files/31251.got.cif
#   From: 2010.05.17/outbox.cif.g08.bks.cpg/sg73_16_cif.got.tgz:31251.got - 2010.06.03 17:35:07.
