data_PCOD9533291
_publ_section_title
;
Structure prediction by ZEFSAII (Michael W. Deem and Ramdas Pophale) SiO2 
 PCOD9533291
Probable space group: I B C A 
;
_chemical_formula_sum "Si O2"
_cell_formula_units_Z 112
_cell_length_a 12.465062
_cell_length_b 14.214304
_cell_length_c 28.518307
_cell_angle_alpha 90.000000
_cell_angle_beta 90.000000
_cell_angle_gamma 90.000000
_cell_volume 5052.935823
_symmetry_space_group_name_H-M "I B C A "
_symmetry_group_IT_number 73
_symmetry_cell_setting 'orthorhombic'
loop_
_space_group_symop_operation_xyz
x,y,z
-x,1/2-y,z
x,-y,1/2-z
1/2-x,y,-z
-x,-y,-z
x,1/2+y,-z
-x,y,1/2+z
1/2+x,-y,z
1/2+x,1/2+y,1/2+z
1/2-x,-y,1/2+z
1/2+x,1/2-y,-z
-x,1/2+y,1/2-z
1/2-x,1/2-y,1/2-z
1/2+x,y,1/2-z
1/2-x,1/2+y,z
x,1/2-y,1/2+z
loop_
_atom_site_type_symbol
_atom_site_label
_atom_site_fract_x
_atom_site_fract_y
_atom_site_fract_z
Si Si1 0.006695 0.359798 0.147533
Si Si2 0.931814 0.109808 0.461389
Si Si3 0.209740 0.419355 0.644527
Si Si4 0.093726 0.102547 0.546549
Si Si5 0.917584 0.474827 0.804140
Si Si6 0.271525 0.748341 0.921624
Si Si7 0.590746 0.395859 0.627210
O O1 0.898008 0.394276 0.171997
O O2 0.783055 0.338868 0.105117
O O3 0.000000 0.250000 0.150514
O O4 0.095824 0.421787 0.172196
O O5 0.850436 0.196224 0.457724
O O6 0.013978 0.123406 0.503792
O O7 0.003566 0.105077 0.414457
O O8 0.874659 0.007018 0.462220
O O9 0.312342 0.421500 0.677414
O O10 0.177658 0.520006 0.622607
O O11 0.021946 0.110880 0.593524
O O12 0.190467 0.176106 0.555402
O O13 0.925991 0.500000 0.750000
O O14 0.018967 0.418351 0.826745
O O15 0.342258 0.801626 0.881978
#
# Coordination Sequence:
#
# PCOD9533291 Si02
#       7
#    16  16  16  16  16  16  16
#     4  11  22  45  72 103 141 192 238 301 372 436
#     4  11  24  46  71 110 148 196 252 297 372 446
#     4  11  23  42  74 100 139 197 236 299 378 445
#     4  11  24  47  74 102 155 197 244 305 361 448
#     4  11  25  48  73 104 146 188 244 311 386 446
#     4  12  23  44  74 107 143 198 248 301 370 439
#     4  11  24  45  71 102 147 187 237 311 372 442
#
# _framework density 22.165330999999998
#
# number of rings (size 3 to 8) (size 9 to 14) (size 15 to 20)
#    0.000    0.857    5.714    2.143    0.000    4.000 
#    5.143    0.714    0.000    0.857    0.000    0.000 
#    0.000    0.000    0.000    0.000    0.000    0.000 
#
# Total GULP energy -312617.257107 kJ/mol
# GULP energy per Si atom -5582.451020 kJ/mol
# Density = 2.211488 g / cm^3
# Si number density = 22.165331 Si / 1000 Ang^3
#
#
#
# Elastic Constant Matrix: (Units=GPa)
#
#
# Indices 1 2 3 4 5 6 
#
# 1 123.7116 69.4358 54.8620 0.0000 0.0000 0.0000
# 2 69.4358 146.5130 39.0911 0.0000 0.0000 0.0000
# 3 54.8620 39.0911 127.0768 0.0000 0.0000 0.0000
# 4 0.0000 0.0000 0.0000 12.8546 0.0000 0.0000
# 5 0.0000 0.0000 0.0000 0.0000 28.1205 0.0000
# 6 0.0000 0.0000 0.0000 0.0000 0.0000 30.0211
#
#
#
# Elastic Compliance Matrix: (Units=1/GPa)
#
#
# Indices 1 2 3 4 5 6 
#
# 1 0.012581 -0.004917 -0.003919 0.000000 0.000000 0.000000
# 2 -0.004917 0.009357 -0.000756 0.000000 0.000000 0.000000
# 3 -0.003919 -0.000756 0.009794 0.000000 0.000000 0.000000
# 4 0.000000 0.000000 0.000000 0.077793 0.000000 0.000000
# 5 0.000000 0.000000 0.000000 0.000000 0.035561 0.000000
# 6 0.000000 0.000000 0.000000 0.000000 0.000000 0.033310
#
#
# Mechanical properties :
#
#
# Convention : Reuss Voigt Hill
#
# Bulk Modulus (GPa) = 79.68938 80.45324 80.07131
# Shear Modulus (GPa) = 24.78166 29.79339 27.28753
#
# Velocity S-wave (km/s) = 3.34733 3.67023 3.51250
# Velocity P-wave (km/s) = 7.13932 7.37133 7.25625
#
# Compressibility (1/GPa) = 0.01254872
#
# Stress axis : x y z
#
# Youngs Moduli (GPa) = 79.48567 106.87037 102.10696
#
# Poissons Ratio (x) = 0.52545 0.40016
# Poissons Ratio (y) = 0.39081 0.07717
# Poissons Ratio (z) = 0.31150 0.08077
#
# Static dielectric constant tensor:
#      x y z
#    x 1.919790 0.000000 0.000000 
#    y 0.000000 1.983190 0.000000 
#    z 0.000000 0.000000 1.851150 
# 
# From -- ./inp_files/34010.got.cif
#   From: 2010.05.17/outbox.cif.g08.bks.cpg/sg73_18_cif.got.tgz:34010.got - 2010.06.03 17:35:07.
