data_PCOD9533183
_publ_section_title
;
Structure prediction by ZEFSAII (Michael W. Deem and Ramdas Pophale) SiO2 
 PCOD9533183
Probable space group: I B C A 
;
_chemical_formula_sum "Si O2"
_cell_formula_units_Z 64
_cell_length_a 19.750812
_cell_length_b 10.154116
_cell_length_c 14.674553
_cell_angle_alpha 90.000000
_cell_angle_beta 90.000000
_cell_angle_gamma 90.000000
_cell_volume 2943.011484
_symmetry_space_group_name_H-M "I B C A "
_symmetry_group_IT_number 73
_symmetry_cell_setting 'orthorhombic'
loop_
_space_group_symop_operation_xyz
x,y,z
-x,1/2-y,z
x,-y,1/2-z
1/2-x,y,-z
-x,-y,-z
x,1/2+y,-z
-x,y,1/2+z
1/2+x,-y,z
1/2+x,1/2+y,1/2+z
1/2-x,-y,1/2+z
1/2+x,1/2-y,-z
-x,1/2+y,1/2-z
1/2-x,1/2-y,1/2-z
1/2+x,y,1/2-z
1/2-x,1/2+y,z
x,1/2-y,1/2+z
loop_
_atom_site_type_symbol
_atom_site_label
_atom_site_fract_x
_atom_site_fract_y
_atom_site_fract_z
Si Si1 0.592716 0.697875 0.584109
Si Si2 0.311618 0.348664 0.262748
Si Si3 0.973883 0.455091 0.651285
Si Si4 0.580556 0.774146 0.877354
O O1 0.660467 0.659165 0.634275
O O2 0.539294 0.575800 0.588620
O O3 0.563339 0.815566 0.646961
O O4 0.596990 0.753683 0.482758
O O5 0.292351 0.500000 0.250000
O O6 0.250000 0.250000 0.250000
O O7 0.370638 0.303024 0.191269
O O8 0.000286 0.500000 0.750000
O O9 0.918932 0.566804 0.629219
O O10 0.500000 0.750000 0.862769
#
# Coordination Sequence:
#
# PCOD9533183 Si02
#       4
#    16  16  16  16
#     4  11  24  42  70 109 141 184 235 295 364 437
#     4  12  30  51  71 101 146 199 246 298 365 440
#     4  11  21  39  70 108 147 179 227 295 369 420
#     4  12  24  43  76 108 143 182 237 306 368 432
#
# _framework density 21.746431000000001
#
# number of rings (size 3 to 8) (size 9 to 14) (size 15 to 20)
#    0.000    0.500    5.000    4.500    7.000    1.000 
#    0.000    2.500    0.000    0.000    0.000    0.000 
#    0.000    0.000    0.000    0.000    0.000    0.000 
#
# Total GULP energy -178681.570204 kJ/mol
# GULP energy per Si atom -5583.799069 kJ/mol
# Density = 2.169694 g / cm^3
# Si number density = 21.746431 Si / 1000 Ang^3
#
#
#
# Elastic Constant Matrix: (Units=GPa)
#
#
# Indices 1 2 3 4 5 6 
#
# 1 97.2865 48.6958 34.9451 0.0000 0.0000 0.0000
# 2 48.6958 148.3173 29.6649 0.0000 0.0000 0.0000
# 3 34.9451 29.6649 111.1714 0.0000 0.0000 0.0000
# 4 0.0000 0.0000 0.0000 25.9803 0.0000 0.0000
# 5 0.0000 0.0000 0.0000 0.0000 16.1217 0.0000
# 6 0.0000 0.0000 0.0000 0.0000 0.0000 36.7116
#
#
#
# Elastic Compliance Matrix: (Units=1/GPa)
#
#
# Indices 1 2 3 4 5 6 
#
# 1 0.013287 -0.003726 -0.003182 0.000000 0.000000 0.000000
# 2 -0.003726 0.008167 -0.001008 0.000000 0.000000 0.000000
# 3 -0.003182 -0.001008 0.010264 0.000000 0.000000 0.000000
# 4 0.000000 0.000000 0.000000 0.038491 0.000000 0.000000
# 5 0.000000 0.000000 0.000000 0.000000 0.062028 0.000000
# 6 0.000000 0.000000 0.000000 0.000000 0.000000 0.027239
#
#
# Mechanical properties :
#
#
# Convention : Reuss Voigt Hill
#
# Bulk Modulus (GPa) = 62.94909 64.82076 63.88492
# Shear Modulus (GPa) = 27.68473 31.99402 29.83937
#
# Velocity S-wave (km/s) = 3.57188 3.83982 3.70827
# Velocity P-wave (km/s) = 6.78386 7.03784 6.91202
#
# Compressibility (1/GPa) = 0.01588585
#
# Stress axis : x y z
#
# Youngs Moduli (GPa) = 75.26167 122.44046 97.42354
#
# Poissons Ratio (x) = 0.45620 0.31004
# Poissons Ratio (y) = 0.28042 0.09822
# Poissons Ratio (z) = 0.23951 0.12344
#
# Static dielectric constant tensor:
#      x y z
#    x 1.785790 0.000000 0.000000 
#    y 0.000000 1.895360 0.000000 
#    z 0.000000 0.000000 1.839220 
# 
# From -- ./inp_files/17628.got.cif
#   From: 2010.05.17/outbox.cif.g08.bks.cpg/sg73_9_cif.got.tgz:17628.got - 2010.06.03 17:35:07.
