data_PCOD9533048
_publ_section_title
;
Structure prediction by ZEFSAII (Michael W. Deem and Ramdas Pophale) SiO2 
 PCOD9533048
Probable space group: I B C A 
;
_chemical_formula_sum "Si O2"
_cell_formula_units_Z 88
_cell_length_a 31.257563
_cell_length_b 11.384761
_cell_length_c 11.305614
_cell_angle_alpha 90.000000
_cell_angle_beta 90.000000
_cell_angle_gamma 90.000000
_cell_volume 4023.214489
_symmetry_space_group_name_H-M "I B C A "
_symmetry_group_IT_number 73
_symmetry_cell_setting 'orthorhombic'
loop_
_space_group_symop_operation_xyz
x,y,z
-x,1/2-y,z
x,-y,1/2-z
1/2-x,y,-z
-x,-y,-z
x,1/2+y,-z
-x,y,1/2+z
1/2+x,-y,z
1/2+x,1/2+y,1/2+z
1/2-x,-y,1/2+z
1/2+x,1/2-y,-z
-x,1/2+y,1/2-z
1/2-x,1/2-y,1/2-z
1/2+x,y,1/2-z
1/2-x,1/2+y,z
x,1/2-y,1/2+z
loop_
_atom_site_type_symbol
_atom_site_label
_atom_site_fract_x
_atom_site_fract_y
_atom_site_fract_z
Si Si1 0.340399 0.922780 0.851458
Si Si2 0.573053 0.644915 0.130540
Si Si3 0.203533 0.696271 0.230692
Si Si4 0.833826 0.964808 0.393015
Si Si5 0.567918 0.173215 0.146043
Si Si6 0.501829 0.500000 0.250000
O O1 0.323407 0.792732 0.837331
O O2 0.391171 0.911209 0.843773
O O3 0.320659 0.000000 0.750000
O O4 0.328806 0.985127 0.970477
O O5 0.615883 0.563188 0.131056
O O6 0.574182 0.729635 0.248126
O O7 0.532092 0.563788 0.154612
O O8 0.568542 0.703531 0.997299
O O9 0.250000 0.750000 0.250000
O O10 0.187227 0.660132 0.360466
O O11 0.190309 0.574811 0.165841
O O12 0.526639 0.098020 0.183779
#
# Coordination Sequence:
#
# PCOD9533048 Si02
#       6
#    16  16  16  16  16   8
#     4  11  25  46  74 103 143 192 239 303 362 447
#     4  11  25  46  75 100 147 200 245 310 372 449
#     4  11  25  47  72 108 140 183 240 300 371 432
#     4  10  25  49  74 105 143 196 245 296 373 444
#     4  11  25  45  69 105 143 192 251 306 374 443
#     4  12  24  42  66 110 146 188 254 312 378 434
#
# _framework density 21.873058
#
# number of rings (size 3 to 8) (size 9 to 14) (size 15 to 20)
#    0.000    1.091    2.727    2.182    5.091    5.091 
#    0.000    0.000    0.000    0.000    0.000    0.000 
#    0.000    0.000    0.000    0.000    0.000    0.000 
#
# Total GULP energy -245049.680021 kJ/mol
# GULP energy per Si atom -5569.310910 kJ/mol
# Density = 2.182327 g / cm^3
# Si number density = 21.873058 Si / 1000 Ang^3
#
#
#
# Elastic Constant Matrix: (Units=GPa)
#
#
# Indices 1 2 3 4 5 6 
#
# 1 116.2435 26.5515 40.5794 0.0000 0.0000 0.0000
# 2 26.5515 89.9216 66.1381 0.0000 0.0000 0.0000
# 3 40.5794 66.1381 181.9529 0.0000 0.0000 0.0000
# 4 0.0000 0.0000 0.0000 2.5026 0.0000 0.0000
# 5 0.0000 0.0000 0.0000 0.0000 5.9791 0.0000
# 6 0.0000 0.0000 0.0000 0.0000 0.0000 99.2845
#
#
#
# Elastic Compliance Matrix: (Units=1/GPa)
#
#
# Indices 1 2 3 4 5 6 
#
# 1 0.009517 -0.001705 -0.001503 0.000000 0.000000 0.000000
# 2 -0.001705 0.015484 -0.005248 0.000000 0.000000 0.000000
# 3 -0.001503 -0.005248 0.007739 0.000000 0.000000 0.000000
# 4 0.000000 0.000000 0.000000 0.399578 0.000000 0.000000
# 5 0.000000 0.000000 0.000000 0.000000 0.167249 0.000000
# 6 0.000000 0.000000 0.000000 0.000000 0.000000 0.010072
#
#
# Mechanical properties :
#
#
# Convention : Reuss Voigt Hill
#
# Bulk Modulus (GPa) = 63.17807 72.73954 67.95880
# Shear Modulus (GPa) = 7.91358 38.54319 23.22839
#
# Velocity S-wave (km/s) = 1.90416 4.20233 3.26231
# Velocity P-wave (km/s) = 5.81215 7.54146 6.73256
#
# Compressibility (1/GPa) = 0.01582828
#
# Stress axis : x y z
#
# Youngs Moduli (GPa) = 105.07950 64.58180 129.22009
#
# Poissons Ratio (x) = 0.11009 0.19419
# Poissons Ratio (y) = 0.17913 0.67817
# Poissons Ratio (z) = 0.15791 0.33894
#
# Static dielectric constant tensor:
#      x y z
#    x 1.839170 0.000000 0.000000 
#    y 0.000000 1.843040 0.000000 
#    z 0.000000 0.000000 2.071160 
# 
# From -- ./inp_files/14671.got.cif
#   From: 2010.05.17/outbox.cif.g08.bks.cpg/sg73_8_cif.got.tgz:14671.got - 2010.06.03 17:35:07.
