data_PCOD9533475
_publ_section_title
;
Structure prediction by ZEFSAII (Michael W. Deem and Ramdas Pophale) SiO2 
 PCOD9533475
Probable space group: I B C A 
;
_chemical_formula_sum "Si O2"
_cell_formula_units_Z 112
_cell_length_a 14.304555
_cell_length_b 11.096936
_cell_length_c 31.722819
_cell_angle_alpha 90.000000
_cell_angle_beta 90.000000
_cell_angle_gamma 90.000000
_cell_volume 5035.576597
_symmetry_space_group_name_H-M "I B C A "
_symmetry_group_IT_number 73
_symmetry_cell_setting 'orthorhombic'
loop_
_space_group_symop_operation_xyz
x,y,z
-x,1/2-y,z
x,-y,1/2-z
1/2-x,y,-z
-x,-y,-z
x,1/2+y,-z
-x,y,1/2+z
1/2+x,-y,z
1/2+x,1/2+y,1/2+z
1/2-x,-y,1/2+z
1/2+x,1/2-y,-z
-x,1/2+y,1/2-z
1/2-x,1/2-y,1/2-z
1/2+x,y,1/2-z
1/2-x,1/2+y,z
x,1/2-y,1/2+z
loop_
_atom_site_type_symbol
_atom_site_label
_atom_site_fract_x
_atom_site_fract_y
_atom_site_fract_z
Si Si1 0.891972 0.953358 0.120982
Si Si2 0.411641 0.167618 0.436773
Si Si3 0.386535 0.383405 0.319211
Si Si4 0.685430 0.597784 0.589372
Si Si5 0.000000 0.750000 0.574938
Si Si6 0.150180 0.608442 0.520939
Si Si7 0.895975 0.109254 0.196066
Si Si8 0.249843 0.500000 0.250000
O O1 0.792862 0.919296 0.101266
O O2 0.964917 0.855496 0.105560
O O3 0.923069 0.081227 0.102283
O O4 0.877048 0.987608 0.169292
O O5 0.500000 0.250000 0.443763
O O6 0.332346 0.266167 0.426478
O O7 0.402622 0.082091 0.477259
O O8 0.371749 0.428477 0.367363
O O9 0.491441 0.394651 0.300273
O O10 0.371151 0.239483 0.323306
O O11 0.316167 0.449901 0.287332
O O12 0.662384 0.503769 0.552149
O O13 0.913350 0.794577 0.545761
O O14 0.250000 0.646247 0.500000
O O15 0.823722 0.100768 0.234419
#
# Coordination Sequence:
#
# PCOD9533475 Si02
#       8
#    16  16  16  16   8  16  16   8
#     4  12  26  48  72 105 146 193 253 306 371 448
#     4  12  25  46  72  99 142 199 245 307 375 438
#     4  11  24  47  75 106 149 195 241 296 371 453
#     4  12  26  47  74 102 148 200 249 303 376 447
#     4  12  28  46  72 108 146 192 252 326 366 440
#     4  12  26  45  68 104 147 192 255 317 372 431
#     4  11  24  47  73 107 145 192 236 295 377 442
#     4  12  24  46  78 114 144 182 242 310 358 444
#
# _framework density 22.241743
#
# number of rings (size 3 to 8) (size 9 to 14) (size 15 to 20)
#    0.000    0.286    5.000    4.286    2.000    1.714 
#    2.571    1.429    0.000    0.000    0.000    0.000 
#    0.000    0.000    0.000    0.000    0.000    0.000 
#
# Total GULP energy -312666.802575 kJ/mol
# GULP energy per Si atom -5583.335760 kJ/mol
# Density = 2.219112 g / cm^3
# Si number density = 22.241743 Si / 1000 Ang^3
#
#
#
# Elastic Constant Matrix: (Units=GPa)
#
#
# Indices 1 2 3 4 5 6 
#
# 1 117.6884 43.4075 50.8165 0.0000 0.0000 0.0000
# 2 43.4075 91.5783 46.7838 0.0000 0.0000 0.0000
# 3 50.8165 46.7838 117.6857 0.0000 0.0000 0.0000
# 4 0.0000 0.0000 0.0000 36.2282 0.0000 0.0000
# 5 0.0000 0.0000 0.0000 0.0000 25.9877 0.0000
# 6 0.0000 0.0000 0.0000 0.0000 0.0000 102.0452
#
#
#
# Elastic Compliance Matrix: (Units=1/GPa)
#
#
# Indices 1 2 3 4 5 6 
#
# 1 0.011316 -0.003598 -0.003456 0.000000 0.000000 0.000000
# 2 -0.003598 0.014847 -0.004348 0.000000 0.000000 0.000000
# 3 -0.003456 -0.004348 0.011718 0.000000 0.000000 0.000000
# 4 0.000000 0.000000 0.000000 0.027603 0.000000 0.000000
# 5 0.000000 0.000000 0.000000 0.000000 0.038480 0.000000
# 6 0.000000 0.000000 0.000000 0.000000 0.000000 0.009800
#
#
# Mechanical properties :
#
#
# Convention : Reuss Voigt Hill
#
# Bulk Modulus (GPa) = 66.33083 67.66311 66.99697
# Shear Modulus (GPa) = 35.31232 45.24852 40.28042
#
# Velocity S-wave (km/s) = 3.98887 4.51532 4.26023
# Velocity P-wave (km/s) = 7.14858 7.59420 7.37476
#
# Compressibility (1/GPa) = 0.01507595
#
# Stress axis : x y z
#
# Youngs Moduli (GPa) = 88.36667 67.35570 85.33856
#
# Poissons Ratio (x) = 0.24237 0.29493
# Poissons Ratio (y) = 0.31798 0.37107
# Poissons Ratio (z) = 0.30539 0.29287
#
# Static dielectric constant tensor:
#      x y z
#    x 2.071810 0.000000 0.000000 
#    y 0.000000 1.774100 0.000000 
#    z 0.000000 0.000000 1.849950 
# 
# From -- ./inp_files/34350.got.cif
#   From: 2010.05.17/outbox.cif.g08.bks.cpg/sg73_18_cif.got.tgz:34350.got - 2010.06.03 17:35:07.
