data_PCOD9533369
_publ_section_title
;
Structure prediction by ZEFSAII (Michael W. Deem and Ramdas Pophale) SiO2 
 PCOD9533369
Probable space group: I B C A 
;
_chemical_formula_sum "Si O2"
_cell_formula_units_Z 112
_cell_length_a 28.827580
_cell_length_b 12.683834
_cell_length_c 13.736460
_cell_angle_alpha 90.000000
_cell_angle_beta 90.000000
_cell_angle_gamma 90.000000
_cell_volume 5022.657468
_symmetry_space_group_name_H-M "I B C A "
_symmetry_group_IT_number 73
_symmetry_cell_setting 'orthorhombic'
loop_
_space_group_symop_operation_xyz
x,y,z
-x,1/2-y,z
x,-y,1/2-z
1/2-x,y,-z
-x,-y,-z
x,1/2+y,-z
-x,y,1/2+z
1/2+x,-y,z
1/2+x,1/2+y,1/2+z
1/2-x,-y,1/2+z
1/2+x,1/2-y,-z
-x,1/2+y,1/2-z
1/2-x,1/2-y,1/2-z
1/2+x,y,1/2-z
1/2-x,1/2+y,z
x,1/2-y,1/2+z
loop_
_atom_site_type_symbol
_atom_site_label
_atom_site_fract_x
_atom_site_fract_y
_atom_site_fract_z
Si Si1 0.209977 0.903964 0.827569
Si Si2 0.852486 0.466652 0.966050
Si Si3 0.686407 0.937536 0.349915
Si Si4 0.034674 0.609166 0.703239
Si Si5 0.059081 0.828787 0.781927
Si Si6 0.845276 0.287775 0.815559
Si Si7 0.548598 0.938984 0.511282
O O1 0.171123 0.937641 0.905179
O O2 0.261246 0.898317 0.871139
O O3 0.195282 0.804020 0.763701
O O4 0.210063 0.000000 0.750000
O O5 0.839608 0.359367 0.911121
O O6 0.907345 0.484171 0.977364
O O7 0.830162 0.479618 0.070675
O O8 0.653819 0.834605 0.342902
O O9 0.686377 0.000000 0.250000
O O10 0.050726 0.500000 0.750000
O O11 0.050196 0.704518 0.771351
O O12 0.051006 0.621891 0.592256
O O13 0.978588 0.614845 0.712025
O O14 0.110169 0.839483 0.738027
O O15 0.050723 0.868469 0.891311
O O16 0.500000 0.000000 0.500000
#
# Coordination Sequence:
#
# PCOD9533369 Si02
#       7
#    16  16  16  16  16  16  16
#     4   9  20  42  74 102 140 185 236 292 365 434
#     4  11  24  43  72 102 140 189 241 294 357 444
#     4  11  25  46  67 108 149 183 232 309 363 430
#     4  11  25  46  70 103 144 188 241 307 360 425
#     4  11  25  45  72 103 143 190 245 293 364 435
#     4  11  23  44  74 103 137 190 244 291 367 438
#     4  12  24  45  75 102 141 193 245 301 361 427
#
# _framework density 22.298952
#
# number of rings (size 3 to 8) (size 9 to 14) (size 15 to 20)
#    0.000    1.143    2.857    2.571    0.000    5.714 
#    7.714    4.286    0.000    0.000    0.000    0.000 
#    0.000    0.000    0.000    0.000    0.000    0.000 
#
# Total GULP energy -313081.496395 kJ/mol
# GULP energy per Si atom -5590.741007 kJ/mol
# Density = 2.224820 g / cm^3
# Si number density = 22.298952 Si / 1000 Ang^3
#
#
#
# Elastic Constant Matrix: (Units=GPa)
#
#
# Indices 1 2 3 4 5 6 
#
# 1 118.9144 6.6977 46.9655 0.0000 0.0000 0.0000
# 2 6.6977 87.7229 46.5870 0.0000 0.0000 0.0000
# 3 46.9655 46.5870 144.4183 0.0000 0.0000 0.0000
# 4 0.0000 0.0000 0.0000 28.4661 0.0000 0.0000
# 5 0.0000 0.0000 0.0000 0.0000 27.9025 0.0000
# 6 0.0000 0.0000 0.0000 0.0000 0.0000 22.0992
#
#
#
# Elastic Compliance Matrix: (Units=1/GPa)
#
#
# Indices 1 2 3 4 5 6 
#
# 1 0.009741 0.001133 -0.003533 0.000000 0.000000 0.000000
# 2 0.001133 0.013888 -0.004848 0.000000 0.000000 0.000000
# 3 -0.003533 -0.004848 0.009637 0.000000 0.000000 0.000000
# 4 0.000000 0.000000 0.000000 0.035130 0.000000 0.000000
# 5 0.000000 0.000000 0.000000 0.000000 0.035839 0.000000
# 6 0.000000 0.000000 0.000000 0.000000 0.000000 0.045250
#
#
# Mechanical properties :
#
#
# Convention : Reuss Voigt Hill
#
# Bulk Modulus (GPa) = 53.28089 61.28400 57.28245
# Shear Modulus (GPa) = 29.37041 32.41391 30.89216
#
# Velocity S-wave (km/s) = 3.63315 3.81676 3.72609
# Velocity P-wave (km/s) = 6.44558 6.85318 6.65250
#
# Compressibility (1/GPa) = 0.01876846
#
# Stress axis : x y z
#
# Youngs Moduli (GPa) = 102.65816 72.00531 103.76305
#
# Poissons Ratio (x) = -0.08156 0.36662
# Poissons Ratio (y) = -0.11628 0.50308
# Poissons Ratio (z) = 0.36271 0.34911
#
# Static dielectric constant tensor:
#      x y z
#    x 1.912740 0.000000 0.000000 
#    y 0.000000 0.705640 0.000000 
#    z 0.000000 0.000000 1.816300 
# 
# From -- ./inp_files/14806.got.cif
#   From: 2010.05.17/outbox.cif.g08.bks.cpg/sg73_8_cif.got.tgz:14806.got - 2010.06.03 17:35:07.
