data_PCOD9533725
_publ_section_title
;
Structure prediction by ZEFSAII (Michael W. Deem and Ramdas Pophale) SiO2 
 PCOD9533725
Probable space group: I B C A 
;
_chemical_formula_sum "Si O2"
_cell_formula_units_Z 32
_cell_length_a 16.782591
_cell_length_b 8.004886
_cell_length_c 8.309844
_cell_angle_alpha 90.000000
_cell_angle_beta 90.000000
_cell_angle_gamma 90.000000
_cell_volume 1116.367110
_symmetry_space_group_name_H-M "I B C A "
_symmetry_group_IT_number 73
_symmetry_cell_setting 'orthorhombic'
loop_
_space_group_symop_operation_xyz
x,y,z
-x,1/2-y,z
x,-y,1/2-z
1/2-x,y,-z
-x,-y,-z
x,1/2+y,-z
-x,y,1/2+z
1/2+x,-y,z
1/2+x,1/2+y,1/2+z
1/2-x,-y,1/2+z
1/2+x,1/2-y,-z
-x,1/2+y,1/2-z
1/2-x,1/2-y,1/2-z
1/2+x,y,1/2-z
1/2-x,1/2+y,z
x,1/2-y,1/2+z
loop_
_atom_site_type_symbol
_atom_site_label
_atom_site_fract_x
_atom_site_fract_y
_atom_site_fract_z
Si Si1 0.442446 0.885654 0.611657
Si Si2 0.807075 0.356459 0.635975
O O1 0.500000 0.750000 0.693444
O O2 0.371611 0.765434 0.551836
O O3 0.406857 0.000000 0.750000
O O4 0.500000 0.000000 0.500000
O O5 0.844194 0.500000 0.750000
O O6 0.750000 0.432563 0.500000
O O7 0.750000 0.250000 0.750000
#
# Coordination Sequence:
#
# PCOD9533725 Si02
#       2
#    16  16
#     4  12  30  54  85 126 174 229 295 369 459 544
#     4  12  30  54  89 129 176 231 302 377 450 539
#
# _framework density 28.664407000000001
#
# number of rings (size 3 to 8) (size 9 to 14) (size 15 to 20)
#    0.000    0.000    0.000    6.000   28.000    0.000 
#    0.000    0.000    0.000    0.000    0.000    0.000 
#    0.000    0.000    0.000    0.000    0.000    0.000 
#
# Total GULP energy -89688.848408 kJ/mol
# GULP energy per Si atom -5605.553025 kJ/mol
# Density = 2.859917 g / cm^3
# Si number density = 28.664407 Si / 1000 Ang^3
#
#
#
# Elastic Constant Matrix: (Units=GPa)
#
#
# Indices 1 2 3 4 5 6 
#
# 1 150.7668 82.0652 52.4171 0.0000 0.0000 0.0000
# 2 82.0652 168.5276 72.9934 0.0000 0.0000 0.0000
# 3 52.4171 72.9934 111.3764 0.0000 0.0000 0.0000
# 4 0.0000 0.0000 0.0000 68.7724 0.0000 0.0000
# 5 0.0000 0.0000 0.0000 0.0000 50.6119 0.0000
# 6 0.0000 0.0000 0.0000 0.0000 0.0000 89.4609
#
#
#
# Elastic Compliance Matrix: (Units=1/GPa)
#
#
# Indices 1 2 3 4 5 6 
#
# 1 0.009325 -0.003687 -0.001973 0.000000 0.000000 0.000000
# 2 -0.003687 0.009743 -0.004650 0.000000 0.000000 0.000000
# 3 -0.001973 -0.004650 0.012955 0.000000 0.000000 0.000000
# 4 0.000000 0.000000 0.000000 0.014541 0.000000 0.000000
# 5 0.000000 0.000000 0.000000 0.000000 0.019758 0.000000
# 6 0.000000 0.000000 0.000000 0.000000 0.000000 0.011178
#
#
# Mechanical properties :
#
#
# Convention : Reuss Voigt Hill
#
# Bulk Modulus (GPa) = 87.68972 93.95804 90.82388
# Shear Modulus (GPa) = 49.05775 56.64870 52.85323
#
# Velocity S-wave (km/s) = 4.14146 4.45035 4.29868
# Velocity P-wave (km/s) = 7.31623 7.69788 7.50948
#
# Compressibility (1/GPa) = 0.01140385
#
# Stress axis : x y z
#
# Youngs Moduli (GPa) = 107.23562 102.63633 77.19191
#
# Poissons Ratio (x) = 0.37838 0.15227
# Poissons Ratio (y) = 0.39533 0.35897
# Poissons Ratio (z) = 0.21154 0.47730
#
# Static dielectric constant tensor:
#      x y z
#    x 2.176190 0.000000 0.000000 
#    y 0.000000 2.157190 0.000000 
#    z 0.000000 0.000000 2.132390 
# 
# From -- ./inp_files/3372.got.cif
#   From: 2010.05.17/outbox.cif.g08.bks.cpg/sg73_2_cif.got.tgz:3372.got - 2010.06.03 17:35:07.
