data_PCOD9533307
_publ_section_title
;
Structure prediction by ZEFSAII (Michael W. Deem and Ramdas Pophale) SiO2 
 PCOD9533307
Probable space group: I B C A 
;
_chemical_formula_sum "Si O2"
_cell_formula_units_Z 104
_cell_length_a 18.412069
_cell_length_b 12.136254
_cell_length_c 27.557699
_cell_angle_alpha 90.000000
_cell_angle_beta 90.000000
_cell_angle_gamma 90.000000
_cell_volume 6157.865563
_symmetry_space_group_name_H-M "I B C A "
_symmetry_group_IT_number 73
_symmetry_cell_setting 'orthorhombic'
loop_
_space_group_symop_operation_xyz
x,y,z
-x,1/2-y,z
x,-y,1/2-z
1/2-x,y,-z
-x,-y,-z
x,1/2+y,-z
-x,y,1/2+z
1/2+x,-y,z
1/2+x,1/2+y,1/2+z
1/2-x,-y,1/2+z
1/2+x,1/2-y,-z
-x,1/2+y,1/2-z
1/2-x,1/2-y,1/2-z
1/2+x,y,1/2-z
1/2-x,1/2+y,z
x,1/2-y,1/2+z
loop_
_atom_site_type_symbol
_atom_site_label
_atom_site_fract_x
_atom_site_fract_y
_atom_site_fract_z
Si Si1 0.912318 0.229457 0.397174
Si Si2 0.448171 0.501574 0.573005
Si Si3 0.323005 0.882961 0.223104
Si Si4 0.055734 0.347764 0.988572
Si Si5 0.567596 0.000000 0.250000
Si Si6 0.472930 0.125027 0.330319
Si Si7 0.663823 0.312487 0.699509
O O1 0.901307 0.098844 0.405012
O O2 0.894359 0.289850 0.448096
O O3 0.869002 0.277004 0.351986
O O4 0.000000 0.250000 0.389012
O O5 0.413514 0.587584 0.534822
O O6 0.509765 0.436552 0.542640
O O7 0.481331 0.568048 0.617674
O O8 0.389046 0.881292 0.185527
O O9 0.339100 0.791150 0.264032
O O10 0.247025 0.852117 0.198022
O O11 0.317618 0.000000 0.250000
O O12 0.000000 0.250000 0.004642
O O13 0.517932 0.059971 0.289656
O O14 0.616630 0.090015 0.222923
O O15 0.500000 0.250000 0.331617
#
# Coordination Sequence:
#
# PCOD9533307 Si02
#       7
#    16  16  16  16   8  16  16
#     4   9  18  31  55  80 104 144 186 225 274 333
#     4   9  17  30  50  79 111 136 174 231 282 325
#     4  11  23  39  54  76 115 154 186 229 278 337
#     4   8  15  30  50  78 110 138 172 226 284 330
#     4  12  22  36  56  78 116 144 190 236 268 334
#     4  12  23  33  54  85 109 145 188 236 280 329
#     4  11  23  38  54  79 113 154 186 222 285 341
#
# _framework density 16.888968999999999
#
# number of rings (size 3 to 8) (size 9 to 14) (size 15 to 20)
#    0.000    2.154    3.077    3.231    2.154    0.000 
#    0.000    0.000    0.000    0.923    0.000    6.462 
#    0.000    0.000    0.000    0.000    0.000    0.000 
#
# Total GULP energy -289846.937508 kJ/mol
# GULP energy per Si atom -5573.979567 kJ/mol
# Density = 1.685053 g / cm^3
# Si number density = 16.888969 Si / 1000 Ang^3
#
#
#
# Elastic Constant Matrix: (Units=GPa)
#
#
# Indices 1 2 3 4 5 6 
#
# 1 59.9130 37.6814 35.9287 0.0000 0.0000 0.0000
# 2 37.6814 144.2641 77.5811 0.0000 0.0000 0.0000
# 3 35.9287 77.5811 112.5219 0.0000 0.0000 0.0000
# 4 0.0000 0.0000 0.0000 32.4843 0.0000 0.0000
# 5 0.0000 0.0000 0.0000 0.0000 2.7235 0.0000
# 6 0.0000 0.0000 0.0000 0.0000 0.0000 26.4491
#
#
#
# Elastic Compliance Matrix: (Units=1/GPa)
#
#
# Indices 1 2 3 4 5 6 
#
# 1 0.021457 -0.003052 -0.004747 0.000000 0.000000 0.000000
# 2 -0.003052 0.011450 -0.006920 0.000000 0.000000 0.000000
# 3 -0.004747 -0.006920 0.015174 0.000000 0.000000 0.000000
# 4 0.000000 0.000000 0.000000 0.030784 0.000000 0.000000
# 5 0.000000 0.000000 0.000000 0.000000 0.367178 0.000000
# 6 0.000000 0.000000 0.000000 0.000000 0.000000 0.037809
#
#
# Mechanical properties :
#
#
# Convention : Reuss Voigt Hill
#
# Bulk Modulus (GPa) = 53.63866 68.78682 61.21274
# Shear Modulus (GPa) = 9.62455 23.36521 16.49488
#
# Velocity S-wave (km/s) = 2.38979 3.72352 3.12856
# Velocity P-wave (km/s) = 6.28039 7.70087 7.02662
#
# Compressibility (1/GPa) = 0.01864327
#
# Stress axis : x y z
#
# Youngs Moduli (GPa) = 46.60489 87.33348 65.90026
#
# Poissons Ratio (x) = 0.26650 0.31285
# Poissons Ratio (y) = 0.14221 0.45606
# Poissons Ratio (z) = 0.22125 0.60438
#
# Static dielectric constant tensor:
#      x y z
#    x 1.555970 0.000000 0.000000 
#    y 0.000000 1.596540 0.000000 
#    z 0.000000 0.000000 1.570130 
# 
# From -- ./inp_files/32400.got.cif
#   From: 2010.05.17/outbox.cif.g08.bks.cpg/sg73_17_cif.got.tgz:32400.got - 2010.06.03 17:35:07.
