data_PCOD9533099
_publ_section_title
;
Structure prediction by ZEFSAII (Michael W. Deem and Ramdas Pophale) SiO2 
 PCOD9533099
Probable space group: I B C A 
;
_chemical_formula_sum "Si O2"
_cell_formula_units_Z 120
_cell_length_a 23.439618
_cell_length_b 8.933338
_cell_length_c 25.924348
_cell_angle_alpha 90.000000
_cell_angle_beta 90.000000
_cell_angle_gamma 90.000000
_cell_volume 5428.403708
_symmetry_space_group_name_H-M "I B C A "
_symmetry_group_IT_number 73
_symmetry_cell_setting 'orthorhombic'
loop_
_space_group_symop_operation_xyz
x,y,z
-x,1/2-y,z
x,-y,1/2-z
1/2-x,y,-z
-x,-y,-z
x,1/2+y,-z
-x,y,1/2+z
1/2+x,-y,z
1/2+x,1/2+y,1/2+z
1/2-x,-y,1/2+z
1/2+x,1/2-y,-z
-x,1/2+y,1/2-z
1/2-x,1/2-y,1/2-z
1/2+x,y,1/2-z
1/2-x,1/2+y,z
x,1/2-y,1/2+z
loop_
_atom_site_type_symbol
_atom_site_label
_atom_site_fract_x
_atom_site_fract_y
_atom_site_fract_z
Si Si1 0.104030 0.469908 0.622852
Si Si2 0.821167 0.985375 0.328184
Si Si3 0.386074 0.060089 0.511135
Si Si4 0.791473 0.305527 0.351143
Si Si5 0.085913 0.000000 0.750000
Si Si6 0.006800 0.416656 0.338837
Si Si7 0.301774 0.818530 0.460877
Si Si8 0.592171 0.374905 0.400931
O O1 0.083918 0.507568 0.563706
O O2 0.160323 0.567704 0.637081
O O3 0.106787 0.290645 0.619555
O O4 0.056371 0.517961 0.663939
O O5 0.812701 0.163044 0.317508
O O6 0.763176 0.891821 0.328725
O O7 0.869560 0.924071 0.289376
O O8 0.851669 0.968727 0.383782
O O9 0.343854 0.181912 0.532813
O O10 0.419893 0.123739 0.462058
O O11 0.342916 0.944741 0.484406
O O12 0.776201 0.213639 0.403882
O O13 0.043679 0.095139 0.786399
O O14 0.041294 0.535622 0.373488
O O15 0.000000 0.250000 0.361527
O O16 0.250000 0.812489 0.500000
#
# Coordination Sequence:
#
# PCOD9533099 Si02
#       8
#    16  16  16  16   8  16  16  16
#     4  11  24  42  65 102 137 185 231 278 342 404
#     4  11  23  43  67 100 136 181 222 284 348 409
#     4  11  22  36  59  93 143 183 233 275 319 399
#     4  11  24  39  67  99 143 181 227 279 336 408
#     4  10  26  48  74  96 128 162 224 290 354 418
#     4  11  26  47  76  98 127 173 228 290 355 412
#     4  11  22  34  57  94 138 195 231 266 318 397
#     4  11  22  42  65  96 143 182 231 283 331 407
#
# _framework density 22.105945999999999
#
# number of rings (size 3 to 8) (size 9 to 14) (size 15 to 20)
#    0.000    1.067    2.667    4.000    5.600    3.200 
#    0.000    0.667    0.000    0.000    0.000    0.000 
#    0.000    0.000    0.000    0.000    0.000    0.000 
#
# Total GULP energy -334121.768595 kJ/mol
# GULP energy per Si atom -5568.696143 kJ/mol
# Density = 2.205563 g / cm^3
# Si number density = 22.105946 Si / 1000 Ang^3
#
#
#
# Elastic Constant Matrix: (Units=GPa)
#
#
# Indices 1 2 3 4 5 6 
#
# 1 111.5194 31.4943 32.0860 0.0000 0.0000 0.0000
# 2 31.4943 101.1724 5.9939 0.0000 0.0000 0.0000
# 3 32.0860 5.9939 81.5628 0.0000 0.0000 0.0000
# 4 0.0000 0.0000 0.0000 0.1776 0.0000 0.0000
# 5 0.0000 0.0000 0.0000 0.0000 27.5488 0.0000
# 6 0.0000 0.0000 0.0000 0.0000 0.0000 22.5356
#
#
#
# Elastic Compliance Matrix: (Units=1/GPa)
#
#
# Indices 1 2 3 4 5 6 
#
# 1 0.011053 -0.003197 -0.004113 0.000000 0.000000 0.000000
# 2 -0.003197 0.010852 0.000460 0.000000 0.000000 0.000000
# 3 -0.004113 0.000460 0.013845 0.000000 0.000000 0.000000
# 4 0.000000 0.000000 0.000000 5.630109 0.000000 0.000000
# 5 0.000000 0.000000 0.000000 0.000000 0.036299 0.000000
# 6 0.000000 0.000000 0.000000 0.000000 0.000000 0.044374
#
#
# Mechanical properties :
#
#
# Convention : Reuss Voigt Hill
#
# Bulk Modulus (GPa) = 45.35194 48.15591 46.75392
# Shear Modulus (GPa) = 0.86691 25.03110 12.94900
#
# Velocity S-wave (km/s) = 0.62691 3.36865 2.42289
# Velocity P-wave (km/s) = 4.59176 6.07963 5.38731
#
# Compressibility (1/GPa) = 0.02204978
#
# Stress axis : x y z
#
# Youngs Moduli (GPa) = 90.46946 92.14800 72.22913
#
# Poissons Ratio (x) = 0.29461 0.29711
# Poissons Ratio (y) = 0.28925 -0.03324
# Poissons Ratio (z) = 0.37213 -0.04241
#
# Static dielectric constant tensor:
#      x y z
#    x 1.798610 0.000000 0.000000 
#    y 0.000000 1.877220 0.000000 
#    z 0.000000 0.000000 1.994640 
# 
# From -- ./inp_files/32906.got.cif
#   From: 2010.05.17/outbox.cif.g08.bks.cpg/sg73_17_cif.got.tgz:32906.got - 2010.06.03 17:35:07.
