data_PCOD9533554
_publ_section_title
;
Structure prediction by ZEFSAII (Michael W. Deem and Ramdas Pophale) SiO2 
 PCOD9533554
Probable space group: I B C A 
;
_chemical_formula_sum "Si O2"
_cell_formula_units_Z 56
_cell_length_a 17.532202
_cell_length_b 13.297482
_cell_length_c 8.729491
_cell_angle_alpha 90.000000
_cell_angle_beta 90.000000
_cell_angle_gamma 90.000000
_cell_volume 2035.142381
_symmetry_space_group_name_H-M "I B C A "
_symmetry_group_IT_number 73
_symmetry_cell_setting 'orthorhombic'
loop_
_space_group_symop_operation_xyz
x,y,z
-x,1/2-y,z
x,-y,1/2-z
1/2-x,y,-z
-x,-y,-z
x,1/2+y,-z
-x,y,1/2+z
1/2+x,-y,z
1/2+x,1/2+y,1/2+z
1/2-x,-y,1/2+z
1/2+x,1/2-y,-z
-x,1/2+y,1/2-z
1/2-x,1/2-y,1/2-z
1/2+x,y,1/2-z
1/2-x,1/2+y,z
x,1/2-y,1/2+z
loop_
_atom_site_type_symbol
_atom_site_label
_atom_site_fract_x
_atom_site_fract_y
_atom_site_fract_z
Si Si1 0.607223 0.062407 0.961855
Si Si2 0.455850 0.340783 0.477913
Si Si3 0.231409 0.000000 0.750000
Si Si4 0.178319 0.826824 0.265476
O O1 0.529395 0.110117 0.896416
O O2 0.679140 0.068076 0.853694
O O3 0.636217 0.121272 0.116392
O O4 0.584226 0.942737 0.961545
O O5 0.500000 0.250000 0.567400
O O6 0.389859 0.292088 0.374376
O O7 0.284013 0.075378 0.842387
O O8 0.250000 0.750000 0.250000
#
# Coordination Sequence:
#
# PCOD9533554 Si02
#       4
#    16  16   8  16
#     4  11  27  49  78 115 159 212 275 333 421 504
#     4  11  26  48  78 110 157 208 273 333 412 493
#     4  12  26  48  78 114 168 208 274 350 414 486
#     4  12  27  51  79 115 160 212 277 335 418 487
#
# _framework density 27.516503
#
# number of rings (size 3 to 8) (size 9 to 14) (size 15 to 20)
#    0.000    0.571    2.857    2.571   12.000    1.143 
#    0.000    0.000    0.000    0.000    0.000    0.000 
#    0.000    0.000    0.000    0.000    0.000    0.000 
#
# Total GULP energy -156024.786774 kJ/mol
# GULP energy per Si atom -5572.313813 kJ/mol
# Density = 2.745387 g / cm^3
# Si number density = 27.516503 Si / 1000 Ang^3
#
#
#
# Elastic Constant Matrix: (Units=GPa)
#
#
# Indices 1 2 3 4 5 6 
#
# 1 202.4222 81.2128 53.1873 0.0000 0.0000 0.0000
# 2 81.2128 184.6218 19.4570 0.0000 0.0000 0.0000
# 3 53.1873 19.4570 50.5532 0.0000 0.0000 0.0000
# 4 0.0000 0.0000 0.0000 28.8543 0.0000 0.0000
# 5 0.0000 0.0000 0.0000 0.0000 35.9991 0.0000
# 6 0.0000 0.0000 0.0000 0.0000 0.0000 75.2028
#
#
#
# Elastic Compliance Matrix: (Units=1/GPa)
#
#
# Indices 1 2 3 4 5 6 
#
# 1 0.007960 -0.002729 -0.007324 0.000000 0.000000 0.000000
# 2 -0.002729 0.006581 0.000339 0.000000 0.000000 0.000000
# 3 -0.007324 0.000339 0.027356 0.000000 0.000000 0.000000
# 4 0.000000 0.000000 0.000000 0.034657 0.000000 0.000000
# 5 0.000000 0.000000 0.000000 0.000000 0.027778 0.000000
# 6 0.000000 0.000000 0.000000 0.000000 0.000000 0.013297
#
#
# Mechanical properties :
#
#
# Convention : Reuss Voigt Hill
#
# Bulk Modulus (GPa) = 44.50782 82.81238 63.66010
# Shear Modulus (GPa) = 34.59037 46.92722 40.75880
#
# Velocity S-wave (km/s) = 3.54937 4.13415 3.85288
# Velocity P-wave (km/s) = 5.74521 7.27662 6.55579
#
# Compressibility (1/GPa) = 0.02246796
#
# Stress axis : x y z
#
# Youngs Moduli (GPa) = 125.63398 151.94192 36.55466
#
# Poissons Ratio (x) = 0.41472 0.26772
# Poissons Ratio (y) = 0.34292 -0.01238
# Poissons Ratio (z) = 0.92012 -0.05145
#
# Static dielectric constant tensor:
#      x y z
#    x 2.070610 0.000000 0.000000 
#    y 0.000000 2.321850 0.000000 
#    z 0.000000 0.000000 2.159980 
# 
# From -- ./inp_files/11451.got.cif
#   From: 2010.05.17/outbox.cif.g08.bks.cpg/sg73_6_cif.got.tgz:11451.got - 2010.06.03 17:35:07.
