data_PCOD9533258
_publ_section_title
;
Structure prediction by ZEFSAII (Michael W. Deem and Ramdas Pophale) SiO2 
 PCOD9533258
Probable space group: I B C A 
;
_chemical_formula_sum "Si O2"
_cell_formula_units_Z 56
_cell_length_a 10.806725
_cell_length_b 17.966061
_cell_length_c 13.224683
_cell_angle_alpha 90.000000
_cell_angle_beta 90.000000
_cell_angle_gamma 90.000000
_cell_volume 2567.628814
_symmetry_space_group_name_H-M "I B C A "
_symmetry_group_IT_number 73
_symmetry_cell_setting 'orthorhombic'
loop_
_space_group_symop_operation_xyz
x,y,z
-x,1/2-y,z
x,-y,1/2-z
1/2-x,y,-z
-x,-y,-z
x,1/2+y,-z
-x,y,1/2+z
1/2+x,-y,z
1/2+x,1/2+y,1/2+z
1/2-x,-y,1/2+z
1/2+x,1/2-y,-z
-x,1/2+y,1/2-z
1/2-x,1/2-y,1/2-z
1/2+x,y,1/2-z
1/2-x,1/2+y,z
x,1/2-y,1/2+z
loop_
_atom_site_type_symbol
_atom_site_label
_atom_site_fract_x
_atom_site_fract_y
_atom_site_fract_z
Si Si1 0.612240 0.191495 0.148404
Si Si2 0.393618 0.438851 0.987786
Si Si3 0.043898 0.335370 0.631484
Si Si4 0.750000 0.294598 0.000000
O O1 0.500000 0.250000 0.148405
O O2 0.615392 0.160635 0.262179
O O3 0.592827 0.122491 0.075408
O O4 0.718154 0.240644 0.094591
O O5 0.430673 0.392482 0.885582
O O6 0.250000 0.464051 0.000000
O O7 0.500000 0.500000 0.000000
O O8 0.138928 0.344817 0.539333
O O9 0.000000 0.250000 0.620959
#
# Coordination Sequence:
#
# PCOD9533258 Si02
#       4
#    16  16  16   8
#     4  11  22  41  71 104 134 176 227 293 346 413
#     4  12  26  47  67  96 142 185 229 281 342 417
#     4  11  23  41  70 104 133 177 229 289 348 408
#     4  12  18  40  72 108 134 170 228 290 354 410
#
# _framework density 21.810006000000001
#
# number of rings (size 3 to 8) (size 9 to 14) (size 15 to 20)
#    0.000    0.571    7.143    0.857    2.000    3.429 
#    0.000    2.857    0.000    0.000    0.000    0.000 
#    0.000    0.000    0.000    0.000    0.000    0.000 
#
# Total GULP energy -156203.755695 kJ/mol
# GULP energy per Si atom -5578.705561 kJ/mol
# Density = 2.176037 g / cm^3
# Si number density = 21.810006 Si / 1000 Ang^3
#
#
#
# Elastic Constant Matrix: (Units=GPa)
#
#
# Indices 1 2 3 4 5 6 
#
# 1 142.1437 39.3579 34.8586 0.0000 0.0000 0.0000
# 2 39.3579 83.9618 -2.3805 0.0002 0.0000 0.0000
# 3 34.8586 -2.3805 97.3108 0.0002 0.0000 0.0000
# 4 0.0000 0.0002 0.0002 2.2866 0.0000 0.0000
# 5 0.0000 0.0000 0.0000 0.0000 33.5392 0.0000
# 6 0.0000 0.0000 0.0000 0.0000 0.0000 46.0618
#
#
#
# Elastic Compliance Matrix: (Units=1/GPa)
#
#
# Indices 1 2 3 4 5 6 
#
# 1 0.009059 -0.004342 -0.003351 0.000001 0.000000 0.000000
# 2 -0.004342 0.013999 0.001898 -0.000001 0.000000 0.000000
# 3 -0.003351 0.001898 0.011523 -0.000001 0.000000 0.000000
# 4 0.000001 -0.000001 -0.000001 0.437338 0.000000 0.000000
# 5 0.000000 0.000000 0.000000 0.000000 0.029816 0.000000
# 6 0.000000 0.000000 0.000000 0.000000 0.000000 0.021710
#
#
# Mechanical properties :
#
#
# Convention : Reuss Voigt Hill
#
# Bulk Modulus (GPa) = 43.49513 51.89871 47.69692
# Shear Modulus (GPa) = 9.21319 33.14952 21.18136
#
# Velocity S-wave (km/s) = 2.05754 3.90285 3.11975
# Velocity P-wave (km/s) = 5.06267 6.64508 5.90710
#
# Compressibility (1/GPa) = 0.02299108
#
# Stress axis : x y z
#
# Youngs Moduli (GPa) = 110.38573 71.43293 86.78069
#
# Poissons Ratio (x) = 0.31013 0.29083
# Poissons Ratio (y) = 0.47925 -0.16468
# Poissons Ratio (z) = 0.36994 -0.13556
#
# Static dielectric constant tensor:
#      x y z
#    x 1.914790 0.000000 0.000000 
#    y 0.000000 1.780940 0.000000 
#    z 0.000000 0.000000 1.847870 
# 
# From -- ./inp_files/4476.got.cif
#   From: 2010.05.17/outbox.cif.g08.bks.cpg/sg73_3_cif.got.tgz:4476.got - 2010.06.03 17:35:07.
