data_PCOD9533253
_publ_section_title
;
Structure prediction by ZEFSAII (Michael W. Deem and Ramdas Pophale) SiO2 
 PCOD9533253
Probable space group: I B C A 
;
_chemical_formula_sum "Si O2"
_cell_formula_units_Z 104
_cell_length_a 22.054924
_cell_length_b 22.563124
_cell_length_c 9.095160
_cell_angle_alpha 90.000000
_cell_angle_beta 90.000000
_cell_angle_gamma 90.000000
_cell_volume 4526.006144
_symmetry_space_group_name_H-M "I B C A "
_symmetry_group_IT_number 73
_symmetry_cell_setting 'orthorhombic'
loop_
_space_group_symop_operation_xyz
x,y,z
-x,1/2-y,z
x,-y,1/2-z
1/2-x,y,-z
-x,-y,-z
x,1/2+y,-z
-x,y,1/2+z
1/2+x,-y,z
1/2+x,1/2+y,1/2+z
1/2-x,-y,1/2+z
1/2+x,1/2-y,-z
-x,1/2+y,1/2-z
1/2-x,1/2-y,1/2-z
1/2+x,y,1/2-z
1/2-x,1/2+y,z
x,1/2-y,1/2+z
loop_
_atom_site_type_symbol
_atom_site_label
_atom_site_fract_x
_atom_site_fract_y
_atom_site_fract_z
Si Si1 0.444270 0.215631 0.780093
Si Si2 0.149613 0.555412 0.011296
Si Si3 0.533700 0.580830 0.672676
Si Si4 0.250000 0.157040 0.500000
Si Si5 0.622189 0.696921 0.004081
Si Si6 0.747321 0.570518 0.273098
Si Si7 0.416569 0.561889 0.502144
O O1 0.500000 0.250000 0.706859
O O2 0.471318 0.151726 0.818320
O O3 0.390153 0.206792 0.667105
O O4 0.418036 0.255704 0.909797
O O5 0.083674 0.573351 0.955405
O O6 0.197545 0.576078 0.888484
O O7 0.138796 0.484212 0.020559
O O8 0.180513 0.581278 0.157051
O O9 0.471762 0.551446 0.615663
O O10 0.558736 0.559369 0.832271
O O11 0.192949 0.198107 0.535394
O O12 0.260288 0.112859 0.637256
O O13 0.603215 0.628988 0.031620
O O14 0.747819 0.500000 0.250000
#
# Coordination Sequence:
#
# PCOD9533253 Si02
#       7
#    16  16  16   8  16  16  16
#     4  11  23  44  70  97 133 179 233 283 351 414
#     4  11  24  42  65  97 136 183 224 279 345 419
#     4  11  24  40  65  98 138 178 229 294 349 413
#     4  12  26  46  68 106 138 178 238 296 346 408
#     4  11  25  43  70  99 136 180 233 291 343 415
#     4  11  22  41  67  91 134 182 226 273 340 416
#     4  11  23  41  65 100 139 181 233 287 347 416
#
# _framework density 22.978316
#
# number of rings (size 3 to 8) (size 9 to 14) (size 15 to 20)
#    0.000    0.923    1.538    6.923    2.154    4.308 
#    0.000    1.538    0.000    0.000    0.000    0.000 
#    0.000    0.000    0.000    0.000    0.000    0.000 
#
# Total GULP energy -290777.961926 kJ/mol
# GULP energy per Si atom -5591.883883 kJ/mol
# Density = 2.292602 g / cm^3
# Si number density = 22.978316 Si / 1000 Ang^3
#
#
#
# Elastic Constant Matrix: (Units=GPa)
#
#
# Indices 1 2 3 4 5 6 
#
# 1 86.3702 1.6932 20.3184 0.0000 0.0000 0.0000
# 2 1.6932 74.4699 23.8270 0.0000 0.0000 0.0000
# 3 20.3184 23.8270 73.4968 0.0000 0.0000 0.0000
# 4 0.0000 0.0000 0.0000 18.8109 0.0000 0.0000
# 5 0.0000 0.0000 0.0000 0.0000 36.3351 0.0000
# 6 0.0000 0.0000 0.0000 0.0000 0.0000 15.6903
#
#
#
# Elastic Compliance Matrix: (Units=1/GPa)
#
#
# Indices 1 2 3 4 5 6 
#
# 1 0.012439 0.000912 -0.003734 0.000000 0.000000 0.000000
# 2 0.000912 0.015049 -0.005131 0.000000 0.000000 0.000000
# 3 -0.003734 -0.005131 0.016302 0.000000 0.000000 0.000000
# 4 0.000000 0.000000 0.000000 0.053161 0.000000 0.000000
# 5 0.000000 0.000000 0.000000 0.000000 0.027522 0.000000
# 6 0.000000 0.000000 0.000000 0.000000 0.000000 0.063734
#
#
# Mechanical properties :
#
#
# Convention : Reuss Voigt Hill
#
# Bulk Modulus (GPa) = 35.86402 36.22378 36.04390
# Shear Modulus (GPa) = 23.42945 26.73380 25.08163
#
# Velocity S-wave (km/s) = 3.19663 3.41462 3.30742
# Velocity P-wave (km/s) = 5.40983 5.59863 5.50504
#
# Compressibility (1/GPa) = 0.02788310
#
# Stress axis : x y z
#
# Youngs Moduli (GPa) = 80.39428 66.44883 61.34285
#
# Poissons Ratio (x) = -0.06060 0.22908
# Poissons Ratio (y) = -0.07332 0.31475
# Poissons Ratio (z) = 0.30022 0.34094
#
# Static dielectric constant tensor:
#      x y z
#    x 1.872950 0.000000 0.000000 
#    y 0.000000 1.920250 0.000000 
#    z 0.000000 0.000000 1.869190 
# 
# From -- ./inp_files/6543.got.cif
#   From: 2010.05.17/outbox.cif.g08.bks.cpg/sg73_4_cif.got.tgz:6543.got - 2010.06.03 17:35:07.
