data_PCOD9533387
_publ_section_title
;
Structure prediction by ZEFSAII (Michael W. Deem and Ramdas Pophale) SiO2 
 PCOD9533387
Probable space group: I B C A 
;
_chemical_formula_sum "Si O2"
_cell_formula_units_Z 88
_cell_length_a 12.081264
_cell_length_b 13.665310
_cell_length_c 23.651584
_cell_angle_alpha 90.000000
_cell_angle_beta 90.000000
_cell_angle_gamma 90.000000
_cell_volume 3904.739759
_symmetry_space_group_name_H-M "I B C A "
_symmetry_group_IT_number 73
_symmetry_cell_setting 'orthorhombic'
loop_
_space_group_symop_operation_xyz
x,y,z
-x,1/2-y,z
x,-y,1/2-z
1/2-x,y,-z
-x,-y,-z
x,1/2+y,-z
-x,y,1/2+z
1/2+x,-y,z
1/2+x,1/2+y,1/2+z
1/2-x,-y,1/2+z
1/2+x,1/2-y,-z
-x,1/2+y,1/2-z
1/2-x,1/2-y,1/2-z
1/2+x,y,1/2-z
1/2-x,1/2+y,z
x,1/2-y,1/2+z
loop_
_atom_site_type_symbol
_atom_site_label
_atom_site_fract_x
_atom_site_fract_y
_atom_site_fract_z
Si Si1 0.477604 0.365079 0.454185
Si Si2 0.875471 0.948779 0.663468
Si Si3 0.952459 0.860347 0.082900
Si Si4 0.031751 0.500000 0.250000
Si Si5 0.294511 0.351182 0.366391
Si Si6 0.139392 0.134198 0.651165
O O1 0.500000 0.250000 0.462087
O O2 0.457660 0.399059 0.518390
O O3 0.360781 0.374908 0.423426
O O4 0.573298 0.389960 0.407184
O O5 0.768656 0.888352 0.647593
O O6 0.962037 0.930776 0.614022
O O7 0.827311 0.057611 0.672369
O O8 0.951296 0.925571 0.716938
O O9 0.834318 0.854166 0.115644
O O10 0.000000 0.750000 0.085042
O O11 0.094977 0.566535 0.296947
O O12 0.353218 0.252547 0.342752
#
# Coordination Sequence:
#
# PCOD9533387 Si02
#       6
#    16  16  16   8  16  16
#     4   9  21  42  76 105 148 200 241 305 391 464
#     4  12  26  46  72 108 146 191 258 316 370 463
#     4  11  23  46  72 113 153 190 246 311 383 469
#     4  12  26  50  70 104 146 196 264 314 372 446
#     4  11  23  46  74 105 148 199 243 302 388 453
#     4  11  24  50  73 104 150 199 254 315 382 450
#
# _framework density 22.536712999999999
#
# number of rings (size 3 to 8) (size 9 to 14) (size 15 to 20)
#    0.000    1.091    3.636    2.182    0.000    1.455 
#    6.545    2.727    0.000    0.000    0.000    0.000 
#    0.000    0.000    0.000    0.000    0.000    0.000 
#
# Total GULP energy -245113.129758 kJ/mol
# GULP energy per Si atom -5570.752949 kJ/mol
# Density = 2.248542 g / cm^3
# Si number density = 22.536713 Si / 1000 Ang^3
#
#
#
# Elastic Constant Matrix: (Units=GPa)
#
#
# Indices 1 2 3 4 5 6 
#
# 1 160.2293 17.4597 53.9877 0.0000 0.0000 0.0000
# 2 17.4597 85.8211 19.7421 0.0000 0.0000 0.0000
# 3 53.9877 19.7421 120.2566 0.0000 0.0000 0.0000
# 4 0.0000 0.0000 0.0000 33.6568 0.0000 0.0000
# 5 0.0000 0.0000 0.0000 0.0000 10.5250 0.0000
# 6 0.0000 0.0000 0.0000 0.0000 0.0000 34.3159
#
#
#
# Elastic Compliance Matrix: (Units=1/GPa)
#
#
# Indices 1 2 3 4 5 6 
#
# 1 0.007402 -0.000771 -0.003197 0.000000 0.000000 0.000000
# 2 -0.000771 0.012190 -0.001655 0.000000 0.000000 0.000000
# 3 -0.003197 -0.001655 0.010022 0.000000 0.000000 0.000000
# 4 0.000000 0.000000 0.000000 0.029712 0.000000 0.000000
# 5 0.000000 0.000000 0.000000 0.000000 0.095012 0.000000
# 6 0.000000 0.000000 0.000000 0.000000 0.000000 0.029141
#
#
# Mechanical properties :
#
#
# Convention : Reuss Voigt Hill
#
# Bulk Modulus (GPa) = 54.43829 60.96508 57.70168
# Shear Modulus (GPa) = 24.89467 34.04071 29.46769
#
# Velocity S-wave (km/s) = 3.32720 3.89067 3.61992
# Velocity P-wave (km/s) = 6.24245 6.87701 6.56740
#
# Compressibility (1/GPa) = 0.01836943
#
# Stress axis : x y z
#
# Youngs Moduli (GPa) = 135.09727 82.03665 99.77713
#
# Poissons Ratio (x) = 0.06321 0.31894
# Poissons Ratio (y) = 0.10410 0.16515
# Poissons Ratio (z) = 0.43185 0.13579
#
# Static dielectric constant tensor:
#      x y z
#    x 1.810980 0.000000 0.000000 
#    y 0.000000 1.984900 0.000000 
#    z 0.000000 0.000000 1.969520 
# 
# From -- ./inp_files/28837.got.cif
#   From: 2010.05.17/outbox.cif.g08.bks.cpg/sg73_15_cif.got.tgz:28837.got - 2010.06.03 17:35:07.
