data_PCOD9533994
_publ_section_title
;
Structure prediction by ZEFSAII (Michael W. Deem and Ramdas Pophale) SiO2 
 PCOD9533994
Probable space group: I M M A
;
_chemical_formula_sum "Si O2"
_cell_formula_units_Z 84
_cell_length_a 24.310743
_cell_length_b 20.907104
_cell_length_c 7.107114
_cell_angle_alpha 90.000000
_cell_angle_beta 90.000000
_cell_angle_gamma 90.000000
_cell_volume 3612.313162
_symmetry_space_group_name_H-M "I M M A"
_symmetry_group_IT_number 74
_symmetry_cell_setting 'orthorhombic'
loop_
_space_group_symop_operation_xyz
x,y,z
-x,1/2-y,z
x,-y,-z
-x,1/2+y,-z
-x,-y,-z
x,1/2+y,-z
-x,y,z
x,1/2-y,z
1/2+x,1/2+y,1/2+z
1/2-x,-y,1/2+z
1/2+x,1/2-y,1/2-z
1/2-x,y,1/2-z
1/2-x,1/2-y,1/2-z
1/2+x,y,1/2-z
1/2-x,1/2+y,1/2+z
1/2+x,-y,1/2+z
loop_
_atom_site_type_symbol
_atom_site_label
_atom_site_fract_x
_atom_site_fract_y
_atom_site_fract_z
Si Si1 0.185000 0.250000 0.785584
Si Si2 0.621500 0.121720 0.772601
Si Si3 0.393380 0.610962 0.686980
Si Si4 0.500000 0.120419 0.838072
Si Si5 0.185268 0.995996 0.777913
Si Si6 0.500000 0.250000 0.587556
Si Si7 0.500000 0.974990 0.712481
Si Si8 0.387148 0.750000 0.647432
O O1 0.250000 0.250000 0.750000
O O2 0.157982 0.314939 0.706343
O O3 0.164859 0.250000 0.004727
O O4 0.607288 0.116310 0.545120
O O5 0.564938 0.126649 0.888155
O O6 0.654628 0.056517 0.811915
O O7 0.342145 0.571499 0.766669
O O8 0.447165 0.569826 0.735143
O O9 0.389197 0.683492 0.754736
O O10 0.500000 0.183072 0.699062
O O11 0.500000 0.042599 0.816839
O O12 0.250000 0.998643 0.750000
O O13 0.174812 0.000000 0.000000
O O14 0.444245 0.250000 0.469032
O O15 0.500000 0.000000 0.500000
#
# Coordination Sequence:
#
# PCOD9533994 Si02
#       8
#     8  16  16   8  16   4   8   8
#     4  10  18  26  36  55  89 129 160 188 221 278
#     4  10  17  27  42  64  93 122 157 194 243 288
#     4  10  17  27  43  65  92 122 157 196 245 294
#     4  12  16  24  41  67  95 125 152 193 253 299
#     4  10  20  33  49  69  95 130 168 202 240 285
#     4  12  16  24  40  64 102 126 152 188 256 314
#     4  12  14  23  41  64  94 119 149 192 248 305
#     4  10  18  28  41  64  91 126 156 193 248 298
#
# _framework density 23.253796999999999
#
# number of rings (size 3 to 8) (size 9 to 14) (size 15 to 20)
#    0.000    1.524    7.619    1.714    0.000    0.000 
#    0.000    0.476    0.000    0.000    0.000    2.667 
#    0.000    0.000    0.000    5.524    0.000    0.000 
#
# Total GULP energy -234340.486716 kJ/mol
# GULP energy per Si atom -5579.535398 kJ/mol
# Density = 2.320087 g / cm^3
# Si number density = 23.253797 Si / 1000 Ang^3
#
#
#
# Elastic Constant Matrix: (Units=GPa)
#
#
# Indices 1 2 3 4 5 6 
#
# 1 216.3752 107.9485 16.5263 0.0000 0.0000 0.0000
# 2 107.9485 268.4484 27.5365 0.0000 0.0000 0.0000
# 3 16.5263 27.5365 86.8962 0.0000 0.0000 0.0000
# 4 0.0000 0.0000 0.0000 -9.3138 0.0000 0.0000
# 5 0.0000 0.0000 0.0000 0.0000 11.8502 0.0000
# 6 0.0000 0.0000 0.0000 0.0000 0.0000 47.7295
#
#
#
# Elastic Compliance Matrix: (Units=1/GPa)
#
#
# Indices 1 2 3 4 5 6 
#
# 1 0.005793 -0.002291 -0.000376 0.000000 0.000000 0.000000
# 2 -0.002291 0.004756 -0.001071 0.000000 0.000000 0.000000
# 3 -0.000376 -0.001071 0.011919 0.000000 0.000000 0.000000
# 4 0.000000 0.000000 0.000000 -0.107368 0.000000 0.000000
# 5 0.000000 0.000000 0.000000 0.000000 0.084387 0.000000
# 6 0.000000 0.000000 0.000000 0.000000 0.000000 0.020951
#
#
# Mechanical properties :
#
#
# Convention : Reuss Voigt Hill
#
# Bulk Modulus (GPa) = 66.70262 97.30474 82.00368
# Shear Modulus (GPa) = 151.91580 38.03373 94.97477
#
# Velocity S-wave (km/s) = 8.09143 4.04863 6.39776
# Velocity P-wave (km/s) = 10.77228 7.98691 9.48242
#
# Compressibility (1/GPa) = 0.01499191
#
# Stress axis : x y z
#
# Youngs Moduli (GPa) = 172.61314 210.24739 83.89969
#
# Poissons Ratio (x) = 0.48169 0.03153
# Poissons Ratio (y) = 0.39547 0.08990
# Poissons Ratio (z) = 0.06487 0.22528
#
# Static dielectric constant tensor:
#      x y z
#    x 1.784490 0.000000 0.000000 
#    y 0.000000 1.831960 0.000000 
#    z 0.000000 0.000000 2.020010 
# 
# From -- ./inp_files/23892.got.cif
#   From: 2010.05.17/outbox.cif.g08.bks.cpg/sg74_12_cif.got.tgz:23892.got - 2010.06.03 17:57:02.
