data_PCOD9533261
_publ_section_title
;
Structure prediction by ZEFSAII (Michael W. Deem and Ramdas Pophale) SiO2 
 PCOD9533261
Probable space group: I B C A 
;
_chemical_formula_sum "Si O2"
_cell_formula_units_Z 72
_cell_length_a 13.271477
_cell_length_b 13.368572
_cell_length_c 19.516800
_cell_angle_alpha 90.000000
_cell_angle_beta 90.000000
_cell_angle_gamma 90.000000
_cell_volume 3462.684236
_symmetry_space_group_name_H-M "I B C A "
_symmetry_group_IT_number 73
_symmetry_cell_setting 'orthorhombic'
loop_
_space_group_symop_operation_xyz
x,y,z
-x,1/2-y,z
x,-y,1/2-z
1/2-x,y,-z
-x,-y,-z
x,1/2+y,-z
-x,y,1/2+z
1/2+x,-y,z
1/2+x,1/2+y,1/2+z
1/2-x,-y,1/2+z
1/2+x,1/2-y,-z
-x,1/2+y,1/2-z
1/2-x,1/2-y,1/2-z
1/2+x,y,1/2-z
1/2-x,1/2+y,z
x,1/2-y,1/2+z
loop_
_atom_site_type_symbol
_atom_site_label
_atom_site_fract_x
_atom_site_fract_y
_atom_site_fract_z
Si Si1 0.415117 0.103523 0.717307
Si Si2 0.889860 0.751521 0.848865
Si Si3 0.804583 0.962160 0.325717
Si Si4 0.000000 0.250000 0.891400
Si Si5 0.796694 0.647443 0.573323
O O1 0.397030 0.183186 0.778720
O O2 0.311463 0.073210 0.679795
O O3 0.479988 0.157236 0.659739
O O4 0.453098 0.000000 0.750000
O O5 0.869042 0.635920 0.836469
O O6 0.794033 0.794539 0.888593
O O7 0.000000 0.750000 0.883362
O O8 0.826423 0.000000 0.250000
O O9 0.817407 0.048017 0.382020
O O10 0.102433 0.216588 0.930340
O O11 0.750000 0.620753 0.500000
#
# Coordination Sequence:
#
# PCOD9533261 Si02
#       5
#    16  16  16   8  16
#     4  11  22  41  75 112 141 185 243 307 364 418
#     4  12  25  43  73 106 146 188 240 304 365 422
#     4  11  23  45  73 104 149 186 246 303 354 431
#     4  12  26  46  76 104 148 192 244 304 364 428
#     4  12  29  49  70 107 147 198 240 293 367 439
#
# _framework density 20.793116999999999
#
# number of rings (size 3 to 8) (size 9 to 14) (size 15 to 20)
#    0.000    0.444    7.778    2.000    4.667    0.889 
#    0.000    2.222    0.000    0.000    0.000    0.000 
#    0.000    0.000    0.000    0.000    0.000    0.000 
#
# Total GULP energy -201192.938996 kJ/mol
# GULP energy per Si atom -5588.692750 kJ/mol
# Density = 2.074579 g / cm^3
# Si number density = 20.793117 Si / 1000 Ang^3
#
#
#
# Elastic Constant Matrix: (Units=GPa)
#
#
# Indices 1 2 3 4 5 6 
#
# 1 131.3481 53.5607 32.3784 0.0000 0.0000 0.0000
# 2 53.5607 166.2145 58.3611 0.0000 0.0000 0.0000
# 3 32.3784 58.3611 110.5163 0.0000 0.0000 0.0000
# 4 0.0000 0.0000 0.0000 95.2747 0.0000 0.0000
# 5 0.0000 0.0000 0.0000 0.0000 3.9634 0.0000
# 6 0.0000 0.0000 0.0000 0.0000 0.0000 45.0072
#
#
#
# Elastic Compliance Matrix: (Units=1/GPa)
#
#
# Indices 1 2 3 4 5 6 
#
# 1 0.008925 -0.002404 -0.001346 0.000000 0.000000 0.000000
# 2 -0.002404 0.008033 -0.003538 0.000000 0.000000 0.000000
# 3 -0.001346 -0.003538 0.011311 0.000000 0.000000 0.000000
# 4 0.000000 0.000000 0.000000 0.010496 0.000000 0.000000
# 5 0.000000 0.000000 0.000000 0.000000 0.252306 0.000000
# 6 0.000000 0.000000 0.000000 0.000000 0.000000 0.022219
#
#
# Mechanical properties :
#
#
# Convention : Reuss Voigt Hill
#
# Bulk Modulus (GPa) = 73.01880 77.40878 75.21379
# Shear Modulus (GPa) = 15.04079 46.43432 30.73755
#
# Velocity S-wave (km/s) = 2.69244 4.73076 3.84898
# Velocity P-wave (km/s) = 6.69766 8.19445 7.48357
#
# Compressibility (1/GPa) = 0.01369510
#
# Stress axis : x y z
#
# Youngs Moduli (GPa) = 112.04261 124.48540 88.41000
#
# Poissons Ratio (x) = 0.29921 0.11896
# Poissons Ratio (y) = 0.26930 0.31279
# Poissons Ratio (z) = 0.15076 0.44042
#
# Static dielectric constant tensor:
#      x y z
#    x 1.845800 0.000000 0.000000 
#    y 0.000000 1.751790 0.000000 
#    z 0.000000 0.000000 1.743650 
# 
# From -- ./inp_files/25861.got.cif
#   From: 2010.05.17/outbox.cif.g08.bks.cpg/sg73_13_cif.got.tgz:25861.got - 2010.06.03 17:35:07.
