data_PCOD9533903
_publ_section_title
;
Structure prediction by ZEFSAII (Michael W. Deem and Ramdas Pophale) SiO2 
 PCOD9533903
Probable space group: I M M A
;
_chemical_formula_sum "Si O2"
_cell_formula_units_Z 80
_cell_length_a 20.137984
_cell_length_b 15.993952
_cell_length_c 15.522602
_cell_angle_alpha 90.000000
_cell_angle_beta 90.000000
_cell_angle_gamma 90.000000
_cell_volume 4999.612003
_symmetry_space_group_name_H-M "I M M A"
_symmetry_group_IT_number 74
_symmetry_cell_setting 'orthorhombic'
loop_
_space_group_symop_operation_xyz
x,y,z
-x,1/2-y,z
x,-y,-z
-x,1/2+y,-z
-x,-y,-z
x,1/2+y,-z
-x,y,z
x,1/2-y,z
1/2+x,1/2+y,1/2+z
1/2-x,-y,1/2+z
1/2+x,1/2-y,1/2-z
1/2-x,y,1/2-z
1/2-x,1/2-y,1/2-z
1/2+x,y,1/2-z
1/2-x,1/2+y,1/2+z
1/2+x,-y,1/2+z
loop_
_atom_site_type_symbol
_atom_site_label
_atom_site_fract_x
_atom_site_fract_y
_atom_site_fract_z
Si Si1 0.425764 0.591390 0.108917
Si Si2 0.647044 0.750000 0.807246
Si Si3 0.701234 0.750000 0.619691
Si Si4 0.382141 0.904498 0.917999
Si Si5 0.265935 0.090897 0.485884
Si Si6 0.289800 0.150447 0.831396
O O1 0.500000 0.614696 0.134020
O O2 0.417593 0.490897 0.105349
O O3 0.366478 0.624188 0.167534
O O4 0.410551 0.622495 0.011212
O O5 0.655330 0.750000 0.704421
O O6 0.722236 0.750000 0.846212
O O7 0.613189 0.667681 0.847318
O O8 0.695652 0.665216 0.563197
O O9 0.303691 0.923374 0.934075
O O10 0.243461 0.122291 0.579583
O O11 0.298416 0.000000 0.500000
O O12 0.286991 0.250000 0.829165
O O13 0.250000 0.115375 0.750000
#
# Coordination Sequence:
#
# PCOD9533903 Si02
#       6
#    16   8   8  16  16  16
#     4  10  19  32  48  70 102 136 171 202 238 310
#     4   9  18  28  43  68 101 134 171 212 249 298
#     4   9  18  28  43  68 101 132 175 220 251 307
#     4   9  16  29  45  68 100 135 165 195 242 295
#     4  10  16  29  47  67  97 138 169 207 257 313
#     4  10  20  33  48  68  99 136 169 217 257 296
#
# _framework density 16.001242000000001
#
# number of rings (size 3 to 8) (size 9 to 14) (size 15 to 20)
#    0.000    2.400    5.000    1.200    4.200    2.000 
#    0.000    1.500    0.000    0.000    0.000    0.000 
#    0.000   12.000    0.000    0.000    0.000    0.000 
#
# Total GULP energy -222817.253560 kJ/mol
# GULP energy per Si atom -5570.431339 kJ/mol
# Density = 1.596482 g / cm^3
# Si number density = 16.001242 Si / 1000 Ang^3
#
#
#
# Elastic Constant Matrix: (Units=GPa)
#
#
# Indices 1 2 3 4 5 6 
#
# 1 52.3590 27.0060 42.3778 0.0000 0.0000 0.0000
# 2 27.0060 87.8744 50.2437 0.0000 0.0000 0.0000
# 3 42.3778 50.2437 87.1061 0.0000 0.0000 0.0000
# 4 0.0000 0.0000 0.0000 9.8087 0.0000 0.0000
# 5 0.0000 0.0000 0.0000 0.0000 12.5636 0.0000
# 6 0.0000 0.0000 0.0000 0.0000 0.0000 3.4775
#
#
#
# Elastic Compliance Matrix: (Units=1/GPa)
#
#
# Indices 1 2 3 4 5 6 
#
# 1 0.031615 -0.001375 -0.014588 0.000000 0.000000 0.000000
# 2 -0.001375 0.017040 -0.009160 0.000000 0.000000 0.000000
# 3 -0.014588 -0.009160 0.023861 0.000000 0.000000 0.000000
# 4 0.000000 0.000000 0.000000 0.101950 0.000000 0.000000
# 5 0.000000 0.000000 0.000000 0.000000 0.079595 0.000000
# 6 0.000000 0.000000 0.000000 0.000000 0.000000 0.287559
#
#
# Mechanical properties :
#
#
# Convention : Reuss Voigt Hill
#
# Bulk Modulus (GPa) = 44.90299 51.84384 48.37342
# Shear Modulus (GPa) = 8.34323 12.35076 10.34699
#
# Velocity S-wave (km/s) = 2.28592 2.78126 2.54566
# Velocity P-wave (km/s) = 5.92371 6.54095 6.23997
#
# Compressibility (1/GPa) = 0.02227023
#
# Stress axis : x y z
#
# Youngs Moduli (GPa) = 31.63046 58.68653 41.91020
#
# Poissons Ratio (x) = 0.08072 0.61137
# Poissons Ratio (y) = 0.04350 0.38388
# Poissons Ratio (z) = 0.46141 0.53754
#
# Static dielectric constant tensor:
#      x y z
#    x 1.519900 0.000000 0.000000 
#    y 0.000000 1.568970 0.000000 
#    z 0.000000 0.000000 1.536680 
# 
# From -- ./inp_files/45222.got.cif
#   From: 2010.05.17/outbox.cif.g08.bks.cpg/sg74_23_cif.got.tgz:45222.got - 2010.06.03 17:57:02.
