data_PCOD9533851
_publ_section_title
;
Structure prediction by ZEFSAII (Michael W. Deem and Ramdas Pophale) SiO2 
 PCOD9533851
Probable space group: I M M A
;
_chemical_formula_sum "Si O2"
_cell_formula_units_Z 96
_cell_length_a 19.492897
_cell_length_b 28.175193
_cell_length_c 7.479641
_cell_angle_alpha 90.000000
_cell_angle_beta 90.000000
_cell_angle_gamma 90.000000
_cell_volume 4107.939522
_symmetry_space_group_name_H-M "I M M A"
_symmetry_group_IT_number 74
_symmetry_cell_setting 'orthorhombic'
loop_
_space_group_symop_operation_xyz
x,y,z
-x,1/2-y,z
x,-y,-z
-x,1/2+y,-z
-x,-y,-z
x,1/2+y,-z
-x,y,z
x,1/2-y,z
1/2+x,1/2+y,1/2+z
1/2-x,-y,1/2+z
1/2+x,1/2-y,1/2-z
1/2-x,y,1/2-z
1/2-x,1/2-y,1/2-z
1/2+x,y,1/2-z
1/2-x,1/2+y,1/2+z
1/2+x,-y,1/2+z
loop_
_atom_site_type_symbol
_atom_site_label
_atom_site_fract_x
_atom_site_fract_y
_atom_site_fract_z
Si Si1 0.202468 0.250000 0.926026
Si Si2 0.422665 0.900045 0.362932
Si Si3 0.575936 0.347777 0.021894
Si Si4 0.830194 0.977934 0.265517
Si Si5 0.416370 0.250000 0.845728
Si Si6 0.675034 0.578229 0.869879
Si Si7 0.783172 0.353893 0.952477
O O1 0.250000 0.250000 0.750000
O O2 0.125604 0.250000 0.839919
O O3 0.218785 0.200244 0.019460
O O4 0.500000 0.900091 0.437199
O O5 0.428059 0.877412 0.163312
O O6 0.387569 0.951776 0.350753
O O7 0.362384 0.868412 0.445399
O O8 0.500000 0.340581 0.094543
O O9 0.603326 0.296755 0.958570
O O10 0.620481 0.380019 0.151674
O O11 0.750000 0.963815 0.250000
O O12 0.845051 0.954333 0.458563
O O13 0.826875 0.034524 0.232539
O O14 0.500000 0.250000 0.820149
O O15 0.742029 0.607784 0.930960
O O16 0.750000 0.355132 0.750000
#
# Coordination Sequence:
#
# PCOD9533851 Si02
#       7
#     8  16  16  16   8  16  16
#     4  10  18  22  40  60  84 117 145 169 203 258
#     4  10  17  27  43  62  90 116 140 178 216 262
#     4   9  16  25  38  62  91 116 140 169 208 261
#     4  10  18  31  46  62  81 114 152 181 223 268
#     4  10  16  24  38  60  92 123 140 161 217 272
#     4  10  18  28  46  61  84 117 146 185 218 257
#     4  11  16  29  41  62  90 115 147 175 211 261
#
# _framework density 23.369381000000001
#
# number of rings (size 3 to 8) (size 9 to 14) (size 15 to 20)
#    0.000    2.000    6.667    1.000    0.000    0.667 
#    0.000    3.333    0.000    2.000    0.000    2.333 
#    0.000    0.000    0.000    0.167    0.000    0.000 
#
# Total GULP energy -267541.015821 kJ/mol
# GULP energy per Si atom -5573.771163 kJ/mol
# Density = 2.331619 g / cm^3
# Si number density = 23.369381 Si / 1000 Ang^3
#
#
#
# Elastic Constant Matrix: (Units=GPa)
#
#
# Indices 1 2 3 4 5 6 
#
# 1 139.6100 64.1177 14.0641 0.0000 0.0000 0.0000
# 2 64.1177 241.0064 14.8945 0.0000 0.0000 0.0000
# 3 14.0641 14.8945 47.5453 0.0000 0.0000 0.0000
# 4 0.0000 0.0000 0.0000 5.7000 0.0000 0.0000
# 5 0.0000 0.0000 0.0000 0.0000 0.6413 0.0000
# 6 0.0000 0.0000 0.0000 0.0000 0.0000 39.2378
#
#
#
# Elastic Compliance Matrix: (Units=1/GPa)
#
#
# Indices 1 2 3 4 5 6 
#
# 1 0.008308 -0.002099 -0.001800 0.000000 0.000000 0.000000
# 2 -0.002099 0.004762 -0.000871 0.000000 0.000000 0.000000
# 3 -0.001800 -0.000871 0.021838 0.000000 0.000000 0.000000
# 4 0.000000 0.000000 0.000000 0.175437 0.000000 0.000000
# 5 0.000000 0.000000 0.000000 0.000000 1.559268 0.000000
# 6 0.000000 0.000000 0.000000 0.000000 0.000000 0.025486
#
#
# Mechanical properties :
#
#
# Convention : Reuss Voigt Hill
#
# Bulk Modulus (GPa) = 39.41995 68.25713 53.83854
# Shear Modulus (GPa) = 2.75772 31.45486 17.10629
#
# Velocity S-wave (km/s) = 1.08748 3.67275 2.70848
# Velocity P-wave (km/s) = 4.29903 6.87436 5.73317
#
# Compressibility (1/GPa) = 0.02536786
#
# Stress axis : x y z
#
# Youngs Moduli (GPa) = 120.36349 210.01700 45.79217
#
# Poissons Ratio (x) = 0.44084 0.08243
# Poissons Ratio (y) = 0.25265 0.03987
# Poissons Ratio (z) = 0.21666 0.18287
#
# Static dielectric constant tensor:
#      x y z
#    x 1.942540 0.000000 0.000000 
#    y 0.000000 1.925550 0.000000 
#    z 0.000000 0.000000 2.255760 
# 
# From -- ./inp_files/24310.got.cif
#   From: 2010.05.17/outbox.cif.g08.bks.cpg/sg74_13_cif.got.tgz:24310.got - 2010.06.03 17:57:02.
