data_PCOD9533830
_publ_section_title
;
Structure prediction by ZEFSAII (Michael W. Deem and Ramdas Pophale) SiO2 
 PCOD9533830
Probable space group: I M M A
;
_chemical_formula_sum "Si O2"
_cell_formula_units_Z 84
_cell_length_a 31.769929
_cell_length_b 15.368555
_cell_length_c 7.067747
_cell_angle_alpha 90.000000
_cell_angle_beta 90.000000
_cell_angle_gamma 90.000000
_cell_volume 3450.883316
_symmetry_space_group_name_H-M "I M M A"
_symmetry_group_IT_number 74
_symmetry_cell_setting 'orthorhombic'
loop_
_space_group_symop_operation_xyz
x,y,z
-x,1/2-y,z
x,-y,-z
-x,1/2+y,-z
-x,-y,-z
x,1/2+y,-z
-x,y,z
x,1/2-y,z
1/2+x,1/2+y,1/2+z
1/2-x,-y,1/2+z
1/2+x,1/2-y,1/2-z
1/2-x,y,1/2-z
1/2-x,1/2-y,1/2-z
1/2+x,y,1/2-z
1/2-x,1/2+y,1/2+z
1/2+x,-y,1/2+z
loop_
_atom_site_type_symbol
_atom_site_label
_atom_site_fract_x
_atom_site_fract_y
_atom_site_fract_z
Si Si1 0.000000 0.750000 0.877568
Si Si2 0.559095 0.404488 0.242028
Si Si3 0.046018 0.605421 0.287622
Si Si4 0.651440 0.651117 0.782913
Si Si5 0.359764 0.844996 0.240152
Si Si6 0.798387 0.494703 0.723755
O O1 0.035943 0.827901 0.851804
O O2 0.546058 0.504355 0.273684
O O3 0.608529 0.395706 0.278123
O O4 0.549356 0.390006 0.017380
O O5 0.090412 0.644181 0.221634
O O6 0.000000 0.645098 0.237447
O O7 0.653363 0.750000 0.720079
O O8 0.690219 0.592538 0.716669
O O9 0.646451 0.654267 0.011700
O O10 0.345802 0.750000 0.305368
O O11 0.330984 0.924714 0.305800
O O12 0.806052 0.500000 0.500000
O O13 0.750000 0.470972 0.750000
#
# Coordination Sequence:
#
# PCOD9533830 Si02
#       6
#     4  16  16  16  16  16
#     4  12  16  18  32  56  80 124 168 182 214 280
#     4  10  16  21  31  53  83 120 158 183 218 272
#     4  10  16  23  33  53  87 123 156 187 220 273
#     4   9  16  27  43  62  89 121 155 188 233 283
#     4   9  18  28  43  63  89 125 159 192 235 285
#     4  10  20  35  52  70  94 123 158 201 245 286
#
# _framework density 24.341591999999999
#
# number of rings (size 3 to 8) (size 9 to 14) (size 15 to 20)
#    0.000    2.286    4.762    0.571    1.333    1.143 
#    0.000    0.000    0.000    0.000    0.000    0.000 
#    0.000    0.762    0.000    0.762    0.000    2.857 
#
# Total GULP energy -234301.441876 kJ/mol
# GULP energy per Si atom -5578.605759 kJ/mol
# Density = 2.428619 g / cm^3
# Si number density = 24.341592 Si / 1000 Ang^3
#
#
#
# Elastic Constant Matrix: (Units=GPa)
#
#
# Indices 1 2 3 4 5 6 
#
# 1 150.1158 75.4787 -7.0414 0.0000 0.0000 0.0000
# 2 75.4787 145.7097 -10.7468 0.0000 0.0000 0.0000
# 3 -7.0414 -10.7468 112.6752 0.0000 0.0000 0.0000
# 4 0.0000 0.0000 0.0000 -29.0803 0.0000 0.0000
# 5 0.0000 0.0000 0.0000 0.0000 10.8399 0.0000
# 6 0.0000 0.0000 0.0000 0.0000 0.0000 22.1490
#
#
#
# Elastic Compliance Matrix: (Units=1/GPa)
#
#
# Indices 1 2 3 4 5 6 
#
# 1 0.009009 -0.004658 0.000119 0.000000 0.000000 0.000000
# 2 -0.004658 0.009320 0.000598 0.000000 0.000000 0.000000
# 3 0.000119 0.000598 0.008940 0.000000 0.000000 0.000000
# 4 0.000000 0.000000 0.000000 -0.034388 0.000000 0.000000
# 5 0.000000 0.000000 0.000000 0.000000 0.092252 0.000000
# 6 0.000000 0.000000 0.000000 0.000000 0.000000 0.045149
#
#
# Mechanical properties :
#
#
# Convention : Reuss Voigt Hill
#
# Bulk Modulus (GPa) = 51.58456 58.20907 54.89682
# Shear Modulus (GPa) = 34.57178 24.16907 29.37043
#
# Velocity S-wave (km/s) = 3.77274 3.15447 3.47738
# Velocity P-wave (km/s) = 6.34161 6.10188 6.22290
#
# Compressibility (1/GPa) = 0.01938565
#
# Stress axis : x y z
#
# Youngs Moduli (GPa) = 110.99787 107.29648 111.86296
#
# Poissons Ratio (x) = 0.49979 -0.01328
# Poissons Ratio (y) = 0.51704 -0.06687
# Poissons Ratio (z) = -0.01318 -0.06414
#
# Static dielectric constant tensor:
#      x y z
#    x 1.899690 0.000000 0.000000 
#    y 0.000000 1.884160 0.000000 
#    z 0.000000 0.000000 2.064440 
# 
# From -- ./inp_files/21019.got.cif
#   From: 2010.05.17/outbox.cif.g08.bks.cpg/sg74_11_cif.got.tgz:21019.got - 2010.06.03 17:57:02.
