data_PCOD9533175
_publ_section_title
;
Structure prediction by ZEFSAII (Michael W. Deem and Ramdas Pophale) SiO2 
 PCOD9533175
Probable space group: I B C A 
;
_chemical_formula_sum "Si O2"
_cell_formula_units_Z 72
_cell_length_a 13.556647
_cell_length_b 18.327797
_cell_length_c 15.188020
_cell_angle_alpha 90.000000
_cell_angle_beta 90.000000
_cell_angle_gamma 90.000000
_cell_volume 3773.668216
_symmetry_space_group_name_H-M "I B C A "
_symmetry_group_IT_number 73
_symmetry_cell_setting 'orthorhombic'
loop_
_space_group_symop_operation_xyz
x,y,z
-x,1/2-y,z
x,-y,1/2-z
1/2-x,y,-z
-x,-y,-z
x,1/2+y,-z
-x,y,1/2+z
1/2+x,-y,z
1/2+x,1/2+y,1/2+z
1/2-x,-y,1/2+z
1/2+x,1/2-y,-z
-x,1/2+y,1/2-z
1/2-x,1/2-y,1/2-z
1/2+x,y,1/2-z
1/2-x,1/2+y,z
x,1/2-y,1/2+z
loop_
_atom_site_type_symbol
_atom_site_label
_atom_site_fract_x
_atom_site_fract_y
_atom_site_fract_z
Si Si1 0.035944 0.081330 0.474358
Si Si2 0.250000 0.963132 0.000000
Si Si3 0.961905 0.167074 0.633588
Si Si4 0.217478 0.060590 0.173946
Si Si5 0.558374 0.418623 0.213713
O O1 0.150547 0.084280 0.502115
O O2 0.977346 0.136487 0.535734
O O3 0.009431 0.092856 0.372292
O O4 0.000000 0.000000 0.500000
O O5 0.229734 0.014389 0.084132
O O6 0.857917 0.128446 0.663673
O O7 0.000000 0.250000 0.632324
O O8 0.033533 0.131977 0.705394
O O9 0.326965 0.089490 0.191650
O O10 0.191399 0.000000 0.250000
O O11 0.543503 0.500000 0.250000
#
# Coordination Sequence:
#
# PCOD9533175 Si02
#       5
#    16   8  16  16  16
#     4  12  21  40  67  93 122 161 211 255 304 366
#     4  12  20  36  68  98 116 156 218 262 296 364
#     4  12  26  41  58  92 133 163 201 258 315 370
#     4  11  21  37  66  92 116 164 212 254 312 368
#     4  11  21  40  67  94 120 161 216 261 302 371
#
# _framework density 19.079578000000001
#
# number of rings (size 3 to 8) (size 9 to 14) (size 15 to 20)
#    0.000    0.444    6.667    3.333    0.000    1.778 
#    0.000    3.333    0.000    0.000    0.000    0.000 
#    0.000    0.000    0.000    0.000    0.000    0.000 
#
# Total GULP energy -200779.199221 kJ/mol
# GULP energy per Si atom -5577.199978 kJ/mol
# Density = 1.903615 g / cm^3
# Si number density = 19.079578 Si / 1000 Ang^3
#
#
#
# Elastic Constant Matrix: (Units=GPa)
#
#
# Indices 1 2 3 4 5 6 
#
# 1 114.8253 22.6225 17.7583 0.0000 0.0000 0.0000
# 2 22.6225 118.3132 47.1558 0.0000 0.0000 0.0000
# 3 17.7583 47.1558 125.4184 0.0000 0.0000 0.0000
# 4 0.0000 0.0000 0.0000 24.7997 0.0000 0.0000
# 5 0.0000 0.0000 0.0000 0.0000 32.0270 0.0000
# 6 0.0000 0.0000 0.0000 0.0000 0.0000 -19.2731
#
#
#
# Elastic Compliance Matrix: (Units=1/GPa)
#
#
# Indices 1 2 3 4 5 6 
#
# 1 0.009109 -0.001444 -0.000747 0.000000 0.000000 0.000000
# 2 -0.001444 0.010171 -0.003620 0.000000 0.000000 0.000000
# 3 -0.000747 -0.003620 0.009440 0.000000 0.000000 0.000000
# 4 0.000000 0.000000 0.000000 0.040323 0.000000 0.000000
# 5 0.000000 0.000000 0.000000 0.000000 0.031224 0.000000
# 6 0.000000 0.000000 0.000000 0.000000 0.000000 -0.051886
#
#
# Mechanical properties :
#
#
# Convention : Reuss Voigt Hill
#
# Bulk Modulus (GPa) = 58.48374 59.29222 58.88798
# Shear Modulus (GPa) = 76.10184 25.57875 50.84029
#
# Velocity S-wave (km/s) = 6.32243 3.66544 5.16762
# Velocity P-wave (km/s) = 9.16606 7.00412 8.15703
#
# Compressibility (1/GPa) = 0.01709877
#
# Stress axis : x y z
#
# Youngs Moduli (GPa) = 109.78300 98.31924 105.93202
#
# Poissons Ratio (x) = 0.14198 0.07911
# Poissons Ratio (y) = 0.15853 0.38344
# Poissons Ratio (z) = 0.08199 0.35589
#
# Static dielectric constant tensor:
#      x y z
#    x 1.739570 0.000000 0.000000 
#    y 0.000000 1.676030 0.000000 
#    z 0.000000 0.000000 1.675030 
# 
# From -- ./inp_files/16781.got.cif
#   From: 2010.05.17/outbox.cif.g08.bks.cpg/sg73_9_cif.got.tgz:16781.got - 2010.06.03 17:35:07.
