data_PCOD9533901
_publ_section_title
;
Structure prediction by ZEFSAII (Michael W. Deem and Ramdas Pophale) SiO2 
 PCOD9533901
Probable space group: I M M A
;
_chemical_formula_sum "Si O2"
_cell_formula_units_Z 64
_cell_length_a 15.017100
_cell_length_b 25.144919
_cell_length_c 8.789402
_cell_angle_alpha 90.000000
_cell_angle_beta 90.000000
_cell_angle_gamma 90.000000
_cell_volume 3318.911271
_symmetry_space_group_name_H-M "I M M A"
_symmetry_group_IT_number 74
_symmetry_cell_setting 'orthorhombic'
loop_
_space_group_symop_operation_xyz
x,y,z
-x,1/2-y,z
x,-y,-z
-x,1/2+y,-z
-x,-y,-z
x,1/2+y,-z
-x,y,z
x,1/2-y,z
1/2+x,1/2+y,1/2+z
1/2-x,-y,1/2+z
1/2+x,1/2-y,1/2-z
1/2-x,y,1/2-z
1/2-x,1/2-y,1/2-z
1/2+x,y,1/2-z
1/2-x,1/2+y,1/2+z
1/2+x,-y,1/2+z
loop_
_atom_site_type_symbol
_atom_site_label
_atom_site_fract_x
_atom_site_fract_y
_atom_site_fract_z
Si Si1 0.894210 0.632917 0.942222
Si Si2 0.401547 0.750000 0.528534
Si Si3 0.894687 0.138004 0.423097
Si Si4 0.255454 0.941505 0.069579
Si Si5 0.839901 0.750000 0.647783
O O1 0.882981 0.630156 0.759330
O O2 0.000000 0.628396 0.973265
O O3 0.862553 0.691504 0.001242
O O4 0.834005 0.587586 0.012630
O O5 0.500000 0.750000 0.459753
O O6 0.409710 0.750000 0.712877
O O7 0.837753 0.094670 0.512615
O O8 0.855142 0.197028 0.447774
O O9 0.000000 0.136257 0.457061
O O10 0.250000 0.944912 0.250000
O O11 0.263118 0.000000 0.000000
O O12 0.750000 0.750000 0.750000
#
# Coordination Sequence:
#
# PCOD9533901 Si02
#       5
#    16   8  16  16   8
#     4   9  18  36  63  91 118 150 190 238 291 350
#     4   8  14  28  54  87 117 145 180 220 271 340
#     4  10  20  37  62  91 122 156 195 240 292 352
#     4  12  26  42  59  80 112 154 203 254 302 358
#     4  10  16  28  58  93 125 153 186 230 279 342
#
# _framework density 19.283432000000001
#
# number of rings (size 3 to 8) (size 9 to 14) (size 15 to 20)
#    0.000    2.000    0.000    7.875    0.000    2.000 
#    0.000    2.500    0.000    3.000    0.000    0.000 
#    0.000    0.000    0.000    0.000    0.000    0.000 
#
# Total GULP energy -178479.854756 kJ/mol
# GULP energy per Si atom -5577.495461 kJ/mol
# Density = 1.923954 g / cm^3
# Si number density = 19.283432 Si / 1000 Ang^3
#
#
#
# Elastic Constant Matrix: (Units=GPa)
#
#
# Indices 1 2 3 4 5 6 
#
# 1 139.1646 88.3465 58.7118 0.0002 0.0000 0.0000
# 2 88.3465 217.4153 74.0465 0.0003 -0.0001 0.0000
# 3 58.7118 74.0465 74.2157 0.0020 -0.0006 0.0004
# 4 0.0002 0.0003 0.0020 30.3706 0.0000 0.0000
# 5 0.0000 -0.0001 -0.0006 0.0000 25.9535 0.0000
# 6 0.0000 0.0000 0.0004 0.0000 0.0000 11.9822
#
#
#
# Elastic Compliance Matrix: (Units=1/GPa)
#
#
# Indices 1 2 3 4 5 6 
#
# 1 0.011555 -0.002396 -0.006750 0.000000 0.000000 0.000000
# 2 -0.002396 0.007464 -0.005551 0.000000 0.000000 0.000000
# 3 -0.006750 -0.005551 0.024353 -0.000001 0.000001 -0.000001
# 4 0.000000 0.000000 -0.000001 0.032927 0.000000 0.000000
# 5 0.000000 0.000000 0.000001 0.000000 0.038530 0.000000
# 6 0.000000 0.000000 -0.000001 0.000000 0.000000 0.083457
#
#
# Mechanical properties :
#
#
# Convention : Reuss Voigt Hill
#
# Bulk Modulus (GPa) = 71.54997 97.00058 84.27528
# Shear Modulus (GPa) = 21.52027 27.64064 24.58045
#
# Velocity S-wave (km/s) = 3.34428 3.79012 3.57416
# Velocity P-wave (km/s) = 7.21784 8.34057 7.79943
#
# Compressibility (1/GPa) = 0.01397625
#
# Stress axis : x y z
#
# Youngs Moduli (GPa) = 86.54411 133.97991 41.06345
#
# Poissons Ratio (x) = 0.32107 0.27718
# Poissons Ratio (y) = 0.20739 0.22794
# Poissons Ratio (z) = 0.58418 0.74373
#
# Static dielectric constant tensor:
#      x y z
#    x 1.723740 0.000000 0.000000 
#    y 0.000000 1.703180 0.000000 
#    z 0.000000 0.000000 1.650430 
# 
# From -- ./inp_files/8882.got.cif
#   From: 2010.05.17/outbox.cif.g08.bks.cpg/sg74_5_cif.got.tgz:8882.got - 2010.06.03 17:57:02.
