data_PCOD9533391
_publ_section_title
;
Structure prediction by ZEFSAII (Michael W. Deem and Ramdas Pophale) SiO2 
 PCOD9533391
Probable space group: I B C A 
;
_chemical_formula_sum "Si O2"
_cell_formula_units_Z 64
_cell_length_a 13.013466
_cell_length_b 15.661339
_cell_length_c 14.838119
_cell_angle_alpha 90.000000
_cell_angle_beta 90.000000
_cell_angle_gamma 90.000000
_cell_volume 3024.131847
_symmetry_space_group_name_H-M "I B C A "
_symmetry_group_IT_number 73
_symmetry_cell_setting 'orthorhombic'
loop_
_space_group_symop_operation_xyz
x,y,z
-x,1/2-y,z
x,-y,1/2-z
1/2-x,y,-z
-x,-y,-z
x,1/2+y,-z
-x,y,1/2+z
1/2+x,-y,z
1/2+x,1/2+y,1/2+z
1/2-x,-y,1/2+z
1/2+x,1/2-y,-z
-x,1/2+y,1/2-z
1/2-x,1/2-y,1/2-z
1/2+x,y,1/2-z
1/2-x,1/2+y,z
x,1/2-y,1/2+z
loop_
_atom_site_type_symbol
_atom_site_label
_atom_site_fract_x
_atom_site_fract_y
_atom_site_fract_z
Si Si1 0.750000 0.043802 0.500000
Si Si2 0.903798 0.192147 0.786902
Si Si3 0.442976 0.468654 0.090136
Si Si4 0.280614 0.855343 0.328782
Si Si5 0.917574 0.500000 0.750000
O O1 0.698856 0.105353 0.573183
O O2 0.826116 0.989708 0.562786
O O3 0.940044 0.125545 0.863807
O O4 0.836593 0.147577 0.707773
O O5 0.824039 0.260212 0.827758
O O6 0.000000 0.250000 0.755494
O O7 0.506867 0.517487 0.167004
O O8 0.500000 0.500000 0.000000
O O9 0.345116 0.918470 0.264746
#
# Coordination Sequence:
#
# PCOD9533391 Si02
#       5
#     8  16  16  16   8
#     4  12  24  46  66 112 134 194 252 298 362 456
#     4  11  23  47  69 106 146 191 238 305 370 434
#     4  12  25  44  73 101 144 189 249 298 365 452
#     4  11  25  43  72 103 148 186 246 300 374 441
#     4  12  22  48  70 104 144 200 244 312 378 448
#
# _framework density 21.163098999999999
#
# number of rings (size 3 to 8) (size 9 to 14) (size 15 to 20)
#    0.000    0.500    5.000    3.000    0.000    1.000 
#    4.500    1.250    0.000    0.000    0.000    0.000 
#    0.000    0.000    0.000    0.000    0.000    0.000 
#
# Total GULP energy -178375.824130 kJ/mol
# GULP energy per Si atom -5574.244504 kJ/mol
# Density = 2.111493 g / cm^3
# Si number density = 21.163099 Si / 1000 Ang^3
#
#
#
# Elastic Constant Matrix: (Units=GPa)
#
#
# Indices 1 2 3 4 5 6 
#
# 1 118.0275 40.4314 43.6477 0.0000 0.0000 0.0000
# 2 40.4314 98.5230 28.9758 0.0000 0.0000 0.0000
# 3 43.6477 28.9758 129.3198 0.0000 0.0000 0.0000
# 4 0.0000 0.0000 0.0000 22.0433 0.0000 0.0000
# 5 0.0000 0.0000 0.0000 0.0000 52.9681 0.0000
# 6 0.0000 0.0000 0.0000 0.0000 0.0000 55.1671
#
#
#
# Elastic Compliance Matrix: (Units=1/GPa)
#
#
# Indices 1 2 3 4 5 6 
#
# 1 0.010743 -0.003578 -0.002824 0.000000 0.000000 0.000000
# 2 -0.003578 0.012058 -0.001494 0.000000 0.000000 0.000000
# 3 -0.002824 -0.001494 0.009021 0.000000 0.000000 0.000000
# 4 0.000000 0.000000 0.000000 0.045365 0.000000 0.000000
# 5 0.000000 0.000000 0.000000 0.000000 0.018879 0.000000
# 6 0.000000 0.000000 0.000000 0.000000 0.000000 0.018127
#
#
# Mechanical properties :
#
#
# Convention : Reuss Voigt Hill
#
# Bulk Modulus (GPa) = 62.38797 63.55333 62.97065
# Shear Modulus (GPa) = 36.94743 41.55672 39.25207
#
# Velocity S-wave (km/s) = 4.18286 4.43611 4.31134
# Velocity P-wave (km/s) = 7.27132 7.50561 7.38939
#
# Compressibility (1/GPa) = 0.01602873
#
# Stress axis : x y z
#
# Youngs Moduli (GPa) = 93.08684 82.93511 110.85575
#
# Poissons Ratio (x) = 0.29674 0.31307
# Poissons Ratio (y) = 0.33306 0.16562
# Poissons Ratio (z) = 0.26289 0.12391
#
# Static dielectric constant tensor:
#      x y z
#    x 1.886920 0.000000 0.000000 
#    y 0.000000 1.753690 0.000000 
#    z 0.000000 0.000000 1.697640 
# 
# From -- ./inp_files/15885.got.cif
#   From: 2010.05.17/outbox.cif.g08.bks.cpg/sg73_8_cif.got.tgz:15885.got - 2010.06.03 17:35:07.
