data_PCOD9533944
_publ_section_title
;
Structure prediction by ZEFSAII (Michael W. Deem and Ramdas Pophale) SiO2 
 PCOD9533944
Probable space group: I M M A
;
_chemical_formula_sum "Si O2"
_cell_formula_units_Z 76
_cell_length_a 14.216902
_cell_length_b 13.917413
_cell_length_c 22.059242
_cell_angle_alpha 90.000000
_cell_angle_beta 90.000000
_cell_angle_gamma 90.000000
_cell_volume 4364.696698
_symmetry_space_group_name_H-M "I M M A"
_symmetry_group_IT_number 74
_symmetry_cell_setting 'orthorhombic'
loop_
_space_group_symop_operation_xyz
x,y,z
-x,1/2-y,z
x,-y,-z
-x,1/2+y,-z
-x,-y,-z
x,1/2+y,-z
-x,y,z
x,1/2-y,z
1/2+x,1/2+y,1/2+z
1/2-x,-y,1/2+z
1/2+x,1/2-y,1/2-z
1/2-x,y,1/2-z
1/2-x,1/2-y,1/2-z
1/2+x,y,1/2-z
1/2-x,1/2+y,1/2+z
1/2+x,-y,1/2+z
loop_
_atom_site_type_symbol
_atom_site_label
_atom_site_fract_x
_atom_site_fract_y
_atom_site_fract_z
Si Si1 0.000000 0.250000 0.212267
Si Si2 0.390389 0.639312 0.990750
Si Si3 0.314520 0.145670 0.872279
Si Si4 0.500000 0.353166 0.787869
Si Si5 0.808157 0.437495 0.372267
Si Si6 0.710895 0.750000 0.680799
Si Si7 0.000000 0.938180 0.705202
O O1 0.901536 0.250000 0.177797
O O2 0.000000 0.154547 0.253120
O O3 0.500000 0.611218 0.992659
O O4 0.386929 0.750000 0.968379
O O5 0.333419 0.576784 0.942787
O O6 0.349621 0.640242 0.058328
O O7 0.266352 0.250000 0.863222
O O8 0.407833 0.147455 0.830622
O O9 0.265236 0.043441 0.860018
O O10 0.500000 0.250000 0.754016
O O11 0.500000 0.459543 0.759312
O O12 0.748810 0.347239 0.349720
O O13 0.907683 0.434365 0.336830
O O14 0.750000 0.750000 0.750000
#
# Coordination Sequence:
#
# PCOD9533944 Si02
#       7
#     4  16  16   8  16   8   8
#     4  12  24  40  54  70  98 122 170 224 270 296
#     4  10  17  24  41  71 112 146 168 194 237 299
#     4   9  17  27  41  69 108 146 166 193 234 296
#     4   8  14  25  39  66 106 142 170 177 232 303
#     4  11  19  30  48  72 103 138 173 201 243 305
#     4  12  24  38  54  74  96 128 174 216 263 302
#     4  10  18  27  50  71  96 140 162 208 253 286
#
# _framework density 17.412434999999999
#
# number of rings (size 3 to 8) (size 9 to 14) (size 15 to 20)
#    0.000    1.895    5.263    0.632    0.000    0.842 
#    0.000    0.000    0.000    1.895    0.000    2.947 
#    0.000    0.000    0.000    0.000    0.000    0.000 
#
# Total GULP energy -211699.582527 kJ/mol
# GULP energy per Si atom -5571.041645 kJ/mol
# Density = 1.737280 g / cm^3
# Si number density = 17.412435 Si / 1000 Ang^3
#
#
#
# Elastic Constant Matrix: (Units=GPa)
#
#
# Indices 1 2 3 4 5 6 
#
# 1 52.5569 29.0690 4.7878 0.0000 0.0000 0.0000
# 2 29.0690 203.7777 20.0204 0.0000 0.0000 0.0000
# 3 4.7878 20.0204 17.2041 0.0000 0.0000 0.0000
# 4 0.0000 0.0000 0.0000 5.4362 0.0000 0.0000
# 5 0.0000 0.0000 0.0000 0.0000 -24.0244 0.0000
# 6 0.0000 0.0000 0.0000 0.0000 0.0000 5.1568
#
#
#
# Elastic Compliance Matrix: (Units=1/GPa)
#
#
# Indices 1 2 3 4 5 6 
#
# 1 0.020762 -0.002703 -0.002632 0.000000 0.000000 0.000000
# 2 -0.002703 0.005893 -0.006105 0.000000 0.000000 0.000000
# 3 -0.002632 -0.006105 0.065963 0.000000 0.000000 0.000000
# 4 0.000000 0.000000 0.000000 0.183952 0.000000 0.000000
# 5 0.000000 0.000000 0.000000 0.000000 -0.041624 0.000000
# 6 0.000000 0.000000 0.000000 0.000000 0.000000 0.193917
#
#
# Mechanical properties :
#
#
# Convention : Reuss Voigt Hill
#
# Bulk Modulus (GPa) = 14.33973 42.36592 28.35282
# Shear Modulus (GPa) = 10.52657 11.95782 11.24219
#
# Velocity S-wave (km/s) = 2.46141 2.62342 2.54370
# Velocity P-wave (km/s) = 4.04120 5.79311 4.99457
#
# Compressibility (1/GPa) = 0.06973633
#
# Stress axis : x y z
#
# Youngs Moduli (GPa) = 48.16520 169.70128 15.16005
#
# Poissons Ratio (x) = 0.45871 0.03991
# Poissons Ratio (y) = 0.13019 0.09255
# Poissons Ratio (z) = 0.12679 1.03604
#
# Static dielectric constant tensor:
#      x y z
#    x 1.537240 0.000000 0.000000 
#    y 0.000000 1.726030 0.000000 
#    z 0.000000 0.000000 1.575650 
# 
# From -- ./inp_files/51705.got.cif
#   From: 2010.05.17/outbox.cif.g08.bks.cpg/sg74_26_cif.got.tgz:51705.got - 2010.06.03 17:57:02.
