data_PCOD9533371
_publ_section_title
;
Structure prediction by ZEFSAII (Michael W. Deem and Ramdas Pophale) SiO2 
 PCOD9533371
Probable space group: I B C A 
;
_chemical_formula_sum "Si O2"
_cell_formula_units_Z 64
_cell_length_a 9.420219
_cell_length_b 19.396875
_cell_length_c 11.970327
_cell_angle_alpha 90.000000
_cell_angle_beta 90.000000
_cell_angle_gamma 90.000000
_cell_volume 2187.251791
_symmetry_space_group_name_H-M "I B C A "
_symmetry_group_IT_number 73
_symmetry_cell_setting 'orthorhombic'
loop_
_space_group_symop_operation_xyz
x,y,z
-x,1/2-y,z
x,-y,1/2-z
1/2-x,y,-z
-x,-y,-z
x,1/2+y,-z
-x,y,1/2+z
1/2+x,-y,z
1/2+x,1/2+y,1/2+z
1/2-x,-y,1/2+z
1/2+x,1/2-y,-z
-x,1/2+y,1/2-z
1/2-x,1/2-y,1/2-z
1/2+x,y,1/2-z
1/2-x,1/2+y,z
x,1/2-y,1/2+z
loop_
_atom_site_type_symbol
_atom_site_label
_atom_site_fract_x
_atom_site_fract_y
_atom_site_fract_z
Si Si1 0.435723 0.449637 0.117947
Si Si2 0.629385 0.200326 0.709249
Si Si3 0.094726 0.181090 0.545075
Si Si4 0.754383 0.431343 0.155896
O O1 0.433290 0.385996 0.031819
O O2 0.596746 0.463112 0.153357
O O3 0.359792 0.521095 0.083723
O O4 0.337133 0.428682 0.224754
O O5 0.500000 0.250000 0.675492
O O6 0.750000 0.250000 0.750000
O O7 0.585739 0.160434 0.823658
O O8 0.709453 0.146971 0.628929
O O9 0.250000 0.202003 0.500000
O O10 0.000000 0.250000 0.542607
#
# Coordination Sequence:
#
# PCOD9533371 Si02
#       4
#    16  16  16  16
#     4  11  24  46  77 109 163 214 268 336 399 500
#     4  11  25  45  81 112 153 208 266 340 412 488
#     4  11  26  50  75 118 161 203 274 345 407 483
#     4  11  23  44  74 112 157 210 267 320 408 486
#
# _framework density 29.260462
#
# number of rings (size 3 to 8) (size 9 to 14) (size 15 to 20)
#    0.000    1.000    2.500    4.500    3.500    0.000 
#    0.000    3.750    0.000    0.000    0.000    0.000 
#    0.000    0.000    0.000    0.000    0.000    0.000 
#
# Total GULP energy -179233.216318 kJ/mol
# GULP energy per Si atom -5601.038010 kJ/mol
# Density = 2.919386 g / cm^3
# Si number density = 29.260462 Si / 1000 Ang^3
#
#
#
# Elastic Constant Matrix: (Units=GPa)
#
#
# Indices 1 2 3 4 5 6 
#
# 1 238.4576 106.5102 19.1195 0.0000 0.0000 0.0000
# 2 106.5102 255.7540 46.8140 0.0000 0.0000 0.0000
# 3 19.1195 46.8140 167.7872 0.0000 0.0000 0.0000
# 4 0.0000 0.0000 0.0000 50.6169 0.0000 0.0000
# 5 0.0000 0.0000 0.0000 0.0000 0.9315 0.0000
# 6 0.0000 0.0000 0.0000 0.0000 0.0000 86.4834
#
#
#
# Elastic Compliance Matrix: (Units=1/GPa)
#
#
# Indices 1 2 3 4 5 6 
#
# 1 0.005152 -0.002148 0.000012 0.000000 0.000000 0.000000
# 2 -0.002148 0.005016 -0.001155 0.000000 0.000000 0.000000
# 3 0.000012 -0.001155 0.006281 0.000000 0.000000 0.000000
# 4 0.000000 0.000000 0.000000 0.019756 0.000000 0.000000
# 5 0.000000 0.000000 0.000000 0.000000 1.073500 0.000000
# 6 0.000000 0.000000 0.000000 0.000000 0.000000 0.011563
#
#
# Mechanical properties :
#
#
# Convention : Reuss Voigt Hill
#
# Bulk Modulus (GPa) = 101.33906 111.87625 106.60766
# Shear Modulus (GPa) = 4.42033 60.24339 32.33186
#
# Velocity S-wave (km/s) = 1.23043 4.54240 3.32771
# Velocity P-wave (km/s) = 6.06030 8.11349 7.16087
#
# Compressibility (1/GPa) = 0.00986786
#
# Stress axis : x y z
#
# Youngs Moduli (GPa) = 194.09998 199.36866 159.21748
#
# Poissons Ratio (x) = 0.42820 -0.00194
# Poissons Ratio (y) = 0.41689 0.18385
# Poissons Ratio (z) = -0.00236 0.23021
#
# Static dielectric constant tensor:
#      x y z
#    x 2.220530 0.000000 0.000000 
#    y 0.000000 2.234320 0.000000 
#    z 0.000000 0.000000 2.452810 
# 
# From -- ./inp_files/20562.got.cif
#   From: 2010.05.17/outbox.cif.g08.bks.cpg/sg73_11_cif.got.tgz:20562.got - 2010.06.03 17:35:07.
