data_PCOD9533689
_publ_section_title
;
Structure prediction by ZEFSAII (Michael W. Deem and Ramdas Pophale) SiO2 
 PCOD9533689
Probable space group: I B C A 
;
_chemical_formula_sum "Si O2"
_cell_formula_units_Z 64
_cell_length_a 19.106731
_cell_length_b 12.043126
_cell_length_c 13.862438
_cell_angle_alpha 90.000000
_cell_angle_beta 90.000000
_cell_angle_gamma 90.000000
_cell_volume 3189.813092
_symmetry_space_group_name_H-M "I B C A "
_symmetry_group_IT_number 73
_symmetry_cell_setting 'orthorhombic'
loop_
_space_group_symop_operation_xyz
x,y,z
-x,1/2-y,z
x,-y,1/2-z
1/2-x,y,-z
-x,-y,-z
x,1/2+y,-z
-x,y,1/2+z
1/2+x,-y,z
1/2+x,1/2+y,1/2+z
1/2-x,-y,1/2+z
1/2+x,1/2-y,-z
-x,1/2+y,1/2-z
1/2-x,1/2-y,1/2-z
1/2+x,y,1/2-z
1/2-x,1/2+y,z
x,1/2-y,1/2+z
loop_
_atom_site_type_symbol
_atom_site_label
_atom_site_fract_x
_atom_site_fract_y
_atom_site_fract_z
Si Si1 0.691645 0.907872 0.918828
Si Si2 0.715629 0.500000 0.750000
Si Si3 0.000000 0.750000 0.323659
Si Si4 0.117056 0.691206 0.668562
Si Si5 0.434298 0.924532 0.024946
O O1 0.655181 0.803154 0.867017
O O2 0.736379 0.968585 0.838625
O O3 0.631414 0.994049 0.953076
O O4 0.750000 0.875905 0.000000
O O5 0.669996 0.396668 0.714675
O O6 0.058986 0.794369 0.250983
O O7 0.039363 0.658748 0.390673
O O8 0.084092 0.643726 0.570646
O O9 0.500000 0.000000 0.000000
#
# Coordination Sequence:
#
# PCOD9533689 Si02
#       5
#    16   8   8  16  16
#     4  12  27  46  75 110 152 198 247 312 379 453
#     4  12  26  48  72 110 148 192 248 308 374 454
#     4  12  26  46  78 106 150 198 252 312 380 448
#     4  12  27  46  74 111 146 197 249 309 377 454
#     4  12  26  49  74 109 148 196 251 313 374 450
#
# _framework density 20.063872
#
# number of rings (size 3 to 8) (size 9 to 14) (size 15 to 20)
#    0.000    0.000    2.500    7.500    7.000    2.000 
#    0.000    0.000    0.000    0.000    0.000    0.000 
#    0.000    0.000    0.000    0.000    0.000    0.000 
#
# Total GULP energy -178959.413956 kJ/mol
# GULP energy per Si atom -5592.481686 kJ/mol
# Density = 2.001821 g / cm^3
# Si number density = 20.063872 Si / 1000 Ang^3
#
#
#
# Elastic Constant Matrix: (Units=GPa)
#
#
# Indices 1 2 3 4 5 6 
#
# 1 159.0649 66.9576 68.7161 0.0000 0.0000 0.0000
# 2 66.9576 87.0622 21.0021 0.0000 0.0000 0.0000
# 3 68.7161 21.0021 91.9962 0.0000 0.0000 0.0000
# 4 0.0000 0.0000 0.0000 47.0839 0.0000 0.0000
# 5 0.0000 0.0000 0.0000 0.0000 63.3686 0.0000
# 6 0.0000 0.0000 0.0000 0.0000 0.0000 59.0848
#
#
#
# Elastic Compliance Matrix: (Units=1/GPa)
#
#
# Indices 1 2 3 4 5 6 
#
# 1 0.013195 -0.008223 -0.007979 0.000000 0.000000 0.000000
# 2 -0.008223 0.017280 0.002197 0.000000 0.000000 0.000000
# 3 -0.007979 0.002197 0.016328 0.000000 0.000000 0.000000
# 4 0.000000 0.000000 0.000000 0.021239 0.000000 0.000000
# 5 0.000000 0.000000 0.000000 0.000000 0.015781 0.000000
# 6 0.000000 0.000000 0.000000 0.000000 0.000000 0.016925
#
#
# Mechanical properties :
#
#
# Convention : Reuss Voigt Hill
#
# Bulk Modulus (GPa) = 53.20790 72.38611 62.79700
# Shear Modulus (GPa) = 37.03107 46.00397 41.51752
#
# Velocity S-wave (km/s) = 4.30077 4.79359 4.55386
# Velocity P-wave (km/s) = 7.15815 8.17277 7.68223
#
# Compressibility (1/GPa) = 0.01879420
#
# Stress axis : x y z
#
# Youngs Moduli (GPa) = 75.78551 57.86915 61.24442
#
# Poissons Ratio (x) = 0.47588 0.48865
# Poissons Ratio (y) = 0.62321 -0.13458
# Poissons Ratio (z) = 0.60467 -0.12716
#
# Static dielectric constant tensor:
#      x y z
#    x 1.630710 0.000000 0.000000 
#    y 0.000000 1.635530 0.000000 
#    z 0.000000 0.000000 1.714200 
# 
# From -- ./inp_files/9473.got.cif
#   From: 2010.05.17/outbox.cif.g08.bks.cpg/sg73_5_cif.got.tgz:9473.got - 2010.06.03 17:35:07.
