data_PCOD9533610
_publ_section_title
;
Structure prediction by ZEFSAII (Michael W. Deem and Ramdas Pophale) SiO2 
 PCOD9533610
Probable space group: I B C A 
;
_chemical_formula_sum "Si O2"
_cell_formula_units_Z 112
_cell_length_a 22.693048
_cell_length_b 13.175672
_cell_length_c 18.513556
_cell_angle_alpha 90.000000
_cell_angle_beta 90.000000
_cell_angle_gamma 90.000000
_cell_volume 5535.482099
_symmetry_space_group_name_H-M "I B C A "
_symmetry_group_IT_number 73
_symmetry_cell_setting 'orthorhombic'
loop_
_space_group_symop_operation_xyz
x,y,z
-x,1/2-y,z
x,-y,1/2-z
1/2-x,y,-z
-x,-y,-z
x,1/2+y,-z
-x,y,1/2+z
1/2+x,-y,z
1/2+x,1/2+y,1/2+z
1/2-x,-y,1/2+z
1/2+x,1/2-y,-z
-x,1/2+y,1/2-z
1/2-x,1/2-y,1/2-z
1/2+x,y,1/2-z
1/2-x,1/2+y,z
x,1/2-y,1/2+z
loop_
_atom_site_type_symbol
_atom_site_label
_atom_site_fract_x
_atom_site_fract_y
_atom_site_fract_z
Si Si1 0.755335 0.105496 0.374777
Si Si2 0.427863 0.334726 0.788682
Si Si3 0.052677 0.198244 0.357659
Si Si4 0.625799 0.327800 0.895669
Si Si5 0.750000 0.939637 0.500000
Si Si6 0.837117 0.732627 0.043941
Si Si7 0.330451 0.500000 0.750000
Si Si8 0.458122 0.473577 0.325371
O O1 0.689570 0.146982 0.361083
O O2 0.791234 0.197069 0.412365
O O3 0.752333 0.013313 0.431618
O O4 0.789495 0.059285 0.306795
O O5 0.436899 0.263873 0.716730
O O6 0.408062 0.260598 0.852747
O O7 0.374998 0.414666 0.779968
O O8 0.486617 0.400063 0.807696
O O9 0.112738 0.198041 0.401104
O O10 0.000000 0.250000 0.401214
O O11 0.026387 0.086363 0.347963
O O12 0.584261 0.423970 0.883376
O O13 0.636991 0.298295 0.978127
O O14 0.695013 0.864220 0.490687
O O15 0.424928 0.500000 0.250000
#
# Coordination Sequence:
#
# PCOD9533610 Si02
#       8
#    16  16  16  16   8  16   8  16
#     4  12  26  45  72 105 144 183 236 287 354 421
#     4  12  24  46  74  99 144 184 232 296 354 412
#     4  12  24  45  70 103 142 184 233 290 352 418
#     4  12  25  46  70 105 138 186 239 289 351 422
#     4  12  22  50  72  96 144 196 224 288 356 418
#     4  12  26  47  70 101 144 190 230 287 357 416
#     4  12  26  42  70 110 138 184 242 288 346 422
#     4  12  24  44  75 102 135 186 231 292 359 412
#
# _framework density 20.233107
#
# number of rings (size 3 to 8) (size 9 to 14) (size 15 to 20)
#    0.000    0.000    7.857    2.143    1.000    2.857 
#    0.000    1.429    0.000    0.000    0.000    0.000 
#    0.000    0.000    0.000    0.000    0.000    0.000 
#
# Total GULP energy -312803.087595 kJ/mol
# GULP energy per Si atom -5585.769421 kJ/mol
# Density = 2.018706 g / cm^3
# Si number density = 20.233107 Si / 1000 Ang^3
#
#
#
# Elastic Constant Matrix: (Units=GPa)
#
#
# Indices 1 2 3 4 5 6 
#
# 1 115.5570 45.8947 37.4406 0.0000 0.0000 0.0000
# 2 45.8947 117.8707 10.5787 0.0000 0.0000 0.0000
# 3 37.4406 10.5787 31.5381 0.0000 0.0000 0.0000
# 4 0.0000 0.0000 0.0000 25.6789 0.0000 0.0000
# 5 0.0000 0.0000 0.0000 0.0000 30.1977 0.0000
# 6 0.0000 0.0000 0.0000 0.0000 0.0000 37.6653
#
#
#
# Elastic Compliance Matrix: (Units=1/GPa)
#
#
# Indices 1 2 3 4 5 6 
#
# 1 0.016290 -0.004750 -0.017745 0.000000 0.000000 0.000000
# 2 -0.004750 0.010132 0.002240 0.000000 0.000000 0.000000
# 3 -0.017745 0.002240 0.052023 0.000000 0.000000 0.000000
# 4 0.000000 0.000000 0.000000 0.038942 0.000000 0.000000
# 5 0.000000 0.000000 0.000000 0.000000 0.033115 0.000000
# 6 0.000000 0.000000 0.000000 0.000000 0.000000 0.026550
#
#
# Mechanical properties :
#
#
# Convention : Reuss Voigt Hill
#
# Bulk Modulus (GPa) = 26.36090 50.31041 38.33566
# Shear Modulus (GPa) = 21.71965 30.11184 25.91574
#
# Velocity S-wave (km/s) = 3.27994 3.86196 3.58279
# Velocity P-wave (km/s) = 5.23459 6.69371 6.00860
#
# Compressibility (1/GPa) = 0.03793497
#
# Stress axis : x y z
#
# Youngs Moduli (GPa) = 61.38834 98.69423 19.22244
#
# Poissons Ratio (x) = 0.46880 0.34111
# Poissons Ratio (y) = 0.29160 -0.04307
# Poissons Ratio (z) = 1.08935 -0.22112
#
# Static dielectric constant tensor:
#      x y z
#    x 1.718840 0.000000 0.000000 
#    y 0.000000 1.796840 0.000000 
#    z 0.000000 0.000000 1.724020 
# 
# From -- ./inp_files/27324.got.cif
#   From: 2010.05.17/outbox.cif.g08.bks.cpg/sg73_14_cif.got.tgz:27324.got - 2010.06.03 17:35:07.
