data_PCOD9533718
_publ_section_title
;
Structure prediction by ZEFSAII (Michael W. Deem and Ramdas Pophale) SiO2 
 PCOD9533718
Probable space group: I B C A 
;
_chemical_formula_sum "Si O2"
_cell_formula_units_Z 64
_cell_length_a 9.611206
_cell_length_b 9.889871
_cell_length_c 22.694239
_cell_angle_alpha 90.000000
_cell_angle_beta 90.000000
_cell_angle_gamma 90.000000
_cell_volume 2157.168832
_symmetry_space_group_name_H-M "I B C A "
_symmetry_group_IT_number 73
_symmetry_cell_setting 'orthorhombic'
loop_
_space_group_symop_operation_xyz
x,y,z
-x,1/2-y,z
x,-y,1/2-z
1/2-x,y,-z
-x,-y,-z
x,1/2+y,-z
-x,y,1/2+z
1/2+x,-y,z
1/2+x,1/2+y,1/2+z
1/2-x,-y,1/2+z
1/2+x,1/2-y,-z
-x,1/2+y,1/2-z
1/2-x,1/2-y,1/2-z
1/2+x,y,1/2-z
1/2-x,1/2+y,z
x,1/2-y,1/2+z
loop_
_atom_site_type_symbol
_atom_site_label
_atom_site_fract_x
_atom_site_fract_y
_atom_site_fract_z
Si Si1 0.276650 0.373396 0.791470
Si Si2 0.810424 0.694074 0.603791
Si Si3 0.888246 0.115170 0.005722
Si Si4 0.502167 0.565879 0.623627
O O1 0.237782 0.500000 0.750000
O O2 0.250000 0.250000 0.750000
O O3 0.195116 0.318481 0.849540
O O4 0.435136 0.392122 0.814167
O O5 0.750000 0.471122 0.500000
O O6 0.855245 0.764719 0.540596
O O7 0.584517 0.850412 0.573312
O O8 0.932981 0.915748 0.115942
O O9 0.834345 0.895245 0.885070
O O10 0.000000 0.000000 0.000000
#
# Coordination Sequence:
#
# PCOD9533718 Si02
#       4
#    16  16  16  16
#     4  12  27  60  96 141 197 272 350 439 525 622
#     4  12  30  62  97 148 203 267 342 430 522 639
#     4  12  29  56  92 141 195 256 324 417 515 623
#     4  12  29  60  96 143 204 266 337 429 530 628
#
# _framework density 29.668519
#
# number of rings (size 3 to 8) (size 9 to 14) (size 15 to 20)
#    0.000    0.000    5.000    2.250    0.000    8.000 
#   13.500    0.000    0.000    0.000    0.000    0.000 
#    0.000    0.000    0.000    0.000    0.000    0.000 
#
# Total GULP energy -178587.657508 kJ/mol
# GULP energy per Si atom -5580.864297 kJ/mol
# Density = 2.960099 g / cm^3
# Si number density = 29.668519 Si / 1000 Ang^3
#
#
#
# Elastic Constant Matrix: (Units=GPa)
#
#
# Indices 1 2 3 4 5 6 
#
# 1 313.7281 106.3304 78.0446 0.0000 0.0000 0.0000
# 2 106.3304 291.3339 118.4007 0.0000 0.0000 0.0000
# 3 78.0446 118.4007 206.4435 0.0000 0.0000 0.0000
# 4 0.0000 0.0000 0.0000 78.9565 0.0000 0.0000
# 5 0.0000 0.0000 0.0000 0.0000 22.5639 0.0000
# 6 0.0000 0.0000 0.0000 0.0000 0.0000 49.1875
#
#
#
# Elastic Compliance Matrix: (Units=1/GPa)
#
#
# Indices 1 2 3 4 5 6 
#
# 1 0.003742 -0.001031 -0.000823 0.000000 0.000000 0.000000
# 2 -0.001031 0.004760 -0.002340 0.000000 0.000000 0.000000
# 3 -0.000823 -0.002340 0.006497 0.000000 0.000000 0.000000
# 4 0.000000 0.000000 0.000000 0.012665 0.000000 0.000000
# 5 0.000000 0.000000 0.000000 0.000000 0.044319 0.000000
# 6 0.000000 0.000000 0.000000 0.000000 0.000000 0.020330
#
#
# Mechanical properties :
#
#
# Convention : Reuss Voigt Hill
#
# Bulk Modulus (GPa) = 151.28421 157.45077 154.36749
# Shear Modulus (GPa) = 48.58848 64.05689 56.32268
#
# Velocity S-wave (km/s) = 4.05126 4.65164 4.36179
# Velocity P-wave (km/s) = 8.54317 9.05735 8.80401
#
# Compressibility (1/GPa) = 0.00661008
#
# Stress axis : x y z
#
# Youngs Moduli (GPa) = 267.25715 210.09054 153.91146
#
# Poissons Ratio (x) = 0.21662 0.12670
# Poissons Ratio (y) = 0.27557 0.36017
# Poissons Ratio (z) = 0.22000 0.49163
#
# Static dielectric constant tensor:
#      x y z
#    x 2.732110 0.000000 0.000000 
#    y 0.000000 2.374730 0.000000 
#    z 0.000000 0.000000 4.903530 
# 
# From -- ./inp_files/21719.got.cif
#   From: 2010.05.17/outbox.cif.g08.bks.cpg/sg73_11_cif.got.tgz:21719.got - 2010.06.03 17:35:07.
