data_PCOD9533987
_publ_section_title
;
Structure prediction by ZEFSAII (Michael W. Deem and Ramdas Pophale) SiO2 
 PCOD9533987
Probable space group: I M M A
;
_chemical_formula_sum "Si O2"
_cell_formula_units_Z 96
_cell_length_a 21.128213
_cell_length_b 14.286824
_cell_length_c 20.381380
_cell_angle_alpha 90.000000
_cell_angle_beta 90.000000
_cell_angle_gamma 90.000000
_cell_volume 6152.222694
_symmetry_space_group_name_H-M "I M M A"
_symmetry_group_IT_number 74
_symmetry_cell_setting 'orthorhombic'
loop_
_space_group_symop_operation_xyz
x,y,z
-x,1/2-y,z
x,-y,-z
-x,1/2+y,-z
-x,-y,-z
x,1/2+y,-z
-x,y,z
x,1/2-y,z
1/2+x,1/2+y,1/2+z
1/2-x,-y,1/2+z
1/2+x,1/2-y,1/2-z
1/2-x,y,1/2-z
1/2-x,1/2-y,1/2-z
1/2+x,y,1/2-z
1/2-x,1/2+y,1/2+z
1/2+x,-y,1/2+z
loop_
_atom_site_type_symbol
_atom_site_label
_atom_site_fract_x
_atom_site_fract_y
_atom_site_fract_z
Si Si1 0.073569 0.356354 0.874274
Si Si2 0.795432 0.030585 0.391383
Si Si3 0.631955 0.642489 0.512835
Si Si4 0.778279 0.139748 0.522639
Si Si5 0.146758 0.962954 0.856922
Si Si6 0.825068 0.143102 0.268695
O O1 0.093221 0.250000 0.857347
O O2 0.116154 0.436808 0.843091
O O3 0.000000 0.368195 0.858402
O O4 0.083874 0.365152 0.952858
O O5 0.802302 0.102224 0.452352
O O6 0.721730 0.029857 0.370105
O O7 0.832434 0.071563 0.329232
O O8 0.806606 0.927402 0.421238
O O9 0.633971 0.750000 0.536094
O O10 0.701990 0.623065 0.482677
O O11 0.619359 0.577840 0.575047
O O12 0.788758 0.250000 0.531881
O O13 0.139166 0.893751 0.795656
O O14 0.841871 0.250000 0.285763
O O15 0.750000 0.144102 0.250000
#
# Coordination Sequence:
#
# PCOD9533987 Si02
#       6
#    16  16  16  16  16  16
#     4  10  20  31  42  57  79 108 143 184 223 250
#     4   9  16  25  39  60  80 106 139 169 204 247
#     4   9  16  26  40  57  76 102 138 176 214 248
#     4   9  15  24  39  57  81 108 135 168 202 240
#     4  10  17  27  41  57  77 106 139 174 211 252
#     4   9  17  28  41  58  80 103 132 169 208 251
#
# _framework density 15.604117
#
# number of rings (size 3 to 8) (size 9 to 14) (size 15 to 20)
#    0.000    2.667    1.667    1.500    0.000    5.333 
#    0.000    0.833    0.000    4.500    0.000    0.000 
#    0.000    0.000    0.000    3.000    0.000   11.333 
#
# Total GULP energy -267245.960170 kJ/mol
# GULP energy per Si atom -5567.624170 kJ/mol
# Density = 1.556860 g / cm^3
# Si number density = 15.604117 Si / 1000 Ang^3
#
#
#
# Elastic Constant Matrix: (Units=GPa)
#
#
# Indices 1 2 3 4 5 6 
#
# 1 5.9776 12.2349 3.2163 0.0000 0.0000 0.0000
# 2 12.2349 130.7606 44.9359 0.0000 0.0000 0.0000
# 3 3.2163 44.9359 54.2560 0.0000 0.0000 0.0000
# 4 0.0000 0.0000 0.0000 24.0595 0.0000 0.0000
# 5 0.0000 0.0000 0.0000 0.0000 4.8403 0.0000
# 6 0.0000 0.0000 0.0000 0.0000 0.0000 8.7422
#
#
#
# Elastic Compliance Matrix: (Units=1/GPa)
#
#
# Indices 1 2 3 4 5 6 
#
# 1 0.208001 -0.021282 0.005296 0.000000 0.000000 0.000000
# 2 -0.021282 0.012868 -0.009396 0.000000 0.000000 0.000000
# 3 0.005296 -0.009396 0.025899 0.000000 0.000000 0.000000
# 4 0.000000 0.000000 0.000000 0.041564 0.000000 0.000000
# 5 0.000000 0.000000 0.000000 0.000000 0.206598 0.000000
# 6 0.000000 0.000000 0.000000 0.000000 0.000000 0.114387
#
#
# Mechanical properties :
#
#
# Convention : Reuss Voigt Hill
#
# Bulk Modulus (GPa) = 5.10194 34.64094 19.87144
# Shear Modulus (GPa) = 6.89261 16.23555 11.56408
#
# Velocity S-wave (km/s) = 2.10399 3.22912 2.72525
# Velocity P-wave (km/s) = 3.02970 6.01257 4.76078
#
# Compressibility (1/GPa) = 0.19600376
#
# Stress axis : x y z
#
# Youngs Moduli (GPa) = 4.80768 77.71406 38.61164
#
# Poissons Ratio (x) = 1.65391 -0.20448
# Poissons Ratio (y) = 0.10232 0.36278
# Poissons Ratio (z) = -0.02546 0.73018
#
# Static dielectric constant tensor:
#      x y z
#    x 1.493990 0.000000 0.000000 
#    y 0.000000 1.557210 0.000000 
#    z 0.000000 0.000000 1.527980 
# 
# From -- ./inp_files/53970.got.cif
#   From: 2010.05.17/outbox.cif.g08.bks.cpg/sg74_27_cif.got.tgz:53970.got - 2010.06.03 17:57:02.
