data_PCOD9533173
_publ_section_title
;
Structure prediction by ZEFSAII (Michael W. Deem and Ramdas Pophale) SiO2 
 PCOD9533173
Probable space group: I B C A 
;
_chemical_formula_sum "Si O2"
_cell_formula_units_Z 96
_cell_length_a 9.385352
_cell_length_b 25.337438
_cell_length_c 19.060695
_cell_angle_alpha 90.000000
_cell_angle_beta 90.000000
_cell_angle_gamma 90.000000
_cell_volume 4532.648032
_symmetry_space_group_name_H-M "I B C A "
_symmetry_group_IT_number 73
_symmetry_cell_setting 'orthorhombic'
loop_
_space_group_symop_operation_xyz
x,y,z
-x,1/2-y,z
x,-y,1/2-z
1/2-x,y,-z
-x,-y,-z
x,1/2+y,-z
-x,y,1/2+z
1/2+x,-y,z
1/2+x,1/2+y,1/2+z
1/2-x,-y,1/2+z
1/2+x,1/2-y,-z
-x,1/2+y,1/2-z
1/2-x,1/2-y,1/2-z
1/2+x,y,1/2-z
1/2-x,1/2+y,z
x,1/2-y,1/2+z
loop_
_atom_site_type_symbol
_atom_site_label
_atom_site_fract_x
_atom_site_fract_y
_atom_site_fract_z
Si Si1 0.640840 0.465722 0.307470
Si Si2 0.693949 0.365474 0.697996
Si Si3 0.631518 0.863284 0.046773
Si Si4 0.505454 0.187465 0.815112
Si Si5 0.627235 0.472329 0.895636
Si Si6 0.389506 0.912905 0.952109
O O1 0.560638 0.500000 0.250000
O O2 0.723579 0.417202 0.273468
O O3 0.520609 0.450647 0.362942
O O4 0.758528 0.502331 0.343298
O O5 0.578860 0.341945 0.751505
O O6 0.630543 0.386263 0.624220
O O7 0.827374 0.327221 0.684025
O O8 0.570600 0.831029 0.112644
O O9 0.695336 0.919640 0.072835
O O10 0.750000 0.834315 0.000000
O O11 0.508452 0.882071 0.994506
O O12 0.500000 0.250000 0.805826
O O13 0.586608 0.524150 0.941177
O O14 0.250000 0.908679 0.000000
#
# Coordination Sequence:
#
# PCOD9533173 Si02
#       6
#    16  16  16  16  16  16
#     4  11  22  35  61 101 142 181 219 275 341 413
#     4  11  26  46  73  98 140 178 229 288 349 410
#     4  12  24  43  68 103 141 176 231 282 342 415
#     4  12  27  51  73 101 129 181 239 294 350 408
#     4  11  21  37  61  99 139 182 225 263 337 423
#     4  11  22  43  68 102 142 186 221 276 348 419
#
# _framework density 21.179672
#
# number of rings (size 3 to 8) (size 9 to 14) (size 15 to 20)
#    0.000    0.667    3.333    5.000    7.000    0.000 
#    3.000    0.000    0.000    0.000    0.000    0.000 
#    0.000    0.000    0.000    0.000    0.000    0.000 
#
# Total GULP energy -268221.089201 kJ/mol
# GULP energy per Si atom -5587.939358 kJ/mol
# Density = 2.113147 g / cm^3
# Si number density = 21.179672 Si / 1000 Ang^3
#
#
#
# Elastic Constant Matrix: (Units=GPa)
#
#
# Indices 1 2 3 4 5 6 
#
# 1 57.6727 5.7883 20.2467 0.0000 0.0000 0.0000
# 2 5.7883 71.3273 32.8307 0.0000 0.0000 0.0000
# 3 20.2467 32.8307 104.3406 -0.0001 0.0000 0.0000
# 4 0.0000 0.0000 -0.0001 20.2236 0.0000 0.0000
# 5 0.0000 0.0000 0.0000 0.0000 19.8380 0.0000
# 6 0.0000 0.0000 0.0000 0.0000 0.0000 25.1758
#
#
#
# Elastic Compliance Matrix: (Units=1/GPa)
#
#
# Indices 1 2 3 4 5 6 
#
# 1 0.018609 0.000178 -0.003667 0.000000 0.000000 0.000000
# 2 0.000178 0.016396 -0.005193 0.000000 0.000000 0.000000
# 3 -0.003667 -0.005193 0.011930 0.000000 0.000000 0.000000
# 4 0.000000 0.000000 0.000000 0.049447 0.000000 0.000000
# 5 0.000000 0.000000 0.000000 0.000000 0.050408 0.000000
# 6 0.000000 0.000000 0.000000 0.000000 0.000000 0.039721
#
#
# Mechanical properties :
#
#
# Convention : Reuss Voigt Hill
#
# Bulk Modulus (GPa) = 33.81919 39.00801 36.41360
# Shear Modulus (GPa) = 23.39379 24.67913 24.03646
#
# Velocity S-wave (km/s) = 3.32707 3.41725 3.37246
# Velocity P-wave (km/s) = 5.54631 5.83333 5.69163
#
# Compressibility (1/GPa) = 0.02956901
#
# Stress axis : x y z
#
# Youngs Moduli (GPa) = 53.73840 60.99083 83.82487
#
# Poissons Ratio (x) = -0.01083 0.30737
# Poissons Ratio (y) = -0.00955 0.43534
# Poissons Ratio (z) = 0.19705 0.31675
#
# Static dielectric constant tensor:
#      x y z
#    x 1.750790 0.000000 0.000000 
#    y 0.000000 1.763390 0.000000 
#    z 0.000000 0.000000 1.810960 
# 
# From -- ./inp_files/24863.got.cif
#   From: 2010.05.17/outbox.cif.g08.bks.cpg/sg73_13_cif.got.tgz:24863.got - 2010.06.03 17:35:07.
