data_PCOD9533552
_publ_section_title
;
Structure prediction by ZEFSAII (Michael W. Deem and Ramdas Pophale) SiO2 
 PCOD9533552
Probable space group: I B C A 
;
_chemical_formula_sum "Si O2"
_cell_formula_units_Z 64
_cell_length_a 8.228334
_cell_length_b 14.314897
_cell_length_c 22.210202
_cell_angle_alpha 90.000000
_cell_angle_beta 90.000000
_cell_angle_gamma 90.000000
_cell_volume 2616.089803
_symmetry_space_group_name_H-M "I B C A "
_symmetry_group_IT_number 73
_symmetry_cell_setting 'orthorhombic'
loop_
_space_group_symop_operation_xyz
x,y,z
-x,1/2-y,z
x,-y,1/2-z
1/2-x,y,-z
-x,-y,-z
x,1/2+y,-z
-x,y,1/2+z
1/2+x,-y,z
1/2+x,1/2+y,1/2+z
1/2-x,-y,1/2+z
1/2+x,1/2-y,-z
-x,1/2+y,1/2-z
1/2-x,1/2-y,1/2-z
1/2+x,y,1/2-z
1/2-x,1/2+y,z
x,1/2-y,1/2+z
loop_
_atom_site_type_symbol
_atom_site_label
_atom_site_fract_x
_atom_site_fract_y
_atom_site_fract_z
Si Si1 0.752706 0.222766 0.428675
Si Si2 0.564578 0.387622 0.619031
Si Si3 0.746548 0.359359 0.734105
Si Si4 0.937933 0.092860 0.654044
O O1 0.750000 0.212925 0.500000
O O2 0.788836 0.330874 0.412729
O O3 0.607921 0.175634 0.391437
O O4 0.905766 0.162578 0.405236
O O5 0.593214 0.370028 0.689580
O O6 0.556055 0.498591 0.615186
O O7 0.750000 0.250000 0.750000
O O8 0.706319 0.413272 0.795733
O O9 0.902431 0.389144 0.694713
#
# Coordination Sequence:
#
# PCOD9533552 Si02
#       4
#    16  16  16  16
#     4  11  27  50  76 109 154 208 267 322 381 458
#     4  11  26  48  75 109 155 197 260 317 393 465
#     4  12  25  45  77 115 159 198 248 320 399 467
#     4  12  26  48  76 116 155 206 255 323 394 472
#
# _framework density 24.463992000000001
#
# number of rings (size 3 to 8) (size 9 to 14) (size 15 to 20)
#    0.000    0.500    2.500    4.500    3.500    8.000 
#    0.000    0.000    0.000    0.000    0.000    0.000 
#    0.000    0.000    0.000    0.000    0.000    0.000 
#
# Total GULP energy -179320.369934 kJ/mol
# GULP energy per Si atom -5603.761560 kJ/mol
# Density = 2.440831 g / cm^3
# Si number density = 24.463992 Si / 1000 Ang^3
#
#
#
# Elastic Constant Matrix: (Units=GPa)
#
#
# Indices 1 2 3 4 5 6 
#
# 1 124.7028 81.0104 56.9958 0.0000 0.0000 0.0000
# 2 81.0104 194.7318 53.0697 0.0000 0.0000 0.0000
# 3 56.9958 53.0697 177.3985 0.0000 0.0000 0.0000
# 4 0.0000 0.0000 0.0000 -3.7740 0.0000 0.0000
# 5 0.0000 0.0000 0.0000 0.0000 19.3035 0.0000
# 6 0.0000 0.0000 0.0000 0.0000 0.0000 31.9457
#
#
#
# Elastic Compliance Matrix: (Units=1/GPa)
#
#
# Indices 1 2 3 4 5 6 
#
# 1 0.011973 -0.004282 -0.002566 0.000000 0.000000 0.000000
# 2 -0.004282 0.007122 -0.000755 0.000000 0.000000 0.000000
# 3 -0.002566 -0.000755 0.006687 0.000000 0.000000 0.000000
# 4 0.000000 0.000000 0.000000 -0.264969 0.000000 0.000000
# 5 0.000000 0.000000 0.000000 0.000000 0.051804 0.000000
# 6 0.000000 0.000000 0.000000 0.000000 0.000000 0.031303
#
#
# Mechanical properties :
#
#
# Convention : Reuss Voigt Hill
#
# Bulk Modulus (GPa) = 94.54022 97.66501 96.10261
# Shear Modulus (GPa) = -36.40393 29.87883 -3.26255
#
# Velocity S-wave (km/s) = -3.86173 3.49856 -1.15607
# Velocity P-wave (km/s) = 4.34104 7.50523 6.13079
#
# Compressibility (1/GPa) = 0.01057751
#
# Stress axis : x y z
#
# Youngs Moduli (GPa) = 83.51838 140.40442 149.53700
#
# Poissons Ratio (x) = 0.60118 0.38371
# Poissons Ratio (y) = 0.35761 0.11290
# Poissons Ratio (z) = 0.21431 0.10600
#
# Static dielectric constant tensor:
#      x y z
#    x 2.092170 0.000000 0.000000 
#    y 0.000000 2.013470 0.000000 
#    z 0.000000 0.000000 1.870860 
# 
# From -- ./inp_files/28179.got.cif
#   From: 2010.05.17/outbox.cif.g08.bks.cpg/sg73_15_cif.got.tgz:28179.got - 2010.06.03 17:35:07.
