data_PCOD9533109
_publ_section_title
;
Structure prediction by ZEFSAII (Michael W. Deem and Ramdas Pophale) SiO2 
 PCOD9533109
Probable space group: I B C A 
;
_chemical_formula_sum "Si O2"
_cell_formula_units_Z 72
_cell_length_a 13.871153
_cell_length_b 26.089609
_cell_length_c 8.050799
_cell_angle_alpha 90.000000
_cell_angle_beta 90.000000
_cell_angle_gamma 90.000000
_cell_volume 2913.527466
_symmetry_space_group_name_H-M "I B C A "
_symmetry_group_IT_number 73
_symmetry_cell_setting 'orthorhombic'
loop_
_space_group_symop_operation_xyz
x,y,z
-x,1/2-y,z
x,-y,1/2-z
1/2-x,y,-z
-x,-y,-z
x,1/2+y,-z
-x,y,1/2+z
1/2+x,-y,z
1/2+x,1/2+y,1/2+z
1/2-x,-y,1/2+z
1/2+x,1/2-y,-z
-x,1/2+y,1/2-z
1/2-x,1/2-y,1/2-z
1/2+x,y,1/2-z
1/2-x,1/2+y,z
x,1/2-y,1/2+z
loop_
_atom_site_type_symbol
_atom_site_label
_atom_site_fract_x
_atom_site_fract_y
_atom_site_fract_z
Si Si1 0.750000 0.220588 0.500000
Si Si2 0.190442 0.445504 0.327493
Si Si3 0.098334 0.783343 0.774878
Si Si4 0.880816 0.059324 0.811515
Si Si5 0.457346 0.108045 0.360499
O O1 0.830736 0.196761 0.374752
O O2 0.674645 0.251921 0.385261
O O3 0.161385 0.500000 0.250000
O O4 0.250000 0.450689 0.500000
O O5 0.270069 0.425885 0.198767
O O6 0.098590 0.410523 0.305952
O O7 0.062429 0.832337 0.879723
O O8 0.000000 0.750000 0.731680
O O9 0.933809 0.095324 0.680810
O O10 0.891766 0.000000 0.750000
O O11 0.920794 0.072349 0.991192
#
# Coordination Sequence:
#
# PCOD9533109 Si02
#       5
#     8  16  16  16  16
#     4  10  26  50  74 106 150 196 250 334 392 456
#     4  11  23  43  69 102 147 189 237 298 366 446
#     4  11  27  47  78 107 154 196 260 323 396 461
#     4  11  24  43  67 104 149 191 243 302 369 449
#     4  12  26  41  74 103 143 193 251 302 380 459
#
# _framework density 24.712313000000002
#
# number of rings (size 3 to 8) (size 9 to 14) (size 15 to 20)
#    0.000    0.889    0.000    6.667   10.889    1.778 
#    0.000    0.000    0.000    0.000    0.000    0.000 
#    0.000    0.000    0.000    0.000    0.000    0.000 
#
# Total GULP energy -200910.965395 kJ/mol
# GULP energy per Si atom -5580.860150 kJ/mol
# Density = 2.465607 g / cm^3
# Si number density = 24.712313 Si / 1000 Ang^3
#
#
#
# Elastic Constant Matrix: (Units=GPa)
#
#
# Indices 1 2 3 4 5 6 
#
# 1 141.8800 44.3848 14.4331 0.0004 0.0001 0.0003
# 2 44.3848 59.0745 15.4443 0.0026 0.0004 0.0003
# 3 14.4331 15.4443 113.3019 0.0050 0.0007 -0.0012
# 4 0.0004 0.0026 0.0050 -27.5782 0.0002 -0.0059
# 5 0.0001 0.0004 0.0007 0.0002 36.7776 -0.0004
# 6 0.0003 0.0003 -0.0012 -0.0059 -0.0004 111.7493
#
#
#
# Elastic Compliance Matrix: (Units=1/GPa)
#
#
# Indices 1 2 3 4 5 6 
#
# 1 0.009220 -0.006865 -0.000239 -0.000001 0.000000 0.000000
# 2 -0.006865 0.022665 -0.002215 0.000002 0.000000 0.000000
# 3 -0.000239 -0.002215 0.009158 0.000001 0.000000 0.000000
# 4 -0.000001 0.000002 0.000001 -0.036261 0.000000 -0.000002
# 5 0.000000 0.000000 0.000000 0.000000 0.027190 0.000000
# 6 0.000000 0.000000 0.000000 -0.000002 0.000000 0.008949
#
#
# Mechanical properties :
#
#
# Convention : Reuss Voigt Hill
#
# Bulk Modulus (GPa) = 44.63129 51.42011 48.02570
# Shear Modulus (GPa) = 74.59617 40.18935 57.39276
#
# Velocity S-wave (km/s) = 5.50012 4.03710 4.82439
# Velocity P-wave (km/s) = 7.64426 6.52561 7.10698
#
# Compressibility (1/GPa) = 0.02240581
#
# Stress axis : x y z
#
# Youngs Moduli (GPa) = 108.45884 44.12142 109.19044
#
# Poissons Ratio (x) = 0.30289 0.02607
# Poissons Ratio (y) = 0.74457 0.24185
# Poissons Ratio (z) = 0.02589 0.09773
#
# Static dielectric constant tensor:
#      x y z
#    x 1.917750 0.000000 0.000000 
#    y 0.000000 1.937780 0.000000 
#    z 0.000000 0.000000 2.056280 
# 
# From -- ./inp_files/4766.got.cif
#   From: 2010.05.17/outbox.cif.g08.bks.cpg/sg73_3_cif.got.tgz:4766.got - 2010.06.03 17:35:07.
