data_PCOD9533233
_publ_section_title
;
Structure prediction by ZEFSAII (Michael W. Deem and Ramdas Pophale) SiO2 
 PCOD9533233
Probable space group: I B C A 
;
_chemical_formula_sum "Si O2"
_cell_formula_units_Z 56
_cell_length_a 28.490666
_cell_length_b 17.660149
_cell_length_c 5.120587
_cell_angle_alpha 90.000000
_cell_angle_beta 90.000000
_cell_angle_gamma 90.000000
_cell_volume 2576.420311
_symmetry_space_group_name_H-M "I B C A "
_symmetry_group_IT_number 73
_symmetry_cell_setting 'orthorhombic'
loop_
_space_group_symop_operation_xyz
x,y,z
-x,1/2-y,z
x,-y,1/2-z
1/2-x,y,-z
-x,-y,-z
x,1/2+y,-z
-x,y,1/2+z
1/2+x,-y,z
1/2+x,1/2+y,1/2+z
1/2-x,-y,1/2+z
1/2+x,1/2-y,-z
-x,1/2+y,1/2-z
1/2-x,1/2-y,1/2-z
1/2+x,y,1/2-z
1/2-x,1/2+y,z
x,1/2-y,1/2+z
loop_
_atom_site_type_symbol
_atom_site_label
_atom_site_fract_x
_atom_site_fract_y
_atom_site_fract_z
Si Si1 0.155761 0.203434 0.345243
Si Si2 0.750000 0.369319 0.500000
Si Si3 0.965904 0.000000 0.250000
Si Si4 0.607748 0.065532 0.432363
Si Si5 0.308699 0.500000 0.750000
O O1 0.148417 0.227073 0.645503
O O2 0.210440 0.177385 0.344010
O O3 0.121606 0.138777 0.233482
O O4 0.721815 0.427551 0.319143
O O5 0.928797 0.068115 0.324988
O O6 0.000000 0.000000 0.500000
O O7 0.656535 0.029834 0.529220
O O8 0.587461 0.000000 0.250000
#
# Coordination Sequence:
#
# PCOD9533233 Si02
#       5
#    16   8   8  16   8
#     4  12  27  43  63  97 142 192 235 287 346 412
#     4  12  22  40  62  96 138 192 254 306 330 400
#     4  11  24  42  79 114 126 156 221 296 346 419
#     4  11  23  45  70  97 137 181 224 286 356 428
#     4  11  22  38  65  96 132 184 247 296 352 391
#
# _framework density 21.735582000000001
#
# number of rings (size 3 to 8) (size 9 to 14) (size 15 to 20)
#    0.000    0.571    4.286    4.286    4.000    2.286 
#    0.000    0.000    0.000    5.143    0.000    0.000 
#    0.000    0.000    0.000    0.000    0.000    0.000 
#
# Total GULP energy -156228.203059 kJ/mol
# GULP energy per Si atom -5579.578681 kJ/mol
# Density = 2.168611 g / cm^3
# Si number density = 21.735582 Si / 1000 Ang^3
#
#
#
# Elastic Constant Matrix: (Units=GPa)
#
#
# Indices 1 2 3 4 5 6 
#
# 1 117.4740 26.9936 42.2122 0.0000 0.0000 0.0000
# 2 26.9936 67.6724 17.2896 0.0000 0.0000 0.0000
# 3 42.2122 17.2896 107.3668 0.0000 0.0000 0.0000
# 4 0.0000 0.0000 0.0000 51.3665 0.0000 0.0000
# 5 0.0000 0.0000 0.0000 0.0000 81.0317 0.0000
# 6 0.0000 0.0000 0.0000 0.0000 0.0000 6.0898
#
#
#
# Elastic Compliance Matrix: (Units=1/GPa)
#
#
# Indices 1 2 3 4 5 6 
#
# 1 0.010572 -0.003290 -0.003627 0.000000 0.000000 0.000000
# 2 -0.003290 0.016435 -0.001353 0.000000 0.000000 0.000000
# 3 -0.003627 -0.001353 0.010958 0.000000 0.000000 0.000000
# 4 0.000000 0.000000 0.000000 0.019468 0.000000 0.000000
# 5 0.000000 0.000000 0.000000 0.000000 0.012341 0.000000
# 6 0.000000 0.000000 0.000000 0.000000 0.000000 0.164210
#
#
# Mechanical properties :
#
#
# Convention : Reuss Voigt Hill
#
# Bulk Modulus (GPa) = 46.67497 51.72268 49.19882
# Shear Modulus (GPa) = 19.40510 41.43211 30.41860
#
# Velocity S-wave (km/s) = 2.99118 4.37073 3.74503
# Velocity P-wave (km/s) = 5.78361 7.02275 6.43309
#
# Compressibility (1/GPa) = 0.02142476
#
# Stress axis : x y z
#
# Youngs Moduli (GPa) = 94.59204 60.84491 91.26137
#
# Poissons Ratio (x) = 0.20020 0.33096
# Poissons Ratio (y) = 0.31124 0.12347
# Poissons Ratio (z) = 0.34304 0.08232
#
# Static dielectric constant tensor:
#      x y z
#    x 1.851950 0.000000 0.000000 
#    y 0.000000 1.766840 0.000000 
#    z 0.000000 0.000000 1.800150 
# 
# From -- ./inp_files/1038.got.cif
#   From: 2010.05.17/outbox.cif.g08.bks.cpg/sg73_1_cif.got.tgz:1038.got - 2010.06.03 17:35:07.
