data_PCOD9533878
_publ_section_title
;
Structure prediction by ZEFSAII (Michael W. Deem and Ramdas Pophale) SiO2 
 PCOD9533878
Probable space group: I M M A
;
_chemical_formula_sum "Si O2"
_cell_formula_units_Z 72
_cell_length_a 13.239167
_cell_length_b 23.925918
_cell_length_c 17.164358
_cell_angle_alpha 90.000000
_cell_angle_beta 90.000000
_cell_angle_gamma 90.000000
_cell_volume 5436.968721
_symmetry_space_group_name_H-M "I M M A"
_symmetry_group_IT_number 74
_symmetry_cell_setting 'orthorhombic'
loop_
_space_group_symop_operation_xyz
x,y,z
-x,1/2-y,z
x,-y,-z
-x,1/2+y,-z
-x,-y,-z
x,1/2+y,-z
-x,y,z
x,1/2-y,z
1/2+x,1/2+y,1/2+z
1/2-x,-y,1/2+z
1/2+x,1/2-y,1/2-z
1/2-x,y,1/2-z
1/2-x,1/2-y,1/2-z
1/2+x,y,1/2-z
1/2-x,1/2+y,1/2+z
1/2+x,-y,1/2+z
loop_
_atom_site_type_symbol
_atom_site_label
_atom_site_fract_x
_atom_site_fract_y
_atom_site_fract_z
Si Si1 0.305499 0.512999 0.374923
Si Si2 0.381254 0.684392 0.617037
Si Si3 0.620183 0.416291 0.491588
Si Si4 0.750000 0.372546 0.250000
Si Si5 0.382772 0.477074 0.208350
O O1 0.333846 0.566870 0.425400
O O2 0.336142 0.460082 0.428413
O O3 0.364215 0.504959 0.293391
O O4 0.187916 0.509279 0.352792
O O5 0.500000 0.674870 0.638670
O O6 0.368333 0.750000 0.602134
O O7 0.361376 0.645245 0.542224
O O8 0.307371 0.663720 0.685406
O O9 0.500000 0.425298 0.495845
O O10 0.666714 0.415270 0.214641
O O11 0.500000 0.475557 0.189970
#
# Coordination Sequence:
#
# PCOD9533878 Si02
#       5
#    16  16  16   8  16
#     4   9  17  26  43  62  83 109 137 168 212 252
#     4  10  19  29  43  62  83 111 145 177 206 237
#     4  10  16  27  43  61  83 108 140 173 210 247
#     4  10  17  28  42  58  88 116 141 164 200 248
#     4  10  17  27  42  64  87 111 139 169 202 251
#
# _framework density 13.242673
#
# number of rings (size 3 to 8) (size 9 to 14) (size 15 to 20)
#    0.000    2.444    4.444    3.667    0.000    0.000 
#    0.000    2.222    0.000    0.000    0.000    3.111 
#    0.000    1.778    0.000    0.000    0.000    0.000 
#
# Total GULP energy -200429.082123 kJ/mol
# GULP energy per Si atom -5567.474503 kJ/mol
# Density = 1.321253 g / cm^3
# Si number density = 13.242673 Si / 1000 Ang^3
#
#
#
# Elastic Constant Matrix: (Units=GPa)
#
#
# Indices 1 2 3 4 5 6 
#
# 1 112.2889 43.5481 44.1994 0.0000 0.0000 0.0000
# 2 43.5481 86.5152 52.1503 0.0000 0.0000 0.0000
# 3 44.1994 52.1503 71.7873 0.0000 0.0000 0.0000
# 4 0.0000 0.0000 0.0000 16.5963 0.0000 0.0000
# 5 0.0000 0.0000 0.0000 0.0000 17.5786 0.0000
# 6 0.0000 0.0000 0.0000 0.0000 0.0000 16.6931
#
#
#
# Elastic Compliance Matrix: (Units=1/GPa)
#
#
# Indices 1 2 3 4 5 6 
#
# 1 0.012138 -0.002855 -0.005399 0.000000 0.000000 0.000000
# 2 -0.002855 0.021235 -0.013668 0.000000 0.000000 0.000000
# 3 -0.005399 -0.013668 0.027184 0.000000 0.000000 0.000000
# 4 0.000000 0.000000 0.000000 0.060254 0.000000 0.000000
# 5 0.000000 0.000000 0.000000 0.000000 0.056887 0.000000
# 6 0.000000 0.000000 0.000000 0.000000 0.000000 0.059905
#
#
# Mechanical properties :
#
#
# Convention : Reuss Voigt Hill
#
# Bulk Modulus (GPa) = 59.83967 61.15412 60.49689
# Shear Modulus (GPa) = 17.42041 18.88651 18.15346
#
# Velocity S-wave (km/s) = 3.63088 3.78058 3.70649
# Velocity P-wave (km/s) = 7.92861 8.08313 8.00624
#
# Compressibility (1/GPa) = 0.01671132
#
# Stress axis : x y z
#
# Youngs Moduli (GPa) = 82.38460 47.09217 36.78661
#
# Poissons Ratio (x) = 0.13446 0.19862
# Poissons Ratio (y) = 0.23523 0.50281
# Poissons Ratio (z) = 0.44482 0.64367
#
# Static dielectric constant tensor:
#      x y z
#    x 1.438840 0.000000 0.000000 
#    y 0.000000 1.433670 0.000000 
#    z 0.000000 0.000000 1.435410 
# 
# From -- ./inp_files/32497.got.cif
#   From: 2010.05.17/outbox.cif.g08.bks.cpg/sg74_17_cif.got.tgz:32497.got - 2010.06.03 17:57:02.
