data_PCOD9533205
_publ_section_title
;
Structure prediction by ZEFSAII (Michael W. Deem and Ramdas Pophale) SiO2 
 PCOD9533205
Probable space group: I B C A 
;
_chemical_formula_sum "Si O2"
_cell_formula_units_Z 64
_cell_length_a 13.673922
_cell_length_b 13.823324
_cell_length_c 11.549572
_cell_angle_alpha 90.000000
_cell_angle_beta 90.000000
_cell_angle_gamma 90.000000
_cell_volume 2183.089175
_symmetry_space_group_name_H-M "I B C A "
_symmetry_group_IT_number 73
_symmetry_cell_setting 'orthorhombic'
loop_
_space_group_symop_operation_xyz
x,y,z
-x,1/2-y,z
x,-y,1/2-z
1/2-x,y,-z
-x,-y,-z
x,1/2+y,-z
-x,y,1/2+z
1/2+x,-y,z
1/2+x,1/2+y,1/2+z
1/2-x,-y,1/2+z
1/2+x,1/2-y,-z
-x,1/2+y,1/2-z
1/2-x,1/2-y,1/2-z
1/2+x,y,1/2-z
1/2-x,1/2+y,z
x,1/2-y,1/2+z
loop_
_atom_site_type_symbol
_atom_site_label
_atom_site_fract_x
_atom_site_fract_y
_atom_site_fract_z
Si Si1 0.120363 0.425461 0.100848
Si Si2 0.845991 0.592073 0.169614
Si Si3 0.000000 0.750000 0.403556
Si Si4 0.750000 0.750000 0.750000
Si Si5 0.155771 0.371556 0.444953
O O1 0.226173 0.394509 0.153086
O O2 0.102959 0.539076 0.120235
O O3 0.049758 0.345168 0.150881
O O4 0.115584 0.414411 0.960452
O O5 0.864746 0.500000 0.250000
O O6 0.858932 0.688402 0.242229
O O7 0.918924 0.694873 0.485940
O O8 0.779359 0.697764 0.631664
O O9 0.250000 0.429820 0.500000
#
# Coordination Sequence:
#
# PCOD9533205 Si02
#       5
#    16  16   8   8  16
#     4  11  23  44  73 105 148 201 245 317 392 461
#     4  11  21  42  77 104 141 197 259 308 384 469
#     4  12  26  42  72 112 154 192 254 316 386 476
#     4  12  22  40  74 104 138 192 252 306 376 460
#     4  12  24  47  77 107 150 201 254 315 392 469
#
# _framework density 29.316255000000002
#
# number of rings (size 3 to 8) (size 9 to 14) (size 15 to 20)
#    0.000    0.500    7.500    2.250    0.000    0.000 
#    0.000    5.000    5.500    0.000    0.000    0.000 
#    0.000    0.000    0.000    0.000    0.000    0.000 
#
# Total GULP energy -178418.022682 kJ/mol
# GULP energy per Si atom -5575.563209 kJ/mol
# Density = 2.924953 g / cm^3
# Si number density = 29.316255 Si / 1000 Ang^3
#
#
#
# Elastic Constant Matrix: (Units=GPa)
#
#
# Indices 1 2 3 4 5 6 
#
# 1 114.9216 39.5711 28.1251 0.0000 0.0000 0.0000
# 2 39.5711 169.0661 -2.0681 0.0000 0.0000 0.0000
# 3 28.1251 -2.0681 98.4690 0.0000 0.0000 0.0000
# 4 0.0000 0.0000 0.0000 -6.6722 0.0000 0.0000
# 5 0.0000 0.0000 0.0000 0.0000 24.7226 0.0000
# 6 0.0000 0.0000 0.0000 0.0000 0.0000 40.5492
#
#
#
# Elastic Compliance Matrix: (Units=1/GPa)
#
#
# Indices 1 2 3 4 5 6 
#
# 1 0.010273 -0.002441 -0.002985 0.000000 0.000000 0.000000
# 2 -0.002441 0.006496 0.000834 0.000000 0.000000 0.000000
# 3 -0.002985 0.000834 0.011026 0.000000 0.000000 0.000000
# 4 0.000000 0.000000 0.000000 -0.149876 0.000000 0.000000
# 5 0.000000 0.000000 0.000000 0.000000 0.040449 0.000000
# 6 0.000000 0.000000 0.000000 0.000000 0.000000 0.024661
#
#
# Mechanical properties :
#
#
# Convention : Reuss Voigt Hill
#
# Bulk Modulus (GPa) = 53.73635 57.07920 55.40778
# Shear Modulus (GPa) = -120.24409 32.84182 -43.70113
#
# Velocity S-wave (km/s) = -6.41134 3.35066 -3.86512
# Velocity P-wave (km/s) = 6.03633 5.87211 0.98885
#
# Compressibility (1/GPa) = 0.01860938
#
# Stress axis : x y z
#
# Youngs Moduli (GPa) = 97.34549 153.93242 90.69728
#
# Poissons Ratio (x) = 0.37574 0.27077
# Poissons Ratio (y) = 0.23761 -0.07561
# Poissons Ratio (z) = 0.29061 -0.12832
#
# Static dielectric constant tensor:
#      x y z
#    x 2.388240 0.000000 0.000000 
#    y 0.000000 1.144110 0.000000 
#    z 0.000000 0.000000 2.079070 
# 
# From -- ./inp_files/16631.got.cif
#   From: 2010.05.17/outbox.cif.g08.bks.cpg/sg73_9_cif.got.tgz:16631.got - 2010.06.03 17:35:07.
