data_PCOD9533727
_publ_section_title
;
Structure prediction by ZEFSAII (Michael W. Deem and Ramdas Pophale) SiO2 
 PCOD9533727
Probable space group: I B C A 
;
_chemical_formula_sum "Si O2"
_cell_formula_units_Z 56
_cell_length_a 10.548078
_cell_length_b 24.999873
_cell_length_c 8.431503
_cell_angle_alpha 90.000000
_cell_angle_beta 90.000000
_cell_angle_gamma 90.000000
_cell_volume 2223.392488
_symmetry_space_group_name_H-M "I B C A "
_symmetry_group_IT_number 73
_symmetry_cell_setting 'orthorhombic'
loop_
_space_group_symop_operation_xyz
x,y,z
-x,1/2-y,z
x,-y,1/2-z
1/2-x,y,-z
-x,-y,-z
x,1/2+y,-z
-x,y,1/2+z
1/2+x,-y,z
1/2+x,1/2+y,1/2+z
1/2-x,-y,1/2+z
1/2+x,1/2-y,-z
-x,1/2+y,1/2-z
1/2-x,1/2-y,1/2-z
1/2+x,y,1/2-z
1/2-x,1/2+y,z
x,1/2-y,1/2+z
loop_
_atom_site_type_symbol
_atom_site_label
_atom_site_fract_x
_atom_site_fract_y
_atom_site_fract_z
Si Si1 0.000000 0.750000 0.618290
Si Si2 0.611905 0.353782 0.224966
Si Si3 0.250000 0.287983 0.500000
Si Si4 0.925213 0.000000 0.750000
Si Si5 0.436682 0.924139 0.996672
O O1 0.986196 0.695795 0.717881
O O2 0.873642 0.747849 0.513164
O O3 0.624849 0.378631 0.396493
O O4 0.737299 0.327334 0.150555
O O5 0.552652 0.396737 0.101083
O O6 0.857557 0.957023 0.635890
O O7 0.008064 0.965479 0.873178
#
# Coordination Sequence:
#
# PCOD9533727 Si02
#       5
#     8  16   8   8  16
#     4   8  18  36  56  90 122 192 230 294 326 432
#     4   9  18  33  56  86 126 180 226 284 341 424
#     4   8  18  38  58  84 134 184 240 274 350 410
#     4   8  16  30  56  88 122 164 218 290 352 438
#     4   9  16  31  56  88 122 169 226 281 360 417
#
# _framework density 25.186736
#
# number of rings (size 3 to 8) (size 9 to 14) (size 15 to 20)
#    1.714    1.714    0.000    0.000    0.000    1.143 
#    0.000    5.714    0.000   15.429    0.000    8.000 
#    0.000    0.000    0.000   21.571    0.000    0.000 
#
# Total GULP energy -156188.430547 kJ/mol
# GULP energy per Si atom -5578.158234 kJ/mol
# Density = 2.512941 g / cm^3
# Si number density = 25.186736 Si / 1000 Ang^3
#
#
#
# Elastic Constant Matrix: (Units=GPa)
#
#
# Indices 1 2 3 4 5 6 
#
# 1 104.5341 45.2070 57.8580 0.0000 0.0001 0.0000
# 2 45.2070 148.2342 91.4588 0.0001 0.0001 0.0001
# 3 57.8580 91.4588 185.0490 -0.0002 0.0009 0.0001
# 4 0.0000 0.0001 -0.0002 54.0656 0.0001 0.0000
# 5 0.0001 0.0001 0.0009 0.0001 13.2159 -0.0001
# 6 0.0000 0.0001 0.0001 0.0000 -0.0001 16.1269
#
#
#
# Elastic Compliance Matrix: (Units=1/GPa)
#
#
# Indices 1 2 3 4 5 6 
#
# 1 0.011938 -0.001925 -0.002781 0.000000 0.000000 0.000000
# 2 -0.001925 0.010016 -0.004349 0.000000 0.000000 0.000000
# 3 -0.002781 -0.004349 0.008423 0.000000 -0.000001 0.000000
# 4 0.000000 0.000000 0.000000 0.018496 0.000000 0.000000
# 5 0.000000 0.000000 -0.000001 0.000000 0.075666 0.000001
# 6 0.000000 0.000000 0.000000 0.000000 0.000001 0.062008
#
#
# Mechanical properties :
#
#
# Convention : Reuss Voigt Hill
#
# Bulk Modulus (GPa) = 81.51450 91.87389 86.69420
# Shear Modulus (GPa) = 23.95253 32.90124 28.42689
#
# Velocity S-wave (km/s) = 3.08717 3.61819 3.36318
# Velocity P-wave (km/s) = 6.71877 7.34924 7.04106
#
# Compressibility (1/GPa) = 0.01226776
#
# Stress axis : x y z
#
# Youngs Moduli (GPa) = 83.76593 99.83938 118.72483
#
# Poissons Ratio (x) = 0.19216 0.33021
# Poissons Ratio (y) = 0.16122 0.51628
# Poissons Ratio (z) = 0.23298 0.43416
#
# Static dielectric constant tensor:
#      x y z
#    x 1.952120 0.000000 0.000000 
#    y 0.000000 2.056380 0.000000 
#    z 0.000000 0.000000 2.006650 
# 
# From -- ./inp_files/3927.got.cif
#   From: 2010.05.17/outbox.cif.g08.bks.cpg/sg73_2_cif.got.tgz:3927.got - 2010.06.03 17:35:07.
