data_PCOD9533033
_publ_section_title
;
Structure prediction by ZEFSAII (Michael W. Deem and Ramdas Pophale) SiO2 
 PCOD9533033
Probable space group: I B C A 
;
_chemical_formula_sum "Si O2"
_cell_formula_units_Z 80
_cell_length_a 20.732061
_cell_length_b 10.995679
_cell_length_c 14.635055
_cell_angle_alpha 90.000000
_cell_angle_beta 90.000000
_cell_angle_gamma 90.000000
_cell_volume 3336.252327
_symmetry_space_group_name_H-M "I B C A "
_symmetry_group_IT_number 73
_symmetry_cell_setting 'orthorhombic'
loop_
_space_group_symop_operation_xyz
x,y,z
-x,1/2-y,z
x,-y,1/2-z
1/2-x,y,-z
-x,-y,-z
x,1/2+y,-z
-x,y,1/2+z
1/2+x,-y,z
1/2+x,1/2+y,1/2+z
1/2-x,-y,1/2+z
1/2+x,1/2-y,-z
-x,1/2+y,1/2-z
1/2-x,1/2-y,1/2-z
1/2+x,y,1/2-z
1/2-x,1/2+y,z
x,1/2-y,1/2+z
loop_
_atom_site_type_symbol
_atom_site_label
_atom_site_fract_x
_atom_site_fract_y
_atom_site_fract_z
Si Si1 0.094333 0.105448 0.934417
Si Si2 0.733049 0.559278 0.345803
Si Si3 0.652837 0.284425 0.898663
Si Si4 0.500000 0.250000 0.180560
Si Si5 0.536627 0.862163 0.644652
Si Si6 0.250000 0.124762 0.500000
O O1 0.164373 0.093235 0.888021
O O2 0.058806 0.219446 0.886628
O O3 0.050938 0.986259 0.908812
O O4 0.110518 0.120451 0.042012
O O5 0.721723 0.500000 0.250000
O O6 0.787900 0.661490 0.342458
O O7 0.762673 0.460319 0.414426
O O8 0.607354 0.197291 0.840186
O O9 0.688372 0.204500 0.975723
O O10 0.498527 0.139816 0.256180
O O11 0.500000 0.750000 0.593677
#
# Coordination Sequence:
#
# PCOD9533033 Si02
#       6
#    16  16  16   8  16   8
#     4  12  23  49  73 101 151 195 244 315 382 443
#     4  12  25  44  77 110 149 197 240 321 384 454
#     4  12  24  46  74 110 145 195 251 312 385 452
#     4  10  26  44  70 104 136 198 252 300 374 464
#     4  10  25  47  68  98 146 188 251 306 361 453
#     4  12  22  48  70 114 152 186 254 300 384 472
#
# _framework density 23.979001
#
# number of rings (size 3 to 8) (size 9 to 14) (size 15 to 20)
#    0.600    0.000    6.000    1.800    1.400    3.200 
#    7.200    0.000    0.000    0.000    0.000    0.000 
#    0.000    0.000    0.000    0.000    0.000    0.000 
#
# Total GULP energy -223254.372460 kJ/mol
# GULP energy per Si atom -5581.359311 kJ/mol
# Density = 2.392442 g / cm^3
# Si number density = 23.979001 Si / 1000 Ang^3
#
#
#
# Elastic Constant Matrix: (Units=GPa)
#
#
# Indices 1 2 3 4 5 6 
#
# 1 98.1038 42.0035 -2.8014 0.0000 0.0000 0.0000
# 2 42.0035 67.0937 -1.7859 0.0000 0.0000 0.0000
# 3 -2.8014 -1.7859 61.6231 0.0000 0.0000 0.0000
# 4 0.0000 0.0000 0.0000 28.0497 0.0000 0.0000
# 5 0.0000 0.0000 0.0000 0.0000 29.3915 0.0000
# 6 0.0000 0.0000 0.0000 0.0000 0.0000 52.6815
#
#
#
# Elastic Compliance Matrix: (Units=1/GPa)
#
#
# Indices 1 2 3 4 5 6 
#
# 1 0.013935 -0.008714 0.000381 0.000000 0.000000 0.000000
# 2 -0.008714 0.020365 0.000194 0.000000 0.000000 0.000000
# 3 0.000381 0.000194 0.016251 0.000000 0.000000 0.000000
# 4 0.000000 0.000000 0.000000 0.035651 0.000000 0.000000
# 5 0.000000 0.000000 0.000000 0.000000 0.034023 0.000000
# 6 0.000000 0.000000 0.000000 0.000000 0.000000 0.018982
#
#
# Mechanical properties :
#
#
# Convention : Reuss Voigt Hill
#
# Bulk Modulus (GPa) = 29.17748 33.51700 31.34724
# Shear Modulus (GPa) = 29.95646 34.65148 32.30397
#
# Velocity S-wave (km/s) = 3.53835 3.80554 3.67437
# Velocity P-wave (km/s) = 5.37472 5.77213 5.57696
#
# Compressibility (1/GPa) = 0.03427300
#
# Stress axis : x y z
#
# Youngs Moduli (GPa) = 71.76175 49.10411 61.53612
#
# Poissons Ratio (x) = 0.42788 -0.02344
# Poissons Ratio (y) = 0.62532 -0.01194
# Poissons Ratio (z) = -0.02734 -0.00953
#
# Static dielectric constant tensor:
#      x y z
#    x 1.367290 0.000000 0.000000 
#    y 0.000000 2.032440 0.000000 
#    z 0.000000 0.000000 1.895080 
# 
# From -- ./inp_files/19217.got.cif
#   From: 2010.05.17/outbox.cif.g08.bks.cpg/sg73_10_cif.got.tgz:19217.got - 2010.06.03 17:35:07.
