data_PCOD9533213
_publ_section_title
;
Structure prediction by ZEFSAII (Michael W. Deem and Ramdas Pophale) SiO2 
 PCOD9533213
Probable space group: I B C A 
;
_chemical_formula_sum "Si O2"
_cell_formula_units_Z 112
_cell_length_a 28.120961
_cell_length_b 11.763665
_cell_length_c 14.550465
_cell_angle_alpha 90.000000
_cell_angle_beta 90.000000
_cell_angle_gamma 90.000000
_cell_volume 4813.374791
_symmetry_space_group_name_H-M "I B C A "
_symmetry_group_IT_number 73
_symmetry_cell_setting 'orthorhombic'
loop_
_space_group_symop_operation_xyz
x,y,z
-x,1/2-y,z
x,-y,1/2-z
1/2-x,y,-z
-x,-y,-z
x,1/2+y,-z
-x,y,1/2+z
1/2+x,-y,z
1/2+x,1/2+y,1/2+z
1/2-x,-y,1/2+z
1/2+x,1/2-y,-z
-x,1/2+y,1/2-z
1/2-x,1/2-y,1/2-z
1/2+x,y,1/2-z
1/2-x,1/2+y,z
x,1/2-y,1/2+z
loop_
_atom_site_type_symbol
_atom_site_label
_atom_site_fract_x
_atom_site_fract_y
_atom_site_fract_z
Si Si1 0.422591 0.202614 0.119918
Si Si2 0.847844 0.455732 0.935282
Si Si3 0.789822 0.785849 0.820587
Si Si4 0.667469 0.000000 0.250000
Si Si5 0.612923 0.342144 0.316745
Si Si6 0.250000 0.861129 0.500000
Si Si7 0.092596 0.546188 0.609053
Si Si8 0.953107 0.820405 0.928011
O O1 0.369514 0.168388 0.086310
O O2 0.421627 0.165335 0.226935
O O3 0.433863 0.334777 0.105148
O O4 0.452963 0.146752 0.036903
O O5 0.868844 0.536304 0.854500
O O6 0.792090 0.437571 0.954271
O O7 0.874671 0.507473 0.023711
O O8 0.750000 0.750000 0.750000
O O9 0.837632 0.720361 0.797205
O O10 0.800742 0.918618 0.809577
O O11 0.773375 0.778222 0.924756
O O12 0.631182 0.931171 0.312392
O O13 0.588321 0.267369 0.397255
O O14 0.058179 0.438179 0.624570
O O15 0.000000 0.750000 0.905520
#
# Coordination Sequence:
#
# PCOD9533213 Si02
#       8
#    16  16  16   8  16   8  16  16
#     4  11  23  45  71  99 138 192 237 303 374 449
#     4  11  25  43  67 101 143 193 243 307 380 445
#     4  12  27  41  68 105 143 199 258 314 373 450
#     4  12  22  44  66 106 140 202 256 306 370 458
#     4  12  24  46  72  98 147 190 245 309 381 456
#     4  12  26  44  64 102 152 190 252 314 380 452
#     4  11  21  44  72  95 143 193 238 299 377 451
#     4  11  25  45  73 110 141 181 246 310 385 462
#
# _framework density 23.268497
#
# number of rings (size 3 to 8) (size 9 to 14) (size 15 to 20)
#    0.000    0.571    5.714    2.143    2.000    1.714 
#    0.000    0.000    3.143    0.000    0.000    0.000 
#    0.000    0.000    0.000    0.000    0.000    0.000 
#
# Total GULP energy -312488.589268 kJ/mol
# GULP energy per Si atom -5580.153380 kJ/mol
# Density = 2.321554 g / cm^3
# Si number density = 23.268497 Si / 1000 Ang^3
#
#
#
# Elastic Constant Matrix: (Units=GPa)
#
#
# Indices 1 2 3 4 5 6 
#
# 1 94.7194 31.5301 13.7425 0.0000 0.0000 0.0000
# 2 31.5301 96.8874 2.9479 0.0000 0.0000 0.0000
# 3 13.7425 2.9479 107.8568 0.0000 0.0000 0.0000
# 4 0.0000 0.0000 0.0000 37.2975 0.0000 0.0000
# 5 0.0000 0.0000 0.0000 0.0000 17.7475 0.0000
# 6 0.0000 0.0000 0.0000 0.0000 0.0000 -21.7289
#
#
#
# Elastic Compliance Matrix: (Units=1/GPa)
#
#
# Indices 1 2 3 4 5 6 
#
# 1 0.012057 -0.003880 -0.001430 0.000000 0.000000 0.000000
# 2 -0.003880 0.011579 0.000178 0.000000 0.000000 0.000000
# 3 -0.001430 0.000178 0.009449 0.000000 0.000000 0.000000
# 4 0.000000 0.000000 0.000000 0.026811 0.000000 0.000000
# 5 0.000000 0.000000 0.000000 0.000000 0.056346 0.000000
# 6 0.000000 0.000000 0.000000 0.000000 0.000000 -0.046022
#
#
# Mechanical properties :
#
#
# Convention : Reuss Voigt Hill
#
# Bulk Modulus (GPa) = 43.82223 43.98939 43.90581
# Shear Modulus (GPa) = 56.75953 23.41275 40.08614
#
# Velocity S-wave (km/s) = 4.94431 3.17551 4.15512
# Velocity P-wave (km/s) = 7.17420 5.69133 6.47536
#
# Compressibility (1/GPa) = 0.02281947
#
# Stress axis : x y z
#
# Youngs Moduli (GPa) = 82.94223 86.36670 105.83235
#
# Poissons Ratio (x) = 0.33511 0.15135
# Poissons Ratio (y) = 0.32182 -0.01883
# Poissons Ratio (z) = 0.11862 -0.01537
#
# Static dielectric constant tensor:
#      x y z
#    x 1.832900 0.000000 0.000000 
#    y 0.000000 1.908740 0.000000 
#    z 0.000000 0.000000 1.931820 
# 
# From -- ./inp_files/11309.got.cif
#   From: 2010.05.17/outbox.cif.g08.bks.cpg/sg73_6_cif.got.tgz:11309.got - 2010.06.03 17:35:07.
