data_PCOD9533036
_publ_section_title
;
Structure prediction by ZEFSAII (Michael W. Deem and Ramdas Pophale) SiO2 
 PCOD9533036
Probable space group: I B C A 
;
_chemical_formula_sum "Si O2"
_cell_formula_units_Z 80
_cell_length_a 15.716728
_cell_length_b 28.308167
_cell_length_c 8.562328
_cell_angle_alpha 90.000000
_cell_angle_beta 90.000000
_cell_angle_gamma 90.000000
_cell_volume 3809.480428
_symmetry_space_group_name_H-M "I B C A "
_symmetry_group_IT_number 73
_symmetry_cell_setting 'orthorhombic'
loop_
_space_group_symop_operation_xyz
x,y,z
-x,1/2-y,z
x,-y,1/2-z
1/2-x,y,-z
-x,-y,-z
x,1/2+y,-z
-x,y,1/2+z
1/2+x,-y,z
1/2+x,1/2+y,1/2+z
1/2-x,-y,1/2+z
1/2+x,1/2-y,-z
-x,1/2+y,1/2-z
1/2-x,1/2-y,1/2-z
1/2+x,y,1/2-z
1/2-x,1/2+y,z
x,1/2-y,1/2+z
loop_
_atom_site_type_symbol
_atom_site_label
_atom_site_fract_x
_atom_site_fract_y
_atom_site_fract_z
Si Si1 0.339899 0.206903 0.581259
Si Si2 0.276800 0.051926 0.182126
Si Si3 0.921251 0.714724 0.754047
Si Si4 0.938614 0.611587 0.606315
Si Si5 0.885686 0.110668 0.755197
O O1 0.250000 0.199433 0.500000
O O2 0.345210 0.256318 0.672484
O O3 0.405384 0.207669 0.436835
O O4 0.360960 0.163564 0.694100
O O5 0.364410 0.081332 0.188978
O O6 0.198547 0.078775 0.266030
O O7 0.287878 0.000000 0.250000
O O8 0.250000 0.049186 0.000000
O O9 0.933794 0.664732 0.672459
O O10 0.000000 0.750000 0.733814
O O11 0.917959 0.611293 0.423105
O O12 0.034079 0.594101 0.641645
#
# Coordination Sequence:
#
# PCOD9533036 Si02
#       5
#    16  16  16  16  16
#     4  12  25  40  63  96 134 182 229 278 335 401
#     4  10  25  47  72 101 135 173 228 290 348 413
#     4  12  24  40  63  95 136 180 228 276 334 402
#     4  11  24  44  70  98 140 182 226 283 343 408
#     4  11  24  44  68 102 136 182 229 280 342 409
#
# _framework density 21.000239000000001
#
# number of rings (size 3 to 8) (size 9 to 14) (size 15 to 20)
#    0.000    0.800    2.000    4.800    0.000    7.200 
#    0.000    4.000    0.000    0.000    0.000    0.000 
#    0.000    0.000    0.000    0.000    0.000    0.000 
#
# Total GULP energy -223943.012517 kJ/mol
# GULP energy per Si atom -5598.575313 kJ/mol
# Density = 2.095244 g / cm^3
# Si number density = 21.000239 Si / 1000 Ang^3
#
#
#
# Elastic Constant Matrix: (Units=GPa)
#
#
# Indices 1 2 3 4 5 6 
#
# 1 125.4590 48.7785 19.3931 -0.0005 0.0004 0.0003
# 2 48.7785 109.2769 20.6510 -0.0020 0.0003 0.0002
# 3 19.3931 20.6510 63.4162 -0.0008 0.0004 0.0006
# 4 -0.0005 -0.0020 -0.0008 35.2503 0.0000 0.0001
# 5 0.0004 0.0003 0.0004 0.0000 38.6937 0.0000
# 6 0.0003 0.0002 0.0006 0.0001 0.0000 31.2288
#
#
#
# Elastic Compliance Matrix: (Units=1/GPa)
#
#
# Indices 1 2 3 4 5 6 
#
# 1 0.009809 -0.004062 -0.001677 0.000000 0.000000 0.000000
# 2 -0.004062 0.011433 -0.002481 0.000001 0.000000 0.000000
# 3 -0.001677 -0.002481 0.017090 0.000000 0.000000 0.000000
# 4 0.000000 0.000001 0.000000 0.028369 0.000000 0.000000
# 5 0.000000 0.000000 0.000000 0.000000 0.025844 0.000000
# 6 0.000000 0.000000 0.000000 0.000000 0.000000 0.032022
#
#
# Mechanical properties :
#
#
# Convention : Reuss Voigt Hill
#
# Bulk Modulus (GPa) = 45.67808 52.86637 49.27222
# Shear Modulus (GPa) = 33.71483 34.98986 34.35235
#
# Velocity S-wave (km/s) = 4.01115 4.08630 4.04890
# Velocity P-wave (km/s) = 6.57654 6.89149 6.73586
#
# Compressibility (1/GPa) = 0.02189234
#
# Stress axis : x y z
#
# Youngs Moduli (GPa) = 101.94586 87.46672 58.51511
#
# Poissons Ratio (x) = 0.35526 0.09813
# Poissons Ratio (y) = 0.41407 0.14517
# Poissons Ratio (z) = 0.17097 0.21700
#
# Static dielectric constant tensor:
#      x y z
#    x 1.821420 0.000000 0.000000 
#    y 0.000000 1.694450 0.000000 
#    z 0.000000 0.000000 1.742160 
# 
# From -- ./inp_files/5578.got.cif
#   From: 2010.05.17/outbox.cif.g08.bks.cpg/sg73_3_cif.got.tgz:5578.got - 2010.06.03 17:35:07.
