data_PCOD9533083
_publ_section_title
;
Structure prediction by ZEFSAII (Michael W. Deem and Ramdas Pophale) SiO2 
 PCOD9533083
Probable space group: I B C A 
;
_chemical_formula_sum "Si O2"
_cell_formula_units_Z 88
_cell_length_a 14.292965
_cell_length_b 13.869698
_cell_length_c 20.858599
_cell_angle_alpha 90.000000
_cell_angle_beta 90.000000
_cell_angle_gamma 90.000000
_cell_volume 4134.990061
_symmetry_space_group_name_H-M "I B C A "
_symmetry_group_IT_number 73
_symmetry_cell_setting 'orthorhombic'
loop_
_space_group_symop_operation_xyz
x,y,z
-x,1/2-y,z
x,-y,1/2-z
1/2-x,y,-z
-x,-y,-z
x,1/2+y,-z
-x,y,1/2+z
1/2+x,-y,z
1/2+x,1/2+y,1/2+z
1/2-x,-y,1/2+z
1/2+x,1/2-y,-z
-x,1/2+y,1/2-z
1/2-x,1/2-y,1/2-z
1/2+x,y,1/2-z
1/2-x,1/2+y,z
x,1/2-y,1/2+z
loop_
_atom_site_type_symbol
_atom_site_label
_atom_site_fract_x
_atom_site_fract_y
_atom_site_fract_z
Si Si1 0.626641 0.106147 0.356783
Si Si2 0.232187 0.768442 0.576620
Si Si3 0.491841 0.000000 0.750000
Si Si4 0.023359 0.982547 0.927757
Si Si5 0.740796 0.955730 0.574139
Si Si6 0.051707 0.348420 0.347808
O O1 0.684417 0.201345 0.374387
O O2 0.578178 0.068805 0.291557
O O3 0.538331 0.105051 0.403888
O O4 0.699063 0.024169 0.380694
O O5 0.250000 0.793419 0.500000
O O6 0.225040 0.653585 0.578073
O O7 0.141203 0.818023 0.609070
O O8 0.557509 0.923424 0.788249
O O9 0.130799 0.963763 0.911907
O O10 0.991896 0.081609 0.893634
O O11 0.000000 0.000000 0.000000
O O12 0.750000 0.987223 0.500000
O O13 0.000000 0.250000 0.329129
#
# Coordination Sequence:
#
# PCOD9533083 Si02
#       6
#    16  16   8  16  16  16
#     4  11  22  44  62  93 132 177 235 280 342 420
#     4  11  23  40  68 104 138 173 224 292 366 434
#     4  10  26  46  68  92 134 190 246 294 334 406
#     4  11  21  38  68  99 140 179 218 290 361 427
#     4  11  22  40  67 103 139 176 222 286 365 424
#     4  11  24  46  71 100 137 190 241 290 353 416
#
# _framework density 21.281793
#
# number of rings (size 3 to 8) (size 9 to 14) (size 15 to 20)
#    0.000    1.091    3.636    3.818    2.545    1.455 
#    6.545    1.818    0.000    0.000    0.000    0.000 
#    0.000    0.000    0.000    0.000    0.000    0.000 
#
# Total GULP energy -245084.070038 kJ/mol
# GULP energy per Si atom -5570.092501 kJ/mol
# Density = 2.123336 g / cm^3
# Si number density = 21.281793 Si / 1000 Ang^3
#
#
#
# Elastic Constant Matrix: (Units=GPa)
#
#
# Indices 1 2 3 4 5 6 
#
# 1 108.8329 3.8099 5.5438 0.0000 0.0000 0.0000
# 2 3.8099 101.2556 13.1322 0.0000 0.0000 0.0000
# 3 5.5438 13.1322 81.9551 0.0000 0.0000 0.0000
# 4 0.0000 0.0000 0.0000 23.7443 0.0000 0.0000
# 5 0.0000 0.0000 0.0000 0.0000 37.8469 0.0000
# 6 0.0000 0.0000 0.0000 0.0000 0.0000 26.5465
#
#
#
# Elastic Compliance Matrix: (Units=1/GPa)
#
#
# Indices 1 2 3 4 5 6 
#
# 1 0.009227 -0.000272 -0.000581 0.000000 0.000000 0.000000
# 2 -0.000272 0.010094 -0.001599 0.000000 0.000000 0.000000
# 3 -0.000581 -0.001599 0.012497 0.000000 0.000000 0.000000
# 4 0.000000 0.000000 0.000000 0.042115 0.000000 0.000000
# 5 0.000000 0.000000 0.000000 0.000000 0.026422 0.000000
# 6 0.000000 0.000000 0.000000 0.000000 0.000000 0.037670
#
#
# Mechanical properties :
#
#
# Convention : Reuss Voigt Hill
#
# Bulk Modulus (GPa) = 37.15344 37.44617 37.29981
# Shear Modulus (GPa) = 32.91628 35.59805 34.25716
#
# Velocity S-wave (km/s) = 3.93706 4.09430 4.01645
# Velocity P-wave (km/s) = 6.17762 6.32334 6.25091
#
# Compressibility (1/GPa) = 0.02691540
#
# Stress axis : x y z
#
# Youngs Moduli (GPa) = 108.37179 99.07262 80.01737
#
# Poissons Ratio (x) = 0.02694 0.04646
# Poissons Ratio (y) = 0.02947 0.12795
# Poissons Ratio (z) = 0.06292 0.15841
#
# Static dielectric constant tensor:
#      x y z
#    x 1.755910 0.000000 0.000000 
#    y 0.000000 1.795530 0.000000 
#    z 0.000000 0.000000 1.825090 
# 
# From -- ./inp_files/16925.got.cif
#   From: 2010.05.17/outbox.cif.g08.bks.cpg/sg73_9_cif.got.tgz:16925.got - 2010.06.03 17:35:07.
