data_PCOD9533918
_publ_section_title
;
Structure prediction by ZEFSAII (Michael W. Deem and Ramdas Pophale) SiO2 
 PCOD9533918
Probable space group: I M M A
;
_chemical_formula_sum "Si O2"
_cell_formula_units_Z 128
_cell_length_a 22.548222
_cell_length_b 15.630557
_cell_length_c 19.745464
_cell_angle_alpha 90.000000
_cell_angle_beta 90.000000
_cell_angle_gamma 90.000000
_cell_volume 6959.116393
_symmetry_space_group_name_H-M "I M M A"
_symmetry_group_IT_number 74
_symmetry_cell_setting 'orthorhombic'
loop_
_space_group_symop_operation_xyz
x,y,z
-x,1/2-y,z
x,-y,-z
-x,1/2+y,-z
-x,-y,-z
x,1/2+y,-z
-x,y,z
x,1/2-y,z
1/2+x,1/2+y,1/2+z
1/2-x,-y,1/2+z
1/2+x,1/2-y,1/2-z
1/2-x,y,1/2-z
1/2-x,1/2-y,1/2-z
1/2+x,y,1/2-z
1/2-x,1/2+y,1/2+z
1/2+x,-y,1/2+z
loop_
_atom_site_type_symbol
_atom_site_label
_atom_site_fract_x
_atom_site_fract_y
_atom_site_fract_z
Si Si1 0.811992 0.889462 0.216797
Si Si2 0.261978 0.601605 0.574545
Si Si3 0.861622 0.609978 0.355257
Si Si4 0.432286 0.847559 0.022568
Si Si5 0.235256 0.892454 0.078920
Si Si6 0.565419 0.650169 0.778938
Si Si7 0.629556 0.414262 0.098812
Si Si8 0.689059 0.096079 0.288253
O O1 0.750000 0.859873 0.250000
O O2 0.858994 0.868192 0.275679
O O3 0.810996 0.864133 0.137635
O O4 0.809085 0.992763 0.214229
O O5 0.273654 0.634595 0.498778
O O6 0.263458 0.496868 0.574655
O O7 0.195463 0.624289 0.598440
O O8 0.305648 0.627698 0.634531
O O9 0.913885 0.648666 0.399226
O O10 0.799549 0.634710 0.392016
O O11 0.866202 0.507794 0.367697
O O12 0.500000 0.872930 0.014019
O O13 0.423877 0.750000 0.999087
O O14 0.390906 0.908790 0.978503
O O15 0.500000 0.611837 0.762983
O O16 0.561636 0.750000 0.765122
O O17 0.580796 0.635151 0.857628
O O18 0.625649 0.619551 0.742636
O O19 0.750000 0.124399 0.250000
#
# Coordination Sequence:
#
# PCOD9533918 Si02
#       8
#    16  16  16  16  16  16  16  16
#     4   8  14  26  48  74  97 118 151 203 253 287
#     4   9  15  25  48  76  98 124 160 198 245 295
#     4  10  17  30  52  72  92 125 167 206 239 288
#     4  11  24  36  44  63 100 140 170 200 244 292
#     4   8  14  25  46  75 101 119 146 199 256 296
#     4  11  23  35  46  66 101 141 172 204 251 295
#     4  11  18  33  52  72  97 127 172 207 236 290
#     4  10  16  31  48  70 100 129 166 209 245 289
#
# _framework density 18.393139000000001
#
# number of rings (size 3 to 8) (size 9 to 14) (size 15 to 20)
#    0.000    2.250    3.750    2.625    0.000    2.750 
#    0.000    0.000    0.000    3.375    0.000    7.875 
#    0.000    2.000    0.000    0.000    0.000    0.000 
#
# Total GULP energy -356373.023235 kJ/mol
# GULP energy per Si atom -5568.328488 kJ/mol
# Density = 1.835128 g / cm^3
# Si number density = 18.393139 Si / 1000 Ang^3
#
#
#
# Elastic Constant Matrix: (Units=GPa)
#
#
# Indices 1 2 3 4 5 6 
#
# 1 83.9599 12.0623 43.9680 0.0000 0.0000 0.0000
# 2 12.0623 17.9030 7.6371 0.0000 0.0000 0.0000
# 3 43.9680 7.6371 123.0865 0.0000 0.0000 0.0000
# 4 0.0000 0.0000 0.0000 0.8837 0.0000 0.0000
# 5 0.0000 0.0000 0.0000 0.0000 2.7487 0.0000
# 6 0.0000 0.0000 0.0000 0.0000 0.0000 3.0637
#
#
#
# Elastic Compliance Matrix: (Units=1/GPa)
#
#
# Indices 1 2 3 4 5 6 
#
# 1 0.015809 -0.008467 -0.005122 0.000000 0.000000 0.000000
# 2 -0.008467 0.061910 -0.000817 0.000000 0.000000 0.000000
# 3 -0.005122 -0.000817 0.010005 0.000000 0.000000 0.000000
# 4 0.000000 0.000000 0.000000 1.131569 0.000000 0.000000
# 5 0.000000 0.000000 0.000000 0.000000 0.363808 0.000000
# 6 0.000000 0.000000 0.000000 0.000000 0.000000 0.326398
#
#
# Mechanical properties :
#
#
# Convention : Reuss Voigt Hill
#
# Bulk Modulus (GPa) = 16.97431 39.14269 28.05850
# Shear Modulus (GPa) = 2.55370 12.09137 7.32253
#
# Velocity S-wave (km/s) = 1.17958 2.56673 1.99744
# Velocity P-wave (km/s) = 3.33224 5.48739 4.53957
#
# Compressibility (1/GPa) = 0.05891257
#
# Stress axis : x y z
#
# Youngs Moduli (GPa) = 63.25495 16.15257 99.95362
#
# Poissons Ratio (x) = 0.13676 0.51195
# Poissons Ratio (y) = 0.53556 0.08165
# Poissons Ratio (z) = 0.32398 0.01319
#
# Static dielectric constant tensor:
#      x y z
#    x 1.630880 0.000000 0.000000 
#    y 0.000000 1.698830 0.000000 
#    z 0.000000 0.000000 1.687210 
# 
# From -- ./inp_files/54189.got.cif
#   From: 2010.05.17/outbox.cif.g08.bks.cpg/sg74_28_cif.got.tgz:54189.got - 2010.06.03 17:57:02.
