data_PCOD9533424
_publ_section_title
;
Structure prediction by ZEFSAII (Michael W. Deem and Ramdas Pophale) SiO2 
 PCOD9533424
Probable space group: I B C A 
;
_chemical_formula_sum "Si O2"
_cell_formula_units_Z 112
_cell_length_a 11.633089
_cell_length_b 29.635402
_cell_length_c 14.520086
_cell_angle_alpha 90.000000
_cell_angle_beta 90.000000
_cell_angle_gamma 90.000000
_cell_volume 5005.818075
_symmetry_space_group_name_H-M "I B C A "
_symmetry_group_IT_number 73
_symmetry_cell_setting 'orthorhombic'
loop_
_space_group_symop_operation_xyz
x,y,z
-x,1/2-y,z
x,-y,1/2-z
1/2-x,y,-z
-x,-y,-z
x,1/2+y,-z
-x,y,1/2+z
1/2+x,-y,z
1/2+x,1/2+y,1/2+z
1/2-x,-y,1/2+z
1/2+x,1/2-y,-z
-x,1/2+y,1/2-z
1/2-x,1/2-y,1/2-z
1/2+x,y,1/2-z
1/2-x,1/2+y,z
x,1/2-y,1/2+z
loop_
_atom_site_type_symbol
_atom_site_label
_atom_site_fract_x
_atom_site_fract_y
_atom_site_fract_z
Si Si1 0.574751 0.452357 0.904754
Si Si2 0.628930 0.322924 0.027853
Si Si3 0.200777 0.906966 0.653462
Si Si4 0.523619 0.947085 0.388029
Si Si5 0.041788 0.639505 0.371210
Si Si6 0.204444 0.368581 0.845222
Si Si7 0.513613 0.700574 0.801177
O O1 0.706631 0.438975 0.893614
O O2 0.563473 0.502584 0.865704
O O3 0.504398 0.411245 0.859941
O O4 0.528479 0.450649 0.009080
O O5 0.667173 0.368238 0.081362
O O6 0.561412 0.296656 0.106334
O O7 0.750000 0.300722 0.000000
O O8 0.544253 0.336430 0.944331
O O9 0.257119 0.885838 0.744101
O O10 0.084037 0.933080 0.673811
O O11 0.619776 0.907796 0.383503
O O12 0.175785 0.638047 0.399283
O O13 0.033398 0.665831 0.274895
O O14 0.134230 0.322044 0.831492
O O15 0.500000 0.750000 0.758225
#
# Coordination Sequence:
#
# PCOD9533424 Si02
#       7
#    16  16  16  16  16  16  16
#     4  11  24  43  71 104 142 197 245 292 354 433
#     4  12  23  49  80 101 146 203 237 288 383 454
#     4  12  22  47  72 100 146 200 242 289 361 444
#     4  11  25  44  70 106 147 192 250 297 356 428
#     4  12  25  47  75 108 148 195 241 307 370 434
#     4  12  25  47  72 106 147 185 244 313 361 425
#     4  12  28  51  76 111 144 183 246 312 376 446
#
# _framework density 22.373964999999998
#
# number of rings (size 3 to 8) (size 9 to 14) (size 15 to 20)
#    0.000    0.286    7.143    0.429    2.000    4.000 
#    2.571    0.000    0.000    0.000    0.000    0.000 
#    0.000    0.000    0.000    0.000    0.000    0.000 
#
# Total GULP energy -313231.848651 kJ/mol
# GULP energy per Si atom -5593.425869 kJ/mol
# Density = 2.232304 g / cm^3
# Si number density = 22.373965 Si / 1000 Ang^3
#
#
#
# Elastic Constant Matrix: (Units=GPa)
#
#
# Indices 1 2 3 4 5 6 
#
# 1 168.8279 37.9298 34.7000 0.0001 -0.0001 0.0000
# 2 37.9298 112.5602 5.1482 0.0000 -0.0001 0.0000
# 3 34.7000 5.1482 100.8668 -0.0001 0.0002 -0.0002
# 4 0.0001 0.0000 -0.0001 22.8121 0.0000 0.0000
# 5 -0.0001 -0.0001 0.0002 0.0000 40.2424 0.0000
# 6 0.0000 0.0000 -0.0002 0.0000 0.0000 15.6697
#
#
#
# Elastic Compliance Matrix: (Units=1/GPa)
#
#
# Indices 1 2 3 4 5 6 
#
# 1 0.006885 -0.002217 -0.002255 0.000000 0.000000 0.000000
# 2 -0.002217 0.009619 0.000272 0.000000 0.000000 0.000000
# 3 -0.002255 0.000272 0.010676 0.000000 0.000000 0.000000
# 4 0.000000 0.000000 0.000000 0.043836 0.000000 0.000000
# 5 0.000000 0.000000 0.000000 0.000000 0.024849 0.000000
# 6 0.000000 0.000000 0.000000 0.000000 0.000000 0.063818
#
#
# Mechanical properties :
#
#
# Convention : Reuss Voigt Hill
#
# Bulk Modulus (GPa) = 53.25205 59.75676 56.50441
# Shear Modulus (GPa) = 28.67904 36.04330 32.36117
#
# Velocity S-wave (km/s) = 3.58411 4.01802 3.80725
# Velocity P-wave (km/s) = 6.40159 6.94925 6.68104
#
# Compressibility (1/GPa) = 0.01877862
#
# Stress axis : x y z
#
# Youngs Moduli (GPa) = 145.24773 103.96387 93.66732
#
# Poissons Ratio (x) = 0.23047 0.21125
# Poissons Ratio (y) = 0.32199 -0.02545
# Poissons Ratio (z) = 0.32758 -0.02825
#
# Static dielectric constant tensor:
#      x y z
#    x 1.875130 0.000000 0.000000 
#    y 0.000000 1.842860 0.000000 
#    z 0.000000 0.000000 1.882660 
# 
# From -- ./inp_files/16343.got.cif
#   From: 2010.05.17/outbox.cif.g08.bks.cpg/sg73_9_cif.got.tgz:16343.got - 2010.06.03 17:35:07.
