data_PCOD9533983
_publ_section_title
;
Structure prediction by ZEFSAII (Michael W. Deem and Ramdas Pophale) SiO2 
 PCOD9533983
Probable space group: I M M A
;
_chemical_formula_sum "Si O2"
_cell_formula_units_Z 112
_cell_length_a 14.519762
_cell_length_b 29.840185
_cell_length_c 12.986234
_cell_angle_alpha 90.000000
_cell_angle_beta 90.000000
_cell_angle_gamma 90.000000
_cell_volume 5626.576567
_symmetry_space_group_name_H-M "I M M A"
_symmetry_group_IT_number 74
_symmetry_cell_setting 'orthorhombic'
loop_
_space_group_symop_operation_xyz
x,y,z
-x,1/2-y,z
x,-y,-z
-x,1/2+y,-z
-x,-y,-z
x,1/2+y,-z
-x,y,z
x,1/2-y,z
1/2+x,1/2+y,1/2+z
1/2-x,-y,1/2+z
1/2+x,1/2-y,1/2-z
1/2-x,y,1/2-z
1/2-x,1/2-y,1/2-z
1/2+x,y,1/2-z
1/2-x,1/2+y,1/2+z
1/2+x,-y,1/2+z
loop_
_atom_site_type_symbol
_atom_site_label
_atom_site_fract_x
_atom_site_fract_y
_atom_site_fract_z
Si Si1 0.396142 0.600151 0.118321
Si Si2 0.387127 0.047678 0.298532
Si Si3 0.612156 0.455432 0.063711
Si Si4 0.162354 0.700058 0.094322
Si Si5 0.611817 0.113086 0.478571
Si Si6 0.112517 0.946363 0.173321
Si Si7 0.627754 0.300542 0.825437
O O1 0.500000 0.581320 0.117080
O O2 0.354899 0.577557 0.220892
O O3 0.403557 0.653267 0.125045
O O4 0.355798 0.584601 0.010243
O O5 0.500000 0.048209 0.299520
O O6 0.354718 0.049670 0.180298
O O7 0.358826 0.087908 0.374123
O O8 0.359400 0.998034 0.336117
O O9 0.500000 0.456439 0.074025
O O10 0.637788 0.500000 0.000000
O O11 0.139723 0.750000 0.056776
O O12 0.266194 0.700131 0.137812
O O13 0.110498 0.692377 0.203161
O O14 0.146565 0.662333 0.009627
O O15 0.500000 0.115410 0.477217
O O16 0.640355 0.082129 0.574895
O O17 0.000000 0.945704 0.174413
O O18 0.595442 0.250000 0.850163
#
# Coordination Sequence:
#
# PCOD9533983 Si02
#       7
#    16  16  16  16  16  16  16
#     4  10  17  26  46  73  96 119 152 193 234 274
#     4   9  16  26  41  65  99 132 158 184 221 277
#     4   9  15  25  42  65  94 127 159 190 224 269
#     4   9  18  32  48  66  90 122 157 191 238 295
#     4  10  18  27  44  71  98 123 154 194 237 277
#     4   9  15  24  39  67  99 122 146 180 226 274
#     4   9  18  32  48  67  91 121 155 192 241 295
#
# _framework density 19.905532000000001
#
# number of rings (size 3 to 8) (size 9 to 14) (size 15 to 20)
#    0.000    2.714    2.857    1.286    0.000    2.286 
#    0.000    1.429    0.000    3.429    3.714    6.000 
#    0.000    0.000    0.000    0.000    0.000    0.000 
#
# Total GULP energy -312157.565741 kJ/mol
# GULP energy per Si atom -5574.242245 kJ/mol
# Density = 1.986023 g / cm^3
# Si number density = 19.905532 Si / 1000 Ang^3
#
#
#
# Elastic Constant Matrix: (Units=GPa)
#
#
# Indices 1 2 3 4 5 6 
#
# 1 43.4951 9.0777 8.8393 0.0000 0.0000 0.0000
# 2 9.0777 180.7302 96.6064 -0.0002 0.0000 0.0000
# 3 8.8393 96.6064 143.9995 0.0000 0.0000 0.0000
# 4 0.0000 -0.0002 0.0000 36.2151 0.0000 0.0000
# 5 0.0000 0.0000 0.0000 0.0000 10.8765 0.0000
# 6 0.0000 0.0000 0.0000 0.0000 0.0000 20.6708
#
#
#
# Elastic Compliance Matrix: (Units=1/GPa)
#
#
# Indices 1 2 3 4 5 6 
#
# 1 0.023328 -0.000633 -0.001007 0.000000 0.000000 0.000000
# 2 -0.000633 0.008644 -0.005760 0.000000 0.000000 0.000000
# 3 -0.001007 -0.005760 0.010871 0.000000 0.000000 0.000000
# 4 0.000000 0.000000 0.000000 0.027613 0.000000 0.000000
# 5 0.000000 0.000000 0.000000 0.000000 0.091941 0.000000
# 6 0.000000 0.000000 0.000000 0.000000 0.000000 0.048377
#
#
# Mechanical properties :
#
#
# Convention : Reuss Voigt Hill
#
# Bulk Modulus (GPa) = 35.66164 66.36352 51.01258
# Shear Modulus (GPa) = 21.28366 30.46592 25.87479
#
# Velocity S-wave (km/s) = 3.27346 3.91644 3.60930
# Velocity P-wave (km/s) = 5.67818 7.33914 6.56143
#
# Compressibility (1/GPa) = 0.02804133
#
# Stress axis : x y z
#
# Youngs Moduli (GPa) = 42.86701 115.68824 91.99077
#
# Poissons Ratio (x) = 0.07328 0.09264
# Poissons Ratio (y) = 0.02715 0.52988
# Poissons Ratio (z) = 0.04317 0.66638
#
# Static dielectric constant tensor:
#      x y z
#    x 1.826710 0.000000 0.000000 
#    y 0.000000 1.687670 0.000000 
#    z 0.000000 0.000000 1.696340 
# 
# From -- ./inp_files/24328.got.cif
#   From: 2010.05.17/outbox.cif.g08.bks.cpg/sg74_13_cif.got.tgz:24328.got - 2010.06.03 17:57:02.
