data_PCOD9533336
_publ_section_title
;
Structure prediction by ZEFSAII (Michael W. Deem and Ramdas Pophale) SiO2 
 PCOD9533336
Probable space group: I B C A 
;
_chemical_formula_sum "Si O2"
_cell_formula_units_Z 96
_cell_length_a 24.283877
_cell_length_b 8.469319
_cell_length_c 22.381690
_cell_angle_alpha 90.000000
_cell_angle_beta 90.000000
_cell_angle_gamma 90.000000
_cell_volume 4603.195200
_symmetry_space_group_name_H-M "I B C A "
_symmetry_group_IT_number 73
_symmetry_cell_setting 'orthorhombic'
loop_
_space_group_symop_operation_xyz
x,y,z
-x,1/2-y,z
x,-y,1/2-z
1/2-x,y,-z
-x,-y,-z
x,1/2+y,-z
-x,y,1/2+z
1/2+x,-y,z
1/2+x,1/2+y,1/2+z
1/2-x,-y,1/2+z
1/2+x,1/2-y,-z
-x,1/2+y,1/2-z
1/2-x,1/2-y,1/2-z
1/2+x,y,1/2-z
1/2-x,1/2+y,z
x,1/2-y,1/2+z
loop_
_atom_site_type_symbol
_atom_site_label
_atom_site_fract_x
_atom_site_fract_y
_atom_site_fract_z
Si Si1 0.171201 0.452830 0.184266
Si Si2 0.711807 0.590888 0.687136
Si Si3 0.890213 0.962280 0.630659
Si Si4 0.418473 0.891682 0.391288
Si Si5 0.006844 0.063644 0.186895
Si Si6 0.455858 0.379176 0.476457
O O1 0.148573 0.500000 0.250000
O O2 0.223947 0.565504 0.173404
O O3 0.193567 0.273598 0.188521
O O4 0.126599 0.482357 0.132308
O O5 0.702999 0.500000 0.750000
O O6 0.672811 0.505048 0.639608
O O7 0.901492 0.776772 0.635078
O O8 0.915416 0.046681 0.571962
O O9 0.928094 0.035911 0.682083
O O10 0.422965 0.849951 0.461720
O O11 0.475434 0.960485 0.363920
O O12 0.000000 0.250000 0.181893
O O13 0.985916 0.000000 0.250000
O O14 0.500000 0.250000 0.452903
O O15 0.500000 0.500000 0.500000
#
# Coordination Sequence:
#
# PCOD9533336 Si02
#       6
#    16  16  16  16  16  16
#     4  11  23  42  67  94 129 166 212 261 324 383
#     4  11  23  42  67  95 128 167 210 263 321 386
#     4  12  24  40  64  91 127 164 214 258 319 380
#     4  12  24  41  63  92 125 167 210 263 315 383
#     4  12  24  38  58  88 125 160 205 257 317 379
#     4  12  24  43  66  92 128 171 215 260 315 378
#
# _framework density 20.855080999999998
#
# number of rings (size 3 to 8) (size 9 to 14) (size 15 to 20)
#    0.000    0.333    3.333    8.000    2.333    0.000 
#    0.000    0.833    0.000    4.000    0.000    0.000 
#    0.000    0.000    0.000    0.000    0.000    0.000 
#
# Total GULP energy -268035.084514 kJ/mol
# GULP energy per Si atom -5584.064261 kJ/mol
# Density = 2.080761 g / cm^3
# Si number density = 20.855081 Si / 1000 Ang^3
#
#
#
# Elastic Constant Matrix: (Units=GPa)
#
#
# Indices 1 2 3 4 5 6 
#
# 1 73.4385 -17.6447 18.6100 0.0000 0.0000 0.0000
# 2 -17.6447 95.1492 -1.0871 0.0000 0.0000 0.0000
# 3 18.6100 -1.0871 95.4679 0.0000 0.0000 0.0000
# 4 0.0000 0.0000 0.0000 22.0393 0.0000 0.0000
# 5 0.0000 0.0000 0.0000 0.0000 23.2277 0.0000
# 6 0.0000 0.0000 0.0000 0.0000 0.0000 34.7188
#
#
#
# Elastic Compliance Matrix: (Units=1/GPa)
#
#
# Indices 1 2 3 4 5 6 
#
# 1 0.015011 0.002751 -0.002895 0.000000 0.000000 0.000000
# 2 0.002751 0.011015 -0.000411 0.000000 0.000000 0.000000
# 3 -0.002895 -0.000411 0.011034 0.000000 0.000000 0.000000
# 4 0.000000 0.000000 0.000000 0.045374 0.000000 0.000000
# 5 0.000000 0.000000 0.000000 0.000000 0.043052 0.000000
# 6 0.000000 0.000000 0.000000 0.000000 0.000000 0.028803
#
#
# Mechanical properties :
#
#
# Convention : Reuss Voigt Hill
#
# Bulk Modulus (GPa) = 27.81576 29.31246 28.56411
# Shear Modulus (GPa) = 29.87164 33.60900 31.74032
#
# Velocity S-wave (km/s) = 3.78874 4.01877 3.90545
# Velocity P-wave (km/s) = 5.70140 5.96823 5.83634
#
# Compressibility (1/GPa) = 0.03595084
#
# Stress axis : x y z
#
# Youngs Moduli (GPa) = 66.61647 90.78365 90.62598
#
# Poissons Ratio (x) = -0.24971 0.26235
# Poissons Ratio (y) = -0.18324 0.03723
# Poissons Ratio (z) = 0.19285 0.03729
#
# Static dielectric constant tensor:
#      x y z
#    x 1.743810 0.000000 0.000000 
#    y 0.000000 1.719870 0.000000 
#    z 0.000000 0.000000 1.836520 
# 
# From -- ./inp_files/27528.got.cif
#   From: 2010.05.17/outbox.cif.g08.bks.cpg/sg73_14_cif.got.tgz:27528.got - 2010.06.03 17:35:07.
