data_PCOD9534162
_publ_section_title
;
Structure prediction by ZEFSAII (Michael W. Deem and Ramdas Pophale) SiO2 
 PCOD9534162
Probable space group: I M M A
;
_chemical_formula_sum "Si O2"
_cell_formula_units_Z 72
_cell_length_a 16.907067
_cell_length_b 27.228790
_cell_length_c 8.902030
_cell_angle_alpha 90.000000
_cell_angle_beta 90.000000
_cell_angle_gamma 90.000000
_cell_volume 4098.129423
_symmetry_space_group_name_H-M "I M M A"
_symmetry_group_IT_number 74
_symmetry_cell_setting 'orthorhombic'
loop_
_space_group_symop_operation_xyz
x,y,z
-x,1/2-y,z
x,-y,-z
-x,1/2+y,-z
-x,-y,-z
x,1/2+y,-z
-x,y,z
x,1/2-y,z
1/2+x,1/2+y,1/2+z
1/2-x,-y,1/2+z
1/2+x,1/2-y,1/2-z
1/2-x,y,1/2-z
1/2-x,1/2-y,1/2-z
1/2+x,y,1/2-z
1/2-x,1/2+y,1/2+z
1/2+x,-y,1/2+z
loop_
_atom_site_type_symbol
_atom_site_label
_atom_site_fract_x
_atom_site_fract_y
_atom_site_fract_z
Si Si1 0.358451 0.054503 0.004821
Si Si2 0.250000 0.090193 0.750000
Si Si3 0.750000 0.898431 0.750000
Si Si4 0.863253 0.631680 0.004984
Si Si5 0.500000 0.692939 0.370469
Si Si6 0.500000 0.394213 0.864260
Si Si7 0.000000 0.556308 0.045964
O O1 0.310598 0.068608 0.153535
O O2 0.295590 0.057415 0.869859
O O3 0.424041 0.094911 0.965308
O O4 0.393467 0.000000 0.000000
O O5 0.188080 0.122259 0.845021
O O6 0.697291 0.867215 0.633046
O O7 0.922637 0.676523 0.034903
O O8 0.922136 0.584802 0.987419
O O9 0.500000 0.750000 0.335533
O O10 0.500000 0.657534 0.223257
O O11 0.500000 0.433461 0.725559
O O12 0.000000 0.500000 0.000000
#
# Coordination Sequence:
#
# PCOD9534162 Si02
#       7
#    16   8   8  16   8   8   8
#     4  11  21  33  53  83 121 158 194 220 275 336
#     4  10  17  36  53  74 125 147 191 234 271 326
#     4  10  23  34  55  84 121 159 181 230 295 336
#     4   9  20  37  57  84 112 150 189 241 285 343
#     4  10  20  42  68  85 102 149 200 247 299 341
#     4  10  21  38  54  82 115 147 194 252 265 340
#     4  10  20  32  54  74 116 157 200 232 275 329
#
# _framework density 17.568991
#
# number of rings (size 3 to 8) (size 9 to 14) (size 15 to 20)
#    0.000    2.222    4.444    1.000    3.111    5.333 
#    0.000    1.111    0.000    2.667    0.000    0.000 
#    0.000    0.000    0.000    0.000    0.000    0.000 
#
# Total GULP energy -200699.720683 kJ/mol
# GULP energy per Si atom -5574.992241 kJ/mol
# Density = 1.752900 g / cm^3
# Si number density = 17.568991 Si / 1000 Ang^3
#
#
#
# Elastic Constant Matrix: (Units=GPa)
#
#
# Indices 1 2 3 4 5 6 
#
# 1 98.2666 39.7979 38.9981 0.0000 0.0001 0.0000
# 2 39.7979 115.3121 33.2010 -0.0001 -0.0001 0.0000
# 3 38.9981 33.2010 94.8653 0.0011 0.0006 0.0001
# 4 0.0000 -0.0001 0.0011 10.8537 0.0001 0.0001
# 5 0.0001 -0.0001 0.0006 0.0001 35.1140 0.0000
# 6 0.0000 0.0000 0.0001 0.0001 0.0000 5.9067
#
#
#
# Elastic Compliance Matrix: (Units=1/GPa)
#
#
# Indices 1 2 3 4 5 6 
#
# 1 0.013220 -0.003334 -0.004268 0.000000 0.000000 0.000000
# 2 -0.003334 0.010485 -0.002299 0.000000 0.000000 0.000000
# 3 -0.004268 -0.002299 0.013100 -0.000001 0.000000 0.000000
# 4 0.000000 0.000000 -0.000001 0.092135 0.000000 -0.000001
# 5 0.000000 0.000000 0.000000 0.000000 0.028479 0.000000
# 6 0.000000 0.000000 0.000000 -0.000001 0.000000 0.169300
#
#
# Mechanical properties :
#
#
# Convention : Reuss Voigt Hill
#
# Bulk Modulus (GPa) = 58.81017 59.15978 58.98497
# Shear Modulus (GPa) = 14.19695 23.47134 18.83414
#
# Velocity S-wave (km/s) = 2.84574 3.65903 3.27771
# Velocity P-wave (km/s) = 6.65914 7.18313 6.92609
#
# Compressibility (1/GPa) = 0.01700386
#
# Stress axis : x y z
#
# Youngs Moduli (GPa) = 75.64060 95.37739 76.33398
#
# Poissons Ratio (x) = 0.31798 0.32579
# Poissons Ratio (y) = 0.25218 0.17548
# Poissons Ratio (z) = 0.32283 0.21926
#
# Static dielectric constant tensor:
#      x y z
#    x 1.643600 0.000000 0.000000 
#    y 0.000000 1.569280 0.000000 
#    z 0.000000 0.000000 1.614920 
# 
# From -- ./inp_files/9379.got.cif
#   From: 2010.05.17/outbox.cif.g08.bks.cpg/sg74_5_cif.got.tgz:9379.got - 2010.06.03 17:57:02.
