data_PCOD9534392
_publ_section_title
;
Structure prediction by ZEFSAII (Michael W. Deem and Ramdas Pophale) SiO2 
 PCOD9534392
Probable space group: I M M A
;
_chemical_formula_sum "Si O2"
_cell_formula_units_Z 112
_cell_length_a 26.141264
_cell_length_b 13.739156
_cell_length_c 11.954413
_cell_angle_alpha 90.000000
_cell_angle_beta 90.000000
_cell_angle_gamma 90.000000
_cell_volume 4293.533873
_symmetry_space_group_name_H-M "I M M A"
_symmetry_group_IT_number 74
_symmetry_cell_setting 'orthorhombic'
loop_
_space_group_symop_operation_xyz
x,y,z
-x,1/2-y,z
x,-y,-z
-x,1/2+y,-z
-x,-y,-z
x,1/2+y,-z
-x,y,z
x,1/2-y,z
1/2+x,1/2+y,1/2+z
1/2-x,-y,1/2+z
1/2+x,1/2-y,1/2-z
1/2-x,y,1/2-z
1/2-x,1/2-y,1/2-z
1/2+x,y,1/2-z
1/2-x,1/2+y,1/2+z
1/2+x,-y,1/2+z
loop_
_atom_site_type_symbol
_atom_site_label
_atom_site_fract_x
_atom_site_fract_y
_atom_site_fract_z
Si Si1 0.094267 0.361839 0.219419
Si Si2 0.944302 0.444294 0.766496
Si Si3 0.391342 0.858059 0.470896
Si Si4 0.195609 0.982312 0.751833
Si Si5 0.332653 0.866019 0.053951
Si Si6 0.057275 0.863000 0.477453
Si Si7 0.278471 0.860199 0.442942
O O1 0.089533 0.250000 0.253640
O O2 0.059307 0.444285 0.274342
O O3 0.150929 0.404143 0.236152
O O4 0.079468 0.367172 0.087167
O O5 0.905148 0.426928 0.868068
O O6 0.937442 0.379212 0.657143
O O7 0.000000 0.423322 0.814636
O O8 0.400088 0.750000 0.425063
O O9 0.331948 0.864652 0.507149
O O10 0.250000 0.927797 0.750000
O O11 0.175860 0.058573 0.656088
O O12 0.210905 0.058324 0.850796
O O13 0.337539 0.750000 0.084823
O O14 0.384554 0.892123 0.987303
O O15 0.276197 0.874593 0.997495
O O16 0.054660 0.750000 0.503360
O O17 0.000000 0.900936 0.505223
O O18 0.276244 0.750000 0.394188
#
# Coordination Sequence:
#
# PCOD9534392 Si02
#       7
#    16  16  16  16  16  16  16
#     4  11  23  35  45  59  83 117 155 190 221 251
#     4  11  21  33  48  62  82 114 151 191 226 256
#     4  10  20  33  48  66  87 111 144 183 226 272
#     4  10  18  29  46  65  84 110 142 180 221 268
#     4   9  15  25  44  70  93 109 135 174 217 265
#     4   9  16  26  43  68  94 117 141 171 210 259
#     4   9  16  26  45  70  89 106 133 175 223 270
#
# _framework density 26.085737000000002
#
# number of rings (size 3 to 8) (size 9 to 14) (size 15 to 20)
#    0.000    2.143    2.857    1.286    0.000    6.571 
#    0.000    1.429    0.000    0.000    0.000    0.000 
#    0.000    0.000    0.000   11.571    0.000   49.000 
#
# Total GULP energy -312395.813550 kJ/mol
# GULP energy per Si atom -5578.496671 kJ/mol
# Density = 2.602637 g / cm^3
# Si number density = 26.085737 Si / 1000 Ang^3
#
#
#
# Elastic Constant Matrix: (Units=GPa)
#
#
# Indices 1 2 3 4 5 6 
#
# 1 170.3494 4.8952 39.5523 0.0000 0.0000 0.0000
# 2 4.8952 149.6459 37.6228 0.0000 0.0000 0.0000
# 3 39.5523 37.6228 89.2518 0.0000 0.0000 0.0000
# 4 0.0000 0.0000 0.0000 20.1599 0.0000 0.0000
# 5 0.0000 0.0000 0.0000 0.0000 -5.7069 0.0000
# 6 0.0000 0.0000 0.0000 0.0000 0.0000 8.3594
#
#
#
# Elastic Compliance Matrix: (Units=1/GPa)
#
#
# Indices 1 2 3 4 5 6 
#
# 1 0.006588 0.000580 -0.003164 0.000000 0.000000 0.000000
# 2 0.000580 0.007526 -0.003429 0.000000 0.000000 0.000000
# 3 -0.003164 -0.003429 0.014052 0.000000 0.000000 0.000000
# 4 0.000000 0.000000 0.000000 0.049603 0.000000 0.000000
# 5 0.000000 0.000000 0.000000 0.000000 -0.175226 0.000000
# 6 0.000000 0.000000 0.000000 0.000000 0.000000 0.119626
#
#
# Mechanical properties :
#
#
# Convention : Reuss Voigt Hill
#
# Bulk Modulus (GPa) = 61.96166 63.70975 62.83570
# Shear Modulus (GPa) = 126.34151 26.37427 76.35789
#
# Velocity S-wave (km/s) = 6.96694 3.18317 5.41622
# Velocity P-wave (km/s) = 9.40863 6.16330 7.95326
#
# Compressibility (1/GPa) = 0.01613901
#
# Stress axis : x y z
#
# Youngs Moduli (GPa) = 151.78488 132.87886 71.16404
#
# Poissons Ratio (x) = -0.07707 0.22517
# Poissons Ratio (y) = -0.08803 0.24405
# Poissons Ratio (z) = 0.48026 0.45569
#
# Static dielectric constant tensor:
#      x y z
#    x 2.152330 0.000000 0.000000 
#    y 0.000000 2.072270 0.000000 
#    z 0.000000 0.000000 2.055640 
# 
# From -- ./inp_files/32908.got.cif
#   From: 2010.05.17/outbox.cif.g08.bks.cpg/sg74_17_cif.got.tgz:32908.got - 2010.06.03 17:57:02.
