data_PCOD9534078
_publ_section_title
;
Structure prediction by ZEFSAII (Michael W. Deem and Ramdas Pophale) SiO2 
 PCOD9534078
Probable space group: I M M A
;
_chemical_formula_sum "Si O2"
_cell_formula_units_Z 96
_cell_length_a 24.732174
_cell_length_b 22.983059
_cell_length_c 9.280778
_cell_angle_alpha 90.000000
_cell_angle_beta 90.000000
_cell_angle_gamma 90.000000
_cell_volume 5275.389244
_symmetry_space_group_name_H-M "I M M A"
_symmetry_group_IT_number 74
_symmetry_cell_setting 'orthorhombic'
loop_
_space_group_symop_operation_xyz
x,y,z
-x,1/2-y,z
x,-y,-z
-x,1/2+y,-z
-x,-y,-z
x,1/2+y,-z
-x,y,z
x,1/2-y,z
1/2+x,1/2+y,1/2+z
1/2-x,-y,1/2+z
1/2+x,1/2-y,1/2-z
1/2-x,y,1/2-z
1/2-x,1/2-y,1/2-z
1/2+x,y,1/2-z
1/2-x,1/2+y,1/2+z
1/2+x,-y,1/2+z
loop_
_atom_site_type_symbol
_atom_site_label
_atom_site_fract_x
_atom_site_fract_y
_atom_site_fract_z
Si Si1 0.754244 0.250000 0.502370
Si Si2 0.781231 0.945783 0.104625
Si Si3 0.166223 0.750000 0.253838
Si Si4 0.118721 0.142066 0.899744
Si Si5 0.618579 0.320870 0.262703
Si Si6 0.000000 0.815508 0.743169
Si Si7 0.000000 0.680535 0.089974
Si Si8 0.277795 0.368755 0.115005
O O1 0.811724 0.250000 0.584629
O O2 0.713435 0.250000 0.634166
O O3 0.748325 0.192964 0.409358
O O4 0.750000 0.962458 0.250000
O O5 0.838012 0.910252 0.122630
O O6 0.737211 0.904069 0.025941
O O7 0.791526 0.000000 0.000000
O O8 0.135369 0.808007 0.212682
O O9 0.053726 0.142771 0.876765
O O10 0.125361 0.161989 0.068144
O O11 0.622748 0.250000 0.255177
O O12 0.558852 0.340350 0.210195
O O13 0.662260 0.352507 0.163005
O O14 0.000000 0.750000 0.683605
O O15 0.000000 0.812127 0.917027
O O16 0.000000 0.750000 0.142352
O O17 0.250000 0.399466 0.250000
#
# Coordination Sequence:
#
# PCOD9534078 Si02
#       8
#     8  16   8  16  16   8   8  16
#     4  11  21  28  48  83 118 154 192 228 287 360
#     4  12  27  44  60  83 113 152 199 254 301 345
#     4  11  18  31  50  79 122 155 187 233 288 351
#     4  11  19  34  58  86 121 154 194 239 289 345
#     4  10  17  29  53  87 120 155 188 229 281 353
#     4   7  14  26  44  77 121 154 187 220 261 326
#     4   9  16  30  55  93 123 155 186 230 283 341
#     4  12  21  33  55  84 116 149 191 237 292 355
#
# _framework density 18.197709
#
# number of rings (size 3 to 8) (size 9 to 14) (size 15 to 20)
#    0.000    1.333    5.833    2.750    0.000    0.000 
#    0.000    0.417    0.000    5.000    0.000    1.167 
#    0.000    0.000    0.000    0.000    0.000    0.000 
#
# Total GULP energy -267227.606272 kJ/mol
# GULP energy per Si atom -5567.241797 kJ/mol
# Density = 1.815629 g / cm^3
# Si number density = 18.197709 Si / 1000 Ang^3
#
#
#
# Elastic Constant Matrix: (Units=GPa)
#
#
# Indices 1 2 3 4 5 6 
#
# 1 167.7394 39.8123 24.4046 0.0000 0.0000 0.0000
# 2 39.8123 82.9269 21.7440 0.0000 0.0000 0.0000
# 3 24.4046 21.7440 52.5131 0.0000 0.0000 0.0000
# 4 0.0000 0.0000 0.0000 13.9704 0.0000 0.0000
# 5 0.0000 0.0000 0.0000 0.0000 25.2636 0.0000
# 6 0.0000 0.0000 0.0000 0.0000 0.0000 15.5269
#
#
#
# Elastic Compliance Matrix: (Units=1/GPa)
#
#
# Indices 1 2 3 4 5 6 
#
# 1 0.006922 -0.002782 -0.002065 0.000000 0.000000 0.000000
# 2 -0.002782 0.014645 -0.004771 0.000000 0.000000 0.000000
# 3 -0.002065 -0.004771 0.021978 0.000000 0.000000 0.000000
# 4 0.000000 0.000000 0.000000 0.071580 0.000000 0.000000
# 5 0.000000 0.000000 0.000000 0.000000 0.039583 0.000000
# 6 0.000000 0.000000 0.000000 0.000000 0.000000 0.064404
#
#
# Mechanical properties :
#
#
# Convention : Reuss Voigt Hill
#
# Bulk Modulus (GPa) = 41.13657 52.78903 46.96280
# Shear Modulus (GPa) = 20.28786 25.43341 22.86063
#
# Velocity S-wave (km/s) = 3.34257 3.74253 3.54819
# Velocity P-wave (km/s) = 6.12793 6.90991 6.53064
#
# Compressibility (1/GPa) = 0.02430927
#
# Stress axis : x y z
#
# Youngs Moduli (GPa) = 144.45951 68.28060 45.49939
#
# Poissons Ratio (x) = 0.18995 0.09396
# Poissons Ratio (y) = 0.40186 0.21710
# Poissons Ratio (z) = 0.29833 0.32579
#
# Static dielectric constant tensor:
#      x y z
#    x 1.717780 0.000000 0.000000 
#    y 0.000000 1.631550 0.000000 
#    z 0.000000 0.000000 1.631810 
# 
# From -- ./inp_files/14115.got.cif
#   From: 2010.05.17/outbox.cif.g08.bks.cpg/sg74_8_cif.got.tgz:14115.got - 2010.06.03 17:57:02.
