data_PCOD9534838
_publ_section_title
;
Structure prediction by ZEFSAII (Michael W. Deem and Ramdas Pophale) SiO2 
 PCOD9534838
Probable space group: I M M A
;
_chemical_formula_sum "Si O2"
_cell_formula_units_Z 120
_cell_length_a 17.086071
_cell_length_b 19.850222
_cell_length_c 22.704642
_cell_angle_alpha 90.000000
_cell_angle_beta 90.000000
_cell_angle_gamma 90.000000
_cell_volume 7700.558657
_symmetry_space_group_name_H-M "I M M A"
_symmetry_group_IT_number 74
_symmetry_cell_setting 'orthorhombic'
loop_
_space_group_symop_operation_xyz
x,y,z
-x,1/2-y,z
x,-y,-z
-x,1/2+y,-z
-x,-y,-z
x,1/2+y,-z
-x,y,z
x,1/2-y,z
1/2+x,1/2+y,1/2+z
1/2-x,-y,1/2+z
1/2+x,1/2-y,1/2-z
1/2-x,y,1/2-z
1/2-x,1/2-y,1/2-z
1/2+x,y,1/2-z
1/2-x,1/2+y,1/2+z
1/2+x,-y,1/2+z
loop_
_atom_site_type_symbol
_atom_site_label
_atom_site_fract_x
_atom_site_fract_y
_atom_site_fract_z
Si Si1 0.906264 0.826463 0.136783
Si Si2 0.688781 0.500000 0.500000
Si Si3 0.186745 0.823588 0.888213
Si Si4 0.766806 0.464428 0.382029
Si Si5 0.155583 0.826500 0.757065
Si Si6 0.906624 0.362480 0.998195
Si Si7 0.408887 0.538897 0.801810
Si Si8 0.823916 0.055398 0.789459
O O1 0.886705 0.750000 0.155533
O O2 0.889927 0.832725 0.066639
O O3 0.861758 0.884069 0.173373
O O4 0.000000 0.835966 0.143758
O O5 0.743443 0.498745 0.442904
O O6 0.632235 0.564072 0.499185
O O7 0.225430 0.750000 0.885082
O O8 0.246101 0.885769 0.889099
O O9 0.139447 0.831288 0.827087
O O10 0.132854 0.826640 0.945918
O O11 0.853963 0.473062 0.358298
O O12 0.710815 0.498278 0.332981
O O13 0.135847 0.750000 0.737857
O O14 0.250000 0.834578 0.750000
O O15 0.114421 0.887463 0.723651
O O16 0.000000 0.364331 0.005391
O O17 0.500000 0.535615 0.814265
O O18 0.384194 0.482995 0.753376
O O19 0.750000 0.078837 0.750000
#
# Coordination Sequence:
#
# PCOD9534838 Si02
#       8
#    16   8  16  16  16  16  16  16
#     4  10  20  34  51  73 103 131 156 195 248 296
#     4  10  19  34  55  72  94 128 170 206 239 294
#     4  10  19  31  49  69 100 141 172 199 233 280
#     4  10  19  35  53  74  94 130 171 206 243 295
#     4  10  18  32  50  69 100 140 177 205 234 280
#     4  10  20  32  48  74 104 132 162 200 240 286
#     4  11  21  33  50  74 102 130 164 210 258 292
#     4  10  19  35  53  72 100 129 166 203 241 298
#
# _framework density 15.583285
#
# number of rings (size 3 to 8) (size 9 to 14) (size 15 to 20)
#    0.000    1.867    4.000    1.400    0.000    1.867 
#    0.000    1.667    0.000    0.000    0.000    0.000 
#    0.000    0.000    0.000    0.000    0.000    0.000 
#
# Total GULP energy -334498.647930 kJ/mol
# GULP energy per Si atom -5574.977466 kJ/mol
# Density = 1.554782 g / cm^3
# Si number density = 15.583285 Si / 1000 Ang^3
#
#
#
# Elastic Constant Matrix: (Units=GPa)
#
#
# Indices 1 2 3 4 5 6 
#
# 1 81.2528 32.4395 29.4408 0.0000 0.0000 0.0000
# 2 32.4395 82.3541 17.6787 0.0000 0.0000 0.0000
# 3 29.4408 17.6787 69.9812 0.0000 0.0000 0.0000
# 4 0.0000 0.0000 0.0000 14.7548 0.0000 0.0000
# 5 0.0000 0.0000 0.0000 0.0000 21.9270 0.0000
# 6 0.0000 0.0000 0.0000 0.0000 0.0000 10.1801
#
#
#
# Elastic Compliance Matrix: (Units=1/GPa)
#
#
# Indices 1 2 3 4 5 6 
#
# 1 0.016436 -0.005276 -0.005582 0.000000 0.000000 0.000000
# 2 -0.005276 0.014533 -0.001452 0.000000 0.000000 0.000000
# 3 -0.005582 -0.001452 0.017005 0.000000 0.000000 0.000000
# 4 0.000000 0.000000 0.000000 0.067774 0.000000 0.000000
# 5 0.000000 0.000000 0.000000 0.000000 0.045606 0.000000
# 6 0.000000 0.000000 0.000000 0.000000 0.000000 0.098231
#
#
# Mechanical properties :
#
#
# Convention : Reuss Voigt Hill
#
# Bulk Modulus (GPa) = 42.81859 43.63400 43.22630
# Shear Modulus (GPa) = 17.12398 19.64100 18.38249
#
# Velocity S-wave (km/s) = 3.31851 3.55405 3.43830
# Velocity P-wave (km/s) = 6.49771 6.70097 6.60012
#
# Compressibility (1/GPa) = 0.02335434
#
# Stress axis : x y z
#
# Youngs Moduli (GPa) = 60.84148 68.81112 58.80796
#
# Poissons Ratio (x) = 0.36305 0.32825
# Poissons Ratio (y) = 0.32100 0.08537
# Poissons Ratio (z) = 0.33960 0.09989
#
# Static dielectric constant tensor:
#      x y z
#    x 1.489860 0.000000 0.000000 
#    y 0.000000 1.530460 0.000000 
#    z 0.000000 0.000000 1.530790 
# 
# From -- ./inp_files/52354.got.cif
#   From: 2010.05.17/outbox.cif.g08.bks.cpg/sg74_27_cif.got.tgz:52354.got - 2010.06.03 17:57:02.
