data_PCOD9534481
_publ_section_title
;
Structure prediction by ZEFSAII (Michael W. Deem and Ramdas Pophale) SiO2 
 PCOD9534481
Probable space group: I M M A
;
_chemical_formula_sum "Si O2"
_cell_formula_units_Z 88
_cell_length_a 21.050144
_cell_length_b 8.414706
_cell_length_c 21.244928
_cell_angle_alpha 90.000000
_cell_angle_beta 90.000000
_cell_angle_gamma 90.000000
_cell_volume 3763.130519
_symmetry_space_group_name_H-M "I M M A"
_symmetry_group_IT_number 74
_symmetry_cell_setting 'orthorhombic'
loop_
_space_group_symop_operation_xyz
x,y,z
-x,1/2-y,z
x,-y,-z
-x,1/2+y,-z
-x,-y,-z
x,1/2+y,-z
-x,y,z
x,1/2-y,z
1/2+x,1/2+y,1/2+z
1/2-x,-y,1/2+z
1/2+x,1/2-y,1/2-z
1/2-x,y,1/2-z
1/2-x,1/2-y,1/2-z
1/2+x,y,1/2-z
1/2-x,1/2+y,1/2+z
1/2+x,-y,1/2+z
loop_
_atom_site_type_symbol
_atom_site_label
_atom_site_fract_x
_atom_site_fract_y
_atom_site_fract_z
Si Si1 0.304055 0.565250 0.845093
Si Si2 0.429954 0.250000 0.563780
Si Si3 0.269027 0.750000 0.322426
Si Si4 0.083649 0.750000 0.209479
Si Si5 0.422150 0.419852 0.409341
Si Si6 0.571129 0.940448 0.928812
Si Si7 0.603821 0.421141 0.262729
O O1 0.283890 0.750000 0.860164
O O2 0.257132 0.415053 0.852560
O O3 0.368616 0.524439 0.884283
O O4 0.329100 0.569967 0.772735
O O5 0.500000 0.250000 0.533341
O O6 0.442783 0.250000 0.639539
O O7 0.399270 0.421413 0.557148
O O8 0.250000 0.750000 0.250000
O O9 0.343517 0.750000 0.312680
O O10 0.070653 0.590045 0.247913
O O11 0.500000 0.428293 0.405135
O O12 0.405593 0.250000 0.438984
O O13 0.395689 0.416069 0.338388
O O14 0.500000 0.997277 0.909025
O O15 0.568507 0.750000 0.930389
O O16 0.582061 0.000000 0.000000
O O17 0.575487 0.250000 0.242150
#
# Coordination Sequence:
#
# PCOD9534481 Si02
#       7
#    16   8   8   8  16  16  16
#     4  10  21  34  49  72  98 128 172 218 265 327
#     4   8  14  24  38  52  73 102 139 188 228 266
#     4  12  22  34  49  67  98 136 174 217 260 312
#     4  10  18  30  42  61  87 120 163 201 246 296
#     4   8  13  20  31  48  69  96 130 171 223 272
#     4   9  19  36  57  80 105 135 174 232 301 354
#     4   9  16  26  40  57  81 113 150 194 243 291
#
# _framework density 23.384785000000001
#
# number of rings (size 3 to 8) (size 9 to 14) (size 15 to 20)
#    0.000    2.727    1.818    0.000    1.273    1.818 
#    0.000    3.636    0.000    0.000    0.000    0.000 
#    0.000    0.000    0.000    0.000    0.000    0.909 
#
# Total GULP energy -245055.013839 kJ/mol
# GULP energy per Si atom -5569.432133 kJ/mol
# Density = 2.333156 g / cm^3
# Si number density = 23.384785 Si / 1000 Ang^3
#
#
#
# Elastic Constant Matrix: (Units=GPa)
#
#
# Indices 1 2 3 4 5 6 
#
# 1 127.9771 39.1304 27.8070 0.0000 0.0000 0.0000
# 2 39.1304 224.1454 18.2654 0.0000 0.0000 0.0000
# 3 27.8070 18.2654 60.7370 0.0000 0.0000 0.0000
# 4 0.0000 0.0000 0.0000 32.8147 0.0000 0.0000
# 5 0.0000 0.0000 0.0000 0.0000 15.6660 0.0000
# 6 0.0000 0.0000 0.0000 0.0000 0.0000 -55.5253
#
#
#
# Elastic Compliance Matrix: (Units=1/GPa)
#
#
# Indices 1 2 3 4 5 6 
#
# 1 0.009016 -0.001269 -0.003746 0.000000 0.000000 0.000000
# 2 -0.001269 0.004752 -0.000848 0.000000 0.000000 0.000000
# 3 -0.003746 -0.000848 0.018435 0.000000 0.000000 0.000000
# 4 0.000000 0.000000 0.000000 0.030474 0.000000 0.000000
# 5 0.000000 0.000000 0.000000 0.000000 0.063833 0.000000
# 6 0.000000 0.000000 0.000000 0.000000 0.000000 -0.018010
#
#
# Mechanical properties :
#
#
# Convention : Reuss Voigt Hill
#
# Bulk Modulus (GPa) = 48.83697 64.80722 56.82209
# Shear Modulus (GPa) = 39.35437 20.43488 29.89463
#
# Velocity S-wave (km/s) = 4.10677 2.95931 3.57932
# Velocity P-wave (km/s) = 6.58915 6.28094 6.43689
#
# Compressibility (1/GPa) = 0.02047629
#
# Stress axis : x y z
#
# Youngs Moduli (GPa) = 110.91685 210.43816 54.24588
#
# Poissons Ratio (x) = 0.26698 0.20321
# Poissons Ratio (y) = 0.14072 0.04601
# Poissons Ratio (z) = 0.41551 0.17850
#
# Static dielectric constant tensor:
#      x y z
#    x 1.907140 0.000000 0.000000 
#    y 0.000000 2.015560 0.000000 
#    z 0.000000 0.000000 1.935490 
# 
# From -- ./inp_files/54575.got.cif
#   From: 2010.05.17/outbox.cif.g08.bks.cpg/sg74_28_cif.got.tgz:54575.got - 2010.06.03 17:57:02.
