data_PCOD9534151
_publ_section_title
;
Structure prediction by ZEFSAII (Michael W. Deem and Ramdas Pophale) SiO2 
 PCOD9534151
Probable space group: I M M A
;
_chemical_formula_sum "Si O2"
_cell_formula_units_Z 96
_cell_length_a 15.457494
_cell_length_b 22.365219
_cell_length_c 12.270964
_cell_angle_alpha 90.000000
_cell_angle_beta 90.000000
_cell_angle_gamma 90.000000
_cell_volume 4242.197891
_symmetry_space_group_name_H-M "I M M A"
_symmetry_group_IT_number 74
_symmetry_cell_setting 'orthorhombic'
loop_
_space_group_symop_operation_xyz
x,y,z
-x,1/2-y,z
x,-y,-z
-x,1/2+y,-z
-x,-y,-z
x,1/2+y,-z
-x,y,z
x,1/2-y,z
1/2+x,1/2+y,1/2+z
1/2-x,-y,1/2+z
1/2+x,1/2-y,1/2-z
1/2-x,y,1/2-z
1/2-x,1/2-y,1/2-z
1/2+x,y,1/2-z
1/2-x,1/2+y,1/2+z
1/2+x,-y,1/2+z
loop_
_atom_site_type_symbol
_atom_site_label
_atom_site_fract_x
_atom_site_fract_y
_atom_site_fract_z
Si Si1 0.653814 0.880528 0.443217
Si Si2 0.600695 0.817186 0.850725
Si Si3 0.142099 0.250000 0.643349
Si Si4 0.856622 0.963559 0.253817
Si Si5 0.158172 0.750000 0.097373
Si Si6 0.844342 0.592206 0.806686
Si Si7 0.356564 0.625419 0.066060
O O1 0.615618 0.921744 0.347794
O O2 0.620812 0.812294 0.446564
O O3 0.654498 0.909584 0.562497
O O4 0.754402 0.873451 0.409038
O O5 0.500000 0.812098 0.873638
O O6 0.639003 0.750000 0.859953
O O7 0.612931 0.846484 0.733340
O O8 0.635322 0.866006 0.937152
O O9 0.148207 0.250000 0.772517
O O10 0.236945 0.250000 0.585327
O O11 0.102112 0.312998 0.609590
O O12 0.750000 0.967094 0.250000
O O13 0.886049 0.932083 0.366081
O O14 0.886720 0.031265 0.237310
O O15 0.750000 0.595035 0.750000
#
# Coordination Sequence:
#
# PCOD9534151 Si02
#       7
#    16  16   8  16   8  16  16
#     4  10  18  30  53  86 119 143 181 238 289 333
#     4  11  25  42  58  80 115 156 194 239 292 342
#     4   9  14  26  48  77 113 138 180 229 284 337
#     4   9  19  32  54  85 118 147 180 234 292 335
#     4   9  16  24  46  84 110 143 176 230 290 330
#     4  11  22  36  55  83 118 156 194 231 276 346
#     4  10  17  33  56  81 111 148 186 233 290 341
#
# _framework density 22.629778999999999
#
# number of rings (size 3 to 8) (size 9 to 14) (size 15 to 20)
#    0.000    2.000    4.167    0.500    1.167    1.000 
#    0.000    1.667    0.000    3.000    0.000    2.333 
#    0.000    0.000    0.000    0.000    0.000    0.000 
#
# Total GULP energy -267575.202747 kJ/mol
# GULP energy per Si atom -5574.483391 kJ/mol
# Density = 2.257827 g / cm^3
# Si number density = 22.629779 Si / 1000 Ang^3
#
#
#
# Elastic Constant Matrix: (Units=GPa)
#
#
# Indices 1 2 3 4 5 6 
#
# 1 23.8138 3.6171 -6.0296 0.0000 0.0000 0.0000
# 2 3.6171 140.1531 53.9272 0.0000 0.0000 0.0000
# 3 -6.0296 53.9272 87.5673 0.0000 0.0000 0.0000
# 4 0.0000 0.0000 0.0000 12.5194 0.0000 0.0000
# 5 0.0000 0.0000 0.0000 0.0000 -3.4985 0.0000
# 6 0.0000 0.0000 0.0000 0.0000 0.0000 -5.7370
#
#
#
# Elastic Compliance Matrix: (Units=1/GPa)
#
#
# Indices 1 2 3 4 5 6 
#
# 1 0.043675 -0.002994 0.004851 0.000000 0.000000 0.000000
# 2 -0.002994 0.009556 -0.006091 0.000000 0.000000 0.000000
# 3 0.004851 -0.006091 0.015505 0.000000 0.000000 0.000000
# 4 0.000000 0.000000 0.000000 0.079876 0.000000 0.000000
# 5 0.000000 0.000000 0.000000 0.000000 -0.285835 0.000000
# 6 0.000000 0.000000 0.000000 0.000000 0.000000 -0.174307
#
#
# Mechanical properties :
#
#
# Convention : Reuss Voigt Hill
#
# Bulk Modulus (GPa) = 16.59236 39.39597 27.99417
# Shear Modulus (GPa) = -17.66954 13.99142 -1.83906
#
# Velocity S-wave (km/s) = -2.79733 2.48921 -0.90246
# Velocity P-wave (km/s) = 1.75652 5.07033 3.36325
#
# Compressibility (1/GPa) = 0.06026869
#
# Stress axis : x y z
#
# Youngs Moduli (GPa) = 22.89619 104.64631 64.49566
#
# Poissons Ratio (x) = 0.31328 -0.31287
# Poissons Ratio (y) = 0.06854 0.39285
# Poissons Ratio (z) = -0.11107 0.63741
#
# Static dielectric constant tensor:
#      x y z
#    x 1.946600 0.000000 0.000000 
#    y 0.000000 1.886260 0.000000 
#    z 0.000000 0.000000 1.843320 
# 
# From -- ./inp_files/23967.got.cif
#   From: 2010.05.17/outbox.cif.g08.bks.cpg/sg74_12_cif.got.tgz:23967.got - 2010.06.03 17:57:02.
