data_PCOD9534860
_publ_section_title
;
Structure prediction by ZEFSAII (Michael W. Deem and Ramdas Pophale) SiO2 
 PCOD9534860
Probable space group: I M M A
;
_chemical_formula_sum "Si O2"
_cell_formula_units_Z 88
_cell_length_a 8.635216
_cell_length_b 18.023319
_cell_length_c 29.984512
_cell_angle_alpha 90.000000
_cell_angle_beta 90.000000
_cell_angle_gamma 90.000000
_cell_volume 4666.647099
_symmetry_space_group_name_H-M "I M M A"
_symmetry_group_IT_number 74
_symmetry_cell_setting 'orthorhombic'
loop_
_space_group_symop_operation_xyz
x,y,z
-x,1/2-y,z
x,-y,-z
-x,1/2+y,-z
-x,-y,-z
x,1/2+y,-z
-x,y,z
x,1/2-y,z
1/2+x,1/2+y,1/2+z
1/2-x,-y,1/2+z
1/2+x,1/2-y,1/2-z
1/2-x,y,1/2-z
1/2-x,1/2-y,1/2-z
1/2+x,y,1/2-z
1/2-x,1/2+y,1/2+z
1/2+x,-y,1/2+z
loop_
_atom_site_type_symbol
_atom_site_label
_atom_site_fract_x
_atom_site_fract_y
_atom_site_fract_z
Si Si1 0.185727 0.035221 0.700585
Si Si2 0.688810 0.105687 0.143516
Si Si3 0.812406 0.163674 0.858148
Si Si4 0.812939 0.750000 0.700048
Si Si5 0.820087 0.159787 0.956316
Si Si6 0.313959 0.336332 0.049777
O O1 0.250000 0.023599 0.750000
O O2 0.244637 0.111853 0.679737
O O3 0.000000 0.034734 0.702158
O O4 0.239492 0.969018 0.667887
O O5 0.500000 0.105115 0.142793
O O6 0.735632 0.176865 0.172865
O O7 0.741426 0.117809 0.092649
O O8 0.768937 0.250000 0.852541
O O9 0.759339 0.137026 0.907585
O O10 0.000000 0.160453 0.857944
O O11 0.750000 0.750000 0.750000
O O12 0.000000 0.750000 0.701653
O O13 0.812086 0.250000 0.955639
O O14 0.000000 0.139161 0.959302
O O15 0.737432 0.135155 0.001418
O O16 0.500000 0.335376 0.050709
O O17 0.262501 0.250000 0.054630
#
# Coordination Sequence:
#
# PCOD9534860 Si02
#       6
#    16  16  16   8  16  16
#     4  11  23  38  56  78 106 138 174 219 269 316
#     4   9  18  33  52  75 105 142 179 216 260 307
#     4   9  19  38  61  81 104 136 173 213 262 320
#     4  10  18  32  52  72 100 138 182 224 261 304
#     4   8  15  29  50  77 107 135 165 209 262 309
#     4   9  15  27  50  77 104 139 180 215 250 298
#
# _framework density 18.857222
#
# number of rings (size 3 to 8) (size 9 to 14) (size 15 to 20)
#    0.000    2.727    0.909    2.182    0.000    1.455 
#    0.000    6.364    0.000    5.455    0.000    0.000 
#    0.000    0.000    0.000    0.000    0.000    0.000 
#
# Total GULP energy -245324.244951 kJ/mol
# GULP energy per Si atom -5575.551022 kJ/mol
# Density = 1.881430 g / cm^3
# Si number density = 18.857222 Si / 1000 Ang^3
#
#
#
# Elastic Constant Matrix: (Units=GPa)
#
#
# Indices 1 2 3 4 5 6 
#
# 1 10.4026 13.4002 13.1484 0.0000 0.0000 0.0000
# 2 13.4002 64.7280 21.7644 0.0000 0.0000 0.0000
# 3 13.1484 21.7644 62.4243 0.0000 0.0000 0.0000
# 4 0.0000 0.0000 0.0000 17.6523 0.0000 0.0000
# 5 0.0000 0.0000 0.0000 0.0000 33.1567 0.0000
# 6 0.0000 0.0000 0.0000 0.0000 0.0000 9.2264
#
#
#
# Elastic Compliance Matrix: (Units=1/GPa)
#
#
# Indices 1 2 3 4 5 6 
#
# 1 0.159416 -0.024596 -0.025002 0.000000 0.000000 0.000000
# 2 -0.024596 0.021296 -0.002244 0.000000 0.000000 0.000000
# 3 -0.025002 -0.002244 0.022068 0.000000 0.000000 0.000000
# 4 0.000000 0.000000 0.000000 0.056650 0.000000 0.000000
# 5 0.000000 0.000000 0.000000 0.000000 0.030160 0.000000
# 6 0.000000 0.000000 0.000000 0.000000 0.000000 0.108385
#
#
# Mechanical properties :
#
#
# Convention : Reuss Voigt Hill
#
# Bulk Modulus (GPa) = 10.09136 26.02010 18.05573
# Shear Modulus (GPa) = 9.35120 17.95653 13.65387
#
# Velocity S-wave (km/s) = 2.22929 3.08918 2.69377
# Velocity P-wave (km/s) = 3.46257 5.15291 4.38987
#
# Compressibility (1/GPa) = 0.09909467
#
# Stress axis : x y z
#
# Youngs Moduli (GPa) = 6.27291 46.95756 45.31434
#
# Poissons Ratio (x) = 1.15497 1.13296
# Poissons Ratio (y) = 0.15429 0.10169
# Poissons Ratio (z) = 0.15684 0.10538
#
# Static dielectric constant tensor:
#      x y z
#    x 1.649570 0.000000 0.000000 
#    y 0.000000 1.651440 0.000000 
#    z 0.000000 0.000000 1.656310 
# 
# From -- ./inp_files/70231.got.cif
#   From: 2010.05.17/outbox.cif.g08.bks.cpg/sg74_36_cif.got.tgz:70231.got - 2010.06.03 17:57:02.
