data_PCOD9534117
_publ_section_title
;
Structure prediction by ZEFSAII (Michael W. Deem and Ramdas Pophale) SiO2 
 PCOD9534117
Probable space group: I M M A
;
_chemical_formula_sum "Si O2"
_cell_formula_units_Z 128
_cell_length_a 21.227704
_cell_length_b 22.157322
_cell_length_c 17.107855
_cell_angle_alpha 90.000000
_cell_angle_beta 90.000000
_cell_angle_gamma 90.000000
_cell_volume 8046.663738
_symmetry_space_group_name_H-M "I M M A"
_symmetry_group_IT_number 74
_symmetry_cell_setting 'orthorhombic'
loop_
_space_group_symop_operation_xyz
x,y,z
-x,1/2-y,z
x,-y,-z
-x,1/2+y,-z
-x,-y,-z
x,1/2+y,-z
-x,y,z
x,1/2-y,z
1/2+x,1/2+y,1/2+z
1/2-x,-y,1/2+z
1/2+x,1/2-y,1/2-z
1/2-x,y,1/2-z
1/2-x,1/2-y,1/2-z
1/2+x,y,1/2-z
1/2-x,1/2+y,1/2+z
1/2+x,-y,1/2+z
loop_
_atom_site_type_symbol
_atom_site_label
_atom_site_fract_x
_atom_site_fract_y
_atom_site_fract_z
Si Si1 0.234344 0.626813 0.370644
Si Si2 0.260039 0.181502 0.471949
Si Si3 0.569198 0.094244 0.635811
Si Si4 0.846299 0.322307 0.765725
Si Si5 0.701534 0.114759 0.319700
Si Si6 0.408967 0.817182 0.501059
Si Si7 0.686229 0.988409 0.406131
Si Si8 0.929591 0.678850 0.815098
O O1 0.223852 0.646525 0.459956
O O2 0.177550 0.643995 0.312867
O O3 0.291508 0.665077 0.330488
O O4 0.259423 0.558087 0.376786
O O5 0.238414 0.250000 0.470920
O O6 0.264266 0.156033 0.385008
O O7 0.333280 0.179254 0.498362
O O8 0.500000 0.070560 0.654892
O O9 0.594032 0.142140 0.699923
O O10 0.566896 0.132129 0.555755
O O11 0.621353 0.043615 0.619688
O O12 0.853529 0.250000 0.755870
O O13 0.750000 0.106995 0.250000
O O14 0.634159 0.143079 0.293415
O O15 0.690010 0.051826 0.363143
O O16 0.426597 0.750000 0.474148
O O17 0.429646 0.824616 0.590259
O O18 0.688853 0.000000 0.500000
O O19 0.922101 0.750000 0.795484
O O20 0.000000 0.659405 0.788015
#
# Coordination Sequence:
#
# PCOD9534117 Si02
#       8
#    16  16  16  16  16  16  16  16
#     4  10  18  31  50  72  97 133 173 215 258 308
#     4  10  17  31  52  74 102 130 165 213 264 317
#     4  11  22  31  44  69 104 142 174 210 252 305
#     4  10  19  30  49  74 100 130 172 224 263 302
#     4  11  23  34  52  78 105 138 172 221 267 305
#     4   9  15  26  45  70  99 133 169 199 237 298
#     4  11  21  36  51  70 101 140 179 215 255 309
#     4   9  18  33  52  73 101 138 173 207 256 318
#
# _framework density 15.907215000000001
#
# number of rings (size 3 to 8) (size 9 to 14) (size 15 to 20)
#    0.000    1.875    3.750    4.125    3.500    3.250 
#    0.000    0.000    0.000    0.000    0.000    0.875 
#    0.000    3.000    0.000    0.000    0.000    0.000 
#
# Total GULP energy -356580.245172 kJ/mol
# GULP energy per Si atom -5571.566331 kJ/mol
# Density = 1.587101 g / cm^3
# Si number density = 15.907215 Si / 1000 Ang^3
#
#
#
# Elastic Constant Matrix: (Units=GPa)
#
#
# Indices 1 2 3 4 5 6 
#
# 1 62.7352 33.7863 33.7882 0.0000 0.0000 0.0000
# 2 33.7863 67.9921 12.0038 0.0000 0.0000 0.0000
# 3 33.7882 12.0038 45.8894 0.0000 0.0000 0.0000
# 4 0.0000 0.0000 0.0000 21.4432 0.0000 0.0000
# 5 0.0000 0.0000 0.0000 0.0000 -17.7777 0.0000
# 6 0.0000 0.0000 0.0000 0.0000 0.0000 -6.0784
#
#
#
# Elastic Compliance Matrix: (Units=1/GPa)
#
#
# Indices 1 2 3 4 5 6 
#
# 1 0.035386 -0.013613 -0.022494 0.000000 0.000000 0.000000
# 2 -0.013613 0.020656 0.004620 0.000000 0.000000 0.000000
# 3 -0.022494 0.004620 0.037145 0.000000 0.000000 0.000000
# 4 0.000000 0.000000 0.000000 0.046635 0.000000 0.000000
# 5 0.000000 0.000000 0.000000 0.000000 -0.056250 0.000000
# 6 0.000000 0.000000 0.000000 0.000000 0.000000 -0.164518
#
#
# Mechanical properties :
#
#
# Convention : Reuss Voigt Hill
#
# Bulk Modulus (GPa) = 33.09726 37.30814 35.20270
# Shear Modulus (GPa) = -632.83919 5.98665 -313.42627
#
# Velocity S-wave (km/s) = -19.96735 1.94207 -14.05211
# Velocity P-wave (km/s) = 22.59960 5.34166 15.52753
#
# Compressibility (1/GPa) = 0.03021398
#
# Stress axis : x y z
#
# Youngs Moduli (GPa) = 28.25985 48.41136 26.92138
#
# Poissons Ratio (x) = 0.65900 0.60556
# Poissons Ratio (y) = 0.38469 -0.12437
# Poissons Ratio (z) = 0.63567 -0.22364
#
# Static dielectric constant tensor:
#      x y z
#    x 1.570780 0.000000 0.000000 
#    y 0.000000 1.548370 0.000000 
#    z 0.000000 0.000000 1.538200 
# 
# From -- ./inp_files/45626.got.cif
#   From: 2010.05.17/outbox.cif.g08.bks.cpg/sg74_23_cif.got.tgz:45626.got - 2010.06.03 17:57:02.
