data_PCOD9534672
_publ_section_title
;
Structure prediction by ZEFSAII (Michael W. Deem and Ramdas Pophale) SiO2 
 PCOD9534672
Probable space group: I M M A
;
_chemical_formula_sum "Si O2"
_cell_formula_units_Z 88
_cell_length_a 9.142907
_cell_length_b 28.588413
_cell_length_c 24.214160
_cell_angle_alpha 90.000000
_cell_angle_beta 90.000000
_cell_angle_gamma 90.000000
_cell_volume 6329.126230
_symmetry_space_group_name_H-M "I M M A"
_symmetry_group_IT_number 74
_symmetry_cell_setting 'orthorhombic'
loop_
_space_group_symop_operation_xyz
x,y,z
-x,1/2-y,z
x,-y,-z
-x,1/2+y,-z
-x,-y,-z
x,1/2+y,-z
-x,y,z
x,1/2-y,z
1/2+x,1/2+y,1/2+z
1/2-x,-y,1/2+z
1/2+x,1/2-y,1/2-z
1/2-x,y,1/2-z
1/2-x,1/2-y,1/2-z
1/2+x,y,1/2-z
1/2-x,1/2+y,1/2+z
1/2+x,-y,1/2+z
loop_
_atom_site_type_symbol
_atom_site_label
_atom_site_fract_x
_atom_site_fract_y
_atom_site_fract_z
Si Si1 0.831273 0.421622 0.908874
Si Si2 0.168694 0.513386 0.565457
Si Si3 0.167976 0.105011 0.039588
Si Si4 0.175682 0.250000 0.809799
Si Si5 0.673139 0.697078 0.988432
Si Si6 0.327037 0.171225 0.882229
O O1 0.759540 0.472661 0.904679
O O2 0.735530 0.381302 0.880520
O O3 0.000000 0.420984 0.890683
O O4 0.830619 0.408791 0.974349
O O5 0.170329 0.500000 0.500000
O O6 0.241853 0.564205 0.569535
O O7 0.000000 0.513755 0.582923
O O8 0.240542 0.155970 0.042042
O O9 0.000000 0.105500 0.057640
O O10 0.250000 0.250000 0.750000
O O11 0.235172 0.205088 0.843138
O O12 0.000000 0.250000 0.806581
O O13 0.500000 0.692634 0.977168
O O14 0.720027 0.750000 0.975327
O O15 0.690487 0.688931 0.054430
O O16 0.500000 0.173039 0.869339
#
# Coordination Sequence:
#
# PCOD9534672 Si02
#       6
#    16  16  16   8  16  16
#     4   9  16  25  37  54  71  88 108 135 168 205
#     4   9  15  23  34  48  66  90 113 135 165 204
#     4   9  16  23  32  48  68  89 112 141 171 203
#     4  12  24  36  48  60  74  92 114 144 184 226
#     4   9  16  26  38  51  68  91 116 144 176 212
#     4  10  18  31  45  58  72  88 111 140 174 217
#
# _framework density 13.903974
#
# number of rings (size 3 to 8) (size 9 to 14) (size 15 to 20)
#    0.000    2.545    0.909    3.000    0.000    7.636 
#    0.000    0.000    0.000    0.000    0.000    0.000 
#    0.000    0.000    0.000    0.000    0.000    0.000 
#
# Total GULP energy -245134.043558 kJ/mol
# GULP energy per Si atom -5571.228263 kJ/mol
# Density = 1.387233 g / cm^3
# Si number density = 13.903974 Si / 1000 Ang^3
#
#
#
# Elastic Constant Matrix: (Units=GPa)
#
#
# Indices 1 2 3 4 5 6 
#
# 1 114.3354 74.2439 15.6278 0.0000 0.0000 0.0000
# 2 74.2439 144.2516 15.8053 0.0000 0.0000 0.0000
# 3 15.6278 15.8053 11.7075 0.0000 0.0000 0.0000
# 4 0.0000 0.0000 0.0000 2.3844 0.0000 0.0000
# 5 0.0000 0.0000 0.0000 0.0000 9.8283 0.0000
# 6 0.0000 0.0000 0.0000 0.0000 0.0000 29.6755
#
#
#
# Elastic Compliance Matrix: (Units=1/GPa)
#
#
# Indices 1 2 3 4 5 6 
#
# 1 0.014185 -0.006134 -0.010655 0.000000 0.000000 0.000000
# 2 -0.006134 0.010788 -0.006376 0.000000 0.000000 0.000000
# 3 -0.010655 -0.006376 0.108246 0.000001 0.000000 0.000000
# 4 0.000000 0.000000 0.000001 0.419387 0.000000 0.000000
# 5 0.000000 0.000000 0.000000 0.000000 0.101747 0.000000
# 6 0.000000 0.000000 0.000000 0.000000 0.000000 0.033698
#
#
# Mechanical properties :
#
#
# Convention : Reuss Voigt Hill
#
# Bulk Modulus (GPa) = 11.50885 53.51650 32.51267
# Shear Modulus (GPa) = 6.55013 19.35216 12.95114
#
# Velocity S-wave (km/s) = 2.17283 3.73479 3.05531
# Velocity P-wave (km/s) = 3.81972 7.56121 5.99008
#
# Compressibility (1/GPa) = 0.08688966
#
# Stress axis : x y z
#
# Youngs Moduli (GPa) = 70.49513 92.69727 9.23820
#
# Poissons Ratio (x) = 0.56856 0.09843
# Poissons Ratio (y) = 0.43238 0.05891
# Poissons Ratio (z) = 0.75112 0.59107
#
# Static dielectric constant tensor:
#      x y z
#    x 1.464430 0.000000 0.000000 
#    y 0.000000 1.465920 0.000000 
#    z 0.000000 0.000000 1.416270 
# 
# From -- ./inp_files/40122.got.cif
#   From: 2010.05.17/outbox.cif.g08.bks.cpg/sg74_21_cif.got.tgz:40122.got - 2010.06.03 17:57:02.
