data_PCOD9534749
_publ_section_title
;
Structure prediction by ZEFSAII (Michael W. Deem and Ramdas Pophale) SiO2 
 PCOD9534749
Probable space group: I M M A
;
_chemical_formula_sum "Si O2"
_cell_formula_units_Z 80
_cell_length_a 7.695814
_cell_length_b 17.467135
_cell_length_c 29.271703
_cell_angle_alpha 90.000000
_cell_angle_beta 90.000000
_cell_angle_gamma 90.000000
_cell_volume 3934.814196
_symmetry_space_group_name_H-M "I M M A"
_symmetry_group_IT_number 74
_symmetry_cell_setting 'orthorhombic'
loop_
_space_group_symop_operation_xyz
x,y,z
-x,1/2-y,z
x,-y,-z
-x,1/2+y,-z
-x,-y,-z
x,1/2+y,-z
-x,y,z
x,1/2-y,z
1/2+x,1/2+y,1/2+z
1/2-x,-y,1/2+z
1/2+x,1/2-y,1/2-z
1/2-x,y,1/2-z
1/2-x,1/2-y,1/2-z
1/2+x,y,1/2-z
1/2-x,1/2+y,1/2+z
1/2+x,-y,1/2+z
loop_
_atom_site_type_symbol
_atom_site_label
_atom_site_fract_x
_atom_site_fract_y
_atom_site_fract_z
Si Si1 0.787158 0.837983 0.065289
Si Si2 0.300273 0.250000 0.079279
Si Si3 0.791620 0.512194 0.109237
Si Si4 0.699931 0.098659 0.468495
Si Si5 0.294174 0.581060 0.799369
Si Si6 0.200499 0.250000 0.312002
O O1 0.728266 0.750000 0.069819
O O2 0.000000 0.834773 0.063640
O O3 0.736724 0.899310 0.104116
O O4 0.726769 0.875926 0.017412
O O5 0.500000 0.250000 0.062736
O O6 0.206935 0.324682 0.061196
O O7 0.304609 0.250000 0.133422
O O8 0.721471 0.465268 0.065037
O O9 0.754605 0.468923 0.156522
O O10 0.000000 0.511019 0.104777
O O11 0.500000 0.077071 0.477322
O O12 0.500000 0.590013 0.802777
O O13 0.250000 0.546179 0.750000
O O14 0.217541 0.667848 0.799793
O O15 0.000000 0.250000 0.294762
#
# Coordination Sequence:
#
# PCOD9534749 Si02
#       6
#    16   8  16  16  16   8
#     4   9  17  31  53  79 107 138 175 218 259 302
#     4  11  19  30  48  74 109 146 177 211 253 298
#     4  10  20  33  53  80 106 137 176 217 260 308
#     4  10  18  31  51  77 107 142 181 215 250 299
#     4  11  22  38  56  77 105 137 172 215 261 311
#     4   9  19  34  52  74 105 141 173 206 252 302
#
# _framework density 20.331329
#
# number of rings (size 3 to 8) (size 9 to 14) (size 15 to 20)
#    0.000    2.000    3.000    1.800    0.000    2.400 
#    0.000    2.500    0.000    3.000    0.000    0.000 
#    0.000    0.000    0.000    0.000    0.000    0.000 
#
# Total GULP energy -223079.744470 kJ/mol
# GULP energy per Si atom -5576.993612 kJ/mol
# Density = 2.028505 g / cm^3
# Si number density = 20.331329 Si / 1000 Ang^3
#
#
#
# Elastic Constant Matrix: (Units=GPa)
#
#
# Indices 1 2 3 4 5 6 
#
# 1 44.3356 12.7845 4.8664 0.0000 0.0000 0.0000
# 2 12.7845 179.7515 95.4197 0.0000 0.0000 0.0000
# 3 4.8664 95.4197 110.8560 0.0000 0.0000 0.0000
# 4 0.0000 0.0000 0.0000 13.0435 0.0000 0.0000
# 5 0.0000 0.0000 0.0000 0.0000 8.7624 0.0000
# 6 0.0000 0.0000 0.0000 0.0000 0.0000 -35.7966
#
#
#
# Elastic Compliance Matrix: (Units=1/GPa)
#
#
# Indices 1 2 3 4 5 6 
#
# 1 0.023060 -0.002031 0.000735 0.000000 0.000000 0.000000
# 2 -0.002031 0.010423 -0.008882 0.000000 0.000000 0.000000
# 3 0.000735 -0.008882 0.016634 0.000000 0.000000 0.000000
# 4 0.000000 0.000000 0.000000 0.076667 0.000000 0.000000
# 5 0.000000 0.000000 0.000000 0.000000 0.114123 0.000000
# 6 0.000000 0.000000 0.000000 0.000000 0.000000 -0.027936
#
#
# Mechanical properties :
#
#
# Convention : Reuss Voigt Hill
#
# Bulk Modulus (GPa) = 33.59988 62.34268 47.97128
# Shear Modulus (GPa) = 20.55528 11.99336 16.27432
#
# Velocity S-wave (km/s) = 3.18310 2.43141 2.83230
# Velocity P-wave (km/s) = 5.48375 6.21388 5.86020
#
# Compressibility (1/GPa) = 0.02976201
#
# Stress axis : x y z
#
# Youngs Moduli (GPa) = 43.36506 95.94413 60.11834
#
# Poissons Ratio (x) = 0.19482 -0.04422
# Poissons Ratio (y) = 0.08805 0.53399
# Poissons Ratio (z) = -0.03189 0.85220
#
# Static dielectric constant tensor:
#      x y z
#    x 1.783640 0.000000 0.000000 
#    y 0.000000 1.744850 0.000000 
#    z 0.000000 0.000000 1.713490 
# 
# From -- ./inp_files/64035.got.cif
#   From: 2010.05.17/outbox.cif.g08.bks.cpg/sg74_33_cif.got.tgz:64035.got - 2010.06.03 17:57:02.
