data_PCOD9534038
_publ_section_title
;
Structure prediction by ZEFSAII (Michael W. Deem and Ramdas Pophale) SiO2 
 PCOD9534038
Probable space group: I M M A
;
_chemical_formula_sum "Si O2"
_cell_formula_units_Z 120
_cell_length_a 27.988900
_cell_length_b 13.552105
_cell_length_c 19.531082
_cell_angle_alpha 90.000000
_cell_angle_beta 90.000000
_cell_angle_gamma 90.000000
_cell_volume 7408.305644
_symmetry_space_group_name_H-M "I M M A"
_symmetry_group_IT_number 74
_symmetry_cell_setting 'orthorhombic'
loop_
_space_group_symop_operation_xyz
x,y,z
-x,1/2-y,z
x,-y,-z
-x,1/2+y,-z
-x,-y,-z
x,1/2+y,-z
-x,y,z
x,1/2-y,z
1/2+x,1/2+y,1/2+z
1/2-x,-y,1/2+z
1/2+x,1/2-y,1/2-z
1/2-x,y,1/2-z
1/2-x,1/2-y,1/2-z
1/2+x,y,1/2-z
1/2-x,1/2+y,1/2+z
1/2+x,-y,1/2+z
loop_
_atom_site_type_symbol
_atom_site_label
_atom_site_fract_x
_atom_site_fract_y
_atom_site_fract_z
Si Si1 0.380446 0.000000 0.500000
Si Si2 0.194489 0.133641 0.743537
Si Si3 0.140478 0.638496 0.112953
Si Si4 0.891111 0.960756 0.329380
Si Si5 0.944201 0.448900 0.810583
Si Si6 0.555288 0.367142 0.113588
Si Si7 0.556645 0.365675 0.401323
Si Si8 0.946039 0.368337 0.546702
O O1 0.349520 0.058614 0.555246
O O2 0.413301 0.080649 0.460929
O O3 0.190778 0.250000 0.723735
O O4 0.250000 0.107458 0.750000
O O5 0.171541 0.124442 0.818919
O O6 0.162332 0.068266 0.692486
O O7 0.146042 0.750000 0.088516
O O8 0.086146 0.617206 0.136998
O O9 0.905898 0.073629 0.343245
O O10 0.923561 0.929418 0.264588
O O11 0.908680 0.907381 0.398301
O O12 0.936235 0.562686 0.835268
O O13 0.000000 0.428465 0.813721
O O14 0.500000 0.390772 0.133371
O O15 0.560496 0.250000 0.119896
O O16 0.561292 0.394175 0.033144
O O17 0.500000 0.370046 0.417301
O O18 0.569160 0.250000 0.391777
O O19 0.945426 0.250000 0.549027
O O20 0.000000 0.400603 0.565657
#
# Coordination Sequence:
#
# PCOD9534038 Si02
#       8
#     8  16  16  16  16  16  16  16
#     4  10  17  28  46  68  90 112 148 192 221 268
#     4   9  19  36  55  73  93 118 154 203 256 304
#     4   9  18  31  48  69  92 120 148 181 230 280
#     4  11  18  28  49  71  91 125 168 205 242 286
#     4   9  18  28  39  64  96 121 154 194 226 270
#     4   9  18  30  44  68 105 144 172 193 228 284
#     4   9  17  28  40  57  88 127 158 184 219 262
#     4   9  17  28  43  68 103 136 164 196 238 292
#
# _framework density 16.198035999999998
#
# number of rings (size 3 to 8) (size 9 to 14) (size 15 to 20)
#    0.000    2.667    0.000    3.400    0.000    2.933 
#    0.000    1.333    2.933    0.400    0.000    0.000 
#    0.000    0.000    0.000    0.000    0.000    0.000 
#
# Total GULP energy -334271.034559 kJ/mol
# GULP energy per Si atom -5571.183909 kJ/mol
# Density = 1.616117 g / cm^3
# Si number density = 16.198036 Si / 1000 Ang^3
#
#
#
# Elastic Constant Matrix: (Units=GPa)
#
#
# Indices 1 2 3 4 5 6 
#
# 1 97.9508 39.2757 33.4102 0.0000 0.0000 0.0000
# 2 39.2757 76.0577 23.4986 0.0000 0.0000 0.0000
# 3 33.4102 23.4986 45.3891 0.0000 0.0000 0.0000
# 4 0.0000 0.0000 0.0000 27.1070 0.0000 0.0000
# 5 0.0000 0.0000 0.0000 0.0000 12.6318 0.0000
# 6 0.0000 0.0000 0.0000 0.0000 0.0000 17.9061
#
#
#
# Elastic Compliance Matrix: (Units=1/GPa)
#
#
# Indices 1 2 3 4 5 6 
#
# 1 0.015198 -0.005228 -0.008480 0.000000 0.000000 0.000000
# 2 -0.005228 0.017450 -0.005186 0.000000 0.000000 0.000000
# 3 -0.008480 -0.005186 0.030959 0.000000 0.000000 0.000000
# 4 0.000000 0.000000 0.000000 0.036891 0.000000 0.000000
# 5 0.000000 0.000000 0.000000 0.000000 0.079165 0.000000
# 6 0.000000 0.000000 0.000000 0.000000 0.000000 0.055847
#
#
# Mechanical properties :
#
#
# Convention : Reuss Voigt Hill
#
# Bulk Modulus (GPa) = 38.73235 45.75183 42.24209
# Shear Modulus (GPa) = 17.73653 19.74320 18.73987
#
# Velocity S-wave (km/s) = 3.31264 3.49501 3.40505
# Velocity P-wave (km/s) = 6.21250 6.67783 6.44936
#
# Compressibility (1/GPa) = 0.02581821
#
# Stress axis : x y z
#
# Youngs Moduli (GPa) = 65.79753 57.30714 32.30109
#
# Poissons Ratio (x) = 0.29961 0.27393
# Poissons Ratio (y) = 0.34400 0.16750
# Poissons Ratio (z) = 0.55799 0.29718
#
# Static dielectric constant tensor:
#      x y z
#    x 1.511360 0.000000 0.000000 
#    y 0.000000 1.581080 0.000000 
#    z 0.000000 0.000000 1.561310 
# 
# From -- ./inp_files/54825.got.cif
#   From: 2010.05.17/outbox.cif.g08.bks.cpg/sg74_28_cif.got.tgz:54825.got - 2010.06.03 17:57:02.
