data_PCOD9534597
_publ_section_title
;
Structure prediction by ZEFSAII (Michael W. Deem and Ramdas Pophale) SiO2 
 PCOD9534597
Probable space group: I M M A
;
_chemical_formula_sum "Si O2"
_cell_formula_units_Z 104
_cell_length_a 9.115569
_cell_length_b 24.762015
_cell_length_c 25.431753
_cell_angle_alpha 90.000000
_cell_angle_beta 90.000000
_cell_angle_gamma 90.000000
_cell_volume 5740.451633
_symmetry_space_group_name_H-M "I M M A"
_symmetry_group_IT_number 74
_symmetry_cell_setting 'orthorhombic'
loop_
_space_group_symop_operation_xyz
x,y,z
-x,1/2-y,z
x,-y,-z
-x,1/2+y,-z
-x,-y,-z
x,1/2+y,-z
-x,y,z
x,1/2-y,z
1/2+x,1/2+y,1/2+z
1/2-x,-y,1/2+z
1/2+x,1/2-y,1/2-z
1/2-x,y,1/2-z
1/2-x,1/2-y,1/2-z
1/2+x,y,1/2-z
1/2-x,1/2+y,1/2+z
1/2+x,-y,1/2+z
loop_
_atom_site_type_symbol
_atom_site_label
_atom_site_fract_x
_atom_site_fract_y
_atom_site_fract_z
Si Si1 0.676768 0.367537 0.584943
Si Si2 0.174686 0.750000 0.691781
Si Si3 0.677981 0.188856 0.476724
Si Si4 0.823771 0.813797 0.195121
Si Si5 0.332453 0.914574 0.592595
Si Si6 0.669834 0.519220 0.060321
Si Si7 0.167326 0.352575 0.196322
O O1 0.500000 0.371892 0.585191
O O2 0.714196 0.326787 0.537042
O O3 0.722320 0.345408 0.642290
O O4 0.744350 0.425666 0.571573
O O5 0.250000 0.750000 0.750000
O O6 0.243306 0.696017 0.669023
O O7 0.000000 0.750000 0.692519
O O8 0.500000 0.190472 0.471618
O O9 0.730541 0.250000 0.463856
O O10 0.723663 0.137324 0.441023
O O11 0.790365 0.750000 0.188017
O O12 0.750000 0.831513 0.250000
O O13 0.000000 0.818904 0.199946
O O14 0.500000 0.925270 0.573985
O O15 0.338137 0.898388 0.653378
O O16 0.237612 0.967897 0.589146
O O17 0.500000 0.527496 0.073488
O O18 0.680682 0.500000 0.000000
O O19 0.250000 0.366955 0.250000
O O20 0.000000 0.335167 0.208259
#
# Coordination Sequence:
#
# PCOD9534597 Si02
#       7
#    16   8  16  16  16  16  16
#     4  10  19  34  59  84 110 144 189 231 268 325
#     4  10  18  30  50  74 102 140 178 214 259 312
#     4   9  17  30  53  84 111 136 172 224 275 317
#     4   9  18  33  55  86 120 154 188 228 276 332
#     4  10  21  36  58  82 105 140 185 227 269 325
#     4  11  23  38  56  79 111 146 182 226 277 333
#     4  10  20  34  53  77 105 137 177 223 268 319
#
# _framework density 18.117042000000001
#
# number of rings (size 3 to 8) (size 9 to 14) (size 15 to 20)
#    0.000    2.154    1.538    3.000    1.077    4.308 
#    0.000    0.769    0.000    2.308    0.000    0.000 
#    0.000    0.000    0.000    0.000    0.000    0.000 
#
# Total GULP energy -289804.216451 kJ/mol
# GULP energy per Si atom -5573.158009 kJ/mol
# Density = 1.807581 g / cm^3
# Si number density = 18.117042 Si / 1000 Ang^3
#
#
#
# Elastic Constant Matrix: (Units=GPa)
#
#
# Indices 1 2 3 4 5 6 
#
# 1 60.5328 23.2574 28.0547 0.0000 0.0000 0.0000
# 2 23.2574 90.2987 29.7736 0.0000 0.0000 0.0000
# 3 28.0547 29.7736 74.3959 0.0000 0.0000 0.0000
# 4 0.0000 0.0000 0.0000 28.7684 0.0000 0.0000
# 5 0.0000 0.0000 0.0000 0.0000 21.7161 0.0000
# 6 0.0000 0.0000 0.0000 0.0000 0.0000 17.0192
#
#
#
# Elastic Compliance Matrix: (Units=1/GPa)
#
#
# Indices 1 2 3 4 5 6 
#
# 1 0.020787 -0.003190 -0.006562 0.000000 0.000000 0.000000
# 2 -0.003190 0.013247 -0.004099 0.000000 0.000000 0.000000
# 3 -0.006562 -0.004099 0.017556 0.000000 0.000000 0.000000
# 4 0.000000 0.000000 0.000000 0.034760 0.000000 0.000000
# 5 0.000000 0.000000 0.000000 0.000000 0.046049 0.000000
# 6 0.000000 0.000000 0.000000 0.000000 0.000000 0.058757
#
#
# Mechanical properties :
#
#
# Convention : Reuss Voigt Hill
#
# Bulk Modulus (GPa) = 41.86025 43.04432 42.45228
# Shear Modulus (GPa) = 22.04372 23.11019 22.57696
#
# Velocity S-wave (km/s) = 3.49196 3.57544 3.53395
# Velocity P-wave (km/s) = 6.27806 6.39184 6.33520
#
# Compressibility (1/GPa) = 0.02388901
#
# Stress axis : x y z
#
# Youngs Moduli (GPa) = 48.10713 75.48623 56.95917
#
# Poissons Ratio (x) = 0.24082 0.37377
# Poissons Ratio (y) = 0.15347 0.23346
# Poissons Ratio (z) = 0.31568 0.30939
#
# Static dielectric constant tensor:
#      x y z
#    x 1.627260 0.000000 0.000000 
#    y 0.000000 1.687020 0.000000 
#    z 0.000000 0.000000 1.641270 
# 
# From -- ./inp_files/64809.got.cif
#   From: 2010.05.17/outbox.cif.g08.bks.cpg/sg74_33_cif.got.tgz:64809.got - 2010.06.03 17:57:02.
