data_PCOD9534030
_publ_section_title
;
Structure prediction by ZEFSAII (Michael W. Deem and Ramdas Pophale) SiO2 
 PCOD9534030
Probable space group: I M M A
;
_chemical_formula_sum "Si O2"
_cell_formula_units_Z 120
_cell_length_a 21.550147
_cell_length_b 14.807084
_cell_length_c 14.932711
_cell_angle_alpha 90.000000
_cell_angle_beta 90.000000
_cell_angle_gamma 90.000000
_cell_volume 4764.950980
_symmetry_space_group_name_H-M "I M M A"
_symmetry_group_IT_number 74
_symmetry_cell_setting 'orthorhombic'
loop_
_space_group_symop_operation_xyz
x,y,z
-x,1/2-y,z
x,-y,-z
-x,1/2+y,-z
-x,-y,-z
x,1/2+y,-z
-x,y,z
x,1/2-y,z
1/2+x,1/2+y,1/2+z
1/2-x,-y,1/2+z
1/2+x,1/2-y,1/2-z
1/2-x,y,1/2-z
1/2-x,1/2-y,1/2-z
1/2+x,y,1/2-z
1/2-x,1/2+y,1/2+z
1/2+x,-y,1/2+z
loop_
_atom_site_type_symbol
_atom_site_label
_atom_site_fract_x
_atom_site_fract_y
_atom_site_fract_z
Si Si1 0.929902 0.849734 0.898654
Si Si2 0.330844 0.605064 0.036657
Si Si3 0.750000 0.002702 0.250000
Si Si4 0.931446 0.581222 0.327022
Si Si5 0.344034 0.154954 0.241926
Si Si6 0.299852 0.915988 0.431904
Si Si7 0.068550 0.438585 0.888281
Si Si8 0.432857 0.118531 0.099232
O O1 0.928555 0.750000 0.945024
O O2 0.864905 0.848534 0.843935
O O3 0.929515 0.957201 0.920842
O O4 0.000000 0.846965 0.856608
O O5 0.367383 0.618977 0.131187
O O6 0.260485 0.639780 0.037400
O O7 0.326212 0.500000 0.000000
O O8 0.378707 0.646113 0.966792
O O9 0.696814 0.070464 0.214225
O O10 0.721712 0.949080 0.332928
O O11 0.926645 0.561020 0.220979
O O12 0.935546 0.489030 0.384796
O O13 0.000000 0.626363 0.339223
O O14 0.313766 0.250000 0.219221
O O15 0.410529 0.152555 0.194484
O O16 0.303042 0.000000 0.500000
O O17 0.371004 0.884698 0.422546
O O18 0.000000 0.400666 0.911286
O O19 0.500000 0.148640 0.070114
#
# Coordination Sequence:
#
# PCOD9534030 Si02
#       8
#    16  16   8  16  16  16  16  16
#     4   9  16  27  43  62  85 118 161 199 234 283
#     4   9  17  27  40  60  83 114 154 198 245 287
#     4  12  21  36  48  66 100 136 169 210 254 302
#     4   9  15  25  41  61  83 114 156 194 233 283
#     4  11  20  29  44  67  95 132 169 201 239 297
#     4  11  21  32  48  65  89 126 168 208 249 298
#     4  10  18  30  45  62  87 121 157 202 248 287
#     4  10  17  28  44  64  91 121 158 206 248 286
#
# _framework density 25.183890000000002
#
# number of rings (size 3 to 8) (size 9 to 14) (size 15 to 20)
#    0.000    2.000    2.667    4.200    0.000    2.667 
#    0.000    0.000    0.000    0.000    0.000    0.000 
#    0.000    0.000    0.000   62.400    0.000   66.133 
#
# Total GULP energy -334196.777741 kJ/mol
# GULP energy per Si atom -5569.946296 kJ/mol
# Density = 2.512657 g / cm^3
# Si number density = 25.183890 Si / 1000 Ang^3
#
#
#
# Elastic Constant Matrix: (Units=GPa)
#
#
# Indices 1 2 3 4 5 6 
#
# 1 238.0358 15.6596 29.6544 0.0000 0.0000 0.0000
# 2 15.6596 31.4878 1.9892 0.0000 0.0000 0.0000
# 3 29.6544 1.9892 81.3896 0.0000 0.0000 0.0000
# 4 0.0000 0.0000 0.0000 -11.5680 0.0000 0.0000
# 5 0.0000 0.0000 0.0000 0.0000 38.2036 0.0000
# 6 0.0000 0.0000 0.0000 0.0000 0.0000 -34.2538
#
#
#
# Elastic Compliance Matrix: (Units=1/GPa)
#
#
# Indices 1 2 3 4 5 6 
#
# 1 0.004543 -0.002158 -0.001602 0.000000 0.000000 0.000000
# 2 -0.002158 0.032833 -0.000016 0.000000 0.000000 0.000000
# 3 -0.001602 -0.000016 0.012871 0.000000 0.000000 0.000000
# 4 0.000000 0.000000 0.000000 -0.086445 0.000000 0.000000
# 5 0.000000 0.000000 0.000000 0.000000 0.026176 0.000000
# 6 0.000000 0.000000 0.000000 0.000000 0.000000 -0.029194
#
#
# Mechanical properties :
#
#
# Convention : Reuss Voigt Hill
#
# Bulk Modulus (GPa) = 23.42308 49.50219 36.46264
# Shear Modulus (GPa) = -286.80221 18.71700 -134.04261
#
# Velocity S-wave (km/s) = -10.68318 2.72915 -7.30350
# Velocity P-wave (km/s) = 11.95211 5.44334 7.52406
#
# Compressibility (1/GPa) = 0.04269294
#
# Stress axis : x y z
#
# Youngs Moduli (GPa) = 220.13651 30.45759 77.69519
#
# Poissons Ratio (x) = 0.06573 0.12450
# Poissons Ratio (y) = 0.47504 0.00126
# Poissons Ratio (z) = 0.35274 0.00049
#
# Static dielectric constant tensor:
#      x y z
#    x 2.038590 0.000000 0.000000 
#    y 0.000000 2.021690 0.000000 
#    z 0.000000 0.000000 2.166910 
# 
# From -- ./inp_files/35708.got.cif
#   From: 2010.05.17/outbox.cif.g08.bks.cpg/sg74_18_cif.got.tgz:35708.got - 2010.06.03 17:57:02.
