data_PCOD9534227
_publ_section_title
;
Structure prediction by ZEFSAII (Michael W. Deem and Ramdas Pophale) SiO2 
 PCOD9534227
Probable space group: I M M A
;
_chemical_formula_sum "Si O2"
_cell_formula_units_Z 96
_cell_length_a 14.746244
_cell_length_b 19.574695
_cell_length_c 17.910817
_cell_angle_alpha 90.000000
_cell_angle_beta 90.000000
_cell_angle_gamma 90.000000
_cell_volume 5170.015156
_symmetry_space_group_name_H-M "I M M A"
_symmetry_group_IT_number 74
_symmetry_cell_setting 'orthorhombic'
loop_
_space_group_symop_operation_xyz
x,y,z
-x,1/2-y,z
x,-y,-z
-x,1/2+y,-z
-x,-y,-z
x,1/2+y,-z
-x,y,z
x,1/2-y,z
1/2+x,1/2+y,1/2+z
1/2-x,-y,1/2+z
1/2+x,1/2-y,1/2-z
1/2-x,y,1/2-z
1/2-x,1/2-y,1/2-z
1/2+x,y,1/2-z
1/2-x,1/2+y,1/2+z
1/2+x,-y,1/2+z
loop_
_atom_site_type_symbol
_atom_site_label
_atom_site_fract_x
_atom_site_fract_y
_atom_site_fract_z
Si Si1 0.608952 0.323945 0.680127
Si Si2 0.649108 0.973134 0.276116
Si Si3 0.895679 0.829763 0.772669
Si Si4 0.098115 0.432581 0.355169
Si Si5 0.802301 0.574547 0.889353
Si Si6 0.108936 0.327625 0.994445
O O1 0.500000 0.322550 0.682160
O O2 0.641735 0.250000 0.708642
O O3 0.636673 0.392595 0.721264
O O4 0.634090 0.329643 0.592862
O O5 0.750000 0.988829 0.250000
O O6 0.594188 0.011841 0.212083
O O7 0.643587 0.008014 0.358016
O O8 0.876489 0.750000 0.773124
O O9 0.895156 0.861297 0.690009
O O10 0.825430 0.871419 0.823093
O O11 0.000000 0.839979 0.801411
O O12 0.194676 0.440316 0.396510
O O13 0.000000 0.435231 0.395263
O O14 0.842187 0.612217 0.961143
O O15 0.130577 0.250000 0.022266
O O16 0.000000 0.335069 0.000451
#
# Coordination Sequence:
#
# PCOD9534227 Si02
#       6
#    16  16  16  16  16  16
#     4   9  18  32  49  70  96 122 148 183 230 283
#     4   9  18  31  47  69  92 117 151 191 234 277
#     4   9  16  25  38  57  83 117 154 189 226 269
#     4   9  18  30  42  60  89 121 154 194 231 264
#     4  10  18  27  42  64  90 121 155 186 224 272
#     4   9  18  31  46  68  98 128 156 186 223 270
#
# _framework density 18.568612000000002
#
# number of rings (size 3 to 8) (size 9 to 14) (size 15 to 20)
#    0.000    2.833    0.000    4.000    0.000    6.333 
#    0.000    1.667    0.000    0.000    0.000   10.500 
#    0.000    6.667    0.000    0.000    0.000    0.000 
#
# Total GULP energy -267212.353183 kJ/mol
# GULP energy per Si atom -5566.924025 kJ/mol
# Density = 1.852635 g / cm^3
# Si number density = 18.568612 Si / 1000 Ang^3
#
#
#
# Elastic Constant Matrix: (Units=GPa)
#
#
# Indices 1 2 3 4 5 6 
#
# 1 73.9649 12.7241 1.2922 0.0000 0.0000 0.0000
# 2 12.7241 113.9558 6.6315 0.0000 0.0000 0.0000
# 3 1.2922 6.6315 10.2934 -0.0001 0.0000 0.0000
# 4 0.0000 0.0000 -0.0001 -0.0575 0.0000 0.0000
# 5 0.0000 0.0000 0.0000 0.0000 -0.5753 0.0000
# 6 0.0000 0.0000 0.0000 0.0000 0.0000 23.3348
#
#
#
# Elastic Compliance Matrix: (Units=1/GPa)
#
#
# Indices 1 2 3 4 5 6 
#
# 1 0.013791 -0.001495 -0.000768 0.000001 0.000000 0.000000
# 2 -0.001495 0.009279 -0.005790 0.000001 0.000000 0.000000
# 3 -0.000768 -0.005790 0.100976 -0.000087 -0.000003 0.000000
# 4 0.000001 0.000001 -0.000087-17.380429 0.000273 -0.000003
# 5 0.000000 0.000000 -0.000003 0.000273 -1.738117 0.000000
# 6 0.000000 0.000000 0.000000 -0.000003 0.000000 0.042854
#
#
# Mechanical properties :
#
#
# Convention : Reuss Voigt Hill
#
# Bulk Modulus (GPa) = 9.26449 26.61220 17.93835
# Shear Modulus (GPa) = -0.26456 16.37815 8.05679
#
# Velocity S-wave (km/s) = -0.37787 2.97313 2.08527
# Velocity P-wave (km/s) = 2.19312 5.11360 3.93438
#
# Compressibility (1/GPa) = 0.10793897
#
# Stress axis : x y z
#
# Youngs Moduli (GPa) = 72.51342 107.76747 9.90332
#
# Poissons Ratio (x) = 0.16113 0.00761
# Poissons Ratio (y) = 0.10842 0.05734
# Poissons Ratio (z) = 0.05569 0.62402
#
# Static dielectric constant tensor:
#      x y z
#    x 1.689590 0.000000 0.000000 
#    y 0.000000 1.686740 0.000000 
#    z 0.000000 0.000000 1.654510 
# 
# From -- ./inp_files/53179.got.cif
#   From: 2010.05.17/outbox.cif.g08.bks.cpg/sg74_27_cif.got.tgz:53179.got - 2010.06.03 17:57:02.
