data_PCOD9534929
_publ_section_title
;
Structure prediction by ZEFSAII (Michael W. Deem and Ramdas Pophale) SiO2 
 PCOD9534929
Probable space group: I M M A
;
_chemical_formula_sum "Si O2"
_cell_formula_units_Z 116
_cell_length_a 25.230636
_cell_length_b 7.621233
_cell_length_c 29.491032
_cell_angle_alpha 90.000000
_cell_angle_beta 90.000000
_cell_angle_gamma 90.000000
_cell_volume 5670.787949
_symmetry_space_group_name_H-M "I M M A"
_symmetry_group_IT_number 74
_symmetry_cell_setting 'orthorhombic'
loop_
_space_group_symop_operation_xyz
x,y,z
-x,1/2-y,z
x,-y,-z
-x,1/2+y,-z
-x,-y,-z
x,1/2+y,-z
-x,y,z
x,1/2-y,z
1/2+x,1/2+y,1/2+z
1/2-x,-y,1/2+z
1/2+x,1/2-y,1/2-z
1/2-x,y,1/2-z
1/2-x,1/2-y,1/2-z
1/2+x,y,1/2-z
1/2-x,1/2+y,1/2+z
1/2+x,-y,1/2+z
loop_
_atom_site_type_symbol
_atom_site_label
_atom_site_fract_x
_atom_site_fract_y
_atom_site_fract_z
Si Si1 0.272391 0.540965 0.051546
Si Si2 0.651800 0.960490 0.448301
Si Si3 0.688849 0.450715 0.145195
Si Si4 0.942128 0.964642 0.116196
Si Si5 0.079025 0.547670 0.314924
Si Si6 0.500000 0.750000 0.845480
Si Si7 0.282481 0.458906 0.707100
Si Si8 0.097334 0.963727 0.212552
O O1 0.271356 0.750000 0.056780
O O2 0.211923 0.472122 0.057795
O O3 0.309526 0.469358 0.091079
O O4 0.288340 0.500000 0.000000
O O5 0.654524 0.750000 0.442926
O O6 0.607607 0.026227 0.413501
O O7 0.636155 0.000000 0.500000
O O8 0.683097 0.250000 0.158283
O O9 0.640274 0.547515 0.169096
O O10 0.745822 0.513141 0.163607
O O11 0.940909 0.750000 0.115283
O O12 0.935070 0.018660 0.168469
O O13 0.000000 0.019247 0.099086
O O14 0.060674 0.750000 0.318039
O O15 0.076543 0.488002 0.262146
O O16 0.045933 0.406100 0.342771
O O17 0.287595 0.250000 0.713389
O O18 0.250000 0.530278 0.750000
O O19 0.342172 0.526369 0.705807
O O20 0.097469 0.750000 0.212542
#
# Coordination Sequence:
#
# PCOD9534929 Si02
#       8
#    16  16  16  16  16   4  16  16
#     4  10  20  36  59  87 119 154 190 236 305 371
#     4   9  18  33  54  76 106 144 189 243 301 366
#     4  12  23  37  57  90 128 159 202 249 297 368
#     4   9  17  29  48  75 101 142 203 257 297 353
#     4  11  23  42  65  88 120 164 205 256 306 357
#     4  12  26  44  60  92 122 156 214 252 306 362
#     4  10  18  32  54  80 114 158 202 248 303 371
#     4   9  18  33  55  80 110 153 207 251 309 369
#
# _framework density 20.455711999999998
#
# number of rings (size 3 to 8) (size 9 to 14) (size 15 to 20)
#    0.000    1.931    2.069    2.690    0.966    3.310 
#    1.241    0.000    1.517    0.000    0.000    0.483 
#    0.000    0.000    0.000    0.000    0.000    0.000 
#
# Total GULP energy -323405.454803 kJ/mol
# GULP energy per Si atom -5575.956117 kJ/mol
# Density = 2.040915 g / cm^3
# Si number density = 20.455712 Si / 1000 Ang^3
#
#
#
# Elastic Constant Matrix: (Units=GPa)
#
#
# Indices 1 2 3 4 5 6 
#
# 1 38.1566 7.7829 1.0735 0.0000 0.0000 0.0000
# 2 7.7829 70.5020 -11.0564 0.0000 0.0000 0.0000
# 3 1.0735 -11.0564 80.1159 0.0000 0.0000 0.0000
# 4 0.0000 0.0000 0.0000 11.6594 0.0000 0.0000
# 5 0.0000 0.0000 0.0000 0.0000 46.8053 0.0000
# 6 0.0000 0.0000 0.0000 0.0000 0.0000 -5.0195
#
#
#
# Elastic Compliance Matrix: (Units=1/GPa)
#
#
# Indices 1 2 3 4 5 6 
#
# 1 0.026860 -0.003088 -0.000786 0.000000 0.000000 0.000000
# 2 -0.003088 0.014853 0.002091 0.000000 0.000000 0.000000
# 3 -0.000786 0.002091 0.012781 0.000000 0.000000 0.000000
# 4 0.000000 0.000000 0.000000 0.085768 0.000000 0.000000
# 5 0.000000 0.000000 0.000000 0.000000 0.021365 0.000000
# 6 0.000000 0.000000 0.000000 0.000000 0.000000 -0.199223
#
#
# Mechanical properties :
#
#
# Convention : Reuss Voigt Hill
#
# Bulk Modulus (GPa) = 19.63595 20.48606 20.06101
# Shear Modulus (GPa) = -293.18467 23.42067 -134.88200
#
# Velocity S-wave (km/s) = -11.98489 3.38737 -8.12906
# Velocity P-wave (km/s) = 13.48691 5.03345 8.84763
#
# Compressibility (1/GPa) = 0.05092700
#
# Stress axis : x y z
#
# Youngs Moduli (GPa) = 37.23027 67.32700 78.24093
#
# Poissons Ratio (x) = 0.20793 0.06151
# Poissons Ratio (y) = 0.11498 -0.16361
# Poissons Ratio (z) = 0.02927 -0.14079
#
# Static dielectric constant tensor:
#      x y z
#    x 1.745270 0.000000 0.000000 
#    y 0.000000 1.761640 0.000000 
#    z 0.000000 0.000000 1.725960 
# 
# From -- ./inp_files/73739.got.cif
#   From: 2010.05.17/outbox.cif.g08.bks.cpg/sg74_37_cif.got.tgz:73739.got - 2010.06.03 17:57:02.
