data_PCOD9534600
_publ_section_title
;
Structure prediction by ZEFSAII (Michael W. Deem and Ramdas Pophale) SiO2 
 PCOD9534600
Probable space group: I M M A
;
_chemical_formula_sum "Si O2"
_cell_formula_units_Z 104
_cell_length_a 27.736293
_cell_length_b 7.592586
_cell_length_c 22.945002
_cell_angle_alpha 90.000000
_cell_angle_beta 90.000000
_cell_angle_gamma 90.000000
_cell_volume 4831.992329
_symmetry_space_group_name_H-M "I M M A"
_symmetry_group_IT_number 74
_symmetry_cell_setting 'orthorhombic'
loop_
_space_group_symop_operation_xyz
x,y,z
-x,1/2-y,z
x,-y,-z
-x,1/2+y,-z
-x,-y,-z
x,1/2+y,-z
-x,y,z
x,1/2-y,z
1/2+x,1/2+y,1/2+z
1/2-x,-y,1/2+z
1/2+x,1/2-y,1/2-z
1/2-x,y,1/2-z
1/2-x,1/2-y,1/2-z
1/2+x,y,1/2-z
1/2-x,1/2+y,1/2+z
1/2+x,-y,1/2+z
loop_
_atom_site_type_symbol
_atom_site_label
_atom_site_fract_x
_atom_site_fract_y
_atom_site_fract_z
Si Si1 0.054048 0.038879 0.887080
Si Si2 0.406497 0.550677 0.863791
Si Si3 0.201539 0.034887 0.179174
Si Si4 0.500000 0.462216 0.068594
Si Si5 0.348366 0.043939 0.436481
Si Si6 0.813053 0.965157 0.691389
Si Si7 0.558066 0.954564 0.259732
O O1 0.051022 0.250000 0.881127
O O2 0.071194 0.972283 0.823388
O O3 0.000000 0.974102 0.900066
O O4 0.095030 0.998109 0.932862
O O5 0.400080 0.750000 0.886316
O O6 0.450640 0.470078 0.900810
O O7 0.353298 0.470157 0.854301
O O8 0.424398 0.554564 0.796871
O O9 0.200226 0.250000 0.180264
O O10 0.176231 0.964801 0.121077
O O11 0.178760 0.978948 0.241181
O O12 0.258020 0.986029 0.178080
O O13 0.500000 0.250000 0.077957
O O14 0.500000 0.500000 0.000000
O O15 0.342897 0.250000 0.430119
O O16 0.328565 0.000000 0.500000
O O17 0.815585 0.750000 0.690344
O O18 0.500000 0.956786 0.259669
O O19 0.572998 0.750000 0.254134
#
# Coordination Sequence:
#
# PCOD9534600 Si02
#       7
#    16  16  16   8  16  16  16
#     4   9  19  35  52  73 103 135 169 207 247 296
#     4  10  18  30  50  76 101 128 169 215 254 299
#     4   8  15  29  49  76 103 128 161 200 253 311
#     4  10  22  36  48  68 100 138 177 216 257 304
#     4  11  22  35  52  73  99 135 175 211 251 298
#     4   8  14  27  51  78 102 124 154 207 261 304
#     4   9  17  29  47  73 104 135 160 192 248 306
#
# _framework density 21.523212999999998
#
# number of rings (size 3 to 8) (size 9 to 14) (size 15 to 20)
#    0.000    2.769    0.769    3.231    0.000    3.077 
#    0.000    2.308    0.000    1.846    0.000    7.538 
#    0.000    0.000    0.000    0.000    0.000    0.000 
#
# Total GULP energy -289995.446953 kJ/mol
# GULP energy per Si atom -5576.835518 kJ/mol
# Density = 2.147422 g / cm^3
# Si number density = 21.523213 Si / 1000 Ang^3
#
#
#
# Elastic Constant Matrix: (Units=GPa)
#
#
# Indices 1 2 3 4 5 6 
#
# 1 120.4430 -1.6400 69.3659 0.0000 0.0000 0.0000
# 2 -1.6400 49.3516 -1.5082 0.0000 0.0000 0.0000
# 3 69.3659 -1.5082 114.0314 0.0000 0.0000 0.0000
# 4 0.0000 0.0000 0.0000 16.8705 0.0000 0.0000
# 5 0.0000 0.0000 0.0000 0.0000 25.6446 0.0000
# 6 0.0000 0.0000 0.0000 0.0000 0.0000 -17.4613
#
#
#
# Elastic Compliance Matrix: (Units=1/GPa)
#
#
# Indices 1 2 3 4 5 6 
#
# 1 0.012782 0.000187 -0.007773 0.000000 0.000000 0.000000
# 2 0.000187 0.020274 0.000154 0.000000 0.000000 0.000000
# 3 -0.007773 0.000154 0.013500 0.000000 0.000000 0.000000
# 4 0.000000 0.000000 0.000000 0.059275 0.000000 0.000000
# 5 0.000000 0.000000 0.000000 0.000000 0.038995 0.000000
# 6 0.000000 0.000000 0.000000 0.000000 0.000000 -0.057270
#
#
# Mechanical properties :
#
#
# Convention : Reuss Voigt Hill
#
# Bulk Modulus (GPa) = 31.55301 46.25125 38.90213
# Shear Modulus (GPa) = 44.25493 19.51800 31.88647
#
# Velocity S-wave (km/s) = 4.53940 3.01464 3.85319
# Velocity P-wave (km/s) = 6.49359 5.80112 6.15710
#
# Compressibility (1/GPa) = 0.03169269
#
# Stress axis : x y z
#
# Youngs Moduli (GPa) = 78.23677 49.32498 74.07554
#
# Poissons Ratio (x) = -0.00923 0.57577
# Poissons Ratio (y) = -0.01465 -0.01143
# Poissons Ratio (z) = 0.60811 -0.00761
#
# Static dielectric constant tensor:
#      x y z
#    x 1.800560 0.000000 0.000000 
#    y 0.000000 1.849290 0.000000 
#    z 0.000000 0.000000 1.205810 
# 
# From -- ./inp_files/62367.got.cif
#   From: 2010.05.17/outbox.cif.g08.bks.cpg/sg74_32_cif.got.tgz:62367.got - 2010.06.03 17:57:02.
