data_PCOD9534382
_publ_section_title
;
Structure prediction by ZEFSAII (Michael W. Deem and Ramdas Pophale) SiO2 
 PCOD9534382
Probable space group: I M M A
;
_chemical_formula_sum "Si O2"
_cell_formula_units_Z 72
_cell_length_a 8.327269
_cell_length_b 34.246980
_cell_length_c 15.207681
_cell_angle_alpha 90.000000
_cell_angle_beta 90.000000
_cell_angle_gamma 90.000000
_cell_volume 4336.984483
_symmetry_space_group_name_H-M "I M M A"
_symmetry_group_IT_number 74
_symmetry_cell_setting 'orthorhombic'
loop_
_space_group_symop_operation_xyz
x,y,z
-x,1/2-y,z
x,-y,-z
-x,1/2+y,-z
-x,-y,-z
x,1/2+y,-z
-x,y,z
x,1/2-y,z
1/2+x,1/2+y,1/2+z
1/2-x,-y,1/2+z
1/2+x,1/2-y,1/2-z
1/2-x,y,1/2-z
1/2-x,1/2-y,1/2-z
1/2+x,y,1/2-z
1/2-x,1/2+y,1/2+z
1/2+x,-y,1/2+z
loop_
_atom_site_type_symbol
_atom_site_label
_atom_site_fract_x
_atom_site_fract_y
_atom_site_fract_z
Si Si1 0.809294 0.250000 0.350986
Si Si2 0.303587 0.094005 0.468630
Si Si3 0.192168 0.666571 0.850909
Si Si4 0.693690 0.523268 0.653299
Si Si5 0.193718 0.066522 0.846272
O O1 0.750000 0.250000 0.250000
O O2 0.746660 0.208810 0.386801
O O3 0.000000 0.250000 0.352374
O O4 0.500000 0.094433 0.467956
O O5 0.249874 0.131297 0.412534
O O6 0.252706 0.054355 0.418997
O O7 0.252301 0.091628 0.570047
O O8 0.250000 0.661870 0.750000
O O9 0.000000 0.666016 0.848600
O O10 0.500000 0.522809 0.651669
O O11 0.750000 0.535876 0.750000
O O12 0.748244 0.478589 0.639985
O O13 0.250000 0.079271 0.750000
O O14 0.000000 0.066121 0.845950
#
# Coordination Sequence:
#
# PCOD9534382 Si02
#       5
#     8  16  16  16  16
#     4  10  18  30  46  64  89 118 143 168 205 254
#     4   9  17  28  44  64  86 115 148 179 213 256
#     4  10  18  29  45  66  91 117 144 173 208 252
#     4   9  16  27  43  62  86 116 147 179 214 253
#     4   9  17  30  45  61  83 114 151 185 217 252
#
# _framework density 16.601396000000001
#
# number of rings (size 3 to 8) (size 9 to 14) (size 15 to 20)
#    0.000    2.667    0.000    4.333    0.000    2.667 
#    0.000    4.444    0.000    5.333    0.000    0.778 
#    0.000    0.000    0.000    0.000    0.000    0.000 
#
# Total GULP energy -200641.503585 kJ/mol
# GULP energy per Si atom -5573.375100 kJ/mol
# Density = 1.656361 g / cm^3
# Si number density = 16.601396 Si / 1000 Ang^3
#
#
#
# Elastic Constant Matrix: (Units=GPa)
#
#
# Indices 1 2 3 4 5 6 
#
# 1 23.8217 14.2152 13.9373 0.0000 0.0000 0.0000
# 2 14.2152 83.0400 72.8444 0.0001 0.0000 0.0000
# 3 13.9373 72.8444 126.4076 0.0003 0.0000 0.0000
# 4 0.0000 0.0001 0.0003 17.9483 0.0000 0.0000
# 5 0.0000 0.0000 0.0000 0.0000 19.8461 0.0000
# 6 0.0000 0.0000 0.0000 0.0000 0.0000 14.9962
#
#
#
# Elastic Compliance Matrix: (Units=1/GPa)
#
#
# Indices 1 2 3 4 5 6 
#
# 1 0.046830 -0.007052 -0.001099 0.000000 0.000000 0.000000
# 2 -0.007052 0.025415 -0.013868 0.000000 0.000000 0.000000
# 3 -0.001099 -0.013868 0.016024 0.000000 0.000000 0.000000
# 4 0.000000 0.000000 0.000000 0.055715 0.000000 0.000000
# 5 0.000000 0.000000 0.000000 0.000000 0.050388 0.000000
# 6 0.000000 0.000000 0.000000 0.000000 0.000000 0.066684
#
#
# Mechanical properties :
#
#
# Convention : Reuss Voigt Hill
#
# Bulk Modulus (GPa) = 22.60939 48.36257 35.48598
# Shear Modulus (GPa) = 15.63285 19.37628 17.50456
#
# Velocity S-wave (km/s) = 3.07198 3.42006 3.25068
# Velocity P-wave (km/s) = 5.12164 6.69258 5.95910
#
# Compressibility (1/GPa) = 0.04422940
#
# Stress axis : x y z
#
# Youngs Moduli (GPa) = 21.35377 39.34651 62.40638
#
# Poissons Ratio (x) = 0.27748 0.06861
# Poissons Ratio (y) = 0.15059 0.86547
# Poissons Ratio (z) = 0.02348 0.54567
#
# Static dielectric constant tensor:
#      x y z
#    x 1.621090 0.000000 0.000000 
#    y 0.000000 1.578160 0.000000 
#    z 0.000000 0.000000 1.551650 
# 
# From -- ./inp_files/29433.got.cif
#   From: 2010.05.17/outbox.cif.g08.bks.cpg/sg74_15_cif.got.tgz:29433.got - 2010.06.03 17:57:02.
