data_PCOD9534236
_publ_section_title
;
Structure prediction by ZEFSAII (Michael W. Deem and Ramdas Pophale) SiO2 
 PCOD9534236
Probable space group: I M M A
;
_chemical_formula_sum "Si O2"
_cell_formula_units_Z 96
_cell_length_a 26.129617
_cell_length_b 18.882377
_cell_length_c 7.565572
_cell_angle_alpha 90.000000
_cell_angle_beta 90.000000
_cell_angle_gamma 90.000000
_cell_volume 3732.772115
_symmetry_space_group_name_H-M "I M M A"
_symmetry_group_IT_number 74
_symmetry_cell_setting 'orthorhombic'
loop_
_space_group_symop_operation_xyz
x,y,z
-x,1/2-y,z
x,-y,-z
-x,1/2+y,-z
-x,-y,-z
x,1/2+y,-z
-x,y,z
x,1/2-y,z
1/2+x,1/2+y,1/2+z
1/2-x,-y,1/2+z
1/2+x,1/2-y,1/2-z
1/2-x,y,1/2-z
1/2-x,1/2-y,1/2-z
1/2+x,y,1/2-z
1/2-x,1/2+y,1/2+z
1/2+x,-y,1/2+z
loop_
_atom_site_type_symbol
_atom_site_label
_atom_site_fract_x
_atom_site_fract_y
_atom_site_fract_z
Si Si1 0.720421 0.333485 0.993914
Si Si2 0.560108 0.327556 0.911507
Si Si3 0.695308 0.534739 0.189943
Si Si4 0.943302 0.623061 0.821214
Si Si5 0.412216 0.521362 0.209052
Si Si6 0.169225 0.165934 0.125412
O O1 0.584372 0.250000 0.877751
O O2 0.778756 0.360054 0.028482
O O3 0.685920 0.344747 0.168928
O O4 0.696415 0.381327 0.843212
O O5 0.500000 0.321911 0.877278
O O6 0.778589 0.250000 0.542743
O O7 0.576657 0.395494 0.798476
O O8 0.564060 0.345410 0.121505
O O9 0.750000 0.509928 0.250000
O O10 0.644645 0.512288 0.287628
O O11 0.688923 0.500000 0.000000
O O12 0.945090 0.537971 0.804167
O O13 0.888685 0.641193 0.910293
O O14 0.000000 0.647579 0.885286
O O15 0.415524 0.500000 0.000000
O O16 0.168984 0.250000 0.096120
#
# Coordination Sequence:
#
# PCOD9534236 Si02
#       6
#    16  16  16  16  16  16
#     4   9  19  35  55  78 108 145 186 230 285 339
#     4   9  16  26  42  66  99 138 178 219 265 322
#     4  11  24  36  55  82 109 145 181 232 280 334
#     4  10  18  27  44  71 106 142 179 227 276 326
#     4   9  18  31  45  68 100 139 176 218 276 326
#     4   9  17  30  53  80 108 147 184 226 277 336
#
# _framework density 25.718152
#
# number of rings (size 3 to 8) (size 9 to 14) (size 15 to 20)
#    0.000    2.500    0.000    5.000    4.667    5.333 
#    0.000    0.000    0.000    0.000    0.000    3.500 
#    0.000    0.000    0.000    0.667    0.000    0.000 
#
# Total GULP energy -268176.587044 kJ/mol
# GULP energy per Si atom -5587.012230 kJ/mol
# Density = 2.565962 g / cm^3
# Si number density = 25.718152 Si / 1000 Ang^3
#
#
#
# Elastic Constant Matrix: (Units=GPa)
#
#
# Indices 1 2 3 4 5 6 
#
# 1 196.9801 30.6824 6.2919 0.0000 0.0000 0.0000
# 2 30.6824 137.1213 8.7834 0.0000 0.0000 0.0000
# 3 6.2919 8.7834 49.7580 0.0000 0.0000 0.0000
# 4 0.0000 0.0000 0.0000 3.3037 0.0000 0.0000
# 5 0.0000 0.0000 0.0000 0.0000 13.6907 0.0000
# 6 0.0000 0.0000 0.0000 0.0000 0.0000 34.9626
#
#
#
# Elastic Compliance Matrix: (Units=1/GPa)
#
#
# Indices 1 2 3 4 5 6 
#
# 1 0.005271 -0.001150 -0.000464 0.000000 0.000000 0.000000
# 2 -0.001150 0.007627 -0.001201 0.000000 0.000000 0.000000
# 3 -0.000464 -0.001201 0.020368 0.000000 0.000000 0.000000
# 4 0.000000 0.000000 0.000000 0.302695 0.000000 0.000000
# 5 0.000000 0.000000 0.000000 0.000000 0.073042 0.000000
# 6 0.000000 0.000000 0.000000 0.000000 0.000000 0.028602
#
#
# Mechanical properties :
#
#
# Convention : Reuss Voigt Hill
#
# Bulk Modulus (GPa) = 36.18319 52.81944 44.50131
# Shear Modulus (GPa) = 11.05106 32.93150 21.99128
#
# Velocity S-wave (km/s) = 2.07517 3.58226 2.92736
# Velocity P-wave (km/s) = 4.45437 6.13942 5.36348
#
# Compressibility (1/GPa) = 0.02763714
#
# Stress axis : x y z
#
# Youngs Moduli (GPa) = 189.73411 131.11332 49.09689
#
# Poissons Ratio (x) = 0.15073 0.02276
# Poissons Ratio (y) = 0.21813 0.05896
# Poissons Ratio (z) = 0.08795 0.15746
#
# Static dielectric constant tensor:
#      x y z
#    x 2.042780 0.000000 0.000000 
#    y 0.000000 2.058080 0.000000 
#    z 0.000000 0.000000 2.072460 
# 
# From -- ./inp_files/26261.got.cif
#   From: 2010.05.17/outbox.cif.g08.bks.cpg/sg74_14_cif.got.tgz:26261.got - 2010.06.03 17:57:02.
