data_PCOD9534313
_publ_section_title
;
Structure prediction by ZEFSAII (Michael W. Deem and Ramdas Pophale) SiO2 
 PCOD9534313
Probable space group: I M M A
;
_chemical_formula_sum "Si O2"
_cell_formula_units_Z 96
_cell_length_a 24.020785
_cell_length_b 8.543604
_cell_length_c 27.798039
_cell_angle_alpha 90.000000
_cell_angle_beta 90.000000
_cell_angle_gamma 90.000000
_cell_volume 5704.826835
_symmetry_space_group_name_H-M "I M M A"
_symmetry_group_IT_number 74
_symmetry_cell_setting 'orthorhombic'
loop_
_space_group_symop_operation_xyz
x,y,z
-x,1/2-y,z
x,-y,-z
-x,1/2+y,-z
-x,-y,-z
x,1/2+y,-z
-x,y,z
x,1/2-y,z
1/2+x,1/2+y,1/2+z
1/2-x,-y,1/2+z
1/2+x,1/2-y,1/2-z
1/2-x,y,1/2-z
1/2-x,1/2-y,1/2-z
1/2+x,y,1/2-z
1/2-x,1/2+y,1/2+z
1/2+x,-y,1/2+z
loop_
_atom_site_type_symbol
_atom_site_label
_atom_site_fract_x
_atom_site_fract_y
_atom_site_fract_z
Si Si1 0.615691 0.935883 0.788923
Si Si2 0.500000 0.440530 0.635185
Si Si3 0.814879 0.932053 0.202435
Si Si4 0.774423 0.064266 0.052357
Si Si5 0.789230 0.440000 0.352976
Si Si6 0.000000 0.441006 0.245315
Si Si7 0.380742 0.567322 0.397862
O O1 0.609238 0.750000 0.794503
O O2 0.649632 0.992758 0.835774
O O3 0.555253 0.997019 0.773369
O O4 0.656392 0.971348 0.744404
O O5 0.500000 0.250000 0.637345
O O6 0.500000 0.500729 0.690168
O O7 0.443831 0.490876 0.607768
O O8 0.810463 0.750000 0.216303
O O9 0.854290 0.942319 0.155504
O O10 0.755744 0.997498 0.185368
O O11 0.770492 0.250000 0.051292
O O12 0.733273 0.006642 0.094978
O O13 0.837217 0.018406 0.067744
O O14 0.761044 0.000000 0.000000
O O15 0.787565 0.250000 0.352160
O O16 0.000000 0.250000 0.243717
O O17 0.381923 0.750000 0.411911
#
# Coordination Sequence:
#
# PCOD9534313 Si02
#       7
#    16   8  16  16  16   8  16
#     4  10  19  31  45  66  97 130 162 193 228 274
#     4  10  18  32  49  67  96 133 168 198 233 269
#     4  10  18  28  45  69  97 127 160 195 231 274
#     4  10  20  35  54  72  91 116 151 198 250 297
#     4   9  19  33  48  67  94 125 154 191 241 288
#     4  10  20  30  46  69  96 133 171 200 223 265
#     4   9  18  31  48  69  95 127 161 196 232 276
#
# _framework density 16.827855
#
# number of rings (size 3 to 8) (size 9 to 14) (size 15 to 20)
#    0.000    2.333    1.667    1.500    0.000    4.667 
#    0.000    0.417    0.000    0.000    0.000    0.583 
#    0.000    0.000    0.000    0.000    0.000    0.000 
#
# Total GULP energy -267583.496483 kJ/mol
# GULP energy per Si atom -5574.656177 kJ/mol
# Density = 1.678955 g / cm^3
# Si number density = 16.827855 Si / 1000 Ang^3
#
#
#
# Elastic Constant Matrix: (Units=GPa)
#
#
# Indices 1 2 3 4 5 6 
#
# 1 82.2942 3.1655 56.3576 0.0000 0.0000 0.0000
# 2 3.1655 2.0872 3.2877 0.0000 0.0000 0.0000
# 3 56.3576 3.2877 75.0263 0.0000 0.0000 0.0000
# 4 0.0000 0.0000 0.0000 21.0852 0.0000 0.0000
# 5 0.0000 0.0000 0.0000 0.0000 10.0040 0.0000
# 6 0.0000 0.0000 0.0000 0.0000 0.0000 13.1723
#
#
#
# Elastic Compliance Matrix: (Units=1/GPa)
#
#
# Indices 1 2 3 4 5 6 
#
# 1 0.025182 -0.009018 -0.018521 0.000000 0.000000 0.000000
# 2 -0.009018 0.517859 -0.015918 0.000000 0.000000 0.000000
# 3 -0.018521 -0.015918 0.027939 0.000000 0.000000 0.000000
# 4 0.000000 0.000000 0.000000 0.047427 0.000000 0.000000
# 5 0.000000 0.000000 0.000000 0.000000 0.099960 0.000000
# 6 0.000000 0.000000 0.000000 0.000000 0.000000 0.075917
#
#
# Mechanical properties :
#
#
# Convention : Reuss Voigt Hill
#
# Bulk Modulus (GPa) = 2.06584 31.66990 16.86787
# Shear Modulus (GPa) = 4.79592 15.29208 10.04400
#
# Velocity S-wave (km/s) = 1.69002 3.01780 2.44574
# Velocity P-wave (km/s) = 2.24467 5.56809 4.24512
#
# Compressibility (1/GPa) = 0.48406454
#
# Stress axis : x y z
#
# Youngs Moduli (GPa) = 39.71070 1.93103 35.79276
#
# Poissons Ratio (x) = 0.01741 0.66292
# Poissons Ratio (y) = 0.35812 0.56977
# Poissons Ratio (z) = 0.73548 0.03074
#
# Static dielectric constant tensor:
#      x y z
#    x 1.597020 0.000000 0.000000 
#    y 0.000000 1.573180 0.000000 
#    z 0.000000 0.000000 1.567880 
# 
# From -- ./inp_files/61941.got.cif
#   From: 2010.05.17/outbox.cif.g08.bks.cpg/sg74_31_cif.got.tgz:61941.got - 2010.06.03 17:57:02.
