data_PCOD9534944
_publ_section_title
;
Structure prediction by ZEFSAII (Michael W. Deem and Ramdas Pophale) SiO2 
 PCOD9534944
Probable space group: I M M A
;
_chemical_formula_sum "Si O2"
_cell_formula_units_Z 96
_cell_length_a 13.652988
_cell_length_b 15.153144
_cell_length_c 24.692809
_cell_angle_alpha 90.000000
_cell_angle_beta 90.000000
_cell_angle_gamma 90.000000
_cell_volume 5108.588907
_symmetry_space_group_name_H-M "I M M A"
_symmetry_group_IT_number 74
_symmetry_cell_setting 'orthorhombic'
loop_
_space_group_symop_operation_xyz
x,y,z
-x,1/2-y,z
x,-y,-z
-x,1/2+y,-z
-x,-y,-z
x,1/2+y,-z
-x,y,z
x,1/2-y,z
1/2+x,1/2+y,1/2+z
1/2-x,-y,1/2+z
1/2+x,1/2-y,1/2-z
1/2-x,y,1/2-z
1/2-x,1/2-y,1/2-z
1/2+x,y,1/2-z
1/2-x,1/2+y,1/2+z
1/2+x,-y,1/2+z
loop_
_atom_site_type_symbol
_atom_site_label
_atom_site_fract_x
_atom_site_fract_y
_atom_site_fract_z
Si Si1 0.119297 0.351906 0.776571
Si Si2 0.118973 0.250000 0.452737
Si Si3 0.380928 0.250000 0.921406
Si Si4 0.117924 0.092874 0.654995
Si Si5 0.312978 0.098847 0.125724
Si Si6 0.890152 0.972808 0.834904
Si Si7 0.634884 0.345674 0.240381
O O1 0.150290 0.250000 0.785857
O O2 0.151591 0.385222 0.716574
O O3 0.142694 0.426955 0.821324
O O4 0.000000 0.350673 0.775541
O O5 0.146614 0.250000 0.515961
O O6 0.162539 0.162538 0.423882
O O7 0.000000 0.250000 0.447834
O O8 0.500000 0.250000 0.920762
O O9 0.347520 0.166533 0.886880
O O10 0.000000 0.096410 0.657895
O O11 0.146822 0.999916 0.629361
O O12 0.195914 0.083294 0.135997
O O13 0.370434 0.142806 0.176507
O O14 0.900649 0.926196 0.776097
O O15 0.000000 0.971747 0.859544
O O16 0.598846 0.250000 0.258088
O O17 0.750000 0.345830 0.250000
#
# Coordination Sequence:
#
# PCOD9534944 Si02
#       7
#    16   8   8  16  16  16  16
#     4   9  16  29  50  76 110 151 184 215 262 320
#     4  11  24  40  58  80 109 143 182 230 285 337
#     4   9  20  38  58  83 109 135 177 233 285 339
#     4  10  18  32  55  81 110 141 176 222 279 334
#     4  11  21  35  52  78 110 149 183 223 268 331
#     4  10  21  34  50  78 113 150 189 227 261 313
#     4   9  17  30  46  67 102 142 181 216 257 310
#
# _framework density 18.791882999999999
#
# number of rings (size 3 to 8) (size 9 to 14) (size 15 to 20)
#    0.000    2.167    3.333    0.500    1.167    1.667 
#    1.500    3.333    0.000    0.000    0.000    3.500 
#    0.000    0.000    0.000    0.000    0.000    0.000 
#
# Total GULP energy -267470.613233 kJ/mol
# GULP energy per Si atom -5572.304442 kJ/mol
# Density = 1.874911 g / cm^3
# Si number density = 18.791883 Si / 1000 Ang^3
#
#
#
# Elastic Constant Matrix: (Units=GPa)
#
#
# Indices 1 2 3 4 5 6 
#
# 1 91.2416 14.0847 11.6638 0.0000 0.0000 0.0000
# 2 14.0847 136.1801 30.4589 0.0000 0.0000 0.0000
# 3 11.6638 30.4589 73.1262 0.0000 0.0000 0.0000
# 4 0.0000 0.0000 0.0000 14.0855 0.0000 0.0000
# 5 0.0000 0.0000 0.0000 0.0000 14.7317 0.0000
# 6 0.0000 0.0000 0.0000 0.0000 0.0000 50.6164
#
#
#
# Elastic Compliance Matrix: (Units=1/GPa)
#
#
# Indices 1 2 3 4 5 6 
#
# 1 0.011275 -0.000842 -0.001448 0.000000 0.000000 0.000000
# 2 -0.000842 0.008161 -0.003265 0.000000 0.000000 0.000000
# 3 -0.001448 -0.003265 0.015266 0.000000 0.000000 0.000000
# 4 0.000000 0.000000 0.000000 0.070995 0.000000 0.000000
# 5 0.000000 0.000000 0.000000 0.000000 0.067881 0.000000
# 6 0.000000 0.000000 0.000000 0.000000 0.000000 0.019756
#
#
# Mechanical properties :
#
#
# Convention : Reuss Voigt Hill
#
# Bulk Modulus (GPa) = 42.38720 45.88474 44.13597
# Shear Modulus (GPa) = 23.55081 32.17608 27.86345
#
# Velocity S-wave (km/s) = 3.54396 4.14240 3.85481
# Velocity P-wave (km/s) = 6.27306 6.88111 6.58411
#
# Compressibility (1/GPa) = 0.02359203
#
# Stress axis : x y z
#
# Youngs Moduli (GPa) = 88.69189 122.54080 65.50633
#
# Poissons Ratio (x) = 0.10323 0.09482
# Poissons Ratio (y) = 0.07471 0.21386
# Poissons Ratio (z) = 0.12838 0.40006
#
# Static dielectric constant tensor:
#      x y z
#    x 1.747650 0.000000 0.000000 
#    y 0.000000 1.726130 0.000000 
#    z 0.000000 0.000000 1.623370 
# 
# From -- ./inp_files/60050.got.cif
#   From: 2010.05.17/outbox.cif.g08.bks.cpg/sg74_31_cif.got.tgz:60050.got - 2010.06.03 17:57:02.
