data_PCOD9534722
_publ_section_title
;
Structure prediction by ZEFSAII (Michael W. Deem and Ramdas Pophale) SiO2 
 PCOD9534722
Probable space group: I M M A
;
_chemical_formula_sum "Si O2"
_cell_formula_units_Z 96
_cell_length_a 26.256447
_cell_length_b 8.297748
_cell_length_c 24.325776
_cell_angle_alpha 90.000000
_cell_angle_beta 90.000000
_cell_angle_gamma 90.000000
_cell_volume 5299.841749
_symmetry_space_group_name_H-M "I M M A"
_symmetry_group_IT_number 74
_symmetry_cell_setting 'orthorhombic'
loop_
_space_group_symop_operation_xyz
x,y,z
-x,1/2-y,z
x,-y,-z
-x,1/2+y,-z
-x,-y,-z
x,1/2+y,-z
-x,y,z
x,1/2-y,z
1/2+x,1/2+y,1/2+z
1/2-x,-y,1/2+z
1/2+x,1/2-y,1/2-z
1/2-x,y,1/2-z
1/2-x,1/2-y,1/2-z
1/2+x,y,1/2-z
1/2-x,1/2+y,1/2+z
1/2+x,-y,1/2+z
loop_
_atom_site_type_symbol
_atom_site_label
_atom_site_fract_x
_atom_site_fract_y
_atom_site_fract_z
Si Si1 0.306812 0.443008 0.061874
Si Si2 0.500000 0.055526 0.062592
Si Si3 0.192774 0.057011 0.938077
Si Si4 0.097716 0.552987 0.132841
Si Si5 0.440890 0.055398 0.751161
Si Si6 0.902144 0.555183 0.632443
Si Si7 0.000000 0.055649 0.937539
O O1 0.306844 0.250000 0.061526
O O2 0.249847 0.500465 0.075150
O O3 0.349655 0.500429 0.104496
O O4 0.319155 0.500000 0.000000
O O5 0.500000 0.250000 0.063241
O O6 0.449722 0.000125 0.095019
O O7 0.500000 0.000000 0.000000
O O8 0.192464 0.250000 0.938503
O O9 0.150308 0.999297 0.894994
O O10 0.180415 0.000000 0.000000
O O11 0.098172 0.750000 0.133144
O O12 0.086341 0.500637 0.195042
O O13 0.050408 0.501803 0.094786
O O14 0.500000 0.999935 0.752403
O O15 0.442044 0.250000 0.750205
O O16 0.412146 0.000840 0.805789
O O17 0.902056 0.750000 0.632091
O O18 0.000000 0.250000 0.936579
O O19 0.000000 0.000000 0.000000
#
# Coordination Sequence:
#
# PCOD9534722 Si02
#       7
#    16   8  16  16  16  16   8
#     4  10  20  35  55  78 105 138 173 212 259 310
#     4  10  20  33  50  74 104 131 161 204 255 310
#     4  10  19  33  54  78 106 139 173 214 260 308
#     4   9  18  33  53  76 104 137 173 213 259 304
#     4  10  19  34  56  78 100 136 180 215 252 305
#     4  10  21  36  53  75 106 137 167 211 265 310
#     4  10  18  31  50  74 106 135 165 210 259 310
#
# _framework density 18.113747
#
# number of rings (size 3 to 8) (size 9 to 14) (size 15 to 20)
#    0.000    2.167    1.667    3.000    0.000    2.000 
#    0.000    4.167    0.000    5.000    0.000    0.000 
#    0.000    0.000    0.000    0.000    0.000    0.000 
#
# Total GULP energy -267924.914589 kJ/mol
# GULP energy per Si atom -5581.769054 kJ/mol
# Density = 1.807252 g / cm^3
# Si number density = 18.113747 Si / 1000 Ang^3
#
#
#
# Elastic Constant Matrix: (Units=GPa)
#
#
# Indices 1 2 3 4 5 6 
#
# 1 163.9867 22.5676 127.9299 0.0000 0.0000 0.0000
# 2 22.5676 18.6363 16.3450 0.0000 0.0000 0.0000
# 3 127.9299 16.3450 196.0059 0.0000 0.0000 0.0000
# 4 0.0000 0.0000 0.0000 29.1578 0.0000 0.0000
# 5 0.0000 0.0000 0.0000 0.0000 30.1984 0.0000
# 6 0.0000 0.0000 0.0000 0.0000 0.0000 18.2105
#
#
#
# Elastic Compliance Matrix: (Units=1/GPa)
#
#
# Indices 1 2 3 4 5 6 
#
# 1 0.013833 -0.009529 -0.008234 0.000000 0.000000 0.000000
# 2 -0.009529 0.064458 0.000845 0.000000 0.000000 0.000000
# 3 -0.008234 0.000845 0.010406 0.000000 0.000000 0.000000
# 4 0.000000 0.000000 0.000000 0.034296 0.000000 0.000000
# 5 0.000000 0.000000 0.000000 0.000000 0.033114 0.000000
# 6 0.000000 0.000000 0.000000 0.000000 0.000000 0.054913
#
#
# Mechanical properties :
#
#
# Convention : Reuss Voigt Hill
#
# Bulk Modulus (GPa) = 18.22865 79.14601 48.68733
# Shear Modulus (GPa) = 19.00103 29.63244 24.31673
#
# Velocity S-wave (km/s) = 3.24232 4.04903 3.66792
# Velocity P-wave (km/s) = 4.90939 8.10236 6.69889
#
# Compressibility (1/GPa) = 0.05485870
#
# Stress axis : x y z
#
# Youngs Moduli (GPa) = 72.29135 15.51405 96.10246
#
# Poissons Ratio (x) = 0.14784 0.79129
# Poissons Ratio (y) = 0.68890 -0.08117
# Poissons Ratio (z) = 0.59524 -0.01310
#
# Static dielectric constant tensor:
#      x y z
#    x 1.620700 0.000000 0.000000 
#    y 0.000000 1.632490 0.000000 
#    z 0.000000 0.000000 1.590640 
# 
# From -- ./inp_files/61974.got.cif
#   From: 2010.05.17/outbox.cif.g08.bks.cpg/sg74_31_cif.got.tgz:61974.got - 2010.06.03 17:57:02.
