data_PCOD9534293
_publ_section_title
;
Structure prediction by ZEFSAII (Michael W. Deem and Ramdas Pophale) SiO2 
 PCOD9534293
Probable space group: I M M A
;
_chemical_formula_sum "Si O2"
_cell_formula_units_Z 96
_cell_length_a 7.613081
_cell_length_b 23.572864
_cell_length_c 28.648445
_cell_angle_alpha 90.000000
_cell_angle_beta 90.000000
_cell_angle_gamma 90.000000
_cell_volume 5141.310761
_symmetry_space_group_name_H-M "I M M A"
_symmetry_group_IT_number 74
_symmetry_cell_setting 'orthorhombic'
loop_
_space_group_symop_operation_xyz
x,y,z
-x,1/2-y,z
x,-y,-z
-x,1/2+y,-z
-x,-y,-z
x,1/2+y,-z
-x,y,z
x,1/2-y,z
1/2+x,1/2+y,1/2+z
1/2-x,-y,1/2+z
1/2+x,1/2-y,1/2-z
1/2-x,y,1/2-z
1/2-x,1/2-y,1/2-z
1/2+x,y,1/2-z
1/2-x,1/2+y,1/2+z
1/2+x,-y,1/2+z
loop_
_atom_site_type_symbol
_atom_site_label
_atom_site_fract_x
_atom_site_fract_y
_atom_site_fract_z
Si Si1 0.294561 0.750000 0.510972
Si Si2 0.289431 0.516168 0.696651
Si Si3 0.715505 0.867594 0.467766
Si Si4 0.785609 0.448785 0.892292
Si Si5 0.288986 0.871735 0.646334
Si Si6 0.713370 0.561472 0.554926
Si Si7 0.299551 0.750000 0.881265
O O1 0.500000 0.750000 0.498922
O O2 0.221856 0.692702 0.487532
O O3 0.291039 0.750000 0.567622
O O4 0.500000 0.517917 0.691673
O O5 0.250000 0.503292 0.750000
O O6 0.226086 0.469761 0.658777
O O7 0.224879 0.579378 0.681782
O O8 0.500000 0.866605 0.468298
O O9 0.769941 0.890347 0.416846
O O10 0.771180 0.914749 0.505639
O O11 0.732198 0.500177 0.926778
O O12 0.000000 0.447820 0.891088
O O13 0.500000 0.872345 0.648229
O O14 0.235937 0.894101 0.595134
O O15 0.236080 0.806504 0.648549
O O16 0.500000 0.559683 0.553601
O O17 0.500000 0.750000 0.894794
#
# Coordination Sequence:
#
# PCOD9534293 Si02
#       7
#     8  16  16  16  16  16   8
#     4  10  18  28  44  65  92 129 159 184 217 255
#     4   9  18  32  51  71  90 112 143 188 238 280
#     4   9  14  21  38  64  92 118 148 182 215 257
#     4   8  14  23  38  66  93 112 141 183 227 264
#     4   9  17  31  48  65  86 117 155 189 221 261
#     4   8  12  20  38  62  87 113 141 178 219 256
#     4  12  22  30  43  65  92 125 158 186 217 259
#
# _framework density 18.672281999999999
#
# number of rings (size 3 to 8) (size 9 to 14) (size 15 to 20)
#    0.000    3.000    1.667    3.250    0.000    2.667 
#    0.000    0.417    0.000    1.000    0.000    2.917 
#    0.000    0.000    0.000    0.000    0.000    0.000 
#
# Total GULP energy -267326.728731 kJ/mol
# GULP energy per Si atom -5569.306849 kJ/mol
# Density = 1.862978 g / cm^3
# Si number density = 18.672282 Si / 1000 Ang^3
#
#
#
# Elastic Constant Matrix: (Units=GPa)
#
#
# Indices 1 2 3 4 5 6 
#
# 1 32.6375 1.0897 0.4340 0.0000 0.0000 0.0000
# 2 1.0897 46.5535 51.8420 0.0000 0.0000 0.0000
# 3 0.4340 51.8420 120.1162 0.0000 0.0000 0.0000
# 4 0.0000 0.0000 0.0000 12.0640 0.0000 0.0000
# 5 0.0000 0.0000 0.0000 0.0000 7.2912 0.0000
# 6 0.0000 0.0000 0.0000 0.0000 0.0000 -12.8431
#
#
#
# Elastic Compliance Matrix: (Units=1/GPa)
#
#
# Indices 1 2 3 4 5 6 
#
# 1 0.030673 -0.001145 0.000383 0.000000 0.000000 0.000000
# 2 -0.001145 0.041402 -0.017865 0.000000 0.000000 0.000000
# 3 0.000383 -0.017865 0.016034 0.000000 0.000000 0.000000
# 4 0.000000 0.000000 0.000000 0.082891 0.000000 0.000000
# 5 0.000000 0.000000 0.000000 0.000000 0.137152 0.000000
# 6 0.000000 0.000000 0.000000 0.000000 0.000000 -0.077863
#
#
# Mechanical properties :
#
#
# Convention : Reuss Voigt Hill
#
# Bulk Modulus (GPa) = 19.66331 34.00429 26.83380
# Shear Modulus (GPa) = 17.57508 11.03186 14.30347
#
# Velocity S-wave (km/s) = 3.07129 2.43331 2.77072
# Velocity P-wave (km/s) = 4.80944 5.11324 4.96367
#
# Compressibility (1/GPa) = 0.05085613
#
# Stress axis : x y z
#
# Youngs Moduli (GPa) = 32.60229 24.15359 62.36627
#
# Poissons Ratio (x) = 0.02765 -0.02390
# Poissons Ratio (y) = 0.03732 1.11416
# Poissons Ratio (z) = -0.01250 0.43150
#
# Static dielectric constant tensor:
#      x y z
#    x 1.723590 0.000000 0.000000 
#    y 0.000000 1.684900 0.000000 
#    z 0.000000 0.000000 1.649330 
# 
# From -- ./inp_files/64726.got.cif
#   From: 2010.05.17/outbox.cif.g08.bks.cpg/sg74_33_cif.got.tgz:64726.got - 2010.06.03 17:57:02.
