data_PCOD9534708
_publ_section_title
;
Structure prediction by ZEFSAII (Michael W. Deem and Ramdas Pophale) SiO2 
 PCOD9534708
Probable space group: I M M A
;
_chemical_formula_sum "Si O2"
_cell_formula_units_Z 72
_cell_length_a 21.461984
_cell_length_b 7.550499
_cell_length_c 24.306869
_cell_angle_alpha 90.000000
_cell_angle_beta 90.000000
_cell_angle_gamma 90.000000
_cell_volume 3938.896249
_symmetry_space_group_name_H-M "I M M A"
_symmetry_group_IT_number 74
_symmetry_cell_setting 'orthorhombic'
loop_
_space_group_symop_operation_xyz
x,y,z
-x,1/2-y,z
x,-y,-z
-x,1/2+y,-z
-x,-y,-z
x,1/2+y,-z
-x,y,z
x,1/2-y,z
1/2+x,1/2+y,1/2+z
1/2-x,-y,1/2+z
1/2+x,1/2-y,1/2-z
1/2-x,y,1/2-z
1/2-x,1/2-y,1/2-z
1/2+x,y,1/2-z
1/2-x,1/2+y,1/2+z
1/2+x,-y,1/2+z
loop_
_atom_site_type_symbol
_atom_site_label
_atom_site_fract_x
_atom_site_fract_y
_atom_site_fract_z
Si Si1 0.430045 0.250000 0.650992
Si Si2 0.366368 0.962177 0.935255
Si Si3 0.798673 0.250000 0.800323
Si Si4 0.236575 0.540514 0.886841
Si Si5 0.500000 0.037427 0.065531
Si Si6 0.606399 0.544099 0.562511
O O1 0.500000 0.250000 0.673710
O O2 0.374978 0.250000 0.696979
O O3 0.421602 0.416825 0.609220
O O4 0.366757 0.750000 0.928751
O O5 0.303283 0.026064 0.907698
O O6 0.433241 0.030567 0.913789
O O7 0.363106 0.000000 0.000000
O O8 0.750000 0.250000 0.750000
O O9 0.782467 0.425063 0.835035
O O10 0.239972 0.750000 0.874673
O O11 0.181292 0.517743 0.931262
O O12 0.500000 0.250000 0.072595
O O13 0.500000 0.000000 0.000000
O O14 0.587370 0.500000 0.500000
O O15 0.592555 0.750000 0.573482
#
# Coordination Sequence:
#
# PCOD9534708 Si02
#       6
#     8  16   8  16   8  16
#     4  10  22  38  56  80 110 148 177 217 268 319
#     4   9  16  25  41  67  99 139 168 203 247 304
#     4  10  22  40  62  78  96 130 178 231 272 313
#     4   9  19  32  51  77 103 132 176 218 264 309
#     4   8  14  24  36  56  92 134 172 194 234 290
#     4  10  18  31  49  78 116 152 182 208 246 312
#
# _framework density 18.279230999999999
#
# number of rings (size 3 to 8) (size 9 to 14) (size 15 to 20)
#    0.000    2.667    1.111    0.667    1.556    1.333 
#    0.000    0.000    2.444    0.000    0.000    0.000 
#    0.000    0.000    0.000    0.000    0.000    0.000 
#
# Total GULP energy -200433.613244 kJ/mol
# GULP energy per Si atom -5567.600368 kJ/mol
# Density = 1.823763 g / cm^3
# Si number density = 18.279231 Si / 1000 Ang^3
#
#
#
# Elastic Constant Matrix: (Units=GPa)
#
#
# Indices 1 2 3 4 5 6 
#
# 1 158.3066 22.6359 22.6956 0.0000 0.0000 0.0000
# 2 22.6359 63.6289 11.7566 0.0000 0.0000 0.0000
# 3 22.6956 11.7566 43.9944 0.0000 0.0000 0.0000
# 4 0.0000 0.0000 0.0000 14.0000 0.0000 0.0000
# 5 0.0000 0.0000 0.0000 0.0000 12.3843 0.0000
# 6 0.0000 0.0000 0.0000 0.0000 0.0000 10.8249
#
#
#
# Elastic Compliance Matrix: (Units=1/GPa)
#
#
# Indices 1 2 3 4 5 6 
#
# 1 0.007039 -0.001928 -0.003116 0.000000 0.000000 0.000000
# 2 -0.001928 0.017061 -0.003564 0.000000 0.000000 0.000000
# 3 -0.003116 -0.003564 0.025290 0.000000 0.000000 0.000000
# 4 0.000000 0.000000 0.000000 0.071428 0.000000 0.000000
# 5 0.000000 0.000000 0.000000 0.000000 0.080748 0.000000
# 6 0.000000 0.000000 0.000000 0.000000 0.000000 0.092379
#
#
# Mechanical properties :
#
#
# Convention : Reuss Voigt Hill
#
# Bulk Modulus (GPa) = 31.08238 42.23403 36.65821
# Shear Modulus (GPa) = 15.53339 21.36464 18.44901
#
# Velocity S-wave (km/s) = 2.91827 3.42247 3.18038
# Velocity P-wave (km/s) = 5.32881 6.22678 5.79521
#
# Compressibility (1/GPa) = 0.03217257
#
# Stress axis : x y z
#
# Youngs Moduli (GPa) = 142.05874 58.61403 39.54113
#
# Poissons Ratio (x) = 0.11304 0.12321
# Poissons Ratio (y) = 0.27396 0.14094
# Poissons Ratio (z) = 0.44267 0.20892
#
# Static dielectric constant tensor:
#      x y z
#    x 1.718410 0.000000 0.000000 
#    y 0.000000 1.635430 0.000000 
#    z 0.000000 0.000000 1.579100 
# 
# From -- ./inp_files/56831.got.cif
#   From: 2010.05.17/outbox.cif.g08.bks.cpg/sg74_29_cif.got.tgz:56831.got - 2010.06.03 17:57:02.
