data_PCOD9534601
_publ_section_title
;
Structure prediction by ZEFSAII (Michael W. Deem and Ramdas Pophale) SiO2 
 PCOD9534601
Probable space group: I M M A
;
_chemical_formula_sum "Si O2"
_cell_formula_units_Z 80
_cell_length_a 18.334425
_cell_length_b 19.458954
_cell_length_c 13.461272
_cell_angle_alpha 90.000000
_cell_angle_beta 90.000000
_cell_angle_gamma 90.000000
_cell_volume 4802.560952
_symmetry_space_group_name_H-M "I M M A"
_symmetry_group_IT_number 74
_symmetry_cell_setting 'orthorhombic'
loop_
_space_group_symop_operation_xyz
x,y,z
-x,1/2-y,z
x,-y,-z
-x,1/2+y,-z
-x,-y,-z
x,1/2+y,-z
-x,y,z
x,1/2-y,z
1/2+x,1/2+y,1/2+z
1/2-x,-y,1/2+z
1/2+x,1/2-y,1/2-z
1/2-x,y,1/2-z
1/2-x,1/2-y,1/2-z
1/2+x,y,1/2-z
1/2-x,1/2+y,1/2+z
1/2+x,-y,1/2+z
loop_
_atom_site_type_symbol
_atom_site_label
_atom_site_fract_x
_atom_site_fract_y
_atom_site_fract_z
Si Si1 0.359624 0.671917 0.151693
Si Si2 0.578119 0.971597 0.110926
Si Si3 0.227505 0.959255 0.644959
Si Si4 0.415081 0.669760 0.378488
Si Si5 0.224473 0.898356 0.060713
O O1 0.376943 0.750000 0.121230
O O2 0.404528 0.609238 0.104581
O O3 0.380506 0.665863 0.267729
O O4 0.276345 0.654130 0.121730
O O5 0.500000 0.981964 0.160917
O O6 0.645440 0.012309 0.157130
O O7 0.575074 0.000000 0.000000
O O8 0.250000 0.928250 0.750000
O O9 0.240082 0.912607 0.547688
O O10 0.271934 0.029272 0.619393
O O11 0.500000 0.647283 0.377719
O O12 0.414295 0.750000 0.407056
O O13 0.358000 0.627846 0.444846
#
# Coordination Sequence:
#
# PCOD9534601 Si02
#       5
#    16  16  16  16  16
#     4  10  18  30  50  76 103 130 167 205 248 309
#     4  10  18  32  50  73 103 135 163 199 260 307
#     4  10  19  33  51  74 101 134 176 212 245 303
#     4  10  20  32  49  76 105 132 161 203 261 313
#     4  10  18  33  50  73 100 137 167 207 258 300
#
# _framework density 16.657779000000001
#
# number of rings (size 3 to 8) (size 9 to 14) (size 15 to 20)
#    0.000    2.000    4.000    4.200    0.000    2.800 
#    0.000    3.000    0.000    2.400    0.000    0.000 
#    0.000    0.000    0.000    0.000    0.000    0.000 
#
# Total GULP energy -222705.166206 kJ/mol
# GULP energy per Si atom -5567.629155 kJ/mol
# Density = 1.661986 g / cm^3
# Si number density = 16.657779 Si / 1000 Ang^3
#
#
#
# Elastic Constant Matrix: (Units=GPa)
#
#
# Indices 1 2 3 4 5 6 
#
# 1 150.3155 37.4956 28.6777 0.0000 0.0000 0.0000
# 2 37.4956 61.0585 19.3716 0.0000 0.0000 0.0000
# 3 28.6777 19.3716 55.0172 0.0000 0.0000 0.0000
# 4 0.0000 0.0000 0.0000 9.3398 0.0000 0.0000
# 5 0.0000 0.0000 0.0000 0.0000 13.7857 0.0000
# 6 0.0000 0.0000 0.0000 0.0000 0.0000 9.3849
#
#
#
# Elastic Compliance Matrix: (Units=1/GPa)
#
#
# Indices 1 2 3 4 5 6 
#
# 1 0.008229 -0.004157 -0.002826 0.000000 0.000000 0.000000
# 2 -0.004157 0.020537 -0.005064 0.000000 0.000000 0.000000
# 3 -0.002826 -0.005064 0.021432 0.000000 0.000000 0.000000
# 4 0.000000 0.000000 0.000000 0.107069 0.000000 0.000000
# 5 0.000000 0.000000 0.000000 0.000000 0.072539 0.000000
# 6 0.000000 0.000000 0.000000 0.000000 0.000000 0.106554
#
#
# Mechanical properties :
#
#
# Convention : Reuss Voigt Hill
#
# Bulk Modulus (GPa) = 38.30769 48.60899 43.45834
# Shear Modulus (GPa) = 13.54444 18.55848 16.05146
#
# Velocity S-wave (km/s) = 2.85458 3.34144 3.10756
# Velocity P-wave (km/s) = 5.82337 6.64314 6.24672
#
# Compressibility (1/GPa) = 0.02610442
#
# Stress axis : x y z
#
# Youngs Moduli (GPa) = 121.52709 48.69239 46.65878
#
# Poissons Ratio (x) = 0.20240 0.13184
# Poissons Ratio (y) = 0.50515 0.23630
# Poissons Ratio (z) = 0.34339 0.24660
#
# Static dielectric constant tensor:
#      x y z
#    x 1.642200 0.000000 0.000000 
#    y 0.000000 1.560840 0.000000 
#    z 0.000000 0.000000 1.564760 
# 
# From -- ./inp_files/33972.got.cif
#   From: 2010.05.17/outbox.cif.g08.bks.cpg/sg74_17_cif.got.tgz:33972.got - 2010.06.03 17:57:02.
