data_PCOD9534698
_publ_section_title
;
Structure prediction by ZEFSAII (Michael W. Deem and Ramdas Pophale) SiO2 
 PCOD9534698
Probable space group: I M M A
;
_chemical_formula_sum "Si O2"
_cell_formula_units_Z 112
_cell_length_a 16.544687
_cell_length_b 21.059318
_cell_length_c 17.799331
_cell_angle_alpha 90.000000
_cell_angle_beta 90.000000
_cell_angle_gamma 90.000000
_cell_volume 6201.639788
_symmetry_space_group_name_H-M "I M M A"
_symmetry_group_IT_number 74
_symmetry_cell_setting 'orthorhombic'
loop_
_space_group_symop_operation_xyz
x,y,z
-x,1/2-y,z
x,-y,-z
-x,1/2+y,-z
-x,-y,-z
x,1/2+y,-z
-x,y,z
x,1/2-y,z
1/2+x,1/2+y,1/2+z
1/2-x,-y,1/2+z
1/2+x,1/2-y,1/2-z
1/2-x,y,1/2-z
1/2-x,1/2-y,1/2-z
1/2+x,y,1/2-z
1/2-x,1/2+y,1/2+z
1/2+x,-y,1/2+z
loop_
_atom_site_type_symbol
_atom_site_label
_atom_site_fract_x
_atom_site_fract_y
_atom_site_fract_z
Si Si1 0.642672 0.677951 0.535619
Si Si2 0.332787 0.820297 0.705523
Si Si3 0.093958 0.320977 0.449405
Si Si4 0.738337 0.017266 0.119526
Si Si5 0.588613 0.542156 0.575911
Si Si6 0.220133 0.395161 0.530486
Si Si7 0.592193 0.414439 0.193129
O O1 0.611266 0.750000 0.523163
O O2 0.685806 0.679589 0.617405
O O3 0.588089 0.615660 0.548504
O O4 0.706639 0.654792 0.473997
O O5 0.364925 0.750000 0.723959
O O6 0.250000 0.830432 0.750000
O O7 0.394871 0.873563 0.731654
O O8 0.126536 0.250000 0.437038
O O9 0.139757 0.355674 0.516620
O O10 0.100049 0.362314 0.373752
O O11 0.000000 0.317309 0.467138
O O12 0.834801 0.027557 0.129817
O O13 0.669535 0.040128 0.177699
O O14 0.723623 0.944079 0.098359
O O15 0.726184 0.060207 0.044208
O O16 0.601258 0.500000 0.500000
O O17 0.500000 0.526274 0.607057
O O18 0.500000 0.440584 0.189418
#
# Coordination Sequence:
#
# PCOD9534698 Si02
#       7
#    16  16  16  16  16  16  16
#     4  10  19  30  46  70  96 125 165 210 253 301
#     4  10  19  30  45  65  94 134 175 213 249 287
#     4   9  16  24  36  56  82 115 154 194 239 290
#     4   9  16  30  46  62  84 116 163 206 249 301
#     4  10  18  31  49  66  88 123 163 207 261 310
#     4   9  15  27  43  61  84 115 155 207 252 296
#     4  10  20  31  45  64  92 131 172 209 246 290
#
# _framework density 18.059740000000001
#
# number of rings (size 3 to 8) (size 9 to 14) (size 15 to 20)
#    0.000    2.429    2.857    3.429    0.000    3.429 
#    0.000    4.286    0.000    0.000    0.000    0.000 
#    0.000    0.000    0.000    3.857    0.000   10.714 
#
# Total GULP energy -311789.644619 kJ/mol
# GULP energy per Si atom -5567.672225 kJ/mol
# Density = 1.801863 g / cm^3
# Si number density = 18.059740 Si / 1000 Ang^3
#
#
#
# Elastic Constant Matrix: (Units=GPa)
#
#
# Indices 1 2 3 4 5 6 
#
# 1 111.0227 36.8447 24.6717 0.0000 0.0000 0.0000
# 2 36.8447 94.1290 29.1672 0.0000 0.0000 0.0000
# 3 24.6717 29.1672 24.6115 0.0000 0.0000 0.0000
# 4 0.0000 0.0000 0.0000 27.1837 0.0000 0.0000
# 5 0.0000 0.0000 0.0000 0.0000 9.5402 0.0000
# 6 0.0000 0.0000 0.0000 0.0000 0.0000 14.1444
#
#
#
# Elastic Compliance Matrix: (Units=1/GPa)
#
#
# Indices 1 2 3 4 5 6 
#
# 1 0.011721 -0.001497 -0.009976 0.000000 0.000000 0.000000
# 2 -0.001497 0.016980 -0.018623 0.000000 0.000000 0.000000
# 3 -0.009976 -0.018623 0.072701 0.000000 0.000000 0.000000
# 4 0.000000 0.000000 0.000000 0.036787 0.000000 0.000000
# 5 0.000000 0.000000 0.000000 0.000000 0.104820 0.000000
# 6 0.000000 0.000000 0.000000 0.000000 0.000000 0.070700
#
#
# Mechanical properties :
#
#
# Convention : Reuss Voigt Hill
#
# Bulk Modulus (GPa) = 24.26486 45.68115 34.97301
# Shear Modulus (GPa) = 12.89870 19.44562 16.17216
#
# Velocity S-wave (km/s) = 2.67540 3.28493 2.99571
# Velocity P-wave (km/s) = 4.79674 6.30373 5.60115
#
# Compressibility (1/GPa) = 0.04121186
#
# Stress axis : x y z
#
# Youngs Moduli (GPa) = 85.31940 58.89237 13.75493
#
# Poissons Ratio (x) = 0.08815 0.13721
# Poissons Ratio (y) = 0.12770 0.25616
# Poissons Ratio (z) = 0.85111 1.09674
#
# Static dielectric constant tensor:
#      x y z
#    x 1.681330 0.000000 0.000000 
#    y 0.000000 1.662930 0.000000 
#    z 0.000000 0.000000 1.617520 
# 
# From -- ./inp_files/44377.got.cif
#   From: 2010.05.17/outbox.cif.g08.bks.cpg/sg74_23_cif.got.tgz:44377.got - 2010.06.03 17:57:02.
