data_PCOD9534871
_publ_section_title
;
Structure prediction by ZEFSAII (Michael W. Deem and Ramdas Pophale) SiO2 
 PCOD9534871
Probable space group: I M M A
;
_chemical_formula_sum "Si O2"
_cell_formula_units_Z 72
_cell_length_a 8.744139
_cell_length_b 16.884500
_cell_length_c 28.330554
_cell_angle_alpha 90.000000
_cell_angle_beta 90.000000
_cell_angle_gamma 90.000000
_cell_volume 4182.734748
_symmetry_space_group_name_H-M "I M M A"
_symmetry_group_IT_number 74
_symmetry_cell_setting 'orthorhombic'
loop_
_space_group_symop_operation_xyz
x,y,z
-x,1/2-y,z
x,-y,-z
-x,1/2+y,-z
-x,-y,-z
x,1/2+y,-z
-x,y,z
x,1/2-y,z
1/2+x,1/2+y,1/2+z
1/2-x,-y,1/2+z
1/2+x,1/2-y,1/2-z
1/2-x,y,1/2-z
1/2-x,1/2-y,1/2-z
1/2+x,y,1/2-z
1/2-x,1/2+y,1/2+z
1/2+x,-y,1/2+z
loop_
_atom_site_type_symbol
_atom_site_label
_atom_site_fract_x
_atom_site_fract_y
_atom_site_fract_z
Si Si1 0.183726 0.661438 0.943410
Si Si2 0.318039 0.914107 0.197501
Si Si3 0.681880 0.993330 0.615083
Si Si4 0.326345 0.418939 0.969387
Si Si5 0.316724 0.750000 0.303286
O O1 0.223623 0.750000 0.927445
O O2 0.228569 0.591428 0.907362
O O3 0.000000 0.656082 0.948352
O O4 0.256720 0.643985 0.994422
O O5 0.500000 0.906419 0.200592
O O6 0.250000 0.925226 0.250000
O O7 0.246985 0.832334 0.176805
O O8 0.268151 0.984040 0.162777
O O9 0.500000 0.993238 0.622731
O O10 0.726203 0.058991 0.575865
O O11 0.500000 0.399191 0.955535
O O12 0.330057 0.500000 0.000000
O O13 0.500000 0.750000 0.302819
O O14 0.250000 0.750000 0.250000
#
# Coordination Sequence:
#
# PCOD9534871 Si02
#       5
#    16  16  16  16   8
#     4   9  18  33  53  76 103 136 173 212 258 310
#     4  11  21  35  54  77 105 136 172 212 255 305
#     4  10  19  33  53  76 103 136 173 213 257 307
#     4   9  17  30  48  71  99 130 165 207 253 301
#     4  10  18  32  52  74 100 130 164 202 248 298
#
# _framework density 17.213619000000001
#
# number of rings (size 3 to 8) (size 9 to 14) (size 15 to 20)
#    0.000    2.222    0.000    5.667    0.000    4.000 
#    2.000    0.000    0.000    0.667    0.000    0.000 
#    0.000    0.000    0.000    0.000    0.000    0.000 
#
# Total GULP energy -200725.269578 kJ/mol
# GULP energy per Si atom -5575.701933 kJ/mol
# Density = 1.717444 g / cm^3
# Si number density = 17.213619 Si / 1000 Ang^3
#
#
#
# Elastic Constant Matrix: (Units=GPa)
#
#
# Indices 1 2 3 4 5 6 
#
# 1 104.0102 40.0937 36.3313 0.0000 0.0000 0.0000
# 2 40.0937 103.4535 44.7949 0.0000 0.0000 0.0000
# 3 36.3313 44.7949 71.6742 0.0000 0.0000 0.0000
# 4 0.0000 0.0000 0.0000 22.3250 0.0000 0.0000
# 5 0.0000 0.0000 0.0000 0.0000 28.0206 0.0000
# 6 0.0000 0.0000 0.0000 0.0000 0.0000 19.1032
#
#
#
# Elastic Compliance Matrix: (Units=1/GPa)
#
#
# Indices 1 2 3 4 5 6 
#
# 1 0.012257 -0.002824 -0.004448 0.000000 0.000000 0.000000
# 2 -0.002824 0.013903 -0.007258 0.000000 0.000000 0.000000
# 3 -0.004448 -0.007258 0.020742 0.000000 0.000000 0.000000
# 4 0.000000 0.000000 0.000000 0.044793 0.000000 0.000000
# 5 0.000000 0.000000 0.000000 0.000000 0.035688 0.000000
# 6 0.000000 0.000000 0.000000 0.000000 0.000000 0.052347
#
#
# Mechanical properties :
#
#
# Convention : Reuss Voigt Hill
#
# Bulk Modulus (GPa) = 56.04410 57.95309 56.99860
# Shear Modulus (GPa) = 23.28420 24.41762 23.85091
#
# Velocity S-wave (km/s) = 3.68185 3.77039 3.72638
# Velocity P-wave (km/s) = 7.12063 7.25910 7.19020
#
# Compressibility (1/GPa) = 0.01784309
#
# Stress axis : x y z
#
# Youngs Moduli (GPa) = 81.58756 71.92554 48.21023
#
# Poissons Ratio (x) = 0.20314 0.21443
# Poissons Ratio (y) = 0.23043 0.34989
# Poissons Ratio (z) = 0.36288 0.52201
#
# Static dielectric constant tensor:
#      x y z
#    x 1.582780 0.000000 0.000000 
#    y 0.000000 1.614130 0.000000 
#    z 0.000000 0.000000 1.582540 
# 
# From -- ./inp_files/56706.got.cif
#   From: 2010.05.17/outbox.cif.g08.bks.cpg/sg74_29_cif.got.tgz:56706.got - 2010.06.03 17:57:02.
