data_PCOD9534225
_publ_section_title
;
Structure prediction by ZEFSAII (Michael W. Deem and Ramdas Pophale) SiO2 
 PCOD9534225
Probable space group: I M M A
;
_chemical_formula_sum "Si O2"
_cell_formula_units_Z 80
_cell_length_a 28.632952
_cell_length_b 7.371966
_cell_length_c 18.441686
_cell_angle_alpha 90.000000
_cell_angle_beta 90.000000
_cell_angle_gamma 90.000000
_cell_volume 3892.692263
_symmetry_space_group_name_H-M "I M M A"
_symmetry_group_IT_number 74
_symmetry_cell_setting 'orthorhombic'
loop_
_space_group_symop_operation_xyz
x,y,z
-x,1/2-y,z
x,-y,-z
-x,1/2+y,-z
-x,-y,-z
x,1/2+y,-z
-x,y,z
x,1/2-y,z
1/2+x,1/2+y,1/2+z
1/2-x,-y,1/2+z
1/2+x,1/2-y,1/2-z
1/2-x,y,1/2-z
1/2-x,1/2-y,1/2-z
1/2+x,y,1/2-z
1/2-x,1/2+y,1/2+z
1/2+x,-y,1/2+z
loop_
_atom_site_type_symbol
_atom_site_label
_atom_site_fract_x
_atom_site_fract_y
_atom_site_fract_z
Si Si1 0.415708 0.034198 0.579418
Si Si2 0.050811 0.028606 0.764899
Si Si3 0.815415 0.970833 0.126516
Si Si4 0.348826 0.029109 0.785463
Si Si5 0.286304 0.466482 0.917859
O O1 0.413649 0.250000 0.587229
O O2 0.442393 0.970422 0.651122
O O3 0.362137 0.966336 0.585337
O O4 0.435640 0.000000 0.500000
O O5 0.050997 0.250000 0.763837
O O6 0.097320 0.970533 0.722586
O O7 0.000000 0.969711 0.738207
O O8 0.815163 0.750000 0.123452
O O9 0.822415 0.020665 0.210907
O O10 0.766439 0.035914 0.094870
O O11 0.349385 0.250000 0.786622
O O12 0.321451 0.965151 0.856193
O O13 0.284027 0.250000 0.908030
O O14 0.301323 0.500000 0.000000
#
# Coordination Sequence:
#
# PCOD9534225 Si02
#       5
#    16  16  16  16  16
#     4   9  16  25  38  58  84 110 133 160 195 233
#     4   8  14  25  41  60  79 100 132 173 206 229
#     4   8  14  25  41  60  81 107 139 167 189 222
#     4   8  14  25  42  61  78 102 138 171 195 227
#     4  10  18  27  42  63  85 107 131 163 201 238
#
# _framework density 20.55133
#
# number of rings (size 3 to 8) (size 9 to 14) (size 15 to 20)
#    0.000    3.400    0.000    3.600    0.000    2.800 
#    0.000    0.000    0.000    7.800    0.000    0.000 
#    0.000    0.000    0.000    0.000    0.000    0.000 
#
# Total GULP energy -223130.391463 kJ/mol
# GULP energy per Si atom -5578.259787 kJ/mol
# Density = 2.050455 g / cm^3
# Si number density = 20.551330 Si / 1000 Ang^3
#
#
#
# Elastic Constant Matrix: (Units=GPa)
#
#
# Indices 1 2 3 4 5 6 
#
# 1 83.5613 1.5868 25.2260 0.0000 0.0000 0.0000
# 2 1.5868 71.4162 -6.5627 0.0000 0.0000 0.0000
# 3 25.2260 -6.5627 76.6418 0.0000 0.0000 0.0000
# 4 0.0000 0.0000 0.0000 13.6139 0.0000 0.0000
# 5 0.0000 0.0000 0.0000 0.0000 3.3785 0.0000
# 6 0.0000 0.0000 0.0000 0.0000 0.0000 -15.0677
#
#
#
# Elastic Compliance Matrix: (Units=1/GPa)
#
#
# Indices 1 2 3 4 5 6 
#
# 1 0.013323 -0.000705 -0.004445 0.000000 0.000000 0.000000
# 2 -0.000705 0.014151 0.001444 0.000000 0.000000 0.000000
# 3 -0.004445 0.001444 0.014634 0.000000 0.000000 0.000000
# 4 0.000000 0.000000 0.000000 0.073455 0.000000 0.000000
# 5 0.000000 0.000000 0.000000 0.000000 0.295991 0.000000
# 6 0.000000 0.000000 0.000000 0.000000 0.000000 -0.066367
#
#
# Mechanical properties :
#
#
# Convention : Reuss Voigt Hill
#
# Bulk Modulus (GPa) = 28.82237 30.23550 29.52893
# Shear Modulus (GPa) = 13.73007 14.47621 14.10314
#
# Velocity S-wave (km/s) = 2.58754 2.65692 2.62246
# Velocity P-wave (km/s) = 4.79397 4.91492 4.85482
#
# Compressibility (1/GPa) = 0.03469527
#
# Stress axis : x y z
#
# Youngs Moduli (GPa) = 75.06029 70.66767 68.33178
#
# Poissons Ratio (x) = 0.04979 0.30376
# Poissons Ratio (y) = 0.05288 -0.09864
# Poissons Ratio (z) = 0.33367 -0.10201
#
# Static dielectric constant tensor:
#      x y z
#    x 1.736950 0.000000 0.000000 
#    y 0.000000 1.807120 0.000000 
#    z 0.000000 0.000000 1.703170 
# 
# From -- ./inp_files/18975.got.cif
#   From: 2010.05.17/outbox.cif.g08.bks.cpg/sg74_10_cif.got.tgz:18975.got - 2010.06.03 17:57:02.
