data_PCOD9534547
_publ_section_title
;
Structure prediction by ZEFSAII (Michael W. Deem and Ramdas Pophale) SiO2 
 PCOD9534547
Probable space group: I M M A
;
_chemical_formula_sum "Si O2"
_cell_formula_units_Z 104
_cell_length_a 7.555404
_cell_length_b 20.654652
_cell_length_c 33.954145
_cell_angle_alpha 90.000000
_cell_angle_beta 90.000000
_cell_angle_gamma 90.000000
_cell_volume 5298.688304
_symmetry_space_group_name_H-M "I M M A"
_symmetry_group_IT_number 74
_symmetry_cell_setting 'orthorhombic'
loop_
_space_group_symop_operation_xyz
x,y,z
-x,1/2-y,z
x,-y,-z
-x,1/2+y,-z
-x,-y,-z
x,1/2+y,-z
-x,y,z
x,1/2-y,z
1/2+x,1/2+y,1/2+z
1/2-x,-y,1/2+z
1/2+x,1/2-y,1/2-z
1/2-x,y,1/2-z
1/2-x,1/2-y,1/2-z
1/2+x,y,1/2-z
1/2-x,1/2+y,1/2+z
1/2+x,-y,1/2+z
loop_
_atom_site_type_symbol
_atom_site_label
_atom_site_fract_x
_atom_site_fract_y
_atom_site_fract_z
Si Si1 0.711749 0.977964 0.794325
Si Si2 0.213523 0.076978 0.376785
Si Si3 0.712032 0.750000 0.204074
Si Si4 0.283912 0.386496 0.827566
Si Si5 0.213478 0.559563 0.411397
Si Si6 0.793816 0.927771 0.002052
Si Si7 0.290324 0.822920 0.559197
O O1 0.500000 0.979672 0.797905
O O2 0.750000 0.956076 0.750000
O O3 0.774917 0.935827 0.831874
O O4 0.775713 0.051826 0.801666
O O5 0.268819 0.141926 0.398767
O O6 0.000000 0.075919 0.376431
O O7 0.271230 0.014702 0.402947
O O8 0.500000 0.750000 0.197916
O O9 0.750000 0.750000 0.250000
O O10 0.781046 0.817081 0.186354
O O11 0.500000 0.386223 0.825769
O O12 0.234652 0.401424 0.872481
O O13 0.283019 0.588394 0.451877
O O14 0.000000 0.559271 0.413473
O O15 0.716296 0.873077 0.973481
O O16 0.000000 0.934342 0.990583
O O17 0.712612 0.000000 0.000000
O O18 0.500000 0.817710 0.551552
O O19 0.217386 0.750000 0.558045
#
# Coordination Sequence:
#
# PCOD9534547 Si02
#       7
#    16  16   8  16  16  16  16
#     4   9  17  30  48  73 100 124 155 199 246 287
#     4   9  18  32  51  73  99 128 159 199 242 283
#     4  10  18  30  48  66  92 130 168 204 244 290
#     4   8  16  30  46  66  95 129 162 201 245 285
#     4   9  17  31  50  71  95 126 165 203 241 283
#     4  10  19  32  51  74  99 128 162 200 241 288
#     4  10  21  36  52  72 100 131 162 198 244 292
#
# _framework density 19.627499
#
# number of rings (size 3 to 8) (size 9 to 14) (size 15 to 20)
#    0.000    2.769    1.538    2.308    0.000    1.846 
#    1.385    3.077    0.000    0.462    0.000    0.000 
#    0.000    0.000    0.000    0.000    0.000    0.000 
#
# Total GULP energy -289962.503578 kJ/mol
# GULP energy per Si atom -5576.201992 kJ/mol
# Density = 1.958283 g / cm^3
# Si number density = 19.627499 Si / 1000 Ang^3
#
#
#
# Elastic Constant Matrix: (Units=GPa)
#
#
# Indices 1 2 3 4 5 6 
#
# 1 46.8917 9.0755 -3.3022 0.0000 0.0000 0.0000
# 2 9.0755 157.9816 83.0132 0.0000 0.0000 0.0000
# 3 -3.3022 83.0132 142.2975 0.0000 0.0000 0.0000
# 4 0.0000 0.0000 0.0000 23.2014 0.0000 0.0000
# 5 0.0000 0.0000 0.0000 0.0000 24.0697 0.0000
# 6 0.0000 0.0000 0.0000 0.0000 0.0000 7.7660
#
#
#
# Elastic Compliance Matrix: (Units=1/GPa)
#
#
# Indices 1 2 3 4 5 6 
#
# 1 0.021877 -0.002197 0.001789 0.000000 0.000000 0.000000
# 2 -0.002197 0.009349 -0.005505 0.000000 0.000000 0.000000
# 3 0.001789 -0.005505 0.010280 0.000000 0.000000 0.000000
# 4 0.000000 0.000000 0.000000 0.043101 0.000000 0.000000
# 5 0.000000 0.000000 0.000000 0.000000 0.041546 0.000000
# 6 0.000000 0.000000 0.000000 0.000000 0.000000 0.128767
#
#
# Mechanical properties :
#
#
# Convention : Reuss Voigt Hill
#
# Bulk Modulus (GPa) = 33.69139 58.30487 45.99813
# Shear Modulus (GPa) = 18.07417 28.23304 23.15360
#
# Velocity S-wave (km/s) = 3.03786 3.79680 3.43833
# Velocity P-wave (km/s) = 5.43208 6.99936 6.26492
#
# Compressibility (1/GPa) = 0.02968117
#
# Stress axis : x y z
#
# Youngs Moduli (GPa) = 45.71023 106.96793 97.27243
#
# Poissons Ratio (x) = 0.23501 -0.17406
# Poissons Ratio (y) = 0.10043 0.53546
# Poissons Ratio (z) = -0.08179 0.58883
#
# Static dielectric constant tensor:
#      x y z
#    x 1.752850 0.000000 0.000000 
#    y 0.000000 1.694100 0.000000 
#    z 0.000000 0.000000 1.698360 
# 
# From -- ./inp_files/66188.got.cif
#   From: 2010.05.17/outbox.cif.g08.bks.cpg/sg74_34_cif.got.tgz:66188.got - 2010.06.03 17:57:02.
