data_PCOD9534342
_publ_section_title
;
Structure prediction by ZEFSAII (Michael W. Deem and Ramdas Pophale) SiO2 
 PCOD9534342
Probable space group: I M M A
;
_chemical_formula_sum "Si O2"
_cell_formula_units_Z 68
_cell_length_a 16.471856
_cell_length_b 8.022781
_cell_length_c 20.121136
_cell_angle_alpha 90.000000
_cell_angle_beta 90.000000
_cell_angle_gamma 90.000000
_cell_volume 2659.010001
_symmetry_space_group_name_H-M "I M M A"
_symmetry_group_IT_number 74
_symmetry_cell_setting 'orthorhombic'
loop_
_space_group_symop_operation_xyz
x,y,z
-x,1/2-y,z
x,-y,-z
-x,1/2+y,-z
-x,-y,-z
x,1/2+y,-z
-x,y,z
x,1/2-y,z
1/2+x,1/2+y,1/2+z
1/2-x,-y,1/2+z
1/2+x,1/2-y,1/2-z
1/2-x,y,1/2-z
1/2-x,1/2-y,1/2-z
1/2+x,y,1/2-z
1/2-x,1/2+y,1/2+z
1/2+x,-y,1/2+z
loop_
_atom_site_type_symbol
_atom_site_label
_atom_site_fract_x
_atom_site_fract_y
_atom_site_fract_z
Si Si1 0.345928 0.750000 0.247856
Si Si2 0.500000 0.750000 0.613355
Si Si3 0.407574 0.430278 0.234113
Si Si4 0.124255 0.048606 0.921730
Si Si5 0.095653 0.750000 0.407228
Si Si6 0.193186 0.060871 0.400718
O O1 0.250000 0.750000 0.250000
O O2 0.381986 0.584156 0.278463
O O3 0.381906 0.750000 0.172406
O O4 0.568699 0.597766 0.608199
O O5 0.500000 0.455212 0.209030
O O6 0.408211 0.250000 0.266368
O O7 0.343430 0.424230 0.174133
O O8 0.105330 0.250000 0.915600
O O9 0.217690 0.015821 0.900695
O O10 0.120683 0.000000 0.000000
O O11 0.135720 0.579874 0.432735
O O12 0.000000 0.750000 0.416419
O O13 0.192718 0.250000 0.427684
#
# Coordination Sequence:
#
# PCOD9534342 Si02
#       6
#     8   4  16  16   8  16
#     4  10  18  28  47  82 111 135 169 221 265 307
#     4  12  24  38  54  78 106 140 186 234 280 324
#     4   9  18  33  56  83 107 141 184 223 261 315
#     4  12  23  36  55  82 107 143 184 233 283 331
#     4  10  20  35  59  85 108 145 191 228 264 324
#     4  10  18  33  54  82 109 140 180 232 275 321
#
# _framework density 25.573428
#
# number of rings (size 3 to 8) (size 9 to 14) (size 15 to 20)
#    0.000    1.647    3.529    3.882    0.000    1.882 
#    0.000    0.000    0.000    2.824   36.706    0.000 
#    0.000    0.000    0.000    0.000    0.000    0.000 
#
# Total GULP energy -189605.013222 kJ/mol
# GULP energy per Si atom -5576.618036 kJ/mol
# Density = 2.551522 g / cm^3
# Si number density = 25.573428 Si / 1000 Ang^3
#
#
#
# Elastic Constant Matrix: (Units=GPa)
#
#
# Indices 1 2 3 4 5 6 
#
# 1 195.2621 119.4214 33.8075 0.0000 0.0000 0.0000
# 2 119.4214 340.5247 50.1225 0.0000 0.0000 0.0000
# 3 33.8075 50.1225 89.0320 0.0000 0.0000 0.0000
# 4 0.0000 0.0000 0.0000 43.7838 0.0000 0.0000
# 5 0.0000 0.0000 0.0000 0.0000 -29.4889 0.0000
# 6 0.0000 0.0000 0.0000 0.0000 0.0000 61.5666
#
#
#
# Elastic Compliance Matrix: (Units=1/GPa)
#
#
# Indices 1 2 3 4 5 6 
#
# 1 0.006660 -0.002141 -0.001324 0.000000 0.000000 0.000000
# 2 -0.002141 0.003890 -0.001377 0.000000 0.000000 0.000000
# 3 -0.001324 -0.001377 0.012510 0.000000 0.000000 0.000000
# 4 0.000000 0.000000 0.000000 0.022840 0.000000 0.000000
# 5 0.000000 0.000000 0.000000 0.000000 -0.033911 0.000000
# 6 0.000000 0.000000 0.000000 0.000000 0.000000 0.016243
#
#
# Mechanical properties :
#
#
# Convention : Reuss Voigt Hill
#
# Bulk Modulus (GPa) = 74.75744 114.61350 94.68547
# Shear Modulus (GPa) = 118.00061 43.27013 80.63537
#
# Velocity S-wave (km/s) = 6.80015 4.11785 5.62133
# Velocity P-wave (km/s) = 9.53688 8.21728 8.90156
#
# Compressibility (1/GPa) = 0.01337659
#
# Stress axis : x y z
#
# Youngs Moduli (GPa) = 150.15540 257.06293 79.93706
#
# Poissons Ratio (x) = 0.55030 0.10581
# Poissons Ratio (y) = 0.32144 0.11008
# Poissons Ratio (z) = 0.19876 0.35401
#
# Static dielectric constant tensor:
#      x y z
#    x 1.904590 0.000000 0.000000 
#    y 0.000000 2.184070 0.000000 
#    z 0.000000 0.000000 2.141570 
# 
# From -- ./inp_files/66698.got.cif
#   From: 2010.05.17/outbox.cif.g08.bks.cpg/sg74_34_cif.got.tgz:66698.got - 2010.06.03 17:57:02.
