data_PCOD9534882
_publ_section_title
;
Structure prediction by ZEFSAII (Michael W. Deem and Ramdas Pophale) SiO2 
 PCOD9534882
Probable space group: I M M A
;
_chemical_formula_sum "Si O2"
_cell_formula_units_Z 80
_cell_length_a 16.761552
_cell_length_b 15.572275
_cell_length_c 14.999539
_cell_angle_alpha 90.000000
_cell_angle_beta 90.000000
_cell_angle_gamma 90.000000
_cell_volume 3915.112129
_symmetry_space_group_name_H-M "I M M A"
_symmetry_group_IT_number 74
_symmetry_cell_setting 'orthorhombic'
loop_
_space_group_symop_operation_xyz
x,y,z
-x,1/2-y,z
x,-y,-z
-x,1/2+y,-z
-x,-y,-z
x,1/2+y,-z
-x,y,z
x,1/2-y,z
1/2+x,1/2+y,1/2+z
1/2-x,-y,1/2+z
1/2+x,1/2-y,1/2-z
1/2-x,y,1/2-z
1/2-x,1/2-y,1/2-z
1/2+x,y,1/2-z
1/2-x,1/2+y,1/2+z
1/2+x,-y,1/2+z
loop_
_atom_site_type_symbol
_atom_site_label
_atom_site_fract_x
_atom_site_fract_y
_atom_site_fract_z
Si Si1 0.337002 0.410409 0.080406
Si Si2 0.095181 0.150746 0.802651
Si Si3 0.093876 0.343634 0.246354
Si Si4 0.907876 0.903440 0.400222
Si Si5 0.307975 0.008179 0.336938
O O1 0.357206 0.348383 0.161470
O O2 0.394072 0.493577 0.098738
O O3 0.249358 0.450074 0.090017
O O4 0.355813 0.373002 0.983782
O O5 0.111923 0.250000 0.823065
O O6 0.111373 0.133101 0.697082
O O7 0.149582 0.082199 0.854034
O O8 0.000000 0.135351 0.815581
O O9 0.107344 0.250000 0.204419
O O10 0.125269 0.422346 0.188447
O O11 0.000000 0.352560 0.264855
O O12 0.000000 0.883889 0.418361
O O13 0.250000 0.998576 0.250000
#
# Coordination Sequence:
#
# PCOD9534882 Si02
#       5
#    16  16  16  16  16
#     4  10  19  30  48  74 104 139 171 210 262 314
#     4  10  20  34  54  79 108 146 185 220 265 322
#     4  10  19  31  49  71  97 132 172 211 256 307
#     4  10  18  32  52  74 106 141 172 211 256 317
#     4  10  19  32  48  75 107 139 174 221 263 317
#
# _framework density 20.433641999999999
#
# number of rings (size 3 to 8) (size 9 to 14) (size 15 to 20)
#    0.000    2.000    4.000    3.000    0.000    4.800 
#    0.000    2.000    0.000    0.000    0.000   11.200 
#    0.000   12.800    0.000    0.000    0.000    0.000 
#
# Total GULP energy -223220.341947 kJ/mol
# GULP energy per Si atom -5580.508549 kJ/mol
# Density = 2.038713 g / cm^3
# Si number density = 20.433642 Si / 1000 Ang^3
#
#
#
# Elastic Constant Matrix: (Units=GPa)
#
#
# Indices 1 2 3 4 5 6 
#
# 1 96.1440 53.7595 30.1360 0.0000 0.0000 0.0000
# 2 53.7595 111.6056 1.1489 0.0000 0.0000 0.0000
# 3 30.1360 1.1489 26.3316 0.0000 0.0000 0.0000
# 4 0.0000 0.0000 0.0000 12.4976 0.0000 0.0000
# 5 0.0000 0.0000 0.0000 0.0000 12.6623 0.0000
# 6 0.0000 0.0000 0.0000 0.0000 0.0000 20.7593
#
#
#
# Elastic Compliance Matrix: (Units=1/GPa)
#
#
# Indices 1 2 3 4 5 6 
#
# 1 0.027028 -0.012706 -0.030379 0.000000 0.000000 0.000000
# 2 -0.012706 0.014938 0.013890 0.000000 0.000000 0.000000
# 3 -0.030379 0.013890 0.072139 0.000000 0.000000 0.000000
# 4 0.000000 0.000000 0.000000 0.080015 0.000000 0.000000
# 5 0.000000 0.000000 0.000000 0.000000 0.078974 0.000000
# 6 0.000000 0.000000 0.000000 0.000000 0.000000 0.048171
#
#
# Mechanical properties :
#
#
# Convention : Reuss Voigt Hill
#
# Bulk Modulus (GPa) = 17.94832 44.90778 31.42805
# Shear Modulus (GPa) = 12.55568 19.11965 15.83766
#
# Velocity S-wave (km/s) = 2.48152 3.06223 2.78704
# Velocity P-wave (km/s) = 4.12473 5.87606 5.07649
#
# Compressibility (1/GPa) = 0.05571551
#
# Stress axis : x y z
#
# Youngs Moduli (GPa) = 36.99868 66.94470 13.86215
#
# Poissons Ratio (x) = 0.85063 0.42111
# Poissons Ratio (y) = 0.47012 -0.19255
# Poissons Ratio (z) = 1.12397 -0.92989
#
# Static dielectric constant tensor:
#      x y z
#    x 1.732930 0.000000 0.000000 
#    y 0.000000 1.747210 0.000000 
#    z 0.000000 0.000000 1.761980 
# 
# From -- ./inp_files/43859.got.cif
#   From: 2010.05.17/outbox.cif.g08.bks.cpg/sg74_22_cif.got.tgz:43859.got - 2010.06.03 17:57:02.
