data_PCOD9534124
_publ_section_title
;
Structure prediction by ZEFSAII (Michael W. Deem and Ramdas Pophale) SiO2 
 PCOD9534124
Probable space group: I M M A
;
_chemical_formula_sum "Si O2"
_cell_formula_units_Z 88
_cell_length_a 20.726569
_cell_length_b 14.456882
_cell_length_c 15.236517
_cell_angle_alpha 90.000000
_cell_angle_beta 90.000000
_cell_angle_gamma 90.000000
_cell_volume 4565.493758
_symmetry_space_group_name_H-M "I M M A"
_symmetry_group_IT_number 74
_symmetry_cell_setting 'orthorhombic'
loop_
_space_group_symop_operation_xyz
x,y,z
-x,1/2-y,z
x,-y,-z
-x,1/2+y,-z
-x,-y,-z
x,1/2+y,-z
-x,y,z
x,1/2-y,z
1/2+x,1/2+y,1/2+z
1/2-x,-y,1/2+z
1/2+x,1/2-y,1/2-z
1/2-x,y,1/2-z
1/2-x,1/2-y,1/2-z
1/2+x,y,1/2-z
1/2-x,1/2+y,1/2+z
1/2+x,-y,1/2+z
loop_
_atom_site_type_symbol
_atom_site_label
_atom_site_fract_x
_atom_site_fract_y
_atom_site_fract_z
Si Si1 0.000000 0.408667 0.560851
Si Si2 0.273964 0.859363 0.949506
Si Si3 0.139543 0.858024 0.882057
Si Si4 0.363573 0.355310 0.889381
Si Si5 0.000000 0.035522 0.285099
Si Si6 0.000000 0.932089 0.917518
Si Si7 0.859308 0.546897 0.699041
O O1 0.000000 0.500000 0.500000
O O2 0.930927 0.360067 0.555204
O O3 0.000000 0.440340 0.662531
O O4 0.282736 0.750000 0.933722
O O5 0.197628 0.877580 0.948999
O O6 0.310814 0.911091 0.871332
O O7 0.307746 0.879719 0.041440
O O8 0.143184 0.750000 0.856013
O O9 0.154760 0.920893 0.797307
O O10 0.067672 0.876948 0.917409
O O11 0.356081 0.250000 0.857069
O O12 0.361760 0.436481 0.817166
O O13 0.000000 0.023323 0.180559
O O14 0.933319 0.082726 0.314379
O O15 0.000000 0.000000 0.000000
#
# Coordination Sequence:
#
# PCOD9534124 Si02
#       7
#     8  16  16  16   8   8  16
#     4  10  17  31  55  80 112 152 189 224 268 324
#     4  10  20  33  52  81 113 145 186 232 282 340
#     4  10  21  38  60  84 109 140 185 242 295 338
#     4  10  20  32  50  80 117 154 186 222 272 338
#     4   8  18  32  50  80 110 142 184 224 266 326
#     4  10  21  37  59  82 110 144 181 230 288 342
#     4  10  18  33  55  79 110 148 186 231 282 338
#
# _framework density 19.275023000000001
#
# number of rings (size 3 to 8) (size 9 to 14) (size 15 to 20)
#    0.000    2.182    0.000    4.364    0.000    2.909 
#    0.000    2.273    0.000   22.909    0.000    0.000 
#    0.000    0.000    0.000    0.000    0.000    0.000 
#
# Total GULP energy -245100.124587 kJ/mol
# GULP energy per Si atom -5570.457377 kJ/mol
# Density = 1.923115 g / cm^3
# Si number density = 19.275023 Si / 1000 Ang^3
#
#
#
# Elastic Constant Matrix: (Units=GPa)
#
#
# Indices 1 2 3 4 5 6 
#
# 1 130.0256 40.7658 47.6278 0.0000 0.0000 0.0000
# 2 40.7658 69.5178 45.3772 0.0000 0.0000 0.0000
# 3 47.6278 45.3772 52.8838 0.0000 0.0000 0.0000
# 4 0.0000 0.0000 0.0000 25.1143 0.0000 0.0000
# 5 0.0000 0.0000 0.0000 0.0000 24.5967 0.0000
# 6 0.0000 0.0000 0.0000 0.0000 0.0000 25.5748
#
#
#
# Elastic Compliance Matrix: (Units=1/GPa)
#
#
# Indices 1 2 3 4 5 6 
#
# 1 0.011477 0.000038 -0.010369 0.000000 0.000000 0.000000
# 2 0.000038 0.032700 -0.028092 0.000000 0.000000 0.000000
# 3 -0.010369 -0.028092 0.052353 0.000000 0.000000 0.000000
# 4 0.000000 0.000000 0.000000 0.039818 0.000000 0.000000
# 5 0.000000 0.000000 0.000000 0.000000 0.040656 0.000000
# 6 0.000000 0.000000 0.000000 0.000000 0.000000 0.039101
#
#
# Mechanical properties :
#
#
# Convention : Reuss Voigt Hill
#
# Bulk Modulus (GPa) = 50.80612 57.77431 54.29022
# Shear Modulus (GPa) = 16.69386 22.96758 19.83072
#
# Velocity S-wave (km/s) = 2.94613 3.45566 3.21102
# Velocity P-wave (km/s) = 6.16349 6.77944 6.47879
#
# Compressibility (1/GPa) = 0.01968267
#
# Stress axis : x y z
#
# Youngs Moduli (GPa) = 87.13107 30.58148 19.10124
#
# Poissons Ratio (x) = -0.00116 0.19806
# Poissons Ratio (y) = -0.00332 0.53660
# Poissons Ratio (z) = 0.90346 0.85911
#
# Static dielectric constant tensor:
#      x y z
#    x 1.753160 0.000000 0.000000 
#    y 0.000000 1.684000 0.000000 
#    z 0.000000 0.000000 1.655550 
# 
# From -- ./inp_files/35204.got.cif
#   From: 2010.05.17/outbox.cif.g08.bks.cpg/sg74_18_cif.got.tgz:35204.got - 2010.06.03 17:57:02.
