data_PCOD9534340
_publ_section_title
;
Structure prediction by ZEFSAII (Michael W. Deem and Ramdas Pophale) SiO2 
 PCOD9534340
Probable space group: I M M A
;
_chemical_formula_sum "Si O2"
_cell_formula_units_Z 96
_cell_length_a 15.291773
_cell_length_b 14.079959
_cell_length_c 22.564157
_cell_angle_alpha 90.000000
_cell_angle_beta 90.000000
_cell_angle_gamma 90.000000
_cell_volume 4858.233065
_symmetry_space_group_name_H-M "I M M A"
_symmetry_group_IT_number 74
_symmetry_cell_setting 'orthorhombic'
loop_
_space_group_symop_operation_xyz
x,y,z
-x,1/2-y,z
x,-y,-z
-x,1/2+y,-z
-x,-y,-z
x,1/2+y,-z
-x,y,z
x,1/2-y,z
1/2+x,1/2+y,1/2+z
1/2-x,-y,1/2+z
1/2+x,1/2-y,1/2-z
1/2-x,y,1/2-z
1/2-x,1/2-y,1/2-z
1/2+x,y,1/2-z
1/2-x,1/2+y,1/2+z
1/2+x,-y,1/2+z
loop_
_atom_site_type_symbol
_atom_site_label
_atom_site_fract_x
_atom_site_fract_y
_atom_site_fract_z
Si Si1 0.858799 0.642981 0.506487
Si Si2 0.100293 0.852233 0.370241
Si Si3 0.400261 0.967084 0.598518
Si Si4 0.266026 0.140883 0.318220
Si Si5 0.152339 0.360713 0.981497
Si Si6 0.398642 0.559623 0.873344
O O1 0.872976 0.750000 0.530096
O O2 0.900434 0.642244 0.441685
O O3 0.755547 0.628789 0.495482
O O4 0.892630 0.570836 0.555520
O O5 0.142408 0.750000 0.354706
O O6 0.000000 0.849629 0.349715
O O7 0.134684 0.955378 0.352559
O O8 0.500000 0.969947 0.619928
O O9 0.333434 0.926104 0.646820
O O10 0.394475 0.898528 0.540743
O O11 0.372517 0.069757 0.572301
O O12 0.297415 0.250000 0.321727
O O13 0.250000 0.115313 0.250000
O O14 0.171278 0.132710 0.348577
O O15 0.134114 0.250000 0.970249
O O16 0.500000 0.572427 0.856248
#
# Coordination Sequence:
#
# PCOD9534340 Si02
#       6
#    16  16  16  16  16  16
#     4  10  18  28  47  77 116 156 186 221 274 334
#     4   9  18  30  46  75 113 151 186 218 265 334
#     4  11  23  38  61  91 123 160 202 251 305 359
#     4  11  25  44  63  83 112 152 198 250 307 366
#     4  10  20  35  58  90 128 163 196 240 299 367
#     4  11  21  34  56  82 110 146 191 241 287 340
#
# _framework density 19.760269999999998
#
# number of rings (size 3 to 8) (size 9 to 14) (size 15 to 20)
#    0.000    1.667    1.667    4.000    2.333    6.333 
#    0.000    1.667    0.000    2.000    0.000    2.333 
#    0.000    0.000    0.000    0.000    0.000    0.000 
#
# Total GULP energy -267815.686043 kJ/mol
# GULP energy per Si atom -5579.493459 kJ/mol
# Density = 1.971529 g / cm^3
# Si number density = 19.760270 Si / 1000 Ang^3
#
#
#
# Elastic Constant Matrix: (Units=GPa)
#
#
# Indices 1 2 3 4 5 6 
#
# 1 93.2888 36.8029 22.5473 0.0000 0.0000 0.0000
# 2 36.8029 137.0305 31.4780 0.0000 0.0000 0.0000
# 3 22.5473 31.4780 66.3748 0.0000 0.0000 0.0000
# 4 0.0000 0.0000 0.0000 21.6152 0.0000 0.0000
# 5 0.0000 0.0000 0.0000 0.0000 -20.7789 0.0000
# 6 0.0000 0.0000 0.0000 0.0000 0.0000 11.2190
#
#
#
# Elastic Compliance Matrix: (Units=1/GPa)
#
#
# Indices 1 2 3 4 5 6 
#
# 1 0.012493 -0.002671 -0.002977 0.000000 0.000000 0.000000
# 2 -0.002671 0.008761 -0.003247 0.000000 0.000000 0.000000
# 3 -0.002977 -0.003247 0.017617 0.000000 0.000000 0.000000
# 4 0.000000 0.000000 0.000000 0.046264 0.000000 0.000000
# 5 0.000000 0.000000 0.000000 0.000000 -0.048126 0.000000
# 6 0.000000 0.000000 0.000000 0.000000 0.000000 0.089135
#
#
# Mechanical properties :
#
#
# Convention : Reuss Voigt Hill
#
# Bulk Modulus (GPa) = 47.43895 53.15007 50.29451
# Shear Modulus (GPa) = 33.12094 16.13546 24.62820
#
# Velocity S-wave (km/s) = 4.09851 2.86065 3.53420
# Velocity P-wave (km/s) = 6.81589 6.15361 6.49320
#
# Compressibility (1/GPa) = 0.02107972
#
# Stress axis : x y z
#
# Youngs Moduli (GPa) = 80.04631 114.14082 56.76245
#
# Poissons Ratio (x) = 0.30492 0.16897
# Poissons Ratio (y) = 0.21384 0.18433
# Poissons Ratio (z) = 0.23829 0.37067
#
# Static dielectric constant tensor:
#      x y z
#    x 1.713900 0.000000 0.000000 
#    y 0.000000 1.782940 0.000000 
#    z 0.000000 0.000000 1.688460 
# 
# From -- ./inp_files/51873.got.cif
#   From: 2010.05.17/outbox.cif.g08.bks.cpg/sg74_26_cif.got.tgz:51873.got - 2010.06.03 17:57:02.
