data_PCOD9534622
_publ_section_title
;
Structure prediction by ZEFSAII (Michael W. Deem and Ramdas Pophale) SiO2 
 PCOD9534622
Probable space group: I M M A
;
_chemical_formula_sum "Si O2"
_cell_formula_units_Z 56
_cell_length_a 8.701416
_cell_length_b 37.326144
_cell_length_c 9.735488
_cell_angle_alpha 90.000000
_cell_angle_beta 90.000000
_cell_angle_gamma 90.000000
_cell_volume 3161.992133
_symmetry_space_group_name_H-M "I M M A"
_symmetry_group_IT_number 74
_symmetry_cell_setting 'orthorhombic'
loop_
_space_group_symop_operation_xyz
x,y,z
-x,1/2-y,z
x,-y,-z
-x,1/2+y,-z
-x,-y,-z
x,1/2+y,-z
-x,y,z
x,1/2-y,z
1/2+x,1/2+y,1/2+z
1/2-x,-y,1/2+z
1/2+x,1/2-y,1/2-z
1/2-x,y,1/2-z
1/2-x,1/2-y,1/2-z
1/2+x,y,1/2-z
1/2-x,1/2+y,1/2+z
1/2+x,-y,1/2+z
loop_
_atom_site_type_symbol
_atom_site_label
_atom_site_fract_x
_atom_site_fract_y
_atom_site_fract_z
Si Si1 0.184395 0.467072 0.402633
Si Si2 0.315637 0.824153 0.403891
Si Si3 0.315869 0.609131 0.597390
Si Si4 0.816344 0.750000 0.405448
O O1 0.228485 0.500000 0.500000
O O2 0.250000 0.472632 0.250000
O O3 0.249005 0.428867 0.452312
O O4 0.000000 0.465070 0.396089
O O5 0.500000 0.820738 0.395755
O O6 0.250000 0.828818 0.250000
O O7 0.276023 0.858192 0.497222
O O8 0.246521 0.787275 0.464698
O O9 0.500000 0.606441 0.605665
O O10 0.250000 0.615249 0.750000
O O11 0.750000 0.750000 0.250000
O O12 0.000000 0.750000 0.402692
#
# Coordination Sequence:
#
# PCOD9534622 Si02
#       4
#    16  16  16   8
#     4  10  21  36  55  78 104 136 172 211 256 305
#     4  10  20  34  53  78 105 135 172 213 256 303
#     4  10  21  36  55  77 104 138 172 210 257 306
#     4  10  18  30  51  76 103 136 170 210 258 302
#
# _framework density 17.710353000000001
#
# number of rings (size 3 to 8) (size 9 to 14) (size 15 to 20)
#    0.000    2.000    0.000    7.286    0.000    8.000 
#    0.000    6.429    0.000    0.000    0.000    0.000 
#    0.000    0.000    0.000    0.000    0.000    0.000 
#
# Total GULP energy -156277.579241 kJ/mol
# GULP energy per Si atom -5581.342116 kJ/mol
# Density = 1.767004 g / cm^3
# Si number density = 17.710353 Si / 1000 Ang^3
#
#
#
# Elastic Constant Matrix: (Units=GPa)
#
#
# Indices 1 2 3 4 5 6 
#
# 1 83.0118 79.0241 36.3192 0.0001 0.0000 -0.0001
# 2 79.0241 222.6253 90.0704 0.0001 0.0000 0.0000
# 3 36.3192 90.0704 54.4445 0.0000 0.0000 -0.0002
# 4 0.0001 0.0001 0.0000 33.0525 0.0000 -0.0002
# 5 0.0000 0.0000 0.0000 0.0000 22.2991 -0.0001
# 6 -0.0001 0.0000 -0.0002 -0.0002 -0.0001 37.3009
#
#
#
# Elastic Compliance Matrix: (Units=1/GPa)
#
#
# Indices 1 2 3 4 5 6 
#
# 1 0.018549 -0.004772 -0.004479 0.000000 0.000000 0.000000
# 2 -0.004772 0.014811 -0.021320 0.000000 0.000000 0.000000
# 3 -0.004479 -0.021320 0.056626 0.000000 0.000000 0.000000
# 4 0.000000 0.000000 0.000000 0.030255 0.000000 0.000000
# 5 0.000000 0.000000 0.000000 0.000000 0.044845 0.000000
# 6 0.000000 0.000000 0.000000 0.000000 0.000000 0.026809
#
#
# Mechanical properties :
#
#
# Convention : Reuss Voigt Hill
#
# Bulk Modulus (GPa) = 34.66904 85.65656 60.16280
# Shear Modulus (GPa) = 19.03655 28.84169 23.93912
#
# Velocity S-wave (km/s) = 3.28210 4.03987 3.68054
# Velocity P-wave (km/s) = 5.82932 8.38039 7.21845
#
# Compressibility (1/GPa) = 0.02884418
#
# Stress axis : x y z
#
# Youngs Moduli (GPa) = 53.91126 67.51517 17.65969
#
# Poissons Ratio (x) = 0.32219 0.07910
# Poissons Ratio (y) = 0.25727 0.37651
# Poissons Ratio (z) = 0.24147 1.43943
#
# Static dielectric constant tensor:
#      x y z
#    x 1.596010 0.000000 0.000000 
#    y 0.000000 1.629740 0.000000 
#    z 0.000000 0.000000 1.580780 
# 
# From -- ./inp_files/17273.got.cif
#   From: 2010.05.17/outbox.cif.g08.bks.cpg/sg74_9_cif.got.tgz:17273.got - 2010.06.03 17:57:02.
