data_PCOD9534599
_publ_section_title
;
Structure prediction by ZEFSAII (Michael W. Deem and Ramdas Pophale) SiO2 
 PCOD9534599
Probable space group: I M M A
;
_chemical_formula_sum "Si O2"
_cell_formula_units_Z 64
_cell_length_a 24.010778
_cell_length_b 15.555912
_cell_length_c 6.875081
_cell_angle_alpha 90.000000
_cell_angle_beta 90.000000
_cell_angle_gamma 90.000000
_cell_volume 2567.908408
_symmetry_space_group_name_H-M "I M M A"
_symmetry_group_IT_number 74
_symmetry_cell_setting 'orthorhombic'
loop_
_space_group_symop_operation_xyz
x,y,z
-x,1/2-y,z
x,-y,-z
-x,1/2+y,-z
-x,-y,-z
x,1/2+y,-z
-x,y,z
x,1/2-y,z
1/2+x,1/2+y,1/2+z
1/2-x,-y,1/2+z
1/2+x,1/2-y,1/2-z
1/2-x,y,1/2-z
1/2-x,1/2-y,1/2-z
1/2+x,y,1/2-z
1/2-x,1/2+y,1/2+z
1/2+x,-y,1/2+z
loop_
_atom_site_type_symbol
_atom_site_label
_atom_site_fract_x
_atom_site_fract_y
_atom_site_fract_z
Si Si1 0.061648 0.981830 0.232855
Si Si2 0.150096 0.152816 0.888500
Si Si3 0.114641 0.344556 0.344726
Si Si4 0.731121 0.899325 0.971290
O O1 0.111191 0.912690 0.228576
O O2 0.000000 0.950564 0.287816
O O3 0.077677 0.068733 0.350374
O O4 0.058237 0.000000 0.000000
O O5 0.143586 0.250000 0.822474
O O6 0.214974 0.126513 0.901530
O O7 0.131546 0.152657 0.115507
O O8 0.088852 0.250000 0.380784
O O9 0.171940 0.351836 0.467904
O O10 0.750000 0.886297 0.750000
O O11 0.720576 0.000000 0.000000
#
# Coordination Sequence:
#
# PCOD9534599 Si02
#       4
#    16  16  16  16
#     4   9  17  29  46  72 105 136 171 222 277 321
#     4   9  16  27  45  71 102 136 175 219 269 324
#     4   9  17  29  47  71  98 134 179 222 267 322
#     4  10  18  30  50  75 107 143 180 225 276 327
#
# _framework density 24.923006999999998
#
# number of rings (size 3 to 8) (size 9 to 14) (size 15 to 20)
#    0.000    2.750    0.000    4.500    0.000    4.000 
#    0.000    5.000    0.000   14.250    0.000    0.000 
#    0.000    0.000    0.000    0.000    0.000    0.000 
#
# Total GULP energy -178902.839715 kJ/mol
# GULP energy per Si atom -5590.713741 kJ/mol
# Density = 2.486628 g / cm^3
# Si number density = 24.923007 Si / 1000 Ang^3
#
#
#
# Elastic Constant Matrix: (Units=GPa)
#
#
# Indices 1 2 3 4 5 6 
#
# 1 148.9206 94.8141 84.8886 0.0000 0.0000 0.0000
# 2 94.8141 183.4287 37.3212 0.0000 0.0000 0.0000
# 3 84.8886 37.3212 75.9537 0.0000 0.0000 0.0000
# 4 0.0000 0.0000 0.0000 34.4687 0.0000 0.0000
# 5 0.0000 0.0000 0.0000 0.0000 47.1874 0.0000
# 6 0.0000 0.0000 0.0000 0.0000 0.0000 -2.9913
#
#
#
# Elastic Compliance Matrix: (Units=1/GPa)
#
#
# Indices 1 2 3 4 5 6 
#
# 1 0.027052 -0.008702 -0.025959 0.000000 0.000000 0.000000
# 2 -0.008702 0.008856 0.005374 0.000000 0.000000 0.000000
# 3 -0.025959 0.005374 0.039538 0.000000 0.000000 0.000000
# 4 0.000000 0.000000 0.000000 0.029012 0.000000 0.000000
# 5 0.000000 0.000000 0.000000 0.000000 0.021192 0.000000
# 6 0.000000 0.000000 0.000000 0.000000 0.000000 -0.334298
#
#
# Mechanical properties :
#
#
# Convention : Reuss Voigt Hill
#
# Bulk Modulus (GPa) = 59.26722 93.59454 76.43088
# Shear Modulus (GPa) = -34.61429 28.48489 -3.06470
#
# Velocity S-wave (km/s) = -3.73077 3.38437 -1.11011
# Velocity P-wave (km/s) = 2.29642 7.27372 5.39354
#
# Compressibility (1/GPa) = 0.01687273
#
# Stress axis : x y z
#
# Youngs Moduli (GPa) = 36.96525 112.91470 25.29195
#
# Poissons Ratio (x) = 0.98254 0.65656
# Poissons Ratio (y) = 0.32166 -0.13591
# Poissons Ratio (z) = 0.95958 -0.60676
#
# Static dielectric constant tensor:
#      x y z
#    x 1.955670 0.000000 0.000000 
#    y 0.000000 1.896750 0.000000 
#    z 0.000000 0.000000 2.100050 
# 
# From -- ./inp_files/23347.got.cif
#   From: 2010.05.17/outbox.cif.g08.bks.cpg/sg74_12_cif.got.tgz:23347.got - 2010.06.03 17:57:02.
