data_PCOD9534511
_publ_section_title
;
Structure prediction by ZEFSAII (Michael W. Deem and Ramdas Pophale) SiO2 
 PCOD9534511
Probable space group: I M M A
;
_chemical_formula_sum "Si O2"
_cell_formula_units_Z 104
_cell_length_a 28.340510
_cell_length_b 8.612923
_cell_length_c 24.535811
_cell_angle_alpha 90.000000
_cell_angle_beta 90.000000
_cell_angle_gamma 90.000000
_cell_volume 5989.059718
_symmetry_space_group_name_H-M "I M M A"
_symmetry_group_IT_number 74
_symmetry_cell_setting 'orthorhombic'
loop_
_space_group_symop_operation_xyz
x,y,z
-x,1/2-y,z
x,-y,-z
-x,1/2+y,-z
-x,-y,-z
x,1/2+y,-z
-x,y,z
x,1/2-y,z
1/2+x,1/2+y,1/2+z
1/2-x,-y,1/2+z
1/2+x,1/2-y,1/2-z
1/2-x,y,1/2-z
1/2-x,1/2-y,1/2-z
1/2+x,y,1/2-z
1/2-x,1/2+y,1/2+z
1/2+x,-y,1/2+z
loop_
_atom_site_type_symbol
_atom_site_label
_atom_site_fract_x
_atom_site_fract_y
_atom_site_fract_z
Si Si1 0.198419 0.435600 0.735743
Si Si2 0.100155 0.065227 0.060798
Si Si3 0.873562 0.566699 0.165519
Si Si4 0.000000 0.064317 0.938562
Si Si5 0.554039 0.936125 0.938870
Si Si6 0.616710 0.434286 0.842856
Si Si7 0.554880 0.433212 0.252585
O O1 0.203730 0.250000 0.725984
O O2 0.250000 0.500898 0.750000
O O3 0.167897 0.453536 0.790615
O O4 0.166161 0.492977 0.684706
O O5 0.098812 0.250000 0.058336
O O6 0.136089 0.002972 0.106108
O O7 0.049497 0.000995 0.081895
O O8 0.108203 0.000000 0.000000
O O9 0.883689 0.750000 0.160993
O O10 0.916859 0.477397 0.193473
O O11 0.000000 0.250000 0.936906
O O12 0.000000 0.000000 0.000000
O O13 0.500000 0.982897 0.921837
O O14 0.554964 0.750000 0.939995
O O15 0.594295 0.993618 0.897340
O O16 0.561152 0.000000 0.000000
O O17 0.621049 0.250000 0.850609
O O18 0.578459 0.470497 0.795947
O O19 0.500000 0.468386 0.258148
O O20 0.560229 0.250000 0.240795
#
# Coordination Sequence:
#
# PCOD9534511 Si02
#       7
#    16  16  16   8  16  16  16
#     4   8  16  33  56  79 101 127 163 209 262 315
#     4  11  21  34  50  69  98 132 168 206 247 292
#     4  10  20  33  51  75  99 127 166 209 255 305
#     4  10  18  30  46  66  92 126 168 204 235 276
#     4  10  20  33  50  74 107 146 182 214 250 298
#     4  10  19  31  51  77 103 133 170 211 257 307
#     4  10  20  32  46  67  99 136 170 205 248 297
#
# _framework density 17.364996000000001
#
# number of rings (size 3 to 8) (size 9 to 14) (size 15 to 20)
#    0.000    2.154    0.000    6.231    1.077    4.000 
#    0.000    0.000    0.000   17.538    0.000    0.000 
#    0.000    0.000    0.000    0.000    0.000    0.000 
#
# Total GULP energy -289778.040772 kJ/mol
# GULP energy per Si atom -5572.654630 kJ/mol
# Density = 1.732547 g / cm^3
# Si number density = 17.364996 Si / 1000 Ang^3
#
#
#
# Elastic Constant Matrix: (Units=GPa)
#
#
# Indices 1 2 3 4 5 6 
#
# 1 87.7899 23.2148 33.9244 0.0000 0.0000 0.0000
# 2 23.2148 59.1303 16.5106 0.0000 0.0000 0.0000
# 3 33.9244 16.5106 92.9672 0.0000 0.0000 0.0000
# 4 0.0000 0.0000 0.0000 30.6532 0.0000 0.0000
# 5 0.0000 0.0000 0.0000 0.0000 10.0090 0.0000
# 6 0.0000 0.0000 0.0000 0.0000 0.0000 7.0111
#
#
#
# Elastic Compliance Matrix: (Units=1/GPa)
#
#
# Indices 1 2 3 4 5 6 
#
# 1 0.014255 -0.004360 -0.004427 0.000000 0.000000 0.000000
# 2 -0.004360 0.019128 -0.001806 0.000000 0.000000 0.000000
# 3 -0.004427 -0.001806 0.012693 0.000000 0.000000 0.000000
# 4 0.000000 0.000000 0.000000 0.032623 0.000000 0.000000
# 5 0.000000 0.000000 0.000000 0.000000 0.099910 0.000000
# 6 0.000000 0.000000 0.000000 0.000000 0.000000 0.142631
#
#
# Mechanical properties :
#
#
# Convention : Reuss Voigt Hill
#
# Bulk Modulus (GPa) = 40.17937 43.02078 41.60008
# Shear Modulus (GPa) = 14.25628 20.61715 17.43671
#
# Velocity S-wave (km/s) = 2.86838 3.44943 3.17224
# Velocity P-wave (km/s) = 5.84453 6.37911 6.11766
#
# Compressibility (1/GPa) = 0.02488840
#
# Stress axis : x y z
#
# Youngs Moduli (GPa) = 70.15250 52.27963 78.78503
#
# Poissons Ratio (x) = 0.22795 0.34880
# Poissons Ratio (y) = 0.30588 0.14228
# Poissons Ratio (z) = 0.31058 0.09442
#
# Static dielectric constant tensor:
#      x y z
#    x 1.629970 0.000000 0.000000 
#    y 0.000000 1.587580 0.000000 
#    z 0.000000 0.000000 1.598840 
# 
# From -- ./inp_files/57577.got.cif
#   From: 2010.05.17/outbox.cif.g08.bks.cpg/sg74_29_cif.got.tgz:57577.got - 2010.06.03 17:57:02.
