data_PCOD9534994
_publ_section_title
;
Structure prediction by ZEFSAII (Michael W. Deem and Ramdas Pophale) SiO2 
 PCOD9534994
Probable space group: I M M A
;
_chemical_formula_sum "Si O2"
_cell_formula_units_Z 88
_cell_length_a 15.608138
_cell_length_b 23.991606
_cell_length_c 11.831250
_cell_angle_alpha 90.000000
_cell_angle_beta 90.000000
_cell_angle_gamma 90.000000
_cell_volume 4430.380717
_symmetry_space_group_name_H-M "I M M A"
_symmetry_group_IT_number 74
_symmetry_cell_setting 'orthorhombic'
loop_
_space_group_symop_operation_xyz
x,y,z
-x,1/2-y,z
x,-y,-z
-x,1/2+y,-z
-x,-y,-z
x,1/2+y,-z
-x,y,z
x,1/2-y,z
1/2+x,1/2+y,1/2+z
1/2-x,-y,1/2+z
1/2+x,1/2-y,1/2-z
1/2-x,y,1/2-z
1/2-x,1/2-y,1/2-z
1/2+x,y,1/2-z
1/2-x,1/2+y,1/2+z
1/2+x,-y,1/2+z
loop_
_atom_site_type_symbol
_atom_site_label
_atom_site_fract_x
_atom_site_fract_y
_atom_site_fract_z
Si Si1 0.398327 0.750000 0.265679
Si Si2 0.403312 0.475828 0.815384
Si Si3 0.180340 0.639583 0.348226
Si Si4 0.405782 0.052859 0.554537
Si Si5 0.200699 0.642925 0.948747
Si Si6 0.250000 0.941439 0.750000
Si Si7 0.102956 0.750000 0.965228
O O1 0.500000 0.750000 0.260950
O O2 0.365233 0.693841 0.205057
O O3 0.374967 0.750000 0.399487
O O4 0.500000 0.493370 0.853958
O O5 0.373200 0.417300 0.869891
O O6 0.412677 0.459537 0.684565
O O7 0.325729 0.520891 0.807540
O O8 0.250000 0.624448 0.250000
O O9 0.219607 0.656218 0.469912
O O10 0.500000 0.056266 0.500167
O O11 0.360808 0.110135 0.534445
O O12 0.358557 0.000000 0.500000
O O13 0.216943 0.599764 0.848137
O O14 0.148488 0.696632 0.911574
O O15 0.000000 0.750000 0.954456
#
# Coordination Sequence:
#
# PCOD9534994 Si02
#       7
#     8  16  16  16  16   8   8
#     4  11  22  40  64  95 127 156 197 256 324 387
#     4  11  22  38  62  95 129 164 210 264 318 374
#     4  12  21  37  62  95 128 158 197 251 321 382
#     4  10  18  32  59  90 118 149 195 258 316 356
#     4  12  24  39  62  88 127 164 209 254 311 372
#     4  12  26  43  60  87 126 178 220 254 304 366
#     4  11  23  40  67  99 121 149 206 278 331 366
#
# _framework density 19.862852
#
# number of rings (size 3 to 8) (size 9 to 14) (size 15 to 20)
#    0.000    0.727    6.364    1.909    0.000    4.000 
#    0.000    2.727    0.000    1.091    0.000    0.000 
#    0.000    0.000    0.000    0.000    0.000    0.000 
#
# Total GULP energy -245335.185178 kJ/mol
# GULP energy per Si atom -5575.799663 kJ/mol
# Density = 1.981764 g / cm^3
# Si number density = 19.862852 Si / 1000 Ang^3
#
#
#
# Elastic Constant Matrix: (Units=GPa)
#
#
# Indices 1 2 3 4 5 6 
#
# 1 103.7619 69.5331 14.0189 0.0000 0.0000 0.0000
# 2 69.5331 140.1266 16.0953 0.0001 0.0001 -0.0001
# 3 14.0189 16.0953 31.6107 0.0001 0.0002 -0.0002
# 4 0.0000 0.0001 0.0001 9.4279 0.0001 0.0000
# 5 0.0000 0.0001 0.0002 0.0001 49.9004 -0.0001
# 6 0.0000 -0.0001 -0.0002 0.0000 -0.0001 24.9237
#
#
#
# Elastic Compliance Matrix: (Units=1/GPa)
#
#
# Indices 1 2 3 4 5 6 
#
# 1 0.014698 -0.006951 -0.002979 0.000000 0.000000 0.000000
# 2 -0.006951 0.010867 -0.002450 0.000000 0.000000 0.000000
# 3 -0.002979 -0.002450 0.034204 0.000000 0.000000 0.000000
# 4 0.000000 0.000000 0.000000 0.106069 0.000000 0.000000
# 5 0.000000 0.000000 0.000000 0.000000 0.020040 0.000000
# 6 0.000000 0.000000 0.000000 0.000000 0.000000 0.040123
#
#
# Mechanical properties :
#
#
# Convention : Reuss Voigt Hill
#
# Bulk Modulus (GPa) = 28.56531 52.75487 40.66009
# Shear Modulus (GPa) = 19.05263 28.57384 23.81324
#
# Velocity S-wave (km/s) = 3.10047 3.79695 3.46625
# Velocity P-wave (km/s) = 5.21821 6.77050 6.04439
#
# Compressibility (1/GPa) = 0.03500750
#
# Stress axis : x y z
#
# Youngs Moduli (GPa) = 68.03581 92.01997 29.23656
#
# Poissons Ratio (x) = 0.63966 0.08710
# Poissons Ratio (y) = 0.47294 0.07164
# Poissons Ratio (z) = 0.20268 0.22549
#
# Static dielectric constant tensor:
#      x y z
#    x 1.812110 0.000000 0.000000 
#    y 0.000000 1.766390 0.000000 
#    z 0.000000 0.000000 1.715990 
# 
# From -- ./inp_files/20701.got.cif
#   From: 2010.05.17/outbox.cif.g08.bks.cpg/sg74_11_cif.got.tgz:20701.got - 2010.06.03 17:57:02.
