data_PCOD9534966
_publ_section_title
;
Structure prediction by ZEFSAII (Michael W. Deem and Ramdas Pophale) SiO2 
 PCOD9534966
Probable space group: I M M A
;
_chemical_formula_sum "Si O2"
_cell_formula_units_Z 64
_cell_length_a 18.147599
_cell_length_b 22.977143
_cell_length_c 8.316393
_cell_angle_alpha 90.000000
_cell_angle_beta 90.000000
_cell_angle_gamma 90.000000
_cell_volume 3467.769365
_symmetry_space_group_name_H-M "I M M A"
_symmetry_group_IT_number 74
_symmetry_cell_setting 'orthorhombic'
loop_
_space_group_symop_operation_xyz
x,y,z
-x,1/2-y,z
x,-y,-z
-x,1/2+y,-z
-x,-y,-z
x,1/2+y,-z
-x,y,z
x,1/2-y,z
1/2+x,1/2+y,1/2+z
1/2-x,-y,1/2+z
1/2+x,1/2-y,1/2-z
1/2-x,y,1/2-z
1/2-x,1/2-y,1/2-z
1/2+x,y,1/2-z
1/2-x,1/2+y,1/2+z
1/2+x,-y,1/2+z
loop_
_atom_site_type_symbol
_atom_site_label
_atom_site_fract_x
_atom_site_fract_y
_atom_site_fract_z
Si Si1 0.731145 0.250000 0.440733
Si Si2 0.913299 0.622022 0.629515
Si Si3 0.084752 0.250000 0.207205
Si Si4 0.815515 0.042771 0.141006
Si Si5 0.279157 0.128700 0.926539
O O1 0.750000 0.250000 0.250000
O O2 0.642636 0.250000 0.437705
O O3 0.763747 0.305195 0.527688
O O4 0.904000 0.688850 0.695889
O O5 0.877524 0.575093 0.753176
O O6 0.864203 0.615902 0.468530
O O7 0.000000 0.612206 0.607670
O O8 0.000000 0.250000 0.154664
O O9 0.750000 0.014215 0.250000
O O10 0.770028 0.092837 0.051139
O O11 0.842811 0.000000 0.000000
O O12 0.250000 0.117437 0.750000
#
# Coordination Sequence:
#
# PCOD9534966 Si02
#       5
#     8  16   8  16  16
#     4  12  17  34  55  82 110 146 195 229 274 339
#     4  10  20  36  58  83 114 153 188 230 286 337
#     4  10  18  32  56  82 113 146 183 229 279 331
#     4  10  20  36  58  81 110 147 193 239 279 333
#     4  11  21  34  55  84 114 147 188 235 278 338
#
# _framework density 18.455666999999998
#
# number of rings (size 3 to 8) (size 9 to 14) (size 15 to 20)
#    0.000    1.500    5.000    1.875    0.000    0.500 
#    0.000    2.500    0.000   25.500    0.000    0.000 
#    0.000    0.000    0.000    0.000    0.000    0.000 
#
# Total GULP energy -178392.896438 kJ/mol
# GULP energy per Si atom -5574.778014 kJ/mol
# Density = 1.841366 g / cm^3
# Si number density = 18.455667 Si / 1000 Ang^3
#
#
#
# Elastic Constant Matrix: (Units=GPa)
#
#
# Indices 1 2 3 4 5 6 
#
# 1 175.6411 32.0297 63.8457 0.0000 0.0000 0.0000
# 2 32.0297 92.9859 32.8917 0.0000 0.0000 0.0000
# 3 63.8457 32.8917 104.2127 0.0000 0.0000 0.0000
# 4 0.0000 0.0000 0.0000 6.1567 0.0000 0.0000
# 5 0.0000 0.0000 0.0000 0.0000 21.8997 0.0000
# 6 0.0000 0.0000 0.0000 0.0000 0.0000 11.0785
#
#
#
# Elastic Compliance Matrix: (Units=1/GPa)
#
#
# Indices 1 2 3 4 5 6 
#
# 1 0.007417 -0.001067 -0.004208 0.000000 0.000000 0.000000
# 2 -0.001067 0.012259 -0.003216 0.000000 0.000000 0.000000
# 3 -0.004208 -0.003216 0.013189 0.000000 0.000000 0.000000
# 4 0.000000 0.000000 0.000000 0.162426 0.000000 0.000000
# 5 0.000000 0.000000 0.000000 0.000000 0.045663 0.000000
# 6 0.000000 0.000000 0.000000 0.000000 0.000000 0.090265
#
#
# Mechanical properties :
#
#
# Convention : Reuss Voigt Hill
#
# Bulk Modulus (GPa) = 62.95215 70.04154 66.49685
# Shear Modulus (GPa) = 14.14453 24.09849 19.12151
#
# Velocity S-wave (km/s) = 2.77141 3.61744 3.22231
# Velocity P-wave (km/s) = 6.66520 7.44859 7.06776
#
# Compressibility (1/GPa) = 0.01588508
#
# Stress axis : x y z
#
# Youngs Moduli (GPa) = 134.81801 81.57104 75.82352
#
# Poissons Ratio (x) = 0.08701 0.31904
# Poissons Ratio (y) = 0.14380 0.24383
# Poissons Ratio (z) = 0.56726 0.26232
#
# Static dielectric constant tensor:
#      x y z
#    x 1.652420 0.000000 0.000000 
#    y 0.000000 1.670790 0.000000 
#    z 0.000000 0.000000 1.653890 
# 
# From -- ./inp_files/10284.got.cif
#   From: 2010.05.17/outbox.cif.g08.bks.cpg/sg74_6_cif.got.tgz:10284.got - 2010.06.03 17:57:02.
