data_PCOD9534673
_publ_section_title
;
Structure prediction by ZEFSAII (Michael W. Deem and Ramdas Pophale) SiO2 
 PCOD9534673
Probable space group: I M M A
;
_chemical_formula_sum "Si O2"
_cell_formula_units_Z 112
_cell_length_a 14.620981
_cell_length_b 15.532424
_cell_length_c 26.547970
_cell_angle_alpha 90.000000
_cell_angle_beta 90.000000
_cell_angle_gamma 90.000000
_cell_volume 6029.024771
_symmetry_space_group_name_H-M "I M M A"
_symmetry_group_IT_number 74
_symmetry_cell_setting 'orthorhombic'
loop_
_space_group_symop_operation_xyz
x,y,z
-x,1/2-y,z
x,-y,-z
-x,1/2+y,-z
-x,-y,-z
x,1/2+y,-z
-x,y,z
x,1/2-y,z
1/2+x,1/2+y,1/2+z
1/2-x,-y,1/2+z
1/2+x,1/2-y,1/2-z
1/2-x,y,1/2-z
1/2-x,1/2-y,1/2-z
1/2+x,y,1/2-z
1/2-x,1/2+y,1/2+z
1/2+x,-y,1/2+z
loop_
_atom_site_type_symbol
_atom_site_label
_atom_site_fract_x
_atom_site_fract_y
_atom_site_fract_z
Si Si1 0.144090 0.414547 0.734165
Si Si2 0.294671 0.145344 0.870611
Si Si3 0.902745 0.349846 0.838321
Si Si4 0.394549 0.355556 0.084560
Si Si5 0.264955 0.151516 0.171885
Si Si6 0.895315 0.645022 0.470303
Si Si7 0.896433 0.895784 0.760927
O O1 0.250000 0.424510 0.750000
O O2 0.144115 0.382783 0.677047
O O3 0.104895 0.353853 0.777671
O O4 0.099560 0.506762 0.741532
O O5 0.293514 0.250000 0.869766
O O6 0.191073 0.113640 0.860711
O O7 0.333181 0.115975 0.924151
O O8 0.904912 0.250000 0.853365
O O9 0.000000 0.390842 0.852854
O O10 0.500000 0.380888 0.096004
O O11 0.393810 0.250000 0.086721
O O12 0.320087 0.386930 0.124706
O O13 0.372057 0.381675 0.027274
O O14 0.239874 0.250000 0.160565
O O15 0.172404 0.106950 0.191404
O O16 0.339182 0.151885 0.217274
O O17 0.893234 0.750000 0.470475
O O18 0.000000 0.619013 0.460736
O O19 0.000000 0.864153 0.769187
#
# Coordination Sequence:
#
# PCOD9534673 Si02
#       7
#    16  16  16  16  16  16  16
#     4  10  18  31  45  64  96 128 163 194 231 277
#     4   9  17  28  46  70  98 131 165 199 230 265
#     4   9  17  28  43  65  93 128 167 200 230 267
#     4   8  14  27  49  73  95 119 149 190 239 289
#     4  10  20  34  51  71  92 120 155 191 235 291
#     4   8  14  25  43  70  98 122 154 194 235 276
#     4  11  21  32  47  70  97 125 153 189 236 285
#
# _framework density 18.576802000000001
#
# number of rings (size 3 to 8) (size 9 to 14) (size 15 to 20)
#    0.000    2.714    1.429    3.000    0.000    4.571 
#    0.000    1.429    0.000    1.714    0.000    7.000 
#    0.000    3.714    0.000    0.000    0.000    0.000 
#
# Total GULP energy -311993.356021 kJ/mol
# GULP energy per Si atom -5571.309929 kJ/mol
# Density = 1.853452 g / cm^3
# Si number density = 18.576802 Si / 1000 Ang^3
#
#
#
# Elastic Constant Matrix: (Units=GPa)
#
#
# Indices 1 2 3 4 5 6 
#
# 1 145.8086 8.4189 85.0816 0.0000 0.0000 0.0000
# 2 8.4189 24.6071 3.3692 0.0000 0.0000 0.0000
# 3 85.0816 3.3692 128.1992 0.0000 0.0000 0.0000
# 4 0.0000 0.0000 0.0000 5.2768 0.0000 0.0000
# 5 0.0000 0.0000 0.0000 0.0000 -50.7551 0.0000
# 6 0.0000 0.0000 0.0000 0.0000 0.0000 11.4950
#
#
#
# Elastic Compliance Matrix: (Units=1/GPa)
#
#
# Indices 1 2 3 4 5 6 
#
# 1 0.011392 -0.002873 -0.007485 0.000000 0.000000 0.000000
# 2 -0.002873 0.041510 0.000816 0.000000 0.000000 0.000000
# 3 -0.007485 0.000816 0.012746 0.000000 0.000000 0.000000
# 4 0.000000 0.000000 0.000000 0.189508 0.000000 0.000000
# 5 0.000000 0.000000 0.000000 0.000000 -0.019702 0.000000
# 6 0.000000 0.000000 0.000000 0.000000 0.000000 0.086995
#
#
# Mechanical properties :
#
#
# Convention : Reuss Voigt Hill
#
# Bulk Modulus (GPa) = 21.47573 54.70603 38.09088
# Shear Modulus (GPa) = 14.00352 6.65302 10.32827
#
# Velocity S-wave (km/s) = 2.74855 1.89450 2.36047
# Velocity P-wave (km/s) = 4.65385 5.85645 5.28944
#
# Compressibility (1/GPa) = 0.04656419
#
# Stress axis : x y z
#
# Youngs Moduli (GPa) = 87.78358 24.09062 78.45400
#
# Poissons Ratio (x) = 0.06920 0.58721
# Poissons Ratio (y) = 0.25217 -0.06399
# Poissons Ratio (z) = 0.65704 -0.01965
#
# Static dielectric constant tensor:
#      x y z
#    x 1.677270 0.000000 0.000000 
#    y 0.000000 1.707260 0.000000 
#    z 0.000000 0.000000 1.640990 
# 
# From -- ./inp_files/67210.got.cif
#   From: 2010.05.17/outbox.cif.g08.bks.cpg/sg74_34_cif.got.tgz:67210.got - 2010.06.03 17:57:02.
