data_PCOD9534477
_publ_section_title
;
Structure prediction by ZEFSAII (Michael W. Deem and Ramdas Pophale) SiO2 
 PCOD9534477
Probable space group: I M M A
;
_chemical_formula_sum "Si O2"
_cell_formula_units_Z 96
_cell_length_a 25.249688
_cell_length_b 7.651501
_cell_length_c 24.357230
_cell_angle_alpha 90.000000
_cell_angle_beta 90.000000
_cell_angle_gamma 90.000000
_cell_volume 4705.768438
_symmetry_space_group_name_H-M "I M M A"
_symmetry_group_IT_number 74
_symmetry_cell_setting 'orthorhombic'
loop_
_space_group_symop_operation_xyz
x,y,z
-x,1/2-y,z
x,-y,-z
-x,1/2+y,-z
-x,-y,-z
x,1/2+y,-z
-x,y,z
x,1/2-y,z
1/2+x,1/2+y,1/2+z
1/2-x,-y,1/2+z
1/2+x,1/2-y,1/2-z
1/2-x,y,1/2-z
1/2-x,1/2-y,1/2-z
1/2+x,y,1/2-z
1/2-x,1/2+y,1/2+z
1/2+x,-y,1/2+z
loop_
_atom_site_type_symbol
_atom_site_label
_atom_site_fract_x
_atom_site_fract_y
_atom_site_fract_z
Si Si1 0.841269 0.459399 0.859647
Si Si2 0.940646 0.543111 0.936444
Si Si3 0.124776 0.040862 0.563127
Si Si4 0.225567 0.536421 0.369460
Si Si5 0.340454 0.963176 0.234379
Si Si6 0.058620 0.963347 0.336157
O O1 0.838117 0.250000 0.856322
O O2 0.893331 0.494452 0.895390
O O3 0.784816 0.521665 0.883499
O O4 0.841262 0.525270 0.796817
O O5 0.944731 0.750000 0.932898
O O6 0.000000 0.469398 0.924229
O O7 0.928125 0.500000 0.000000
O O8 0.126137 0.250000 0.568306
O O9 0.180469 0.976063 0.588294
O O10 0.078277 0.980227 0.603635
O O11 0.117581 0.000000 0.500000
O O12 0.225072 0.750000 0.370030
O O13 0.206163 0.484990 0.307998
O O14 0.338339 0.750000 0.235721
O O15 0.395446 0.015284 0.205669
O O16 0.057576 0.750000 0.335316
O O17 0.000000 0.025578 0.322993
#
# Coordination Sequence:
#
# PCOD9534477 Si02
#       6
#    16  16  16  16  16  16
#     4  10  18  29  52  81 101 122 157 197 235 282
#     4  10  22  40  57  72  96 128 159 196 243 293
#     4   9  17  29  44  62  88 122 157 194 235 275
#     4   8  15  28  45  69 101 132 160 193 235 279
#     4   8  14  25  44  71 101 130 160 195 232 275
#     4   8  14  25  41  63  91 121 154 194 235 270
#
# _framework density 20.400493999999998
#
# number of rings (size 3 to 8) (size 9 to 14) (size 15 to 20)
#    0.000    3.167    0.000    3.000    0.000    4.667 
#    0.000    4.167    0.000    6.000    0.000    0.000 
#    0.000    0.000    0.000    0.000    0.000    0.000 
#
# Total GULP energy -267528.057717 kJ/mol
# GULP energy per Si atom -5573.501202 kJ/mol
# Density = 2.035406 g / cm^3
# Si number density = 20.400494 Si / 1000 Ang^3
#
#
#
# Elastic Constant Matrix: (Units=GPa)
#
#
# Indices 1 2 3 4 5 6 
#
# 1 122.2488 5.0586 10.6859 0.0000 0.0000 0.0000
# 2 5.0586 34.5282 -2.4840 0.0000 0.0000 0.0000
# 3 10.6859 -2.4840 21.5263 0.0000 0.0000 0.0000
# 4 0.0000 0.0000 0.0000 15.7355 0.0000 0.0000
# 5 0.0000 0.0000 0.0000 0.0000 19.1701 0.0000
# 6 0.0000 0.0000 0.0000 0.0000 0.0000 10.0427
#
#
#
# Elastic Compliance Matrix: (Units=1/GPa)
#
#
# Indices 1 2 3 4 5 6 
#
# 1 0.008636 -0.001587 -0.004470 0.000000 0.000000 0.000000
# 2 -0.001587 0.029496 0.004191 0.000000 0.000000 0.000000
# 3 -0.004470 0.004191 0.049158 0.000000 0.000000 0.000000
# 4 0.000000 0.000000 0.000000 0.063551 0.000000 0.000000
# 5 0.000000 0.000000 0.000000 0.000000 0.052165 0.000000
# 6 0.000000 0.000000 0.000000 0.000000 0.000000 0.099575
#
#
# Mechanical properties :
#
#
# Convention : Reuss Voigt Hill
#
# Bulk Modulus (GPa) = 11.96770 22.75826 17.36298
# Shear Modulus (GPa) = 14.96271 19.99252 17.47761
#
# Velocity S-wave (km/s) = 2.71116 3.13389 2.93016
# Velocity P-wave (km/s) = 3.95975 4.92697 4.46960
#
# Compressibility (1/GPa) = 0.08355822
#
# Stress axis : x y z
#
# Youngs Moduli (GPa) = 115.78818 33.90308 20.34273
#
# Poissons Ratio (x) = 0.05380 0.09094
# Poissons Ratio (y) = 0.18374 -0.08526
# Poissons Ratio (z) = 0.51761 -0.14210
#
# Static dielectric constant tensor:
#      x y z
#    x 1.748590 0.000000 0.000000 
#    y 0.000000 1.781820 0.000000 
#    z 0.000000 0.000000 1.734020 
# 
# From -- ./inp_files/55105.got.cif
#   From: 2010.05.17/outbox.cif.g08.bks.cpg/sg74_28_cif.got.tgz:55105.got - 2010.06.03 17:57:02.
