data_PCOD9534769
_publ_section_title
;
Structure prediction by ZEFSAII (Michael W. Deem and Ramdas Pophale) SiO2 
 PCOD9534769
Probable space group: I M M A
;
_chemical_formula_sum "Si O2"
_cell_formula_units_Z 64
_cell_length_a 7.490443
_cell_length_b 23.009153
_cell_length_c 23.165887
_cell_angle_alpha 90.000000
_cell_angle_beta 90.000000
_cell_angle_gamma 90.000000
_cell_volume 3992.611644
_symmetry_space_group_name_H-M "I M M A"
_symmetry_group_IT_number 74
_symmetry_cell_setting 'orthorhombic'
loop_
_space_group_symop_operation_xyz
x,y,z
-x,1/2-y,z
x,-y,-z
-x,1/2+y,-z
-x,-y,-z
x,1/2+y,-z
-x,y,z
x,1/2-y,z
1/2+x,1/2+y,1/2+z
1/2-x,-y,1/2+z
1/2+x,1/2-y,1/2-z
1/2-x,y,1/2-z
1/2-x,1/2-y,1/2-z
1/2+x,y,1/2-z
1/2-x,1/2+y,1/2+z
1/2+x,-y,1/2+z
loop_
_atom_site_type_symbol
_atom_site_label
_atom_site_fract_x
_atom_site_fract_y
_atom_site_fract_z
Si Si1 0.214337 0.684279 0.938937
Si Si2 0.500000 0.096526 0.015105
Si Si3 0.787899 0.351902 0.186725
Si Si4 0.000000 0.518164 0.404660
Si Si5 0.288076 0.513259 0.685101
O O1 0.249258 0.750000 0.958804
O O2 0.327719 0.636483 0.972567
O O3 0.271578 0.679425 0.871404
O O4 0.000000 0.674051 0.942377
O O5 0.500000 0.042353 0.059536
O O6 0.500000 0.069047 0.951601
O O7 0.750000 0.326735 0.250000
O O8 0.725172 0.418966 0.184975
O O9 0.000000 0.354051 0.183117
O O10 0.827650 0.518410 0.363186
O O11 0.500000 0.511345 0.673956
O O12 0.250000 0.491631 0.750000
#
# Coordination Sequence:
#
# PCOD9534769 Si02
#       5
#    16   8  16   8  16
#     4  10  21  37  53  71 100 138 182 227 268 307
#     4  11  23  36  52  74 107 143 188 217 259 314
#     4   9  18  28  45  70  98 133 176 220 260 299
#     4  11  22  34  52  80 106 143 180 217 263 320
#     4  10  18  31  52  76 106 140 175 214 263 313
#
# _framework density 16.029609000000001
#
# number of rings (size 3 to 8) (size 9 to 14) (size 15 to 20)
#    0.000    2.000    3.750    0.375    3.500    1.500 
#    0.000    2.500    0.000    0.000    0.000    0.000 
#    0.000    4.000    0.000    0.000    0.000    0.000 
#
# Total GULP energy -178462.123114 kJ/mol
# GULP energy per Si atom -5576.941347 kJ/mol
# Density = 1.599312 g / cm^3
# Si number density = 16.029609 Si / 1000 Ang^3
#
#
#
# Elastic Constant Matrix: (Units=GPa)
#
#
# Indices 1 2 3 4 5 6 
#
# 1 92.7845 41.9829 50.5388 0.0000 0.0000 0.0000
# 2 41.9829 80.0481 58.3358 0.0000 0.0000 0.0000
# 3 50.5388 58.3358 112.9703 0.0000 0.0000 0.0000
# 4 0.0000 0.0000 0.0000 20.7985 0.0000 0.0000
# 5 0.0000 0.0000 0.0000 0.0000 24.5988 0.0000
# 6 0.0000 0.0000 0.0000 0.0000 0.0000 -27.7138
#
#
#
# Elastic Compliance Matrix: (Units=1/GPa)
#
#
# Indices 1 2 3 4 5 6 
#
# 1 0.015356 -0.004886 -0.004347 0.000000 0.000000 0.000000
# 2 -0.004886 0.021585 -0.008960 0.000000 0.000000 0.000000
# 3 -0.004347 -0.008960 0.015423 0.000000 0.000000 0.000000
# 4 0.000000 0.000000 0.000000 0.048080 0.000000 0.000000
# 5 0.000000 0.000000 0.000000 0.000000 0.040652 0.000000
# 6 0.000000 0.000000 0.000000 0.000000 0.000000 -0.036083
#
#
# Mechanical properties :
#
#
# Convention : Reuss Voigt Hill
#
# Bulk Modulus (GPa) = 62.58464 65.27979 63.93221
# Shear Modulus (GPa) = 34.07709 12.53306 23.30507
#
# Velocity S-wave (km/s) = 4.61573 2.79923 3.81711
# Velocity P-wave (km/s) = 8.21794 7.15964 7.70698
#
# Compressibility (1/GPa) = 0.01597836
#
# Stress axis : x y z
#
# Youngs Moduli (GPa) = 65.12059 46.32854 64.83704
#
# Poissons Ratio (x) = 0.22637 0.28182
# Poissons Ratio (y) = 0.31819 0.58095
# Poissons Ratio (z) = 0.28305 0.41511
#
# Static dielectric constant tensor:
#      x y z
#    x 1.563360 0.000000 0.000000 
#    y 0.000000 1.522820 0.000000 
#    z 0.000000 0.000000 1.542120 
# 
# From -- ./inp_files/39092.got.cif
#   From: 2010.05.17/outbox.cif.g08.bks.cpg/sg74_20_cif.got.tgz:39092.got - 2010.06.03 17:57:02.
