data_PCOD9534442
_publ_section_title
;
Structure prediction by ZEFSAII (Michael W. Deem and Ramdas Pophale) SiO2 
 PCOD9534442
Probable space group: I M M A
;
_chemical_formula_sum "Si O2"
_cell_formula_units_Z 116
_cell_length_a 15.162061
_cell_length_b 29.768544
_cell_length_c 14.122928
_cell_angle_alpha 90.000000
_cell_angle_beta 90.000000
_cell_angle_gamma 90.000000
_cell_volume 6374.418578
_symmetry_space_group_name_H-M "I M M A"
_symmetry_group_IT_number 74
_symmetry_cell_setting 'orthorhombic'
loop_
_space_group_symop_operation_xyz
x,y,z
-x,1/2-y,z
x,-y,-z
-x,1/2+y,-z
-x,-y,-z
x,1/2+y,-z
-x,y,z
x,1/2-y,z
1/2+x,1/2+y,1/2+z
1/2-x,-y,1/2+z
1/2+x,1/2-y,1/2-z
1/2-x,y,1/2-z
1/2-x,1/2-y,1/2-z
1/2+x,y,1/2-z
1/2-x,1/2+y,1/2+z
1/2+x,-y,1/2+z
loop_
_atom_site_type_symbol
_atom_site_label
_atom_site_fract_x
_atom_site_fract_y
_atom_site_fract_z
Si Si1 0.852085 0.812650 0.839173
Si Si2 0.103704 0.103886 0.457954
Si Si3 0.904060 0.454832 0.936396
Si Si4 0.897975 0.410488 0.130572
Si Si5 0.604671 0.470020 0.205164
Si Si6 0.148556 0.298690 0.377254
Si Si7 0.000000 0.250000 0.086384
Si Si8 0.211608 0.962684 0.415145
O O1 0.847365 0.866123 0.844124
O O2 0.882581 0.801504 0.732134
O O3 0.754114 0.797589 0.864495
O O4 0.922765 0.789230 0.906111
O O5 0.119013 0.072709 0.364747
O O6 0.122675 0.155933 0.432521
O O7 0.163774 0.080701 0.538821
O O8 0.000000 0.099161 0.482091
O O9 0.896407 0.417929 0.019159
O O10 0.000000 0.451262 0.887545
O O11 0.908125 0.500000 0.000000
O O12 0.811576 0.452858 0.883551
O O13 0.866450 0.453166 0.191063
O O14 0.000000 0.404064 0.159538
O O15 0.500000 0.479330 0.205410
O O16 0.655091 0.512574 0.164511
O O17 0.119291 0.250000 0.416629
O O18 0.216145 0.000000 0.500000
#
# Coordination Sequence:
#
# PCOD9534442 Si02
#       8
#    16  16  16  16  16  16   4  16
#     4  11  20  31  43  61  85 116 153 199 236 272
#     4  10  19  29  45  62  84 115 146 185 234 284
#     4   9  18  32  46  62  88 119 153 184 229 282
#     4  10  18  29  49  69  85 114 160 201 232 277
#     4   9  17  29  47  69  87 107 150 196 237 275
#     4  11  21  31  39  59  88 116 155 193 231 267
#     4  12  20  30  48  56  84 122 152 200 246 266
#     4   9  17  31  44  63  87 113 144 185 234 277
#
# _framework density 18.197738000000001
#
# number of rings (size 3 to 8) (size 9 to 14) (size 15 to 20)
#    0.000    2.069    3.448    1.655    0.966    1.931 
#    0.000    0.000    0.000    0.000    0.000    0.966 
#    0.000    0.000    0.000    0.000    2.621   27.034 
#
# Total GULP energy -323033.547854 kJ/mol
# GULP energy per Si atom -5569.543929 kJ/mol
# Density = 1.815632 g / cm^3
# Si number density = 18.197738 Si / 1000 Ang^3
#
#
#
# Elastic Constant Matrix: (Units=GPa)
#
#
# Indices 1 2 3 4 5 6 
#
# 1 95.0458 41.2968 17.3993 0.0000 0.0000 0.0000
# 2 41.2968 114.5851 30.8089 0.0000 0.0000 0.0000
# 3 17.3993 30.8089 30.7066 -0.0001 0.0000 0.0000
# 4 0.0000 0.0000 -0.0001 -24.9262 0.0000 0.0001
# 5 0.0000 0.0000 0.0000 0.0000 5.8571 0.0000
# 6 0.0000 0.0000 0.0000 0.0001 0.0000 23.7814
#
#
#
# Elastic Compliance Matrix: (Units=1/GPa)
#
#
# Indices 1 2 3 4 5 6 
#
# 1 0.012756 -0.003634 -0.003581 0.000000 0.000000 0.000000
# 2 -0.003634 0.012987 -0.010971 0.000000 0.000000 0.000000
# 3 -0.003581 -0.010971 0.045603 0.000000 0.000000 0.000000
# 4 0.000000 0.000000 0.000000 -0.040118 0.000000 0.000000
# 5 0.000000 0.000000 0.000000 0.000000 0.170734 0.000000
# 6 0.000000 0.000000 0.000000 0.000000 0.000000 0.042050
#
#
# Mechanical properties :
#
#
# Convention : Reuss Voigt Hill
#
# Bulk Modulus (GPa) = 28.59380 46.59416 37.59398
# Shear Modulus (GPa) = 17.12089 10.99794 14.05941
#
# Velocity S-wave (km/s) = 3.07062 2.46103 2.78257
# Velocity P-wave (km/s) = 5.32151 5.80823 5.57019
#
# Compressibility (1/GPa) = 0.03497262
#
# Stress axis : x y z
#
# Youngs Moduli (GPa) = 78.39463 77.00202 21.92846
#
# Poissons Ratio (x) = 0.27985 0.07854
# Poissons Ratio (y) = 0.28491 0.24057
# Poissons Ratio (z) = 0.28077 0.84476
#
# Static dielectric constant tensor:
#      x y z
#    x 1.685330 0.000000 0.000000 
#    y 0.000000 1.668860 0.000000 
#    z 0.000000 0.000000 1.645360 
# 
# From -- ./inp_files/43297.got.cif
#   From: 2010.05.17/outbox.cif.g08.bks.cpg/sg74_22_cif.got.tgz:43297.got - 2010.06.03 17:57:02.
