data_PCOD9534453
_publ_section_title
;
Structure prediction by ZEFSAII (Michael W. Deem and Ramdas Pophale) SiO2 
 PCOD9534453
Probable space group: I M M A
;
_chemical_formula_sum "Si O2"
_cell_formula_units_Z 80
_cell_length_a 8.670401
_cell_length_b 25.881152
_cell_length_c 21.141810
_cell_angle_alpha 90.000000
_cell_angle_beta 90.000000
_cell_angle_gamma 90.000000
_cell_volume 4744.221449
_symmetry_space_group_name_H-M "I M M A"
_symmetry_group_IT_number 74
_symmetry_cell_setting 'orthorhombic'
loop_
_space_group_symop_operation_xyz
x,y,z
-x,1/2-y,z
x,-y,-z
-x,1/2+y,-z
-x,-y,-z
x,1/2+y,-z
-x,y,z
x,1/2-y,z
1/2+x,1/2+y,1/2+z
1/2-x,-y,1/2+z
1/2+x,1/2-y,1/2-z
1/2-x,y,1/2-z
1/2-x,1/2-y,1/2-z
1/2+x,y,1/2-z
1/2-x,1/2+y,1/2+z
1/2+x,-y,1/2+z
loop_
_atom_site_type_symbol
_atom_site_label
_atom_site_fract_x
_atom_site_fract_y
_atom_site_fract_z
Si Si1 0.684968 0.358936 0.131807
Si Si2 0.186084 0.861645 0.010520
Si Si3 0.320521 0.250000 0.515417
Si Si4 0.678267 0.750000 0.638712
Si Si5 0.185748 0.531154 0.683256
Si Si6 0.686203 0.034323 0.938885
O O1 0.500000 0.357620 0.128793
O O2 0.744150 0.303986 0.157791
O O3 0.734545 0.409488 0.170569
O O4 0.748853 0.366855 0.060680
O O5 0.243780 0.805560 0.035100
O O6 0.241783 0.909495 0.051763
O O7 0.000000 0.860550 0.006853
O O8 0.500000 0.250000 0.534070
O O9 0.314831 0.250000 0.438479
O O10 0.500000 0.750000 0.657475
O O11 0.250000 0.513103 0.750000
O O12 0.234723 0.495648 0.624347
O O13 0.000000 0.530643 0.684548
O O14 0.500000 0.038777 0.938720
O O15 0.728844 0.000000 0.000000
#
# Coordination Sequence:
#
# PCOD9534453 Si02
#       6
#    16  16   8   8  16  16
#     4  10  18  32  50  70  98 137 173 207 258 310
#     4  10  18  29  49  77 104 133 168 211 253 297
#     4   7  14  27  41  66 105 130 151 197 253 291
#     4   9  17  29  46  72  99 128 169 221 258 289
#     4  10  22  37  53  72 100 136 171 213 259 308
#     4  10  19  35  53  73 104 135 168 211 259 307
#
# _framework density 16.86262
#
# number of rings (size 3 to 8) (size 9 to 14) (size 15 to 20)
#    0.000    2.400    2.000    2.700    0.000    2.800 
#    0.000    2.000    0.000    0.000    0.000    0.700 
#    0.000    0.000    0.000    0.000    0.000    0.000 
#
# Total GULP energy -223001.829599 kJ/mol
# GULP energy per Si atom -5575.045740 kJ/mol
# Density = 1.682424 g / cm^3
# Si number density = 16.862620 Si / 1000 Ang^3
#
#
#
# Elastic Constant Matrix: (Units=GPa)
#
#
# Indices 1 2 3 4 5 6 
#
# 1 31.3472 26.4263 18.0691 0.0000 0.0000 0.0000
# 2 26.4263 136.3632 53.2980 0.0000 0.0000 0.0000
# 3 18.0691 53.2980 86.2742 0.0001 0.0000 0.0000
# 4 0.0000 0.0000 0.0001 14.0042 0.0000 0.0000
# 5 0.0000 0.0000 0.0000 0.0000 17.4413 0.0000
# 6 0.0000 0.0000 0.0000 0.0000 0.0000 24.4765
#
#
#
# Elastic Compliance Matrix: (Units=1/GPa)
#
#
# Indices 1 2 3 4 5 6 
#
# 1 0.039509 -0.005830 -0.004673 0.000000 0.000000 0.000000
# 2 -0.005830 0.010528 -0.005283 0.000000 0.000000 0.000000
# 3 -0.004673 -0.005283 0.015833 0.000000 0.000000 0.000000
# 4 0.000000 0.000000 0.000000 0.071407 0.000000 0.000000
# 5 0.000000 0.000000 0.000000 0.000000 0.057335 0.000000
# 6 0.000000 0.000000 0.000000 0.000000 0.000000 0.040856
#
#
# Mechanical properties :
#
#
# Convention : Reuss Voigt Hill
#
# Bulk Modulus (GPa) = 29.15579 49.95239 39.55409
# Shear Modulus (GPa) = 17.95503 21.59715 19.77609
#
# Velocity S-wave (km/s) = 3.26664 3.58267 3.42830
# Velocity P-wave (km/s) = 5.61744 6.84116 6.25928
#
# Compressibility (1/GPa) = 0.03429850
#
# Stress axis : x y z
#
# Youngs Moduli (GPa) = 25.31040 94.98439 63.15806
#
# Poissons Ratio (x) = 0.55378 0.29514
# Poissons Ratio (y) = 0.14757 0.33366
# Poissons Ratio (z) = 0.11828 0.50179
#
# Static dielectric constant tensor:
#      x y z
#    x 1.573900 0.000000 0.000000 
#    y 0.000000 1.605960 0.000000 
#    z 0.000000 0.000000 1.545860 
# 
# From -- ./inp_files/39782.got.cif
#   From: 2010.05.17/outbox.cif.g08.bks.cpg/sg74_20_cif.got.tgz:39782.got - 2010.06.03 17:57:02.
