data_PCOD9534808
_publ_section_title
;
Structure prediction by ZEFSAII (Michael W. Deem and Ramdas Pophale) SiO2 
 PCOD9534808
Probable space group: I M M A
;
_chemical_formula_sum "Si O2"
_cell_formula_units_Z 96
_cell_length_a 22.291957
_cell_length_b 19.105778
_cell_length_c 12.616190
_cell_angle_alpha 90.000000
_cell_angle_beta 90.000000
_cell_angle_gamma 90.000000
_cell_volume 5373.300693
_symmetry_space_group_name_H-M "I M M A"
_symmetry_group_IT_number 74
_symmetry_cell_setting 'orthorhombic'
loop_
_space_group_symop_operation_xyz
x,y,z
-x,1/2-y,z
x,-y,-z
-x,1/2+y,-z
-x,-y,-z
x,1/2+y,-z
-x,y,z
x,1/2-y,z
1/2+x,1/2+y,1/2+z
1/2-x,-y,1/2+z
1/2+x,1/2-y,1/2-z
1/2-x,y,1/2-z
1/2-x,1/2-y,1/2-z
1/2+x,y,1/2-z
1/2-x,1/2+y,1/2+z
1/2+x,-y,1/2+z
loop_
_atom_site_type_symbol
_atom_site_label
_atom_site_fract_x
_atom_site_fract_y
_atom_site_fract_z
Si Si1 0.933093 0.410461 0.194172
Si Si2 0.877861 0.669003 0.618193
Si Si3 0.858945 0.916098 0.004425
Si Si4 0.570248 0.421441 0.713087
Si Si5 0.929375 0.571710 0.447748
Si Si6 0.258709 0.332191 0.374234
O O1 0.888147 0.371481 0.272052
O O2 0.914574 0.400177 0.073449
O O3 0.931013 0.493717 0.211546
O O4 0.000000 0.385506 0.217497
O O5 0.891956 0.750000 0.633416
O O6 0.919063 0.632082 0.532006
O O7 0.808951 0.662942 0.582291
O O8 0.803704 0.875768 0.948673
O O9 0.883454 0.898303 0.121656
O O10 0.847147 0.000000 0.000000
O O11 0.500000 0.398832 0.696454
O O12 0.592681 0.405637 0.831859
O O13 0.903998 0.500000 0.500000
O O14 0.000000 0.558566 0.430848
O O15 0.277291 0.250000 0.371793
O O16 0.250000 0.353998 0.250000
#
# Coordination Sequence:
#
# PCOD9534808 Si02
#       6
#    16  16  16  16  16  16
#     4  10  18  31  54  83 115 142 174 228 289 349
#     4  11  22  35  55  82 110 148 196 241 284 332
#     4  10  20  35  56  88 114 144 189 236 285 340
#     4   9  18  34  56  83 115 150 183 224 291 354
#     4  10  19  34  56  81 113 153 191 235 291 345
#     4  10  21  39  58  76 108 155 196 237 289 339
#
# _framework density 17.866114
#
# number of rings (size 3 to 8) (size 9 to 14) (size 15 to 20)
#    0.000    2.000    3.333    1.000    0.000    4.000 
#    0.000    1.667    0.000    4.500    0.000    0.000 
#    0.000    0.000    0.000    0.000    0.000    0.000 
#
# Total GULP energy -267343.227112 kJ/mol
# GULP energy per Si atom -5569.650565 kJ/mol
# Density = 1.782545 g / cm^3
# Si number density = 17.866114 Si / 1000 Ang^3
#
#
#
# Elastic Constant Matrix: (Units=GPa)
#
#
# Indices 1 2 3 4 5 6 
#
# 1 53.0320 28.8717 23.3882 0.0000 0.0000 0.0000
# 2 28.8717 36.6437 29.0994 0.0000 0.0000 0.0000
# 3 23.3882 29.0994 131.6380 0.0000 0.0000 0.0000
# 4 0.0000 0.0000 0.0000 16.5134 0.0000 0.0000
# 5 0.0000 0.0000 0.0000 0.0000 30.8982 0.0000
# 6 0.0000 0.0000 0.0000 0.0000 0.0000 11.4474
#
#
#
# Elastic Compliance Matrix: (Units=1/GPa)
#
#
# Indices 1 2 3 4 5 6 
#
# 1 0.033023 -0.025908 -0.000140 0.000000 0.000000 0.000000
# 2 -0.025908 0.053426 -0.007207 0.000000 0.000000 0.000000
# 3 -0.000140 -0.007207 0.009215 0.000000 0.000000 0.000000
# 4 0.000000 0.000000 0.000000 0.060557 0.000000 0.000000
# 5 0.000000 0.000000 0.000000 0.000000 0.032364 0.000000
# 6 0.000000 0.000000 0.000000 0.000000 0.000000 0.087356
#
#
# Mechanical properties :
#
#
# Convention : Reuss Voigt Hill
#
# Bulk Modulus (GPa) = 34.30097 42.67026 38.48562
# Shear Modulus (GPa) = 14.19773 21.10209 17.64991
#
# Velocity S-wave (km/s) = 2.82205 3.44048 3.14650
# Velocity P-wave (km/s) = 5.46436 6.30220 5.89817
#
# Compressibility (1/GPa) = 0.02915369
#
# Stress axis : x y z
#
# Youngs Moduli (GPa) = 30.28188 18.71750 108.52261
#
# Poissons Ratio (x) = 0.48493 0.01521
# Poissons Ratio (y) = 0.78453 0.78213
# Poissons Ratio (z) = 0.00424 0.13490
#
# Static dielectric constant tensor:
#      x y z
#    x 1.627790 0.000000 0.000000 
#    y 0.000000 1.606200 0.000000 
#    z 0.000000 0.000000 1.637430 
# 
# From -- ./inp_files/22484.got.cif
#   From: 2010.05.17/outbox.cif.g08.bks.cpg/sg74_12_cif.got.tgz:22484.got - 2010.06.03 17:57:02.
