data_PCOD9534554
_publ_section_title
;
Structure prediction by ZEFSAII (Michael W. Deem and Ramdas Pophale) SiO2 
 PCOD9534554
Probable space group: I M M A
;
_chemical_formula_sum "Si O2"
_cell_formula_units_Z 64
_cell_length_a 10.692405
_cell_length_b 7.495805
_cell_length_c 39.228165
_cell_angle_alpha 90.000000
_cell_angle_beta 90.000000
_cell_angle_gamma 90.000000
_cell_volume 3144.066142
_symmetry_space_group_name_H-M "I M M A"
_symmetry_group_IT_number 74
_symmetry_cell_setting 'orthorhombic'
loop_
_space_group_symop_operation_xyz
x,y,z
-x,1/2-y,z
x,-y,-z
-x,1/2+y,-z
-x,-y,-z
x,1/2+y,-z
-x,y,z
x,1/2-y,z
1/2+x,1/2+y,1/2+z
1/2-x,-y,1/2+z
1/2+x,1/2-y,1/2-z
1/2-x,y,1/2-z
1/2-x,1/2-y,1/2-z
1/2+x,y,1/2-z
1/2-x,1/2+y,1/2+z
1/2+x,-y,1/2+z
loop_
_atom_site_type_symbol
_atom_site_label
_atom_site_fract_x
_atom_site_fract_y
_atom_site_fract_z
Si Si1 0.000000 0.963078 0.039942
Si Si2 0.500000 0.463825 0.959750
Si Si3 0.141599 0.460864 0.225746
Si Si4 0.249752 0.468619 0.577760
Si Si5 0.143353 0.035010 0.852182
O O1 0.873311 0.028750 0.057530
O O2 0.000000 0.750000 0.044931
O O3 0.000000 0.000000 0.000000
O O4 0.500000 0.250000 0.956060
O O5 0.375057 0.530468 0.941083
O O6 0.500000 0.500000 0.000000
O O7 0.133051 0.250000 0.233051
O O8 0.250000 0.535788 0.250000
O O9 0.176979 0.480199 0.186031
O O10 0.000000 0.534585 0.229950
O O11 0.248258 0.250000 0.577211
O O12 0.267970 0.523813 0.617039
O O13 0.141736 0.250000 0.852739
O O14 0.000000 0.975304 0.858768
#
# Coordination Sequence:
#
# PCOD9534554 Si02
#       5
#     8   8  16  16  16
#     4  10  18  30  48  70  93 120 155 193 232 277
#     4  10  20  34  50  68  95 128 159 193 238 287
#     4   9  18  33  51  71  98 130 158 187 231 282
#     4   9  17  31  50  69  93 125 157 191 237 284
#     4   9  16  30  52  73  94 123 159 197 235 275
#
# _framework density 20.355808
#
# number of rings (size 3 to 8) (size 9 to 14) (size 15 to 20)
#    0.000    2.750    1.250    0.750    0.000    0.500 
#    2.250    2.500    0.000    0.000    0.000    0.000 
#    0.000    0.000    0.000    0.000    0.000    0.000 
#
# Total GULP energy -178556.944087 kJ/mol
# GULP energy per Si atom -5579.904503 kJ/mol
# Density = 2.030948 g / cm^3
# Si number density = 20.355808 Si / 1000 Ang^3
#
#
#
# Elastic Constant Matrix: (Units=GPa)
#
#
# Indices 1 2 3 4 5 6 
#
# 1 188.4876 9.8759 132.4304 0.0000 0.0000 0.0000
# 2 9.8759 53.5165 -3.9198 0.0000 0.0000 0.0000
# 3 132.4304 -3.9198 181.5220 0.0000 0.0000 0.0000
# 4 0.0000 0.0000 0.0000 23.5950 0.0000 0.0000
# 5 0.0000 0.0000 0.0000 0.0000 43.8301 0.0000
# 6 0.0000 0.0000 0.0000 0.0000 0.0000 -2.6893
#
#
#
# Elastic Compliance Matrix: (Units=1/GPa)
#
#
# Indices 1 2 3 4 5 6 
#
# 1 0.011257 -0.002683 -0.008270 0.000000 0.000000 0.000000
# 2 -0.002683 0.019355 0.002375 0.000000 0.000000 0.000000
# 3 -0.008270 0.002375 0.011594 0.000000 0.000000 0.000000
# 4 0.000000 0.000000 0.000000 0.042382 0.000000 0.000000
# 5 0.000000 0.000000 0.000000 0.000000 0.022815 0.000000
# 6 0.000000 0.000000 0.000000 0.000000 0.000000 -0.371846
#
#
# Mechanical properties :
#
#
# Convention : Reuss Voigt Hill
#
# Bulk Modulus (GPa) = 39.92085 77.81101 58.86593
# Shear Modulus (GPa) = -20.92599 31.95647 5.51524
#
# Velocity S-wave (km/s) = -3.20974 3.96649 1.64782
# Velocity P-wave (km/s) = 2.43260 7.69973 5.70979
#
# Compressibility (1/GPa) = 0.02504957
#
# Stress axis : x y z
#
# Youngs Moduli (GPa) = 88.83670 51.66646 86.25240
#
# Poissons Ratio (x) = 0.13862 0.71333
# Poissons Ratio (y) = 0.23835 -0.20488
# Poissons Ratio (z) = 0.73470 -0.12273
#
# Static dielectric constant tensor:
#      x y z
#    x 1.714160 0.000000 0.000000 
#    y 0.000000 1.777860 0.000000 
#    z 0.000000 0.000000 1.697900 
# 
# From -- ./inp_files/69756.got.cif
#   From: 2010.05.17/outbox.cif.g08.bks.cpg/sg74_35_cif.got.tgz:69756.got - 2010.06.03 17:57:02.
