data_PCOD9534651
_publ_section_title
;
Structure prediction by ZEFSAII (Michael W. Deem and Ramdas Pophale) SiO2 
 PCOD9534651
Probable space group: I M M A
;
_chemical_formula_sum "Si O2"
_cell_formula_units_Z 96
_cell_length_a 24.333975
_cell_length_b 7.709936
_cell_length_c 23.643347
_cell_angle_alpha 90.000000
_cell_angle_beta 90.000000
_cell_angle_gamma 90.000000
_cell_volume 4435.808479
_symmetry_space_group_name_H-M "I M M A"
_symmetry_group_IT_number 74
_symmetry_cell_setting 'orthorhombic'
loop_
_space_group_symop_operation_xyz
x,y,z
-x,1/2-y,z
x,-y,-z
-x,1/2+y,-z
-x,-y,-z
x,1/2+y,-z
-x,y,z
x,1/2-y,z
1/2+x,1/2+y,1/2+z
1/2-x,-y,1/2+z
1/2+x,1/2-y,1/2-z
1/2-x,y,1/2-z
1/2-x,1/2-y,1/2-z
1/2+x,y,1/2-z
1/2-x,1/2+y,1/2+z
1/2+x,-y,1/2+z
loop_
_atom_site_type_symbol
_atom_site_label
_atom_site_fract_x
_atom_site_fract_y
_atom_site_fract_z
Si Si1 0.271076 0.041096 0.435115
Si Si2 0.000000 0.051782 0.866090
Si Si3 0.500000 0.445484 0.239752
Si Si4 0.381430 0.036676 0.247664
Si Si5 0.169558 0.044591 0.362925
Si Si6 0.938562 0.043040 0.566541
Si Si7 0.881775 0.540679 0.878075
O O1 0.272009 0.250000 0.429564
O O2 0.221217 0.971807 0.396960
O O3 0.330670 0.977345 0.414754
O O4 0.260849 0.000000 0.500000
O O5 0.000000 0.250000 0.846889
O O6 0.942536 0.017155 0.896802
O O7 0.000000 0.939299 0.808644
O O8 0.500000 0.250000 0.217054
O O9 0.558568 0.526199 0.226410
O O10 0.383127 0.250000 0.247990
O O11 0.338444 0.977986 0.200817
O O12 0.373571 0.984213 0.312544
O O13 0.179117 0.250000 0.357430
O O14 0.112805 0.024051 0.397526
O O15 0.938718 0.250000 0.572180
O O16 0.000000 0.978573 0.583238
O O17 0.931201 0.000000 0.500000
O O18 0.881954 0.750000 0.878522
#
# Coordination Sequence:
#
# PCOD9534651 Si02
#       7
#    16   8   8  16  16  16  16
#     4  10  22  38  57  80 106 141 183 226 272 324
#     4  10  18  30  53  85 112 135 168 214 265 318
#     4   8  14  28  48  73 108 149 182 210 255 312
#     4   8  15  28  51  80 108 139 177 218 261 314
#     4  10  20  33  53  82 110 140 179 223 272 321
#     4  10  21  36  52  72 101 141 188 234 277 316
#     4   9  18  36  58  79 109 146 180 215 263 323
#
# _framework density 21.642052
#
# number of rings (size 3 to 8) (size 9 to 14) (size 15 to 20)
#    0.000    2.667    0.000    2.750    1.167    4.333 
#    0.000    7.083    0.000    0.000    0.000    7.000 
#    0.000    0.000    0.000    0.000    0.000    0.000 
#
# Total GULP energy -267837.034714 kJ/mol
# GULP energy per Si atom -5579.938223 kJ/mol
# Density = 2.159279 g / cm^3
# Si number density = 21.642052 Si / 1000 Ang^3
#
#
#
# Elastic Constant Matrix: (Units=GPa)
#
#
# Indices 1 2 3 4 5 6 
#
# 1 54.3880 4.1971 -36.8397 0.0000 0.0000 0.0000
# 2 4.1971 47.8829 0.5919 0.0000 0.0000 0.0000
# 3 -36.8397 0.5919 -30.6259 0.0000 0.0000 0.0000
# 4 0.0000 0.0000 0.0000 11.9316 0.0000 0.0000
# 5 0.0000 0.0000 0.0000 0.0000 41.0647 0.0000
# 6 0.0000 0.0000 0.0000 0.0000 0.0000 -7.7541
#
#
#
# Elastic Compliance Matrix: (Units=1/GPa)
#
#
# Indices 1 2 3 4 5 6 
#
# 1 0.010158 -0.000739 -0.012233 0.000000 0.000000 0.000000
# 2 -0.000739 0.020933 0.001294 0.000000 0.000000 0.000000
# 3 -0.012233 0.001294 -0.017912 0.000000 0.000000 0.000000
# 4 0.000000 0.000000 0.000000 0.083811 0.000000 0.000000
# 5 0.000000 0.000000 0.000000 0.000000 0.024352 0.000000
# 6 0.000000 0.000000 0.000000 0.000000 0.000000 -0.128963
#
#
# Mechanical properties :
#
#
# Convention : Reuss Voigt Hill
#
# Bulk Modulus (GPa) = -98.25036 0.83818 -48.70609
# Shear Modulus (GPa) = 405.12457 15.96145 210.54301
#
# Velocity S-wave (km/s) = 13.69670 2.71868 9.87398
# Velocity P-wave (km/s) = 14.30512 3.20048 10.36531
#
# Compressibility (1/GPa) = -0.01017808
#
# Stress axis : x y z
#
# Youngs Moduli (GPa) = 98.44859 47.77125 -55.82736
#
# Poissons Ratio (x) = 0.03531 -0.68292
# Poissons Ratio (y) = 0.07277 0.07222
# Poissons Ratio (z) = 1.20430 -0.06180
#
# Static dielectric constant tensor:
#      x y z
#    x 1.813590 0.000000 0.000000 
#    y 0.000000 1.834900 0.000000 
#    z 0.000000 0.000000 1.764120 
# 
# From -- ./inp_files/61936.got.cif
#   From: 2010.05.17/outbox.cif.g08.bks.cpg/sg74_31_cif.got.tgz:61936.got - 2010.06.03 17:57:02.
