data_PCOD9534201
_publ_section_title
;
Structure prediction by ZEFSAII (Michael W. Deem and Ramdas Pophale) SiO2 
 PCOD9534201
Probable space group: I M M A
;
_chemical_formula_sum "Si O2"
_cell_formula_units_Z 52
_cell_length_a 19.816568
_cell_length_b 13.141331
_cell_length_c 6.971996
_cell_angle_alpha 90.000000
_cell_angle_beta 90.000000
_cell_angle_gamma 90.000000
_cell_volume 1815.619864
_symmetry_space_group_name_H-M "I M M A"
_symmetry_group_IT_number 74
_symmetry_cell_setting 'orthorhombic'
loop_
_space_group_symop_operation_xyz
x,y,z
-x,1/2-y,z
x,-y,-z
-x,1/2+y,-z
-x,-y,-z
x,1/2+y,-z
-x,y,z
x,1/2-y,z
1/2+x,1/2+y,1/2+z
1/2-x,-y,1/2+z
1/2+x,1/2-y,1/2-z
1/2-x,y,1/2-z
1/2-x,1/2-y,1/2-z
1/2+x,y,1/2-z
1/2-x,1/2+y,1/2+z
1/2+x,-y,1/2+z
loop_
_atom_site_type_symbol
_atom_site_label
_atom_site_fract_x
_atom_site_fract_y
_atom_site_fract_z
Si Si1 0.500000 0.128456 0.670562
Si Si2 0.750000 0.250000 0.750000
Si Si3 0.500000 0.867959 0.904783
Si Si4 0.647496 0.134002 0.173251
Si Si5 0.347878 0.582007 0.285747
O O1 0.500000 0.250000 0.641696
O O2 0.577695 0.097323 0.623994
O O3 0.500000 0.081439 0.887813
O O4 0.706271 0.160934 0.637540
O O5 0.500000 0.750000 0.968619
O O6 0.567544 0.877629 0.788038
O O7 0.669244 0.250000 0.209003
O O8 0.675422 0.034849 0.278542
O O9 0.648926 0.118730 0.940458
#
# Coordination Sequence:
#
# PCOD9534201 Si02
#       5
#     8   4   8  16  16
#     4   9  13  25  38  60  81 117 138 167 198 263
#     4  12  20  30  34  64  88 124 136 182 208 252
#     4   7  11  19  39  61  86  97 139 165 198 238
#     4   9  15  27  41  63  80 117 141 173 199 263
#     4  10  18  26  43  58  91 112 144 173 214 244
#
# _framework density 28.640355
#
# number of rings (size 3 to 8) (size 9 to 14) (size 15 to 20)
#    0.000    2.769    3.077    2.769    0.000    3.692 
#    0.000    0.769    0.000    0.000    0.000    0.000 
#    0.000   19.692    0.000    0.000    0.000    0.000 
#
# Total GULP energy -144777.766873 kJ/mol
# GULP energy per Si atom -5568.375649 kJ/mol
# Density = 2.857517 g / cm^3
# Si number density = 28.640355 Si / 1000 Ang^3
#
#
#
# Elastic Constant Matrix: (Units=GPa)
#
#
# Indices 1 2 3 4 5 6 
#
# 1 201.9661 56.9808 14.7212 0.0000 0.0000 0.0000
# 2 56.9808 296.7415 35.7692 0.0000 0.0000 0.0000
# 3 14.7212 35.7692 122.3599 0.0000 0.0000 0.0000
# 4 0.0000 0.0000 0.0000 18.9351 0.0000 0.0000
# 5 0.0000 0.0000 0.0000 0.0000 -12.3223 0.0000
# 6 0.0000 0.0000 0.0000 0.0000 0.0000 -6.5762
#
#
#
# Elastic Compliance Matrix: (Units=1/GPa)
#
#
# Indices 1 2 3 4 5 6 
#
# 1 0.005249 -0.000966 -0.000349 0.000000 0.000000 0.000000
# 2 -0.000966 0.003671 -0.000957 0.000000 0.000000 0.000000
# 3 -0.000349 -0.000957 0.008494 0.000000 0.000000 0.000000
# 4 0.000000 0.000000 0.000000 0.052812 0.000000 0.000000
# 5 0.000000 0.000000 0.000000 0.000000 -0.081154 0.000000
# 6 0.000000 0.000000 0.000000 0.000000 0.000000 -0.152064
#
#
# Mechanical properties :
#
#
# Convention : Reuss Voigt Hill
#
# Bulk Modulus (GPa) = 77.69701 92.89000 85.29350
# Shear Modulus (GPa) = -32.43443 34.24707 0.90632
#
# Velocity S-wave (km/s) = -3.36887 3.46173 0.56315
# Velocity P-wave (km/s) = 3.47203 6.96289 5.50167
#
# Compressibility (1/GPa) = 0.01287051
#
# Stress axis : x y z
#
# Youngs Moduli (GPa) = 190.50218 272.42409 117.72545
#
# Poissons Ratio (x) = 0.26313 0.04111
# Poissons Ratio (y) = 0.18400 0.11265
# Poissons Ratio (z) = 0.06652 0.26067
#
# Static dielectric constant tensor:
#      x y z
#    x 2.289770 0.000000 0.000000 
#    y 0.000000 2.090460 0.000000 
#    z 0.000000 0.000000 2.453050 
# 
# From -- ./inp_files/23328.got.cif
#   From: 2010.05.17/outbox.cif.g08.bks.cpg/sg74_12_cif.got.tgz:23328.got - 2010.06.03 17:57:02.
