data_PCOD9534235
_publ_section_title
;
Structure prediction by ZEFSAII (Michael W. Deem and Ramdas Pophale) SiO2 
 PCOD9534235
Probable space group: I M M A
;
_chemical_formula_sum "Si O2"
_cell_formula_units_Z 112
_cell_length_a 14.235244
_cell_length_b 15.217899
_cell_length_c 27.335822
_cell_angle_alpha 90.000000
_cell_angle_beta 90.000000
_cell_angle_gamma 90.000000
_cell_volume 5921.772936
_symmetry_space_group_name_H-M "I M M A"
_symmetry_group_IT_number 74
_symmetry_cell_setting 'orthorhombic'
loop_
_space_group_symop_operation_xyz
x,y,z
-x,1/2-y,z
x,-y,-z
-x,1/2+y,-z
-x,-y,-z
x,1/2+y,-z
-x,y,z
x,1/2-y,z
1/2+x,1/2+y,1/2+z
1/2-x,-y,1/2+z
1/2+x,1/2-y,1/2-z
1/2-x,y,1/2-z
1/2-x,1/2-y,1/2-z
1/2+x,y,1/2-z
1/2-x,1/2+y,1/2+z
1/2+x,-y,1/2+z
loop_
_atom_site_type_symbol
_atom_site_label
_atom_site_fract_x
_atom_site_fract_y
_atom_site_fract_z
Si Si1 0.388773 0.647603 0.856653
Si Si2 0.614104 0.478078 0.232499
Si Si3 0.388833 0.844233 0.685396
Si Si4 0.885854 0.150968 0.782700
Si Si5 0.104889 0.607425 0.003401
Si Si6 0.887809 0.074895 0.889876
Si Si7 0.285166 0.392421 0.410011
O O1 0.500000 0.638144 0.864977
O O2 0.372758 0.750000 0.842548
O O3 0.358838 0.578131 0.814797
O O4 0.324583 0.623720 0.902740
O O5 0.500000 0.477400 0.232028
O O6 0.643352 0.422291 0.279899
O O7 0.643979 0.577912 0.242853
O O8 0.500000 0.855773 0.676295
O O9 0.376711 0.750000 0.710931
O O10 0.335855 0.843365 0.634518
O O11 0.852697 0.250000 0.774054
O O12 0.864252 0.119811 0.838293
O O13 0.000000 0.152485 0.780914
O O14 0.177936 0.636569 0.962724
O O15 0.000000 0.636354 0.989524
O O16 0.104480 0.500000 0.000000
O O17 0.121612 0.630708 0.060077
O O18 0.000000 0.049305 0.887886
O O19 0.821454 0.991432 0.899444
#
# Coordination Sequence:
#
# PCOD9534235 Si02
#       7
#    16  16  16  16  16  16  16
#     4  10  22  38  52  68  96 138 186 229 269 313
#     4   9  17  32  50  67  96 138 177 214 260 310
#     4  10  18  27  43  70 102 133 166 205 251 309
#     4   9  16  28  50  78 105 136 172 207 250 310
#     4   8  15  27  48  76 108 144 172 197 240 306
#     4   9  16  30  51  78 112 145 171 199 248 312
#     4  11  18  29  49  72 100 133 177 216 256 302
#
# _framework density 18.913253999999998
#
# number of rings (size 3 to 8) (size 9 to 14) (size 15 to 20)
#    0.000    2.571    1.429    3.000    0.000    2.286 
#    0.000    2.857    0.000    9.000    0.000    0.000 
#    0.000    0.000    0.000    5.429    0.000    0.000 
#
# Total GULP energy -312228.789872 kJ/mol
# GULP energy per Si atom -5575.514105 kJ/mol
# Density = 1.887021 g / cm^3
# Si number density = 18.913254 Si / 1000 Ang^3
#
#
#
# Elastic Constant Matrix: (Units=GPa)
#
#
# Indices 1 2 3 4 5 6 
#
# 1 78.6931 26.5222 37.2232 0.0000 0.0000 0.0000
# 2 26.5222 108.6556 37.2501 0.0000 0.0000 0.0000
# 3 37.2232 37.2501 87.2065 0.0000 0.0000 0.0000
# 4 0.0000 0.0000 0.0000 3.2147 0.0000 0.0000
# 5 0.0000 0.0000 0.0000 0.0000 18.9407 0.0000
# 6 0.0000 0.0000 0.0000 0.0000 0.0000 3.7502
#
#
#
# Elastic Compliance Matrix: (Units=1/GPa)
#
#
# Indices 1 2 3 4 5 6 
#
# 1 0.016237 -0.001860 -0.006136 0.000000 0.000000 0.000000
# 2 -0.001860 0.010995 -0.003903 0.000000 0.000000 0.000000
# 3 -0.006136 -0.003903 0.015753 0.000000 0.000000 0.000000
# 4 0.000000 0.000000 0.000000 0.311072 0.000000 0.000000
# 5 0.000000 0.000000 0.000000 0.000000 0.052796 0.000000
# 6 0.000000 0.000000 0.000000 0.000000 0.000000 0.266656
#
#
# Mechanical properties :
#
#
# Convention : Reuss Voigt Hill
#
# Bulk Modulus (GPa) = 52.11568 52.94958 52.53263
# Shear Modulus (GPa) = 7.10527 16.75175 11.92851
#
# Velocity S-wave (km/s) = 1.94034 2.97932 2.51409
# Velocity P-wave (km/s) = 5.71269 6.31601 6.02191
#
# Compressibility (1/GPa) = 0.01918808
#
# Stress axis : x y z
#
# Youngs Moduli (GPa) = 61.58811 90.94770 63.47877
#
# Poissons Ratio (x) = 0.16913 0.38952
# Poissons Ratio (y) = 0.11453 0.24775
# Poissons Ratio (z) = 0.37792 0.35495
#
# Static dielectric constant tensor:
#      x y z
#    x 1.679460 0.000000 0.000000 
#    y 0.000000 1.717540 0.000000 
#    z 0.000000 0.000000 1.654910 
# 
# From -- ./inp_files/72675.got.cif
#   From: 2010.05.17/outbox.cif.g08.bks.cpg/sg74_37_cif.got.tgz:72675.got - 2010.06.03 17:57:02.
