data_PCOD9534904
_publ_section_title
;
Structure prediction by ZEFSAII (Michael W. Deem and Ramdas Pophale) SiO2 
 PCOD9534904
Probable space group: I M M A
;
_chemical_formula_sum "Si O2"
_cell_formula_units_Z 56
_cell_length_a 36.936196
_cell_length_b 8.593678
_cell_length_c 9.979864
_cell_angle_alpha 90.000000
_cell_angle_beta 90.000000
_cell_angle_gamma 90.000000
_cell_volume 3167.786225
_symmetry_space_group_name_H-M "I M M A"
_symmetry_group_IT_number 74
_symmetry_cell_setting 'orthorhombic'
loop_
_space_group_symop_operation_xyz
x,y,z
-x,1/2-y,z
x,-y,-z
-x,1/2+y,-z
-x,-y,-z
x,1/2+y,-z
-x,y,z
x,1/2-y,z
1/2+x,1/2+y,1/2+z
1/2-x,-y,1/2+z
1/2+x,1/2-y,1/2-z
1/2-x,y,1/2-z
1/2-x,1/2-y,1/2-z
1/2+x,y,1/2-z
1/2-x,1/2+y,1/2+z
1/2+x,-y,1/2+z
loop_
_atom_site_type_symbol
_atom_site_label
_atom_site_fract_x
_atom_site_fract_y
_atom_site_fract_z
Si Si1 0.780695 0.937545 0.148196
Si Si2 0.000000 0.435987 0.652229
Si Si3 0.924060 0.435761 0.348334
Si Si4 0.863428 0.062719 0.849874
O O1 0.779523 0.750000 0.144825
O O2 0.750000 0.993515 0.250000
O O3 0.821895 0.981374 0.185673
O O4 0.773654 0.000000 0.000000
O O5 0.000000 0.500000 0.500000
O O6 0.037772 0.499352 0.708879
O O7 0.000000 0.250000 0.651815
O O8 0.919637 0.500000 0.500000
O O9 0.925755 0.250000 0.354429
O O10 0.891530 0.492150 0.254906
O O11 0.866234 0.250000 0.849717
O O12 0.870261 0.000000 0.000000
#
# Coordination Sequence:
#
# PCOD9534904 Si02
#       4
#    16   8  16  16
#     4   9  19  35  54  77 105 137 174 216 261 311
#     4  10  18  32  53  78 107 138 173 216 264 310
#     4  11  21  35  55  80 108 140 178 219 263 311
#     4  10  20  36  55  77 107 142 178 217 265 317
#
# _framework density 17.677962000000001
#
# number of rings (size 3 to 8) (size 9 to 14) (size 15 to 20)
#    0.000    2.000    0.000    6.429    0.000    2.857 
#    0.000    3.571    0.000    0.000    0.000    0.000 
#    0.000    0.000    0.000    0.000    0.000    0.000 
#
# Total GULP energy -156261.680219 kJ/mol
# GULP energy per Si atom -5580.774294 kJ/mol
# Density = 1.763773 g / cm^3
# Si number density = 17.677962 Si / 1000 Ang^3
#
#
#
# Elastic Constant Matrix: (Units=GPa)
#
#
# Indices 1 2 3 4 5 6 
#
# 1 189.8813 67.6932 110.7352 0.0000 0.0000 0.0000
# 2 67.6932 117.3660 45.3688 0.0000 0.0000 0.0000
# 3 110.7352 45.3688 86.5214 0.0000 0.0000 0.0000
# 4 0.0000 0.0000 0.0000 30.2578 0.0000 0.0000
# 5 0.0000 0.0000 0.0000 0.0000 34.2478 0.0000
# 6 0.0000 0.0000 0.0000 0.0000 0.0000 -95.8481
#
#
#
# Elastic Compliance Matrix: (Units=1/GPa)
#
#
# Indices 1 2 3 4 5 6 
#
# 1 0.021202 -0.002181 -0.025992 0.000000 0.000000 0.000000
# 2 -0.002181 0.010911 -0.002929 0.000000 0.000000 0.000000
# 3 -0.025992 -0.002929 0.046360 0.000000 0.000000 0.000000
# 4 0.000000 0.000000 0.000000 0.033049 0.000000 0.000000
# 5 0.000000 0.000000 0.000000 0.000000 0.029199 0.000000
# 6 0.000000 0.000000 0.000000 0.000000 0.000000 -0.010433
#
#
# Mechanical properties :
#
#
# Convention : Reuss Voigt Hill
#
# Bulk Modulus (GPa) = 61.47240 93.48481 77.47861
# Shear Modulus (GPa) = 25.26334 5.06294 15.16314
#
# Velocity S-wave (km/s) = 3.78443 1.69417 2.93190
# Velocity P-wave (km/s) = 7.34471 7.53816 7.44207
#
# Compressibility (1/GPa) = 0.01626746
#
# Stress axis : x y z
#
# Youngs Moduli (GPa) = 47.16543 91.65139 21.57048
#
# Poissons Ratio (x) = 0.19992 0.56065
# Poissons Ratio (y) = 0.10288 0.06319
# Poissons Ratio (z) = 1.22591 0.26849
#
# Static dielectric constant tensor:
#      x y z
#    x 1.630130 0.000000 0.000000 
#    y 0.000000 1.591090 0.000000 
#    z 0.000000 0.000000 1.519800 
# 
# From -- ./inp_files/17259.got.cif
#   From: 2010.05.17/outbox.cif.g08.bks.cpg/sg74_9_cif.got.tgz:17259.got - 2010.06.03 17:57:02.
