data_PCOD9534087
_publ_section_title
;
Structure prediction by ZEFSAII (Michael W. Deem and Ramdas Pophale) SiO2 
 PCOD9534087
Probable space group: I M M A
;
_chemical_formula_sum "Si O2"
_cell_formula_units_Z 52
_cell_length_a 30.291948
_cell_length_b 5.500610
_cell_length_c 16.415084
_cell_angle_alpha 90.000000
_cell_angle_beta 90.000000
_cell_angle_gamma 90.000000
_cell_volume 2735.150110
_symmetry_space_group_name_H-M "I M M A"
_symmetry_group_IT_number 74
_symmetry_cell_setting 'orthorhombic'
loop_
_space_group_symop_operation_xyz
x,y,z
-x,1/2-y,z
x,-y,-z
-x,1/2+y,-z
-x,-y,-z
x,1/2+y,-z
-x,y,z
x,1/2-y,z
1/2+x,1/2+y,1/2+z
1/2-x,-y,1/2+z
1/2+x,1/2-y,1/2-z
1/2-x,y,1/2-z
1/2-x,1/2-y,1/2-z
1/2+x,y,1/2-z
1/2-x,1/2+y,1/2+z
1/2+x,-y,1/2+z
loop_
_atom_site_type_symbol
_atom_site_label
_atom_site_fract_x
_atom_site_fract_y
_atom_site_fract_z
Si Si1 0.766331 0.250000 0.446902
Si Si2 0.500000 0.250000 0.447188
Si Si3 0.633546 0.250000 0.092185
Si Si4 0.368482 0.750000 0.104526
Si Si5 0.680714 0.750000 0.669017
Si Si6 0.197758 0.250000 0.739066
Si Si7 0.403236 0.250000 0.447206
O O1 0.764359 0.500000 0.500000
O O2 0.813195 0.250000 0.399505
O O3 0.725208 0.250000 0.385575
O O4 0.500000 0.500000 0.500000
O O5 0.451899 0.250000 0.405693
O O6 0.612105 0.491608 0.127462
O O7 0.631453 0.250000 0.993403
O O8 0.320489 0.750000 0.146996
O O9 0.681132 0.499344 0.719730
O O10 0.637662 0.750000 0.613212
O O11 0.250000 0.250000 0.750000
O O12 0.400318 0.500000 0.500000
#
# Coordination Sequence:
#
# PCOD9534087 Si02
#       7
#     8   4   8   8   8   8   8
#     4  12  19  30  45  61  78 105 146 198 240 265
#     4   8  16  30  56  78 104 126 154 204 260 316
#     4  10  17  30  48  61  71  99 150 203 234 267
#     4  10  18  31  45  60  76 103 146 194 238 268
#     4  12  24  34  48  67  95 128 161 202 250 300
#     4  12  24  36  45  62  94 130 163 200 247 302
#     4  10  19  36  54  80 102 129 167 212 262 306
#
# _framework density 19.011755000000001
#
# number of rings (size 3 to 8) (size 9 to 14) (size 15 to 20)
#    0.000    1.231    3.077    6.000    0.000    0.000 
#    0.000    0.000    0.000    0.000    0.000    0.000 
#    0.000    0.000    0.000    0.000    0.000   61.538 
#
# Total GULP energy -144834.190765 kJ/mol
# GULP energy per Si atom -5570.545799 kJ/mol
# Density = 1.896848 g / cm^3
# Si number density = 19.011755 Si / 1000 Ang^3
#
#
#
# Elastic Constant Matrix: (Units=GPa)
#
#
# Indices 1 2 3 4 5 6 
#
# 1 50.2090 10.8241 6.1402 0.0000 0.0000 0.0000
# 2 10.8241 234.9901 35.4554 0.0000 0.0000 0.0000
# 3 6.1402 35.4554 37.7511 0.0000 0.0000 0.0000
# 4 0.0000 0.0000 0.0000 34.8546 0.0000 0.0000
# 5 0.0000 0.0000 0.0000 0.0000 4.0350 0.0000
# 6 0.0000 0.0000 0.0000 0.0000 0.0000 16.2214
#
#
#
# Elastic Compliance Matrix: (Units=1/GPa)
#
#
# Indices 1 2 3 4 5 6 
#
# 1 0.020373 -0.000511 -0.002834 0.000000 0.000000 0.000000
# 2 -0.000511 0.004971 -0.004586 0.000000 0.000000 0.000000
# 3 -0.002834 -0.004586 0.031257 0.000000 0.000000 0.000000
# 4 0.000000 0.000000 0.000000 0.028691 0.000000 0.000000
# 5 0.000000 0.000000 0.000000 0.000000 0.247834 0.000000
# 6 0.000000 0.000000 0.000000 0.000000 0.000000 0.061647
#
#
# Mechanical properties :
#
#
# Convention : Reuss Voigt Hill
#
# Bulk Modulus (GPa) = 24.54555 47.53221 36.03888
# Shear Modulus (GPa) = 11.78652 29.05756 20.42204
#
# Velocity S-wave (km/s) = 2.49260 3.91372 3.28102
# Velocity P-wave (km/s) = 4.60682 6.74379 5.77501
#
# Compressibility (1/GPa) = 0.04074058
#
# Stress axis : x y z
#
# Youngs Moduli (GPa) = 49.08354 201.17107 31.99295
#
# Poissons Ratio (x) = 0.10277 0.09067
# Poissons Ratio (y) = 0.02507 0.14670
# Poissons Ratio (z) = 0.13910 0.92247
#
# Static dielectric constant tensor:
#      x y z
#    x 1.609750 0.000000 0.000000 
#    y 0.000000 1.781810 0.000000 
#    z 0.000000 0.000000 1.704350 
# 
# From -- ./inp_files/27712.got.cif
#   From: 2010.05.17/outbox.cif.g08.bks.cpg/sg74_14_cif.got.tgz:27712.got - 2010.06.03 17:57:02.
