data_PCOD9534682
_publ_section_title
;
Structure prediction by ZEFSAII (Michael W. Deem and Ramdas Pophale) SiO2 
 PCOD9534682
Probable space group: I M M A
;
_chemical_formula_sum "Si O2"
_cell_formula_units_Z 80
_cell_length_a 8.922144
_cell_length_b 24.317391
_cell_length_c 26.677036
_cell_angle_alpha 90.000000
_cell_angle_beta 90.000000
_cell_angle_gamma 90.000000
_cell_volume 5787.936810
_symmetry_space_group_name_H-M "I M M A"
_symmetry_group_IT_number 74
_symmetry_cell_setting 'orthorhombic'
loop_
_space_group_symop_operation_xyz
x,y,z
-x,1/2-y,z
x,-y,-z
-x,1/2+y,-z
-x,-y,-z
x,1/2+y,-z
-x,y,z
x,1/2-y,z
1/2+x,1/2+y,1/2+z
1/2-x,-y,1/2+z
1/2+x,1/2-y,1/2-z
1/2-x,y,1/2-z
1/2-x,1/2-y,1/2-z
1/2+x,y,1/2-z
1/2-x,1/2+y,1/2+z
1/2+x,-y,1/2+z
loop_
_atom_site_type_symbol
_atom_site_label
_atom_site_fract_x
_atom_site_fract_y
_atom_site_fract_z
Si Si1 0.824816 0.535155 0.948550
Si Si2 0.680357 0.250000 0.647836
Si Si3 0.679527 0.130013 0.995194
Si Si4 0.819036 0.140030 0.695746
Si Si5 0.820633 0.562042 0.395666
Si Si6 0.181236 0.750000 0.463042
O O1 0.751230 0.497096 0.906247
O O2 0.000000 0.541413 0.939292
O O3 0.804440 0.500000 0.000000
O O4 0.751407 0.593622 0.961099
O O5 0.500000 0.250000 0.650397
O O6 0.747993 0.196258 0.674647
O O7 0.737265 0.250000 0.590488
O O8 0.500000 0.125528 0.999080
O O9 0.723575 0.102541 0.941706
O O10 0.719286 0.194090 0.992253
O O11 0.750000 0.128881 0.750000
O O12 0.781955 0.091954 0.656028
O O13 0.000000 0.145483 0.698041
O O14 0.000000 0.556388 0.398002
O O15 0.000000 0.750000 0.454021
#
# Coordination Sequence:
#
# PCOD9534682 Si02
#       6
#    16   8  16  16  16   8
#     4   9  17  27  41  62  86 106 133 173 213 255
#     4  12  23  33  46  62  83 114 148 187 227 261
#     4   9  16  28  45  62  82 110 143 173 211 256
#     4  11  22  36  49  63  83 110 147 188 226 263
#     4   9  17  30  47  61  79 108 141 177 215 258
#     4  10  18  31  47  64  86 116 148 183 216 255
#
# _framework density 13.821851000000001
#
# number of rings (size 3 to 8) (size 9 to 14) (size 15 to 20)
#    0.000    2.200    2.000    2.400    0.000    4.800 
#    0.000    0.000    0.000    0.000    0.000    0.000 
#    0.000    0.000    0.000    0.900    0.000   10.600 
#
# Total GULP energy -223002.924714 kJ/mol
# GULP energy per Si atom -5575.073118 kJ/mol
# Density = 1.379039 g / cm^3
# Si number density = 13.821851 Si / 1000 Ang^3
#
#
#
# Elastic Constant Matrix: (Units=GPa)
#
#
# Indices 1 2 3 4 5 6 
#
# 1 42.3037 48.2972 39.4187 0.0000 0.0000 0.0000
# 2 48.2972 126.7178 69.9848 0.0000 0.0000 0.0000
# 3 39.4187 69.9848 71.7360 0.0000 0.0000 0.0000
# 4 0.0000 0.0000 0.0000 10.9034 0.0000 0.0000
# 5 0.0000 0.0000 0.0000 0.0000 20.2640 0.0000
# 6 0.0000 0.0000 0.0000 0.0000 0.0000 11.7185
#
#
#
# Elastic Compliance Matrix: (Units=1/GPa)
#
#
# Indices 1 2 3 4 5 6 
#
# 1 0.052670 -0.008869 -0.020290 0.000000 0.000000 0.000000
# 2 -0.008869 0.018605 -0.013277 0.000000 0.000000 0.000000
# 3 -0.020290 -0.013277 0.038042 0.000000 0.000000 0.000000
# 4 0.000000 0.000000 0.000000 0.091715 0.000000 0.000000
# 5 0.000000 0.000000 0.000000 0.000000 0.049348 0.000000
# 6 0.000000 0.000000 0.000000 0.000000 0.000000 0.085335
#
#
# Mechanical properties :
#
#
# Convention : Reuss Voigt Hill
#
# Bulk Modulus (GPa) = 40.90726 61.79546 51.35136
# Shear Modulus (GPa) = 11.66225 14.11431 12.88828
#
# Velocity S-wave (km/s) = 2.90790 3.19902 3.05693
# Velocity P-wave (km/s) = 6.39803 7.64530 7.04931
#
# Compressibility (1/GPa) = 0.02444554
#
# Stress axis : x y z
#
# Youngs Moduli (GPa) = 18.98617 53.75019 26.28682
#
# Poissons Ratio (x) = 0.47671 0.53335
# Poissons Ratio (y) = 0.16839 0.34901
# Poissons Ratio (z) = 0.38522 0.71364
#
# Static dielectric constant tensor:
#      x y z
#    x 1.460410 0.000000 0.000000 
#    y 0.000000 1.455320 0.000000 
#    z 0.000000 0.000000 1.431610 
# 
# From -- ./inp_files/54406.got.cif
#   From: 2010.05.17/outbox.cif.g08.bks.cpg/sg74_28_cif.got.tgz:54406.got - 2010.06.03 17:57:02.
