data_PCOD9534206
_publ_section_title
;
Structure prediction by ZEFSAII (Michael W. Deem and Ramdas Pophale) SiO2 
 PCOD9534206
Probable space group: I M M A
;
_chemical_formula_sum "Si O2"
_cell_formula_units_Z 80
_cell_length_a 21.106972
_cell_length_b 18.671968
_cell_length_c 10.934759
_cell_angle_alpha 90.000000
_cell_angle_beta 90.000000
_cell_angle_gamma 90.000000
_cell_volume 4309.483717
_symmetry_space_group_name_H-M "I M M A"
_symmetry_group_IT_number 74
_symmetry_cell_setting 'orthorhombic'
loop_
_space_group_symop_operation_xyz
x,y,z
-x,1/2-y,z
x,-y,-z
-x,1/2+y,-z
-x,-y,-z
x,1/2+y,-z
-x,y,z
x,1/2-y,z
1/2+x,1/2+y,1/2+z
1/2-x,-y,1/2+z
1/2+x,1/2-y,1/2-z
1/2-x,y,1/2-z
1/2-x,1/2-y,1/2-z
1/2+x,y,1/2-z
1/2-x,1/2+y,1/2+z
1/2+x,-y,1/2+z
loop_
_atom_site_type_symbol
_atom_site_label
_atom_site_fract_x
_atom_site_fract_y
_atom_site_fract_z
Si Si1 0.177328 0.019391 0.369584
Si Si2 0.500000 0.415030 0.482896
Si Si3 0.142274 0.169716 0.286522
Si Si4 0.179543 0.961062 0.119255
Si Si5 0.500000 0.831208 0.760524
Si Si6 0.872119 0.166453 0.992659
O O1 0.178544 0.104410 0.347649
O O2 0.147028 0.000000 0.500000
O O3 0.148061 0.984429 0.246808
O O4 0.248575 0.988940 0.374803
O O5 0.500000 0.500000 0.500000
O O6 0.500000 0.392987 0.339996
O O7 0.437877 0.374717 0.532638
O O8 0.165575 0.250000 0.313988
O O9 0.142462 0.160522 0.138530
O O10 0.067886 0.164888 0.325381
O O11 0.177657 0.877593 0.087944
O O12 0.150468 0.000000 0.000000
O O13 0.500000 0.750000 0.701578
O O14 0.876026 0.250000 0.964694
#
# Coordination Sequence:
#
# PCOD9534206 Si02
#       6
#    16   8  16  16   8  16
#     4  10  21  35  53  78 111 146 186 235 274 322
#     4  10  18  26  50  88 117 140 172 225 285 331
#     4   9  17  33  57  83 110 144 184 229 278 331
#     4  10  19  36  55  76 107 144 187 230 278 322
#     4   8  16  30  51  82 114 138 176 229 275 324
#     4  10  19  33  55  84 115 146 182 228 280 332
#
# _framework density 18.563708999999999
#
# number of rings (size 3 to 8) (size 9 to 14) (size 15 to 20)
#    0.000    2.400    2.000    2.700    2.800    0.000 
#    0.000    9.500    0.000    0.000    0.000    2.800 
#    0.000    0.000    0.000    0.000    0.000    0.000 
#
# Total GULP energy -222791.264533 kJ/mol
# GULP energy per Si atom -5569.781613 kJ/mol
# Density = 1.852146 g / cm^3
# Si number density = 18.563709 Si / 1000 Ang^3
#
#
#
# Elastic Constant Matrix: (Units=GPa)
#
#
# Indices 1 2 3 4 5 6 
#
# 1 55.8438 49.7527 2.6821 0.0000 0.0000 0.0000
# 2 49.7527 205.6155 47.8678 0.0000 0.0000 0.0000
# 3 2.6821 47.8678 105.3509 0.0000 0.0000 0.0000
# 4 0.0000 0.0000 0.0000 36.7933 0.0000 0.0000
# 5 0.0000 0.0000 0.0000 0.0000 9.4108 0.0000
# 6 0.0000 0.0000 0.0000 0.0000 0.0000 31.6895
#
#
#
# Elastic Compliance Matrix: (Units=1/GPa)
#
#
# Indices 1 2 3 4 5 6 
#
# 1 0.023275 -0.006144 0.002199 0.000000 0.000000 0.000000
# 2 -0.006144 0.007060 -0.003052 0.000000 0.000000 0.000000
# 3 0.002199 -0.003052 0.010823 0.000000 0.000000 0.000000
# 4 0.000000 0.000000 0.000000 0.027179 0.000000 0.000000
# 5 0.000000 0.000000 0.000000 0.000000 0.106261 0.000000
# 6 0.000000 0.000000 0.000000 0.000000 0.000000 0.031556
#
#
# Mechanical properties :
#
#
# Convention : Reuss Voigt Hill
#
# Bulk Modulus (GPa) = 36.81154 63.04616 49.92885
# Shear Modulus (GPa) = 21.81474 33.34588 27.58031
#
# Velocity S-wave (km/s) = 3.43173 4.24287 3.85867
# Velocity P-wave (km/s) = 5.96450 7.61829 6.84155
#
# Compressibility (1/GPa) = 0.02716539
#
# Stress axis : x y z
#
# Youngs Moduli (GPa) = 42.96422 141.63330 92.39876
#
# Poissons Ratio (x) = 0.87017 -0.20318
# Poissons Ratio (y) = 0.26396 0.28197
# Poissons Ratio (z) = -0.09448 0.43221
#
# Static dielectric constant tensor:
#      x y z
#    x 1.579770 0.000000 0.000000 
#    y 0.000000 1.666740 0.000000 
#    z 0.000000 0.000000 1.714150 
# 
# From -- ./inp_files/20823.got.cif
#   From: 2010.05.17/outbox.cif.g08.bks.cpg/sg74_11_cif.got.tgz:20823.got - 2010.06.03 17:57:02.
