data_PCOD9534248
_publ_section_title
;
Structure prediction by ZEFSAII (Michael W. Deem and Ramdas Pophale) SiO2 
 PCOD9534248
Probable space group: I M M A
;
_chemical_formula_sum "Si O2"
_cell_formula_units_Z 80
_cell_length_a 31.319732
_cell_length_b 8.163530
_cell_length_c 13.462232
_cell_angle_alpha 90.000000
_cell_angle_beta 90.000000
_cell_angle_gamma 90.000000
_cell_volume 3442.017713
_symmetry_space_group_name_H-M "I M M A"
_symmetry_group_IT_number 74
_symmetry_cell_setting 'orthorhombic'
loop_
_space_group_symop_operation_xyz
x,y,z
-x,1/2-y,z
x,-y,-z
-x,1/2+y,-z
-x,-y,-z
x,1/2+y,-z
-x,y,z
x,1/2-y,z
1/2+x,1/2+y,1/2+z
1/2-x,-y,1/2+z
1/2+x,1/2-y,1/2-z
1/2-x,y,1/2-z
1/2-x,1/2-y,1/2-z
1/2+x,y,1/2-z
1/2-x,1/2+y,1/2+z
1/2+x,-y,1/2+z
loop_
_atom_site_type_symbol
_atom_site_label
_atom_site_fract_x
_atom_site_fract_y
_atom_site_fract_z
Si Si1 0.805649 0.750000 0.872344
Si Si2 0.708203 0.750000 0.870101
Si Si3 0.658735 0.926900 0.131777
Si Si4 0.953088 0.446959 0.170727
Si Si5 0.566769 0.054617 0.100860
Si Si6 0.140568 0.433105 0.867249
O O1 0.756785 0.750000 0.906180
O O2 0.798690 0.750000 0.751140
O O3 0.831992 0.588316 0.902466
O O4 0.685432 0.582877 0.900774
O O5 0.676209 0.750000 0.102773
O O6 0.653656 0.928657 0.250983
O O7 0.610435 0.952612 0.098210
O O8 0.949218 0.250000 0.157646
O O9 0.952473 0.477787 0.290196
O O10 0.910227 0.528031 0.127282
O O11 0.000000 0.499219 0.132875
O O12 0.574721 0.250000 0.098831
O O13 0.543956 0.000000 0.000000
O O14 0.148862 0.250000 0.905477
#
# Coordination Sequence:
#
# PCOD9534248 Si02
#       6
#     8   8  16  16  16  16
#     4   9  16  26  39  56  76  92 113 142 180 227
#     4   9  16  26  40  56  74  94 112 142 180 227
#     4   9  16  27  40  54  72  93 117 145 183 229
#     4   9  17  29  42  53  70  98 127 160 202 238
#     4  10  18  28  40  54  72  95 126 162 200 242
#     4   9  16  26  40  55  72  94 118 145 182 227
#
# _framework density 23.242180000000001
#
# number of rings (size 3 to 8) (size 9 to 14) (size 15 to 20)
#    0.000    2.800    2.000    0.600    0.000    2.400 
#    0.000    4.000    0.000    0.000    0.000    0.000 
#    0.000    0.000    0.000    0.000    0.000    0.000 
#
# Total GULP energy -223337.970846 kJ/mol
# GULP energy per Si atom -5583.449271 kJ/mol
# Density = 2.318928 g / cm^3
# Si number density = 23.242180 Si / 1000 Ang^3
#
#
#
# Elastic Constant Matrix: (Units=GPa)
#
#
# Indices 1 2 3 4 5 6 
#
# 1 179.0466 108.3167 2.3650 0.0000 0.0000 0.0000
# 2 108.3167 186.4521 28.8662 0.0000 0.0000 0.0000
# 3 2.3650 28.8662 69.9992 0.0000 0.0000 0.0000
# 4 0.0000 0.0000 0.0000 26.3589 0.0000 0.0000
# 5 0.0000 0.0000 0.0000 0.0000 -21.1064 0.0000
# 6 0.0000 0.0000 0.0000 0.0000 0.0000 -1.4897
#
#
#
# Elastic Compliance Matrix: (Units=1/GPa)
#
#
# Indices 1 2 3 4 5 6 
#
# 1 0.008853 -0.005444 0.001946 0.000000 0.000000 0.000000
# 2 -0.005444 0.009077 -0.003559 0.000000 0.000000 0.000000
# 3 0.001946 -0.003559 0.015688 0.000000 0.000000 0.000000
# 4 0.000000 0.000000 0.000000 0.037938 0.000000 0.000000
# 5 0.000000 0.000000 0.000000 0.000000 -0.047379 0.000000
# 6 0.000000 0.000000 0.000000 0.000000 0.000000 -0.671288
#
#
# Mechanical properties :
#
#
# Convention : Reuss Voigt Hill
#
# Bulk Modulus (GPa) = 51.27441 79.39930 65.33685
# Shear Modulus (GPa) = -7.98091 20.48257 6.25083
#
# Velocity S-wave (km/s) = -1.85506 2.97183 1.64173
# Velocity P-wave (km/s) = 4.18575 6.78319 5.63614
#
# Compressibility (1/GPa) = 0.01950291
#
# Stress axis : x y z
#
# Youngs Moduli (GPa) = 112.95528 110.16658 63.74341
#
# Poissons Ratio (x) = 0.59978 -0.12405
# Poissons Ratio (y) = 0.61497 0.22688
# Poissons Ratio (z) = -0.21981 0.39211
#
# Static dielectric constant tensor:
#      x y z
#    x 1.826660 0.000000 0.000000 
#    y 0.000000 1.837450 0.000000 
#    z 0.000000 0.000000 1.938830 
# 
# From -- ./inp_files/55497.got.cif
#   From: 2010.05.17/outbox.cif.g08.bks.cpg/sg74_28_cif.got.tgz:55497.got - 2010.06.03 17:57:02.
