data_PCOD9534519
_publ_section_title
;
Structure prediction by ZEFSAII (Michael W. Deem and Ramdas Pophale) SiO2 
 PCOD9534519
Probable space group: I M M A
;
_chemical_formula_sum "Si O2"
_cell_formula_units_Z 56
_cell_length_a 29.947006
_cell_length_b 8.561305
_cell_length_c 13.852384
_cell_angle_alpha 90.000000
_cell_angle_beta 90.000000
_cell_angle_gamma 90.000000
_cell_volume 3551.549736
_symmetry_space_group_name_H-M "I M M A"
_symmetry_group_IT_number 74
_symmetry_cell_setting 'orthorhombic'
loop_
_space_group_symop_operation_xyz
x,y,z
-x,1/2-y,z
x,-y,-z
-x,1/2+y,-z
-x,-y,-z
x,1/2+y,-z
-x,y,z
x,1/2-y,z
1/2+x,1/2+y,1/2+z
1/2-x,-y,1/2+z
1/2+x,1/2-y,1/2-z
1/2-x,y,1/2-z
1/2-x,1/2-y,1/2-z
1/2+x,y,1/2-z
1/2-x,1/2+y,1/2+z
1/2+x,-y,1/2+z
loop_
_atom_site_type_symbol
_atom_site_label
_atom_site_fract_x
_atom_site_fract_y
_atom_site_fract_z
Si Si1 0.682874 0.937142 0.794306
Si Si2 0.593841 0.936896 0.109864
Si Si3 0.500000 0.436836 0.109983
Si Si4 0.728842 0.437084 0.605885
O O1 0.683862 0.750000 0.797487
O O2 0.635551 0.000678 0.829736
O O3 0.695942 0.996189 0.687732
O O4 0.721928 0.003238 0.863516
O O5 0.593404 0.750000 0.107040
O O6 0.546573 0.999065 0.150838
O O7 0.598351 0.000000 0.000000
O O8 0.500000 0.250000 0.109710
O O9 0.500000 0.500000 0.000000
O O10 0.718020 0.500000 0.500000
O O11 0.728314 0.250000 0.608120
#
# Coordination Sequence:
#
# PCOD9534519 Si02
#       4
#    16  16   8  16
#     4  11  21  34  50  72  97 127 163 200 238 284
#     4  11  20  32  48  70  98 130 162 198 239 286
#     4  10  18  30  46  68  95 126 159 196 238 286
#     4  11  21  35  51  71  97 128 161 199 240 284
#
# _framework density 15.767764
#
# number of rings (size 3 to 8) (size 9 to 14) (size 15 to 20)
#    0.000    1.143    0.000   13.286    0.000    0.000 
#    0.000    0.000    0.000    0.000    0.000    1.000 
#    0.000    0.000    0.000    0.000    0.000    0.000 
#
# Total GULP energy -156438.077332 kJ/mol
# GULP energy per Si atom -5587.074190 kJ/mol
# Density = 1.573188 g / cm^3
# Si number density = 15.767764 Si / 1000 Ang^3
#
#
#
# Elastic Constant Matrix: (Units=GPa)
#
#
# Indices 1 2 3 4 5 6 
#
# 1 158.6366 65.2276 54.2288 0.0000 0.0000 0.0000
# 2 65.2276 197.4583 37.4847 0.0000 0.0000 0.0000
# 3 54.2288 37.4847 75.9100 0.0000 0.0000 0.0000
# 4 0.0000 0.0000 0.0000 25.8559 0.0000 0.0000
# 5 0.0000 0.0000 0.0000 0.0000 19.1916 0.0000
# 6 0.0000 0.0000 0.0000 0.0000 0.0000 39.9836
#
#
#
# Elastic Compliance Matrix: (Units=1/GPa)
#
#
# Indices 1 2 3 4 5 6 
#
# 1 0.008958 -0.001925 -0.005449 0.000000 0.000000 0.000000
# 2 -0.001925 0.006002 -0.001589 0.000000 0.000000 0.000000
# 3 -0.005449 -0.001589 0.017851 0.000000 0.000000 0.000000
# 4 0.000000 0.000000 0.000000 0.038676 0.000000 0.000000
# 5 0.000000 0.000000 0.000000 0.000000 0.052106 0.000000
# 6 0.000000 0.000000 0.000000 0.000000 0.000000 0.025010
#
#
# Mechanical properties :
#
#
# Convention : Reuss Voigt Hill
#
# Bulk Modulus (GPa) = 67.17917 82.87633 75.02775
# Shear Modulus (GPa) = 29.15646 35.34383 32.25015
#
# Velocity S-wave (km/s) = 4.30480 4.73961 4.52743
# Velocity P-wave (km/s) = 8.21013 9.08992 8.66120
#
# Compressibility (1/GPa) = 0.01488557
#
# Stress axis : x y z
#
# Youngs Moduli (GPa) = 111.63525 166.61809 56.02056
#
# Poissons Ratio (x) = 0.32069 0.30525
# Poissons Ratio (y) = 0.21486 0.08900
# Poissons Ratio (z) = 0.60828 0.26471
#
# Static dielectric constant tensor:
#      x y z
#    x 1.540210 0.000000 0.000000 
#    y 0.000000 1.521110 0.000000 
#    z 0.000000 0.000000 1.440210 
# 
# From -- ./inp_files/29006.got.cif
#   From: 2010.05.17/outbox.cif.g08.bks.cpg/sg74_15_cif.got.tgz:29006.got - 2010.06.03 17:57:02.
