data_PCOD9534788
_publ_section_title
;
Structure prediction by ZEFSAII (Michael W. Deem and Ramdas Pophale) SiO2 
 PCOD9534788
Probable space group: I M M A
;
_chemical_formula_sum "Si O2"
_cell_formula_units_Z 96
_cell_length_a 9.936284
_cell_length_b 22.966319
_cell_length_c 22.494210
_cell_angle_alpha 90.000000
_cell_angle_beta 90.000000
_cell_angle_gamma 90.000000
_cell_volume 5133.175753
_symmetry_space_group_name_H-M "I M M A"
_symmetry_group_IT_number 74
_symmetry_cell_setting 'orthorhombic'
loop_
_space_group_symop_operation_xyz
x,y,z
-x,1/2-y,z
x,-y,-z
-x,1/2+y,-z
-x,-y,-z
x,1/2+y,-z
-x,y,z
x,1/2-y,z
1/2+x,1/2+y,1/2+z
1/2-x,-y,1/2+z
1/2+x,1/2-y,1/2-z
1/2-x,y,1/2-z
1/2-x,1/2-y,1/2-z
1/2+x,y,1/2-z
1/2-x,1/2+y,1/2+z
1/2+x,-y,1/2+z
loop_
_atom_site_type_symbol
_atom_site_label
_atom_site_fract_x
_atom_site_fract_y
_atom_site_fract_z
Si Si1 0.500000 0.683431 0.677577
Si Si2 0.842357 0.179468 0.805396
Si Si3 0.155008 0.484361 0.096646
Si Si4 0.341722 0.180474 0.921271
Si Si5 0.751930 0.394852 0.321235
Si Si6 0.500000 0.316142 0.177810
Si Si7 0.156039 0.096177 0.980008
O O1 0.500000 0.750000 0.655584
O O2 0.625663 0.644488 0.660145
O O3 0.500000 0.687258 0.749791
O O4 0.850571 0.250000 0.800634
O O5 0.750000 0.158965 0.750000
O O6 0.753964 0.167457 0.864241
O O7 0.000000 0.159009 0.806678
O O8 0.245871 0.457114 0.147665
O O9 0.185343 0.547773 0.070803
O O10 0.000000 0.485317 0.117447
O O11 0.163133 0.439655 0.041249
O O12 0.500000 0.164426 0.913385
O O13 0.338091 0.250000 0.930262
O O14 0.266453 0.146119 0.973809
O O15 0.750000 0.401327 0.250000
O O16 0.874440 0.354614 0.339621
O O17 0.500000 0.250000 0.155799
O O18 0.000000 0.116217 0.973035
#
# Coordination Sequence:
#
# PCOD9534788 Si02
#       7
#     8  16  16  16  16   8  16
#     4   9  16  28  50  73 102 144 181 210 256 316
#     4   9  16  27  47  75 105 139 176 212 258 320
#     4   9  18  37  60  79 101 134 184 229 265 319
#     4  10  20  35  54  78 111 143 174 220 275 328
#     4  10  18  31  53  78 108 142 175 221 270 315
#     4   9  18  30  44  73 110 144 179 210 252 320
#     4   9  19  37  61  79  97 136 184 229 271 320
#
# _framework density 18.701872000000002
#
# number of rings (size 3 to 8) (size 9 to 14) (size 15 to 20)
#    0.000    2.667    0.833    2.500    0.000    5.000 
#    3.000    3.333    0.000    2.000    0.000    0.000 
#    0.000    0.000    0.000    0.000    0.000    0.000 
#
# Total GULP energy -267357.811235 kJ/mol
# GULP energy per Si atom -5569.954401 kJ/mol
# Density = 1.865931 g / cm^3
# Si number density = 18.701872 Si / 1000 Ang^3
#
#
#
# Elastic Constant Matrix: (Units=GPa)
#
#
# Indices 1 2 3 4 5 6 
#
# 1 146.1514 33.4294 20.9879 0.0000 0.0000 0.0000
# 2 33.4294 43.5687 19.7275 0.0000 0.0000 0.0000
# 3 20.9879 19.7275 17.2065 0.0000 0.0000 0.0000
# 4 0.0000 0.0000 0.0000 23.2261 0.0000 0.0000
# 5 0.0000 0.0000 0.0000 0.0000 23.4842 0.0000
# 6 0.0000 0.0000 0.0000 0.0000 0.0000 26.3832
#
#
#
# Elastic Compliance Matrix: (Units=1/GPa)
#
#
# Indices 1 2 3 4 5 6 
#
# 1 0.008594 -0.003842 -0.006078 0.000000 0.000000 0.000000
# 2 -0.003842 0.049448 -0.052006 0.000000 0.000000 0.000000
# 3 -0.006078 -0.052006 0.125157 0.000000 0.000000 0.000000
# 4 0.000000 0.000000 0.000000 0.043055 0.000000 0.000000
# 5 0.000000 0.000000 0.000000 0.000000 0.042582 0.000000
# 6 0.000000 0.000000 0.000000 0.000000 0.000000 0.037903
#
#
# Mechanical properties :
#
#
# Convention : Reuss Voigt Hill
#
# Bulk Modulus (GPa) = 16.85016 39.46846 28.15931
# Shear Modulus (GPa) = 11.10193 23.47084 17.28638
#
# Velocity S-wave (km/s) = 2.43909 3.54644 3.04355
# Velocity P-wave (km/s) = 4.11845 6.15788 5.23837
#
# Compressibility (1/GPa) = 0.05934663
#
# Stress axis : x y z
#
# Youngs Moduli (GPa) = 116.36359 20.22323 7.98998
#
# Poissons Ratio (x) = 0.07770 0.04856
# Poissons Ratio (y) = 0.44707 0.41553
# Poissons Ratio (z) = 0.70720 1.05174
#
# Static dielectric constant tensor:
#      x y z
#    x 1.681800 0.000000 0.000000 
#    y 0.000000 1.648520 0.000000 
#    z 0.000000 0.000000 1.683420 
# 
# From -- ./inp_files/57361.got.cif
#   From: 2010.05.17/outbox.cif.g08.bks.cpg/sg74_29_cif.got.tgz:57361.got - 2010.06.03 17:57:02.
