data_PCOD9534465
_publ_section_title
;
Structure prediction by ZEFSAII (Michael W. Deem and Ramdas Pophale) SiO2 
 PCOD9534465
Probable space group: I M M A
;
_chemical_formula_sum "Si O2"
_cell_formula_units_Z 112
_cell_length_a 24.159801
_cell_length_b 14.002892
_cell_length_c 11.770399
_cell_angle_alpha 90.000000
_cell_angle_beta 90.000000
_cell_angle_gamma 90.000000
_cell_volume 3982.009365
_symmetry_space_group_name_H-M "I M M A"
_symmetry_group_IT_number 74
_symmetry_cell_setting 'orthorhombic'
loop_
_space_group_symop_operation_xyz
x,y,z
-x,1/2-y,z
x,-y,-z
-x,1/2+y,-z
-x,-y,-z
x,1/2+y,-z
-x,y,z
x,1/2-y,z
1/2+x,1/2+y,1/2+z
1/2-x,-y,1/2+z
1/2+x,1/2-y,1/2-z
1/2-x,y,1/2-z
1/2-x,1/2-y,1/2-z
1/2+x,y,1/2-z
1/2-x,1/2+y,1/2+z
1/2+x,-y,1/2+z
loop_
_atom_site_type_symbol
_atom_site_label
_atom_site_fract_x
_atom_site_fract_y
_atom_site_fract_z
Si Si1 0.667762 0.134101 0.072844
Si Si2 0.935420 0.633654 0.443205
Si Si3 0.317784 0.359728 0.315930
Si Si4 0.655040 0.644431 0.243127
Si Si5 0.557576 0.880751 0.390723
Si Si6 0.226511 0.366360 0.941252
Si Si7 0.941880 0.393007 0.152258
O O1 0.668076 0.250000 0.078159
O O2 0.696329 0.100157 0.190208
O O3 0.709163 0.108430 0.968189
O O4 0.603884 0.106054 0.050145
O O5 0.937608 0.750000 0.438147
O O6 0.891910 0.604261 0.343428
O O7 0.000000 0.601214 0.440594
O O8 0.298224 0.250000 0.321620
O O9 0.304319 0.398801 0.441980
O O10 0.384287 0.358652 0.301394
O O11 0.673022 0.750000 0.201184
O O12 0.613396 0.659336 0.347323
O O13 0.703202 0.597377 0.320343
O O14 0.500000 0.848598 0.335281
O O15 0.555014 0.859015 0.522811
O O16 0.560115 0.993316 0.365484
O O17 0.222390 0.250000 0.936009
O O18 0.000000 0.367736 0.211635
#
# Coordination Sequence:
#
# PCOD9534465 Si02
#       7
#    16  16  16  16  16  16  16
#     4   9  18  31  48  70 102 139 168 203 252 309
#     4   9  18  31  46  69 101 136 171 203 245 301
#     4  10  18  30  49  75 102 131 170 214 257 301
#     4  10  18  29  50  78 102 126 165 217 259 294
#     4   9  17  30  46  68 101 135 164 201 256 314
#     4   9  17  29  46  75 103 123 159 209 259 305
#     4   9  18  30  45  70 101 134 170 203 251 315
#
# _framework density 28.126505000000002
#
# number of rings (size 3 to 8) (size 9 to 14) (size 15 to 20)
#    0.000    2.714    1.429    1.714    0.000    4.000 
#    0.000    5.714    0.000    0.857   11.143    3.000 
#    0.000    0.000    0.000    0.000    0.000    0.000 
#
# Total GULP energy -312485.439981 kJ/mol
# GULP energy per Si atom -5580.097143 kJ/mol
# Density = 2.806249 g / cm^3
# Si number density = 28.126505 Si / 1000 Ang^3
#
#
#
# Elastic Constant Matrix: (Units=GPa)
#
#
# Indices 1 2 3 4 5 6 
#
# 1 212.1486 5.9578 85.0932 0.0000 0.0000 0.0000
# 2 5.9578 110.2945 21.7949 0.0000 0.0000 0.0000
# 3 85.0932 21.7949 132.3986 0.0000 0.0000 0.0000
# 4 0.0000 0.0000 0.0000 18.1163 0.0000 0.0000
# 5 0.0000 0.0000 0.0000 0.0000 45.8782 0.0000
# 6 0.0000 0.0000 0.0000 0.0000 0.0000 -18.2154
#
#
#
# Elastic Compliance Matrix: (Units=1/GPa)
#
#
# Indices 1 2 3 4 5 6 
#
# 1 0.006375 0.000481 -0.004177 0.000000 0.000000 0.000000
# 2 0.000481 0.009408 -0.001858 0.000000 0.000000 0.000000
# 3 -0.004177 -0.001858 0.010543 0.000000 0.000000 0.000000
# 4 0.000000 0.000000 0.000000 0.055199 0.000000 0.000000
# 5 0.000000 0.000000 0.000000 0.000000 0.021797 0.000000
# 6 0.000000 0.000000 0.000000 0.000000 0.000000 -0.054899
#
#
# Mechanical properties :
#
#
# Convention : Reuss Voigt Hill
#
# Bulk Modulus (GPa) = 65.70595 75.61481 70.66038
# Shear Modulus (GPa) = 77.39509 31.95555 54.67532
#
# Velocity S-wave (km/s) = 5.25133 3.37432 4.41376
# Velocity P-wave (km/s) = 7.75759 6.49027 7.15206
#
# Compressibility (1/GPa) = 0.01521932
#
# Stress axis : x y z
#
# Youngs Moduli (GPa) = 156.85152 106.29518 94.84825
#
# Poissons Ratio (x) = -0.05112 0.39615
# Poissons Ratio (y) = -0.07544 0.17621
# Poissons Ratio (z) = 0.65512 0.19747
#
# Static dielectric constant tensor:
#      x y z
#    x 2.236780 0.000000 0.000000 
#    y 0.000000 2.255370 0.000000 
#    z 0.000000 0.000000 2.286290 
# 
# From -- ./inp_files/25520.got.cif
#   From: 2010.05.17/outbox.cif.g08.bks.cpg/sg74_13_cif.got.tgz:25520.got - 2010.06.03 17:57:02.
