data_PCOD9534624
_publ_section_title
;
Structure prediction by ZEFSAII (Michael W. Deem and Ramdas Pophale) SiO2 
 PCOD9534624
Probable space group: I M M A
;
_chemical_formula_sum "Si O2"
_cell_formula_units_Z 72
_cell_length_a 28.448448
_cell_length_b 16.176508
_cell_length_c 7.081894
_cell_angle_alpha 90.000000
_cell_angle_beta 90.000000
_cell_angle_gamma 90.000000
_cell_volume 3259.063163
_symmetry_space_group_name_H-M "I M M A"
_symmetry_group_IT_number 74
_symmetry_cell_setting 'orthorhombic'
loop_
_space_group_symop_operation_xyz
x,y,z
-x,1/2-y,z
x,-y,-z
-x,1/2+y,-z
-x,-y,-z
x,1/2+y,-z
-x,y,z
x,1/2-y,z
1/2+x,1/2+y,1/2+z
1/2-x,-y,1/2+z
1/2+x,1/2-y,1/2-z
1/2-x,y,1/2-z
1/2-x,1/2-y,1/2-z
1/2+x,y,1/2-z
1/2-x,1/2+y,1/2+z
1/2+x,-y,1/2+z
loop_
_atom_site_type_symbol
_atom_site_label
_atom_site_fract_x
_atom_site_fract_y
_atom_site_fract_z
Si Si1 0.400923 0.500000 0.500000
Si Si2 0.340744 0.842919 0.459788
Si Si3 0.755278 0.904930 0.528429
Si Si4 0.647938 0.657317 0.915304
Si Si5 0.948224 0.421903 0.363584
O O1 0.369427 0.426247 0.594687
O O2 0.432238 0.455908 0.340787
O O3 0.356534 0.750000 0.402347
O O4 0.285080 0.853739 0.423332
O O5 0.346107 0.846140 0.688397
O O6 0.750000 0.883460 0.750000
O O7 0.810539 0.894690 0.489252
O O8 0.742299 0.000000 0.500000
O O9 0.657025 0.750000 0.976028
O O10 0.594324 0.632255 0.945348
O O11 0.951149 0.500000 0.500000
O O12 0.000000 0.382377 0.353102
#
# Coordination Sequence:
#
# PCOD9534624 Si02
#       5
#     8  16  16  16  16
#     4  10  19  36  60  84 112 148 183 230 286 340
#     4   9  17  31  53  81 110 143 183 225 276 338
#     4  10  18  30  51  76 107 145 184 222 274 334
#     4   9  18  32  52  78 105 140 184 232 281 330
#     4  10  21  37  58  81 107 143 188 234 284 341
#
# _framework density 22.092237000000001
#
# number of rings (size 3 to 8) (size 9 to 14) (size 15 to 20)
#    0.000    2.444    1.111    1.667    0.000    3.111 
#    0.000    1.111    0.000    4.667    0.000    0.000 
#    0.000    0.000    0.000    0.000    0.000    0.000 
#
# Total GULP energy -200810.192668 kJ/mol
# GULP energy per Si atom -5578.060907 kJ/mol
# Density = 2.204195 g / cm^3
# Si number density = 22.092237 Si / 1000 Ang^3
#
#
#
# Elastic Constant Matrix: (Units=GPa)
#
#
# Indices 1 2 3 4 5 6 
#
# 1 152.8890 23.8991 3.0151 0.0000 0.0000 0.0000
# 2 23.8991 75.4184 -29.2271 0.0000 0.0000 0.0000
# 3 3.0151 -29.2271 65.5123 0.0000 0.0000 0.0000
# 4 0.0000 0.0000 0.0000 6.1613 0.0000 0.0000
# 5 0.0000 0.0000 0.0000 0.0000 35.0108 0.0000
# 6 0.0000 0.0000 0.0000 0.0000 0.0000 16.1960
#
#
#
# Elastic Compliance Matrix: (Units=1/GPa)
#
#
# Indices 1 2 3 4 5 6 
#
# 1 0.007016 -0.002839 -0.001590 0.000000 0.000000 0.000000
# 2 -0.002839 0.017180 0.007795 0.000000 0.000000 0.000000
# 3 -0.001590 0.007795 0.018815 0.000000 0.000000 0.000000
# 4 0.000000 0.000000 0.000000 0.162303 0.000000 0.000000
# 5 0.000000 0.000000 0.000000 0.000000 0.028563 0.000000
# 6 0.000000 0.000000 0.000000 0.000000 0.000000 0.061744
#
#
# Mechanical properties :
#
#
# Convention : Reuss Voigt Hill
#
# Bulk Modulus (GPa) = 20.10302 32.13265 26.11784
# Shear Modulus (GPa) = 16.36826 31.21578 23.79202
#
# Velocity S-wave (km/s) = 2.72491 3.76303 3.28524
# Velocity P-wave (km/s) = 4.36114 5.78420 5.12233
#
# Compressibility (1/GPa) = 0.04974376
#
# Stress axis : x y z
#
# Youngs Moduli (GPa) = 142.53410 58.20729 53.14867
#
# Poissons Ratio (x) = 0.16526 0.08448
# Poissons Ratio (y) = 0.40469 -0.41430
# Poissons Ratio (z) = 0.22657 -0.45374
#
# Static dielectric constant tensor:
#      x y z
#    x 1.852480 0.000000 0.000000 
#    y 0.000000 1.775100 0.000000 
#    z 0.000000 0.000000 1.856780 
# 
# From -- ./inp_files/13479.got.cif
#   From: 2010.05.17/outbox.cif.g08.bks.cpg/sg74_7_cif.got.tgz:13479.got - 2010.06.03 17:57:02.
