data_PCOD9534104
_publ_section_title
;
Structure prediction by ZEFSAII (Michael W. Deem and Ramdas Pophale) SiO2 
 PCOD9534104
Probable space group: I M M A
;
_chemical_formula_sum "Si O2"
_cell_formula_units_Z 128
_cell_length_a 16.981917
_cell_length_b 18.884777
_cell_length_c 22.245075
_cell_angle_alpha 90.000000
_cell_angle_beta 90.000000
_cell_angle_gamma 90.000000
_cell_volume 7133.989226
_symmetry_space_group_name_H-M "I M M A"
_symmetry_group_IT_number 74
_symmetry_cell_setting 'orthorhombic'
loop_
_space_group_symop_operation_xyz
x,y,z
-x,1/2-y,z
x,-y,-z
-x,1/2+y,-z
-x,-y,-z
x,1/2+y,-z
-x,y,z
x,1/2-y,z
1/2+x,1/2+y,1/2+z
1/2-x,-y,1/2+z
1/2+x,1/2-y,1/2-z
1/2-x,y,1/2-z
1/2-x,1/2-y,1/2-z
1/2+x,y,1/2-z
1/2-x,1/2+y,1/2+z
1/2+x,-y,1/2+z
loop_
_atom_site_type_symbol
_atom_site_label
_atom_site_fract_x
_atom_site_fract_y
_atom_site_fract_z
Si Si1 0.245496 0.617464 0.569879
Si Si2 0.811222 0.327157 0.553740
Si Si3 0.911340 0.335845 0.026443
Si Si4 0.590086 0.532864 0.782216
Si Si5 0.823870 0.475409 0.607101
Si Si6 0.808569 0.570871 0.200855
Si Si7 0.683930 0.169639 0.198528
Si Si8 0.634024 0.829297 0.393842
O O1 0.207156 0.663437 0.516639
O O2 0.339528 0.624419 0.559212
O O3 0.208641 0.538661 0.565470
O O4 0.222139 0.646146 0.635254
O O5 0.849240 0.250000 0.564915
O O6 0.847192 0.401071 0.576791
O O7 0.726095 0.325440 0.586683
O O8 0.897853 0.250000 0.030201
O O9 0.000000 0.350302 0.048562
O O10 0.906746 0.354588 0.955343
O O11 0.500000 0.524525 0.765964
O O12 0.608009 0.502841 0.848922
O O13 0.644929 0.489415 0.736449
O O14 0.617093 0.613926 0.784408
O O15 0.749447 0.461877 0.651266
O O16 0.750000 0.606932 0.250000
O O17 0.866914 0.622085 0.164708
O O18 0.655574 0.250000 0.193971
O O19 0.750000 0.165866 0.250000
O O20 0.605861 0.750000 0.380867
#
# Coordination Sequence:
#
# PCOD9534104 Si02
#       8
#    16  16  16  16  16  16  16  16
#     4  10  17  30  52  76  98 127 169 207 242 289
#     4   9  16  28  50  76  97 123 162 204 244 287
#     4   9  17  29  46  72 108 141 163 193 245 305
#     4  10  20  34  51  71  98 131 164 202 250 299
#     4   9  18  32  51  73  99 129 162 206 251 290
#     4   9  17  31  49  69  96 132 171 208 245 285
#     4  10  20  35  55  76  99 128 163 205 248 291
#     4   8  15  27  45  71 100 130 165 204 242 280
#
# _framework density 17.942274999999999
#
# number of rings (size 3 to 8) (size 9 to 14) (size 15 to 20)
#    0.000    2.750    0.000    4.125    0.000    1.000 
#    0.000    4.375    0.000   17.625    0.000    0.000 
#    0.000    0.000    0.000    0.000    0.000    0.000 
#
# Total GULP energy -356374.105041 kJ/mol
# GULP energy per Si atom -5568.345391 kJ/mol
# Density = 1.790144 g / cm^3
# Si number density = 17.942275 Si / 1000 Ang^3
#
#
#
# Elastic Constant Matrix: (Units=GPa)
#
#
# Indices 1 2 3 4 5 6 
#
# 1 31.2051 9.3600 9.4112 0.0000 0.0000 0.0000
# 2 9.3600 103.6689 40.5764 0.0000 0.0000 0.0000
# 3 9.4112 40.5764 70.4398 0.0000 0.0000 0.0000
# 4 0.0000 0.0000 0.0000 24.5464 0.0000 0.0000
# 5 0.0000 0.0000 0.0000 0.0000 11.6845 0.0000
# 6 0.0000 0.0000 0.0000 0.0000 0.0000 -1.6913
#
#
#
# Elastic Compliance Matrix: (Units=1/GPa)
#
#
# Indices 1 2 3 4 5 6 
#
# 1 0.033608 -0.001649 -0.003541 0.000000 0.000000 0.000000
# 2 -0.001649 0.012535 -0.007000 0.000000 0.000000 0.000000
# 3 -0.003541 -0.007000 0.018702 0.000000 0.000000 0.000000
# 4 0.000000 0.000000 0.000000 0.040739 0.000000 0.000000
# 5 0.000000 0.000000 0.000000 0.000000 0.085583 0.000000
# 6 0.000000 0.000000 0.000000 0.000000 0.000000 -0.591266
#
#
# Mechanical properties :
#
#
# Convention : Reuss Voigt Hill
#
# Bulk Modulus (GPa) = 24.71200 36.00100 30.35650
# Shear Modulus (GPa) = -13.80338 16.63901 1.41781
#
# Velocity S-wave (km/s) = -2.77667 3.04857 0.88990
# Velocity P-wave (km/s) = 1.87698 5.70089 4.24401
#
# Compressibility (1/GPa) = 0.04046617
#
# Stress axis : x y z
#
# Youngs Moduli (GPa) = 29.75444 79.77711 53.46994
#
# Poissons Ratio (x) = 0.13152 0.18932
# Poissons Ratio (y) = 0.04905 0.37431
# Poissons Ratio (z) = 0.10535 0.55847
#
# Static dielectric constant tensor:
#      x y z
#    x 1.592860 0.000000 0.000000 
#    y 0.000000 1.660150 0.000000 
#    z 0.000000 0.000000 1.624740 
# 
# From -- ./inp_files/61157.got.cif
#   From: 2010.05.17/outbox.cif.g08.bks.cpg/sg74_31_cif.got.tgz:61157.got - 2010.06.03 17:57:02.
