data_PCOD9534619
_publ_section_title
;
Structure prediction by ZEFSAII (Michael W. Deem and Ramdas Pophale) SiO2 
 PCOD9534619
Probable space group: I M M A
;
_chemical_formula_sum "Si O2"
_cell_formula_units_Z 96
_cell_length_a 10.370800
_cell_length_b 29.579657
_cell_length_c 19.197792
_cell_angle_alpha 90.000000
_cell_angle_beta 90.000000
_cell_angle_gamma 90.000000
_cell_volume 5889.205034
_symmetry_space_group_name_H-M "I M M A"
_symmetry_group_IT_number 74
_symmetry_cell_setting 'orthorhombic'
loop_
_space_group_symop_operation_xyz
x,y,z
-x,1/2-y,z
x,-y,-z
-x,1/2+y,-z
-x,-y,-z
x,1/2+y,-z
-x,y,z
x,1/2-y,z
1/2+x,1/2+y,1/2+z
1/2-x,-y,1/2+z
1/2+x,1/2-y,1/2-z
1/2-x,y,1/2-z
1/2-x,1/2-y,1/2-z
1/2+x,y,1/2-z
1/2-x,1/2+y,1/2+z
1/2+x,-y,1/2+z
loop_
_atom_site_type_symbol
_atom_site_label
_atom_site_fract_x
_atom_site_fract_y
_atom_site_fract_z
Si Si1 0.500000 0.805095 0.676213
Si Si2 0.843948 0.956033 0.959265
Si Si3 0.844395 0.135305 0.963768
Si Si4 0.742773 0.304406 0.417386
Si Si5 0.650250 0.508075 0.688596
Si Si6 0.349150 0.400597 0.687250
Si Si7 0.000000 0.805146 0.663058
O O1 0.500000 0.750000 0.677985
O O2 0.375175 0.819288 0.632398
O O3 0.500000 0.820485 0.756404
O O4 0.000000 0.956733 0.964453
O O5 0.814350 0.962391 0.878436
O O6 0.802833 0.909999 0.995312
O O7 0.794943 0.000000 0.000000
O O8 0.816845 0.127500 0.882332
O O9 0.000000 0.140077 0.969646
O O10 0.778615 0.175618 0.006012
O O11 0.741117 0.250000 0.420525
O O12 0.873661 0.318905 0.379459
O O13 0.500000 0.516397 0.707180
O O14 0.750000 0.516457 0.750000
O O15 0.658506 0.454420 0.669877
O O16 0.500000 0.392091 0.705783
O O17 0.250000 0.391804 0.750000
O O18 0.000000 0.750000 0.665673
#
# Coordination Sequence:
#
# PCOD9534619 Si02
#       7
#     8  16  16  16  16  16   8
#     4   9  16  30  52  74  96 127 169 207 237 277
#     4   9  15  27  48  71  92 123 163 199 234 280
#     4  10  18  30  51  74  97 127 165 204 239 287
#     4  10  19  32  51  76 100 128 165 203 243 284
#     4   9  16  28  48  69  92 123 159 199 237 279
#     4   9  17  30  49  73  95 121 160 202 243 288
#     4   9  18  32  50  72 100 133 165 199 241 289
#
# _framework density 16.301012
#
# number of rings (size 3 to 8) (size 9 to 14) (size 15 to 20)
#    0.000    2.667    2.500    0.500    0.000    2.000 
#    1.500    1.667    1.833    1.000    0.000    0.000 
#    0.000    0.000    0.000    0.000    0.000    0.000 
#
# Total GULP energy -267386.210119 kJ/mol
# GULP energy per Si atom -5570.546044 kJ/mol
# Density = 1.626391 g / cm^3
# Si number density = 16.301012 Si / 1000 Ang^3
#
#
#
# Elastic Constant Matrix: (Units=GPa)
#
#
# Indices 1 2 3 4 5 6 
#
# 1 91.8259 19.1109 68.0775 0.0000 0.0000 0.0000
# 2 19.1109 23.6968 29.3643 0.0000 0.0000 0.0000
# 3 68.0775 29.3643 126.3757 -0.0001 0.0000 0.0000
# 4 0.0000 0.0000 -0.0001 28.4471 0.0000 0.0000
# 5 0.0000 0.0000 0.0000 0.0000 23.1552 0.0000
# 6 0.0000 0.0000 0.0000 0.0000 0.0000 6.9298
#
#
#
# Elastic Compliance Matrix: (Units=1/GPa)
#
#
# Indices 1 2 3 4 5 6 
#
# 1 0.018345 -0.003580 -0.009051 0.000000 0.000000 0.000000
# 2 -0.003580 0.059962 -0.012004 0.000000 0.000000 0.000000
# 3 -0.009051 -0.012004 0.015578 0.000000 0.000000 0.000000
# 4 0.000000 0.000000 0.000000 0.035153 0.000000 0.000000
# 5 0.000000 0.000000 0.000000 0.000000 0.043187 0.000000
# 6 0.000000 0.000000 0.000000 0.000000 0.000000 0.144303
#
#
# Mechanical properties :
#
#
# Convention : Reuss Voigt Hill
#
# Bulk Modulus (GPa) = 22.41363 52.77820 37.59592
# Shear Modulus (GPa) = 13.13479 20.06283 16.59881
#
# Velocity S-wave (km/s) = 2.84168 3.51204 3.19449
# Velocity P-wave (km/s) = 4.95445 6.99239 6.05970
#
# Compressibility (1/GPa) = 0.04461571
#
# Stress axis : x y z
#
# Youngs Moduli (GPa) = 54.51066 16.67723 64.19461
#
# Poissons Ratio (x) = 0.05970 0.58100
# Poissons Ratio (y) = 0.19513 0.77061
# Poissons Ratio (z) = 0.49335 0.20020
#
# Static dielectric constant tensor:
#      x y z
#    x 1.537820 0.000000 0.000000 
#    y 0.000000 1.559270 0.000000 
#    z 0.000000 0.000000 1.540140 
# 
# From -- ./inp_files/31140.got.cif
#   From: 2010.05.17/outbox.cif.g08.bks.cpg/sg74_16_cif.got.tgz:31140.got - 2010.06.03 17:57:02.
