data_PCOD9534435
_publ_section_title
;
Structure prediction by ZEFSAII (Michael W. Deem and Ramdas Pophale) SiO2 
 PCOD9534435
Probable space group: I M M A
;
_chemical_formula_sum "Si O2"
_cell_formula_units_Z 104
_cell_length_a 7.362471
_cell_length_b 27.038590
_cell_length_c 20.658867
_cell_angle_alpha 90.000000
_cell_angle_beta 90.000000
_cell_angle_gamma 90.000000
_cell_volume 4112.577899
_symmetry_space_group_name_H-M "I M M A"
_symmetry_group_IT_number 74
_symmetry_cell_setting 'orthorhombic'
loop_
_space_group_symop_operation_xyz
x,y,z
-x,1/2-y,z
x,-y,-z
-x,1/2+y,-z
-x,-y,-z
x,1/2+y,-z
-x,y,z
x,1/2-y,z
1/2+x,1/2+y,1/2+z
1/2-x,-y,1/2+z
1/2+x,1/2-y,1/2-z
1/2-x,y,1/2-z
1/2-x,1/2-y,1/2-z
1/2+x,y,1/2-z
1/2-x,1/2+y,1/2+z
1/2+x,-y,1/2+z
loop_
_atom_site_type_symbol
_atom_site_label
_atom_site_fract_x
_atom_site_fract_y
_atom_site_fract_z
Si Si1 0.786070 0.560919 0.653954
Si Si2 0.283154 0.667708 0.819789
Si Si3 0.217471 0.410968 0.495429
Si Si4 0.208260 0.960731 0.381655
Si Si5 0.778312 0.803641 0.536308
Si Si6 0.717155 0.250000 0.671975
Si Si7 0.215024 0.144462 0.826361
O O1 0.707670 0.611414 0.682832
O O2 0.761520 0.569880 0.577082
O O3 0.713952 0.505142 0.662048
O O4 0.000000 0.561587 0.672184
O O5 0.500000 0.665135 0.827272
O O6 0.250000 0.691594 0.750000
O O7 0.222551 0.691538 0.887605
O O8 0.292444 0.448369 0.548649
O O9 0.284178 0.354172 0.498131
O O10 0.000000 0.408379 0.506412
O O11 0.205899 0.906882 0.350117
O O12 0.000000 0.976850 0.393244
O O13 0.719229 0.750000 0.511108
O O14 0.000000 0.804335 0.534730
O O15 0.500000 0.250000 0.663590
O O16 0.750000 0.250000 0.750000
O O17 0.786130 0.302875 0.646568
O O18 0.250000 0.146429 0.750000
O O19 0.000000 0.142126 0.838195
#
# Coordination Sequence:
#
# PCOD9534435 Si02
#       7
#    16  16  16  16  16   8  16
#     4   8  15  28  46  66  93 127 161 194 230 275
#     4   9  17  29  45  66  91 123 159 194 233 278
#     4   8  14  26  45  68  92 123 161 196 230 273
#     4  10  18  29  48  75  98 120 154 196 237 279
#     4   8  14  26  44  66  94 123 152 192 239 278
#     4   8  16  32  52  66  82 116 152 180 217 266
#     4  10  20  35  52  70  94 123 155 191 232 280
#
# _framework density 25.288276
#
# number of rings (size 3 to 8) (size 9 to 14) (size 15 to 20)
#    0.000    3.231    0.000    2.769    0.000    3.385 
#    1.385    2.308    0.000    5.538    0.000    0.000 
#    0.000    0.000    0.000    0.000    0.000    0.000 
#
# Total GULP energy -290059.284893 kJ/mol
# GULP energy per Si atom -5578.063171 kJ/mol
# Density = 2.523072 g / cm^3
# Si number density = 25.288276 Si / 1000 Ang^3
#
#
#
# Elastic Constant Matrix: (Units=GPa)
#
#
# Indices 1 2 3 4 5 6 
#
# 1 97.5568 4.4926 -7.5334 0.0000 0.0000 0.0000
# 2 4.4926 179.9299 1.8760 0.0000 0.0000 0.0000
# 3 -7.5334 1.8760 36.6871 0.0000 0.0000 0.0000
# 4 0.0000 0.0000 0.0000 4.9992 0.0000 0.0000
# 5 0.0000 0.0000 0.0000 0.0000 1.0236 0.0000
# 6 0.0000 0.0000 0.0000 0.0000 0.0000 -22.9795
#
#
#
# Elastic Compliance Matrix: (Units=1/GPa)
#
#
# Indices 1 2 3 4 5 6 
#
# 1 0.010430 -0.000283 0.002156 0.000000 0.000000 0.000000
# 2 -0.000283 0.005568 -0.000343 0.000000 0.000000 0.000000
# 3 0.002156 -0.000343 0.027718 0.000000 0.000000 0.000000
# 4 0.000000 0.000000 0.000000 0.200032 -0.000001 0.000000
# 5 0.000000 0.000000 0.000000 -0.000001 0.976933 0.000000
# 6 0.000000 0.000000 0.000000 0.000000 0.000000 -0.043517
#
#
# Mechanical properties :
#
#
# Convention : Reuss Voigt Hill
#
# Bulk Modulus (GPa) = 21.37799 34.64935 28.01367
# Shear Modulus (GPa) = 4.20275 17.63124 10.91700
#
# Velocity S-wave (km/s) = 1.29056 2.64334 2.08000
# Velocity P-wave (km/s) = 3.26998 4.80081 4.10735
#
# Compressibility (1/GPa) = 0.04677708
#
# Stress axis : x y z
#
# Youngs Moduli (GPa) = 95.87759 179.58618 36.07782
#
# Poissons Ratio (x) = 0.05081 -0.07779
# Poissons Ratio (y) = 0.02712 0.01237
# Poissons Ratio (z) = -0.20673 0.06157
#
# Static dielectric constant tensor:
#      x y z
#    x 9.394880 0.000000 0.000000 
#    y 0.000000 2.056760 0.000000 
#    z 0.000000 0.000000 2.007270 
# 
# From -- ./inp_files/57604.got.cif
#   From: 2010.05.17/outbox.cif.g08.bks.cpg/sg74_29_cif.got.tgz:57604.got - 2010.06.03 17:57:02.
