data_PCOD9534734
_publ_section_title
;
Structure prediction by ZEFSAII (Michael W. Deem and Ramdas Pophale) SiO2 
 PCOD9534734
Probable space group: I M M A
;
_chemical_formula_sum "Si O2"
_cell_formula_units_Z 96
_cell_length_a 7.821100
_cell_length_b 20.744578
_cell_length_c 30.790511
_cell_angle_alpha 90.000000
_cell_angle_beta 90.000000
_cell_angle_gamma 90.000000
_cell_volume 4995.619358
_symmetry_space_group_name_H-M "I M M A"
_symmetry_group_IT_number 74
_symmetry_cell_setting 'orthorhombic'
loop_
_space_group_symop_operation_xyz
x,y,z
-x,1/2-y,z
x,-y,-z
-x,1/2+y,-z
-x,-y,-z
x,1/2+y,-z
-x,y,z
x,1/2-y,z
1/2+x,1/2+y,1/2+z
1/2-x,-y,1/2+z
1/2+x,1/2-y,1/2-z
1/2-x,y,1/2-z
1/2-x,1/2-y,1/2-z
1/2+x,y,1/2-z
1/2-x,1/2+y,1/2+z
1/2+x,-y,1/2+z
loop_
_atom_site_type_symbol
_atom_site_label
_atom_site_fract_x
_atom_site_fract_y
_atom_site_fract_z
Si Si1 0.791204 0.321935 0.981996
Si Si2 0.706591 0.959051 0.199445
Si Si3 0.705778 0.318766 0.801310
Si Si4 0.298158 0.048014 0.125137
Si Si5 0.704400 0.820317 0.582390
Si Si6 0.706589 0.038903 0.543002
O O1 0.735832 0.250000 0.967604
O O2 0.733807 0.386641 0.957616
O O3 0.000000 0.321518 0.980931
O O4 0.737606 0.330344 0.032510
O O5 0.500000 0.957683 0.196837
O O6 0.750000 0.966750 0.250000
O O7 0.768903 0.888412 0.183020
O O8 0.774177 0.015476 0.168685
O O9 0.500000 0.318371 0.805565
O O10 0.770448 0.250000 0.819426
O O11 0.750000 0.318544 0.750000
O O12 0.500000 0.050897 0.130248
O O13 0.242925 0.119487 0.112460
O O14 0.257921 0.000649 0.085202
O O15 0.500000 0.817029 0.579559
O O16 0.768298 0.750000 0.597091
O O17 0.500000 0.039870 0.541185
O O18 0.765166 0.000000 0.500000
#
# Coordination Sequence:
#
# PCOD9534734 Si02
#       6
#    16  16  16  16  16  16
#     4   8  14  27  48  71  96 128 168 213 249 280
#     4   9  19  34  50  71  98 130 167 208 254 300
#     4   8  13  24  44  66  87 115 154 197 238 281
#     4  11  22  33  48  75 109 135 161 204 259 308
#     4   9  17  32  54  76  97 127 170 211 245 292
#     4  10  18  31  51  73  98 132 174 209 243 293
#
# _framework density 19.216836000000001
#
# number of rings (size 3 to 8) (size 9 to 14) (size 15 to 20)
#    0.000    2.833    1.667    1.500    0.000    2.000 
#    0.000    0.833    0.000    2.000    0.000    4.667 
#    0.000    0.000    0.000    0.000    0.000    0.000 
#
# Total GULP energy -267388.817904 kJ/mol
# GULP energy per Si atom -5570.600373 kJ/mol
# Density = 1.917310 g / cm^3
# Si number density = 19.216836 Si / 1000 Ang^3
#
#
#
# Elastic Constant Matrix: (Units=GPa)
#
#
# Indices 1 2 3 4 5 6 
#
# 1 19.2201 5.2637 -6.9954 0.0000 0.0000 0.0000
# 2 5.2637 193.2245 47.1499 0.0000 0.0000 0.0000
# 3 -6.9954 47.1499 40.3249 0.0000 0.0000 0.0000
# 4 0.0000 0.0000 0.0000 30.5026 0.0000 0.0000
# 5 0.0000 0.0000 0.0000 0.0000 12.2163 0.0000
# 6 0.0000 0.0000 0.0000 0.0000 0.0000 15.4785
#
#
#
# Elastic Compliance Matrix: (Units=1/GPa)
#
#
# Indices 1 2 3 4 5 6 
#
# 1 0.059888 -0.005830 0.017206 0.000000 0.000000 0.000000
# 2 -0.005830 0.007809 -0.010142 0.000000 0.000000 0.000000
# 3 0.017206 -0.010142 0.039642 0.000000 0.000000 0.000000
# 4 0.000000 0.000000 0.000000 0.032784 0.000000 0.000000
# 5 0.000000 0.000000 0.000000 0.000000 0.081858 0.000000
# 6 0.000000 0.000000 0.000000 0.000000 0.000000 0.064606
#
#
# Mechanical properties :
#
#
# Convention : Reuss Voigt Hill
#
# Bulk Modulus (GPa) = 9.10698 38.17843 23.64271
# Shear Modulus (GPa) = 15.58991 25.46290 20.52640
#
# Velocity S-wave (km/s) = 2.85136 3.64405 3.27180
# Velocity P-wave (km/s) = 3.94838 6.13317 5.15778
#
# Compressibility (1/GPa) = 0.10980588
#
# Stress axis : x y z
#
# Youngs Moduli (GPa) = 16.69794 128.05847 25.22591
#
# Poissons Ratio (x) = 0.74656 -0.43403
# Poissons Ratio (y) = 0.09735 0.25584
# Poissons Ratio (z) = -0.28730 1.29876
#
# Static dielectric constant tensor:
#      x y z
#    x 1.726480 0.000000 0.000000 
#    y 0.000000 1.829020 0.000000 
#    z 0.000000 0.000000 1.686310 
# 
# From -- ./inp_files/64280.got.cif
#   From: 2010.05.17/outbox.cif.g08.bks.cpg/sg74_33_cif.got.tgz:64280.got - 2010.06.03 17:57:02.
