data_PCOD9534425
_publ_section_title
;
Structure prediction by ZEFSAII (Michael W. Deem and Ramdas Pophale) SiO2 
 PCOD9534425
Probable space group: I M M A
;
_chemical_formula_sum "Si O2"
_cell_formula_units_Z 80
_cell_length_a 18.040573
_cell_length_b 15.235349
_cell_length_c 14.709112
_cell_angle_alpha 90.000000
_cell_angle_beta 90.000000
_cell_angle_gamma 90.000000
_cell_volume 4042.864533
_symmetry_space_group_name_H-M "I M M A"
_symmetry_group_IT_number 74
_symmetry_cell_setting 'orthorhombic'
loop_
_space_group_symop_operation_xyz
x,y,z
-x,1/2-y,z
x,-y,-z
-x,1/2+y,-z
-x,-y,-z
x,1/2+y,-z
-x,y,z
x,1/2-y,z
1/2+x,1/2+y,1/2+z
1/2-x,-y,1/2+z
1/2+x,1/2-y,1/2-z
1/2-x,y,1/2-z
1/2-x,1/2-y,1/2-z
1/2+x,y,1/2-z
1/2-x,1/2+y,1/2+z
1/2+x,-y,1/2+z
loop_
_atom_site_type_symbol
_atom_site_label
_atom_site_fract_x
_atom_site_fract_y
_atom_site_fract_z
Si Si1 0.224902 0.964130 0.356858
Si Si2 0.414825 0.647282 0.186990
Si Si3 0.920383 0.883812 0.910930
Si Si4 0.115703 0.910880 0.108968
Si Si5 0.243250 0.842736 0.858477
O O1 0.250000 0.967421 0.250000
O O2 0.147802 0.912864 0.359555
O O3 0.295007 0.915904 0.402347
O O4 0.222139 0.064890 0.390553
O O5 0.500000 0.624741 0.163884
O O6 0.402313 0.750000 0.167288
O O7 0.404755 0.632784 0.295869
O O8 0.844636 0.845529 0.874559
O O9 0.000000 0.854624 0.874558
O O10 0.912196 0.988262 0.891583
O O11 0.917779 0.868957 0.019146
O O12 0.273497 0.750000 0.895246
O O13 0.250000 0.842055 0.750000
#
# Coordination Sequence:
#
# PCOD9534425 Si02
#       5
#    16  16  16  16  16
#     4   8  16  30  47  66  93 131 166 196 234 283
#     4  10  19  30  47  72 100 129 162 201 243 287
#     4  10  18  29  48  73 101 132 164 198 238 285
#     4   9  17  29  45  69 103 138 165 191 232 288
#     4   9  18  32  47  64  89 124 167 207 240 281
#
# _framework density 19.787949999999999
#
# number of rings (size 3 to 8) (size 9 to 14) (size 15 to 20)
#    0.000    2.800    0.000    3.600    0.000    4.800 
#    0.000    0.000    0.000    1.800    0.000   12.600 
#    0.000    0.000    0.000    0.000    0.000    0.000 
#
# Total GULP energy -223010.183527 kJ/mol
# GULP energy per Si atom -5575.254588 kJ/mol
# Density = 1.974291 g / cm^3
# Si number density = 19.787950 Si / 1000 Ang^3
#
#
#
# Elastic Constant Matrix: (Units=GPa)
#
#
# Indices 1 2 3 4 5 6 
#
# 1 170.4520 84.8316 23.7994 0.0000 0.0000 0.0000
# 2 84.8316 106.9566 1.2397 0.0000 0.0000 0.0000
# 3 23.7994 1.2397 23.1211 0.0000 0.0000 0.0000
# 4 0.0000 0.0000 0.0000 461.1842 0.0000 0.0000
# 5 0.0000 0.0000 0.0000 0.0000 22.7095 0.0000
# 6 0.0000 0.0000 0.0000 0.0000 0.0000 7.6928
#
#
#
# Elastic Compliance Matrix: (Units=1/GPa)
#
#
# Indices 1 2 3 4 5 6 
#
# 1 0.012401 -0.009694 -0.012245 0.000000 0.000000 0.000000
# 2 -0.009694 0.016933 0.009070 0.000000 0.000000 0.000000
# 3 -0.012245 0.009070 0.055368 0.000000 0.000000 0.000000
# 4 0.000000 0.000000 0.000000 0.002168 0.000000 0.000000
# 5 0.000000 0.000000 0.000000 0.000000 0.044034 0.000000
# 6 0.000000 0.000000 0.000000 0.000000 0.000000 0.129992
#
#
# Mechanical properties :
#
#
# Convention : Reuss Voigt Hill
#
# Bulk Modulus (GPa) = 16.95910 57.80790 37.38350
# Shear Modulus (GPa) = 16.32448 111.02791 63.67619
#
# Velocity S-wave (km/s) = 2.87535 7.49871 5.67883
# Velocity P-wave (km/s) = 4.42860 10.21035 7.86968
#
# Compressibility (1/GPa) = 0.05896539
#
# Stress axis : x y z
#
# Youngs Moduli (GPa) = 80.63938 59.05646 18.06082
#
# Poissons Ratio (x) = 0.57248 0.22115
# Poissons Ratio (y) = 0.78170 -0.16382
# Poissons Ratio (z) = 0.98743 -0.53566
#
# Static dielectric constant tensor:
#      x y z
#    x 1.709070 0.000000 0.000000 
#    y 0.000000 1.753200 0.000000 
#    z 0.000000 0.000000 1.697240 
# 
# From -- ./inp_files/42691.got.cif
#   From: 2010.05.17/outbox.cif.g08.bks.cpg/sg74_22_cif.got.tgz:42691.got - 2010.06.03 17:57:02.
