data_PCOD9534372
_publ_section_title
;
Structure prediction by ZEFSAII (Michael W. Deem and Ramdas Pophale) SiO2 
 PCOD9534372
Probable space group: I M M A
;
_chemical_formula_sum "Si O2"
_cell_formula_units_Z 80
_cell_length_a 35.794023
_cell_length_b 10.443108
_cell_length_c 14.505390
_cell_angle_alpha 90.000000
_cell_angle_beta 90.000000
_cell_angle_gamma 90.000000
_cell_volume 5422.127082
_symmetry_space_group_name_H-M "I M M A"
_symmetry_group_IT_number 74
_symmetry_cell_setting 'orthorhombic'
loop_
_space_group_symop_operation_xyz
x,y,z
-x,1/2-y,z
x,-y,-z
-x,1/2+y,-z
-x,-y,-z
x,1/2+y,-z
-x,y,z
x,1/2-y,z
1/2+x,1/2+y,1/2+z
1/2-x,-y,1/2+z
1/2+x,1/2-y,1/2-z
1/2-x,y,1/2-z
1/2-x,1/2-y,1/2-z
1/2+x,y,1/2-z
1/2-x,1/2+y,1/2+z
1/2+x,-y,1/2+z
loop_
_atom_site_type_symbol
_atom_site_label
_atom_site_fract_x
_atom_site_fract_y
_atom_site_fract_z
Si Si1 0.457636 0.250000 0.890615
Si Si2 0.315057 0.899443 0.419816
Si Si3 0.042908 0.250000 0.386206
Si Si4 0.726330 0.897470 0.078367
Si Si5 0.839851 0.401288 0.715953
Si Si6 0.090060 0.000505 0.611347
O O1 0.500000 0.250000 0.855689
O O2 0.435122 0.376513 0.864882
O O3 0.459476 0.250000 0.002187
O O4 0.321982 0.750000 0.445197
O O5 0.270387 0.910124 0.401570
O O6 0.335876 0.927770 0.324164
O O7 0.324416 0.000000 0.500000
O O8 0.066577 0.124588 0.361921
O O9 0.000000 0.250000 0.352168
O O10 0.720017 0.750000 0.047415
O O11 0.700034 0.919379 0.166095
O O12 0.716590 0.000000 0.000000
O O13 0.849213 0.250000 0.704842
O O14 0.870986 0.483643 0.663944
O O15 0.096158 0.000000 0.500000
#
# Coordination Sequence:
#
# PCOD9534372 Si02
#       6
#     8  16   8  16  16  16
#     4   9  16  28  46  64  88 125 157 177 208 262
#     4   9  18  33  50  65  86 118 159 198 230 268
#     4   9  18  30  44  64  94 127 153 177 216 264
#     4   9  17  30  47  67  91 123 156 186 224 269
#     4  10  18  30  47  67  92 122 155 189 228 270
#     4  10  18  29  44  67  96 124 152 185 218 264
#
# _framework density 14.754357000000001
#
# number of rings (size 3 to 8) (size 9 to 14) (size 15 to 20)
#    0.000    2.600    1.000    1.800    0.000    4.800 
#    3.600    0.000    0.000    4.800    0.000    0.000 
#    0.000    4.800    0.000    0.000    0.000    0.000 
#
# Total GULP energy -222826.709478 kJ/mol
# GULP energy per Si atom -5570.667737 kJ/mol
# Density = 1.472078 g / cm^3
# Si number density = 14.754357 Si / 1000 Ang^3
#
#
#
# Elastic Constant Matrix: (Units=GPa)
#
#
# Indices 1 2 3 4 5 6 
#
# 1 55.9828 42.0703 38.2273 0.0000 0.0000 0.0000
# 2 42.0703 102.0822 48.5908 0.0000 0.0000 0.0000
# 3 38.2273 48.5908 68.6730 0.0000 0.0000 0.0000
# 4 0.0000 0.0000 0.0000 18.3886 0.0000 0.0000
# 5 0.0000 0.0000 0.0000 0.0000 10.6828 0.0000
# 6 0.0000 0.0000 0.0000 0.0000 0.0000 17.8946
#
#
#
# Elastic Compliance Matrix: (Units=1/GPa)
#
#
# Indices 1 2 3 4 5 6 
#
# 1 0.031877 -0.007073 -0.012740 0.000000 0.000000 0.000000
# 2 -0.007073 0.016340 -0.007625 0.000000 0.000000 0.000000
# 3 -0.012740 -0.007625 0.027048 0.000000 0.000000 0.000000
# 4 0.000000 0.000000 0.000000 0.054382 0.000000 0.000000
# 5 0.000000 0.000000 0.000000 0.000000 0.093609 0.000000
# 6 0.000000 0.000000 0.000000 0.000000 0.000000 0.055883
#
#
# Mechanical properties :
#
#
# Convention : Reuss Voigt Hill
#
# Bulk Modulus (GPa) = 49.04198 53.83498 51.43848
# Shear Modulus (GPa) = 14.67086 15.91650 15.29368
#
# Velocity S-wave (km/s) = 3.15674 3.28802 3.22305
# Velocity P-wave (km/s) = 6.82626 7.14013 6.98496
#
# Compressibility (1/GPa) = 0.02039069
#
# Stress axis : x y z
#
# Youngs Moduli (GPa) = 31.37017 61.19850 36.97064
#
# Poissons Ratio (x) = 0.43287 0.47101
# Poissons Ratio (y) = 0.22189 0.28188
# Poissons Ratio (z) = 0.39966 0.46661
#
# Static dielectric constant tensor:
#      x y z
#    x 1.486130 0.000000 0.000000 
#    y 0.000000 1.496480 0.000000 
#    z 0.000000 0.000000 1.456130 
# 
# From -- ./inp_files/19023.got.cif
#   From: 2010.05.17/outbox.cif.g08.bks.cpg/sg74_10_cif.got.tgz:19023.got - 2010.06.03 17:57:02.
