data_PCOD9534544
_publ_section_title
;
Structure prediction by ZEFSAII (Michael W. Deem and Ramdas Pophale) SiO2 
 PCOD9534544
Probable space group: I M M A
;
_chemical_formula_sum "Si O2"
_cell_formula_units_Z 96
_cell_length_a 27.010331
_cell_length_b 15.181658
_cell_length_c 12.323894
_cell_angle_alpha 90.000000
_cell_angle_beta 90.000000
_cell_angle_gamma 90.000000
_cell_volume 5053.555787
_symmetry_space_group_name_H-M "I M M A"
_symmetry_group_IT_number 74
_symmetry_cell_setting 'orthorhombic'
loop_
_space_group_symop_operation_xyz
x,y,z
-x,1/2-y,z
x,-y,-z
-x,1/2+y,-z
-x,-y,-z
x,1/2+y,-z
-x,y,z
x,1/2-y,z
1/2+x,1/2+y,1/2+z
1/2-x,-y,1/2+z
1/2+x,1/2-y,1/2-z
1/2-x,y,1/2-z
1/2-x,1/2-y,1/2-z
1/2+x,y,1/2-z
1/2-x,1/2+y,1/2+z
1/2+x,-y,1/2+z
loop_
_atom_site_type_symbol
_atom_site_label
_atom_site_fract_x
_atom_site_fract_y
_atom_site_fract_z
Si Si1 0.719021 0.646392 0.402783
Si Si2 0.138484 0.353532 0.741798
Si Si3 0.324268 0.097651 0.981336
Si Si4 0.695024 0.646261 0.774908
Si Si5 0.443409 0.641614 0.408697
Si Si6 0.132932 0.146615 0.083220
O O1 0.733285 0.750000 0.388241
O O2 0.688592 0.611805 0.299406
O O3 0.768574 0.596786 0.433768
O O4 0.679659 0.642292 0.501068
O O5 0.140568 0.250000 0.768339
O O6 0.142159 0.362250 0.613327
O O7 0.090074 0.386305 0.805387
O O8 0.319322 0.140590 0.099426
O O9 0.342600 0.000000 0.000000
O O10 0.698075 0.750000 0.745898
O O11 0.750000 0.609528 0.750000
O O12 0.652964 0.607243 0.695615
O O13 0.500000 0.612335 0.404175
O O14 0.443898 0.750000 0.409988
O O15 0.413748 0.611086 0.516238
O O16 0.121296 0.250000 0.101188
#
# Coordination Sequence:
#
# PCOD9534544 Si02
#       6
#    16  16  16  16  16  16
#     4   9  16  31  50  66  90 126 165 199 232 286
#     4   9  18  32  51  71  94 127 165 200 241 293
#     4  12  23  30  41  65 102 133 166 199 238 277
#     4  10  18  30  48  65  91 132 169 193 225 290
#     4   8  14  27  52  82 101 112 143 206 264 288
#     4   8  14  26  47  73  95 120 153 188 234 290
#
# _framework density 18.996525999999999
#
# number of rings (size 3 to 8) (size 9 to 14) (size 15 to 20)
#    0.000    2.667    1.667    4.000    0.000    2.667 
#    0.000    0.000    0.000    1.500    0.000    5.833 
#    0.000    0.000    0.000    0.000    0.000    0.000 
#
# Total GULP energy -267523.365088 kJ/mol
# GULP energy per Si atom -5573.403439 kJ/mol
# Density = 1.895329 g / cm^3
# Si number density = 18.996526 Si / 1000 Ang^3
#
#
#
# Elastic Constant Matrix: (Units=GPa)
#
#
# Indices 1 2 3 4 5 6 
#
# 1 113.0663 2.5217 69.0309 0.0000 0.0000 0.0000
# 2 2.5217 12.8743 -4.0757 0.0000 0.0000 0.0000
# 3 69.0309 -4.0757 148.7534 0.0000 0.0000 0.0000
# 4 0.0000 0.0000 0.0000 -28.1386 0.0000 0.0000
# 5 0.0000 0.0000 0.0000 0.0000 10.2333 0.0000
# 6 0.0000 0.0000 0.0000 0.0000 0.0000 -78.5016
#
#
#
# Elastic Compliance Matrix: (Units=1/GPa)
#
#
# Indices 1 2 3 4 5 6 
#
# 1 0.012578 -0.004349 -0.005956 0.000000 0.000000 0.000000
# 2 -0.004349 0.079857 0.004206 0.000000 0.000000 0.000000
# 3 -0.005956 0.004206 0.009602 0.000000 0.000000 0.000000
# 4 0.000000 0.000000 0.000000 -0.035538 0.000000 0.000000
# 5 0.000000 0.000000 0.000000 0.000000 0.097721 0.000000
# 6 0.000000 0.000000 0.000000 0.000000 0.000000 -0.012739
#
#
# Mechanical properties :
#
#
# Convention : Reuss Voigt Hill
#
# Bulk Modulus (GPa) = 11.13100 45.51641 28.32371
# Shear Modulus (GPa) = 25.82320 -5.46691 10.17814
#
# Velocity S-wave (km/s) = 3.69096 -1.69826 2.31722
# Velocity P-wave (km/s) = 4.90269 4.49076 4.70124
#
# Compressibility (1/GPa) = 0.08983915
#
# Stress axis : x y z
#
# Youngs Moduli (GPa) = 79.50572 12.52233 104.14776
#
# Poissons Ratio (x) = 0.05446 0.62030
# Poissons Ratio (y) = 0.34578 -0.43807
# Poissons Ratio (z) = 0.47354 -0.05267
#
# Static dielectric constant tensor:
#      x y z
#    x 1.646950 0.000000 0.000000 
#    y 0.000000 1.694620 0.000000 
#    z 0.000000 0.000000 1.727420 
# 
# From -- ./inp_files/26257.got.cif
#   From: 2010.05.17/outbox.cif.g08.bks.cpg/sg74_14_cif.got.tgz:26257.got - 2010.06.03 17:57:02.
