data_PCOD9534003
_publ_section_title
;
Structure prediction by ZEFSAII (Michael W. Deem and Ramdas Pophale) SiO2 
 PCOD9534003
Probable space group: I M M A
;
_chemical_formula_sum "Si O2"
_cell_formula_units_Z 80
_cell_length_a 8.683156
_cell_length_b 24.482174
_cell_length_c 26.874888
_cell_angle_alpha 90.000000
_cell_angle_beta 90.000000
_cell_angle_gamma 90.000000
_cell_volume 5713.131847
_symmetry_space_group_name_H-M "I M M A"
_symmetry_group_IT_number 74
_symmetry_cell_setting 'orthorhombic'
loop_
_space_group_symop_operation_xyz
x,y,z
-x,1/2-y,z
x,-y,-z
-x,1/2+y,-z
-x,-y,-z
x,1/2+y,-z
-x,y,z
x,1/2-y,z
1/2+x,1/2+y,1/2+z
1/2-x,-y,1/2+z
1/2+x,1/2-y,1/2-z
1/2-x,y,1/2-z
1/2-x,1/2-y,1/2-z
1/2+x,y,1/2-z
1/2-x,1/2+y,1/2+z
1/2+x,-y,1/2+z
loop_
_atom_site_type_symbol
_atom_site_label
_atom_site_fract_x
_atom_site_fract_y
_atom_site_fract_z
Si Si1 0.821412 0.537360 0.950031
Si Si2 0.187083 0.250000 0.647025
Si Si3 0.683880 0.130153 0.989940
Si Si4 0.814749 0.134953 0.695032
Si Si5 0.685554 0.566445 0.394434
Si Si6 0.187327 0.750000 0.468378
O O1 0.765708 0.495809 0.907453
O O2 0.000000 0.551057 0.941183
O O3 0.815796 0.500000 0.000000
O O4 0.731032 0.591845 0.964070
O O5 0.235690 0.305237 0.674733
O O6 0.237441 0.250000 0.589491
O O7 0.000000 0.250000 0.646455
O O8 0.500000 0.128629 0.983961
O O9 0.756704 0.104233 0.940018
O O10 0.735207 0.193117 0.993269
O O11 0.750000 0.126508 0.750000
O O12 0.752732 0.090604 0.656047
O O13 0.000000 0.133774 0.695567
O O14 0.500000 0.567440 0.393975
O O15 0.000000 0.750000 0.468047
#
# Coordination Sequence:
#
# PCOD9534003 Si02
#       6
#    16   8  16  16  16   8
#     4   8  16  29  42  58  82 105 130 169 211 250
#     4   9  17  31  45  57  80 110 142 181 219 247
#     4  10  17  27  44  62  82 108 139 171 207 251
#     4  11  21  33  47  61  80 107 142 182 219 256
#     4  10  19  31  44  59  81 107 136 174 216 252
#     4   9  16  27  41  61  86 111 138 176 214 241
#
# _framework density 14.002827
#
# number of rings (size 3 to 8) (size 9 to 14) (size 15 to 20)
#    0.000    2.400    2.000    3.300    0.000    4.400 
#    0.000    4.500    0.000    0.000    0.000    0.000 
#    0.000    0.000    0.000    0.900    0.000   11.600 
#
# Total GULP energy -222881.061996 kJ/mol
# GULP energy per Si atom -5572.026550 kJ/mol
# Density = 1.397096 g / cm^3
# Si number density = 14.002827 Si / 1000 Ang^3
#
#
#
# Elastic Constant Matrix: (Units=GPa)
#
#
# Indices 1 2 3 4 5 6 
#
# 1 37.9522 35.5889 23.2584 0.0000 0.0000 0.0000
# 2 35.5889 126.7298 67.3662 0.0000 0.0000 0.0000
# 3 23.2584 67.3662 72.2024 0.0000 0.0000 0.0000
# 4 0.0000 0.0000 0.0000 16.0305 0.0000 0.0000
# 5 0.0000 0.0000 0.0000 0.0000 19.3170 0.0000
# 6 0.0000 0.0000 0.0000 0.0000 0.0000 48.7501
#
#
#
# Elastic Compliance Matrix: (Units=1/GPa)
#
#
# Indices 1 2 3 4 5 6 
#
# 1 0.036443 -0.007924 -0.004346 0.000000 0.000000 0.000000
# 2 -0.007924 0.017378 -0.013662 0.000000 0.000000 0.000000
# 3 -0.004346 -0.013662 0.027997 0.000000 0.000000 0.000000
# 4 0.000000 0.000000 0.000000 0.062381 0.000000 0.000000
# 5 0.000000 0.000000 0.000000 0.000000 0.051768 0.000000
# 6 0.000000 0.000000 0.000000 0.000000 0.000000 0.020513
#
#
# Mechanical properties :
#
#
# Convention : Reuss Voigt Hill
#
# Bulk Modulus (GPa) = 33.38430 54.36793 43.87611
# Shear Modulus (GPa) = 17.96445 24.19759 21.08102
#
# Velocity S-wave (km/s) = 3.58567 4.16149 3.88427
# Velocity P-wave (km/s) = 6.40590 7.87409 7.17764
#
# Compressibility (1/GPa) = 0.02995420
#
# Stress axis : x y z
#
# Youngs Moduli (GPa) = 27.44034 57.54335 35.71849
#
# Poissons Ratio (x) = 0.45595 0.15524
# Poissons Ratio (y) = 0.21743 0.48798
# Poissons Ratio (z) = 0.11926 0.78614
#
# Static dielectric constant tensor:
#      x y z
#    x 1.475460 0.000000 0.000000 
#    y 0.000000 1.481830 0.000000 
#    z 0.000000 0.000000 1.437080 
# 
# From -- ./inp_files/64208.got.cif
#   From: 2010.05.17/outbox.cif.g08.bks.cpg/sg74_33_cif.got.tgz:64208.got - 2010.06.03 17:57:02.
