data_PCOD9534032
_publ_section_title
;
Structure prediction by ZEFSAII (Michael W. Deem and Ramdas Pophale) SiO2 
 PCOD9534032
Probable space group: I M M A
;
_chemical_formula_sum "Si O2"
_cell_formula_units_Z 96
_cell_length_a 9.193599
_cell_length_b 29.005607
_cell_length_c 27.254558
_cell_angle_alpha 90.000000
_cell_angle_beta 90.000000
_cell_angle_gamma 90.000000
_cell_volume 7267.861770
_symmetry_space_group_name_H-M "I M M A"
_symmetry_group_IT_number 74
_symmetry_cell_setting 'orthorhombic'
loop_
_space_group_symop_operation_xyz
x,y,z
-x,1/2-y,z
x,-y,-z
-x,1/2+y,-z
-x,-y,-z
x,1/2+y,-z
-x,y,z
x,1/2-y,z
1/2+x,1/2+y,1/2+z
1/2-x,-y,1/2+z
1/2+x,1/2-y,1/2-z
1/2-x,y,1/2-z
1/2-x,1/2-y,1/2-z
1/2+x,y,1/2-z
1/2-x,1/2+y,1/2+z
1/2+x,-y,1/2+z
loop_
_atom_site_type_symbol
_atom_site_label
_atom_site_fract_x
_atom_site_fract_y
_atom_site_fract_z
Si Si1 0.827108 0.802927 0.541280
Si Si2 0.173085 0.302090 0.146563
Si Si3 0.326786 0.048134 0.397464
Si Si4 0.825533 0.895214 0.800678
Si Si5 0.667422 0.969045 0.049701
Si Si6 0.327132 0.390570 0.494868
O O1 0.801354 0.750000 0.525440
O O2 0.760420 0.807097 0.595958
O O3 0.748818 0.841139 0.508490
O O4 0.000000 0.810944 0.542771
O O5 0.196725 0.250000 0.165359
O O6 0.213322 0.342914 0.183350
O O7 0.000000 0.307105 0.135630
O O8 0.500000 0.039154 0.397173
O O9 0.285371 0.072078 0.346424
O O10 0.300716 0.083936 0.442297
O O11 0.241651 0.001490 0.409854
O O12 0.750000 0.907673 0.750000
O O13 0.000000 0.897233 0.795291
O O14 0.500000 0.958575 0.061223
O O15 0.757355 0.923581 0.035852
O O16 0.669396 0.000000 0.000000
O O17 0.500000 0.386705 0.501096
#
# Coordination Sequence:
#
# PCOD9534032 Si02
#       6
#    16  16  16  16  16  16
#     4  10  19  28  40  60  83 105 132 168 206 241
#     4   9  17  31  46  56  71  99 134 170 211 257
#     4   9  17  30  43  57  78 102 130 163 201 246
#     4  10  20  32  43  59  77 101 134 171 212 252
#     4   9  17  27  41  63  83  99 123 157 199 240
#     4  10  17  28  45  61  79 105 132 160 197 241
#
# _framework density 13.208837000000001
#
# number of rings (size 3 to 8) (size 9 to 14) (size 15 to 20)
#    0.000    2.500    1.667    1.500    0.000    5.333 
#    0.000    0.000    0.000    0.000    0.000    0.000 
#    0.000    0.000    0.000    0.000    0.000    0.833 
#
# Total GULP energy -267520.881706 kJ/mol
# GULP energy per Si atom -5573.351702 kJ/mol
# Density = 1.317877 g / cm^3
# Si number density = 13.208837 Si / 1000 Ang^3
#
#
#
# Elastic Constant Matrix: (Units=GPa)
#
#
# Indices 1 2 3 4 5 6 
#
# 1 56.4630 54.2694 33.2895 0.0000 0.0000 0.0000
# 2 54.2694 86.1631 51.2448 0.0000 0.0000 0.0000
# 3 33.2895 51.2448 57.5806 0.0000 0.0000 0.0000
# 4 0.0000 0.0000 0.0000 16.9024 0.0000 0.0000
# 5 0.0000 0.0000 0.0000 0.0000 18.2461 0.0000
# 6 0.0000 0.0000 0.0000 0.0000 0.0000 22.5134
#
#
#
# Elastic Compliance Matrix: (Units=1/GPa)
#
#
# Indices 1 2 3 4 5 6 
#
# 1 0.044957 -0.027316 -0.001681 0.000000 0.000000 0.000000
# 2 -0.027316 0.041254 -0.020923 0.000000 0.000000 0.000000
# 3 -0.001681 -0.020923 0.036959 0.000000 0.000000 0.000000
# 4 0.000000 0.000000 0.000000 0.059163 0.000000 0.000000
# 5 0.000000 0.000000 0.000000 0.000000 0.054806 0.000000
# 6 0.000000 0.000000 0.000000 0.000000 0.000000 0.044418
#
#
# Mechanical properties :
#
#
# Convention : Reuss Voigt Hill
#
# Bulk Modulus (GPa) = 42.86089 53.09045 47.97567
# Shear Modulus (GPa) = 12.84777 15.62592 14.23685
#
# Velocity S-wave (km/s) = 3.12214 3.44319 3.28659
# Velocity P-wave (km/s) = 6.74656 7.48918 7.12755
#
# Compressibility (1/GPa) = 0.02333130
#
# Stress axis : x y z
#
# Youngs Moduli (GPa) = 22.24372 24.23987 27.05708
#
# Poissons Ratio (x) = 0.66214 0.04547
# Poissons Ratio (y) = 0.60761 0.56610
# Poissons Ratio (z) = 0.03738 0.50716
#
# Static dielectric constant tensor:
#      x y z
#    x 1.440660 0.000000 0.000000 
#    y 0.000000 1.439630 0.000000 
#    z 0.000000 0.000000 1.398450 
# 
# From -- ./inp_files/57500.got.cif
#   From: 2010.05.17/outbox.cif.g08.bks.cpg/sg74_29_cif.got.tgz:57500.got - 2010.06.03 17:57:02.
