data_PCOD9534748
_publ_section_title
;
Structure prediction by ZEFSAII (Michael W. Deem and Ramdas Pophale) SiO2 
 PCOD9534748
Probable space group: I M M A
;
_chemical_formula_sum "Si O2"
_cell_formula_units_Z 112
_cell_length_a 17.538184
_cell_length_b 16.560825
_cell_length_c 21.902372
_cell_angle_alpha 90.000000
_cell_angle_beta 90.000000
_cell_angle_gamma 90.000000
_cell_volume 6361.473773
_symmetry_space_group_name_H-M "I M M A"
_symmetry_group_IT_number 74
_symmetry_cell_setting 'orthorhombic'
loop_
_space_group_symop_operation_xyz
x,y,z
-x,1/2-y,z
x,-y,-z
-x,1/2+y,-z
-x,-y,-z
x,1/2+y,-z
-x,y,z
x,1/2-y,z
1/2+x,1/2+y,1/2+z
1/2-x,-y,1/2+z
1/2+x,1/2-y,1/2-z
1/2-x,y,1/2-z
1/2-x,1/2-y,1/2-z
1/2+x,y,1/2-z
1/2-x,1/2+y,1/2+z
1/2+x,-y,1/2+z
loop_
_atom_site_type_symbol
_atom_site_label
_atom_site_fract_x
_atom_site_fract_y
_atom_site_fract_z
Si Si1 0.221691 0.655881 0.069364
Si Si2 0.415695 0.969224 0.431272
Si Si3 0.281289 0.934266 0.182526
Si Si4 0.183228 0.410154 0.143927
Si Si5 0.085922 0.658870 0.749594
Si Si6 0.088398 0.460682 0.364592
Si Si7 0.191804 0.655042 0.555525
O O1 0.204228 0.750000 0.063866
O O2 0.145679 0.602175 0.068316
O O3 0.259508 0.633682 0.133753
O O4 0.277785 0.635126 0.012657
O O5 0.500000 0.944647 0.410089
O O6 0.420173 0.000000 0.500000
O O7 0.383505 0.043462 0.391927
O O8 0.250000 0.912042 0.250000
O O9 0.235798 0.017075 0.167924
O O10 0.366904 0.962036 0.163679
O O11 0.147602 0.362658 0.199938
O O12 0.234666 0.356267 0.099495
O O13 0.096586 0.750000 0.728265
O O14 0.090762 0.601351 0.691909
O O15 0.000000 0.651477 0.775648
O O16 0.131810 0.411763 0.419082
O O17 0.000000 0.477474 0.380024
O O18 0.166839 0.750000 0.557448
#
# Coordination Sequence:
#
# PCOD9534748 Si02
#       7
#    16  16  16  16  16  16  16
#     4  10  22  39  58  81 111 144 187 239 282 332
#     4  10  19  33  54  79 110 147 183 221 270 327
#     4  10  20  37  59  82 105 141 187 233 282 335
#     4  10  18  31  51  76 108 146 185 221 262 323
#     4  10  19  30  46  75 113 147 179 218 267 325
#     4  10  21  36  56  82 112 147 189 234 284 339
#     4  10  20  34  53  77 110 149 185 228 277 331
#
# _framework density 17.605982999999998
#
# number of rings (size 3 to 8) (size 9 to 14) (size 15 to 20)
#    0.000    2.000    2.857    1.286    0.000    1.429 
#    0.000    3.571    0.000    1.286    0.000    0.000 
#    0.000    0.000    0.000    0.000    0.000    0.000 
#
# Total GULP energy -312028.077153 kJ/mol
# GULP energy per Si atom -5571.929949 kJ/mol
# Density = 1.756591 g / cm^3
# Si number density = 17.605983 Si / 1000 Ang^3
#
#
#
# Elastic Constant Matrix: (Units=GPa)
#
#
# Indices 1 2 3 4 5 6 
#
# 1 98.4319 20.4466 26.4359 0.0000 0.0000 0.0000
# 2 20.4466 32.1719 2.5740 0.0000 0.0000 0.0000
# 3 26.4359 2.5740 73.0535 0.0000 0.0000 0.0000
# 4 0.0000 0.0000 0.0000 20.4629 0.0000 0.0000
# 5 0.0000 0.0000 0.0000 0.0000 22.3477 0.0000
# 6 0.0000 0.0000 0.0000 0.0000 0.0000 13.7540
#
#
#
# Elastic Compliance Matrix: (Units=1/GPa)
#
#
# Indices 1 2 3 4 5 6 
#
# 1 0.012988 -0.007901 -0.004422 0.000000 0.000000 0.000000
# 2 -0.007901 0.035977 0.001591 0.000000 0.000000 0.000000
# 3 -0.004422 0.001591 0.015233 0.000000 0.000000 0.000000
# 4 0.000000 0.000000 0.000000 0.048869 0.000000 0.000000
# 5 0.000000 0.000000 0.000000 0.000000 0.044747 0.000000
# 6 0.000000 0.000000 0.000000 0.000000 0.000000 0.072706
#
#
# Mechanical properties :
#
#
# Convention : Reuss Voigt Hill
#
# Bulk Modulus (GPa) = 23.39961 33.61891 28.50926
# Shear Modulus (GPa) = 18.78097 21.59297 20.18697
#
# Velocity S-wave (km/s) = 3.26964 3.50588 3.38982
# Velocity P-wave (km/s) = 5.25106 5.96027 5.61687
#
# Compressibility (1/GPa) = 0.04273575
#
# Stress axis : x y z
#
# Youngs Moduli (GPa) = 76.99440 27.79563 65.64885
#
# Poissons Ratio (x) = 0.21960 0.29027
# Poissons Ratio (y) = 0.60830 -0.10447
# Poissons Ratio (z) = 0.34044 -0.04423
#
# Static dielectric constant tensor:
#      x y z
#    x 1.658490 0.000000 0.000000 
#    y 0.000000 1.588700 0.000000 
#    z 0.000000 0.000000 1.606350 
# 
# From -- ./inp_files/53229.got.cif
#   From: 2010.05.17/outbox.cif.g08.bks.cpg/sg74_27_cif.got.tgz:53229.got - 2010.06.03 17:57:02.
