data_PCOD9534837
_publ_section_title
;
Structure prediction by ZEFSAII (Michael W. Deem and Ramdas Pophale) SiO2 
 PCOD9534837
Probable space group: I M M A
;
_chemical_formula_sum "Si O2"
_cell_formula_units_Z 96
_cell_length_a 15.437796
_cell_length_b 27.078298
_cell_length_c 11.888415
_cell_angle_alpha 90.000000
_cell_angle_beta 90.000000
_cell_angle_gamma 90.000000
_cell_volume 4969.705094
_symmetry_space_group_name_H-M "I M M A"
_symmetry_group_IT_number 74
_symmetry_cell_setting 'orthorhombic'
loop_
_space_group_symop_operation_xyz
x,y,z
-x,1/2-y,z
x,-y,-z
-x,1/2+y,-z
-x,-y,-z
x,1/2+y,-z
-x,y,z
x,1/2-y,z
1/2+x,1/2+y,1/2+z
1/2-x,-y,1/2+z
1/2+x,1/2-y,1/2-z
1/2-x,y,1/2-z
1/2-x,1/2-y,1/2-z
1/2+x,y,1/2-z
1/2-x,1/2+y,1/2+z
1/2+x,-y,1/2+z
loop_
_atom_site_type_symbol
_atom_site_label
_atom_site_fract_x
_atom_site_fract_y
_atom_site_fract_z
Si Si1 0.353305 0.393979 0.127952
Si Si2 0.894826 0.072956 0.814474
Si Si3 0.352686 0.805575 0.716216
Si Si4 0.663677 0.876964 0.523446
Si Si5 0.100749 0.538218 0.825979
Si Si6 0.097159 0.045752 0.567733
O O1 0.386821 0.346685 0.196755
O O2 0.260434 0.384368 0.070969
O O3 0.349957 0.438018 0.219650
O O4 0.408539 0.411691 0.023869
O O5 0.866564 0.067565 0.683594
O O6 0.000000 0.080456 0.819352
O O7 0.873677 0.017283 0.856619
O O8 0.849662 0.114708 0.890920
O O9 0.385928 0.750000 0.726651
O O10 0.250000 0.804259 0.750000
O O11 0.365182 0.827723 0.590618
O O12 0.611108 0.922902 0.574876
O O13 0.000000 0.536870 0.794578
O O14 0.000000 0.028273 0.597502
O O15 0.140849 0.000000 0.500000
#
# Coordination Sequence:
#
# PCOD9534837 Si02
#       6
#    16  16  16  16  16  16
#     4  10  19  32  50  77 102 127 171 221 257 287
#     4  10  20  33  49  68  99 145 179 195 239 310
#     4   8  16  33  55  74  98 129 162 206 265 321
#     4  10  20  31  47  79 105 124 165 215 265 296
#     4  10  18  32  50  67  98 141 176 198 233 303
#     4  10  19  33  50  69  98 144 184 203 235 301
#
# _framework density 19.317042000000001
#
# number of rings (size 3 to 8) (size 9 to 14) (size 15 to 20)
#    0.000    2.333    1.667    3.000    0.000    3.333 
#    3.000    0.000    0.000   19.000    0.000    7.000 
#    0.000    0.000    0.000    0.000    0.000    0.000 
#
# Total GULP energy -267331.043841 kJ/mol
# GULP energy per Si atom -5569.396747 kJ/mol
# Density = 1.927308 g / cm^3
# Si number density = 19.317042 Si / 1000 Ang^3
#
#
#
# Elastic Constant Matrix: (Units=GPa)
#
#
# Indices 1 2 3 4 5 6 
#
# 1 35.7966 13.5763 13.0437 0.0000 0.0000 0.0000
# 2 13.5763 113.9086 58.0328 -0.0002 0.0000 0.0001
# 3 13.0437 58.0328 143.6403 -0.0003 0.0000 0.0001
# 4 0.0000 -0.0002 -0.0003 14.8810 0.0000 0.0001
# 5 0.0000 0.0000 0.0000 0.0000 20.0564 0.0000
# 6 0.0000 0.0001 0.0001 0.0001 0.0000 8.8670
#
#
#
# Elastic Compliance Matrix: (Units=1/GPa)
#
#
# Indices 1 2 3 4 5 6 
#
# 1 0.029543 -0.002713 -0.001587 0.000000 0.000000 0.000000
# 2 -0.002713 0.011303 -0.004320 0.000000 0.000000 0.000000
# 3 -0.001587 -0.004320 0.008851 0.000000 0.000000 0.000000
# 4 0.000000 0.000000 0.000000 0.067200 0.000000 -0.000001
# 5 0.000000 0.000000 0.000000 0.000000 0.049859 0.000000
# 6 0.000000 0.000000 0.000000 -0.000001 0.000000 0.112778
#
#
# Mechanical properties :
#
#
# Convention : Reuss Voigt Hill
#
# Bulk Modulus (GPa) = 30.80923 51.40567 41.10745
# Shear Modulus (GPa) = 16.25523 22.67372 19.46448
#
# Velocity S-wave (km/s) = 2.90400 3.42975 3.17777
# Velocity P-wave (km/s) = 5.21806 6.50796 5.89838
#
# Compressibility (1/GPa) = 0.03245780
#
# Stress axis : x y z
#
# Youngs Moduli (GPa) = 33.84941 88.46904 112.97610
#
# Poissons Ratio (x) = 0.23999 0.17926
# Poissons Ratio (y) = 0.09182 0.48810
# Poissons Ratio (z) = 0.05371 0.38222
#
# Static dielectric constant tensor:
#      x y z
#    x 1.770680 0.000000 0.000000 
#    y 0.000000 1.670990 0.000000 
#    z 0.000000 0.000000 1.742450 
# 
# From -- ./inp_files/22620.got.cif
#   From: 2010.05.17/outbox.cif.g08.bks.cpg/sg74_12_cif.got.tgz:22620.got - 2010.06.03 17:57:02.
