data_PCOD9534188
_publ_section_title
;
Structure prediction by ZEFSAII (Michael W. Deem and Ramdas Pophale) SiO2 
 PCOD9534188
Probable space group: I M M A
;
_chemical_formula_sum "Si O2"
_cell_formula_units_Z 80
_cell_length_a 15.404002
_cell_length_b 13.829472
_cell_length_c 17.971164
_cell_angle_alpha 90.000000
_cell_angle_beta 90.000000
_cell_angle_gamma 90.000000
_cell_volume 3828.382948
_symmetry_space_group_name_H-M "I M M A"
_symmetry_group_IT_number 74
_symmetry_cell_setting 'orthorhombic'
loop_
_space_group_symop_operation_xyz
x,y,z
-x,1/2-y,z
x,-y,-z
-x,1/2+y,-z
-x,-y,-z
x,1/2+y,-z
-x,y,z
x,1/2-y,z
1/2+x,1/2+y,1/2+z
1/2-x,-y,1/2+z
1/2+x,1/2-y,1/2-z
1/2-x,y,1/2-z
1/2-x,1/2-y,1/2-z
1/2+x,y,1/2-z
1/2-x,1/2+y,1/2+z
1/2+x,-y,1/2+z
loop_
_atom_site_type_symbol
_atom_site_label
_atom_site_fract_x
_atom_site_fract_y
_atom_site_fract_z
Si Si1 0.601720 0.868106 0.753902
Si Si2 0.816962 0.368955 0.687527
Si Si3 0.500000 0.111742 0.980385
Si Si4 0.256672 0.631897 0.634934
Si Si5 0.500000 0.360972 0.802942
Si Si6 0.697128 0.640422 0.019091
O O1 0.500000 0.897704 0.759453
O O2 0.599713 0.750000 0.754353
O O3 0.656611 0.896625 0.679874
O O4 0.668645 0.895535 0.820342
O O5 0.821687 0.250000 0.684629
O O6 0.750000 0.396160 0.750000
O O7 0.800382 0.400673 0.602793
O O8 0.909311 0.405869 0.716896
O O9 0.500000 0.137980 0.893073
O O10 0.404711 0.144964 0.005908
O O11 0.500000 0.000000 0.000000
O O12 0.256278 0.750000 0.633819
O O13 0.249245 0.597595 0.549879
O O14 0.500000 0.250000 0.776573
O O15 0.728626 0.750000 0.027782
#
# Coordination Sequence:
#
# PCOD9534188 Si02
#       6
#    16  16   8  16   8  16
#     4   8  13  21  33  52  80 109 134 164 203 235
#     4   8  13  22  38  58  80 105 133 166 203 242
#     4  10  18  26  38  62  86 109 130 168 217 248
#     4   8  14  22  34  55  78 103 137 169 197 239
#     4   8  14  26  42  62  86 109 135 166 204 253
#     4   9  16  26  41  61  84 108 139 169 202 249
#
# _framework density 20.896550999999999
#
# number of rings (size 3 to 8) (size 9 to 14) (size 15 to 20)
#    0.000    3.600    0.000    3.300    1.400    0.000 
#    0.000    0.000    2.200    0.000   20.800    0.000 
#    0.000    0.800    0.000    0.400    0.000    1.600 
#
# Total GULP energy -222833.516810 kJ/mol
# GULP energy per Si atom -5570.837920 kJ/mol
# Density = 2.084899 g / cm^3
# Si number density = 20.896551 Si / 1000 Ang^3
#
#
#
# Elastic Constant Matrix: (Units=GPa)
#
#
# Indices 1 2 3 4 5 6 
#
# 1 146.4842 16.3566 77.8803 0.0000 0.0000 0.0000
# 2 16.3566 72.6787 13.1085 0.0000 0.0000 0.0000
# 3 77.8803 13.1085 132.7884 0.0000 0.0000 0.0000
# 4 0.0000 0.0000 0.0000 4.2459 0.0000 0.0000
# 5 0.0000 0.0000 0.0000 0.0000 30.6424 0.0000
# 6 0.0000 0.0000 0.0000 0.0000 0.0000 0.6134
#
#
#
# Elastic Compliance Matrix: (Units=1/GPa)
#
#
# Indices 1 2 3 4 5 6 
#
# 1 0.010025 -0.001217 -0.005759 0.000000 0.000000 0.000000
# 2 -0.001217 0.014156 -0.000684 0.000000 0.000000 0.000000
# 3 -0.005759 -0.000684 0.010976 0.000000 0.000000 0.000000
# 4 0.000000 0.000000 0.000000 0.235522 0.000000 0.000000
# 5 0.000000 0.000000 0.000000 0.000000 0.032635 0.000000
# 6 0.000000 0.000000 0.000000 0.000000 0.000000 1.630357
#
#
# Mechanical properties :
#
#
# Convention : Reuss Voigt Hill
#
# Bulk Modulus (GPa) = 50.41111 62.96022 56.68567
# Shear Modulus (GPa) = 2.55676 23.40738 12.98207
#
# Velocity S-wave (km/s) = 1.10733 3.35050 2.49520
# Velocity P-wave (km/s) = 5.08049 6.72032 5.95710
#
# Compressibility (1/GPa) = 0.01983690
#
# Stress axis : x y z
#
# Youngs Moduli (GPa) = 99.75482 70.63921 91.10754
#
# Poissons Ratio (x) = 0.08599 0.52471
# Poissons Ratio (y) = 0.12143 0.06227
# Poissons Ratio (z) = 0.57451 0.04828
#
# Static dielectric constant tensor:
#      x y z
#    x 1.759730 0.000000 0.000000 
#    y 0.000000 1.816930 0.000000 
#    z 0.000000 0.000000 1.733430 
# 
# From -- ./inp_files/42735.got.cif
#   From: 2010.05.17/outbox.cif.g08.bks.cpg/sg74_22_cif.got.tgz:42735.got - 2010.06.03 17:57:02.
