data_PCOD9534190
_publ_section_title
;
Structure prediction by ZEFSAII (Michael W. Deem and Ramdas Pophale) SiO2 
 PCOD9534190
Probable space group: I M M A
;
_chemical_formula_sum "Si O2"
_cell_formula_units_Z 96
_cell_length_a 11.270093
_cell_length_b 22.373230
_cell_length_c 16.745182
_cell_angle_alpha 90.000000
_cell_angle_beta 90.000000
_cell_angle_gamma 90.000000
_cell_volume 4222.270561
_symmetry_space_group_name_H-M "I M M A"
_symmetry_group_IT_number 74
_symmetry_cell_setting 'orthorhombic'
loop_
_space_group_symop_operation_xyz
x,y,z
-x,1/2-y,z
x,-y,-z
-x,1/2+y,-z
-x,-y,-z
x,1/2+y,-z
-x,y,z
x,1/2-y,z
1/2+x,1/2+y,1/2+z
1/2-x,-y,1/2+z
1/2+x,1/2-y,1/2-z
1/2-x,y,1/2-z
1/2-x,1/2-y,1/2-z
1/2+x,y,1/2-z
1/2-x,1/2+y,1/2+z
1/2+x,-y,1/2+z
loop_
_atom_site_type_symbol
_atom_site_label
_atom_site_fract_x
_atom_site_fract_y
_atom_site_fract_z
Si Si1 0.625500 0.839809 0.147694
Si Si2 0.366014 0.485204 0.693747
Si Si3 0.629380 0.821589 0.707184
Si Si4 0.628140 0.930248 0.020401
Si Si5 0.869651 0.590427 0.935812
Si Si6 0.625648 0.345695 0.661023
O O1 0.500000 0.814056 0.119034
O O2 0.623993 0.907518 0.112198
O O3 0.624073 0.834911 0.243163
O O4 0.755784 0.817677 0.125125
O O5 0.500000 0.494164 0.730234
O O6 0.250000 0.492349 0.750000
O O7 0.357751 0.532756 0.622086
O O8 0.367090 0.417799 0.659919
O O9 0.500000 0.837464 0.744997
O O10 0.634408 0.750000 0.702148
O O11 0.750000 0.842587 0.750000
O O12 0.628451 0.852441 0.621532
O O13 0.500000 0.908536 0.986306
O O14 0.751033 0.905777 0.986765
O O15 0.631038 0.000000 0.000000
O O16 0.000000 0.585423 0.976047
O O17 0.500000 0.325198 0.627692
#
# Coordination Sequence:
#
# PCOD9534190 Si02
#       6
#    16  16  16  16  16  16
#     4   9  16  27  39  54  75 103 141 182 218 254
#     4  10  18  26  39  58  78 101 136 181 222 260
#     4   9  18  34  54  75  98 122 154 202 258 306
#     4  10  21  32  43  60  87 124 159 190 229 275
#     4  10  21  33  45  66  91 119 155 193 237 287
#     4   9  16  25  40  57  74 102 141 183 221 253
#
# _framework density 22.736581999999999
#
# number of rings (size 3 to 8) (size 9 to 14) (size 15 to 20)
#    0.000    2.500    1.667    1.500    0.000    2.333 
#    0.000    0.000    0.000    0.000    0.000    0.000 
#    0.000    0.000    0.000    3.000    0.000   35.667 
#
# Total GULP energy -267286.754835 kJ/mol
# GULP energy per Si atom -5568.474059 kJ/mol
# Density = 2.268483 g / cm^3
# Si number density = 22.736582 Si / 1000 Ang^3
#
#
#
# Elastic Constant Matrix: (Units=GPa)
#
#
# Indices 1 2 3 4 5 6 
#
# 1 323.7446 16.3698 48.8398 0.0000 0.0000 0.0000
# 2 16.3698 45.2916 16.1243 0.0000 0.0000 0.0000
# 3 48.8398 16.1243 36.2788 0.0000 0.0000 0.0000
# 4 0.0000 0.0000 0.0000 -5.4121 0.0000 0.0000
# 5 0.0000 0.0000 0.0000 0.0000 32.3816 0.0000
# 6 0.0000 0.0000 0.0000 0.0000 0.0000 -84.7005
#
#
#
# Elastic Compliance Matrix: (Units=1/GPa)
#
#
# Indices 1 2 3 4 5 6 
#
# 1 0.003887 0.000544 -0.005475 0.000000 0.000000 0.000000
# 2 0.000544 0.026306 -0.012424 0.000000 0.000000 0.000000
# 3 -0.005475 -0.012424 0.040457 0.000000 0.000000 0.000000
# 4 0.000000 0.000000 0.000000 -0.184772 0.000000 0.000000
# 5 0.000000 0.000000 0.000000 0.000000 0.030882 0.000000
# 6 0.000000 0.000000 0.000000 0.000000 0.000000 -0.011806
#
#
# Mechanical properties :
#
#
# Convention : Reuss Voigt Hill
#
# Bulk Modulus (GPa) = 27.82442 63.10919 45.46680
# Shear Modulus (GPa) = -103.39898 10.05254 -46.67322
#
# Velocity S-wave (km/s) = -6.75097 2.10497 -4.53568
# Velocity P-wave (km/s) = 6.96443 5.80731 2.71831
#
# Compressibility (1/GPa) = 0.03593966
#
# Stress axis : x y z
#
# Youngs Moduli (GPa) = 257.24767 38.01465 24.71754
#
# Poissons Ratio (x) = -0.02069 0.13533
# Poissons Ratio (y) = -0.13999 0.30710
# Poissons Ratio (z) = 1.40845 0.47231
#
# Static dielectric constant tensor:
#      x y z
#    x 1.969360 0.000000 0.000000 
#    y 0.000000 1.821780 0.000000 
#    z 0.000000 0.000000 1.872060 
# 
# From -- ./inp_files/41493.got.cif
#   From: 2010.05.17/outbox.cif.g08.bks.cpg/sg74_21_cif.got.tgz:41493.got - 2010.06.03 17:57:02.
