data_PCOD9534359
_publ_section_title
;
Structure prediction by ZEFSAII (Michael W. Deem and Ramdas Pophale) SiO2 
 PCOD9534359
Probable space group: I M M A
;
_chemical_formula_sum "Si O2"
_cell_formula_units_Z 96
_cell_length_a 8.839587
_cell_length_b 27.081949
_cell_length_c 29.692843
_cell_angle_alpha 90.000000
_cell_angle_beta 90.000000
_cell_angle_gamma 90.000000
_cell_volume 7108.266019
_symmetry_space_group_name_H-M "I M M A"
_symmetry_group_IT_number 74
_symmetry_cell_setting 'orthorhombic'
loop_
_space_group_symop_operation_xyz
x,y,z
-x,1/2-y,z
x,-y,-z
-x,1/2+y,-z
-x,-y,-z
x,1/2+y,-z
-x,y,z
x,1/2-y,z
1/2+x,1/2+y,1/2+z
1/2-x,-y,1/2+z
1/2+x,1/2-y,1/2-z
1/2-x,y,1/2-z
1/2-x,1/2-y,1/2-z
1/2+x,y,1/2-z
1/2-x,1/2+y,1/2+z
1/2+x,-y,1/2+z
loop_
_atom_site_type_symbol
_atom_site_label
_atom_site_fract_x
_atom_site_fract_y
_atom_site_fract_z
Si Si1 0.181356 0.806451 0.386158
Si Si2 0.319002 0.850308 0.297118
Si Si3 0.818304 0.103259 0.551690
Si Si4 0.178045 0.550609 0.971690
Si Si5 0.182248 0.460362 0.703164
Si Si6 0.181342 0.495440 0.606624
O O1 0.209398 0.750000 0.399542
O O2 0.264751 0.818970 0.339682
O O3 0.227667 0.846307 0.423814
O O4 0.000000 0.812565 0.378946
O O5 0.500000 0.852518 0.294258
O O6 0.250000 0.831357 0.250000
O O7 0.251206 0.905537 0.303073
O O8 0.750886 0.092813 0.502553
O O9 0.773818 0.057133 0.583921
O O10 0.000000 0.102561 0.548263
O O11 0.247492 0.538851 0.923049
O O12 0.000000 0.558146 0.968149
O O13 0.205697 0.500000 0.000000
O O14 0.250000 0.479648 0.750000
O O15 0.221602 0.492137 0.659110
O O16 0.000000 0.456142 0.705929
O O17 0.000000 0.498776 0.603087
#
# Coordination Sequence:
#
# PCOD9534359 Si02
#       6
#    16  16  16  16  16  16
#     4  10  20  34  49  62  77 100 132 169 208 250
#     4  11  21  32  46  59  76 100 131 170 212 251
#     4   9  16  29  44  58  78 102 127 158 200 244
#     4   9  17  26  39  61  82  99 125 158 195 234
#     4  10  18  29  43  61  82 106 136 165 201 242
#     4   9  16  27  43  59  79 104 130 159 195 239
#
# _framework density 13.505402
#
# number of rings (size 3 to 8) (size 9 to 14) (size 15 to 20)
#    0.000    2.333    1.667    3.500    0.000    4.667 
#    0.000    0.000    0.000    0.000    0.000    0.000 
#    0.000    0.000    0.000    0.000    0.000    0.833 
#
# Total GULP energy -267532.260261 kJ/mol
# GULP energy per Si atom -5573.588755 kJ/mol
# Density = 1.347466 g / cm^3
# Si number density = 13.505402 Si / 1000 Ang^3
#
#
#
# Elastic Constant Matrix: (Units=GPa)
#
#
# Indices 1 2 3 4 5 6 
#
# 1 32.5935 25.6608 36.5154 0.0000 0.0000 0.0000
# 2 25.6608 52.5419 54.6850 0.0000 0.0000 0.0000
# 3 36.5154 54.6850 108.4977 0.0000 0.0000 0.0000
# 4 0.0000 0.0000 0.0000 18.6698 0.0000 0.0000
# 5 0.0000 0.0000 0.0000 0.0000 22.4941 0.0000
# 6 0.0000 0.0000 0.0000 0.0000 0.0000 6.8594
#
#
#
# Elastic Compliance Matrix: (Units=1/GPa)
#
#
# Indices 1 2 3 4 5 6 
#
# 1 0.054957 -0.015964 -0.010450 0.000000 0.000000 0.000000
# 2 -0.015964 0.044670 -0.017142 0.000000 0.000000 0.000000
# 3 -0.010450 -0.017142 0.021373 0.000000 0.000000 0.000000
# 4 0.000000 0.000000 0.000000 0.053562 0.000000 0.000000
# 5 0.000000 0.000000 0.000000 0.000000 0.044456 0.000000
# 6 0.000000 0.000000 0.000000 0.000000 0.000000 0.145786
#
#
# Mechanical properties :
#
#
# Convention : Reuss Voigt Hill
#
# Bulk Modulus (GPa) = 29.50817 47.48393 38.49605
# Shear Modulus (GPa) = 10.79418 14.72278 12.75848
#
# Velocity S-wave (km/s) = 2.83017 3.30531 3.07692
# Velocity P-wave (km/s) = 5.70757 7.05707 6.41789
#
# Compressibility (1/GPa) = 0.03388892
#
# Stress axis : x y z
#
# Youngs Moduli (GPa) = 18.19617 22.38632 46.78702
#
# Poissons Ratio (x) = 0.35738 0.48891
# Poissons Ratio (y) = 0.29049 0.80201
# Poissons Ratio (z) = 0.19014 0.38374
#
# Static dielectric constant tensor:
#      x y z
#    x 1.449890 0.000000 0.000000 
#    y 0.000000 1.421390 0.000000 
#    z 0.000000 0.000000 1.455470 
# 
# From -- ./inp_files/64935.got.cif
#   From: 2010.05.17/outbox.cif.g08.bks.cpg/sg74_33_cif.got.tgz:64935.got - 2010.06.03 17:57:02.
