data_PCOD9534664
_publ_section_title
;
Structure prediction by ZEFSAII (Michael W. Deem and Ramdas Pophale) SiO2 
 PCOD9534664
Probable space group: I M M A
;
_chemical_formula_sum "Si O2"
_cell_formula_units_Z 80
_cell_length_a 26.134168
_cell_length_b 11.214926
_cell_length_c 11.991065
_cell_angle_alpha 90.000000
_cell_angle_beta 90.000000
_cell_angle_gamma 90.000000
_cell_volume 3514.494338
_symmetry_space_group_name_H-M "I M M A"
_symmetry_group_IT_number 74
_symmetry_cell_setting 'orthorhombic'
loop_
_space_group_symop_operation_xyz
x,y,z
-x,1/2-y,z
x,-y,-z
-x,1/2+y,-z
-x,-y,-z
x,1/2+y,-z
-x,y,z
x,1/2-y,z
1/2+x,1/2+y,1/2+z
1/2-x,-y,1/2+z
1/2+x,1/2-y,1/2-z
1/2-x,y,1/2-z
1/2-x,1/2-y,1/2-z
1/2+x,y,1/2-z
1/2-x,1/2+y,1/2+z
1/2+x,-y,1/2+z
loop_
_atom_site_type_symbol
_atom_site_label
_atom_site_fract_x
_atom_site_fract_y
_atom_site_fract_z
Si Si1 0.311630 0.250000 0.262497
Si Si2 0.264901 0.500000 0.500000
Si Si3 0.057051 0.888455 0.181380
Si Si4 0.723880 0.750000 0.498907
Si Si5 0.342364 0.500711 0.291513
Si Si6 0.440333 0.620287 0.049256
Si Si7 0.689366 0.250000 0.740186
O O1 0.250000 0.250000 0.250000
O O2 0.314478 0.250000 0.397112
O O3 0.335878 0.375983 0.227197
O O4 0.241618 0.631462 0.499590
O O5 0.299049 0.499461 0.387500
O O6 0.067092 0.750000 0.149449
O O7 0.102609 0.977978 0.152331
O O8 0.056799 0.889299 0.316839
O O9 0.000000 0.920769 0.143125
O O10 0.685792 0.750000 0.394201
O O11 0.332528 0.623026 0.222040
O O12 0.500000 0.623220 0.009930
O O13 0.417593 0.750000 0.020502
O O14 0.416475 0.500000 0.000000
O O15 0.750000 0.250000 0.750000
#
# Coordination Sequence:
#
# PCOD9534664 Si02
#       7
#     8   8  16   8  16  16   8
#     4  10  20  34  53  71 102 140 161 201 258 305
#     4   8  16  28  49  72  92 126 164 204 235 292
#     4   9  17  31  52  75 100 131 166 209 251 288
#     4   8  16  30  48  72  95 122 167 202 240 306
#     4  10  18  33  51  75 101 127 171 204 246 299
#     4   8  14  26  45  67  89 121 165 202 235 284
#     4  10  18  30  55  79  94 124 167 217 252 293
#
# _framework density 22.762875999999999
#
# number of rings (size 3 to 8) (size 9 to 14) (size 15 to 20)
#    0.000    3.000    1.000    1.800    0.000    0.000 
#    1.800    1.000    4.400    0.000    0.000    0.000 
#    0.000    0.000    0.000    0.000    0.000    0.000 
#
# Total GULP energy -222678.590482 kJ/mol
# GULP energy per Si atom -5566.964762 kJ/mol
# Density = 2.271107 g / cm^3
# Si number density = 22.762876 Si / 1000 Ang^3
#
#
#
# Elastic Constant Matrix: (Units=GPa)
#
#
# Indices 1 2 3 4 5 6 
#
# 1 97.0803 31.2204 -6.9083 0.0000 0.0000 0.0000
# 2 31.2204 245.0826 1.0519 0.0000 0.0000 0.0000
# 3 -6.9083 1.0519 21.6866 0.0000 0.0000 0.0000
# 4 0.0000 0.0000 0.0000 5.6698 0.0000 0.0000
# 5 0.0000 0.0000 0.0000 0.0000 6.7908 0.0000
# 6 0.0000 0.0000 0.0000 0.0000 0.0000 24.1425
#
#
#
# Elastic Compliance Matrix: (Units=1/GPa)
#
#
# Indices 1 2 3 4 5 6 
#
# 1 0.011011 -0.001418 0.003576 0.000000 0.000000 0.000000
# 2 -0.001418 0.004264 -0.000659 0.000000 0.000000 0.000000
# 3 0.003576 -0.000659 0.047283 0.000000 0.000000 0.000000
# 4 0.000000 0.000000 0.000000 0.176372 0.000000 0.000000
# 5 0.000000 0.000000 0.000000 0.000000 0.147257 0.000000
# 6 0.000000 0.000000 0.000000 0.000000 0.000000 0.041421
#
#
# Mechanical properties :
#
#
# Convention : Reuss Voigt Hill
#
# Bulk Modulus (GPa) = 15.25379 46.06415 30.65897
# Shear Modulus (GPa) = 11.19922 29.88634 20.54278
#
# Velocity S-wave (km/s) = 2.22050 3.62739 3.00737
# Velocity P-wave (km/s) = 3.64553 6.15015 5.05541
#
# Compressibility (1/GPa) = 0.06555746
#
# Stress axis : x y z
#
# Youngs Moduli (GPa) = 90.81586 234.53677 21.14940
#
# Poissons Ratio (x) = 0.33258 -0.07564
# Poissons Ratio (y) = 0.12878 0.01393
# Poissons Ratio (z) = -0.32480 0.15445
#
# Static dielectric constant tensor:
#      x y z
#    x 1.878790 0.000000 0.000000 
#    y 0.000000 2.023060 0.000000 
#    z 0.000000 0.000000 1.920010 
# 
# From -- ./inp_files/26958.got.cif
#   From: 2010.05.17/outbox.cif.g08.bks.cpg/sg74_14_cif.got.tgz:26958.got - 2010.06.03 17:57:02.
