data_PCOD9534154
_publ_section_title
;
Structure prediction by ZEFSAII (Michael W. Deem and Ramdas Pophale) SiO2 
 PCOD9534154
Probable space group: I M M A
;
_chemical_formula_sum "Si O2"
_cell_formula_units_Z 84
_cell_length_a 22.946756
_cell_length_b 21.390442
_cell_length_c 8.865945
_cell_angle_alpha 90.000000
_cell_angle_beta 90.000000
_cell_angle_gamma 90.000000
_cell_volume 4351.771556
_symmetry_space_group_name_H-M "I M M A"
_symmetry_group_IT_number 74
_symmetry_cell_setting 'orthorhombic'
loop_
_space_group_symop_operation_xyz
x,y,z
-x,1/2-y,z
x,-y,-z
-x,1/2+y,-z
-x,-y,-z
x,1/2+y,-z
-x,y,z
x,1/2-y,z
1/2+x,1/2+y,1/2+z
1/2-x,-y,1/2+z
1/2+x,1/2-y,1/2-z
1/2-x,y,1/2-z
1/2-x,1/2-y,1/2-z
1/2+x,y,1/2-z
1/2-x,1/2+y,1/2+z
1/2+x,-y,1/2+z
loop_
_atom_site_type_symbol
_atom_site_label
_atom_site_fract_x
_atom_site_fract_y
_atom_site_fract_z
Si Si1 0.500000 0.177524 0.605477
Si Si2 0.184903 0.250000 0.318715
Si Si3 0.876004 0.869744 0.164533
Si Si4 0.869757 0.376865 0.192847
Si Si5 0.000000 0.144985 0.238961
Si Si6 0.312535 0.994624 0.317989
Si Si7 0.633568 0.750000 0.136873
Si Si8 0.000000 0.250000 0.494159
O O1 0.500000 0.250000 0.652128
O O2 0.555082 0.140336 0.664271
O O3 0.500000 0.179320 0.423801
O O4 0.250000 0.250000 0.250000
O O5 0.151531 0.187381 0.266311
O O6 0.178020 0.250000 0.498037
O O7 0.854751 0.936885 0.220141
O O8 0.854738 0.811311 0.262347
O O9 0.860864 0.866528 0.986684
O O10 0.937700 0.389271 0.231799
O O11 0.834232 0.438140 0.239585
O O12 0.000000 0.190339 0.382349
O O13 0.250000 0.980362 0.250000
O O14 0.309954 0.000000 0.500000
O O15 0.565026 0.750000 0.075511
#
# Coordination Sequence:
#
# PCOD9534154 Si02
#       8
#     8   8  16  16   8  16   8   4
#     4  10  17  33  65  91 125 161 193 247 317 367
#     4  12  25  38  58  88 120 165 212 256 297 361
#     4  10  22  38  63  93 122 160 200 252 313 365
#     4  10  21  41  65  90 120 161 210 244 304 375
#     4  10  18  34  63  92 120 156 201 251 298 373
#     4  10  23  43  65  87 122 167 208 252 304 363
#     4  12  23  36  60  92 127 153 197 263 308 357
#     4  12  20  36  58  92 136 154 194 240 334 356
#
# _framework density 19.302484
#
# number of rings (size 3 to 8) (size 9 to 14) (size 15 to 20)
#    0.000    1.524    3.333    1.714    2.667    5.333 
#    0.000    5.238    0.000    1.143    0.000    0.000 
#    0.000    0.000    0.000    0.000    0.000    0.000 
#
# Total GULP energy -234213.933708 kJ/mol
# GULP energy per Si atom -5576.522231 kJ/mol
# Density = 1.925855 g / cm^3
# Si number density = 19.302484 Si / 1000 Ang^3
#
#
#
# Elastic Constant Matrix: (Units=GPa)
#
#
# Indices 1 2 3 4 5 6 
#
# 1 97.4151 56.4225 12.5369 0.0000 0.0000 0.0000
# 2 56.4225 156.6250 34.3281 0.0000 0.0000 0.0000
# 3 12.5369 34.3281 50.5267 0.0000 0.0000 0.0000
# 4 0.0000 0.0000 0.0000 78.7761 0.0000 0.0000
# 5 0.0000 0.0000 0.0000 0.0000 7.8692 0.0000
# 6 0.0000 0.0000 0.0000 0.0000 0.0000 6.2869
#
#
#
# Elastic Compliance Matrix: (Units=1/GPa)
#
#
# Indices 1 2 3 4 5 6 
#
# 1 0.012972 -0.004662 -0.000051 0.000000 0.000000 0.000000
# 2 -0.004662 0.009177 -0.005078 0.000000 0.000000 0.000000
# 3 -0.000051 -0.005078 0.023254 0.000000 0.000000 0.000000
# 4 0.000000 0.000000 0.000000 0.012694 0.000000 0.000000
# 5 0.000000 0.000000 0.000000 0.000000 0.127077 0.000000
# 6 0.000000 0.000000 0.000000 0.000000 0.000000 0.159061
#
#
# Mechanical properties :
#
#
# Convention : Reuss Voigt Hill
#
# Bulk Modulus (GPa) = 38.72870 56.79356 47.76113
# Shear Modulus (GPa) = 13.42551 32.00508 22.71529
#
# Velocity S-wave (km/s) = 2.64016 4.07637 3.43418
# Velocity P-wave (km/s) = 5.42232 7.18627 6.36569
#
# Compressibility (1/GPa) = 0.02582064
#
# Stress axis : x y z
#
# Youngs Moduli (GPa) = 77.08883 108.96755 43.00251
#
# Poissons Ratio (x) = 0.50798 0.00221
# Poissons Ratio (y) = 0.35937 0.21838
# Poissons Ratio (z) = 0.00397 0.55336
#
# Static dielectric constant tensor:
#      x y z
#    x 1.716780 0.000000 0.000000 
#    y 0.000000 1.640370 0.000000 
#    z 0.000000 0.000000 1.697230 
# 
# From -- ./inp_files/13715.got.cif
#   From: 2010.05.17/outbox.cif.g08.bks.cpg/sg74_7_cif.got.tgz:13715.got - 2010.06.03 17:57:02.
