data_PCOD9534820
_publ_section_title
;
Structure prediction by ZEFSAII (Michael W. Deem and Ramdas Pophale) SiO2 
 PCOD9534820
Probable space group: I M M A
;
_chemical_formula_sum "Si O2"
_cell_formula_units_Z 48
_cell_length_a 21.085280
_cell_length_b 15.418551
_cell_length_c 8.138179
_cell_angle_alpha 90.000000
_cell_angle_beta 90.000000
_cell_angle_gamma 90.000000
_cell_volume 2645.758330
_symmetry_space_group_name_H-M "I M M A"
_symmetry_group_IT_number 74
_symmetry_cell_setting 'orthorhombic'
loop_
_space_group_symop_operation_xyz
x,y,z
-x,1/2-y,z
x,-y,-z
-x,1/2+y,-z
-x,-y,-z
x,1/2+y,-z
-x,y,z
x,1/2-y,z
1/2+x,1/2+y,1/2+z
1/2-x,-y,1/2+z
1/2+x,1/2-y,1/2-z
1/2-x,y,1/2-z
1/2-x,1/2-y,1/2-z
1/2+x,y,1/2-z
1/2-x,1/2+y,1/2+z
1/2+x,-y,1/2+z
loop_
_atom_site_type_symbol
_atom_site_label
_atom_site_fract_x
_atom_site_fract_y
_atom_site_fract_z
Si Si1 0.927334 0.418393 0.384117
Si Si2 0.429329 0.250000 0.884287
Si Si3 0.316531 0.650110 0.679824
Si Si4 0.312383 0.250000 0.639529
O O1 0.913132 0.500000 0.500000
O O2 0.924380 0.334071 0.500404
O O3 0.875831 0.404486 0.242176
O O4 0.000000 0.426617 0.322985
O O5 0.500000 0.250000 0.808425
O O6 0.374262 0.250000 0.751107
O O7 0.323307 0.750000 0.747144
O O8 0.250000 0.616248 0.750000
O O9 0.312897 0.667937 0.485315
O O10 0.250000 0.250000 0.750000
#
# Coordination Sequence:
#
# PCOD9534820 Si02
#       4
#    16   8  16   8
#     4  10  20  36  58  82 113 153 197 244 297 357
#     4  10  19  33  53  79 106 141 187 237 291 350
#     4   9  18  34  58  80 108 146 193 237 290 352
#     4  10  18  31  56  83 110 149 186 239 294 346
#
# _framework density 18.142246
#
# number of rings (size 3 to 8) (size 9 to 14) (size 15 to 20)
#    1.000    1.333    1.667    2.000    0.000    1.333 
#    0.000    6.667    0.000    6.000    0.000    0.000 
#    0.000    0.000    0.000    0.000    0.000    0.000 
#
# Total GULP energy -133689.468122 kJ/mol
# GULP energy per Si atom -5570.394505 kJ/mol
# Density = 1.810095 g / cm^3
# Si number density = 18.142246 Si / 1000 Ang^3
#
#
#
# Elastic Constant Matrix: (Units=GPa)
#
#
# Indices 1 2 3 4 5 6 
#
# 1 166.9932 21.7115 93.1498 0.0000 0.0000 0.0000
# 2 21.7115 74.6746 17.0908 0.0000 0.0000 0.0000
# 3 93.1498 17.0908 98.2418 0.0000 0.0000 0.0000
# 4 0.0000 0.0000 0.0000 19.2786 0.0000 0.0000
# 5 0.0000 0.0000 0.0000 0.0000 45.5910 0.0000
# 6 0.0000 0.0000 0.0000 0.0000 0.0000 20.6717
#
#
#
# Elastic Compliance Matrix: (Units=1/GPa)
#
#
# Indices 1 2 3 4 5 6 
#
# 1 0.012780 -0.000981 -0.011947 0.000000 0.000000 0.000000
# 2 -0.000981 0.014022 -0.001509 0.000000 0.000000 0.000000
# 3 -0.011947 -0.001509 0.021769 0.000000 0.000000 0.000000
# 4 0.000000 0.000000 0.000000 0.051871 0.000000 0.000000
# 5 0.000000 0.000000 0.000000 0.000000 0.021934 0.000000
# 6 0.000000 0.000000 0.000000 0.000000 0.000000 0.048375
#
#
# Mechanical properties :
#
#
# Convention : Reuss Voigt Hill
#
# Bulk Modulus (GPa) = 50.76921 67.09044 58.92983
# Shear Modulus (GPa) = 24.24936 30.97207 27.61071
#
# Velocity S-wave (km/s) = 3.65995 4.13628 3.90539
# Velocity P-wave (km/s) = 6.77533 7.73772 7.27246
#
# Compressibility (1/GPa) = 0.01969698
#
# Stress axis : x y z
#
# Youngs Moduli (GPa) = 78.24846 71.31590 45.93705
#
# Poissons Ratio (x) = 0.06999 0.54879
# Poissons Ratio (y) = 0.07680 0.06931
# Poissons Ratio (z) = 0.93481 0.10760
#
# Static dielectric constant tensor:
#      x y z
#    x 1.628920 0.000000 0.000000 
#    y 0.000000 1.629970 0.000000 
#    z 0.000000 0.000000 1.607250 
# 
# From -- ./inp_files/9848.got.cif
#   From: 2010.05.17/outbox.cif.g08.bks.cpg/sg74_5_cif.got.tgz:9848.got - 2010.06.03 17:57:02.
