data_PCOD9534192
_publ_section_title
;
Structure prediction by ZEFSAII (Michael W. Deem and Ramdas Pophale) SiO2 
 PCOD9534192
Probable space group: I M M A
;
_chemical_formula_sum "Si O2"
_cell_formula_units_Z 88
_cell_length_a 32.747464
_cell_length_b 7.361923
_cell_length_c 16.082493
_cell_angle_alpha 90.000000
_cell_angle_beta 90.000000
_cell_angle_gamma 90.000000
_cell_volume 3877.236702
_symmetry_space_group_name_H-M "I M M A"
_symmetry_group_IT_number 74
_symmetry_cell_setting 'orthorhombic'
loop_
_space_group_symop_operation_xyz
x,y,z
-x,1/2-y,z
x,-y,-z
-x,1/2+y,-z
-x,-y,-z
x,1/2+y,-z
-x,y,z
x,1/2-y,z
1/2+x,1/2+y,1/2+z
1/2-x,-y,1/2+z
1/2+x,1/2-y,1/2-z
1/2-x,y,1/2-z
1/2-x,1/2-y,1/2-z
1/2+x,y,1/2-z
1/2-x,1/2+y,1/2+z
1/2+x,-y,1/2+z
loop_
_atom_site_type_symbol
_atom_site_label
_atom_site_fract_x
_atom_site_fract_y
_atom_site_fract_z
Si Si1 0.000000 0.032980 0.099476
Si Si2 0.417130 0.032721 0.091124
Si Si3 0.927822 0.527175 0.779243
Si Si4 0.236778 0.466076 0.091355
Si Si5 0.673285 0.456666 0.109550
Si Si6 0.162502 0.956763 0.805732
O O1 0.961066 0.968538 0.153271
O O2 0.000000 0.250000 0.106974
O O3 0.000000 0.000000 0.000000
O O4 0.414473 0.250000 0.098922
O O5 0.434634 0.972520 0.181634
O O6 0.370416 0.959877 0.086300
O O7 0.436829 0.000000 0.000000
O O8 0.927211 0.750000 0.778235
O O9 0.882974 0.464995 0.809164
O O10 0.241547 0.250000 0.109699
O O11 0.282835 0.542109 0.091237
O O12 0.202463 0.540309 0.152760
O O13 0.220041 0.500000 0.000000
O O14 0.673564 0.250000 0.075201
O O15 0.671547 0.445466 0.208531
O O16 0.159422 0.750000 0.839633
#
# Coordination Sequence:
#
# PCOD9534192 Si02
#       6
#     8  16  16  16  16  16
#     4  10  20  36  57  76  94 120 155 192 231 274
#     4   9  16  28  47  70  96 125 155 186 223 269
#     4   8  16  31  50  71  94 121 153 188 228 278
#     4  10  18  26  39  60  85 112 144 184 225 262
#     4   8  14  25  42  62  83 113 154 189 214 252
#     4   8  14  26  44  63  82 110 150 187 215 254
#
# _framework density 22.696577000000001
#
# number of rings (size 3 to 8) (size 9 to 14) (size 15 to 20)
#    0.000    3.273    0.000    3.273    0.000    2.909 
#    0.000    1.364    0.000    6.545    0.000    0.000 
#    0.000    0.000    0.000    0.000    0.000    0.000 
#
# Total GULP energy -244976.938972 kJ/mol
# GULP energy per Si atom -5567.657704 kJ/mol
# Density = 2.264492 g / cm^3
# Si number density = 22.696577 Si / 1000 Ang^3
#
#
#
# Elastic Constant Matrix: (Units=GPa)
#
#
# Indices 1 2 3 4 5 6 
#
# 1 92.6593 8.7389 81.0090 0.0000 0.0000 0.0000
# 2 8.7389 85.9544 2.1671 0.0000 0.0000 0.0000
# 3 81.0090 2.1671 149.4456 0.0000 0.0000 0.0000
# 4 0.0000 0.0000 0.0000 16.8211 0.0000 0.0000
# 5 0.0000 0.0000 0.0000 0.0000 48.9537 0.0000
# 6 0.0000 0.0000 0.0000 0.0000 0.0000 -34.8347
#
#
#
# Elastic Compliance Matrix: (Units=1/GPa)
#
#
# Indices 1 2 3 4 5 6 
#
# 1 0.020798 -0.001831 -0.011247 0.000000 0.000000 0.000000
# 2 -0.001831 0.011800 0.000821 0.000000 0.000000 0.000000
# 3 -0.011247 0.000821 0.012776 0.000000 0.000000 0.000000
# 4 0.000000 0.000000 0.000000 0.059449 0.000000 0.000000
# 5 0.000000 0.000000 0.000000 0.000000 0.020427 0.000000
# 6 0.000000 0.000000 0.000000 0.000000 0.000000 -0.028707
#
#
# Mechanical properties :
#
#
# Convention : Reuss Voigt Hill
#
# Bulk Modulus (GPa) = 47.93847 56.87658 52.40752
# Shear Modulus (GPa) = 39.05931 21.93099 30.49515
#
# Velocity S-wave (km/s) = 4.15291 3.11186 3.66949
# Velocity P-wave (km/s) = 6.64552 6.16648 6.41048
#
# Compressibility (1/GPa) = 0.02086007
#
# Stress axis : x y z
#
# Youngs Moduli (GPa) = 48.08144 84.74921 78.27030
#
# Poissons Ratio (x) = 0.15517 0.88033
# Poissons Ratio (y) = 0.08803 -0.06429
# Poissons Ratio (z) = 0.54079 -0.06961
#
# Static dielectric constant tensor:
#      x y z
#    x 1.865010 0.000000 0.000000 
#    y 0.000000 1.957060 0.000000 
#    z 0.000000 0.000000 1.830410 
# 
# From -- ./inp_files/37733.got.cif
#   From: 2010.05.17/outbox.cif.g08.bks.cpg/sg74_19_cif.got.tgz:37733.got - 2010.06.03 17:57:02.
