data_PCOD9534073
_publ_section_title
;
Structure prediction by ZEFSAII (Michael W. Deem and Ramdas Pophale) SiO2 
 PCOD9534073
Probable space group: I M M A
;
_chemical_formula_sum "Si O2"
_cell_formula_units_Z 64
_cell_length_a 25.567549
_cell_length_b 15.459929
_cell_length_c 7.338030
_cell_angle_alpha 90.000000
_cell_angle_beta 90.000000
_cell_angle_gamma 90.000000
_cell_volume 2900.521406
_symmetry_space_group_name_H-M "I M M A"
_symmetry_group_IT_number 74
_symmetry_cell_setting 'orthorhombic'
loop_
_space_group_symop_operation_xyz
x,y,z
-x,1/2-y,z
x,-y,-z
-x,1/2+y,-z
-x,-y,-z
x,1/2+y,-z
-x,y,z
x,1/2-y,z
1/2+x,1/2+y,1/2+z
1/2-x,-y,1/2+z
1/2+x,1/2-y,1/2-z
1/2-x,y,1/2-z
1/2-x,1/2-y,1/2-z
1/2+x,y,1/2-z
1/2-x,1/2+y,1/2+z
1/2+x,-y,1/2+z
loop_
_atom_site_type_symbol
_atom_site_label
_atom_site_fract_x
_atom_site_fract_y
_atom_site_fract_z
Si Si1 0.808349 0.750000 0.472157
Si Si2 0.113676 0.097300 0.966607
Si Si3 0.311487 0.750000 0.473775
Si Si4 0.000000 0.396968 0.532197
Si Si5 0.613590 0.602451 0.031793
Si Si6 0.500000 0.146863 0.536839
O O1 0.748496 0.750000 0.533121
O O2 0.808992 0.750000 0.249132
O O3 0.840309 0.664892 0.531321
O O4 0.155106 0.167051 0.034348
O O5 0.110641 0.112019 0.750003
O O6 0.054391 0.109259 0.038598
O O7 0.131056 0.000000 0.000000
O O8 0.000000 0.500000 0.500000
O O9 0.943528 0.367383 0.460283
O O10 0.000000 0.375386 0.747260
O O11 0.621329 0.500000 0.000000
O O12 0.500000 0.250000 0.516559
#
# Coordination Sequence:
#
# PCOD9534073 Si02
#       6
#     8  16   8   8  16   8
#     4   9  18  31  52  70  97 129 168 206 238 283
#     4  10  19  32  52  75  99 129 161 204 247 288
#     4   9  18  33  48  74  97 127 170 206 236 289
#     4   8  16  27  46  75 100 121 157 202 239 281
#     4   9  18  32  50  74  99 127 163 201 244 293
#     4  10  17  29  52  76  98 130 169 200 240 300
#
# _framework density 22.064997000000002
#
# number of rings (size 3 to 8) (size 9 to 14) (size 15 to 20)
#    0.000    2.750    1.250    0.375    5.250    1.000 
#    0.000    1.250    0.000    1.500    0.000    0.000 
#    0.000    0.000    0.000    0.000    0.000    0.000 
#
# Total GULP energy -178639.845827 kJ/mol
# GULP energy per Si atom -5582.495182 kJ/mol
# Density = 2.201478 g / cm^3
# Si number density = 22.064997 Si / 1000 Ang^3
#
#
#
# Elastic Constant Matrix: (Units=GPa)
#
#
# Indices 1 2 3 4 5 6 
#
# 1 252.1538 119.4863 6.8876 0.0000 0.0000 0.0000
# 2 119.4863 164.9573 -9.5167 0.0000 0.0000 0.0000
# 3 6.8876 -9.5167 80.2582 0.0000 0.0000 0.0000
# 4 0.0000 0.0000 0.0000 14.9685 0.0000 0.0000
# 5 0.0000 0.0000 0.0000 0.0000 -8.3070 0.0000
# 6 0.0000 0.0000 0.0000 0.0000 0.0000 11.9123
#
#
#
# Elastic Compliance Matrix: (Units=1/GPa)
#
#
# Indices 1 2 3 4 5 6 
#
# 1 0.006127 -0.004499 -0.001059 0.000000 0.000000 0.000000
# 2 -0.004499 0.009408 0.001502 0.000000 0.000000 0.000000
# 3 -0.001059 0.001502 0.012729 0.000000 0.000000 0.000000
# 4 0.000000 0.000000 0.000000 0.066807 0.000000 0.000000
# 5 0.000000 0.000000 0.000000 0.000000 -0.120381 0.000000
# 6 0.000000 0.000000 0.000000 0.000000 0.000000 0.083947
#
#
# Mechanical properties :
#
#
# Convention : Reuss Voigt Hill
#
# Bulk Modulus (GPa) = 49.62817 81.23151 65.42984
# Shear Modulus (GPa) = 68.05905 29.08226 48.57066
#
# Velocity S-wave (km/s) = 5.55983 3.63440 4.69684
# Velocity P-wave (km/s) = 7.98476 7.38285 7.68969
#
# Compressibility (1/GPa) = 0.02014985
#
# Stress axis : x y z
#
# Youngs Moduli (GPa) = 163.22178 106.29731 78.56239
#
# Poissons Ratio (x) = 0.47822 0.08322
# Poissons Ratio (y) = 0.73432 -0.11797
# Poissons Ratio (z) = 0.17289 -0.15962
#
# Static dielectric constant tensor:
#      x y z
#    x 1.809780 0.000000 0.000000 
#    y 0.000000 1.717860 0.000000 
#    z 0.000000 0.000000 1.831030 
# 
# From -- ./inp_files/8912.got.cif
#   From: 2010.05.17/outbox.cif.g08.bks.cpg/sg74_5_cif.got.tgz:8912.got - 2010.06.03 17:57:02.
