data_PCOD9534835
_publ_section_title
;
Structure prediction by ZEFSAII (Michael W. Deem and Ramdas Pophale) SiO2 
 PCOD9534835
Probable space group: I M M A
;
_chemical_formula_sum "Si O2"
_cell_formula_units_Z 104
_cell_length_a 8.540516
_cell_length_b 25.472348
_cell_length_c 33.761265
_cell_angle_alpha 90.000000
_cell_angle_beta 90.000000
_cell_angle_gamma 90.000000
_cell_volume 7344.661770
_symmetry_space_group_name_H-M "I M M A"
_symmetry_group_IT_number 74
_symmetry_cell_setting 'orthorhombic'
loop_
_space_group_symop_operation_xyz
x,y,z
-x,1/2-y,z
x,-y,-z
-x,1/2+y,-z
-x,-y,-z
x,1/2+y,-z
-x,y,z
x,1/2-y,z
1/2+x,1/2+y,1/2+z
1/2-x,-y,1/2+z
1/2+x,1/2-y,1/2-z
1/2-x,y,1/2-z
1/2-x,1/2-y,1/2-z
1/2+x,y,1/2-z
1/2-x,1/2+y,1/2+z
1/2+x,-y,1/2+z
loop_
_atom_site_type_symbol
_atom_site_label
_atom_site_fract_x
_atom_site_fract_y
_atom_site_fract_z
Si Si1 0.690245 0.692644 0.413347
Si Si2 0.688353 0.807632 0.506278
Si Si3 0.688182 0.918613 0.982815
Si Si4 0.310708 0.522068 0.062522
Si Si5 0.813108 0.250000 0.795101
Si Si6 0.812295 0.411512 0.868194
Si Si7 0.685991 0.638379 0.205481
O O1 0.500000 0.692358 0.411221
O O2 0.742268 0.750000 0.398226
O O3 0.732509 0.689603 0.459693
O O4 0.745739 0.641223 0.390884
O O5 0.500000 0.808694 0.508047
O O6 0.740423 0.750000 0.521128
O O7 0.752073 0.860433 0.525651
O O8 0.500000 0.918007 0.983611
O O9 0.735548 0.963798 0.951804
O O10 0.739730 0.939132 0.026474
O O11 0.500000 0.524060 0.064590
O O12 0.240633 0.541099 0.103796
O O13 0.750000 0.250000 0.750000
O O14 0.753392 0.305864 0.810651
O O15 0.000000 0.250000 0.796433
O O16 0.741338 0.406647 0.824503
O O17 0.000000 0.410362 0.865593
O O18 0.500000 0.642112 0.207072
O O19 0.750000 0.630986 0.250000
#
# Coordination Sequence:
#
# PCOD9534835 Si02
#       7
#    16  16  16  16   8  16  16
#     4   8  15  26  38  55  79 105 132 167 211 252
#     4   9  16  27  42  60  82 108 137 173 213 252
#     4   9  17  29  44  59  82 112 141 173 212 250
#     4   9  18  31  43  59  83 111 139 175 215 250
#     4  10  18  32  50  66  82 104 134 170 212 262
#     4  11  20  30  47  66  81 105 139 175 216 261
#     4  11  22  36  49  63  82 106 135 172 215 262
#
# _framework density 14.159943999999999
#
# number of rings (size 3 to 8) (size 9 to 14) (size 15 to 20)
#    0.000    2.462    1.538    5.308    1.077    0.923 
#    0.000    1.538    0.000    0.000    0.000    0.000 
#    0.000    0.000    0.000    0.000    0.000    0.769 
#
# Total GULP energy -289844.542433 kJ/mol
# GULP energy per Si atom -5573.933508 kJ/mol
# Density = 1.412772 g / cm^3
# Si number density = 14.159944 Si / 1000 Ang^3
#
#
#
# Elastic Constant Matrix: (Units=GPa)
#
#
# Indices 1 2 3 4 5 6 
#
# 1 52.5309 24.0732 25.6750 0.0000 0.0000 0.0000
# 2 24.0732 103.0012 42.0034 0.0000 0.0000 0.0000
# 3 25.6750 42.0034 67.5715 0.0000 0.0000 0.0000
# 4 0.0000 0.0000 0.0000 23.8557 0.0000 0.0000
# 5 0.0000 0.0000 0.0000 0.0000 15.0184 0.0000
# 6 0.0000 0.0000 0.0000 0.0000 0.0000 21.0432
#
#
#
# Elastic Compliance Matrix: (Units=1/GPa)
#
#
# Indices 1 2 3 4 5 6 
#
# 1 0.023855 -0.002517 -0.007500 0.000000 0.000000 0.000000
# 2 -0.002517 0.013271 -0.007293 0.000000 0.000000 0.000000
# 3 -0.007500 -0.007293 0.022182 0.000000 0.000000 0.000000
# 4 0.000000 0.000000 0.000000 0.041919 0.000000 0.000000
# 5 0.000000 0.000000 0.000000 0.000000 0.066585 0.000000
# 6 0.000000 0.000000 0.000000 0.000000 0.000000 0.047521
#
#
# Mechanical properties :
#
#
# Convention : Reuss Voigt Hill
#
# Bulk Modulus (GPa) = 40.50369 45.17855 42.84112
# Shear Modulus (GPa) = 19.36613 20.74026 20.05319
#
# Velocity S-wave (km/s) = 3.70221 3.83131 3.76731
# Velocity P-wave (km/s) = 6.85140 7.17963 7.01743
#
# Compressibility (1/GPa) = 0.02468911
#
# Stress axis : x y z
#
# Youngs Moduli (GPa) = 41.91907 75.35250 45.08125
#
# Poissons Ratio (x) = 0.18967 0.33809
# Poissons Ratio (y) = 0.10552 0.32878
# Poissons Ratio (z) = 0.31438 0.54954
#
# Static dielectric constant tensor:
#      x y z
#    x 1.482410 0.000000 0.000000 
#    y 0.000000 1.487240 0.000000 
#    z 0.000000 0.000000 1.467240 
# 
# From -- ./inp_files/70828.got.cif
#   From: 2010.05.17/outbox.cif.g08.bks.cpg/sg74_36_cif.got.tgz:70828.got - 2010.06.03 17:57:02.
