data_PCOD9534488
_publ_section_title
;
Structure prediction by ZEFSAII (Michael W. Deem and Ramdas Pophale) SiO2 
 PCOD9534488
Probable space group: I M M A
;
_chemical_formula_sum "Si O2"
_cell_formula_units_Z 120
_cell_length_a 7.280390
_cell_length_b 24.129855
_cell_length_c 31.483355
_cell_angle_alpha 90.000000
_cell_angle_beta 90.000000
_cell_angle_gamma 90.000000
_cell_volume 5530.830678
_symmetry_space_group_name_H-M "I M M A"
_symmetry_group_IT_number 74
_symmetry_cell_setting 'orthorhombic'
loop_
_space_group_symop_operation_xyz
x,y,z
-x,1/2-y,z
x,-y,-z
-x,1/2+y,-z
-x,-y,-z
x,1/2+y,-z
-x,y,z
x,1/2-y,z
1/2+x,1/2+y,1/2+z
1/2-x,-y,1/2+z
1/2+x,1/2-y,1/2-z
1/2-x,y,1/2-z
1/2-x,1/2-y,1/2-z
1/2+x,y,1/2-z
1/2-x,1/2+y,1/2+z
1/2+x,-y,1/2+z
loop_
_atom_site_type_symbol
_atom_site_label
_atom_site_fract_x
_atom_site_fract_y
_atom_site_fract_z
Si Si1 0.277004 0.688128 0.074751
Si Si2 0.275662 0.864624 0.158331
Si Si3 0.213903 0.834778 0.518682
Si Si4 0.724729 0.566610 0.868521
Si Si5 0.217905 0.750000 0.299951
Si Si6 0.224118 0.809912 0.612311
Si Si7 0.281290 0.521248 0.199935
Si Si8 0.286031 0.535762 0.961460
O O1 0.500000 0.685258 0.073098
O O2 0.230353 0.750000 0.090113
O O3 0.220370 0.642648 0.109133
O O4 0.208414 0.681301 0.026856
O O5 0.500000 0.865373 0.159511
O O6 0.213800 0.808116 0.181215
O O7 0.211993 0.920156 0.181483
O O8 0.286517 0.812019 0.563078
O O9 0.219660 0.900852 0.523233
O O10 0.000000 0.817537 0.517758
O O11 0.500000 0.567339 0.869977
O O12 0.781462 0.631306 0.867679
O O13 0.784897 0.529944 0.828738
O O14 0.785161 0.538368 0.913125
O O15 0.250000 0.750000 0.250000
O O16 0.000000 0.750000 0.308825
O O17 0.278620 0.750000 0.630710
O O18 0.000000 0.811112 0.612139
O O19 0.500000 0.522261 0.194003
O O20 0.250000 0.515826 0.250000
O O21 0.500000 0.517941 0.957329
O O22 0.205758 0.500000 0.000000
#
# Coordination Sequence:
#
# PCOD9534488 Si02
#       8
#    16  16  16  16   8  16  16  16
#     4   9  14  20  30  47  73 105 139 169 199 239
#     4   9  17  27  39  56  78 106 139 176 214 251
#     4   8  13  17  25  44  71 106 142 166 189 233
#     4   8  15  25  37  56  80 108 140 173 209 252
#     4  10  18  30  44  58  76 100 134 176 218 254
#     4   8  12  20  33  51  77 109 142 168 195 244
#     4  10  20  33  48  64  84 111 144 180 219 259
#     4   8  13  19  28  46  74 107 137 164 199 245
#
# _framework density 21.696560000000002
#
# number of rings (size 3 to 8) (size 9 to 14) (size 15 to 20)
#    0.000    3.333    0.667    2.400    1.867    1.600 
#    0.000    0.000    0.000    0.400    0.000    0.000 
#    0.000    0.533    0.000    0.000    0.533    1.333 
#
# Total GULP energy -334610.967897 kJ/mol
# GULP energy per Si atom -5576.849465 kJ/mol
# Density = 2.164718 g / cm^3
# Si number density = 21.696560 Si / 1000 Ang^3
#
#
#
# Elastic Constant Matrix: (Units=GPa)
#
#
# Indices 1 2 3 4 5 6 
#
# 1 90.6906 11.9012 1.4936 0.0000 0.0000 0.0000
# 2 11.9012 163.9547 102.5570 0.0000 0.0000 0.0000
# 3 1.4936 102.5570 143.2556 0.0000 0.0000 0.0000
# 4 0.0000 0.0000 0.0000 190.2765 0.0000 0.0000
# 5 0.0000 0.0000 0.0000 0.0000 -8.5334 0.0000
# 6 0.0000 0.0000 0.0000 0.0000 0.0000 -13.7694
#
#
#
# Elastic Compliance Matrix: (Units=1/GPa)
#
#
# Indices 1 2 3 4 5 6 
#
# 1 0.011188 -0.001339 0.000842 0.000000 0.000000 0.000000
# 2 -0.001339 0.011206 -0.008008 0.000000 0.000000 0.000000
# 3 0.000842 -0.008008 0.012705 0.000000 0.000000 0.000000
# 4 0.000000 0.000000 0.000000 0.005256 0.000000 0.000000
# 5 0.000000 0.000000 0.000000 0.000000 -0.117187 0.000000
# 6 0.000000 0.000000 0.000000 0.000000 0.000000 -0.072625
#
#
# Mechanical properties :
#
#
# Convention : Reuss Voigt Hill
#
# Bulk Modulus (GPa) = 55.28373 69.97828 62.63101
# Shear Modulus (GPa) = -39.55161 52.39135 6.41987
#
# Velocity S-wave (km/s) = -4.27423 4.91932 1.72202
# Velocity P-wave (km/s) = 1.08492 8.03676 5.73439
#
# Compressibility (1/GPa) = 0.01808851
#
# Stress axis : x y z
#
# Youngs Moduli (GPa) = 89.37907 89.24003 78.70995
#
# Poissons Ratio (x) = 0.11946 -0.06625
# Poissons Ratio (y) = 0.11964 0.63033
# Poissons Ratio (z) = -0.07523 0.71466
#
# Static dielectric constant tensor:
#      x y z
#    x 1.637910 0.000000 0.000000 
#    y 0.000000 1.782150 0.000000 
#    z 0.000000 0.000000 1.765880 
# 
# From -- ./inp_files/72148.got.cif
#   From: 2010.05.17/outbox.cif.g08.bks.cpg/sg74_37_cif.got.tgz:72148.got - 2010.06.03 17:57:02.
