data_PCOD9534320
_publ_section_title
;
Structure prediction by ZEFSAII (Michael W. Deem and Ramdas Pophale) SiO2 
 PCOD9534320
Probable space group: I M M A
;
_chemical_formula_sum "Si O2"
_cell_formula_units_Z 80
_cell_length_a 8.664086
_cell_length_b 25.892716
_cell_length_c 20.846297
_cell_angle_alpha 90.000000
_cell_angle_beta 90.000000
_cell_angle_gamma 90.000000
_cell_volume 4676.589856
_symmetry_space_group_name_H-M "I M M A"
_symmetry_group_IT_number 74
_symmetry_cell_setting 'orthorhombic'
loop_
_space_group_symop_operation_xyz
x,y,z
-x,1/2-y,z
x,-y,-z
-x,1/2+y,-z
-x,-y,-z
x,1/2+y,-z
-x,y,z
x,1/2-y,z
1/2+x,1/2+y,1/2+z
1/2-x,-y,1/2+z
1/2+x,1/2-y,1/2-z
1/2-x,y,1/2-z
1/2-x,1/2-y,1/2-z
1/2+x,y,1/2-z
1/2-x,1/2+y,1/2+z
1/2+x,-y,1/2+z
loop_
_atom_site_type_symbol
_atom_site_label
_atom_site_fract_x
_atom_site_fract_y
_atom_site_fract_z
Si Si1 0.814860 0.141285 0.638699
Si Si2 0.315303 0.969013 0.933701
Si Si3 0.317022 0.533515 0.316452
Si Si4 0.683285 0.250000 0.640031
Si Si5 0.812937 0.250000 0.495253
Si Si6 0.186813 0.361944 0.487823
O O1 0.752278 0.090732 0.673252
O O2 0.750549 0.195667 0.664855
O O3 0.768852 0.135180 0.563129
O O4 0.000000 0.142663 0.641373
O O5 0.500000 0.968715 0.921157
O O6 0.258298 0.910813 0.947472
O O7 0.233975 0.998228 0.875916
O O8 0.292615 0.000000 0.000000
O O9 0.500000 0.537075 0.313186
O O10 0.250000 0.512361 0.250000
O O11 0.500000 0.250000 0.645662
O O12 0.736994 0.250000 0.565454
O O13 0.770414 0.195370 0.463892
O O14 0.000000 0.250000 0.504373
O O15 0.000000 0.365298 0.487489
#
# Coordination Sequence:
#
# PCOD9534320 Si02
#       6
#    16  16  16   8   8  16
#     4  10  18  34  54  74 101 140 180 218 262 315
#     4  10  18  33  55  79 107 141 178 217 264 317
#     4  12  25  39  54  76 105 140 178 223 271 321
#     4  10  18  28  45  75 106 137 175 221 263 303
#     4   8  14  26  44  71 104 141 178 211 255 313
#     4   8  14  26  49  76 103 136 174 213 255 307
#
# _framework density 17.106480999999999
#
# number of rings (size 3 to 8) (size 9 to 14) (size 15 to 20)
#    0.000    2.200    2.000    4.500    0.000    0.400 
#    0.000    1.500    0.000    0.000    0.000    0.700 
#    0.000    0.000    0.000    0.000    0.000    0.000 
#
# Total GULP energy -223078.217231 kJ/mol
# GULP energy per Si atom -5576.955431 kJ/mol
# Density = 1.706755 g / cm^3
# Si number density = 17.106481 Si / 1000 Ang^3
#
#
#
# Elastic Constant Matrix: (Units=GPa)
#
#
# Indices 1 2 3 4 5 6 
#
# 1 70.9411 38.6136 33.6838 0.0000 0.0000 0.0000
# 2 38.6136 122.6698 37.0558 0.0000 0.0000 0.0000
# 3 33.6838 37.0558 65.1347 0.0000 0.0000 0.0000
# 4 0.0000 0.0000 0.0000 6.5202 0.0000 0.0000
# 5 0.0000 0.0000 0.0000 0.0000 19.0848 0.0000
# 6 0.0000 0.0000 0.0000 0.0000 0.0000 20.8654
#
#
#
# Elastic Compliance Matrix: (Units=1/GPa)
#
#
# Indices 1 2 3 4 5 6 
#
# 1 0.020081 -0.003845 -0.008197 0.000000 0.000000 0.000000
# 2 -0.003845 0.010580 -0.004031 0.000000 0.000000 0.000000
# 3 -0.008197 -0.004031 0.021885 0.000000 0.000000 0.000000
# 4 0.000000 0.000000 0.000000 0.153371 0.000000 0.000000
# 5 0.000000 0.000000 0.000000 0.000000 0.052398 0.000000
# 6 0.000000 0.000000 0.000000 0.000000 0.000000 0.047926
#
#
# Mechanical properties :
#
#
# Convention : Reuss Voigt Hill
#
# Bulk Modulus (GPa) = 49.01892 53.05022 51.03457
# Shear Modulus (GPa) = 14.48491 19.25356 16.86924
#
# Velocity S-wave (km/s) = 2.91305 3.35851 3.14368
# Velocity P-wave (km/s) = 6.32708 6.79106 6.56317
#
# Compressibility (1/GPa) = 0.02040028
#
# Stress axis : x y z
#
# Youngs Moduli (GPa) = 49.79780 94.51986 45.69316
#
# Poissons Ratio (x) = 0.36341 0.37457
# Poissons Ratio (y) = 0.19146 0.18417
# Poissons Ratio (z) = 0.40822 0.38097
#
# Static dielectric constant tensor:
#      x y z
#    x 1.572080 0.000000 0.000000 
#    y 0.000000 1.625090 0.000000 
#    z 0.000000 0.000000 1.572120 
# 
# From -- ./inp_files/39797.got.cif
#   From: 2010.05.17/outbox.cif.g08.bks.cpg/sg74_20_cif.got.tgz:39797.got - 2010.06.03 17:57:02.
