data_PCOD9534221
_publ_section_title
;
Structure prediction by ZEFSAII (Michael W. Deem and Ramdas Pophale) SiO2 
 PCOD9534221
Probable space group: I M M A
;
_chemical_formula_sum "Si O2"
_cell_formula_units_Z 96
_cell_length_a 13.853819
_cell_length_b 14.103165
_cell_length_c 18.066476
_cell_angle_alpha 90.000000
_cell_angle_beta 90.000000
_cell_angle_gamma 90.000000
_cell_volume 3529.876774
_symmetry_space_group_name_H-M "I M M A"
_symmetry_group_IT_number 74
_symmetry_cell_setting 'orthorhombic'
loop_
_space_group_symop_operation_xyz
x,y,z
-x,1/2-y,z
x,-y,-z
-x,1/2+y,-z
-x,-y,-z
x,1/2+y,-z
-x,y,z
x,1/2-y,z
1/2+x,1/2+y,1/2+z
1/2-x,-y,1/2+z
1/2+x,1/2-y,1/2-z
1/2-x,y,1/2-z
1/2-x,1/2-y,1/2-z
1/2+x,y,1/2-z
1/2-x,1/2+y,1/2+z
1/2+x,-y,1/2+z
loop_
_atom_site_type_symbol
_atom_site_label
_atom_site_fract_x
_atom_site_fract_y
_atom_site_fract_z
Si Si1 0.885659 0.362684 0.799096
Si Si2 0.313655 0.856148 0.841883
Si Si3 0.611700 0.643151 0.006557
Si Si4 0.383513 0.140776 0.543144
Si Si5 0.611349 0.051329 0.847725
Si Si6 0.892393 0.134491 0.122213
O O1 0.878654 0.250000 0.805708
O O2 0.850821 0.402761 0.878336
O O3 0.844373 0.391103 0.719771
O O4 0.000000 0.387064 0.794190
O O5 0.336286 0.750000 0.814339
O O6 0.201824 0.882564 0.828407
O O7 0.380978 0.943064 0.822404
O O8 0.329094 0.852798 0.931101
O O9 0.500000 0.619985 0.985836
O O10 0.611470 0.750000 0.038543
O O11 0.649361 0.573327 0.069912
O O12 0.500000 0.147147 0.550211
O O13 0.345892 0.250000 0.539595
O O14 0.372205 0.098443 0.461403
O O15 0.500000 0.080171 0.856664
O O16 0.896243 0.250000 0.117026
O O17 0.000000 0.103283 0.145298
#
# Coordination Sequence:
#
# PCOD9534221 Si02
#       6
#    16  16  16  16  16  16
#     4   8  13  22  39  65  94 122 154 194 239 286
#     4  10  19  28  40  61  92 128 160 190 228 280
#     4   9  17  29  44  61  83 117 161 201 236 278
#     4   7  10  19  38  63  88 114 148 192 241 289
#     4  10  18  27  41  62  92 129 161 189 228 282
#     4   8  14  26  44  64  87 119 158 199 242 284
#
# _framework density 27.196417
#
# number of rings (size 3 to 8) (size 9 to 14) (size 15 to 20)
#    0.000    3.333    0.000    3.500    0.000    4.333 
#    0.000    0.000    0.000    3.000    0.000    5.833 
#    0.000    7.333    0.000   24.667    0.000   17.500 
#
# Total GULP energy -268388.742579 kJ/mol
# GULP energy per Si atom -5591.432137 kJ/mol
# Density = 2.713452 g / cm^3
# Si number density = 27.196417 Si / 1000 Ang^3
#
#
#
# Elastic Constant Matrix: (Units=GPa)
#
#
# Indices 1 2 3 4 5 6 
#
# 1 94.9222 -18.3608 3.5521 0.0000 0.0000 0.0000
# 2 -18.3608 82.6917 17.8590 0.0000 0.0000 0.0000
# 3 3.5521 17.8590 101.9971 0.0000 0.0000 0.0000
# 4 0.0000 0.0000 0.0000 35.9906 0.0000 0.0000
# 5 0.0000 0.0000 0.0000 0.0000 -17.0610 0.0000
# 6 0.0000 0.0000 0.0000 0.0000 0.0000 -15.1953
#
#
#
# Elastic Compliance Matrix: (Units=1/GPa)
#
#
# Indices 1 2 3 4 5 6 
#
# 1 0.011078 0.002643 -0.000849 0.000000 0.000000 0.000000
# 2 0.002643 0.013199 -0.002403 0.000000 0.000000 0.000000
# 3 -0.000849 -0.002403 0.010255 0.000000 0.000000 0.000000
# 4 0.000000 0.000000 0.000000 0.027785 0.000000 0.000000
# 5 0.000000 0.000000 0.000000 0.000000 -0.058613 0.000000
# 6 0.000000 0.000000 0.000000 0.000000 0.000000 -0.065810
#
#
# Mechanical properties :
#
#
# Convention : Reuss Voigt Hill
#
# Bulk Modulus (GPa) = 30.01731 31.74573 30.88152
# Shear Modulus (GPa) = -100.43258 19.18425 -40.62416
#
# Velocity S-wave (km/s) = -6.08348 2.65881 -3.86908
# Velocity P-wave (km/s) = 6.18739 4.59606 2.92917
#
# Compressibility (1/GPa) = 0.03331411
#
# Stress axis : x y z
#
# Youngs Moduli (GPa) = 90.26950 75.76354 97.51803
#
# Poissons Ratio (x) = -0.20024 0.08275
# Poissons Ratio (y) = -0.23858 0.23434
# Poissons Ratio (z) = 0.07660 0.18207
#
# Static dielectric constant tensor:
#      x y z
#    x 2.096660 0.000000 0.000000 
#    y 0.000000 2.101700 0.000000 
#    z 0.000000 0.000000 2.163570 
# 
# From -- ./inp_files/51876.got.cif
#   From: 2010.05.17/outbox.cif.g08.bks.cpg/sg74_26_cif.got.tgz:51876.got - 2010.06.03 17:57:02.
