data_PCOD9534523
_publ_section_title
;
Structure prediction by ZEFSAII (Michael W. Deem and Ramdas Pophale) SiO2 
 PCOD9534523
Probable space group: I M M A
;
_chemical_formula_sum "Si O2"
_cell_formula_units_Z 80
_cell_length_a 14.090276
_cell_length_b 13.486453
_cell_length_c 19.212436
_cell_angle_alpha 90.000000
_cell_angle_beta 90.000000
_cell_angle_gamma 90.000000
_cell_volume 3650.897811
_symmetry_space_group_name_H-M "I M M A"
_symmetry_group_IT_number 74
_symmetry_cell_setting 'orthorhombic'
loop_
_space_group_symop_operation_xyz
x,y,z
-x,1/2-y,z
x,-y,-z
-x,1/2+y,-z
-x,-y,-z
x,1/2+y,-z
-x,y,z
x,1/2-y,z
1/2+x,1/2+y,1/2+z
1/2-x,-y,1/2+z
1/2+x,1/2-y,1/2-z
1/2-x,y,1/2-z
1/2-x,1/2-y,1/2-z
1/2+x,y,1/2-z
1/2-x,1/2+y,1/2+z
1/2+x,-y,1/2+z
loop_
_atom_site_type_symbol
_atom_site_label
_atom_site_fract_x
_atom_site_fract_y
_atom_site_fract_z
Si Si1 0.395261 0.425464 0.755377
Si Si2 0.000000 0.128342 0.964923
Si Si3 0.500000 0.366961 0.378639
Si Si4 0.362555 0.861615 0.745732
Si Si5 0.604862 0.637369 0.092037
Si Si6 0.807086 0.870371 0.113940
O O1 0.500000 0.408534 0.723941
O O2 0.391449 0.538277 0.784707
O O3 0.389662 0.359123 0.823568
O O4 0.321650 0.407553 0.693303
O O5 0.901859 0.101110 0.927262
O O6 0.000000 0.250000 0.964231
O O7 0.000000 0.091236 0.044533
O O8 0.500000 0.250000 0.389234
O O9 0.591847 0.384537 0.330109
O O10 0.394997 0.750000 0.765556
O O11 0.250000 0.858807 0.750000
O O12 0.500000 0.593650 0.074911
O O13 0.604182 0.750000 0.064517
O O14 0.709389 0.593048 0.077594
O O15 0.802542 0.750000 0.116558
#
# Coordination Sequence:
#
# PCOD9534523 Si02
#       6
#    16   8   8  16  16  16
#     4  11  19  29  47  70  99 130 165 212 250 293
#     4   9  18  31  51  75 102 137 166 200 248 295
#     4   9  18  35  53  75 102 125 161 208 253 299
#     4  10  20  34  52  71  93 125 159 199 254 306
#     4   9  18  29  44  69 100 136 170 204 244 286
#     4  10  18  30  46  69 102 136 170 201 239 294
#
# _framework density 21.912417999999999
#
# number of rings (size 3 to 8) (size 9 to 14) (size 15 to 20)
#    0.000    2.200    2.000    2.400    0.000    2.400 
#    0.000    2.000    0.000    0.000    2.600    0.000 
#    0.000    4.800    0.000    0.400    0.000    0.000 
#
# Total GULP energy -222701.797773 kJ/mol
# GULP energy per Si atom -5567.544944 kJ/mol
# Density = 2.186254 g / cm^3
# Si number density = 21.912418 Si / 1000 Ang^3
#
#
#
# Elastic Constant Matrix: (Units=GPa)
#
#
# Indices 1 2 3 4 5 6 
#
# 1 214.2974 0.0719 34.6193 0.0000 0.0000 0.0000
# 2 0.0719 79.7388 9.0495 0.0000 0.0000 0.0000
# 3 34.6193 9.0495 46.8326 0.0000 0.0000 0.0000
# 4 0.0000 0.0000 0.0000 14.1825 0.0000 0.0000
# 5 0.0000 0.0000 0.0000 0.0000 3.6045 0.0000
# 6 0.0000 0.0000 0.0000 0.0000 0.0000 34.5888
#
#
#
# Elastic Compliance Matrix: (Units=1/GPa)
#
#
# Indices 1 2 3 4 5 6 
#
# 1 0.005315 0.000451 -0.004016 0.000000 0.000000 0.000000
# 2 0.000451 0.012860 -0.002818 0.000000 0.000000 0.000000
# 3 -0.004016 -0.002818 0.024866 0.000000 0.000000 0.000000
# 4 0.000000 0.000000 0.000000 0.070509 0.000000 0.000000
# 5 0.000000 0.000000 0.000000 0.000000 0.277430 0.000000
# 6 0.000000 0.000000 0.000000 0.000000 0.000000 0.028911
#
#
# Mechanical properties :
#
#
# Convention : Reuss Voigt Hill
#
# Bulk Modulus (GPa) = 33.03118 47.59447 40.31282
# Shear Modulus (GPa) = 11.29304 30.28371 20.78837
#
# Velocity S-wave (km/s) = 2.27264 3.72160 3.08344
# Velocity P-wave (km/s) = 4.68972 6.34307 5.57799
#
# Compressibility (1/GPa) = 0.03027443
#
# Stress axis : x y z
#
# Youngs Moduli (GPa) = 188.14489 77.75806 40.21558
#
# Poissons Ratio (x) = -0.03507 0.16151
# Poissons Ratio (y) = -0.08485 0.11334
# Poissons Ratio (z) = 0.75561 0.21915
#
# Static dielectric constant tensor:
#      x y z
#    x 1.921050 0.000000 0.000000 
#    y 0.000000 1.857670 0.000000 
#    z 0.000000 0.000000 1.763480 
# 
# From -- ./inp_files/42716.got.cif
#   From: 2010.05.17/outbox.cif.g08.bks.cpg/sg74_22_cif.got.tgz:42716.got - 2010.06.03 17:57:02.
