data_PCOD9534203
_publ_section_title
;
Structure prediction by ZEFSAII (Michael W. Deem and Ramdas Pophale) SiO2 
 PCOD9534203
Probable space group: I M M A
;
_chemical_formula_sum "Si O2"
_cell_formula_units_Z 80
_cell_length_a 9.001932
_cell_length_b 25.449133
_cell_length_c 20.752905
_cell_angle_alpha 90.000000
_cell_angle_beta 90.000000
_cell_angle_gamma 90.000000
_cell_volume 4754.311328
_symmetry_space_group_name_H-M "I M M A"
_symmetry_group_IT_number 74
_symmetry_cell_setting 'orthorhombic'
loop_
_space_group_symop_operation_xyz
x,y,z
-x,1/2-y,z
x,-y,-z
-x,1/2+y,-z
-x,-y,-z
x,1/2+y,-z
-x,y,z
x,1/2-y,z
1/2+x,1/2+y,1/2+z
1/2-x,-y,1/2+z
1/2+x,1/2-y,1/2-z
1/2-x,y,1/2-z
1/2-x,1/2-y,1/2-z
1/2+x,y,1/2-z
1/2-x,1/2+y,1/2+z
1/2+x,-y,1/2+z
loop_
_atom_site_type_symbol
_atom_site_label
_atom_site_fract_x
_atom_site_fract_y
_atom_site_fract_z
Si Si1 0.822974 0.357483 0.140064
Si Si2 0.174892 0.865130 0.013787
Si Si3 0.324259 0.250000 0.499050
Si Si4 0.824423 0.750000 0.640337
Si Si5 0.178135 0.526729 0.816427
Si Si6 0.676058 0.033045 0.935182
O O1 0.743155 0.304970 0.164993
O O2 0.778488 0.412072 0.172750
O O3 0.000000 0.350145 0.146799
O O4 0.793406 0.365101 0.063255
O O5 0.200536 0.804821 0.034875
O O6 0.270620 0.908027 0.050265
O O7 0.000000 0.877561 0.021307
O O8 0.500000 0.250000 0.478570
O O9 0.224880 0.250000 0.435009
O O10 0.000000 0.750000 0.647609
O O11 0.250000 0.508212 0.750000
O O12 0.238179 0.493220 0.876129
O O13 0.000000 0.524235 0.814225
O O14 0.500000 0.030915 0.923556
O O15 0.708855 0.000000 0.000000
#
# Coordination Sequence:
#
# PCOD9534203 Si02
#       6
#    16  16   8   8  16  16
#     4   9  18  33  51  70  99 138 176 214 262 317
#     4   9  16  30  52  76 103 137 177 214 259 313
#     4   8  16  30  46  71 106 139 170 209 261 317
#     4  10  18  26  45  73 100 131 172 221 262 301
#     4  11  23  39  57  76 103 140 179 221 270 320
#     4  11  22  34  52  80 111 139 176 222 263 310
#
# _framework density 16.826832
#
# number of rings (size 3 to 8) (size 9 to 14) (size 15 to 20)
#    0.000    2.200    2.000    3.300    0.000    5.600 
#    0.000    0.500    0.000    0.000    0.000    0.700 
#    0.000    0.000    0.000    0.000    0.000    0.000 
#
# Total GULP energy -223163.471727 kJ/mol
# GULP energy per Si atom -5579.086793 kJ/mol
# Density = 1.678853 g / cm^3
# Si number density = 16.826832 Si / 1000 Ang^3
#
#
#
# Elastic Constant Matrix: (Units=GPa)
#
#
# Indices 1 2 3 4 5 6 
#
# 1 49.8951 39.5301 40.4629 0.0000 0.0000 0.0000
# 2 39.5301 100.4023 38.0911 0.0000 0.0000 0.0000
# 3 40.4629 38.0911 68.8158 0.0000 0.0000 0.0000
# 4 0.0000 0.0000 0.0000 8.6269 0.0000 0.0000
# 5 0.0000 0.0000 0.0000 0.0000 16.8675 0.0000
# 6 0.0000 0.0000 0.0000 0.0000 0.0000 12.4054
#
#
#
# Elastic Compliance Matrix: (Units=1/GPa)
#
#
# Indices 1 2 3 4 5 6 
#
# 1 0.044638 -0.009642 -0.020909 0.000000 0.000000 0.000000
# 2 -0.009642 0.014690 -0.002462 0.000000 0.000000 0.000000
# 3 -0.020909 -0.002462 0.028189 0.000000 0.000000 0.000000
# 4 0.000000 0.000000 0.000000 0.115916 0.000000 0.000000
# 5 0.000000 0.000000 0.000000 0.000000 0.059286 0.000000
# 6 0.000000 0.000000 0.000000 0.000000 0.000000 0.080610
#
#
# Mechanical properties :
#
#
# Convention : Reuss Voigt Hill
#
# Bulk Modulus (GPa) = 46.53327 50.58680 48.56004
# Shear Modulus (GPa) = 12.00426 14.31523 13.15975
#
# Velocity S-wave (km/s) = 2.67385 2.91991 2.79958
# Velocity P-wave (km/s) = 6.10302 6.44176 6.27468
#
# Compressibility (1/GPa) = 0.02149000
#
# Stress axis : x y z
#
# Youngs Moduli (GPa) = 22.40259 68.07284 35.47505
#
# Poissons Ratio (x) = 0.65635 0.74176
# Poissons Ratio (y) = 0.21600 0.08734
# Poissons Ratio (z) = 0.46843 0.16760
#
# Static dielectric constant tensor:
#      x y z
#    x 1.556770 0.000000 0.000000 
#    y 0.000000 1.590310 0.000000 
#    z 0.000000 0.000000 1.552680 
# 
# From -- ./inp_files/39815.got.cif
#   From: 2010.05.17/outbox.cif.g08.bks.cpg/sg74_20_cif.got.tgz:39815.got - 2010.06.03 17:57:02.
