data_PCOD9534534
_publ_section_title
;
Structure prediction by ZEFSAII (Michael W. Deem and Ramdas Pophale) SiO2 
 PCOD9534534
Probable space group: I M M A
;
_chemical_formula_sum "Si O2"
_cell_formula_units_Z 88
_cell_length_a 12.718530
_cell_length_b 23.181685
_cell_length_c 15.427937
_cell_angle_alpha 90.000000
_cell_angle_beta 90.000000
_cell_angle_gamma 90.000000
_cell_volume 4548.725984
_symmetry_space_group_name_H-M "I M M A"
_symmetry_group_IT_number 74
_symmetry_cell_setting 'orthorhombic'
loop_
_space_group_symop_operation_xyz
x,y,z
-x,1/2-y,z
x,-y,-z
-x,1/2+y,-z
-x,-y,-z
x,1/2+y,-z
-x,y,z
x,1/2-y,z
1/2+x,1/2+y,1/2+z
1/2-x,-y,1/2+z
1/2+x,1/2-y,1/2-z
1/2-x,y,1/2-z
1/2-x,1/2-y,1/2-z
1/2+x,y,1/2-z
1/2-x,1/2+y,1/2+z
1/2+x,-y,1/2+z
loop_
_atom_site_type_symbol
_atom_site_label
_atom_site_fract_x
_atom_site_fract_y
_atom_site_fract_z
Si Si1 0.750000 0.842508 0.750000
Si Si2 0.128452 0.750000 0.070910
Si Si3 0.627214 0.250000 0.365208
Si Si4 0.875151 0.488199 0.794077
Si Si5 0.821236 0.058422 0.047301
Si Si6 0.375355 0.065217 0.139293
Si Si7 0.122873 0.126820 0.888614
O O1 0.681156 0.804044 0.683803
O O2 0.669721 0.880889 0.806563
O O3 0.167992 0.808824 0.116017
O O4 0.000000 0.750000 0.075223
O O5 0.152705 0.750000 0.967928
O O6 0.500000 0.250000 0.355751
O O7 0.857248 0.544317 0.855624
O O8 0.847076 0.508584 0.697401
O O9 0.833290 0.427784 0.833981
O O10 0.000000 0.480738 0.793149
O O11 0.695389 0.063392 0.053387
O O12 0.867921 0.108888 0.990122
O O13 0.854603 0.000000 0.000000
O O14 0.500000 0.067895 0.126863
O O15 0.000000 0.131039 0.866786
#
# Coordination Sequence:
#
# PCOD9534534 Si02
#       7
#     8   8   8  16  16  16  16
#     4  11  20  34  50  66  98 135 170 200 234 289
#     4   9  17  27  43  68 100 125 154 196 244 291
#     4  10  21  33  48  71  99 136 167 200 237 287
#     4   9  17  29  47  69  95 126 163 202 248 300
#     4  10  18  30  47  68  96 128 160 203 250 297
#     4  11  21  32  48  70  97 130 167 205 245 296
#     4   9  17  29  47  73 100 130 163 201 250 303
#
# _framework density 19.346074999999999
#
# number of rings (size 3 to 8) (size 9 to 14) (size 15 to 20)
#    0.000    2.182    1.818    2.182    0.000    2.545 
#    0.000    0.000    0.000    0.000    0.000   10.182 
#    0.000    0.000    0.000    0.000    0.000    0.000 
#
# Total GULP energy -245027.461214 kJ/mol
# GULP energy per Si atom -5568.805937 kJ/mol
# Density = 1.930204 g / cm^3
# Si number density = 19.346075 Si / 1000 Ang^3
#
#
#
# Elastic Constant Matrix: (Units=GPa)
#
#
# Indices 1 2 3 4 5 6 
#
# 1 50.3876 15.7572 7.5536 0.0000 0.0000 0.0000
# 2 15.7572 121.5319 6.4698 0.0000 0.0000 0.0000
# 3 7.5536 6.4698 17.1355 0.0000 0.0000 0.0000
# 4 0.0000 0.0000 0.0000 15.2526 0.0000 0.0000
# 5 0.0000 0.0000 0.0000 0.0000 24.9088 0.0000
# 6 0.0000 0.0000 0.0000 0.0000 0.0000 21.0874
#
#
#
# Elastic Compliance Matrix: (Units=1/GPa)
#
#
# Indices 1 2 3 4 5 6 
#
# 1 0.021901 -0.002373 -0.008758 0.000000 0.000000 0.000000
# 2 -0.002373 0.008654 -0.002221 0.000000 0.000000 0.000000
# 3 -0.008758 -0.002221 0.063058 0.000000 0.000000 0.000000
# 4 0.000000 0.000000 0.000000 0.065562 0.000000 0.000000
# 5 0.000000 0.000000 0.000000 0.000000 0.040146 0.000000
# 6 0.000000 0.000000 0.000000 0.000000 0.000000 0.047422
#
#
# Mechanical properties :
#
#
# Convention : Reuss Voigt Hill
#
# Bulk Modulus (GPa) = 14.94603 27.62401 21.28502
# Shear Modulus (GPa) = 16.90603 22.86806 19.88704
#
# Velocity S-wave (km/s) = 2.95934 3.44183 3.20966
# Velocity P-wave (km/s) = 4.40674 5.48678 4.97615
#
# Compressibility (1/GPa) = 0.06690739
#
# Stress axis : x y z
#
# Youngs Moduli (GPa) = 45.65932 115.54995 15.85846
#
# Poissons Ratio (x) = 0.27424 0.13889
# Poissons Ratio (y) = 0.10837 0.03523
# Poissons Ratio (z) = 0.39990 0.25667
#
# Static dielectric constant tensor:
#      x y z
#    x 1.688050 0.000000 0.000000 
#    y 0.000000 1.729190 0.000000 
#    z 0.000000 0.000000 1.749290 
# 
# From -- ./inp_files/32597.got.cif
#   From: 2010.05.17/outbox.cif.g08.bks.cpg/sg74_17_cif.got.tgz:32597.got - 2010.06.03 17:57:02.
