data_PCOD9534724
_publ_section_title
;
Structure prediction by ZEFSAII (Michael W. Deem and Ramdas Pophale) SiO2 
 PCOD9534724
Probable space group: I M M A
;
_chemical_formula_sum "Si O2"
_cell_formula_units_Z 104
_cell_length_a 18.661684
_cell_length_b 14.169844
_cell_length_c 24.661266
_cell_angle_alpha 90.000000
_cell_angle_beta 90.000000
_cell_angle_gamma 90.000000
_cell_volume 6521.256277
_symmetry_space_group_name_H-M "I M M A"
_symmetry_group_IT_number 74
_symmetry_cell_setting 'orthorhombic'
loop_
_space_group_symop_operation_xyz
x,y,z
-x,1/2-y,z
x,-y,-z
-x,1/2+y,-z
-x,-y,-z
x,1/2+y,-z
-x,y,z
x,1/2-y,z
1/2+x,1/2+y,1/2+z
1/2-x,-y,1/2+z
1/2+x,1/2-y,1/2-z
1/2-x,y,1/2-z
1/2-x,1/2-y,1/2-z
1/2+x,y,1/2-z
1/2-x,1/2+y,1/2+z
1/2+x,-y,1/2+z
loop_
_atom_site_type_symbol
_atom_site_label
_atom_site_fract_x
_atom_site_fract_y
_atom_site_fract_z
Si Si1 0.302814 0.500000 0.000000
Si Si2 0.813485 0.639994 0.794000
Si Si3 0.919971 0.861441 0.458978
Si Si4 0.768326 0.968629 0.619116
Si Si5 0.785922 0.140956 0.809441
Si Si6 0.579169 0.488652 0.854757
Si Si7 0.417198 0.969077 0.271363
O O1 0.356854 0.587433 0.009148
O O2 0.259611 0.482101 0.055058
O O3 0.832187 0.750000 0.792144
O O4 0.750000 0.622346 0.750000
O O5 0.780623 0.608508 0.851666
O O6 0.878724 0.569866 0.781111
O O7 0.911022 0.750000 0.457866
O O8 0.917748 0.904618 0.398459
O O9 0.000000 0.883028 0.481022
O O10 0.750774 0.067402 0.649638
O O11 0.852182 0.948021 0.631236
O O12 0.779621 0.250000 0.825835
O O13 0.750000 0.130046 0.750000
O O14 0.867786 0.107269 0.801406
O O15 0.500000 0.533617 0.859931
O O16 0.585708 0.452698 0.793392
O O17 0.500000 0.968636 0.288048
#
# Coordination Sequence:
#
# PCOD9534724 Si02
#       7
#     8  16  16  16  16  16  16
#     4  10  21  30  50  70  93 128 174 212 246 282
#     4  10  19  33  52  71  97 134 169 205 251 296
#     4   9  18  31  45  64  94 133 172 208 245 279
#     4  10  18  34  48  69  98 133 169 208 246 291
#     4  10  19  32  51  74 101 131 159 194 248 305
#     4   9  16  27  45  68  98 131 164 202 238 278
#     4  10  18  31  50  75 104 128 160 203 242 295
#
# _framework density 15.947846999999999
#
# number of rings (size 3 to 8) (size 9 to 14) (size 15 to 20)
#    0.000    2.308    3.077    1.154    0.000    4.923 
#    0.000    1.538    0.000    0.462    0.000    8.615 
#    0.000    9.846    0.000    0.000    0.000    0.000 
#
# Total GULP energy -289771.186242 kJ/mol
# GULP energy per Si atom -5572.522812 kJ/mol
# Density = 1.591155 g / cm^3
# Si number density = 15.947847 Si / 1000 Ang^3
#
#
#
# Elastic Constant Matrix: (Units=GPa)
#
#
# Indices 1 2 3 4 5 6 
#
# 1 80.1362 16.8463 21.7685 0.0000 0.0000 0.0000
# 2 16.8463 65.9363 11.7324 0.0000 0.0000 0.0000
# 3 21.7685 11.7324 84.5507 0.0000 0.0000 0.0000
# 4 0.0000 0.0000 0.0000 7.7150 0.0000 0.0000
# 5 0.0000 0.0000 0.0000 0.0000 20.6587 0.0000
# 6 0.0000 0.0000 0.0000 0.0000 0.0000 9.0245
#
#
#
# Elastic Compliance Matrix: (Units=1/GPa)
#
#
# Indices 1 2 3 4 5 6 
#
# 1 0.013974 -0.003004 -0.003181 0.000000 0.000000 0.000000
# 2 -0.003004 0.016196 -0.001474 0.000000 0.000000 0.000000
# 3 -0.003181 -0.001474 0.012851 0.000000 0.000000 0.000000
# 4 0.000000 0.000000 0.000000 0.129618 0.000000 0.000000
# 5 0.000000 0.000000 0.000000 0.000000 0.048406 0.000000
# 6 0.000000 0.000000 0.000000 0.000000 0.000000 0.110810
#
#
# Mechanical properties :
#
#
# Convention : Reuss Voigt Hill
#
# Bulk Modulus (GPa) = 36.09756 36.81306 36.45531
# Shear Modulus (GPa) = 14.02887 19.49803 16.76345
#
# Velocity S-wave (km/s) = 2.96914 3.50038 3.24565
# Velocity P-wave (km/s) = 5.86842 6.28255 6.07901
#
# Compressibility (1/GPa) = 0.02770271
#
# Stress axis : x y z
#
# Youngs Moduli (GPa) = 71.55931 61.74362 77.81672
#
# Poissons Ratio (x) = 0.18550 0.24753
# Poissons Ratio (y) = 0.21499 0.11469
# Poissons Ratio (z) = 0.22763 0.09100
#
# Static dielectric constant tensor:
#      x y z
#    x 1.562340 0.000000 0.000000 
#    y 0.000000 1.520790 0.000000 
#    z 0.000000 0.000000 1.539730 
# 
# From -- ./inp_files/60964.got.cif
#   From: 2010.05.17/outbox.cif.g08.bks.cpg/sg74_31_cif.got.tgz:60964.got - 2010.06.03 17:57:02.
