data_PCOD9534403
_publ_section_title
;
Structure prediction by ZEFSAII (Michael W. Deem and Ramdas Pophale) SiO2 
 PCOD9534403
Probable space group: I M M A
;
_chemical_formula_sum "Si O2"
_cell_formula_units_Z 96
_cell_length_a 8.346647
_cell_length_b 23.969704
_cell_length_c 26.548744
_cell_angle_alpha 90.000000
_cell_angle_beta 90.000000
_cell_angle_gamma 90.000000
_cell_volume 5311.518486
_symmetry_space_group_name_H-M "I M M A"
_symmetry_group_IT_number 74
_symmetry_cell_setting 'orthorhombic'
loop_
_space_group_symop_operation_xyz
x,y,z
-x,1/2-y,z
x,-y,-z
-x,1/2+y,-z
-x,-y,-z
x,1/2+y,-z
-x,y,z
x,1/2-y,z
1/2+x,1/2+y,1/2+z
1/2-x,-y,1/2+z
1/2+x,1/2-y,1/2-z
1/2-x,y,1/2-z
1/2-x,1/2-y,1/2-z
1/2+x,y,1/2-z
1/2-x,1/2+y,1/2+z
1/2+x,-y,1/2+z
loop_
_atom_site_type_symbol
_atom_site_label
_atom_site_fract_x
_atom_site_fract_y
_atom_site_fract_z
Si Si1 0.315992 0.611811 0.403422
Si Si2 0.188928 0.876777 0.594604
Si Si3 0.692810 0.071800 0.193587
Si Si4 0.821171 0.496962 0.559654
Si Si5 0.307020 0.944800 0.306392
Si Si6 0.693145 0.686095 0.496127
O O1 0.500000 0.629867 0.396970
O O2 0.305643 0.548955 0.424627
O O3 0.247740 0.600687 0.347401
O O4 0.244622 0.650422 0.447857
O O5 0.249022 0.882544 0.652281
O O6 0.262882 0.839570 0.550490
O O7 0.000000 0.863252 0.595873
O O8 0.208257 0.940814 0.577535
O O9 0.500000 0.070775 0.192092
O O10 0.750000 0.084269 0.250000
O O11 0.749381 0.008213 0.181820
O O12 0.824909 0.500000 0.500000
O O13 0.000000 0.479500 0.577519
O O14 0.500000 0.945619 0.307841
O O15 0.250000 0.932304 0.250000
O O16 0.500000 0.684866 0.493304
O O17 0.747639 0.750000 0.492775
#
# Coordination Sequence:
#
# PCOD9534403 Si02
#       6
#    16  16  16  16  16  16
#     4  10  20  32  49  73 101 132 167 205 248 298
#     4  10  20  33  51  75 104 135 165 202 249 300
#     4  10  19  31  48  73 106 138 166 198 240 294
#     4  10  18  29  46  72 104 134 161 193 245 304
#     4  10  19  30  46  71 103 136 167 200 242 295
#     4  10  22  38  54  73  98 131 171 214 257 298
#
# _framework density 18.073927000000001
#
# number of rings (size 3 to 8) (size 9 to 14) (size 15 to 20)
#    0.000    2.000    3.333    2.000    0.000    3.333 
#    0.000    0.000    0.000    1.000    0.000    0.000 
#    0.000    0.000    0.000    0.000    0.000    0.667 
#
# Total GULP energy -267249.381976 kJ/mol
# GULP energy per Si atom -5567.695458 kJ/mol
# Density = 1.803279 g / cm^3
# Si number density = 18.073927 Si / 1000 Ang^3
#
#
#
# Elastic Constant Matrix: (Units=GPa)
#
#
# Indices 1 2 3 4 5 6 
#
# 1 26.1932 18.9417 19.4929 0.0000 0.0000 0.0000
# 2 18.9417 44.3572 58.2795 0.0000 0.0000 0.0000
# 3 19.4929 58.2795 154.5650 0.0000 0.0000 0.0000
# 4 0.0000 0.0000 0.0000 9.3886 0.0000 0.0000
# 5 0.0000 0.0000 0.0000 0.0000 10.2947 0.0000
# 6 0.0000 0.0000 0.0000 0.0000 0.0000 13.4602
#
#
#
# Elastic Compliance Matrix: (Units=1/GPa)
#
#
# Indices 1 2 3 4 5 6 
#
# 1 0.056397 -0.029208 0.003900 0.000000 0.000000 0.000000
# 2 -0.029208 0.059804 -0.018866 0.000000 0.000000 0.000000
# 3 0.003900 -0.018866 0.013091 0.000000 0.000000 0.000000
# 4 0.000000 0.000000 0.000000 0.106513 0.000000 0.000000
# 5 0.000000 0.000000 0.000000 0.000000 0.097138 0.000000
# 6 0.000000 0.000000 0.000000 0.000000 0.000000 0.074293
#
#
# Mechanical properties :
#
#
# Convention : Reuss Voigt Hill
#
# Bulk Modulus (GPa) = 24.42245 46.50484 35.46364
# Shear Modulus (GPa) = 9.81874 15.18877 12.50375
#
# Velocity S-wave (km/s) = 2.33331 2.90206 2.63308
# Velocity P-wave (km/s) = 4.56081 6.08403 5.37664
#
# Compressibility (1/GPa) = 0.04094594
#
# Stress axis : x y z
#
# Youngs Moduli (GPa) = 17.73156 16.72128 76.38629
#
# Poissons Ratio (x) = 0.48839 -0.29794
# Poissons Ratio (y) = 0.51790 1.44110
# Poissons Ratio (z) = -0.06916 0.31546
#
# Static dielectric constant tensor:
#      x y z
#    x 1.670400 0.000000 0.000000 
#    y 0.000000 1.592630 0.000000 
#    z 0.000000 0.000000 1.740850 
# 
# From -- ./inp_files/64655.got.cif
#   From: 2010.05.17/outbox.cif.g08.bks.cpg/sg74_33_cif.got.tgz:64655.got - 2010.06.03 17:57:02.
