data_PCOD9534167
_publ_section_title
;
Structure prediction by ZEFSAII (Michael W. Deem and Ramdas Pophale) SiO2 
 PCOD9534167
Probable space group: I M M A
;
_chemical_formula_sum "Si O2"
_cell_formula_units_Z 120
_cell_length_a 15.162696
_cell_length_b 29.435724
_cell_length_c 14.033056
_cell_angle_alpha 90.000000
_cell_angle_beta 90.000000
_cell_angle_gamma 90.000000
_cell_volume 6263.302801
_symmetry_space_group_name_H-M "I M M A"
_symmetry_group_IT_number 74
_symmetry_cell_setting 'orthorhombic'
loop_
_space_group_symop_operation_xyz
x,y,z
-x,1/2-y,z
x,-y,-z
-x,1/2+y,-z
-x,-y,-z
x,1/2+y,-z
-x,y,z
x,1/2-y,z
1/2+x,1/2+y,1/2+z
1/2-x,-y,1/2+z
1/2+x,1/2-y,1/2-z
1/2-x,y,1/2-z
1/2-x,1/2-y,1/2-z
1/2+x,y,1/2-z
1/2-x,1/2+y,1/2+z
1/2+x,-y,1/2+z
loop_
_atom_site_type_symbol
_atom_site_label
_atom_site_fract_x
_atom_site_fract_y
_atom_site_fract_z
Si Si1 0.837188 0.545235 0.057315
Si Si2 0.750000 0.849211 0.250000
Si Si3 0.769240 0.803080 0.047407
Si Si4 0.856573 0.995443 0.252225
Si Si5 0.602762 0.371034 0.437418
Si Si6 0.600962 0.349954 0.035848
Si Si7 0.894700 0.601468 0.729739
Si Si8 0.848933 0.415847 0.626189
O O1 0.885397 0.525731 0.151185
O O2 0.748376 0.571800 0.086530
O O3 0.811905 0.500000 0.000000
O O4 0.889533 0.580764 0.992508
O O5 0.770863 0.819396 0.157432
O O6 0.829353 0.882214 0.284792
O O7 0.787836 0.750000 0.039858
O O8 0.839196 0.833912 0.991296
O O9 0.672636 0.814572 0.003810
O O10 0.750000 0.991395 0.250000
O O11 0.889317 0.962229 0.335024
O O12 0.876028 0.047778 0.270063
O O13 0.500000 0.357918 0.434575
O O14 0.637804 0.378556 0.329972
O O15 0.500000 0.333140 0.046318
O O16 0.633899 0.372083 0.135017
O O17 0.601530 0.389809 0.956689
O O18 0.000000 0.605976 0.731123
#
# Coordination Sequence:
#
# PCOD9534167 Si02
#       8
#    16   8  16  16  16  16  16  16
#     4  11  19  33  55  89 123 163 204 240 285 342
#     4  10  17  40  64  88 120 152 188 242 305 358
#     4  11  24  43  69  92 117 151 194 251 313 373
#     4  10  20  30  54  84 121 163 208 245 285 350
#     4  11  23  40  62  88 125 162 200 250 303 356
#     4  10  23  41  62  85 119 158 200 251 306 361
#     4  10  23  38  53  84 122 160 204 253 294 345
#     4  10  19  34  57  86 121 165 199 240 296 345
#
# _framework density 19.159220999999999
#
# number of rings (size 3 to 8) (size 9 to 14) (size 15 to 20)
#    0.000    1.600    6.000    0.200    5.600    1.867 
#    0.000    8.000    0.000    5.600    0.000    0.000 
#    0.000    0.000    0.000    0.000    0.000    0.000 
#
# Total GULP energy -334855.981411 kJ/mol
# GULP energy per Si atom -5580.933024 kJ/mol
# Density = 1.911561 g / cm^3
# Si number density = 19.159221 Si / 1000 Ang^3
#
#
#
# Elastic Constant Matrix: (Units=GPa)
#
#
# Indices 1 2 3 4 5 6 
#
# 1 59.3814 22.3556 21.7090 0.0000 0.0000 0.0000
# 2 22.3556 122.5480 55.5121 0.0000 0.0000 0.0000
# 3 21.7090 55.5121 133.0179 0.0002 0.0000 0.0000
# 4 0.0000 0.0000 0.0002 21.0406 0.0000 0.0000
# 5 0.0000 0.0000 0.0000 0.0000 20.3185 0.0000
# 6 0.0000 0.0000 0.0000 0.0000 0.0000 -9.8019
#
#
#
# Elastic Compliance Matrix: (Units=1/GPa)
#
#
# Indices 1 2 3 4 5 6 
#
# 1 0.018498 -0.002475 -0.001986 0.000000 0.000000 0.000000
# 2 -0.002475 0.010393 -0.003934 0.000000 0.000000 0.000000
# 3 -0.001986 -0.003934 0.009484 0.000000 0.000000 0.000000
# 4 0.000000 0.000000 0.000000 0.047527 0.000000 0.000000
# 5 0.000000 0.000000 0.000000 0.000000 0.049216 0.000000
# 6 0.000000 0.000000 0.000000 0.000000 0.000000 -0.102022
#
#
# Mechanical properties :
#
#
# Convention : Reuss Voigt Hill
#
# Bulk Modulus (GPa) = 46.32636 57.12231 51.72433
# Shear Modulus (GPa) = 87.59471 20.66950 54.13210
#
# Velocity S-wave (km/s) = 6.76894 3.28811 5.32120
# Velocity P-wave (km/s) = 9.23708 6.65544 8.05042
#
# Compressibility (1/GPa) = 0.02158598
#
# Stress axis : x y z
#
# Youngs Moduli (GPa) = 54.05962 96.21534 105.44622
#
# Poissons Ratio (x) = 0.23811 0.20943
# Poissons Ratio (y) = 0.13379 0.41478
# Poissons Ratio (z) = 0.10737 0.37847
#
# Static dielectric constant tensor:
#      x y z
#    x 1.697150 0.000000 0.000000 
#    y 0.000000 1.633600 0.000000 
#    z 0.000000 0.000000 1.713530 
# 
# From -- ./inp_files/33218.got.cif
#   From: 2010.05.17/outbox.cif.g08.bks.cpg/sg74_17_cif.got.tgz:33218.got - 2010.06.03 17:57:02.
