data_PCOD9534967
_publ_section_title
;
Structure prediction by ZEFSAII (Michael W. Deem and Ramdas Pophale) SiO2 
 PCOD9534967
Probable space group: I M M A
;
_chemical_formula_sum "Si O2"
_cell_formula_units_Z 96
_cell_length_a 29.533661
_cell_length_b 8.472111
_cell_length_c 20.952920
_cell_angle_alpha 90.000000
_cell_angle_beta 90.000000
_cell_angle_gamma 90.000000
_cell_volume 5242.681536
_symmetry_space_group_name_H-M "I M M A"
_symmetry_group_IT_number 74
_symmetry_cell_setting 'orthorhombic'
loop_
_space_group_symop_operation_xyz
x,y,z
-x,1/2-y,z
x,-y,-z
-x,1/2+y,-z
-x,-y,-z
x,1/2+y,-z
-x,y,z
x,1/2-y,z
1/2+x,1/2+y,1/2+z
1/2-x,-y,1/2+z
1/2+x,1/2-y,1/2-z
1/2-x,y,1/2-z
1/2-x,1/2-y,1/2-z
1/2+x,y,1/2-z
1/2-x,1/2+y,1/2+z
1/2+x,-y,1/2+z
loop_
_atom_site_type_symbol
_atom_site_label
_atom_site_fract_x
_atom_site_fract_y
_atom_site_fract_z
Si Si1 0.554010 0.426810 0.065078
Si Si2 0.052116 0.439139 0.834287
Si Si3 0.630759 0.560300 0.572120
Si Si4 0.690790 0.941265 0.800070
Si Si5 0.716004 0.441898 0.345274
Si Si6 0.087468 0.942254 0.698118
O O1 0.500000 0.418985 0.058455
O O2 0.572665 0.250000 0.068759
O O3 0.563041 0.500206 0.133991
O O4 0.572284 0.500000 0.000000
O O5 0.053210 0.250000 0.838365
O O6 0.088481 0.506396 0.884471
O O7 0.067348 0.490564 0.763357
O O8 0.000000 0.491371 0.845795
O O9 0.626960 0.500000 0.500000
O O10 0.631387 0.750000 0.571983
O O11 0.678001 0.503221 0.604978
O O12 0.691779 0.750000 0.802063
O O13 0.700869 0.984443 0.726591
O O14 0.731482 0.995630 0.846375
O O15 0.639662 0.988963 0.812272
O O16 0.716028 0.250000 0.349061
O O17 0.084258 0.750000 0.703582
#
# Coordination Sequence:
#
# PCOD9534967 Si02
#       6
#    16  16  16  16  16  16
#     4   9  18  31  47  69  99 136 176 214 255 307
#     4  11  24  39  55  79 110 142 180 229 283 336
#     4  11  22  38  59  81 108 146 186 229 277 327
#     4   8  13  25  50  81 106 129 166 212 255 307
#     4   8  14  27  50  79 105 132 169 208 252 310
#     4  10  18  32  56  83 107 138 180 225 268 316
#
# _framework density 18.311239
#
# number of rings (size 3 to 8) (size 9 to 14) (size 15 to 20)
#    0.000    2.500    1.667    2.500    0.000    3.000 
#    0.000    2.500    0.000    3.000    0.000    0.000 
#    0.000    0.000    0.000    0.000    0.000    0.000 
#
# Total GULP energy -267279.745686 kJ/mol
# GULP energy per Si atom -5568.328035 kJ/mol
# Density = 1.826956 g / cm^3
# Si number density = 18.311239 Si / 1000 Ang^3
#
#
#
# Elastic Constant Matrix: (Units=GPa)
#
#
# Indices 1 2 3 4 5 6 
#
# 1 97.8115 21.3080 59.0557 0.0000 0.0000 0.0000
# 2 21.3080 23.2801 25.9162 0.0000 0.0000 0.0000
# 3 59.0557 25.9162 146.4889 0.0000 0.0000 0.0000
# 4 0.0000 0.0000 0.0000 26.0060 0.0000 0.0000
# 5 0.0000 0.0000 0.0000 0.0000 27.1135 0.0000
# 6 0.0000 0.0000 0.0000 0.0000 0.0000 30.4777
#
#
#
# Elastic Compliance Matrix: (Units=1/GPa)
#
#
# Indices 1 2 3 4 5 6 
#
# 1 0.014772 -0.008581 -0.004437 0.000000 0.000000 0.000000
# 2 -0.008581 0.058475 -0.006886 0.000000 0.000000 0.000000
# 3 -0.004437 -0.006886 0.009833 0.000000 0.000000 0.000000
# 4 0.000000 0.000000 0.000000 0.038453 0.000000 0.000000
# 5 0.000000 0.000000 0.000000 0.000000 0.036882 0.000000
# 6 0.000000 0.000000 0.000000 0.000000 0.000000 0.032811
#
#
# Mechanical properties :
#
#
# Convention : Reuss Voigt Hill
#
# Bulk Modulus (GPa) = 23.10947 53.34893 38.22920
# Shear Modulus (GPa) = 20.37010 27.47282 23.92146
#
# Velocity S-wave (km/s) = 3.33894 3.87761 3.61831
# Velocity P-wave (km/s) = 5.24523 7.01752 6.19508
#
# Compressibility (1/GPa) = 0.04327230
#
# Stress axis : x y z
#
# Youngs Moduli (GPa) = 67.69502 17.10141 101.69402
#
# Poissons Ratio (x) = 0.14675 0.45123
# Poissons Ratio (y) = 0.58090 0.70023
# Poissons Ratio (z) = 0.30037 0.11775
#
# Static dielectric constant tensor:
#      x y z
#    x 1.665700 0.000000 0.000000 
#    y 0.000000 1.656570 0.000000 
#    z 0.000000 0.000000 1.617620 
# 
# From -- ./inp_files/55091.got.cif
#   From: 2010.05.17/outbox.cif.g08.bks.cpg/sg74_28_cif.got.tgz:55091.got - 2010.06.03 17:57:02.
