data_PCOD9534644
_publ_section_title
;
Structure prediction by ZEFSAII (Michael W. Deem and Ramdas Pophale) SiO2 
 PCOD9534644
Probable space group: I M M A
;
_chemical_formula_sum "Si O2"
_cell_formula_units_Z 104
_cell_length_a 8.039702
_cell_length_b 27.059427
_cell_length_c 24.607094
_cell_angle_alpha 90.000000
_cell_angle_beta 90.000000
_cell_angle_gamma 90.000000
_cell_volume 5353.266640
_symmetry_space_group_name_H-M "I M M A"
_symmetry_group_IT_number 74
_symmetry_cell_setting 'orthorhombic'
loop_
_space_group_symop_operation_xyz
x,y,z
-x,1/2-y,z
x,-y,-z
-x,1/2+y,-z
-x,-y,-z
x,1/2+y,-z
-x,y,z
x,1/2-y,z
1/2+x,1/2+y,1/2+z
1/2-x,-y,1/2+z
1/2+x,1/2-y,1/2-z
1/2-x,y,1/2-z
1/2-x,1/2-y,1/2-z
1/2+x,y,1/2-z
1/2-x,1/2+y,1/2+z
1/2+x,-y,1/2+z
loop_
_atom_site_type_symbol
_atom_site_label
_atom_site_fract_x
_atom_site_fract_y
_atom_site_fract_z
Si Si1 0.199836 0.750000 0.311886
Si Si2 0.699779 0.194576 0.306922
Si Si3 0.203550 0.840917 0.384755
Si Si4 0.698792 0.457696 0.188470
Si Si5 0.199107 0.876713 0.898083
Si Si6 0.200106 0.192665 0.495376
Si Si7 0.799309 0.570819 0.310513
O O1 0.250000 0.750000 0.250000
O O2 0.258096 0.798550 0.343174
O O3 0.000000 0.750000 0.315186
O O4 0.500000 0.195940 0.309988
O O5 0.765921 0.250000 0.308255
O O6 0.750000 0.171762 0.250000
O O7 0.766402 0.164313 0.356454
O O8 0.257748 0.824342 0.444691
O O9 0.257923 0.892849 0.358537
O O10 0.000000 0.841815 0.386272
O O11 0.500000 0.457326 0.188216
O O12 0.750000 0.441035 0.250000
O O13 0.753643 0.426369 0.135346
O O14 0.760848 0.514363 0.183441
O O15 0.000000 0.876755 0.899837
O O16 0.254968 0.852717 0.955050
O O17 0.258893 0.250000 0.482676
O O18 0.000000 0.195799 0.495982
O O19 0.750000 0.588555 0.250000
O O20 0.000000 0.569822 0.312089
#
# Coordination Sequence:
#
# PCOD9534644 Si02
#       7
#     8  16  16  16  16  16  16
#     4  10  18  30  52  82 114 142 173 216 265 322
#     4   9  18  31  46  66  93 122 154 198 255 313
#     4   9  17  33  55  79 108 143 180 218 264 319
#     4  10  20  35  55  80 108 140 179 224 272 323
#     4  11  22  35  52  74 102 139 181 226 273 321
#     4  10  20  36  57  78 103 142 187 226 266 317
#     4   9  18  33  55  81 110 142 176 217 268 324
#
# _framework density 19.427389999999999
#
# number of rings (size 3 to 8) (size 9 to 14) (size 15 to 20)
#    0.000    2.308    0.769    2.308    0.000    4.000 
#    0.000    3.846    0.000    4.615    0.000    0.000 
#    0.000    0.000    0.000    0.000    0.000    0.000 
#
# Total GULP energy -289573.053471 kJ/mol
# GULP energy per Si atom -5568.712567 kJ/mol
# Density = 1.938317 g / cm^3
# Si number density = 19.427390 Si / 1000 Ang^3
#
#
#
# Elastic Constant Matrix: (Units=GPa)
#
#
# Indices 1 2 3 4 5 6 
#
# 1 22.0129 12.6763 9.5285 0.0000 0.0000 0.0000
# 2 12.6763 122.2527 65.5301 0.0000 0.0000 0.0000
# 3 9.5285 65.5301 148.3067 0.0000 0.0000 0.0000
# 4 0.0000 0.0000 0.0000 31.9488 0.0000 0.0000
# 5 0.0000 0.0000 0.0000 0.0000 24.7721 0.0000
# 6 0.0000 0.0000 0.0000 0.0000 0.0000 11.1230
#
#
#
# Elastic Compliance Matrix: (Units=1/GPa)
#
#
# Indices 1 2 3 4 5 6 
#
# 1 0.048467 -0.004398 -0.001171 0.000000 0.000000 0.000000
# 2 -0.004398 0.011117 -0.004630 0.000000 0.000000 0.000000
# 3 -0.001171 -0.004630 0.008864 0.000000 0.000000 0.000000
# 4 0.000000 0.000000 0.000000 0.031300 0.000000 0.000000
# 5 0.000000 0.000000 0.000000 0.000000 0.040368 0.000000
# 6 0.000000 0.000000 0.000000 0.000000 0.000000 0.089904
#
#
# Mechanical properties :
#
#
# Convention : Reuss Voigt Hill
#
# Bulk Modulus (GPa) = 20.81096 52.00467 36.40782
# Shear Modulus (GPa) = 18.76634 27.22459 22.99547
#
# Velocity S-wave (km/s) = 3.11138 3.74752 3.44417
# Velocity P-wave (km/s) = 4.86241 6.74923 5.88197
#
# Compressibility (1/GPa) = 0.04805160
#
# Stress axis : x y z
#
# Youngs Moduli (GPa) = 20.63244 89.94872 112.82010
#
# Poissons Ratio (x) = 0.39560 0.13208
# Poissons Ratio (y) = 0.09074 0.52233
# Poissons Ratio (z) = 0.02415 0.41644
#
# Static dielectric constant tensor:
#      x y z
#    x 1.697070 0.000000 0.000000 
#    y 0.000000 1.730500 0.000000 
#    z 0.000000 0.000000 1.694410 
# 
# From -- ./inp_files/49647.got.cif
#   From: 2010.05.17/outbox.cif.g08.bks.cpg/sg74_25_cif.got.tgz:49647.got - 2010.06.03 17:57:02.
