data_PCOD9534148
_publ_section_title
;
Structure prediction by ZEFSAII (Michael W. Deem and Ramdas Pophale) SiO2 
 PCOD9534148
Probable space group: I M M A
;
_chemical_formula_sum "Si O2"
_cell_formula_units_Z 64
_cell_length_a 21.490081
_cell_length_b 18.405782
_cell_length_c 6.954378
_cell_angle_alpha 90.000000
_cell_angle_beta 90.000000
_cell_angle_gamma 90.000000
_cell_volume 2750.746817
_symmetry_space_group_name_H-M "I M M A"
_symmetry_group_IT_number 74
_symmetry_cell_setting 'orthorhombic'
loop_
_space_group_symop_operation_xyz
x,y,z
-x,1/2-y,z
x,-y,-z
-x,1/2+y,-z
-x,-y,-z
x,1/2+y,-z
-x,y,z
x,1/2-y,z
1/2+x,1/2+y,1/2+z
1/2-x,-y,1/2+z
1/2+x,1/2-y,1/2-z
1/2-x,y,1/2-z
1/2-x,1/2-y,1/2-z
1/2+x,y,1/2-z
1/2-x,1/2+y,1/2+z
1/2+x,-y,1/2+z
loop_
_atom_site_type_symbol
_atom_site_label
_atom_site_fract_x
_atom_site_fract_y
_atom_site_fract_z
Si Si1 0.851514 0.616795 0.746945
Si Si2 0.571671 0.480685 0.772247
Si Si3 0.752134 0.165702 0.975453
Si Si4 0.574620 0.171355 0.902113
O O1 0.882272 0.541075 0.808902
O O2 0.795913 0.613571 0.588117
O O3 0.902924 0.659225 0.621310
O O4 0.818722 0.655281 0.924976
O O5 0.500000 0.486529 0.705747
O O6 0.593384 0.397331 0.772640
O O7 0.570130 0.500000 0.000000
O O8 0.733010 0.250000 0.009061
O O9 0.750000 0.151893 0.750000
O O10 0.500000 0.170326 0.901542
O O11 0.596963 0.250000 0.833358
#
# Coordination Sequence:
#
# PCOD9534148 Si02
#       4
#    16  16  16  16
#     4  10  17  32  58  83 115 157 198 246 310 364
#     4   8  15  28  52  85 121 158 196 247 305 365
#     4  10  21  35  54  83 115 153 203 255 306 360
#     4   9  16  28  55  92 123 159 205 250 308 374
#
# _framework density 23.266408999999999
#
# number of rings (size 3 to 8) (size 9 to 14) (size 15 to 20)
#    0.000    2.750    0.000    5.250    0.000    0.000 
#    0.000    0.000   49.500    6.000    0.000   49.000 
#    0.000    1.000    0.000    0.000    0.000    0.000 
#
# Total GULP energy -178695.268295 kJ/mol
# GULP energy per Si atom -5584.227134 kJ/mol
# Density = 2.321345 g / cm^3
# Si number density = 23.266409 Si / 1000 Ang^3
#
#
#
# Elastic Constant Matrix: (Units=GPa)
#
#
# Indices 1 2 3 4 5 6 
#
# 1 84.9915 62.7511 25.1260 0.0000 0.0000 0.0000
# 2 62.7511 177.9655 30.6819 0.0000 0.0000 0.0000
# 3 25.1260 30.6819 104.8029 0.0000 0.0000 0.0000
# 4 0.0000 0.0000 0.0000 26.5368 0.0000 0.0000
# 5 0.0000 0.0000 0.0000 0.0000 9.3257 0.0000
# 6 0.0000 0.0000 0.0000 0.0000 0.0000 11.8204
#
#
#
# Elastic Compliance Matrix: (Units=1/GPa)
#
#
# Indices 1 2 3 4 5 6 
#
# 1 0.016445 -0.005391 -0.002364 0.000000 0.000000 0.000000
# 2 -0.005391 0.007685 -0.000957 0.000000 0.000000 0.000000
# 3 -0.002364 -0.000957 0.010389 0.000000 0.000000 0.000000
# 4 0.000000 0.000000 0.000000 0.037684 0.000000 0.000000
# 5 0.000000 0.000000 0.000000 0.000000 0.107231 0.000000
# 6 0.000000 0.000000 0.000000 0.000000 0.000000 0.084599
#
#
# Mechanical properties :
#
#
# Convention : Reuss Voigt Hill
#
# Bulk Modulus (GPa) = 58.50181 67.20866 62.85524
# Shear Modulus (GPa) = 17.41215 26.14997 21.78106
#
# Velocity S-wave (km/s) = 2.73862 3.35615 3.06299
# Velocity P-wave (km/s) = 5.93287 6.63081 6.29153
#
# Compressibility (1/GPa) = 0.01709349
#
# Stress axis : x y z
#
# Youngs Moduli (GPa) = 60.80823 130.12374 96.25697
#
# Poissons Ratio (x) = 0.70149 0.22759
# Poissons Ratio (y) = 0.32782 0.09215
# Poissons Ratio (z) = 0.14377 0.12458
#
# Static dielectric constant tensor:
#      x y z
#    x 1.903770 0.000000 0.000000 
#    y 0.000000 1.924410 0.000000 
#    z 0.000000 0.000000 1.874020 
# 
# From -- ./inp_files/13555.got.cif
#   From: 2010.05.17/outbox.cif.g08.bks.cpg/sg74_7_cif.got.tgz:13555.got - 2010.06.03 17:57:02.
