data_PCOD9534370
_publ_section_title
;
Structure prediction by ZEFSAII (Michael W. Deem and Ramdas Pophale) SiO2 
 PCOD9534370
Probable space group: I M M A
;
_chemical_formula_sum "Si O2"
_cell_formula_units_Z 116
_cell_length_a 30.860483
_cell_length_b 7.917451
_cell_length_c 29.230638
_cell_angle_alpha 90.000000
_cell_angle_beta 90.000000
_cell_angle_gamma 90.000000
_cell_volume 7142.107748
_symmetry_space_group_name_H-M "I M M A"
_symmetry_group_IT_number 74
_symmetry_cell_setting 'orthorhombic'
loop_
_space_group_symop_operation_xyz
x,y,z
-x,1/2-y,z
x,-y,-z
-x,1/2+y,-z
-x,-y,-z
x,1/2+y,-z
-x,y,z
x,1/2-y,z
1/2+x,1/2+y,1/2+z
1/2-x,-y,1/2+z
1/2+x,1/2-y,1/2-z
1/2-x,y,1/2-z
1/2-x,1/2-y,1/2-z
1/2+x,y,1/2-z
1/2-x,1/2+y,1/2+z
1/2+x,-y,1/2+z
loop_
_atom_site_type_symbol
_atom_site_label
_atom_site_fract_x
_atom_site_fract_y
_atom_site_fract_z
Si Si1 0.708226 0.951505 0.306992
Si Si2 0.253804 0.453764 0.448767
Si Si3 0.207899 0.944686 0.640321
Si Si4 0.068051 0.561057 0.767652
Si Si5 0.154911 0.552766 0.278073
Si Si6 0.500000 0.750000 0.256726
Si Si7 0.146759 0.548670 0.948819
Si Si8 0.383993 0.947314 0.354082
O O1 0.718099 0.750000 0.307221
O O2 0.693974 0.001870 0.255918
O O3 0.664863 0.982188 0.336518
O O4 0.748163 0.043587 0.329896
O O5 0.240204 0.500000 0.500000
O O6 0.255162 0.250000 0.444829
O O7 0.222205 0.517213 0.408858
O O8 0.303508 0.516611 0.442760
O O9 0.195342 0.750000 0.634573
O O10 0.170823 0.031142 0.670318
O O11 0.050441 0.750000 0.760288
O O12 0.111512 0.541006 0.736919
O O13 0.037373 0.402055 0.757739
O O14 0.083925 0.545349 0.820559
O O15 0.147891 0.750000 0.267758
O O16 0.148361 0.750000 0.945706
O O17 0.116803 0.484765 0.907815
O O18 0.132961 0.500000 0.000000
O O19 0.392480 0.750000 0.346597
#
# Coordination Sequence:
#
# PCOD9534370 Si02
#       8
#    16  16  16  16  16   4  16  16
#     4   9  18  29  43  62  93 136 173 211 250 292
#     4   9  19  31  42  61  92 131 185 230 259 297
#     4  11  20  29  43  67  95 135 182 218 255 299
#     4  11  22  38  61  83 107 135 163 207 258 313
#     4  10  20  35  48  70 103 133 172 213 251 301
#     4  12  22  44  60  86 108 128 166 200 260 334
#     4  10  18  29  44  66  95 132 174 222 271 307
#     4  10  18  32  49  72 105 132 168 220 261 305
#
# _framework density 16.241703999999999
#
# number of rings (size 3 to 8) (size 9 to 14) (size 15 to 20)
#    0.000    1.931    2.759    3.103    0.000    6.069 
#    0.000    0.000    0.000    0.000    0.000    0.483 
#    0.000    0.000    0.000    0.621    3.862    1.241 
#
# Total GULP energy -322978.866974 kJ/mol
# GULP energy per Si atom -5568.601155 kJ/mol
# Density = 1.620474 g / cm^3
# Si number density = 16.241704 Si / 1000 Ang^3
#
#
#
# Elastic Constant Matrix: (Units=GPa)
#
#
# Indices 1 2 3 4 5 6 
#
# 1 45.8504 24.1954 29.8805 0.0000 0.0000 0.0000
# 2 24.1954 67.5737 7.3672 0.0000 0.0000 0.0000
# 3 29.8805 7.3672 72.9444 0.0000 0.0000 0.0000
# 4 0.0000 0.0000 0.0000 18.0030 0.0000 0.0000
# 5 0.0000 0.0000 0.0000 0.0000 -5.2266 0.0000
# 6 0.0000 0.0000 0.0000 0.0000 0.0000 26.1187
#
#
#
# Elastic Compliance Matrix: (Units=1/GPa)
#
#
# Indices 1 2 3 4 5 6 
#
# 1 0.037176 -0.011780 -0.014039 0.000000 0.000000 0.000000
# 2 -0.011780 0.018697 0.002937 0.000000 0.000000 0.000000
# 3 -0.014039 0.002937 0.019163 0.000000 0.000000 0.000000
# 4 0.000000 0.000000 0.000000 0.055546 0.000000 0.000000
# 5 0.000000 0.000000 0.000000 0.000000 -0.191327 0.000000
# 6 0.000000 0.000000 0.000000 0.000000 0.000000 0.038287
#
#
# Mechanical properties :
#
#
# Convention : Reuss Voigt Hill
#
# Bulk Modulus (GPa) = 34.16254 34.36160 34.26207
# Shear Modulus (GPa) = 151.23430 16.10739 83.67085
#
# Velocity S-wave (km/s) = 9.66007 3.15259 7.18525
# Velocity P-wave (km/s) = 12.06243 5.86976 9.48568
#
# Compressibility (1/GPa) = 0.02927182
#
# Stress axis : x y z
#
# Youngs Moduli (GPa) = 26.89942 53.48585 52.18375
#
# Poissons Ratio (x) = 0.63009 0.73258
# Poissons Ratio (y) = 0.31689 -0.15328
# Poissons Ratio (z) = 0.37763 -0.15711
#
# Static dielectric constant tensor:
#      x y z
#    x 1.527010 0.000000 0.000000 
#    y 0.000000 1.575520 0.000000 
#    z 0.000000 0.000000 1.574220 
# 
# From -- ./inp_files/69201.got.cif
#   From: 2010.05.17/outbox.cif.g08.bks.cpg/sg74_35_cif.got.tgz:69201.got - 2010.06.03 17:57:02.
