data_PCOD9534146
_publ_section_title
;
Structure prediction by ZEFSAII (Michael W. Deem and Ramdas Pophale) SiO2 
 PCOD9534146
Probable space group: I M M A
;
_chemical_formula_sum "Si O2"
_cell_formula_units_Z 112
_cell_length_a 17.180367
_cell_length_b 17.668170
_cell_length_c 21.769632
_cell_angle_alpha 90.000000
_cell_angle_beta 90.000000
_cell_angle_gamma 90.000000
_cell_volume 6608.076983
_symmetry_space_group_name_H-M "I M M A"
_symmetry_group_IT_number 74
_symmetry_cell_setting 'orthorhombic'
loop_
_space_group_symop_operation_xyz
x,y,z
-x,1/2-y,z
x,-y,-z
-x,1/2+y,-z
-x,-y,-z
x,1/2+y,-z
-x,y,z
x,1/2-y,z
1/2+x,1/2+y,1/2+z
1/2-x,-y,1/2+z
1/2+x,1/2-y,1/2-z
1/2-x,y,1/2-z
1/2-x,1/2-y,1/2-z
1/2+x,y,1/2-z
1/2-x,1/2+y,1/2+z
1/2+x,-y,1/2+z
loop_
_atom_site_type_symbol
_atom_site_label
_atom_site_fract_x
_atom_site_fract_y
_atom_site_fract_z
Si Si1 0.235478 0.661193 0.068058
Si Si2 0.413642 0.946322 0.440450
Si Si3 0.282571 0.930333 0.187227
Si Si4 0.167573 0.441315 0.143104
Si Si5 0.093006 0.662924 0.756297
Si Si6 0.092404 0.457601 0.350161
Si Si7 0.208459 0.575811 0.540463
O O1 0.223163 0.750000 0.073459
O O2 0.154554 0.615520 0.058142
O O3 0.270941 0.625126 0.129841
O O4 0.290876 0.641381 0.010132
O O5 0.500000 0.912844 0.437255
O O6 0.409339 0.000000 0.500000
O O7 0.398308 0.003267 0.383807
O O8 0.250000 0.894768 0.250000
O O9 0.226136 0.002914 0.178410
O O10 0.367556 0.968509 0.181012
O O11 0.135539 0.376818 0.186822
O O12 0.218280 0.412257 0.085642
O O13 0.117013 0.750000 0.748247
O O14 0.107420 0.612385 0.695973
O O15 0.000000 0.661286 0.767249
O O16 0.135675 0.439275 0.414521
O O17 0.000000 0.466934 0.357776
O O18 0.220316 0.500000 0.500000
#
# Coordination Sequence:
#
# PCOD9534146 Si02
#       7
#    16  16  16  16  16  16  16
#     4  11  22  37  55  80 114 145 184 240 287 327
#     4  10  18  33  55  77 107 146 185 223 270 329
#     4  10  19  37  60  82 107 138 190 232 273 340
#     4  10  17  32  56  78 105 150 183 220 266 330
#     4  10  21  35  51  83 123 148 179 229 281 333
#     4  10  21  36  61  86 109 147 192 235 280 333
#     4  11  19  37  57  80 111 143 190 236 272 333
#
# _framework density 16.948955999999999
#
# number of rings (size 3 to 8) (size 9 to 14) (size 15 to 20)
#    0.000    1.714    7.143    0.429    0.000    2.000 
#    0.000    5.000    0.000    1.286    0.000    0.000 
#    0.000    0.000    0.000    0.000    0.000    0.000 
#
# Total GULP energy -312116.291056 kJ/mol
# GULP energy per Si atom -5573.505197 kJ/mol
# Density = 1.691038 g / cm^3
# Si number density = 16.948956 Si / 1000 Ang^3
#
#
#
# Elastic Constant Matrix: (Units=GPa)
#
#
# Indices 1 2 3 4 5 6 
#
# 1 85.9919 38.4028 47.0682 0.0000 0.0000 0.0000
# 2 38.4028 102.4430 39.4970 0.0000 0.0000 0.0000
# 3 47.0682 39.4970 117.2362 0.0000 0.0000 0.0000
# 4 0.0000 0.0000 0.0000 19.6429 0.0000 0.0000
# 5 0.0000 0.0000 0.0000 0.0000 23.6663 0.0000
# 6 0.0000 0.0000 0.0000 0.0000 0.0000 10.9446
#
#
#
# Elastic Compliance Matrix: (Units=1/GPa)
#
#
# Indices 1 2 3 4 5 6 
#
# 1 0.016289 -0.004120 -0.005152 0.000000 0.000000 0.000000
# 2 -0.004120 0.012261 -0.002477 0.000000 0.000000 0.000000
# 3 -0.005152 -0.002477 0.011432 0.000000 0.000000 0.000000
# 4 0.000000 0.000000 0.000000 0.050909 0.000000 0.000000
# 5 0.000000 0.000000 0.000000 0.000000 0.042254 0.000000
# 6 0.000000 0.000000 0.000000 0.000000 0.000000 0.091369
#
#
# Mechanical properties :
#
#
# Convention : Reuss Voigt Hill
#
# Bulk Modulus (GPa) = 60.65877 61.73411 61.19644
# Shear Modulus (GPa) = 19.72340 22.89764 21.31052
#
# Velocity S-wave (km/s) = 3.41500 3.67955 3.54974
# Velocity P-wave (km/s) = 7.17052 7.38612 7.27912
#
# Compressibility (1/GPa) = 0.01648566
#
# Stress axis : x y z
#
# Youngs Moduli (GPa) = 61.39239 81.56064 87.47044
#
# Poissons Ratio (x) = 0.33602 0.45061
# Poissons Ratio (y) = 0.25293 0.21663
# Poissons Ratio (z) = 0.31627 0.20199
#
# Static dielectric constant tensor:
#      x y z
#    x 1.597880 0.000000 0.000000 
#    y 0.000000 1.547450 0.000000 
#    z 0.000000 0.000000 1.619420 
# 
# From -- ./inp_files/53230.got.cif
#   From: 2010.05.17/outbox.cif.g08.bks.cpg/sg74_27_cif.got.tgz:53230.got - 2010.06.03 17:57:02.
