data_PCOD9534161
_publ_section_title
;
Structure prediction by ZEFSAII (Michael W. Deem and Ramdas Pophale) SiO2 
 PCOD9534161
Probable space group: I M M A
;
_chemical_formula_sum "Si O2"
_cell_formula_units_Z 88
_cell_length_a 14.831217
_cell_length_b 24.851736
_cell_length_c 10.690985
_cell_angle_alpha 90.000000
_cell_angle_beta 90.000000
_cell_angle_gamma 90.000000
_cell_volume 3940.499175
_symmetry_space_group_name_H-M "I M M A"
_symmetry_group_IT_number 74
_symmetry_cell_setting 'orthorhombic'
loop_
_space_group_symop_operation_xyz
x,y,z
-x,1/2-y,z
x,-y,-z
-x,1/2+y,-z
-x,-y,-z
x,1/2+y,-z
-x,y,z
x,1/2-y,z
1/2+x,1/2+y,1/2+z
1/2-x,-y,1/2+z
1/2+x,1/2-y,1/2-z
1/2-x,y,1/2-z
1/2-x,1/2-y,1/2-z
1/2+x,y,1/2-z
1/2-x,1/2+y,1/2+z
1/2+x,-y,1/2+z
loop_
_atom_site_type_symbol
_atom_site_label
_atom_site_fract_x
_atom_site_fract_y
_atom_site_fract_z
Si Si1 0.675044 0.857949 0.844376
Si Si2 0.500000 0.391471 0.469579
Si Si3 0.000000 0.426841 0.319280
Si Si4 0.390649 0.250000 0.593540
Si Si5 0.500000 0.486634 0.668810
Si Si6 0.107841 0.750000 0.794726
Si Si7 0.797431 0.022668 0.875141
Si Si8 0.814384 0.645777 0.059481
O O1 0.750000 0.882399 0.750000
O O2 0.590049 0.897263 0.865821
O O3 0.643239 0.802873 0.777221
O O4 0.728390 0.845379 0.971719
O O5 0.500000 0.416797 0.332155
O O6 0.500000 0.428696 0.594457
O O7 0.593207 0.359954 0.478285
O O8 0.000000 0.492303 0.313615
O O9 0.500000 0.250000 0.609726
O O10 0.368615 0.250000 0.442823
O O11 0.342362 0.196288 0.644224
O O12 0.398026 0.501211 0.628443
O O13 0.000000 0.750000 0.788553
O O14 0.750000 0.005909 0.750000
O O15 0.801434 0.087338 0.879936
O O16 0.752533 0.000000 0.000000
#
# Coordination Sequence:
#
# PCOD9534161 Si02
#       8
#    16   8   8   8   8   8  16  16
#     4  12  22  32  53  81 130 173 210 272 333 402
#     4  10  17  35  54  86 121 158 217 276 323 384
#     4  12  21  31  51  86 120 169 222 257 330 404
#     4  11  19  33  62  95 132 168 225 295 337 390
#     4  10  23  40  66  93 131 172 219 287 336 387
#     4  11  20  34  48  86 131 178 223 273 339 397
#     4  11  26  47  73 104 138 180 233 287 342 416
#     4  11  22  37  61  94 129 171 219 279 344 395
#
# _framework density 22.332194999999999
#
# number of rings (size 3 to 8) (size 9 to 14) (size 15 to 20)
#    0.000    0.909    5.455    3.545    2.545    0.000 
#    0.000    1.818    0.000    0.000    0.000    0.000 
#    0.000    0.000    0.000    0.000    0.000    0.000 
#
# Total GULP energy -245296.456473 kJ/mol
# GULP energy per Si atom -5574.919465 kJ/mol
# Density = 2.228137 g / cm^3
# Si number density = 22.332195 Si / 1000 Ang^3
#
#
#
# Elastic Constant Matrix: (Units=GPa)
#
#
# Indices 1 2 3 4 5 6 
#
# 1 125.7018 34.3292 31.5194 0.0001 -0.0001 0.0000
# 2 34.3292 115.8294 21.8022 0.0000 -0.0001 0.0001
# 3 31.5194 21.8022 51.0205 0.0002 -0.0003 0.0000
# 4 0.0001 0.0000 0.0002 12.0747 -0.0001 0.0001
# 5 -0.0001 -0.0001 -0.0003 -0.0001 14.0391 0.0000
# 6 0.0000 0.0001 0.0000 0.0001 0.0000 -0.8792
#
#
#
# Elastic Compliance Matrix: (Units=1/GPa)
#
#
# Indices 1 2 3 4 5 6 
#
# 1 0.009790 -0.001917 -0.005229 0.000000 0.000000 -0.000001
# 2 -0.001917 0.009764 -0.002988 0.000000 0.000000 0.000000
# 3 -0.005229 -0.002988 0.024107 0.000000 0.000001 0.000001
# 4 0.000000 0.000000 0.000000 0.082818 0.000000 0.000011
# 5 0.000000 0.000000 0.000001 0.000000 0.071230 0.000000
# 6 -0.000001 0.000000 0.000001 0.000011 0.000000 -1.137421
#
#
# Mechanical properties :
#
#
# Convention : Reuss Voigt Hill
#
# Bulk Modulus (GPa) = 42.74772 51.98372 47.36572
# Shear Modulus (GPa) = -5.48458 18.70697 6.61119
#
# Velocity S-wave (km/s) = -1.56883 2.89739 1.72244
# Velocity P-wave (km/s) = 3.98769 5.87547 5.02110
#
# Compressibility (1/GPa) = 0.02339306
#
# Stress axis : x y z
#
# Youngs Moduli (GPa) = 102.14432 102.41653 41.48170
#
# Poissons Ratio (x) = 0.19637 0.21690
# Poissons Ratio (y) = 0.19585 0.12394
# Poissons Ratio (z) = 0.53409 0.30601
#
# Static dielectric constant tensor:
#      x y z
#    x 1.804430 0.000000 0.000000 
#    y 0.000000 2.234670 0.000000 
#    z 0.000000 0.000000 -0.572070 
# 
# From -- ./inp_files/20945.got.cif
#   From: 2010.05.17/outbox.cif.g08.bks.cpg/sg74_11_cif.got.tgz:20945.got - 2010.06.03 17:57:02.
