data_PCOD9534057
_publ_section_title
;
Structure prediction by ZEFSAII (Michael W. Deem and Ramdas Pophale) SiO2 
 PCOD9534057
Probable space group: I M M A
;
_chemical_formula_sum "Si O2"
_cell_formula_units_Z 96
_cell_length_a 26.638071
_cell_length_b 8.304760
_cell_length_c 23.687323
_cell_angle_alpha 90.000000
_cell_angle_beta 90.000000
_cell_angle_gamma 90.000000
_cell_volume 5240.175599
_symmetry_space_group_name_H-M "I M M A"
_symmetry_group_IT_number 74
_symmetry_cell_setting 'orthorhombic'
loop_
_space_group_symop_operation_xyz
x,y,z
-x,1/2-y,z
x,-y,-z
-x,1/2+y,-z
-x,-y,-z
x,1/2+y,-z
-x,y,z
x,1/2-y,z
1/2+x,1/2+y,1/2+z
1/2-x,-y,1/2+z
1/2+x,1/2-y,1/2-z
1/2-x,y,1/2-z
1/2-x,1/2-y,1/2-z
1/2+x,y,1/2-z
1/2-x,1/2+y,1/2+z
1/2+x,-y,1/2+z
loop_
_atom_site_type_symbol
_atom_site_label
_atom_site_fract_x
_atom_site_fract_y
_atom_site_fract_z
Si Si1 0.557206 0.945278 0.675226
Si Si2 0.309576 0.071274 0.248690
Si Si3 0.846335 0.932682 0.360530
Si Si4 0.344743 0.939527 0.622877
Si Si5 0.755455 0.058004 0.436587
Si Si6 0.942722 0.054768 0.696180
O O1 0.500000 0.997037 0.663468
O O2 0.558792 0.750000 0.674608
O O3 0.598528 0.005177 0.629877
O O4 0.569054 0.996964 0.739861
O O5 0.326597 0.250000 0.228950
O O6 0.250000 0.071985 0.250000
O O7 0.326716 0.050950 0.312391
O O8 0.327001 0.941380 0.203978
O O9 0.850622 0.750000 0.380795
O O10 0.902400 0.001769 0.350561
O O11 0.803168 0.013523 0.397819
O O12 0.349231 0.750000 0.607319
O O13 0.298443 0.008169 0.586506
O O14 0.751587 0.250000 0.435081
O O15 0.763563 0.000000 0.500000
O O16 0.940649 0.250000 0.696818
O O17 0.000000 0.005108 0.684230
#
# Coordination Sequence:
#
# PCOD9534057 Si02
#       6
#    16  16  16  16  16  16
#     4   9  16  27  47  75 103 133 170 204 236 287
#     4  10  17  29  47  71 103 139 167 195 247 306
#     4  11  21  32  50  77 105 134 167 206 248 298
#     4   9  17  30  50  73 102 135 165 201 252 300
#     4  11  23  40  56  72  96 131 171 215 260 305
#     4   9  18  31  46  70 107 142 165 193 240 293
#
# _framework density 18.319997000000001
#
# number of rings (size 3 to 8) (size 9 to 14) (size 15 to 20)
#    0.000    2.167    3.333    1.000    0.000    1.000 
#    0.000    1.667    0.000    1.000    0.000    0.000 
#    0.000    0.000    0.000    0.000    0.000    0.167 
#
# Total GULP energy -267206.590672 kJ/mol
# GULP energy per Si atom -5566.803972 kJ/mol
# Density = 1.827830 g / cm^3
# Si number density = 18.319997 Si / 1000 Ang^3
#
#
#
# Elastic Constant Matrix: (Units=GPa)
#
#
# Indices 1 2 3 4 5 6 
#
# 1 126.8524 14.0879 35.9133 0.0000 0.0000 0.0000
# 2 14.0879 17.0804 9.3506 0.0000 0.0000 0.0000
# 3 35.9133 9.3506 42.3304 0.0000 0.0000 0.0000
# 4 0.0000 0.0000 0.0000 18.2606 0.0000 0.0000
# 5 0.0000 0.0000 0.0000 0.0000 6.7595 0.0000
# 6 0.0000 0.0000 0.0000 0.0000 0.0000 17.4599
#
#
#
# Elastic Compliance Matrix: (Units=1/GPa)
#
#
# Indices 1 2 3 4 5 6 
#
# 1 0.010654 -0.004367 -0.008074 0.000000 0.000000 0.000000
# 2 -0.004367 0.068391 -0.011402 0.000000 0.000000 0.000000
# 3 -0.008074 -0.011402 0.032993 0.000000 0.000000 0.000000
# 4 0.000000 0.000000 0.000000 0.054763 0.000000 0.000000
# 5 0.000000 0.000000 0.000000 0.000000 0.147941 0.000000
# 6 0.000000 0.000000 0.000000 0.000000 0.000000 0.057274
#
#
# Mechanical properties :
#
#
# Convention : Reuss Voigt Hill
#
# Bulk Modulus (GPa) = 15.53994 33.88520 24.71257
# Shear Modulus (GPa) = 11.33395 16.95676 14.14535
#
# Velocity S-wave (km/s) = 2.49000 3.04565 2.78173
# Velocity P-wave (km/s) = 4.09484 5.55917 4.88222
#
# Compressibility (1/GPa) = 0.06435031
#
# Stress axis : x y z
#
# Youngs Moduli (GPa) = 93.86051 14.62184 30.30982
#
# Poissons Ratio (x) = 0.06386 0.24473
# Poissons Ratio (y) = 0.40991 0.34560
# Poissons Ratio (z) = 0.75786 0.16672
#
# Static dielectric constant tensor:
#      x y z
#    x 1.741340 0.000000 0.000000 
#    y 0.000000 1.677340 0.000000 
#    z 0.000000 0.000000 1.594150 
# 
# From -- ./inp_files/49029.got.cif
#   From: 2010.05.17/outbox.cif.g08.bks.cpg/sg74_25_cif.got.tgz:49029.got - 2010.06.03 17:57:02.
