data_PCOD9534833
_publ_section_title
;
Structure prediction by ZEFSAII (Michael W. Deem and Ramdas Pophale) SiO2 
 PCOD9534833
Probable space group: I M M A
;
_chemical_formula_sum "Si O2"
_cell_formula_units_Z 56
_cell_length_a 14.508720
_cell_length_b 31.004530
_cell_length_c 5.308314
_cell_angle_alpha 90.000000
_cell_angle_beta 90.000000
_cell_angle_gamma 90.000000
_cell_volume 2387.870973
_symmetry_space_group_name_H-M "I M M A"
_symmetry_group_IT_number 74
_symmetry_cell_setting 'orthorhombic'
loop_
_space_group_symop_operation_xyz
x,y,z
-x,1/2-y,z
x,-y,-z
-x,1/2+y,-z
-x,-y,-z
x,1/2+y,-z
-x,y,z
x,1/2-y,z
1/2+x,1/2+y,1/2+z
1/2-x,-y,1/2+z
1/2+x,1/2-y,1/2-z
1/2-x,y,1/2-z
1/2-x,1/2-y,1/2-z
1/2+x,y,1/2-z
1/2-x,1/2+y,1/2+z
1/2+x,-y,1/2+z
loop_
_atom_site_type_symbol
_atom_site_label
_atom_site_fract_x
_atom_site_fract_y
_atom_site_fract_z
Si Si1 0.313518 0.750000 0.993386
Si Si2 0.361189 0.654239 0.977198
Si Si3 0.848194 0.881710 0.033558
Si Si4 0.893392 0.527509 0.255294
O O1 0.250000 0.750000 0.250000
O O2 0.250000 0.750000 0.750000
O O3 0.368224 0.705457 0.960471
O O4 0.392669 0.625740 0.739885
O O5 0.252619 0.640197 0.001608
O O6 0.400441 0.643025 0.247691
O O7 0.844341 0.929381 0.152728
O O8 0.857429 0.500000 0.500000
O O9 0.000000 0.538616 0.320299
O O10 0.894429 0.500000 0.000000
#
# Coordination Sequence:
#
# PCOD9534833 Si02
#       4
#     8  16  16  16
#     4  12  16  30  48  76 110 138 168 200 240 312
#     4  10  19  30  49  79 105 134 163 201 257 311
#     4  10  18  32  49  73 103 128 166 212 254 308
#     4  10  21  37  55  73  95 132 181 224 261 306
#
# _framework density 23.451851999999999
#
# number of rings (size 3 to 8) (size 9 to 14) (size 15 to 20)
#    0.000    1.714    5.714    1.714    0.000    0.000 
#    0.000   11.429    0.000    0.000    0.000   11.000 
#    0.000    0.000    0.000    0.000    0.000    0.000 
#
# Total GULP energy -155911.114534 kJ/mol
# GULP energy per Si atom -5568.254090 kJ/mol
# Density = 2.339847 g / cm^3
# Si number density = 23.451852 Si / 1000 Ang^3
#
#
#
# Elastic Constant Matrix: (Units=GPa)
#
#
# Indices 1 2 3 4 5 6 
#
# 1 83.1444 20.1391 6.8473 -0.0079 0.0573 0.0225
# 2 20.1391 185.4223 49.2944 -0.0646 0.0249 0.0150
# 3 6.8473 49.2944 245.4214 -0.1256 0.2924 0.1196
# 4 -0.0079 -0.0646 -0.1256 45.5587 0.0332 0.0305
# 5 0.0573 0.0249 0.2924 0.0332 -11.2341 -0.0894
# 6 0.0225 0.0150 0.1196 0.0305 -0.0894 -10.3115
#
#
#
# Elastic Compliance Matrix: (Units=1/GPa)
#
#
# Indices 1 2 3 4 5 6 
#
# 1 0.012354 -0.001321 -0.000079 0.000000 0.000058 0.000024
# 2 -0.001321 0.005838 -0.001136 0.000005 -0.000023 -0.000007
# 3 -0.000079 -0.001136 0.004305 0.000010 0.000109 0.000047
# 4 0.000000 0.000005 0.000010 0.021950 0.000065 0.000064
# 5 0.000058 -0.000023 0.000109 0.000065 -0.089018 0.000774
# 6 0.000024 -0.000007 0.000047 0.000064 0.000774 -0.096985
#
#
# Mechanical properties :
#
#
# Convention : Reuss Voigt Hill
#
# Bulk Modulus (GPa) = 57.38851 74.06107 65.72479
# Shear Modulus (GPa) = -38.26248 33.98312 -2.13968
#
# Velocity S-wave (km/s) = -4.04361 3.81078 -0.95622
# Velocity P-wave (km/s) = 1.65012 7.14222 5.18335
#
# Compressibility (1/GPa) = 0.01742509
#
# Stress axis : x y z
#
# Youngs Moduli (GPa) = 80.94775 171.27709 232.29715
#
# Poissons Ratio (x) = 0.22619 0.01847
# Poissons Ratio (y) = 0.10690 0.26385
# Poissons Ratio (z) = 0.00643 0.19454
#
# Static dielectric constant tensor:
#      x y z
#    x 1.886840 0.002850 -0.000030 
#    y 0.002850 2.501860 -0.000260 
#    z -0.000030 -0.000260 2.015360 
# 
# From -- ./inp_files/2166.got.cif
#   From: 2010.05.17/outbox.cif.g08.bks.cpg/sg74_2_cif.got.tgz:2166.got - 2010.06.03 17:57:02.
