data_PCOD9534013
_publ_section_title
;
Structure prediction by ZEFSAII (Michael W. Deem and Ramdas Pophale) SiO2 
 PCOD9534013
Probable space group: I M M A
;
_chemical_formula_sum "Si O2"
_cell_formula_units_Z 112
_cell_length_a 15.909647
_cell_length_b 29.311331
_cell_length_c 14.014698
_cell_angle_alpha 90.000000
_cell_angle_beta 90.000000
_cell_angle_gamma 90.000000
_cell_volume 6535.515172
_symmetry_space_group_name_H-M "I M M A"
_symmetry_group_IT_number 74
_symmetry_cell_setting 'orthorhombic'
loop_
_space_group_symop_operation_xyz
x,y,z
-x,1/2-y,z
x,-y,-z
-x,1/2+y,-z
-x,-y,-z
x,1/2+y,-z
-x,y,z
x,1/2-y,z
1/2+x,1/2+y,1/2+z
1/2-x,-y,1/2+z
1/2+x,1/2-y,1/2-z
1/2-x,y,1/2-z
1/2-x,1/2-y,1/2-z
1/2+x,y,1/2-z
1/2-x,1/2+y,1/2+z
1/2+x,-y,1/2+z
loop_
_atom_site_type_symbol
_atom_site_label
_atom_site_fract_x
_atom_site_fract_y
_atom_site_fract_z
Si Si1 0.155306 0.480239 0.400807
Si Si2 0.902511 0.963730 0.222686
Si Si3 0.600573 0.893447 0.424909
Si Si4 0.602056 0.200038 0.257042
Si Si5 0.602294 0.301166 0.480566
Si Si6 0.900921 0.602977 0.715414
Si Si7 0.152615 0.547951 0.893945
O O1 0.122735 0.500000 0.500000
O O2 0.144236 0.516454 0.314960
O O3 0.111439 0.433335 0.368259
O O4 0.253013 0.468269 0.410916
O O5 0.867813 0.918595 0.170706
O O6 0.000000 0.957210 0.249073
O O7 0.897826 0.004040 0.143632
O O8 0.500000 0.890181 0.413685
O O9 0.632541 0.843378 0.455253
O O10 0.617871 0.926851 0.513804
O O11 0.500000 0.202096 0.253577
O O12 0.633725 0.250000 0.226575
O O13 0.624492 0.192785 0.368650
O O14 0.626849 0.155023 0.198943
O O15 0.500000 0.302081 0.482996
O O16 0.628533 0.250000 0.509778
O O17 0.851364 0.582997 0.805712
O O18 0.000000 0.603296 0.741524
#
# Coordination Sequence:
#
# PCOD9534013 Si02
#       7
#    16  16  16  16  16  16  16
#     4  11  23  35  45  59  87 126 164 195 226 262
#     4  10  20  31  46  66  88 115 151 194 227 264
#     4  10  17  27  46  72  96 118 146 178 224 275
#     4   8  13  23  42  69  96 118 141 172 218 275
#     4   8  13  22  39  66  99 124 139 165 214 278
#     4  10  18  30  50  71  91 120 152 187 225 265
#     4  11  19  30  46  66  95 120 147 182 229 277
#
# _framework density 17.137134
#
# number of rings (size 3 to 8) (size 9 to 14) (size 15 to 20)
#    0.000    2.286    1.429    6.429    0.000    2.286 
#    0.000    0.000    0.000    2.571    0.000    1.000 
#    0.000   10.286    0.000    0.000    0.000    0.000 
#
# Total GULP energy -312058.317261 kJ/mol
# GULP energy per Si atom -5572.469951 kJ/mol
# Density = 1.709813 g / cm^3
# Si number density = 17.137134 Si / 1000 Ang^3
#
#
#
# Elastic Constant Matrix: (Units=GPa)
#
#
# Indices 1 2 3 4 5 6 
#
# 1 7.8584 4.3123 -5.3456 0.0000 0.0000 0.0000
# 2 4.3123 138.2497 76.7756 0.0000 0.0000 0.0000
# 3 -5.3456 76.7756 64.8788 0.0004 0.0000 0.0004
# 4 0.0000 0.0000 0.0004 14.3062 0.0000 0.0001
# 5 0.0000 0.0000 0.0000 0.0000 5.1583 0.0000
# 6 0.0000 0.0000 0.0004 0.0001 0.0000 -10.3931
#
#
#
# Elastic Compliance Matrix: (Units=1/GPa)
#
#
# Indices 1 2 3 4 5 6 
#
# 1 0.198798 -0.044621 0.069182 -0.000002 0.000000 0.000003
# 2 -0.044621 0.031114 -0.040496 0.000001 0.000000 -0.000001
# 3 0.069182 -0.040496 0.069035 -0.000002 0.000000 0.000002
# 4 -0.000002 0.000001 -0.000002 0.069900 0.000000 0.000001
# 5 0.000000 0.000000 0.000000 0.000000 0.193863 0.000000
# 6 0.000003 -0.000001 0.000002 0.000001 0.000000 -0.096218
#
#
# Mechanical properties :
#
#
# Convention : Reuss Voigt Hill
#
# Bulk Modulus (GPa) = 3.74421 40.27462 22.00941
# Shear Modulus (GPa) = 8.51228 10.83059 9.67144
#
# Velocity S-wave (km/s) = 2.23113 2.51668 2.37819
# Velocity P-wave (km/s) = 2.97100 5.65661 4.51797
#
# Compressibility (1/GPa) = 0.26707899
#
# Stress axis : x y z
#
# Youngs Moduli (GPa) = 5.03022 32.13984 14.48542
#
# Poissons Ratio (x) = 1.43410 -1.00213
# Poissons Ratio (y) = 0.22445 0.58660
# Poissons Ratio (z) = -0.34800 1.30153
#
# Static dielectric constant tensor:
#      x y z
#    x 1.605850 0.000000 0.000000 
#    y 0.000000 1.639990 0.000000 
#    z 0.000000 0.000000 1.572290 
# 
# From -- ./inp_files/21132.got.cif
#   From: 2010.05.17/outbox.cif.g08.bks.cpg/sg74_11_cif.got.tgz:21132.got - 2010.06.03 17:57:02.
