data_PCOD9534015
_publ_section_title
;
Structure prediction by ZEFSAII (Michael W. Deem and Ramdas Pophale) SiO2 
 PCOD9534015
Probable space group: I M M A
;
_chemical_formula_sum "Si O2"
_cell_formula_units_Z 96
_cell_length_a 32.067529
_cell_length_b 15.064959
_cell_length_c 9.598640
_cell_angle_alpha 90.000000
_cell_angle_beta 90.000000
_cell_angle_gamma 90.000000
_cell_volume 4637.064682
_symmetry_space_group_name_H-M "I M M A"
_symmetry_group_IT_number 74
_symmetry_cell_setting 'orthorhombic'
loop_
_space_group_symop_operation_xyz
x,y,z
-x,1/2-y,z
x,-y,-z
-x,1/2+y,-z
-x,-y,-z
x,1/2+y,-z
-x,y,z
x,1/2-y,z
1/2+x,1/2+y,1/2+z
1/2-x,-y,1/2+z
1/2+x,1/2-y,1/2-z
1/2-x,y,1/2-z
1/2-x,1/2-y,1/2-z
1/2+x,y,1/2-z
1/2-x,1/2+y,1/2+z
1/2+x,-y,1/2+z
loop_
_atom_site_type_symbol
_atom_site_label
_atom_site_fract_x
_atom_site_fract_y
_atom_site_fract_z
Si Si1 0.345073 0.591653 0.920843
Si Si2 0.547814 0.847454 0.280405
Si Si3 0.712963 0.750000 0.919909
Si Si4 0.562159 0.348443 0.046262
Si Si5 0.364242 0.584434 0.597843
Si Si6 0.452234 0.048278 0.316708
Si Si7 0.308053 0.250000 0.414647
O O1 0.308841 0.658859 0.963880
O O2 0.388194 0.640530 0.957030
O O3 0.348185 0.570517 0.756279
O O4 0.342462 0.500000 0.000000
O O5 0.500000 0.843277 0.327897
O O6 0.567281 0.750000 0.314005
O O7 0.562279 0.945233 0.327488
O O8 0.547458 0.854607 0.112015
O O9 0.701741 0.750000 0.752940
O O10 0.760759 0.750000 0.966984
O O11 0.551053 0.250000 0.099432
O O12 0.546982 0.421678 0.155133
O O13 0.358261 0.500000 0.500000
O O14 0.414153 0.603086 0.615030
O O15 0.336236 0.665900 0.546860
O O16 0.500000 0.058589 0.367768
#
# Coordination Sequence:
#
# PCOD9534015 Si02
#       7
#    16  16   8  16  16  16   8
#     4  10  19  34  59  90 119 146 185 232 281 332
#     4   9  17  29  45  71 110 154 187 220 281 343
#     4   9  18  36  61  93 115 150 183 231 277 339
#     4  10  17  27  46  76 114 148 183 228 278 333
#     4  10  22  40  59  82 111 155 193 229 280 342
#     4  10  20  32  50  75 106 142 193 243 277 319
#     4   9  20  40  64  81 117 152 190 223 283 350
#
# _framework density 20.702750999999999
#
# number of rings (size 3 to 8) (size 9 to 14) (size 15 to 20)
#    0.000    2.333    0.833    3.000    3.500    3.333 
#    1.500    0.833    0.000    1.000    0.000    0.000 
#    0.000    0.000    0.000    0.000    0.000    0.000 
#
# Total GULP energy -267627.003975 kJ/mol
# GULP energy per Si atom -5575.562583 kJ/mol
# Density = 2.065563 g / cm^3
# Si number density = 20.702751 Si / 1000 Ang^3
#
#
#
# Elastic Constant Matrix: (Units=GPa)
#
#
# Indices 1 2 3 4 5 6 
#
# 1 150.2575 70.6600 20.8416 0.0000 0.0000 0.0000
# 2 70.6600 118.1091 22.4473 0.0000 0.0000 0.0000
# 3 20.8416 22.4473 43.3692 0.0000 0.0000 0.0000
# 4 0.0000 0.0000 0.0000 188.2086 0.0000 0.0000
# 5 0.0000 0.0000 0.0000 0.0000 8.6293 0.0000
# 6 0.0000 0.0000 0.0000 0.0000 0.0000 -48.5295
#
#
#
# Elastic Compliance Matrix: (Units=1/GPa)
#
#
# Indices 1 2 3 4 5 6 
#
# 1 0.009383 -0.005275 -0.001779 0.000000 0.000000 0.000000
# 2 -0.005275 0.012356 -0.003860 0.000000 0.000000 0.000000
# 3 -0.001779 -0.003860 0.025911 0.000000 0.000000 0.000000
# 4 0.000000 0.000000 0.000000 0.005313 0.000000 0.000000
# 5 0.000000 0.000000 0.000000 0.000000 0.115884 0.000000
# 6 0.000000 0.000000 0.000000 0.000000 0.000000 -0.020606
#
#
# Mechanical properties :
#
#
# Convention : Reuss Voigt Hill
#
# Bulk Modulus (GPa) = 38.72779 59.95930 49.34354
# Shear Modulus (GPa) = 27.98347 42.84748 35.41548
#
# Velocity S-wave (km/s) = 3.68051 4.55428 4.14051
# Velocity P-wave (km/s) = 6.06702 7.52862 6.83699
#
# Compressibility (1/GPa) = 0.02582125
#
# Stress axis : x y z
#
# Youngs Moduli (GPa) = 106.57932 80.92948 38.59419
#
# Poissons Ratio (x) = 0.42692 0.06864
# Poissons Ratio (y) = 0.56223 0.14899
# Poissons Ratio (z) = 0.18956 0.31242
#
# Static dielectric constant tensor:
#      x y z
#    x 1.753770 0.000000 0.000000 
#    y 0.000000 1.760470 0.000000 
#    z 0.000000 0.000000 1.761070 
# 
# From -- ./inp_files/27136.got.cif
#   From: 2010.05.17/outbox.cif.g08.bks.cpg/sg74_14_cif.got.tgz:27136.got - 2010.06.03 17:57:02.
