data_PCOD9534306
_publ_section_title
;
Structure prediction by ZEFSAII (Michael W. Deem and Ramdas Pophale) SiO2 
 PCOD9534306
Probable space group: I M M A
;
_chemical_formula_sum "Si O2"
_cell_formula_units_Z 96
_cell_length_a 19.610954
_cell_length_b 14.851529
_cell_length_c 18.573906
_cell_angle_alpha 90.000000
_cell_angle_beta 90.000000
_cell_angle_gamma 90.000000
_cell_volume 5409.699381
_symmetry_space_group_name_H-M "I M M A"
_symmetry_group_IT_number 74
_symmetry_cell_setting 'orthorhombic'
loop_
_space_group_symop_operation_xyz
x,y,z
-x,1/2-y,z
x,-y,-z
-x,1/2+y,-z
-x,-y,-z
x,1/2+y,-z
-x,y,z
x,1/2-y,z
1/2+x,1/2+y,1/2+z
1/2-x,-y,1/2+z
1/2+x,1/2-y,1/2-z
1/2-x,y,1/2-z
1/2-x,1/2-y,1/2-z
1/2+x,y,1/2-z
1/2-x,1/2+y,1/2+z
1/2+x,-y,1/2+z
loop_
_atom_site_type_symbol
_atom_site_label
_atom_site_fract_x
_atom_site_fract_y
_atom_site_fract_z
Si Si1 0.575233 0.851663 0.468587
Si Si2 0.075927 0.017395 0.831875
Si Si3 0.221488 0.957666 0.827148
Si Si4 0.282032 0.103720 0.476150
Si Si5 0.780049 0.148899 0.624065
Si Si6 0.424135 0.854227 0.193480
O O1 0.500000 0.866023 0.502024
O O2 0.576179 0.750000 0.438660
O O3 0.582186 0.922293 0.403828
O O4 0.640707 0.860481 0.518956
O O5 0.139826 0.952192 0.828461
O O6 0.082217 0.082676 0.762838
O O7 0.000000 0.977561 0.831016
O O8 0.250000 0.931553 0.750000
O O9 0.240568 0.063840 0.841046
O O10 0.246501 0.899765 0.895460
O O11 0.237775 0.147769 0.539354
O O12 0.286872 0.000000 0.500000
O O13 0.761685 0.250000 0.651376
O O14 0.859738 0.132949 0.641270
O O15 0.500000 0.869589 0.161612
O O16 0.421702 0.750000 0.217053
#
# Coordination Sequence:
#
# PCOD9534306 Si02
#       6
#    16  16  16  16  16  16
#     4  10  19  30  47  71  99 131 166 199 232 278
#     4  10  18  28  44  69 102 133 158 187 230 284
#     4  11  21  34  48  71  98 133 165 200 239 290
#     4  10  20  32  46  68  99 133 162 199 238 288
#     4  10  19  31  51  73  95 124 161 203 245 285
#     4   9  17  28  44  70 101 127 153 192 242 292
#
# _framework density 17.745902999999998
#
# number of rings (size 3 to 8) (size 9 to 14) (size 15 to 20)
#    0.000    2.000    5.000    1.000    0.000    4.000 
#    0.000    0.000    0.000    7.500    0.000    0.000 
#    0.000    2.667    0.000    0.000    0.000    0.000 
#
# Total GULP energy -267491.608741 kJ/mol
# GULP energy per Si atom -5572.741849 kJ/mol
# Density = 1.770551 g / cm^3
# Si number density = 17.745903 Si / 1000 Ang^3
#
#
#
# Elastic Constant Matrix: (Units=GPa)
#
#
# Indices 1 2 3 4 5 6 
#
# 1 87.1985 4.5826 37.8711 0.0000 0.0000 0.0000
# 2 4.5826 12.4091 2.0988 0.0000 0.0000 0.0000
# 3 37.8711 2.0988 104.0735 0.0000 0.0000 0.0000
# 4 0.0000 0.0000 0.0000 -97.0657 0.0000 0.0000
# 5 0.0000 0.0000 0.0000 0.0000 14.7432 0.0000
# 6 0.0000 0.0000 0.0000 0.0000 0.0000 13.1191
#
#
#
# Elastic Compliance Matrix: (Units=1/GPa)
#
#
# Indices 1 2 3 4 5 6 
#
# 1 0.013843 -0.004275 -0.004951 0.000000 0.000000 0.000000
# 2 -0.004275 0.082182 -0.000102 0.000000 0.000000 0.000000
# 3 -0.004951 -0.000102 0.011412 0.000000 0.000000 0.000000
# 4 0.000000 0.000000 0.000000 -0.010302 0.000000 0.000000
# 5 0.000000 0.000000 0.000000 0.000000 0.067828 0.000000
# 6 0.000000 0.000000 0.000000 0.000000 0.000000 0.076225
#
#
# Mechanical properties :
#
#
# Convention : Reuss Voigt Hill
#
# Bulk Modulus (GPa) = 11.26358 32.53177 21.89767
# Shear Modulus (GPa) = 17.27493 -3.23211 7.02141
#
# Velocity S-wave (km/s) = 3.12342 -1.35103 1.99129
# Velocity P-wave (km/s) = 4.40097 3.99225 4.20159
#
# Compressibility (1/GPa) = 0.08878175
#
# Stress axis : x y z
#
# Youngs Moduli (GPa) = 72.23841 12.16817 87.62478
#
# Poissons Ratio (x) = 0.05202 0.43384
# Poissons Ratio (y) = 0.30880 0.00892
# Poissons Ratio (z) = 0.35766 0.00124
#
# Static dielectric constant tensor:
#      x y z
#    x 1.642440 0.000000 0.000000 
#    y 0.000000 1.617330 0.000000 
#    z 0.000000 0.000000 1.620860 
# 
# From -- ./inp_files/44102.got.cif
#   From: 2010.05.17/outbox.cif.g08.bks.cpg/sg74_23_cif.got.tgz:44102.got - 2010.06.03 17:57:02.
