data_PCOD9534395
_publ_section_title
;
Structure prediction by ZEFSAII (Michael W. Deem and Ramdas Pophale) SiO2 
 PCOD9534395
Probable space group: I M M A
;
_chemical_formula_sum "Si O2"
_cell_formula_units_Z 116
_cell_length_a 7.699154
_cell_length_b 27.693436
_cell_length_c 27.789692
_cell_angle_alpha 90.000000
_cell_angle_beta 90.000000
_cell_angle_gamma 90.000000
_cell_volume 5925.207763
_symmetry_space_group_name_H-M "I M M A"
_symmetry_group_IT_number 74
_symmetry_cell_setting 'orthorhombic'
loop_
_space_group_symop_operation_xyz
x,y,z
-x,1/2-y,z
x,-y,-z
-x,1/2+y,-z
-x,-y,-z
x,1/2+y,-z
-x,y,z
x,1/2-y,z
1/2+x,1/2+y,1/2+z
1/2-x,-y,1/2+z
1/2+x,1/2-y,1/2-z
1/2-x,y,1/2-z
1/2-x,1/2-y,1/2-z
1/2+x,y,1/2-z
1/2-x,1/2+y,1/2+z
1/2+x,-y,1/2+z
loop_
_atom_site_type_symbol
_atom_site_label
_atom_site_fract_x
_atom_site_fract_y
_atom_site_fract_z
Si Si1 0.301019 0.931356 0.819784
Si Si2 0.298973 0.956773 0.574955
Si Si3 0.789889 0.804392 0.931124
Si Si4 0.200095 0.325099 0.180562
Si Si5 0.295030 0.062896 0.905093
Si Si6 0.207903 0.462193 0.698664
Si Si7 0.709070 0.115427 0.504795
Si Si8 0.000000 0.250000 0.290576
O O1 0.500000 0.927608 0.803599
O O2 0.297585 0.938128 0.877689
O O3 0.209659 0.881568 0.806405
O O4 0.222293 0.982527 0.802706
O O5 0.500000 0.942305 0.581883
O O6 0.235536 0.930912 0.526901
O O7 0.288370 0.014349 0.573254
O O8 0.723427 0.750000 0.935511
O O9 0.756486 0.822104 0.876849
O O10 0.000000 0.803208 0.934769
O O11 0.727261 0.839252 0.973508
O O12 0.345913 0.292197 0.204852
O O13 0.000000 0.307640 0.187372
O O14 0.500000 0.053829 0.904153
O O15 0.263735 0.107346 0.940473
O O16 0.233305 0.065046 0.849674
O O17 0.250000 0.439755 0.750000
O O18 0.000000 0.466311 0.695692
O O19 0.500000 0.116970 0.505420
#
# Coordination Sequence:
#
# PCOD9534395 Si02
#       8
#    16  16  16  16  16  16  16   4
#     4  10  19  32  49  75 104 129 163 211 255 305
#     4  10  18  29  46  68  96 133 170 203 239 293
#     4   9  17  31  48  67  97 134 177 216 248 291
#     4  11  20  33  50  71 102 137 174 218 265 306
#     4  10  21  34  45  68  98 129 162 204 249 301
#     4   9  20  36  54  74 100 124 159 205 254 310
#     4  10  19  30  45  67  96 133 173 205 240 289
#     4  12  22  32  48  74 102 134 180 228 264 298
#
# _framework density 19.577373000000001
#
# number of rings (size 3 to 8) (size 9 to 14) (size 15 to 20)
#    0.000    2.069    2.759    2.690    0.000    6.069 
#    1.241    0.000    0.000    0.000    0.000    0.483 
#    0.000    0.552    0.000    1.241    0.000    1.931 
#
# Total GULP energy -323385.783320 kJ/mol
# GULP energy per Si atom -5575.616954 kJ/mol
# Density = 1.953281 g / cm^3
# Si number density = 19.577373 Si / 1000 Ang^3
#
#
#
# Elastic Constant Matrix: (Units=GPa)
#
#
# Indices 1 2 3 4 5 6 
#
# 1 71.9446 11.1723 12.5618 0.0000 0.0000 0.0000
# 2 11.1723 49.5704 46.8221 0.0000 0.0000 0.0000
# 3 12.5618 46.8221 144.0949 0.0000 0.0000 0.0000
# 4 0.0000 0.0000 0.0000 3.0095 0.0000 0.0000
# 5 0.0000 0.0000 0.0000 0.0000 19.3942 0.0000
# 6 0.0000 0.0000 0.0000 0.0000 0.0000 30.3191
#
#
#
# Elastic Compliance Matrix: (Units=1/GPa)
#
#
# Indices 1 2 3 4 5 6 
#
# 1 0.014412 -0.002974 -0.000290 0.000000 0.000000 0.000000
# 2 -0.002974 0.029721 -0.009398 0.000000 0.000000 0.000000
# 3 -0.000290 -0.009398 0.010019 0.000000 0.000000 0.000000
# 4 0.000000 0.000000 0.000000 0.332280 0.000000 0.000000
# 5 0.000000 0.000000 0.000000 0.000000 0.051562 0.000000
# 6 0.000000 0.000000 0.000000 0.000000 0.000000 0.032982
#
#
# Mechanical properties :
#
#
# Convention : Reuss Voigt Hill
#
# Bulk Modulus (GPa) = 34.68976 45.19135 39.94056
# Shear Modulus (GPa) = 9.88317 23.54815 16.71566
#
# Velocity S-wave (km/s) = 2.24927 3.47194 2.92520
# Velocity P-wave (km/s) = 4.95009 6.26147 5.64400
#
# Compressibility (1/GPa) = 0.02882695
#
# Stress axis : x y z
#
# Youngs Moduli (GPa) = 69.38616 33.64643 99.81059
#
# Poissons Ratio (x) = 0.10008 0.02893
# Poissons Ratio (y) = 0.20638 0.93804
# Poissons Ratio (z) = 0.02011 0.31621
#
# Static dielectric constant tensor:
#      x y z
#    x 1.732010 0.000000 0.000000 
#    y 0.000000 1.677050 0.000000 
#    z 0.000000 0.000000 1.751720 
# 
# From -- ./inp_files/65307.got.cif
#   From: 2010.05.17/outbox.cif.g08.bks.cpg/sg74_33_cif.got.tgz:65307.got - 2010.06.03 17:57:02.
