data_PCOD9534867
_publ_section_title
;
Structure prediction by ZEFSAII (Michael W. Deem and Ramdas Pophale) SiO2 
 PCOD9534867
Probable space group: I M M A
;
_chemical_formula_sum "Si O2"
_cell_formula_units_Z 72
_cell_length_a 33.886355
_cell_length_b 8.590747
_cell_length_c 15.103597
_cell_angle_alpha 90.000000
_cell_angle_beta 90.000000
_cell_angle_gamma 90.000000
_cell_volume 4396.794568
_symmetry_space_group_name_H-M "I M M A"
_symmetry_group_IT_number 74
_symmetry_cell_setting 'orthorhombic'
loop_
_space_group_symop_operation_xyz
x,y,z
-x,1/2-y,z
x,-y,-z
-x,1/2+y,-z
-x,-y,-z
x,1/2+y,-z
-x,y,z
x,1/2-y,z
1/2+x,1/2+y,1/2+z
1/2-x,-y,1/2+z
1/2+x,1/2-y,1/2-z
1/2-x,y,1/2-z
1/2-x,1/2-y,1/2-z
1/2+x,y,1/2-z
1/2-x,1/2+y,1/2+z
1/2+x,-y,1/2+z
loop_
_atom_site_type_symbol
_atom_site_label
_atom_site_fract_x
_atom_site_fract_y
_atom_site_fract_z
Si Si1 0.345861 0.938664 0.717033
Si Si2 0.773285 0.062591 0.095723
Si Si3 0.682415 0.437775 0.095578
Si Si4 0.000000 0.064157 0.100427
Si Si5 0.582831 0.935425 0.399847
O O1 0.348894 0.750000 0.712931
O O2 0.304634 0.983659 0.669820
O O3 0.343108 0.985970 0.819709
O O4 0.381480 0.010849 0.662020
O O5 0.772918 0.250000 0.093181
O O6 0.728092 0.011258 0.110531
O O7 0.786079 0.000000 0.000000
O O8 0.682484 0.250000 0.092851
O O9 0.669761 0.500000 0.000000
O O10 0.000000 0.250000 0.100100
O O11 0.958700 0.001183 0.137292
O O12 0.000000 0.000000 0.000000
O O13 0.580669 0.750000 0.405327
O O14 0.588480 0.000000 0.500000
#
# Coordination Sequence:
#
# PCOD9534867 Si02
#       5
#    16  16  16   8  16
#     4  10  19  31  47  68  94 125 161 199 239 281
#     4   9  17  29  45  65  91 124 159 196 239 283
#     4   9  18  32  48  65  89 123 163 205 245 283
#     4  10  18  32  52  72  97 128 157 184 222 274
#     4  11  21  33  49  72 101 129 157 189 228 276
#
# _framework density 16.375567
#
# number of rings (size 3 to 8) (size 9 to 14) (size 15 to 20)
#    0.000    2.222    0.000    5.667    0.000    6.222 
#    0.000    0.000    0.000    6.667    0.000    0.778 
#    0.000    0.000    0.000    0.000    0.000    0.000 
#
# Total GULP energy -200802.707250 kJ/mol
# GULP energy per Si atom -5577.852979 kJ/mol
# Density = 1.633830 g / cm^3
# Si number density = 16.375567 Si / 1000 Ang^3
#
#
#
# Elastic Constant Matrix: (Units=GPa)
#
#
# Indices 1 2 3 4 5 6 
#
# 1 77.5297 33.2766 66.2570 0.0000 0.0000 0.0000
# 2 33.2766 63.9387 37.8824 0.0000 0.0000 0.0000
# 3 66.2570 37.8824 120.3380 0.0000 0.0000 0.0000
# 4 0.0000 0.0000 0.0000 22.6559 0.0000 0.0000
# 5 0.0000 0.0000 0.0000 0.0000 16.6470 0.0000
# 6 0.0000 0.0000 0.0000 0.0000 0.0000 24.0220
#
#
#
# Elastic Compliance Matrix: (Units=1/GPa)
#
#
# Indices 1 2 3 4 5 6 
#
# 1 0.026258 -0.006269 -0.012484 0.000000 0.000000 0.000000
# 2 -0.006269 0.020723 -0.003072 0.000000 0.000000 0.000000
# 3 -0.012484 -0.003072 0.016150 0.000000 0.000000 0.000000
# 4 0.000000 0.000000 0.000000 0.044139 0.000000 0.000000
# 5 0.000000 0.000000 0.000000 0.000000 0.060071 0.000000
# 6 0.000000 0.000000 0.000000 0.000000 0.000000 0.041628
#
#
# Mechanical properties :
#
#
# Convention : Reuss Voigt Hill
#
# Bulk Modulus (GPa) = 51.33118 59.62650 55.47884
# Shear Modulus (GPa) = 19.29667 20.95767 20.12717
#
# Velocity S-wave (km/s) = 3.43648 3.58133 3.50965
# Velocity P-wave (km/s) = 6.86732 7.32067 7.09761
#
# Compressibility (1/GPa) = 0.01948134
#
# Stress axis : x y z
#
# Youngs Moduli (GPa) = 38.08402 48.25611 61.91849
#
# Poissons Ratio (x) = 0.30254 0.77297
# Poissons Ratio (y) = 0.23876 0.19019
# Poissons Ratio (z) = 0.47543 0.14823
#
# Static dielectric constant tensor:
#      x y z
#    x 1.563040 0.000000 0.000000 
#    y 0.000000 1.558370 0.000000 
#    z 0.000000 0.000000 1.532000 
# 
# From -- ./inp_files/29383.got.cif
#   From: 2010.05.17/outbox.cif.g08.bks.cpg/sg74_15_cif.got.tgz:29383.got - 2010.06.03 17:57:02.
