data_PCOD9534520
_publ_section_title
;
Structure prediction by ZEFSAII (Michael W. Deem and Ramdas Pophale) SiO2 
 PCOD9534520
Probable space group: I M M A
;
_chemical_formula_sum "Si O2"
_cell_formula_units_Z 88
_cell_length_a 8.633202
_cell_length_b 21.407142
_cell_length_c 25.774866
_cell_angle_alpha 90.000000
_cell_angle_beta 90.000000
_cell_angle_gamma 90.000000
_cell_volume 4763.509204
_symmetry_space_group_name_H-M "I M M A"
_symmetry_group_IT_number 74
_symmetry_cell_setting 'orthorhombic'
loop_
_space_group_symop_operation_xyz
x,y,z
-x,1/2-y,z
x,-y,-z
-x,1/2+y,-z
-x,-y,-z
x,1/2+y,-z
-x,y,z
x,1/2-y,z
1/2+x,1/2+y,1/2+z
1/2-x,-y,1/2+z
1/2+x,1/2-y,1/2-z
1/2-x,y,1/2-z
1/2-x,1/2-y,1/2-z
1/2+x,y,1/2-z
1/2-x,1/2+y,1/2+z
1/2+x,-y,1/2+z
loop_
_atom_site_type_symbol
_atom_site_label
_atom_site_fract_x
_atom_site_fract_y
_atom_site_fract_z
Si Si1 0.815911 0.750000 0.690947
Si Si2 0.687618 0.180935 0.581533
Si Si3 0.682172 0.005834 0.844480
Si Si4 0.316251 0.123161 0.308151
Si Si5 0.186396 0.547052 0.047411
Si Si6 0.185523 0.632885 0.195627
O O1 0.750000 0.750000 0.750000
O O2 0.753925 0.685894 0.666869
O O3 0.000000 0.750000 0.693132
O O4 0.500000 0.183106 0.581927
O O5 0.744378 0.250000 0.566331
O O6 0.726750 0.121249 0.545339
O O7 0.734019 0.166297 0.641548
O O8 0.500000 0.001515 0.833839
O O9 0.718288 0.023427 0.903504
O O10 0.755179 0.061816 0.810878
O O11 0.763617 0.940241 0.834489
O O12 0.500000 0.128637 0.306374
O O13 0.250000 0.119447 0.250000
O O14 0.000000 0.543905 0.058175
O O15 0.215949 0.500000 0.000000
O O16 0.250000 0.658715 0.250000
O O17 0.000000 0.633793 0.197494
#
# Coordination Sequence:
#
# PCOD9534520 Si02
#       6
#     8  16  16  16  16  16
#     4  10  18  30  46  68  96 130 170 206 248 300
#     4   8  15  29  50  75 102 134 172 210 254 307
#     4  11  21  33  50  73  99 131 170 214 260 308
#     4  11  20  32  49  71 100 134 172 211 254 306
#     4   9  18  34  56  78 100 129 165 213 265 316
#     4  10  19  31  47  71 104 139 173 211 251 300
#
# _framework density 18.473776000000001
#
# number of rings (size 3 to 8) (size 9 to 14) (size 15 to 20)
#    0.000    2.182    0.000    7.364    0.000    0.727 
#    0.000    0.000    2.000   13.091    0.000    0.000 
#    0.000    0.000    0.000    0.000    0.000    0.000 
#
# Total GULP energy -245283.018045 kJ/mol
# GULP energy per Si atom -5574.614046 kJ/mol
# Density = 1.843173 g / cm^3
# Si number density = 18.473776 Si / 1000 Ang^3
#
#
#
# Elastic Constant Matrix: (Units=GPa)
#
#
# Indices 1 2 3 4 5 6 
#
# 1 87.3672 26.0771 9.4787 0.0000 0.0000 0.0000
# 2 26.0771 159.2826 26.7352 0.0000 0.0000 0.0000
# 3 9.4787 26.7352 42.6568 0.0000 0.0000 0.0000
# 4 0.0000 0.0000 0.0000 11.7717 0.0000 0.0000
# 5 0.0000 0.0000 0.0000 0.0000 22.3007 0.0000
# 6 0.0000 0.0000 0.0000 0.0000 0.0000 25.1021
#
#
#
# Elastic Compliance Matrix: (Units=1/GPa)
#
#
# Indices 1 2 3 4 5 6 
#
# 1 0.012134 -0.001714 -0.001622 0.000000 0.000000 0.000000
# 2 -0.001714 0.007258 -0.004168 0.000000 0.000000 0.000000
# 3 -0.001622 -0.004168 0.026416 0.000000 0.000000 0.000000
# 4 0.000000 0.000000 0.000000 0.084950 0.000000 0.000000
# 5 0.000000 0.000000 0.000000 0.000000 0.044842 0.000000
# 6 0.000000 0.000000 0.000000 0.000000 0.000000 0.039837
#
#
# Mechanical properties :
#
#
# Convention : Reuss Voigt Hill
#
# Bulk Modulus (GPa) = 32.46848 45.98763 39.22806
# Shear Modulus (GPa) = 20.77176 26.96927 23.87052
#
# Velocity S-wave (km/s) = 3.35683 3.82497 3.59852
# Velocity P-wave (km/s) = 5.71297 6.66743 6.20857
#
# Compressibility (1/GPa) = 0.03079910
#
# Stress axis : x y z
#
# Youngs Moduli (GPa) = 82.41606 137.77070 37.85618
#
# Poissons Ratio (x) = 0.23617 0.06139
# Poissons Ratio (y) = 0.14128 0.15780
# Poissons Ratio (z) = 0.13366 0.57427
#
# Static dielectric constant tensor:
#      x y z
#    x 1.613340 0.000000 0.000000 
#    y 0.000000 1.716250 0.000000 
#    z 0.000000 0.000000 1.638160 
# 
# From -- ./inp_files/56966.got.cif
#   From: 2010.05.17/outbox.cif.g08.bks.cpg/sg74_29_cif.got.tgz:56966.got - 2010.06.03 17:57:02.
