data_PCOD9534872
_publ_section_title
;
Structure prediction by ZEFSAII (Michael W. Deem and Ramdas Pophale) SiO2 
 PCOD9534872
Probable space group: I M M A
;
_chemical_formula_sum "Si O2"
_cell_formula_units_Z 104
_cell_length_a 28.352921
_cell_length_b 8.737581
_cell_length_c 24.489095
_cell_angle_alpha 90.000000
_cell_angle_beta 90.000000
_cell_angle_gamma 90.000000
_cell_volume 6066.829063
_symmetry_space_group_name_H-M "I M M A"
_symmetry_group_IT_number 74
_symmetry_cell_setting 'orthorhombic'
loop_
_space_group_symop_operation_xyz
x,y,z
-x,1/2-y,z
x,-y,-z
-x,1/2+y,-z
-x,-y,-z
x,1/2+y,-z
-x,y,z
x,1/2-y,z
1/2+x,1/2+y,1/2+z
1/2-x,-y,1/2+z
1/2+x,1/2-y,1/2-z
1/2-x,y,1/2-z
1/2-x,1/2-y,1/2-z
1/2+x,y,1/2-z
1/2-x,1/2+y,1/2+z
1/2+x,-y,1/2+z
loop_
_atom_site_type_symbol
_atom_site_label
_atom_site_fract_x
_atom_site_fract_y
_atom_site_fract_z
Si Si1 0.599204 0.566167 0.061526
Si Si2 0.174592 0.566391 0.644851
Si Si3 0.357747 0.934260 0.733405
Si Si4 0.946884 0.566004 0.829457
Si Si5 0.942611 0.575272 0.056031
Si Si6 0.267443 0.928087 0.313178
Si Si7 0.000000 0.565619 0.561816
O O1 0.596047 0.750000 0.059248
O O2 0.642938 0.512232 0.098575
O O3 0.549651 0.497435 0.084731
O O4 0.604659 0.500000 0.000000
O O5 0.172364 0.750000 0.638864
O O6 0.153400 0.522284 0.704315
O O7 0.228984 0.512649 0.649389
O O8 0.354949 0.750000 0.731145
O O9 0.409278 0.985937 0.714908
O O10 0.319049 0.999282 0.691513
O O11 0.948572 0.750000 0.828202
O O12 0.930357 0.515477 0.889416
O O13 0.000000 0.507591 0.820534
O O14 0.927054 0.750000 0.059983
O O15 0.000000 0.574455 0.053752
O O16 0.925637 0.500000 0.000000
O O17 0.269403 0.750000 0.327781
O O18 0.250000 0.940104 0.250000
O O19 0.000000 0.500000 0.500000
O O20 0.000000 0.750000 0.561868
#
# Coordination Sequence:
#
# PCOD9534872 Si02
#       7
#    16  16  16  16  16  16   8
#     4  11  21  35  54  77 106 138 176 219 265 314
#     4  10  19  33  52  77 103 131 170 213 257 308
#     4   9  18  32  50  73 101 135 171 208 253 305
#     4   9  17  30  47  68  98 132 165 199 240 291
#     4   9  16  26  42  64  88 117 156 197 235 273
#     4   9  17  30  50  74  97 125 161 205 251 295
#     4  10  18  32  52  74 100 134 174 214 257 306
#
# _framework density 17.142398
#
# number of rings (size 3 to 8) (size 9 to 14) (size 15 to 20)
#    0.000    2.462    0.000    4.385    0.000    4.923 
#    1.385    0.000    0.000    0.923    0.000    2.154 
#    0.000    0.000    0.000    0.000    0.000    0.000 
#
# Total GULP energy -289730.241565 kJ/mol
# GULP energy per Si atom -5571.735415 kJ/mol
# Density = 1.710338 g / cm^3
# Si number density = 17.142398 Si / 1000 Ang^3
#
#
#
# Elastic Constant Matrix: (Units=GPa)
#
#
# Indices 1 2 3 4 5 6 
#
# 1 97.1947 38.3997 48.4653 0.0000 0.0000 0.0000
# 2 38.3997 76.2645 25.9565 0.0000 0.0000 0.0000
# 3 48.4653 25.9565 56.3294 0.0000 0.0000 0.0000
# 4 0.0000 0.0000 0.0000 21.6644 0.0000 0.0000
# 5 0.0000 0.0000 0.0000 0.0000 25.3903 0.0000
# 6 0.0000 0.0000 0.0000 0.0000 0.0000 22.9826
#
#
#
# Elastic Compliance Matrix: (Units=1/GPa)
#
#
# Indices 1 2 3 4 5 6 
#
# 1 0.019425 -0.004853 -0.014476 0.000000 0.000000 0.000000
# 2 -0.004853 0.016764 -0.003549 0.000000 0.000000 0.000000
# 3 -0.014476 -0.003549 0.031843 0.000000 0.000000 0.000000
# 4 0.000000 0.000000 0.000000 0.046159 0.000000 0.000000
# 5 0.000000 0.000000 0.000000 0.000000 0.039385 0.000000
# 6 0.000000 0.000000 0.000000 0.000000 0.000000 0.043511
#
#
# Mechanical properties :
#
#
# Convention : Reuss Voigt Hill
#
# Bulk Modulus (GPa) = 44.89436 50.60351 47.74894
# Shear Modulus (GPa) = 19.97852 21.80528 20.89190
#
# Velocity S-wave (km/s) = 3.41757 3.57039 3.49481
# Velocity P-wave (km/s) = 6.46676 6.82499 6.64829
#
# Compressibility (1/GPa) = 0.02227451
#
# Stress axis : x y z
#
# Youngs Moduli (GPa) = 51.48109 59.65212 31.40378
#
# Poissons Ratio (x) = 0.28952 0.45461
# Poissons Ratio (y) = 0.24986 0.11145
# Poissons Ratio (z) = 0.74526 0.21170
#
# Static dielectric constant tensor:
#      x y z
#    x 1.611020 0.000000 0.000000 
#    y 0.000000 1.580320 0.000000 
#    z 0.000000 0.000000 1.567140 
# 
# From -- ./inp_files/62334.got.cif
#   From: 2010.05.17/outbox.cif.g08.bks.cpg/sg74_32_cif.got.tgz:62334.got - 2010.06.03 17:57:02.
