data_PCOD9534385
_publ_section_title
;
Structure prediction by ZEFSAII (Michael W. Deem and Ramdas Pophale) SiO2 
 PCOD9534385
Probable space group: I M M A
;
_chemical_formula_sum "Si O2"
_cell_formula_units_Z 96
_cell_length_a 14.182987
_cell_length_b 18.707477
_cell_length_c 22.140972
_cell_angle_alpha 90.000000
_cell_angle_beta 90.000000
_cell_angle_gamma 90.000000
_cell_volume 5874.617673
_symmetry_space_group_name_H-M "I M M A"
_symmetry_group_IT_number 74
_symmetry_cell_setting 'orthorhombic'
loop_
_space_group_symop_operation_xyz
x,y,z
-x,1/2-y,z
x,-y,-z
-x,1/2+y,-z
-x,-y,-z
x,1/2+y,-z
-x,y,z
x,1/2-y,z
1/2+x,1/2+y,1/2+z
1/2-x,-y,1/2+z
1/2+x,1/2-y,1/2-z
1/2-x,y,1/2-z
1/2-x,1/2-y,1/2-z
1/2+x,y,1/2-z
1/2-x,1/2+y,1/2+z
1/2+x,-y,1/2+z
loop_
_atom_site_type_symbol
_atom_site_label
_atom_site_fract_x
_atom_site_fract_y
_atom_site_fract_z
Si Si1 0.606427 0.331019 0.277798
Si Si2 0.208665 0.417252 0.127341
Si Si3 0.885379 0.331945 0.881640
Si Si4 0.110003 0.086038 0.004701
Si Si5 0.613841 0.456332 0.702196
Si Si6 0.892343 0.541001 0.682420
O O1 0.500000 0.336930 0.304849
O O2 0.619099 0.250000 0.257315
O O3 0.684239 0.353845 0.326161
O O4 0.608430 0.387929 0.224002
O O5 0.173442 0.395404 0.061907
O O6 0.148343 0.483045 0.155473
O O7 0.315771 0.444108 0.131458
O O8 0.852262 0.250000 0.881023
O O9 0.855417 0.380328 0.824588
O O10 0.000000 0.330384 0.880474
O O11 0.860558 0.374222 0.943198
O O12 0.000000 0.104337 0.016106
O O13 0.115029 0.000000 0.000000
O O14 0.500000 0.458902 0.702118
O O15 0.640989 0.479626 0.770172
O O16 0.000000 0.527409 0.663184
#
# Coordination Sequence:
#
# PCOD9534385 Si02
#       6
#    16  16  16  16  16  16
#     4   9  17  28  42  64  94 123 149 182 226 273
#     4  11  18  27  46  66  90 123 158 188 229 275
#     4   9  17  28  44  69 100 127 149 180 227 284
#     4  10  18  29  45  68  94 121 148 177 221 282
#     4   9  15  27  46  68  92 119 150 184 228 280
#     4   9  19  31  44  64  90 122 161 199 229 267
#
# _framework density 16.341488999999999
#
# number of rings (size 3 to 8) (size 9 to 14) (size 15 to 20)
#    0.000    2.500    1.667    4.500    0.000    2.000 
#    0.000    1.667    0.000    2.500    0.000    0.000 
#    0.000    1.333    0.000    0.000    0.000    0.000 
#
# Total GULP energy -267358.593704 kJ/mol
# GULP energy per Si atom -5569.970702 kJ/mol
# Density = 1.630429 g / cm^3
# Si number density = 16.341489 Si / 1000 Ang^3
#
#
#
# Elastic Constant Matrix: (Units=GPa)
#
#
# Indices 1 2 3 4 5 6 
#
# 1 57.0397 1.2769 20.5962 0.0000 0.0000 0.0000
# 2 1.2769 86.7246 17.1028 0.0000 0.0000 0.0000
# 3 20.5962 17.1028 41.5378 0.0000 0.0000 0.0000
# 4 0.0000 0.0000 0.0000 13.3410 0.0000 0.0000
# 5 0.0000 0.0000 0.0000 0.0000 12.1213 0.0000
# 6 0.0000 0.0000 0.0000 0.0000 0.0000 4.6325
#
#
#
# Elastic Compliance Matrix: (Units=1/GPa)
#
#
# Indices 1 2 3 4 5 6 
#
# 1 0.021656 0.001958 -0.011544 0.000000 0.000000 0.000000
# 2 0.001958 0.012727 -0.006211 0.000000 0.000000 0.000000
# 3 -0.011544 -0.006211 0.032356 0.000000 0.000000 0.000000
# 4 0.000000 0.000000 0.000000 0.074957 0.000000 0.000000
# 5 0.000000 0.000000 0.000000 0.000000 0.082500 0.000000
# 6 0.000000 0.000000 0.000000 0.000000 0.000000 0.215868
#
#
# Mechanical properties :
#
#
# Convention : Reuss Voigt Hill
#
# Bulk Modulus (GPa) = 28.45415 29.25043 28.85229
# Shear Modulus (GPa) = 10.34398 15.77402 13.05900
#
# Velocity S-wave (km/s) = 2.51866 3.11026 2.82996
# Velocity P-wave (km/s) = 5.09001 5.55307 5.32657
#
# Compressibility (1/GPa) = 0.03514426
#
# Stress axis : x y z
#
# Youngs Moduli (GPa) = 46.17598 78.57457 30.90637
#
# Poissons Ratio (x) = -0.15383 0.35679
# Poissons Ratio (y) = -0.09040 0.19195
# Poissons Ratio (z) = 0.53306 0.48801
#
# Static dielectric constant tensor:
#      x y z
#    x 1.581650 0.000000 0.000000 
#    y 0.000000 1.571580 0.000000 
#    z 0.000000 0.000000 1.545830 
# 
# From -- ./inp_files/52230.got.cif
#   From: 2010.05.17/outbox.cif.g08.bks.cpg/sg74_27_cif.got.tgz:52230.got - 2010.06.03 17:57:02.
