data_PCOD9534715
_publ_section_title
;
Structure prediction by ZEFSAII (Michael W. Deem and Ramdas Pophale) SiO2 
 PCOD9534715
Probable space group: I M M A
;
_chemical_formula_sum "Si O2"
_cell_formula_units_Z 64
_cell_length_a 8.469110
_cell_length_b 13.096566
_cell_length_c 23.631502
_cell_angle_alpha 90.000000
_cell_angle_beta 90.000000
_cell_angle_gamma 90.000000
_cell_volume 2621.117775
_symmetry_space_group_name_H-M "I M M A"
_symmetry_group_IT_number 74
_symmetry_cell_setting 'orthorhombic'
loop_
_space_group_symop_operation_xyz
x,y,z
-x,1/2-y,z
x,-y,-z
-x,1/2+y,-z
-x,-y,-z
x,1/2+y,-z
-x,y,z
x,1/2-y,z
1/2+x,1/2+y,1/2+z
1/2-x,-y,1/2+z
1/2+x,1/2-y,1/2-z
1/2-x,y,1/2-z
1/2-x,1/2-y,1/2-z
1/2+x,y,1/2-z
1/2-x,1/2+y,1/2+z
1/2+x,-y,1/2+z
loop_
_atom_site_type_symbol
_atom_site_label
_atom_site_fract_x
_atom_site_fract_y
_atom_site_fract_z
Si Si1 0.305428 0.944484 0.887470
Si Si2 0.171400 0.867808 0.006027
Si Si3 0.310480 0.250000 0.186471
Si Si4 0.308705 0.863567 0.185759
Si Si5 0.000000 0.374272 0.515715
O O1 0.500000 0.940347 0.892872
O O2 0.224953 0.924937 0.948492
O O3 0.260204 0.848935 0.848454
O O4 0.253999 0.043564 0.852886
O O5 0.157007 0.750000 0.989899
O O6 0.329676 0.870333 0.044018
O O7 0.000000 0.899027 0.027917
O O8 0.500000 0.250000 0.188417
O O9 0.250000 0.250000 0.250000
O O10 0.500000 0.865434 0.185394
O O11 0.256502 0.750000 0.167431
O O12 0.250000 0.877860 0.250000
O O13 0.000000 0.500000 0.500000
O O14 0.000000 0.250000 0.488234
#
# Coordination Sequence:
#
# PCOD9534715 Si02
#       5
#    16  16   8  16   8
#     4  10  18  31  50  71 103 144 186 233 282 337
#     4  10  20  35  60  90 116 152 193 231 283 355
#     4  10  20  28  42  68 104 142 182 232 286 328
#     4   9  18  31  46  65  94 139 191 239 288 339
#     4  10  22  42  68  94 126 158 192 236 300 360
#
# _framework density 24.417065000000001
#
# number of rings (size 3 to 8) (size 9 to 14) (size 15 to 20)
#    0.000    2.250    2.500    0.750    0.000    2.500 
#    0.000    1.250    0.000    1.500    0.000    0.000 
#    0.000    0.000    0.000    0.000    0.000    0.000 
#
# Total GULP energy -178283.826943 kJ/mol
# GULP energy per Si atom -5571.369592 kJ/mol
# Density = 2.436149 g / cm^3
# Si number density = 24.417065 Si / 1000 Ang^3
#
#
#
# Elastic Constant Matrix: (Units=GPa)
#
#
# Indices 1 2 3 4 5 6 
#
# 1 147.7855 22.2530 7.9110 0.0000 0.0000 0.0000
# 2 22.2530 206.0090 56.8954 0.0000 0.0000 0.0000
# 3 7.9110 56.8954 107.6688 0.0000 0.0000 0.0000
# 4 0.0000 0.0000 0.0000 37.3566 0.0000 0.0000
# 5 0.0000 0.0000 0.0000 0.0000 34.7297 0.0000
# 6 0.0000 0.0000 0.0000 0.0000 0.0000 27.4034
#
#
#
# Elastic Compliance Matrix: (Units=1/GPa)
#
#
# Indices 1 2 3 4 5 6 
#
# 1 0.006880 -0.000707 -0.000132 0.000000 0.000000 0.000000
# 2 -0.000707 0.005756 -0.002990 0.000000 0.000000 0.000000
# 3 -0.000132 -0.002990 0.010877 0.000000 0.000000 0.000000
# 4 0.000000 0.000000 0.000000 0.026769 0.000000 0.000000
# 5 0.000000 0.000000 0.000000 0.000000 0.028794 0.000000
# 6 0.000000 0.000000 0.000000 0.000000 0.000000 0.036492
#
#
# Mechanical properties :
#
#
# Convention : Reuss Voigt Hill
#
# Bulk Modulus (GPa) = 63.06595 70.62022 66.84309
# Shear Modulus (GPa) = 38.90719 44.85820 41.88270
#
# Velocity S-wave (km/s) = 3.99613 4.29087 4.14612
# Velocity P-wave (km/s) = 6.86853 7.31669 7.09615
#
# Compressibility (1/GPa) = 0.01585642
#
# Stress axis : x y z
#
# Youngs Moduli (GPa) = 145.34788 173.72498 91.93408
#
# Poissons Ratio (x) = 0.12277 0.01214
# Poissons Ratio (y) = 0.10272 0.27487
# Poissons Ratio (z) = 0.01920 0.51941
#
# Static dielectric constant tensor:
#      x y z
#    x 1.982410 0.000000 0.000000 
#    y 0.000000 2.132100 0.000000 
#    z 0.000000 0.000000 1.940530 
# 
# From -- ./inp_files/69778.got.cif
#   From: 2010.05.17/outbox.cif.g08.bks.cpg/sg74_35_cif.got.tgz:69778.got - 2010.06.03 17:57:02.
