data_PCOD9534088
_publ_section_title
;
Structure prediction by ZEFSAII (Michael W. Deem and Ramdas Pophale) SiO2 
 PCOD9534088
Probable space group: I M M A
;
_chemical_formula_sum "Si O2"
_cell_formula_units_Z 96
_cell_length_a 15.202253
_cell_length_b 16.618263
_cell_length_c 24.095757
_cell_angle_alpha 90.000000
_cell_angle_beta 90.000000
_cell_angle_gamma 90.000000
_cell_volume 6087.432499
_symmetry_space_group_name_H-M "I M M A"
_symmetry_group_IT_number 74
_symmetry_cell_setting 'orthorhombic'
loop_
_space_group_symop_operation_xyz
x,y,z
-x,1/2-y,z
x,-y,-z
-x,1/2+y,-z
-x,-y,-z
x,1/2+y,-z
-x,y,z
x,1/2-y,z
1/2+x,1/2+y,1/2+z
1/2-x,-y,1/2+z
1/2+x,1/2-y,1/2-z
1/2-x,y,1/2-z
1/2-x,1/2-y,1/2-z
1/2+x,y,1/2-z
1/2-x,1/2+y,1/2+z
1/2+x,-y,1/2+z
loop_
_atom_site_type_symbol
_atom_site_label
_atom_site_fract_x
_atom_site_fract_y
_atom_site_fract_z
Si Si1 0.597338 0.155117 0.496882
Si Si2 0.150899 0.844359 0.398266
Si Si3 0.895947 0.653555 0.524394
Si Si4 0.841027 0.590451 0.113539
Si Si5 0.500000 0.151876 0.817407
Si Si6 0.758797 0.054066 0.056541
Si Si7 0.000000 0.151472 0.812430
O O1 0.500000 0.136095 0.475613
O O2 0.604633 0.250000 0.506228
O O3 0.611429 0.112196 0.555691
O O4 0.672246 0.124222 0.456601
O O5 0.133040 0.750000 0.400777
O O6 0.129261 0.871751 0.460940
O O7 0.252139 0.857280 0.383173
O O8 0.084911 0.877470 0.351889
O O9 0.876960 0.750000 0.530302
O O10 0.835334 0.597042 0.562721
O O11 0.000000 0.642579 0.532184
O O12 0.799481 0.501567 0.104719
O O13 0.912669 0.613027 0.159617
O O14 0.500000 0.250000 0.817915
O O15 0.500000 0.131832 0.752808
O O16 0.756124 0.000000 0.000000
O O17 0.000000 0.250000 0.820463
#
# Coordination Sequence:
#
# PCOD9534088 Si02
#       7
#    16  16  16  16   8  16   8
#     4  10  18  28  44  63  89 128 166 196 232 281
#     4  10  17  30  48  68  93 124 165 203 242 281
#     4  10  18  30  49  69  96 134 166 194 232 286
#     4  11  21  30  45  67  94 130 162 199 243 287
#     4   9  20  34  50  70  88 119 171 223 244 267
#     4  10  20  29  41  69  96 126 164 199 231 290
#     4  11  22  36  51  67  91 129 178 214 244 279
#
# _framework density 15.770194999999999
#
# number of rings (size 3 to 8) (size 9 to 14) (size 15 to 20)
#    0.000    1.833    5.000    2.000    1.167    2.000 
#    1.500    2.500    0.000    0.000    0.000    0.000 
#    0.000    0.000    0.000   18.000    0.000    0.000 
#
# Total GULP energy -267298.558943 kJ/mol
# GULP energy per Si atom -5568.719978 kJ/mol
# Density = 1.573430 g / cm^3
# Si number density = 15.770195 Si / 1000 Ang^3
#
#
#
# Elastic Constant Matrix: (Units=GPa)
#
#
# Indices 1 2 3 4 5 6 
#
# 1 107.3428 35.5424 25.3033 0.0000 0.0000 0.0000
# 2 35.5424 47.6717 22.4069 0.0000 0.0000 0.0000
# 3 25.3033 22.4069 37.2415 0.0000 0.0000 0.0000
# 4 0.0000 0.0000 0.0000 14.6059 0.0000 0.0000
# 5 0.0000 0.0000 0.0000 0.0000 -2.9605 0.0000
# 6 0.0000 0.0000 0.0000 0.0000 0.0000 22.0437
#
#
#
# Elastic Compliance Matrix: (Units=1/GPa)
#
#
# Indices 1 2 3 4 5 6 
#
# 1 0.012808 -0.007611 -0.004123 0.000000 0.000000 0.000000
# 2 -0.007611 0.033771 -0.015148 0.000000 0.000000 0.000000
# 3 -0.004123 -0.015148 0.038767 0.000000 0.000000 0.000000
# 4 0.000000 0.000000 0.000000 0.068465 0.000000 0.000000
# 5 0.000000 0.000000 0.000000 0.000000 -0.337782 0.000000
# 6 0.000000 0.000000 0.000000 0.000000 0.000000 0.045364
#
#
# Mechanical properties :
#
#
# Convention : Reuss Voigt Hill
#
# Bulk Modulus (GPa) = 31.66297 39.86236 35.76267
# Shear Modulus (GPa) = -67.28149 14.00471 -26.63839
#
# Velocity S-wave (km/s) = -6.53883 2.98325 -4.11440
# Velocity P-wave (km/s) = 6.07348 6.09904 0.39443
#
# Compressibility (1/GPa) = 0.03158263
#
# Stress axis : x y z
#
# Youngs Moduli (GPa) = 78.07622 29.61086 25.79530
#
# Poissons Ratio (x) = 0.22538 0.10635
# Poissons Ratio (y) = 0.59427 0.39074
# Poissons Ratio (z) = 0.32189 0.44853
#
# Static dielectric constant tensor:
#      x y z
#    x 1.612530 0.000000 0.000000 
#    y 0.000000 1.562490 0.000000 
#    z 0.000000 0.000000 1.505350 
# 
# From -- ./inp_files/60025.got.cif
#   From: 2010.05.17/outbox.cif.g08.bks.cpg/sg74_31_cif.got.tgz:60025.got - 2010.06.03 17:57:02.
