data_PCOD9534852
_publ_section_title
;
Structure prediction by ZEFSAII (Michael W. Deem and Ramdas Pophale) SiO2 
 PCOD9534852
Probable space group: I M M A
;
_chemical_formula_sum "Si O2"
_cell_formula_units_Z 116
_cell_length_a 7.547667
_cell_length_b 28.211164
_cell_length_c 29.266375
_cell_angle_alpha 90.000000
_cell_angle_beta 90.000000
_cell_angle_gamma 90.000000
_cell_volume 6231.644497
_symmetry_space_group_name_H-M "I M M A"
_symmetry_group_IT_number 74
_symmetry_cell_setting 'orthorhombic'
loop_
_space_group_symop_operation_xyz
x,y,z
-x,1/2-y,z
x,-y,-z
-x,1/2+y,-z
-x,-y,-z
x,1/2+y,-z
-x,y,z
x,1/2-y,z
1/2+x,1/2+y,1/2+z
1/2-x,-y,1/2+z
1/2+x,1/2-y,1/2-z
1/2-x,y,1/2-z
1/2-x,1/2-y,1/2-z
1/2+x,y,1/2-z
1/2-x,1/2+y,1/2+z
1/2+x,-y,1/2+z
loop_
_atom_site_type_symbol
_atom_site_label
_atom_site_fract_x
_atom_site_fract_y
_atom_site_fract_z
Si Si1 0.715716 0.986407 0.050615
Si Si2 0.197197 0.676844 0.943359
Si Si3 0.000000 0.250000 0.416442
Si Si4 0.712284 0.439154 0.801236
Si Si5 0.216764 0.106267 0.605093
Si Si6 0.785596 0.580381 0.604209
Si Si7 0.288075 0.452180 0.199209
Si Si8 0.284828 0.695927 0.048578
O O1 0.500000 0.984613 0.049392
O O2 0.764737 0.029400 0.083771
O O3 0.772812 0.936084 0.070979
O O4 0.776593 0.000000 0.000000
O O5 0.345728 0.708863 0.920194
O O6 0.215228 0.623234 0.925773
O O7 0.000000 0.693596 0.932988
O O8 0.226757 0.680806 0.997871
O O9 0.500000 0.441730 0.805716
O O10 0.750000 0.421530 0.750000
O O11 0.775626 0.407873 0.843851
O O12 0.780501 0.493507 0.804308
O O13 0.273674 0.156838 0.585226
O O14 0.000000 0.106694 0.605219
O O15 0.726194 0.579493 0.656978
O O16 0.000000 0.583407 0.602325
O O17 0.500000 0.455299 0.194659
O O18 0.250000 0.434373 0.250000
O O19 0.500000 0.696263 0.047795
O O20 0.226927 0.750000 0.057329
#
# Coordination Sequence:
#
# PCOD9534852 Si02
#       8
#    16  16   4  16  16  16  16  16
#     4   9  15  24  43  71 102 141 182 217 265 340
#     4  12  23  37  60  86 114 148 187 236 282 327
#     4  12  22  44  60  82 116 148 198 236 274 330
#     4   9  16  29  47  72  99 138 186 230 278 340
#     4   9  16  27  48  75 101 141 191 229 277 346
#     4  10  18  32  51  77 112 144 180 227 280 338
#     4   9  17  29  49  73 107 141 179 227 277 336
#     4  10  18  33  53  77 108 141 186 243 290 334
#
# _framework density 18.614668999999999
#
# number of rings (size 3 to 8) (size 9 to 14) (size 15 to 20)
#    0.000    2.207    3.448    1.034    0.000    2.759 
#    0.000    0.690    0.000    4.138    0.000    0.483 
#    0.000    0.000    0.000    0.000    0.000    0.000 
#
# Total GULP energy -323143.381995 kJ/mol
# GULP energy per Si atom -5571.437621 kJ/mol
# Density = 1.857230 g / cm^3
# Si number density = 18.614669 Si / 1000 Ang^3
#
#
#
# Elastic Constant Matrix: (Units=GPa)
#
#
# Indices 1 2 3 4 5 6 
#
# 1 73.3385 12.8450 3.6101 0.0000 0.0000 0.0000
# 2 12.8450 126.4266 64.9994 0.0000 0.0000 0.0000
# 3 3.6101 64.9994 115.3049 0.0000 0.0000 0.0000
# 4 0.0000 0.0000 0.0000 29.7444 0.0000 0.0000
# 5 0.0000 0.0000 0.0000 0.0000 14.0289 0.0000
# 6 0.0000 0.0000 0.0000 0.0000 0.0000 -512.4032
#
#
#
# Elastic Compliance Matrix: (Units=1/GPa)
#
#
# Indices 1 2 3 4 5 6 
#
# 1 0.013904 -0.001674 0.000508 0.000000 0.000000 0.000000
# 2 -0.001674 0.011339 -0.006340 0.000000 0.000000 0.000000
# 3 0.000508 -0.006340 0.012231 0.000000 0.000000 0.000000
# 4 0.000000 0.000000 0.000000 0.033620 0.000000 0.000000
# 5 0.000000 0.000000 0.000000 0.000000 0.071281 0.000000
# 6 0.000000 0.000000 0.000000 0.000000 0.000000 -0.001952
#
#
# Mechanical properties :
#
#
# Convention : Reuss Voigt Hill
#
# Bulk Modulus (GPa) = 44.51832 53.10879 48.81355
# Shear Modulus (GPa) = 30.68969 -78.15161 -23.73096
#
# Velocity S-wave (km/s) = 4.06480 -6.48653 -3.57438
# Velocity P-wave (km/s) = 6.78217 5.24476 3.04058
#
# Compressibility (1/GPa) = 0.02246266
#
# Stress axis : x y z
#
# Youngs Moduli (GPa) = 71.92402 88.18941 81.76243
#
# Poissons Ratio (x) = 0.14762 -0.04156
# Poissons Ratio (y) = 0.12040 0.51835
# Poissons Ratio (z) = -0.03656 0.55910
#
# Static dielectric constant tensor:
#      x y z
#    x 1.716060 0.000000 0.000000 
#    y 0.000000 1.639620 0.000000 
#    z 0.000000 0.000000 1.653950 
# 
# From -- ./inp_files/71043.got.cif
#   From: 2010.05.17/outbox.cif.g08.bks.cpg/sg74_36_cif.got.tgz:71043.got - 2010.06.03 17:57:02.
