data_PCOD9534434
_publ_section_title
;
Structure prediction by ZEFSAII (Michael W. Deem and Ramdas Pophale) SiO2 
 PCOD9534434
Probable space group: I M M A
;
_chemical_formula_sum "Si O2"
_cell_formula_units_Z 96
_cell_length_a 15.061738
_cell_length_b 13.884785
_cell_length_c 21.956634
_cell_angle_alpha 90.000000
_cell_angle_beta 90.000000
_cell_angle_gamma 90.000000
_cell_volume 4591.768777
_symmetry_space_group_name_H-M "I M M A"
_symmetry_group_IT_number 74
_symmetry_cell_setting 'orthorhombic'
loop_
_space_group_symop_operation_xyz
x,y,z
-x,1/2-y,z
x,-y,-z
-x,1/2+y,-z
-x,-y,-z
x,1/2+y,-z
-x,y,z
x,1/2-y,z
1/2+x,1/2+y,1/2+z
1/2-x,-y,1/2+z
1/2+x,1/2-y,1/2-z
1/2-x,y,1/2-z
1/2-x,1/2-y,1/2-z
1/2+x,y,1/2-z
1/2-x,1/2+y,1/2+z
1/2+x,-y,1/2+z
loop_
_atom_site_type_symbol
_atom_site_label
_atom_site_fract_x
_atom_site_fract_y
_atom_site_fract_z
Si Si1 0.102622 0.465624 0.655834
Si Si2 0.397563 0.133539 0.494691
Si Si3 0.603892 0.358644 0.364936
Si Si4 0.099983 0.865920 0.213225
Si Si5 0.146340 0.140191 0.265333
Si Si6 0.766842 0.366177 0.894337
O O1 0.113263 0.406504 0.719259
O O2 0.124011 0.574175 0.677548
O O3 0.174561 0.422908 0.609804
O O4 0.000000 0.457634 0.636567
O O5 0.500000 0.104306 0.508537
O O6 0.400124 0.250000 0.489521
O O7 0.363755 0.097657 0.428375
O O8 0.328545 0.112731 0.547716
O O9 0.500000 0.349112 0.377605
O O10 0.642933 0.250000 0.357967
O O11 0.608889 0.402905 0.297997
O O12 0.102900 0.750000 0.216889
O O13 0.175257 0.893679 0.165225
O O14 0.000000 0.891811 0.191806
O O15 0.114256 0.250000 0.273551
O O16 0.250000 0.141670 0.250000
O O17 0.751559 0.250000 0.892692
#
# Coordination Sequence:
#
# PCOD9534434 Si02
#       6
#    16  16  16  16  16  16
#     4  11  22  33  47  69 102 144 185 222 261 307
#     4   8  14  26  48  80 114 144 171 205 261 331
#     4   8  14  27  49  78 110 137 163 205 267 335
#     4   9  17  29  46  69  99 137 177 215 261 319
#     4  10  20  34  54  79 104 133 175 227 281 332
#     4  10  18  29  48  75 109 145 178 213 256 313
#
# _framework density 20.906974999999999
#
# number of rings (size 3 to 8) (size 9 to 14) (size 15 to 20)
#    0.000    2.667    0.000    4.000    0.000    5.333 
#    0.000    0.000    0.000    4.000    0.000   15.167 
#    0.000   14.667    0.000    3.833    0.000    1.833 
#
# Total GULP energy -267904.560699 kJ/mol
# GULP energy per Si atom -5581.345015 kJ/mol
# Density = 2.085939 g / cm^3
# Si number density = 20.906975 Si / 1000 Ang^3
#
#
#
# Elastic Constant Matrix: (Units=GPa)
#
#
# Indices 1 2 3 4 5 6 
#
# 1 87.9630 21.9726 36.8686 0.0000 0.0000 0.0000
# 2 21.9726 95.7592 18.7860 0.0000 0.0000 0.0000
# 3 36.8686 18.7860 60.3747 0.0000 0.0000 0.0000
# 4 0.0000 0.0000 0.0000 4.0056 0.0000 0.0000
# 5 0.0000 0.0000 0.0000 0.0000 -125.9964 0.0000
# 6 0.0000 0.0000 0.0000 0.0000 0.0000 -5.3754
#
#
#
# Elastic Compliance Matrix: (Units=1/GPa)
#
#
# Indices 1 2 3 4 5 6 
#
# 1 0.015571 -0.001818 -0.008943 0.000000 0.000000 0.000000
# 2 -0.001818 0.011334 -0.002416 0.000000 0.000000 0.000000
# 3 -0.008943 -0.002416 0.022776 0.000000 0.000000 0.000000
# 4 0.000000 0.000000 0.000000 0.249653 0.000000 0.000000
# 5 0.000000 0.000000 0.000000 0.000000 -0.007937 0.000000
# 6 0.000000 0.000000 0.000000 0.000000 0.000000 -0.186034
#
#
# Mechanical properties :
#
#
# Convention : Reuss Voigt Hill
#
# Bulk Modulus (GPa) = 42.87022 44.37239 43.62130
# Shear Modulus (GPa) = 35.84385 -14.37526 10.73430
#
# Velocity S-wave (km/s) = 4.14508 -2.62502 2.26836
# Velocity P-wave (km/s) = 6.59232 3.47594 5.26976
#
# Compressibility (1/GPa) = 0.02332622
#
# Stress axis : x y z
#
# Youngs Moduli (GPa) = 64.22228 88.22908 43.90570
#
# Poissons Ratio (x) = 0.16044 0.39264
# Poissons Ratio (y) = 0.11679 0.10609
# Poissons Ratio (z) = 0.57433 0.21318
#
# Static dielectric constant tensor:
#      x y z
#    x 1.763310 0.000000 0.000000 
#    y 0.000000 1.820410 0.000000 
#    z 0.000000 0.000000 1.774600 
# 
# From -- ./inp_files/51849.got.cif
#   From: 2010.05.17/outbox.cif.g08.bks.cpg/sg74_26_cif.got.tgz:51849.got - 2010.06.03 17:57:02.
