data_PCOD9534945
_publ_section_title
;
Structure prediction by ZEFSAII (Michael W. Deem and Ramdas Pophale) SiO2 
 PCOD9534945
Probable space group: I M M A
;
_chemical_formula_sum "Si O2"
_cell_formula_units_Z 64
_cell_length_a 13.861000
_cell_length_b 14.654662
_cell_length_c 16.415182
_cell_angle_alpha 90.000000
_cell_angle_beta 90.000000
_cell_angle_gamma 90.000000
_cell_volume 3334.387521
_symmetry_space_group_name_H-M "I M M A"
_symmetry_group_IT_number 74
_symmetry_cell_setting 'orthorhombic'
loop_
_space_group_symop_operation_xyz
x,y,z
-x,1/2-y,z
x,-y,-z
-x,1/2+y,-z
-x,-y,-z
x,1/2+y,-z
-x,y,z
x,1/2-y,z
1/2+x,1/2+y,1/2+z
1/2-x,-y,1/2+z
1/2+x,1/2-y,1/2-z
1/2-x,y,1/2-z
1/2-x,1/2-y,1/2-z
1/2+x,y,1/2-z
1/2-x,1/2+y,1/2+z
1/2+x,-y,1/2+z
loop_
_atom_site_type_symbol
_atom_site_label
_atom_site_fract_x
_atom_site_fract_y
_atom_site_fract_z
Si Si1 0.776644 0.854327 0.137570
Si Si2 0.114572 0.457475 0.719424
Si Si3 0.616629 0.647511 0.705804
Si Si4 0.389203 0.107073 0.479367
O O1 0.758447 0.750000 0.161266
O O2 0.853082 0.901756 0.199342
O O3 0.679621 0.913196 0.149118
O O4 0.820091 0.853779 0.047853
O O5 0.141895 0.563121 0.735939
O O6 0.000000 0.450007 0.707263
O O7 0.500000 0.646603 0.704202
O O8 0.646211 0.750000 0.728990
O O9 0.645185 0.625778 0.612483
O O10 0.500000 0.140938 0.486619
O O11 0.391998 0.000000 0.500000
#
# Coordination Sequence:
#
# PCOD9534945 Si02
#       4
#    16  16  16  16
#     4  11  22  33  51  80 109 143 182 218 266 325
#     4  10  20  35  52  76 110 142 176 220 267 318
#     4   9  17  31  54  81 105 134 173 218 273 325
#     4  10  18  32  55  81 111 140 169 219 276 322
#
# _framework density 19.193930999999999
#
# number of rings (size 3 to 8) (size 9 to 14) (size 15 to 20)
#    0.000    2.000    2.500    3.000    0.000    4.500 
#    0.000    2.500    0.000    0.750    0.000    0.000 
#    0.000    0.000    0.000    0.000    0.000    0.000 
#
# Total GULP energy -178560.401828 kJ/mol
# GULP energy per Si atom -5580.012557 kJ/mol
# Density = 1.915024 g / cm^3
# Si number density = 19.193931 Si / 1000 Ang^3
#
#
#
# Elastic Constant Matrix: (Units=GPa)
#
#
# Indices 1 2 3 4 5 6 
#
# 1 119.6622 36.5009 35.5672 0.0000 0.0000 0.0000
# 2 36.5009 179.4022 35.6971 0.0000 0.0000 0.0000
# 3 35.5672 35.6971 47.6708 0.0000 0.0000 0.0000
# 4 0.0000 0.0000 0.0000 14.2771 0.0000 0.0000
# 5 0.0000 0.0000 0.0000 0.0000 34.7018 0.0000
# 6 0.0000 0.0000 0.0000 0.0000 0.0000 18.0822
#
#
#
# Elastic Compliance Matrix: (Units=1/GPa)
#
#
# Indices 1 2 3 4 5 6 
#
# 1 0.010812 -0.000699 -0.007544 0.000000 0.000000 0.000000
# 2 -0.000699 0.006595 -0.004417 0.000000 0.000000 0.000000
# 3 -0.007544 -0.004417 0.029913 0.000000 0.000000 0.000000
# 4 0.000000 0.000000 0.000000 0.070042 0.000000 0.000000
# 5 0.000000 0.000000 0.000000 0.000000 0.028817 0.000000
# 6 0.000000 0.000000 0.000000 0.000000 0.000000 0.055303
#
#
# Mechanical properties :
#
#
# Convention : Reuss Voigt Hill
#
# Bulk Modulus (GPa) = 45.45216 62.47394 53.96305
# Shear Modulus (GPa) = 21.35509 29.34356 25.34932
#
# Velocity S-wave (km/s) = 3.33918 3.91422 3.63808
# Velocity P-wave (km/s) = 6.21279 7.28338 6.76928
#
# Compressibility (1/GPa) = 0.02200116
#
# Stress axis : x y z
#
# Youngs Moduli (GPa) = 92.48779 151.62575 33.42994
#
# Poissons Ratio (x) = 0.10596 0.25219
# Poissons Ratio (y) = 0.06463 0.14767
# Poissons Ratio (z) = 0.69770 0.66977
#
# Static dielectric constant tensor:
#      x y z
#    x 1.681740 0.000000 0.000000 
#    y 0.000000 1.717530 0.000000 
#    z 0.000000 0.000000 1.654950 
# 
# From -- ./inp_files/31693.got.cif
#   From: 2010.05.17/outbox.cif.g08.bks.cpg/sg74_16_cif.got.tgz:31693.got - 2010.06.03 17:57:02.
