data_PCOD9534204
_publ_section_title
;
Structure prediction by ZEFSAII (Michael W. Deem and Ramdas Pophale) SiO2 
 PCOD9534204
Probable space group: I M M A
;
_chemical_formula_sum "Si O2"
_cell_formula_units_Z 60
_cell_length_a 22.023117
_cell_length_b 13.158953
_cell_length_c 10.251753
_cell_angle_alpha 90.000000
_cell_angle_beta 90.000000
_cell_angle_gamma 90.000000
_cell_volume 2970.969927
_symmetry_space_group_name_H-M "I M M A"
_symmetry_group_IT_number 74
_symmetry_cell_setting 'orthorhombic'
loop_
_space_group_symop_operation_xyz
x,y,z
-x,1/2-y,z
x,-y,-z
-x,1/2+y,-z
-x,-y,-z
x,1/2+y,-z
-x,y,z
x,1/2-y,z
1/2+x,1/2+y,1/2+z
1/2-x,-y,1/2+z
1/2+x,1/2-y,1/2-z
1/2-x,y,1/2-z
1/2-x,1/2-y,1/2-z
1/2+x,y,1/2-z
1/2-x,1/2+y,1/2+z
1/2+x,-y,1/2+z
loop_
_atom_site_type_symbol
_atom_site_label
_atom_site_fract_x
_atom_site_fract_y
_atom_site_fract_z
Si Si1 0.571078 0.750000 0.734949
Si Si2 0.292957 0.364401 0.621210
Si Si3 0.500000 0.250000 0.004089
Si Si4 0.622829 0.530224 0.739244
Si Si5 0.000000 0.047470 0.644089
Si Si6 0.201374 0.000000 0.500000
O O1 0.500000 0.750000 0.683357
O O2 0.608367 0.647456 0.701573
O O3 0.556486 0.750000 0.892937
O O4 0.316430 0.250000 0.600438
O O5 0.250000 0.362177 0.750000
O O6 0.342772 0.452224 0.643482
O O7 0.245838 0.403449 0.513701
O O8 0.500000 0.339312 0.902257
O O9 0.557801 0.485112 0.775035
O O10 0.660986 0.521563 0.873579
O O11 0.000000 0.000000 0.500000
#
# Coordination Sequence:
#
# PCOD9534204 Si02
#       6
#     8  16   4  16   8   8
#     4  10  18  32  49  82 121 139 172 218 283 344
#     4   9  21  39  54  79 112 152 192 230 270 322
#     4  10  18  26  46  78 116 140 174 214 278 352
#     4  11  20  34  55  84 117 147 182 228 277 341
#     4  12  18  32  50  87 112 146 181 221 298 335
#     4  10  20  37  58  79 110 152 190 228 276 322
#
# _framework density 20.195426000000001
#
# number of rings (size 3 to 8) (size 9 to 14) (size 15 to 20)
#    0.400    1.333    5.333    0.000    3.733    0.000 
#    2.400    2.000    0.000    0.800    0.000    0.000 
#    0.000    0.000    0.000    0.000    0.000    0.000 
#
# Total GULP energy -167123.406349 kJ/mol
# GULP energy per Si atom -5570.780212 kJ/mol
# Density = 2.014946 g / cm^3
# Si number density = 20.195426 Si / 1000 Ang^3
#
#
#
# Elastic Constant Matrix: (Units=GPa)
#
#
# Indices 1 2 3 4 5 6 
#
# 1 135.9419 72.5825 31.5622 0.0000 0.0000 0.0000
# 2 72.5825 213.1404 17.6710 0.0000 0.0000 0.0000
# 3 31.5622 17.6710 25.1205 0.0000 0.0000 0.0000
# 4 0.0000 0.0000 0.0000 16.9782 0.0000 0.0000
# 5 0.0000 0.0000 0.0000 0.0000 31.5941 0.0000
# 6 0.0000 0.0000 0.0000 0.0000 0.0000 41.4302
#
#
#
# Elastic Compliance Matrix: (Units=1/GPa)
#
#
# Indices 1 2 3 4 5 6 
#
# 1 0.011956 -0.003001 -0.012911 0.000000 0.000000 0.000000
# 2 -0.003001 0.005736 -0.000264 0.000000 0.000000 0.000000
# 3 -0.012911 -0.000264 0.056216 0.000000 0.000000 0.000000
# 4 0.000000 0.000000 0.000000 0.058899 0.000000 0.000000
# 5 0.000000 0.000000 0.000000 0.000000 0.031651 0.000000
# 6 0.000000 0.000000 0.000000 0.000000 0.000000 0.024137
#
#
# Mechanical properties :
#
#
# Convention : Reuss Voigt Hill
#
# Bulk Modulus (GPa) = 24.06437 68.64825 46.35631
# Shear Modulus (GPa) = 21.29487 34.82630 28.06059
#
# Velocity S-wave (km/s) = 3.25074 4.15717 3.73158
# Velocity P-wave (km/s) = 5.10209 7.55702 6.44748
#
# Compressibility (1/GPa) = 0.04155521
#
# Stress axis : x y z
#
# Youngs Moduli (GPa) = 83.64016 174.34919 17.78868
#
# Poissons Ratio (x) = 0.52323 0.22967
# Poissons Ratio (y) = 0.25101 0.00470
# Poissons Ratio (z) = 1.07986 0.04604
#
# Static dielectric constant tensor:
#      x y z
#    x 1.705910 0.000000 0.000000 
#    y 0.000000 1.702380 0.000000 
#    z 0.000000 0.000000 1.698250 
# 
# From -- ./inp_files/24719.got.cif
#   From: 2010.05.17/outbox.cif.g08.bks.cpg/sg74_13_cif.got.tgz:24719.got - 2010.06.03 17:57:02.
