data_PCOD9534874
_publ_section_title
;
Structure prediction by ZEFSAII (Michael W. Deem and Ramdas Pophale) SiO2 
 PCOD9534874
Probable space group: I M M A
;
_chemical_formula_sum "Si O2"
_cell_formula_units_Z 72
_cell_length_a 8.693415
_cell_length_b 34.344007
_cell_length_c 14.314050
_cell_angle_alpha 90.000000
_cell_angle_beta 90.000000
_cell_angle_gamma 90.000000
_cell_volume 4273.698752
_symmetry_space_group_name_H-M "I M M A"
_symmetry_group_IT_number 74
_symmetry_cell_setting 'orthorhombic'
loop_
_space_group_symop_operation_xyz
x,y,z
-x,1/2-y,z
x,-y,-z
-x,1/2+y,-z
-x,-y,-z
x,1/2+y,-z
-x,y,z
x,1/2-y,z
1/2+x,1/2+y,1/2+z
1/2-x,-y,1/2+z
1/2+x,1/2-y,1/2-z
1/2-x,y,1/2-z
1/2-x,1/2-y,1/2-z
1/2+x,y,1/2-z
1/2-x,1/2+y,1/2+z
1/2+x,-y,1/2+z
loop_
_atom_site_type_symbol
_atom_site_label
_atom_site_fract_x
_atom_site_fract_y
_atom_site_fract_z
Si Si1 0.685060 0.593835 0.955099
Si Si2 0.683873 0.830845 0.644840
Si Si3 0.180438 0.932178 0.152904
Si Si4 0.315739 0.750000 0.855773
Si Si5 0.174355 0.988863 0.609602
O O1 0.500000 0.596620 0.953441
O O2 0.739294 0.585283 0.060764
O O3 0.761631 0.632315 0.914543
O O4 0.726220 0.555910 0.891800
O O5 0.500000 0.828372 0.649454
O O6 0.750000 0.835281 0.750000
O O7 0.751978 0.790460 0.604034
O O8 0.250000 0.917034 0.250000
O O9 0.000000 0.925112 0.148384
O O10 0.214863 0.978610 0.150502
O O11 0.500000 0.750000 0.854347
O O12 0.250000 0.750000 0.750000
O O13 0.000000 0.992408 0.647931
O O14 0.163830 0.000000 0.500000
#
# Coordination Sequence:
#
# PCOD9534874 Si02
#       5
#    16  16  16   8  16
#     4  10  20  35  52  73 101 131 167 211 254 297
#     4  11  21  34  52  76 104 134 166 201 245 297
#     4  11  21  33  50  71  97 132 172 212 254 299
#     4  10  18  32  52  74 101 132 163 198 242 294
#     4   8  16  31  48  65  90 123 159 202 248 291
#
# _framework density 16.847234
#
# number of rings (size 3 to 8) (size 9 to 14) (size 15 to 20)
#    0.000    2.000    0.000    8.333    0.000    5.778 
#    0.000    0.000    0.000    0.000    0.000    0.778 
#    0.000    0.000    0.000    0.000    0.000    0.000 
#
# Total GULP energy -200841.601727 kJ/mol
# GULP energy per Si atom -5578.933381 kJ/mol
# Density = 1.680889 g / cm^3
# Si number density = 16.847234 Si / 1000 Ang^3
#
#
#
# Elastic Constant Matrix: (Units=GPa)
#
#
# Indices 1 2 3 4 5 6 
#
# 1 123.0199 50.8417 28.9719 0.0000 0.0000 0.0000
# 2 50.8417 140.3914 32.5540 0.0001 0.0000 0.0001
# 3 28.9719 32.5540 58.7482 0.0001 0.0000 0.0007
# 4 0.0000 0.0001 0.0001 18.7773 0.0000 0.0004
# 5 0.0000 0.0000 0.0000 0.0000 24.9172 0.0001
# 6 0.0000 0.0001 0.0007 0.0004 0.0001 -17.0983
#
#
#
# Elastic Compliance Matrix: (Units=1/GPa)
#
#
# Indices 1 2 3 4 5 6 
#
# 1 0.010117 -0.002877 -0.003395 0.000000 0.000000 0.000000
# 2 -0.002877 0.008991 -0.003564 0.000000 0.000000 0.000000
# 3 -0.003395 -0.003564 0.020671 0.000000 0.000000 0.000001
# 4 0.000000 0.000000 0.000000 0.053256 0.000000 0.000001
# 5 0.000000 0.000000 0.000000 0.000000 0.040133 0.000000
# 6 0.000000 0.000000 0.000001 0.000001 0.000000 -0.058485
#
#
# Mechanical properties :
#
#
# Convention : Reuss Voigt Hill
#
# Bulk Modulus (GPa) = 49.73111 60.76607 55.24859
# Shear Modulus (GPa) = 49.47735 19.30536 34.39135
#
# Velocity S-wave (km/s) = 5.42513 3.38880 4.52305
# Velocity P-wave (km/s) = 8.29612 7.17350 7.75515
#
# Compressibility (1/GPa) = 0.02010814
#
# Stress axis : x y z
#
# Youngs Moduli (GPa) = 98.84142 111.22248 48.37713
#
# Poissons Ratio (x) = 0.31994 0.16426
# Poissons Ratio (y) = 0.28432 0.17240
# Poissons Ratio (z) = 0.33560 0.39635
#
# Static dielectric constant tensor:
#      x y z
#    x 1.576170 0.000000 0.000000 
#    y 0.000000 1.597290 0.000000 
#    z 0.000000 0.000000 1.577910 
# 
# From -- ./inp_files/29373.got.cif
#   From: 2010.05.17/outbox.cif.g08.bks.cpg/sg74_15_cif.got.tgz:29373.got - 2010.06.03 17:57:02.
