data_PCOD9534185
_publ_section_title
;
Structure prediction by ZEFSAII (Michael W. Deem and Ramdas Pophale) SiO2 
 PCOD9534185
Probable space group: I M M A
;
_chemical_formula_sum "Si O2"
_cell_formula_units_Z 88
_cell_length_a 7.385453
_cell_length_b 32.304637
_cell_length_c 18.290220
_cell_angle_alpha 90.000000
_cell_angle_beta 90.000000
_cell_angle_gamma 90.000000
_cell_volume 4363.760767
_symmetry_space_group_name_H-M "I M M A"
_symmetry_group_IT_number 74
_symmetry_cell_setting 'orthorhombic'
loop_
_space_group_symop_operation_xyz
x,y,z
-x,1/2-y,z
x,-y,-z
-x,1/2+y,-z
-x,-y,-z
x,1/2+y,-z
-x,y,z
x,1/2-y,z
1/2+x,1/2+y,1/2+z
1/2-x,-y,1/2+z
1/2+x,1/2-y,1/2-z
1/2-x,y,1/2-z
1/2-x,1/2-y,1/2-z
1/2+x,y,1/2-z
1/2-x,1/2+y,1/2+z
1/2+x,-y,1/2+z
loop_
_atom_site_type_symbol
_atom_site_label
_atom_site_fract_x
_atom_site_fract_y
_atom_site_fract_z
Si Si1 0.220409 0.336134 0.892934
Si Si2 0.715396 0.919527 0.330311
Si Si3 0.783528 0.296892 0.163539
Si Si4 0.719706 0.631685 0.553402
Si Si5 0.216258 0.250000 0.835602
Si Si6 0.221386 0.953210 0.013910
O O1 0.282088 0.372346 0.838515
O O2 0.289031 0.291700 0.870513
O O3 0.000000 0.335456 0.890323
O O4 0.267269 0.348161 0.975386
O O5 0.500000 0.918645 0.337649
O O6 0.750000 0.936921 0.250000
O O7 0.780788 0.941816 0.403670
O O8 0.716546 0.250000 0.144251
O O9 0.750000 0.302807 0.250000
O O10 0.716730 0.336352 0.116247
O O11 0.000000 0.295649 0.152457
O O12 0.500000 0.630265 0.559195
O O13 0.777713 0.583498 0.542421
O O14 0.250000 0.250000 0.750000
O O15 0.000000 0.250000 0.847518
O O16 0.000000 0.952827 0.012375
O O17 0.279837 0.000000 0.000000
#
# Coordination Sequence:
#
# PCOD9534185 Si02
#       6
#    16  16  16  16   8  16
#     4   8  15  25  39  60  81 104 136 172 199 227
#     4   9  16  27  43  62  83 107 136 168 204 245
#     4   9  17  28  44  65  88 114 142 177 219 260
#     4   8  14  25  42  63  82 105 143 179 205 243
#     4  10  18  26  38  56  81 108 132 162 199 232
#     4   8  14  26  44  64  85 109 140 179 216 248
#
# _framework density 20.166091000000002
#
# number of rings (size 3 to 8) (size 9 to 14) (size 15 to 20)
#    0.000    3.455    0.000    2.727    1.273    0.000 
#    0.000    0.909    0.000    6.000    0.000    0.000 
#    0.000    0.000    0.000    0.000    0.000    0.000 
#
# Total GULP energy -245045.485049 kJ/mol
# GULP energy per Si atom -5569.215569 kJ/mol
# Density = 2.012019 g / cm^3
# Si number density = 20.166091 Si / 1000 Ang^3
#
#
#
# Elastic Constant Matrix: (Units=GPa)
#
#
# Indices 1 2 3 4 5 6 
#
# 1 68.7973 8.7124 -1.7893 0.0000 0.0000 0.0000
# 2 8.7124 207.7720 91.0189 0.0000 0.0000 0.0000
# 3 -1.7893 91.0189 102.6554 0.0000 0.0000 0.0000
# 4 0.0000 0.0000 0.0000 18.8478 0.0000 0.0000
# 5 0.0000 0.0000 0.0000 0.0000 16.3156 0.0000
# 6 0.0000 0.0000 0.0000 0.0000 0.0000 -9.5594
#
#
#
# Elastic Compliance Matrix: (Units=1/GPa)
#
#
# Indices 1 2 3 4 5 6 
#
# 1 0.014721 -0.001193 0.001314 0.000000 0.000000 0.000000
# 2 -0.001193 0.007966 -0.007084 0.000000 0.000000 0.000000
# 3 0.001314 -0.007084 0.016045 0.000000 0.000000 0.000000
# 4 0.000000 0.000000 0.000000 0.053056 0.000000 0.000000
# 5 0.000000 0.000000 0.000000 0.000000 0.061291 0.000000
# 6 0.000000 0.000000 0.000000 0.000000 0.000000 -0.104609
#
#
# Mechanical properties :
#
#
# Convention : Reuss Voigt Hill
#
# Bulk Modulus (GPa) = 40.31145 63.90096 52.10621
# Shear Modulus (GPa) = 70.75633 23.87300 47.31467
#
# Velocity S-wave (km/s) = 5.92984 3.44440 4.84906
# Velocity P-wave (km/s) = 8.18028 6.89744 7.56610
#
# Compressibility (1/GPa) = 0.02480685
#
# Stress axis : x y z
#
# Youngs Moduli (GPa) = 67.93144 125.52823 62.32348
#
# Poissons Ratio (x) = 0.14977 -0.08192
# Poissons Ratio (y) = 0.08105 0.44151
# Poissons Ratio (z) = -0.08929 0.88925
#
# Static dielectric constant tensor:
#      x y z
#    x 1.775510 0.000000 0.000000 
#    y 0.000000 1.731920 0.000000 
#    z 0.000000 0.000000 1.681720 
# 
# From -- ./inp_files/31099.got.cif
#   From: 2010.05.17/outbox.cif.g08.bks.cpg/sg74_16_cif.got.tgz:31099.got - 2010.06.03 17:57:02.
