data_PCOD9534850
_publ_section_title
;
Structure prediction by ZEFSAII (Michael W. Deem and Ramdas Pophale) SiO2 
 PCOD9534850
Probable space group: I M M A
;
_chemical_formula_sum "Si O2"
_cell_formula_units_Z 72
_cell_length_a 16.417716
_cell_length_b 15.342190
_cell_length_c 14.484606
_cell_angle_alpha 90.000000
_cell_angle_beta 90.000000
_cell_angle_gamma 90.000000
_cell_volume 3648.436416
_symmetry_space_group_name_H-M "I M M A"
_symmetry_group_IT_number 74
_symmetry_cell_setting 'orthorhombic'
loop_
_space_group_symop_operation_xyz
x,y,z
-x,1/2-y,z
x,-y,-z
-x,1/2+y,-z
-x,-y,-z
x,1/2+y,-z
-x,y,z
x,1/2-y,z
1/2+x,1/2+y,1/2+z
1/2-x,-y,1/2+z
1/2+x,1/2-y,1/2-z
1/2-x,y,1/2-z
1/2-x,1/2-y,1/2-z
1/2+x,y,1/2-z
1/2-x,1/2+y,1/2+z
1/2+x,-y,1/2+z
loop_
_atom_site_type_symbol
_atom_site_label
_atom_site_fract_x
_atom_site_fract_y
_atom_site_fract_z
Si Si1 0.836156 0.577555 0.698054
Si Si2 0.274419 0.750000 0.858570
Si Si3 0.151308 0.750000 0.235716
Si Si4 0.000000 0.644121 0.733009
Si Si5 0.146148 0.111417 0.615486
Si Si6 0.720207 0.250000 0.552293
Si Si7 0.500000 0.145707 0.018131
O O1 0.750000 0.571145 0.750000
O O2 0.827260 0.662941 0.633675
O O3 0.842449 0.487591 0.644516
O O4 0.914048 0.601073 0.762899
O O5 0.250000 0.750000 0.750000
O O6 0.209330 0.750000 0.941422
O O7 0.250000 0.750000 0.250000
O O8 0.120852 0.833764 0.292373
O O9 0.145454 0.750000 0.124856
O O10 0.000000 0.750000 0.744541
O O11 0.000000 0.618589 0.624194
O O12 0.224559 0.164763 0.577232
O O13 0.077151 0.115201 0.539423
O O14 0.500000 0.250000 0.017205
#
# Coordination Sequence:
#
# PCOD9534850 Si02
#       7
#    16   8   8   8  16   8   8
#     4  11  22  38  55  80 118 159 204 249 293 352
#     4  10  22  35  50  74 111 151 194 246 286 335
#     4   8  16  30  49  75 104 140 187 230 272 344
#     4  11  23  35  55  84 119 164 204 240 298 369
#     4  10  19  32  54  80 115 152 185 231 296 360
#     4  10  18  32  51  76 110 147 190 233 286 352
#     4  11  19  33  53  88 129 152 178 238 318 387
#
# _framework density 19.734480999999999
#
# number of rings (size 3 to 8) (size 9 to 14) (size 15 to 20)
#    0.000    2.000    3.333    4.000    0.000    4.444 
#    0.000    0.000    0.000    0.000    0.000   12.444 
#    0.000   39.111    0.000    0.000    0.000    0.000 
#
# Total GULP energy -200602.631242 kJ/mol
# GULP energy per Si atom -5572.295312 kJ/mol
# Density = 1.968956 g / cm^3
# Si number density = 19.734481 Si / 1000 Ang^3
#
#
#
# Elastic Constant Matrix: (Units=GPa)
#
#
# Indices 1 2 3 4 5 6 
#
# 1 83.2384 17.4982 17.3171 0.0000 0.0000 0.0000
# 2 17.4982 159.7180 17.5199 0.0000 0.0000 0.0000
# 3 17.3171 17.5199 104.0811 0.0000 0.0000 0.0000
# 4 0.0000 0.0000 0.0000 3.8678 0.0000 0.0000
# 5 0.0000 0.0000 0.0000 0.0000 27.8933 0.0000
# 6 0.0000 0.0000 0.0000 0.0000 0.0000 -2.5279
#
#
#
# Elastic Compliance Matrix: (Units=1/GPa)
#
#
# Indices 1 2 3 4 5 6 
#
# 1 0.012658 -0.001178 -0.001908 0.000000 0.000000 0.000000
# 2 -0.001178 0.006488 -0.000896 0.000000 0.000000 0.000000
# 3 -0.001908 -0.000896 0.010076 0.000000 0.000000 0.000000
# 4 0.000000 0.000000 0.000000 0.258542 0.000000 0.000000
# 5 0.000000 0.000000 0.000000 0.000000 0.035851 0.000000
# 6 0.000000 0.000000 0.000000 0.000000 0.000000 -0.395582
#
#
# Mechanical properties :
#
#
# Convention : Reuss Voigt Hill
#
# Bulk Modulus (GPa) = 47.03799 50.18977 48.61388
# Shear Modulus (GPa) = -87.84813 25.49347 -31.17733
#
# Velocity S-wave (km/s) = -6.67920 3.59809 -3.97903
# Velocity P-wave (km/s) = 5.96616 6.53831 1.89135
#
# Compressibility (1/GPa) = 0.02125941
#
# Stress axis : x y z
#
# Youngs Moduli (GPa) = 79.00061 154.12237 99.24384
#
# Poissons Ratio (x) = 0.18148 0.18934
# Poissons Ratio (y) = 0.09302 0.08895
# Poissons Ratio (z) = 0.15072 0.13813
#
# Static dielectric constant tensor:
#      x y z
#    x 1.827430 0.000000 0.000000 
#    y 0.000000 1.712460 0.000000 
#    z 0.000000 0.000000 1.794570 
# 
# From -- ./inp_files/33887.got.cif
#   From: 2010.05.17/outbox.cif.g08.bks.cpg/sg74_17_cif.got.tgz:33887.got - 2010.06.03 17:57:02.
