data_PCOD9534948
_publ_section_title
;
Structure prediction by ZEFSAII (Michael W. Deem and Ramdas Pophale) SiO2 
 PCOD9534948
Probable space group: I M M A
;
_chemical_formula_sum "Si O2"
_cell_formula_units_Z 64
_cell_length_a 21.748807
_cell_length_b 8.521284
_cell_length_c 18.717325
_cell_angle_alpha 90.000000
_cell_angle_beta 90.000000
_cell_angle_gamma 90.000000
_cell_volume 3468.839936
_symmetry_space_group_name_H-M "I M M A"
_symmetry_group_IT_number 74
_symmetry_cell_setting 'orthorhombic'
loop_
_space_group_symop_operation_xyz
x,y,z
-x,1/2-y,z
x,-y,-z
-x,1/2+y,-z
-x,-y,-z
x,1/2+y,-z
-x,y,z
x,1/2-y,z
1/2+x,1/2+y,1/2+z
1/2-x,-y,1/2+z
1/2+x,1/2-y,1/2-z
1/2-x,y,1/2-z
1/2-x,1/2-y,1/2-z
1/2+x,y,1/2-z
1/2-x,1/2+y,1/2+z
1/2+x,-y,1/2+z
loop_
_atom_site_type_symbol
_atom_site_label
_atom_site_fract_x
_atom_site_fract_y
_atom_site_fract_z
Si Si1 0.000000 0.063045 0.418553
Si Si2 0.253925 0.940049 0.832884
Si Si3 0.633675 0.560197 0.581079
Si Si4 0.500000 0.560620 0.581452
Si Si5 0.370777 0.436702 0.918814
O O1 0.000000 0.250000 0.418756
O O2 0.000000 0.000000 0.500000
O O3 0.935495 0.001542 0.388223
O O4 0.257488 0.750000 0.836957
O O5 0.250000 0.984348 0.750000
O O6 0.191832 0.992049 0.873071
O O7 0.313380 0.008504 0.871988
O O8 0.639215 0.500000 0.500000
O O9 0.634465 0.750000 0.579406
O O10 0.566496 0.510242 0.611112
O O11 0.500000 0.750000 0.581399
O O12 0.500000 0.500000 0.500000
O O13 0.374044 0.250000 0.922285
O O14 0.363365 0.500000 0.000000
#
# Coordination Sequence:
#
# PCOD9534948 Si02
#       5
#     8  16  16   8  16
#     4  10  18  32  55  82 109 135 169 215 267 318
#     4  10  21  36  51  72 105 142 179 219 262 310
#     4   9  17  30  50  73  97 126 163 208 255 305
#     4   8  14  26  45  70  95 119 153 199 249 296
#     4  11  21  35  56  81 108 138 176 220 268 321
#
# _framework density 18.449971000000001
#
# number of rings (size 3 to 8) (size 9 to 14) (size 15 to 20)
#    0.000    2.250    0.000    5.625    0.000    3.500 
#    0.000    1.250    0.000    4.500    0.000    3.500 
#    0.000    0.000    0.000    0.000    0.000    0.000 
#
# Total GULP energy -178444.867813 kJ/mol
# GULP energy per Si atom -5576.402119 kJ/mol
# Density = 1.840798 g / cm^3
# Si number density = 18.449971 Si / 1000 Ang^3
#
#
#
# Elastic Constant Matrix: (Units=GPa)
#
#
# Indices 1 2 3 4 5 6 
#
# 1 247.6871 55.4062 86.8159 0.0000 0.0000 0.0000
# 2 55.4062 66.7998 29.8524 0.0000 0.0000 0.0000
# 3 86.8159 29.8524 76.1710 0.0000 0.0000 0.0000
# 4 0.0000 0.0000 0.0000 17.4780 0.0000 0.0000
# 5 0.0000 0.0000 0.0000 0.0000 -5.7888 0.0000
# 6 0.0000 0.0000 0.0000 0.0000 0.0000 19.0688
#
#
#
# Elastic Compliance Matrix: (Units=1/GPa)
#
#
# Indices 1 2 3 4 5 6 
#
# 1 0.007120 -0.002763 -0.007033 0.000000 0.000000 0.000000
# 2 -0.002763 0.019221 -0.004384 0.000000 0.000000 0.000000
# 3 -0.007033 -0.004384 0.022862 0.000000 0.000000 0.000000
# 4 0.000000 0.000000 0.000000 0.057215 0.000000 0.000000
# 5 0.000000 0.000000 0.000000 0.000000 -0.172748 0.000000
# 6 0.000000 0.000000 0.000000 0.000000 0.000000 0.052442
#
#
# Mechanical properties :
#
#
# Convention : Reuss Voigt Hill
#
# Bulk Modulus (GPa) = 47.97459 81.64522 64.80990
# Shear Modulus (GPa) = 233.43868 20.72384 127.08126
#
# Velocity S-wave (km/s) = 11.26055 3.35512 8.30833
# Velocity P-wave (km/s) = 13.96873 7.70438 11.28014
#
# Compressibility (1/GPa) = 0.02084437
#
# Stress axis : x y z
#
# Youngs Moduli (GPa) = 140.44134 52.02654 43.74116
#
# Poissons Ratio (x) = 0.14376 0.30761
# Poissons Ratio (y) = 0.38806 0.19175
# Poissons Ratio (z) = 0.98767 0.22807
#
# Static dielectric constant tensor:
#      x y z
#    x 1.685710 0.000000 0.000000 
#    y 0.000000 1.625020 0.000000 
#    z 0.000000 0.000000 1.567480 
# 
# From -- ./inp_files/53613.got.cif
#   From: 2010.05.17/outbox.cif.g08.bks.cpg/sg74_27_cif.got.tgz:53613.got - 2010.06.03 17:57:02.
