data_PCOD9534830
_publ_section_title
;
Structure prediction by ZEFSAII (Michael W. Deem and Ramdas Pophale) SiO2 
 PCOD9534830
Probable space group: I M M A
;
_chemical_formula_sum "Si O2"
_cell_formula_units_Z 112
_cell_length_a 19.267825
_cell_length_b 14.837223
_cell_length_c 19.745510
_cell_angle_alpha 90.000000
_cell_angle_beta 90.000000
_cell_angle_gamma 90.000000
_cell_volume 5644.866465
_symmetry_space_group_name_H-M "I M M A"
_symmetry_group_IT_number 74
_symmetry_cell_setting 'orthorhombic'
loop_
_space_group_symop_operation_xyz
x,y,z
-x,1/2-y,z
x,-y,-z
-x,1/2+y,-z
-x,-y,-z
x,1/2+y,-z
-x,y,z
x,1/2-y,z
1/2+x,1/2+y,1/2+z
1/2-x,-y,1/2+z
1/2+x,1/2-y,1/2-z
1/2-x,y,1/2-z
1/2-x,1/2-y,1/2-z
1/2+x,y,1/2-z
1/2-x,1/2+y,1/2+z
1/2+x,-y,1/2+z
loop_
_atom_site_type_symbol
_atom_site_label
_atom_site_fract_x
_atom_site_fract_y
_atom_site_fract_z
Si Si1 0.582164 0.153563 0.339097
Si Si2 0.416478 0.953520 0.290734
Si Si3 0.160208 0.444992 0.652909
Si Si4 0.837281 0.653574 0.609439
Si Si5 0.690024 0.915645 0.400202
Si Si6 0.422008 0.895157 0.021334
Si Si7 0.811296 0.878401 0.950494
O O1 0.500000 0.150438 0.349363
O O2 0.599457 0.250000 0.305397
O O3 0.599469 0.061110 0.300237
O O4 0.621146 0.153171 0.410691
O O5 0.500000 0.941961 0.289500
O O6 0.379094 0.922878 0.222078
O O7 0.377808 0.906168 0.353806
O O8 0.154610 0.554980 0.644180
O O9 0.240294 0.414183 0.645390
O O10 0.121653 0.397276 0.590038
O O11 0.852714 0.750000 0.644772
O O12 0.883641 0.649906 0.541561
O O13 0.757974 0.656128 0.585097
O O14 0.690892 0.858912 0.469557
O O15 0.690254 0.015828 0.431890
O O16 0.500000 0.861350 0.031209
O O17 0.425950 0.000000 0.000000
#
# Coordination Sequence:
#
# PCOD9534830 Si02
#       7
#    16  16  16  16  16  16  16
#     4   9  18  31  46  68 101 136 163 192 238 293
#     4  10  20  31  46  71 100 130 167 203 235 283
#     4  10  18  32  49  69  98 134 165 195 242 293
#     4  10  19  30  48  74  99 125 163 205 244 289
#     4   9  17  30  49  69  92 123 164 205 242 282
#     4   9  17  30  47  66  92 126 164 204 243 284
#     4   9  16  30  49  69  93 125 161 204 247 281
#
# _framework density 19.841037
#
# number of rings (size 3 to 8) (size 9 to 14) (size 15 to 20)
#    0.000    2.571    1.429    1.286    0.000    2.000 
#    0.000    2.857    0.000    5.143    0.000    3.000 
#    0.000    2.286    0.000    0.000    0.000    0.000 
#
# Total GULP energy -311787.934097 kJ/mol
# GULP energy per Si atom -5567.641680 kJ/mol
# Density = 1.979588 g / cm^3
# Si number density = 19.841037 Si / 1000 Ang^3
#
#
#
# Elastic Constant Matrix: (Units=GPa)
#
#
# Indices 1 2 3 4 5 6 
#
# 1 62.5995 -7.9321 55.8271 0.0000 0.0000 0.0000
# 2 -7.9321 18.0066 -8.9520 0.0000 0.0000 0.0000
# 3 55.8271 -8.9520 87.4143 0.0000 0.0000 0.0000
# 4 0.0000 0.0000 0.0000 54.7366 0.0000 0.0000
# 5 0.0000 0.0000 0.0000 0.0000 23.1139 0.0000
# 6 0.0000 0.0000 0.0000 0.0000 0.0000 -11.9227
#
#
#
# Elastic Compliance Matrix: (Units=1/GPa)
#
#
# Indices 1 2 3 4 5 6 
#
# 1 0.037511 0.004862 -0.023459 0.000000 0.000000 0.000000
# 2 0.004862 0.059145 0.002952 0.000000 0.000000 0.000000
# 3 -0.023459 0.002952 0.026724 0.000000 0.000000 0.000000
# 4 0.000000 0.000000 0.000000 0.018269 0.000000 0.000000
# 5 0.000000 0.000000 0.000000 0.000000 0.043264 0.000000
# 6 0.000000 0.000000 0.000000 0.000000 0.000000 -0.083874
#
#
# Mechanical properties :
#
#
# Convention : Reuss Voigt Hill
#
# Bulk Modulus (GPa) = 10.85897 27.32292 19.09095
# Shear Modulus (GPa) = 30.66986 21.79072 26.23029
#
# Velocity S-wave (km/s) = 3.93591 3.31760 3.63991
# Velocity P-wave (km/s) = 5.11273 5.33630 5.22571
#
# Compressibility (1/GPa) = 0.09208976
#
# Stress axis : x y z
#
# Youngs Moduli (GPa) = 26.65850 16.90774 37.41946
#
# Poissons Ratio (x) = -0.08220 0.87782
# Poissons Ratio (y) = -0.12960 -0.11047
# Poissons Ratio (z) = 0.62538 -0.04991
#
# Static dielectric constant tensor:
#      x y z
#    x 1.686810 0.000000 0.000000 
#    y 0.000000 1.764640 0.000000 
#    z 0.000000 0.000000 1.674300 
# 
# From -- ./inp_files/53224.got.cif
#   From: 2010.05.17/outbox.cif.g08.bks.cpg/sg74_27_cif.got.tgz:53224.got - 2010.06.03 17:57:02.
