data_PCOD9534977
_publ_section_title
;
Structure prediction by ZEFSAII (Michael W. Deem and Ramdas Pophale) SiO2 
 PCOD9534977
Probable space group: I M M A
;
_chemical_formula_sum "Si O2"
_cell_formula_units_Z 72
_cell_length_a 14.224270
_cell_length_b 7.450586
_cell_length_c 29.793029
_cell_angle_alpha 90.000000
_cell_angle_beta 90.000000
_cell_angle_gamma 90.000000
_cell_volume 3157.439798
_symmetry_space_group_name_H-M "I M M A"
_symmetry_group_IT_number 74
_symmetry_cell_setting 'orthorhombic'
loop_
_space_group_symop_operation_xyz
x,y,z
-x,1/2-y,z
x,-y,-z
-x,1/2+y,-z
-x,-y,-z
x,1/2+y,-z
-x,y,z
x,1/2-y,z
1/2+x,1/2+y,1/2+z
1/2-x,-y,1/2+z
1/2+x,1/2-y,1/2-z
1/2-x,y,1/2-z
1/2-x,1/2-y,1/2-z
1/2+x,y,1/2-z
1/2-x,1/2+y,1/2+z
1/2+x,-y,1/2+z
loop_
_atom_site_type_symbol
_atom_site_label
_atom_site_fract_x
_atom_site_fract_y
_atom_site_fract_z
Si Si1 0.711742 0.030850 0.799209
Si Si2 0.000000 0.033913 0.945793
Si Si3 0.000000 0.966792 0.571760
Si Si4 0.200218 0.037617 0.452278
Si Si5 0.162926 0.050513 0.879535
Si Si6 0.500000 0.541303 0.177098
O O1 0.709844 0.250000 0.803896
O O2 0.750000 0.987280 0.750000
O O3 0.790524 0.966150 0.835185
O O4 0.603232 0.969288 0.807322
O O5 0.087482 0.969351 0.914696
O O6 0.000000 0.250000 0.944326
O O7 0.000000 0.000000 0.000000
O O8 0.906401 0.027865 0.547542
O O9 0.000000 0.750000 0.571926
O O10 0.000000 0.026085 0.623312
O O11 0.203598 0.250000 0.443748
O O12 0.246715 0.000000 0.500000
O O13 0.248048 0.938740 0.411801
O O14 0.127444 0.250000 0.866991
O O15 0.500000 0.750000 0.190990
#
# Coordination Sequence:
#
# PCOD9534977 Si02
#       6
#    16   8   8  16  16   8
#     4   9  18  32  54  85 114 142 182 230 278 330
#     4  10  22  37  55  79 108 148 189 235 287 335
#     4  10  21  35  52  77 110 143 176 218 269 321
#     4  11  22  35  53  79 110 145 182 223 272 329
#     4  10  20  36  56  79 110 146 186 231 282 336
#     4  10  18  32  57  82 109 147 182 221 272 328
#
# _framework density 22.803286
#
# number of rings (size 3 to 8) (size 9 to 14) (size 15 to 20)
#    0.000    2.000    2.222    1.667    0.000    4.444 
#    0.000    4.444    0.000    2.667    0.000    1.556 
#    0.000    0.000    0.000    0.000    0.000    0.000 
#
# Total GULP energy -200625.233365 kJ/mol
# GULP energy per Si atom -5572.923149 kJ/mol
# Density = 2.275138 g / cm^3
# Si number density = 22.803286 Si / 1000 Ang^3
#
#
#
# Elastic Constant Matrix: (Units=GPa)
#
#
# Indices 1 2 3 4 5 6 
#
# 1 140.7856 0.8136 82.0775 0.0000 0.0000 0.0000
# 2 0.8136 78.0826 -1.8099 0.0000 0.0000 0.0000
# 3 82.0775 -1.8099 205.9269 0.0000 0.0000 0.0000
# 4 0.0000 0.0000 0.0000 12.0232 0.0000 0.0000
# 5 0.0000 0.0000 0.0000 0.0000 30.8001 0.0000
# 6 0.0000 0.0000 0.0000 0.0000 0.0000 26.2556
#
#
#
# Elastic Compliance Matrix: (Units=1/GPa)
#
#
# Indices 1 2 3 4 5 6 
#
# 1 0.009256 -0.000182 -0.003691 0.000000 0.000000 0.000000
# 2 -0.000182 0.012813 0.000185 0.000000 0.000000 0.000000
# 3 -0.003691 0.000185 0.006329 0.000000 0.000000 0.000000
# 4 0.000000 0.000000 0.000000 0.083172 0.000000 0.000000
# 5 0.000000 0.000000 0.000000 0.000000 0.032467 0.000000
# 6 0.000000 0.000000 0.000000 0.000000 0.000000 0.038087
#
#
# Mechanical properties :
#
#
# Convention : Reuss Voigt Hill
#
# Bulk Modulus (GPa) = 47.56805 65.21750 56.39277
# Shear Modulus (GPa) = 25.44437 36.73002 31.08720
#
# Velocity S-wave (km/s) = 3.34401 4.01775 3.69626
# Velocity P-wave (km/s) = 5.98459 7.08415 6.55746
#
# Compressibility (1/GPa) = 0.02102251
#
# Stress axis : x y z
#
# Youngs Moduli (GPa) = 108.04130 78.04489 158.00915
#
# Poissons Ratio (x) = 0.01420 0.58317
# Poissons Ratio (y) = 0.01966 -0.02926
# Poissons Ratio (z) = 0.39875 -0.01445
#
# Static dielectric constant tensor:
#      x y z
#    x 1.927800 0.000000 0.000000 
#    y 0.000000 1.932940 0.000000 
#    z 0.000000 0.000000 1.778560 
# 
# From -- ./inp_files/63696.got.cif
#   From: 2010.05.17/outbox.cif.g08.bks.cpg/sg74_32_cif.got.tgz:63696.got - 2010.06.03 17:57:02.
