data_PCOD9534443
_publ_section_title
;
Structure prediction by ZEFSAII (Michael W. Deem and Ramdas Pophale) SiO2 
 PCOD9534443
Probable space group: I M M A
;
_chemical_formula_sum "Si O2"
_cell_formula_units_Z 116
_cell_length_a 28.793975
_cell_length_b 8.977464
_cell_length_c 23.553622
_cell_angle_alpha 90.000000
_cell_angle_beta 90.000000
_cell_angle_gamma 90.000000
_cell_volume 6088.537658
_symmetry_space_group_name_H-M "I M M A"
_symmetry_group_IT_number 74
_symmetry_cell_setting 'orthorhombic'
loop_
_space_group_symop_operation_xyz
x,y,z
-x,1/2-y,z
x,-y,-z
-x,1/2+y,-z
-x,-y,-z
x,1/2+y,-z
-x,y,z
x,1/2-y,z
1/2+x,1/2+y,1/2+z
1/2-x,-y,1/2+z
1/2+x,1/2-y,1/2-z
1/2-x,y,1/2-z
1/2-x,1/2-y,1/2-z
1/2+x,y,1/2-z
1/2-x,1/2+y,1/2+z
1/2+x,-y,1/2+z
loop_
_atom_site_type_symbol
_atom_site_label
_atom_site_fract_x
_atom_site_fract_y
_atom_site_fract_z
Si Si1 0.821423 0.920211 0.870030
Si Si2 0.674885 0.421985 0.233345
Si Si3 0.500000 0.250000 0.593491
Si Si4 0.421644 0.074106 0.766484
Si Si5 0.229100 0.574285 0.361024
Si Si6 0.360962 0.426724 0.938913
Si Si7 0.949219 0.072819 0.378452
Si Si8 0.913601 0.085085 0.862239
O O1 0.816432 0.750000 0.888753
O O2 0.819601 0.923784 0.801082
O O3 0.777250 0.017552 0.887795
O O4 0.872337 0.983379 0.885160
O O5 0.664494 0.250000 0.217123
O O6 0.631923 0.532209 0.222024
O O7 0.717021 0.482041 0.195847
O O8 0.458407 0.378170 0.599959
O O9 0.430522 0.250000 0.773664
O O10 0.430466 0.034240 0.700490
O O11 0.448579 0.981034 0.813219
O O12 0.232110 0.750000 0.348565
O O13 0.185249 0.546415 0.401900
O O14 0.366971 0.250000 0.944013
O O15 0.406462 0.494258 0.909224
O O16 0.355408 0.500000 0.000000
O O17 0.943207 0.250000 0.380991
O O18 0.000000 0.034746 0.403030
O O19 0.891724 0.250000 0.851015
#
# Coordination Sequence:
#
# PCOD9534443 Si02
#       8
#    16  16   4  16  16  16  16  16
#     4  10  20  32  48  76 109 141 176 216 264 306
#     4  10  19  31  48  72 105 140 172 213 264 319
#     4   8  16  32  50  68  98 152 194 212 266 288
#     4  10  18  29  49  71 100 132 175 223 266 314
#     4  11  22  35  54  78 102 133 173 210 265 327
#     4  11  25  44  63  81 100 130 173 221 276 338
#     4  11  24  38  55  78 102 132 171 225 282 331
#     4   8  17  30  48  68 100 142 185 218 252 304
#
# _framework density 19.052192999999999
#
# number of rings (size 3 to 8) (size 9 to 14) (size 15 to 20)
#    0.414    1.517    1.379    2.897    0.966    6.897 
#    0.000    0.345    0.000    0.000    0.000    0.000 
#    0.000    0.000    0.000    0.621    1.655    0.138 
#
# Total GULP energy -322888.142375 kJ/mol
# GULP energy per Si atom -5567.036938 kJ/mol
# Density = 1.900883 g / cm^3
# Si number density = 19.052193 Si / 1000 Ang^3
#
#
#
# Elastic Constant Matrix: (Units=GPa)
#
#
# Indices 1 2 3 4 5 6 
#
# 1 124.0842 48.7748 5.9552 0.0000 0.0000 0.0000
# 2 48.7748 70.2226 14.9424 0.0000 0.0000 0.0000
# 3 5.9552 14.9424 12.1066 0.0000 0.0000 0.0000
# 4 0.0000 0.0000 0.0000 14.2977 0.0000 0.0000
# 5 0.0000 0.0000 0.0000 0.0000 0.9134 0.0000
# 6 0.0000 0.0000 0.0000 0.0000 0.0000 26.0052
#
#
#
# Elastic Compliance Matrix: (Units=1/GPa)
#
#
# Indices 1 2 3 4 5 6 
#
# 1 0.011362 -0.009090 0.005630 0.000000 0.000000 0.000000
# 2 -0.009090 0.026584 -0.028340 0.000000 0.000000 0.000000
# 3 0.005630 -0.028340 0.114809 0.000000 0.000000 0.000000
# 4 0.000000 0.000000 0.000000 0.069941 0.000000 0.000000
# 5 0.000000 0.000000 0.000000 0.000000 1.094834 0.000000
# 6 0.000000 0.000000 0.000000 0.000000 0.000000 0.038454
#
#
# Mechanical properties :
#
#
# Convention : Reuss Voigt Hill
#
# Bulk Modulus (GPa) = 11.21639 38.41759 24.81699
# Shear Modulus (GPa) = 3.44994 17.35931 10.40462
#
# Velocity S-wave (km/s) = 1.34711 3.02179 2.33944
# Velocity P-wave (km/s) = 2.88437 5.69062 4.51125
#
# Compressibility (1/GPa) = 0.08915525
#
# Stress axis : x y z
#
# Youngs Moduli (GPa) = 88.01457 37.61631 8.71012
#
# Poissons Ratio (x) = 0.34192 -0.04904
# Poissons Ratio (y) = 0.80001 0.24685
# Poissons Ratio (z) = -0.49551 1.06605
#
# Static dielectric constant tensor:
#      x y z
#    x 1.710070 0.000000 0.000000 
#    y 0.000000 1.649910 0.000000 
#    z 0.000000 0.000000 1.667340 
# 
# From -- ./inp_files/69211.got.cif
#   From: 2010.05.17/outbox.cif.g08.bks.cpg/sg74_35_cif.got.tgz:69211.got - 2010.06.03 17:57:02.
