data_PCOD9534997
_publ_section_title
;
Structure prediction by ZEFSAII (Michael W. Deem and Ramdas Pophale) SiO2 
 PCOD9534997
Probable space group: I M M A
;
_chemical_formula_sum "Si O2"
_cell_formula_units_Z 56
_cell_length_a 11.477802
_cell_length_b 25.384863
_cell_length_c 8.919756
_cell_angle_alpha 90.000000
_cell_angle_beta 90.000000
_cell_angle_gamma 90.000000
_cell_volume 2598.881795
_symmetry_space_group_name_H-M "I M M A"
_symmetry_group_IT_number 74
_symmetry_cell_setting 'orthorhombic'
loop_
_space_group_symop_operation_xyz
x,y,z
-x,1/2-y,z
x,-y,-z
-x,1/2+y,-z
-x,-y,-z
x,1/2+y,-z
-x,y,z
x,1/2-y,z
1/2+x,1/2+y,1/2+z
1/2-x,-y,1/2+z
1/2+x,1/2-y,1/2-z
1/2-x,y,1/2-z
1/2-x,1/2-y,1/2-z
1/2+x,y,1/2-z
1/2-x,1/2+y,1/2+z
1/2+x,-y,1/2+z
loop_
_atom_site_type_symbol
_atom_site_label
_atom_site_fract_x
_atom_site_fract_y
_atom_site_fract_z
Si Si1 0.500000 0.750000 0.800498
Si Si2 0.500000 0.250000 0.721193
Si Si3 0.815204 0.250000 0.043002
Si Si4 0.255331 0.143708 0.923005
Si Si5 0.136574 0.958776 0.135731
Si Si6 0.500000 0.656709 0.036219
O O1 0.610025 0.750000 0.691484
O O2 0.500000 0.696899 0.897442
O O3 0.393959 0.250000 0.606541
O O4 0.500000 0.301717 0.824572
O O5 0.750896 0.305150 0.026453
O O6 0.250000 0.161069 0.750000
O O7 0.157561 0.099522 0.935088
O O8 0.115584 0.122106 0.546571
O O9 0.250000 0.964532 0.250000
O O10 0.000000 0.962281 0.190819
O O11 0.148247 0.000000 0.000000
#
# Coordination Sequence:
#
# PCOD9534997 Si02
#       6
#     4   4   8  16  16   8
#     4  10  26  38  58  86 148 182 214 264 326 420
#     4  10  18  32  60  82 128 164 210 250 314 384
#     4  11  21  37  59  94 126 175 210 262 333 380
#     4  11  23  38  70  94 127 168 225 275 318 388
#     4  10  25  48  71 101 133 173 224 278 337 399
#     4  11  22  40  55  98 129 168 220 266 324 387
#
# _framework density 21.547730000000001
#
# number of rings (size 3 to 8) (size 9 to 14) (size 15 to 20)
#    0.000    1.429    2.857    2.143   12.000    2.857 
#    5.143    0.000    0.000    0.000    0.000    0.000 
#    0.000    0.000    0.000    0.000    0.000    0.000 
#
# Total GULP energy -156127.683297 kJ/mol
# GULP energy per Si atom -5575.988689 kJ/mol
# Density = 2.149869 g / cm^3
# Si number density = 21.547730 Si / 1000 Ang^3
#
#
#
# Elastic Constant Matrix: (Units=GPa)
#
#
# Indices 1 2 3 4 5 6 
#
# 1 169.2890 44.0090 45.8239 0.0000 0.0000 0.0000
# 2 44.0090 66.0710 34.2705 0.0000 0.0002 0.0000
# 3 45.8239 34.2705 92.1837 -0.0006 0.0007 0.0003
# 4 0.0000 0.0000 -0.0006 21.4170 0.0002 0.0001
# 5 0.0000 0.0002 0.0007 0.0002 16.2374 0.0000
# 6 0.0000 0.0000 0.0003 0.0001 0.0000 30.7446
#
#
#
# Elastic Compliance Matrix: (Units=1/GPa)
#
#
# Indices 1 2 3 4 5 6 
#
# 1 0.007526 -0.003807 -0.002326 0.000000 0.000000 0.000000
# 2 -0.003807 0.020676 -0.005794 0.000000 0.000000 0.000000
# 3 -0.002326 -0.005794 0.014158 0.000000 -0.000001 0.000000
# 4 0.000000 0.000000 0.000000 0.046692 0.000000 0.000000
# 5 0.000000 0.000000 -0.000001 0.000000 0.061586 0.000000
# 6 0.000000 0.000000 0.000000 0.000000 0.000000 0.032526
#
#
# Mechanical properties :
#
#
# Convention : Reuss Voigt Hill
#
# Bulk Modulus (GPa) = 54.03476 63.97229 59.00352
# Shear Modulus (GPa) = 23.45346 27.24249 25.34798
#
# Velocity S-wave (km/s) = 3.30273 3.55954 3.43354
# Velocity P-wave (km/s) = 6.29883 6.82985 6.56971
#
# Compressibility (1/GPa) = 0.01850661
#
# Stress axis : x y z
#
# Youngs Moduli (GPa) = 132.86765 48.36451 70.62964
#
# Poissons Ratio (x) = 0.18411 0.16429
# Poissons Ratio (y) = 0.50578 0.40926
# Poissons Ratio (z) = 0.30906 0.28025
#
# Static dielectric constant tensor:
#      x y z
#    x 1.918670 0.000000 0.000000 
#    y 0.000000 1.811920 0.000000 
#    z 0.000000 0.000000 1.761830 
# 
# From -- ./inp_files/7180.got.cif
#   From: 2010.05.17/outbox.cif.g08.bks.cpg/sg74_4_cif.got.tgz:7180.got - 2010.06.03 17:57:02.
