data_PCOD9534484
_publ_section_title
;
Structure prediction by ZEFSAII (Michael W. Deem and Ramdas Pophale) SiO2 
 PCOD9534484
Probable space group: I M M A
;
_chemical_formula_sum "Si O2"
_cell_formula_units_Z 104
_cell_length_a 8.918274
_cell_length_b 37.017273
_cell_length_c 28.322250
_cell_angle_alpha 90.000000
_cell_angle_beta 90.000000
_cell_angle_gamma 90.000000
_cell_volume 9350.029585
_symmetry_space_group_name_H-M "I M M A"
_symmetry_group_IT_number 74
_symmetry_cell_setting 'orthorhombic'
loop_
_space_group_symop_operation_xyz
x,y,z
-x,1/2-y,z
x,-y,-z
-x,1/2+y,-z
-x,-y,-z
x,1/2+y,-z
-x,y,z
x,1/2-y,z
1/2+x,1/2+y,1/2+z
1/2-x,-y,1/2+z
1/2+x,1/2-y,1/2-z
1/2-x,y,1/2-z
1/2-x,1/2-y,1/2-z
1/2+x,y,1/2-z
1/2-x,1/2+y,1/2+z
1/2+x,-y,1/2+z
loop_
_atom_site_type_symbol
_atom_site_label
_atom_site_fract_x
_atom_site_fract_y
_atom_site_fract_z
Si Si1 0.178288 0.032666 0.301318
Si Si2 0.172298 0.926560 0.940944
Si Si3 0.326708 0.038989 0.973232
Si Si4 0.821820 0.391490 0.354068
Si Si5 0.827675 0.495761 0.887414
Si Si6 0.819034 0.250000 0.302972
Si Si7 0.319985 0.176014 0.302520
O O1 0.250000 0.029308 0.250000
O O2 0.244405 0.004094 0.338622
O O3 0.000000 0.028729 0.298634
O O4 0.209476 0.072687 0.322595
O O5 0.269880 0.901213 0.906999
O O6 0.000000 0.914483 0.943060
O O7 0.173652 0.965820 0.915259
O O8 0.240047 0.933601 0.992539
O O9 0.500000 0.049189 0.968627
O O10 0.252055 0.032171 0.922563
O O11 0.322453 0.000000 0.000000
O O12 0.729853 0.358202 0.333104
O O13 0.000000 0.384526 0.352106
O O14 0.000000 0.485786 0.879395
O O15 0.750000 0.250000 0.250000
O O16 0.753238 0.287252 0.323239
O O17 0.000000 0.250000 0.301887
O O18 0.500000 0.179269 0.299128
O O19 0.250000 0.171094 0.250000
#
# Coordination Sequence:
#
# PCOD9534484 Si02
#       7
#    16  16  16  16  16   8  16
#     4  10  19  28  37  48  64  84 106 131 159 192
#     4   9  16  25  36  50  66  83 102 125 153 185
#     4   9  15  23  35  49  64  81 101 125 152 182
#     4  10  19  29  39  52  68  86 106 128 157 193
#     4   9  16  25  36  48  62  80 103 128 154 185
#     4  10  18  30  44  56  68  82 102 128 156 186
#     4  11  20  30  42  55  69  85 105 129 157 190
#
# _framework density 11.122959
#
# number of rings (size 3 to 8) (size 9 to 14) (size 15 to 20)
#    0.000    2.308    0.000    5.769    0.000    8.615 
#    0.000    0.000    0.000    0.000    0.000    0.000 
#    0.000    0.000    0.000    0.000    0.000    0.000 
#
# Total GULP energy -289758.214581 kJ/mol
# GULP energy per Si atom -5572.273357 kJ/mol
# Density = 1.109764 g / cm^3
# Si number density = 11.122959 Si / 1000 Ang^3
#
#
#
# Elastic Constant Matrix: (Units=GPa)
#
#
# Indices 1 2 3 4 5 6 
#
# 1 88.7092 24.8545 46.6633 0.0000 0.0000 0.0000
# 2 24.8545 29.1032 32.9880 0.0000 0.0000 0.0000
# 3 46.6633 32.9880 75.3722 0.0000 0.0000 0.0000
# 4 0.0000 0.0000 0.0000 8.7839 0.0000 0.0000
# 5 0.0000 0.0000 0.0000 0.0000 20.4632 0.0000
# 6 0.0000 0.0000 0.0000 0.0000 0.0000 14.4980
#
#
#
# Elastic Compliance Matrix: (Units=1/GPa)
#
#
# Indices 1 2 3 4 5 6 
#
# 1 0.017100 -0.005167 -0.008325 0.000000 0.000000 0.000000
# 2 -0.005167 0.069749 -0.027328 0.000000 0.000000 0.000000
# 3 -0.008325 -0.027328 0.030382 0.000000 0.000000 0.000000
# 4 0.000000 0.000000 0.000000 0.113844 0.000000 0.000000
# 5 0.000000 0.000000 0.000000 0.000000 0.048868 0.000000
# 6 0.000000 0.000000 0.000000 0.000000 0.000000 0.068975
#
#
# Mechanical properties :
#
#
# Convention : Reuss Voigt Hill
#
# Bulk Modulus (GPa) = 28.09720 44.68849 36.39285
# Shear Modulus (GPa) = 11.30140 14.66093 12.98117
#
# Velocity S-wave (km/s) = 3.19100 3.63447 3.41993
# Velocity P-wave (km/s) = 6.23635 7.60766 6.95588
#
# Compressibility (1/GPa) = 0.03559073
#
# Stress axis : x y z
#
# Youngs Moduli (GPa) = 58.48059 14.33708 32.91396
#
# Poissons Ratio (x) = 0.07408 0.27401
# Poissons Ratio (y) = 0.30217 0.89948
# Poissons Ratio (z) = 0.48685 0.39181
#
# Static dielectric constant tensor:
#      x y z
#    x 1.372400 0.000000 0.000000 
#    y 0.000000 1.348010 0.000000 
#    z 0.000000 0.000000 1.348630 
# 
# From -- ./inp_files/65238.got.cif
#   From: 2010.05.17/outbox.cif.g08.bks.cpg/sg74_33_cif.got.tgz:65238.got - 2010.06.03 17:57:02.
