data_PCOD9534742
_publ_section_title
;
Structure prediction by ZEFSAII (Michael W. Deem and Ramdas Pophale) SiO2 
 PCOD9534742
Probable space group: I M M A
;
_chemical_formula_sum "Si O2"
_cell_formula_units_Z 80
_cell_length_a 26.526859
_cell_length_b 8.669358
_cell_length_c 19.628254
_cell_angle_alpha 90.000000
_cell_angle_beta 90.000000
_cell_angle_gamma 90.000000
_cell_volume 4513.926007
_symmetry_space_group_name_H-M "I M M A"
_symmetry_group_IT_number 74
_symmetry_cell_setting 'orthorhombic'
loop_
_space_group_symop_operation_xyz
x,y,z
-x,1/2-y,z
x,-y,-z
-x,1/2+y,-z
-x,-y,-z
x,1/2+y,-z
-x,y,z
x,1/2-y,z
1/2+x,1/2+y,1/2+z
1/2-x,-y,1/2+z
1/2+x,1/2-y,1/2-z
1/2-x,y,1/2-z
1/2-x,1/2-y,1/2-z
1/2+x,y,1/2-z
1/2-x,1/2+y,1/2+z
1/2+x,-y,1/2+z
loop_
_atom_site_type_symbol
_atom_site_label
_atom_site_fract_x
_atom_site_fract_y
_atom_site_fract_z
Si Si1 0.557535 0.564715 0.820645
Si Si2 0.355268 0.933357 0.576334
Si Si3 0.749100 0.434267 0.577216
Si Si4 0.646187 0.564823 0.923564
Si Si5 0.441683 0.933829 0.329484
O O1 0.500000 0.528115 0.841883
O O2 0.560469 0.750000 0.810620
O O3 0.598836 0.522034 0.876709
O O4 0.567115 0.483625 0.748565
O O5 0.350235 0.750000 0.572128
O O6 0.361557 0.000000 0.500000
O O7 0.303402 0.003659 0.606763
O O8 0.402544 0.981777 0.621693
O O9 0.748994 0.500000 0.500000
O O10 0.749291 0.250000 0.576069
O O11 0.801531 0.497807 0.606442
O O12 0.650125 0.750000 0.927258
O O13 0.639867 0.500000 0.000000
O O14 0.500000 0.973670 0.345595
O O15 0.435822 0.750000 0.336418
#
# Coordination Sequence:
#
# PCOD9534742 Si02
#       5
#    16  16  16  16  16
#     4   9  19  36  55  75 103 140 177 214 260 311
#     4  11  21  35  56  80 107 137 172 213 256 305
#     4  10  18  31  51  75 105 137 171 211 258 309
#     4  10  19  32  52  78 107 138 175 216 258 307
#     4  10  21  37  56  78 105 137 173 213 259 310
#
# _framework density 17.722932
#
# number of rings (size 3 to 8) (size 9 to 14) (size 15 to 20)
#    0.000    2.000    0.000    7.200    0.000    3.600 
#    0.000    1.000    0.000    6.000    0.000    0.000 
#    0.000    0.000    0.000    0.000    0.000    0.000 
#
# Total GULP energy -223214.037588 kJ/mol
# GULP energy per Si atom -5580.350940 kJ/mol
# Density = 1.768259 g / cm^3
# Si number density = 17.722932 Si / 1000 Ang^3
#
#
#
# Elastic Constant Matrix: (Units=GPa)
#
#
# Indices 1 2 3 4 5 6 
#
# 1 161.8877 75.4426 75.9620 0.0000 0.0000 0.0000
# 2 75.4426 113.6147 40.3819 0.0000 0.0000 0.0000
# 3 75.9620 40.3819 56.1821 0.0000 0.0000 0.0000
# 4 0.0000 0.0000 0.0000 26.5957 0.0000 0.0000
# 5 0.0000 0.0000 0.0000 0.0000 -41.3880 0.0000
# 6 0.0000 0.0000 0.0000 0.0000 0.0000 27.7531
#
#
#
# Elastic Compliance Matrix: (Units=1/GPa)
#
#
# Indices 1 2 3 4 5 6 
#
# 1 0.018503 -0.004559 -0.021740 0.000000 0.000000 0.000000
# 2 -0.004559 0.012945 -0.003140 0.000000 0.000000 0.000000
# 3 -0.021740 -0.003140 0.049450 0.000000 0.000000 0.000000
# 4 0.000000 0.000000 0.000000 0.037600 0.000000 0.000000
# 5 0.000000 0.000000 0.000000 0.000000 -0.024162 0.000000
# 6 0.000000 0.000000 0.000000 0.000000 0.000000 0.036032
#
#
# Mechanical properties :
#
#
# Convention : Reuss Voigt Hill
#
# Bulk Modulus (GPa) = 45.41446 79.47307 62.44376
# Shear Modulus (GPa) = 25.43394 11.91869 18.67632
#
# Velocity S-wave (km/s) = 3.79236 2.59608 3.24974
# Velocity P-wave (km/s) = 6.69749 7.34339 7.02787
#
# Compressibility (1/GPa) = 0.02201942
#
# Stress axis : x y z
#
# Youngs Moduli (GPa) = 54.04583 77.24847 20.22229
#
# Poissons Ratio (x) = 0.35219 0.43963
# Poissons Ratio (y) = 0.24641 0.06350
# Poissons Ratio (z) = 1.17496 0.24258
#
# Static dielectric constant tensor:
#      x y z
#    x 1.640030 0.000000 0.000000 
#    y 0.000000 1.595910 0.000000 
#    z 0.000000 0.000000 1.576720 
# 
# From -- ./inp_files/39730.got.cif
#   From: 2010.05.17/outbox.cif.g08.bks.cpg/sg74_20_cif.got.tgz:39730.got - 2010.06.03 17:57:02.
