data_PCOD9534027
_publ_section_title
;
Structure prediction by ZEFSAII (Michael W. Deem and Ramdas Pophale) SiO2 
 PCOD9534027
Probable space group: I M M A
;
_chemical_formula_sum "Si O2"
_cell_formula_units_Z 128
_cell_length_a 16.972579
_cell_length_b 24.499510
_cell_length_c 21.305846
_cell_angle_alpha 90.000000
_cell_angle_beta 90.000000
_cell_angle_gamma 90.000000
_cell_volume 8859.394091
_symmetry_space_group_name_H-M "I M M A"
_symmetry_group_IT_number 74
_symmetry_cell_setting 'orthorhombic'
loop_
_space_group_symop_operation_xyz
x,y,z
-x,1/2-y,z
x,-y,-z
-x,1/2+y,-z
-x,-y,-z
x,1/2+y,-z
-x,y,z
x,1/2-y,z
1/2+x,1/2+y,1/2+z
1/2-x,-y,1/2+z
1/2+x,1/2-y,1/2-z
1/2-x,y,1/2-z
1/2-x,1/2-y,1/2-z
1/2+x,y,1/2-z
1/2-x,1/2+y,1/2+z
1/2+x,-y,1/2+z
loop_
_atom_site_type_symbol
_atom_site_label
_atom_site_fract_x
_atom_site_fract_y
_atom_site_fract_z
Si Si1 0.853509 0.813012 0.329317
Si Si2 0.585854 0.895818 0.074065
Si Si3 0.187729 0.687469 0.100733
Si Si4 0.592705 0.132793 0.701687
Si Si5 0.243378 0.525606 0.899888
Si Si6 0.246765 0.912467 0.023006
Si Si7 0.333779 0.018154 0.717243
Si Si8 0.589130 0.493063 0.153619
O O1 0.874764 0.750000 0.321542
O O2 0.902830 0.842144 0.383997
O O3 0.763347 0.816682 0.352593
O O4 0.867770 0.843909 0.264634
O O5 0.500000 0.897610 0.043586
O O6 0.659400 0.900997 0.027744
O O7 0.589911 0.946113 0.123395
O O8 0.184197 0.750000 0.078001
O O9 0.113948 0.671343 0.143474
O O10 0.202854 0.640814 0.049069
O O11 0.500000 0.129140 0.712190
O O12 0.628644 0.073092 0.690079
O O13 0.236268 0.465277 0.931626
O O14 0.188850 0.523195 0.838412
O O15 0.334691 0.534116 0.879083
O O16 0.223194 0.568681 0.953722
O O17 0.250000 0.032243 0.750000
O O18 0.390007 0.996931 0.772738
O O19 0.500000 0.471650 0.143656
#
# Coordination Sequence:
#
# PCOD9534027 Si02
#       8
#    16  16  16  16  16  16  16  16
#     4  10  19  29  41  58  82 115 152 181 205 239
#     4   9  16  25  38  58  85 112 138 171 211 249
#     4  10  20  33  46  59  81 112 147 185 215 246
#     4  12  21  28  41  60  83 112 146 186 220 244
#     4   9  17  28  46  61  80 112 145 177 205 252
#     4   9  17  30  44  60  79 111 149 178 209 244
#     4  10  17  28  44  61  84 113 142 171 210 258
#     4   9  16  26  41  64  88 107 130 166 217 261
#
# _framework density 14.447941
#
# number of rings (size 3 to 8) (size 9 to 14) (size 15 to 20)
#    0.000    2.250    2.500    2.250    0.000    3.250 
#    0.000    2.500    0.000    2.250    0.000    0.000 
#    0.000    4.500    0.000    0.250    0.000    0.000 
#
# Total GULP energy -356582.930093 kJ/mol
# GULP energy per Si atom -5571.608283 kJ/mol
# Density = 1.441506 g / cm^3
# Si number density = 14.447941 Si / 1000 Ang^3
#
#
#
# Elastic Constant Matrix: (Units=GPa)
#
#
# Indices 1 2 3 4 5 6 
#
# 1 14.1923 11.6808 15.0811 0.0000 0.0000 0.0000
# 2 11.6808 53.3549 35.2872 0.0000 0.0000 0.0000
# 3 15.0811 35.2872 56.9431 0.0000 0.0000 0.0000
# 4 0.0000 0.0000 0.0000 16.6632 0.0000 0.0000
# 5 0.0000 0.0000 0.0000 0.0000 4.5590 0.0000
# 6 0.0000 0.0000 0.0000 0.0000 0.0000 3.9592
#
#
#
# Elastic Compliance Matrix: (Units=1/GPa)
#
#
# Indices 1 2 3 4 5 6 
#
# 1 0.099751 -0.007398 -0.021834 0.000000 0.000000 0.000000
# 2 -0.007398 0.032307 -0.018061 0.000000 0.000000 0.000000
# 3 -0.021834 -0.018061 0.034537 0.000000 0.000000 0.000000
# 4 0.000000 0.000000 0.000000 0.060013 0.000000 0.000000
# 5 0.000000 0.000000 0.000000 0.000000 0.219345 0.000000
# 6 0.000000 0.000000 0.000000 0.000000 0.000000 0.252576
#
#
# Mechanical properties :
#
#
# Convention : Reuss Voigt Hill
#
# Bulk Modulus (GPa) = 13.88728 27.62097 20.75412
# Shear Modulus (GPa) = 6.11907 9.19902 7.65904
#
# Velocity S-wave (km/s) = 2.06021 2.52603 2.30492
# Velocity P-wave (km/s) = 3.91051 5.25993 4.63459
#
# Compressibility (1/GPa) = 0.07200835
#
# Stress axis : x y z
#
# Youngs Moduli (GPa) = 10.02493 30.95301 28.95484
#
# Poissons Ratio (x) = 0.22898 0.63221
# Poissons Ratio (y) = 0.07416 0.52296
# Poissons Ratio (z) = 0.21889 0.55905
#
# Static dielectric constant tensor:
#      x y z
#    x 1.504560 0.000000 0.000000 
#    y 0.000000 1.458710 0.000000 
#    z 0.000000 0.000000 1.472120 
# 
# From -- ./inp_files/61200.got.cif
#   From: 2010.05.17/outbox.cif.g08.bks.cpg/sg74_31_cif.got.tgz:61200.got - 2010.06.03 17:57:02.
