data_PCOD9534670
_publ_section_title
;
Structure prediction by ZEFSAII (Michael W. Deem and Ramdas Pophale) SiO2 
 PCOD9534670
Probable space group: I M M A
;
_chemical_formula_sum "Si O2"
_cell_formula_units_Z 104
_cell_length_a 14.626793
_cell_length_b 23.546654
_cell_length_c 21.645827
_cell_angle_alpha 90.000000
_cell_angle_beta 90.000000
_cell_angle_gamma 90.000000
_cell_volume 7455.083303
_symmetry_space_group_name_H-M "I M M A"
_symmetry_group_IT_number 74
_symmetry_cell_setting 'orthorhombic'
loop_
_space_group_symop_operation_xyz
x,y,z
-x,1/2-y,z
x,-y,-z
-x,1/2+y,-z
-x,-y,-z
x,1/2+y,-z
-x,y,z
x,1/2-y,z
1/2+x,1/2+y,1/2+z
1/2-x,-y,1/2+z
1/2+x,1/2-y,1/2-z
1/2-x,y,1/2-z
1/2-x,1/2-y,1/2-z
1/2+x,y,1/2-z
1/2-x,1/2+y,1/2+z
1/2+x,-y,1/2+z
loop_
_atom_site_type_symbol
_atom_site_label
_atom_site_fract_x
_atom_site_fract_y
_atom_site_fract_z
Si Si1 0.391269 0.135130 0.986732
Si Si2 0.895547 0.531946 0.566579
Si Si3 0.292907 0.750000 0.043617
Si Si4 0.323559 0.250000 0.807313
Si Si5 0.397247 0.624397 0.366126
Si Si6 0.103809 0.250000 0.922294
Si Si7 0.897716 0.126431 0.718686
Si Si8 0.210730 0.934718 0.380567
O O1 0.500000 0.140690 0.979595
O O2 0.342701 0.195285 0.983155
O O3 0.349930 0.101030 0.928959
O O4 0.374827 0.096737 0.047593
O O5 0.896793 0.500000 0.500000
O O6 0.820470 0.499280 0.607187
O O7 0.000000 0.527377 0.591198
O O8 0.295249 0.750000 0.119738
O O9 0.185429 0.750000 0.028963
O O10 0.250000 0.250000 0.750000
O O11 0.378858 0.308106 0.798400
O O12 0.500000 0.607727 0.386171
O O13 0.385396 0.690877 0.384444
O O14 0.393287 0.621661 0.292177
O O15 0.315235 0.584855 0.390403
O O16 0.000000 0.250000 0.946159
O O17 0.823255 0.087621 0.685454
O O18 0.000000 0.110496 0.697973
#
# Coordination Sequence:
#
# PCOD9534670 Si02
#       8
#    16  16   8   8  16   8  16  16
#     4  10  19  29  42  62  82  98 127 168 213 250
#     4   8  16  29  43  58  76 100 127 162 207 254
#     4  12  19  28  44  62  81 106 132 179 211 236
#     4  12  21  27  36  52  83 113 143 169 198 232
#     4  10  20  30  40  56  80 110 142 174 205 231
#     4  10  18  31  41  50  75 116 147 165 198 239
#     4  11  20  27  38  57  80 107 137 171 202 235
#     4  11  17  28  44  55  76 105 140 167 198 241
#
# _framework density 13.950213
#
# number of rings (size 3 to 8) (size 9 to 14) (size 15 to 20)
#    0.000    1.692    3.077    5.538    0.000    1.846 
#    0.000    0.000    0.000    5.077    0.000    0.000 
#    0.000    0.000    0.000    2.769    0.000    9.538 
#
# Total GULP energy -289626.614970 kJ/mol
# GULP energy per Si atom -5569.742596 kJ/mol
# Density = 1.391846 g / cm^3
# Si number density = 13.950213 Si / 1000 Ang^3
#
#
#
# Elastic Constant Matrix: (Units=GPa)
#
#
# Indices 1 2 3 4 5 6 
#
# 1 124.2549 53.4812 26.1290 0.0000 0.0000 0.0000
# 2 53.4812 80.3972 25.7784 0.0000 0.0000 0.0000
# 3 26.1290 25.7784 19.0339 0.0000 0.0000 0.0000
# 4 0.0000 0.0000 0.0000 14.2938 0.0000 0.0000
# 5 0.0000 0.0000 0.0000 0.0000 12.4391 0.0000
# 6 0.0000 0.0000 0.0000 0.0000 0.0000 21.0305
#
#
#
# Elastic Compliance Matrix: (Units=1/GPa)
#
#
# Indices 1 2 3 4 5 6 
#
# 1 0.012317 -0.004900 -0.010273 0.000000 0.000000 0.000000
# 2 -0.004900 0.023935 -0.025690 0.000000 0.000000 0.000000
# 3 -0.010273 -0.025690 0.101433 0.000000 0.000000 0.000000
# 4 0.000000 0.000000 0.000000 0.069960 0.000000 0.000000
# 5 0.000000 0.000000 0.000000 0.000000 0.080391 0.000000
# 6 0.000000 0.000000 0.000000 0.000000 0.000000 0.047550
#
#
# Mechanical properties :
#
#
# Convention : Reuss Voigt Hill
#
# Bulk Modulus (GPa) = 17.86980 48.27369 33.07174
# Shear Modulus (GPa) = 11.46886 17.43918 14.45402
#
# Velocity S-wave (km/s) = 2.87039 3.53951 3.22237
# Velocity P-wave (km/s) = 4.88088 7.16823 6.13215
#
# Compressibility (1/GPa) = 0.05596034
#
# Stress axis : x y z
#
# Youngs Moduli (GPa) = 81.18831 41.78047 9.85877
#
# Poissons Ratio (x) = 0.20471 0.10128
# Poissons Ratio (y) = 0.39779 0.25327
# Poissons Ratio (z) = 0.83402 1.07333
#
# Static dielectric constant tensor:
#      x y z
#    x 1.510420 0.000000 0.000000 
#    y 0.000000 1.472620 0.000000 
#    z 0.000000 0.000000 1.445930 
# 
# From -- ./inp_files/54796.got.cif
#   From: 2010.05.17/outbox.cif.g08.bks.cpg/sg74_28_cif.got.tgz:54796.got - 2010.06.03 17:57:02.
