data_PCOD9534650
_publ_section_title
;
Structure prediction by ZEFSAII (Michael W. Deem and Ramdas Pophale) SiO2 
 PCOD9534650
Probable space group: I M M A
;
_chemical_formula_sum "Si O2"
_cell_formula_units_Z 96
_cell_length_a 24.052164
_cell_length_b 14.436510
_cell_length_c 12.971314
_cell_angle_alpha 90.000000
_cell_angle_beta 90.000000
_cell_angle_gamma 90.000000
_cell_volume 4504.020360
_symmetry_space_group_name_H-M "I M M A"
_symmetry_group_IT_number 74
_symmetry_cell_setting 'orthorhombic'
loop_
_space_group_symop_operation_xyz
x,y,z
-x,1/2-y,z
x,-y,-z
-x,1/2+y,-z
-x,-y,-z
x,1/2+y,-z
-x,y,z
x,1/2-y,z
1/2+x,1/2+y,1/2+z
1/2-x,-y,1/2+z
1/2+x,1/2-y,1/2-z
1/2-x,y,1/2-z
1/2-x,1/2-y,1/2-z
1/2+x,y,1/2-z
1/2-x,1/2+y,1/2+z
1/2+x,-y,1/2+z
loop_
_atom_site_type_symbol
_atom_site_label
_atom_site_fract_x
_atom_site_fract_y
_atom_site_fract_z
Si Si1 0.690605 0.137136 0.586610
Si Si2 0.808354 0.137058 0.303639
Si Si3 0.887840 0.137531 0.725669
Si Si4 0.000000 0.380201 0.061503
Si Si5 0.685356 0.863451 0.038385
Si Si6 0.374262 0.854789 0.614579
Si Si7 0.000000 0.918275 0.165353
O O1 0.690790 0.250000 0.585667
O O2 0.658553 0.111459 0.689810
O O3 0.754375 0.107251 0.581486
O O4 0.655777 0.104704 0.486276
O O5 0.808155 0.250000 0.312650
O O6 0.750000 0.111465 0.250000
O O7 0.817060 0.104216 0.420177
O O8 0.855662 0.105119 0.223852
O O9 0.893393 0.250000 0.726654
O O10 0.864572 0.109338 0.614105
O O11 0.945795 0.097480 0.766005
O O12 0.060081 0.348962 0.100826
O O13 0.000000 0.484012 0.107115
O O14 0.000000 0.357423 0.939313
O O15 0.685457 0.750000 0.038788
O O16 0.351838 0.750000 0.617804
#
# Coordination Sequence:
#
# PCOD9534650 Si02
#       7
#    16  16  16   8  16  16   8
#     4   9  15  25  46  79 110 131 157 204 263 314
#     4   9  15  26  47  77 110 138 165 207 262 312
#     4  10  19  31  51  78 107 137 175 218 261 316
#     4  11  23  37  52  73 100 138 181 224 267 312
#     4   9  16  27  46  79 115 140 163 202 263 324
#     4  10  18  30  53  81 106 133 168 215 263 313
#     4  11  23  37  52  71  98 142 181 224 269 306
#
# _framework density 21.31429
#
# number of rings (size 3 to 8) (size 9 to 14) (size 15 to 20)
#    0.000    2.333    3.333    1.000    0.000    2.667 
#    0.000    0.833    0.000    8.000    4.333    0.000 
#    0.000    0.000    0.000    0.000    0.000    0.000 
#
# Total GULP energy -267918.304231 kJ/mol
# GULP energy per Si atom -5581.631338 kJ/mol
# Density = 2.126578 g / cm^3
# Si number density = 21.314290 Si / 1000 Ang^3
#
#
#
# Elastic Constant Matrix: (Units=GPa)
#
#
# Indices 1 2 3 4 5 6 
#
# 1 138.3342 12.2635 95.4625 0.0000 0.0000 0.0000
# 2 12.2635 66.8304 17.5090 0.0000 0.0000 0.0000
# 3 95.4625 17.5090 196.9166 0.0000 0.0000 0.0000
# 4 0.0000 0.0000 0.0000 -5.2902 0.0000 0.0000
# 5 0.0000 0.0000 0.0000 0.0000 33.9987 0.0000
# 6 0.0000 0.0000 0.0000 0.0000 0.0000 -12.9234
#
#
#
# Elastic Compliance Matrix: (Units=1/GPa)
#
#
# Indices 1 2 3 4 5 6 
#
# 1 0.010889 -0.000630 -0.005223 0.000000 0.000000 0.000000
# 2 -0.000630 0.015357 -0.001060 0.000000 0.000000 0.000000
# 3 -0.005223 -0.001060 0.007704 0.000000 0.000000 0.000000
# 4 0.000000 0.000000 0.000000 -0.189029 0.000000 0.000000
# 5 0.000000 0.000000 0.000000 0.000000 0.029413 0.000000
# 6 0.000000 0.000000 0.000000 0.000000 0.000000 -0.077379
#
#
# Mechanical properties :
#
#
# Convention : Reuss Voigt Hill
#
# Bulk Modulus (GPa) = 49.69064 72.50568 61.09816
# Shear Modulus (GPa) = -27.39557 21.61343 -2.89107
#
# Velocity S-wave (km/s) = -3.58902 3.18785 -1.16591
# Velocity P-wave (km/s) = 2.48780 6.90225 5.18798
#
# Compressibility (1/GPa) = 0.02012451
#
# Stress axis : x y z
#
# Youngs Moduli (GPa) = 91.83689 65.11875 129.79451
#
# Poissons Ratio (x) = 0.04101 0.67789
# Poissons Ratio (y) = 0.05784 0.13760
# Poissons Ratio (z) = 0.47964 0.06903
#
# Static dielectric constant tensor:
#      x y z
#    x 1.711390 0.000000 0.000000 
#    y 0.000000 1.914300 0.000000 
#    z 0.000000 0.000000 1.779180 
# 
# From -- ./inp_files/23976.got.cif
#   From: 2010.05.17/outbox.cif.g08.bks.cpg/sg74_12_cif.got.tgz:23976.got - 2010.06.03 17:57:02.
