data_PCOD9534721
_publ_section_title
;
Structure prediction by ZEFSAII (Michael W. Deem and Ramdas Pophale) SiO2 
 PCOD9534721
Probable space group: I M M A
;
_chemical_formula_sum "Si O2"
_cell_formula_units_Z 104
_cell_length_a 8.242920
_cell_length_b 27.962948
_cell_length_c 25.111338
_cell_angle_alpha 90.000000
_cell_angle_beta 90.000000
_cell_angle_gamma 90.000000
_cell_volume 5788.071585
_symmetry_space_group_name_H-M "I M M A"
_symmetry_group_IT_number 74
_symmetry_cell_setting 'orthorhombic'
loop_
_space_group_symop_operation_xyz
x,y,z
-x,1/2-y,z
x,-y,-z
-x,1/2+y,-z
-x,-y,-z
x,1/2+y,-z
-x,y,z
x,1/2-y,z
1/2+x,1/2+y,1/2+z
1/2-x,-y,1/2+z
1/2+x,1/2-y,1/2-z
1/2-x,y,1/2-z
1/2-x,1/2-y,1/2-z
1/2+x,y,1/2-z
1/2-x,1/2+y,1/2+z
1/2+x,-y,1/2+z
loop_
_atom_site_type_symbol
_atom_site_label
_atom_site_fract_x
_atom_site_fract_y
_atom_site_fract_z
Si Si1 0.804774 0.803929 0.192004
Si Si2 0.810981 0.432490 0.052873
Si Si3 0.802996 0.801347 0.009897
Si Si4 0.803270 0.373282 0.901134
Si Si5 0.187688 0.032273 0.562993
Si Si6 0.807218 0.750000 0.687795
Si Si7 0.695568 0.332864 0.393462
O O1 0.743789 0.750000 0.183115
O O2 0.750000 0.819471 0.250000
O O3 0.751781 0.839797 0.146892
O O4 0.000000 0.802261 0.190106
O O5 0.789149 0.485122 0.077665
O O6 0.754220 0.388318 0.090874
O O7 0.000000 0.422174 0.041412
O O8 0.731033 0.444583 0.995134
O O9 0.748992 0.750000 0.031305
O O10 0.757622 0.806675 0.948535
O O11 0.000000 0.801757 0.011669
O O12 0.749585 0.845300 0.045587
O O13 0.726836 0.424953 0.897618
O O14 0.000000 0.377447 0.902466
O O15 0.000000 0.018979 0.562797
O O16 0.750000 0.750000 0.750000
O O17 0.753738 0.701588 0.654951
O O18 0.000000 0.750000 0.688388
O O19 0.500000 0.333960 0.388529
#
# Coordination Sequence:
#
# PCOD9534721 Si02
#       7
#    16  16  16  16  16   8  16
#     4   9  18  32  51  73 100 136 181 224 264 313
#     4  10  19  34  55  77 106 147 185 217 261 326
#     4   9  15  26  48  76 104 134 171 215 263 317
#     4  10  18  31  50  74 102 141 185 221 264 320
#     4  11  21  31  47  76 113 145 179 225 273 322
#     4  12  26  42  62  86 116 150 187 228 269 328
#     4  10  19  35  59  83 108 140 179 223 270 323
#
# _framework density 17.967988999999999
#
# number of rings (size 3 to 8) (size 9 to 14) (size 15 to 20)
#    0.000    2.000    2.308    3.923    0.000    3.692 
#    0.000    0.000    0.000    1.846    0.000    4.308 
#    0.000    0.000    0.000    0.000    0.000    0.000 
#
# Total GULP energy -289504.955592 kJ/mol
# GULP energy per Si atom -5567.402992 kJ/mol
# Density = 1.792709 g / cm^3
# Si number density = 17.967989 Si / 1000 Ang^3
#
#
#
# Elastic Constant Matrix: (Units=GPa)
#
#
# Indices 1 2 3 4 5 6 
#
# 1 32.5716 13.2599 11.1443 0.0000 0.0000 0.0000
# 2 13.2599 131.7795 55.9902 0.0000 0.0000 0.0000
# 3 11.1443 55.9902 82.4947 0.0000 0.0000 0.0000
# 4 0.0000 0.0000 0.0000 8.2795 0.0000 0.0000
# 5 0.0000 0.0000 0.0000 0.0000 20.7894 0.0000
# 6 0.0000 0.0000 0.0000 0.0000 0.0000 9.6573
#
#
#
# Elastic Compliance Matrix: (Units=1/GPa)
#
#
# Indices 1 2 3 4 5 6 
#
# 1 0.032552 -0.001977 -0.003056 0.000000 0.000000 0.000000
# 2 -0.001977 0.010784 -0.007052 0.000000 0.000000 0.000000
# 3 -0.003056 -0.007052 0.017321 0.000000 0.000000 0.000000
# 4 0.000000 0.000000 0.000000 0.120780 0.000000 0.000000
# 5 0.000000 0.000000 0.000000 0.000000 0.048101 0.000000
# 6 0.000000 0.000000 0.000000 0.000000 0.000000 0.103549
#
#
# Mechanical properties :
#
#
# Convention : Reuss Voigt Hill
#
# Bulk Modulus (GPa) = 27.40679 45.29271 36.34975
# Shear Modulus (GPa) = 13.53479 18.84200 16.18840
#
# Velocity S-wave (km/s) = 2.74756 3.24179 3.00485
# Velocity P-wave (km/s) = 5.03504 6.26693 5.68446
#
# Compressibility (1/GPa) = 0.03648731
#
# Stress axis : x y z
#
# Youngs Moduli (GPa) = 30.72014 92.73384 57.73362
#
# Poissons Ratio (x) = 0.18335 0.17641
# Poissons Ratio (y) = 0.06074 0.40713
# Poissons Ratio (z) = 0.09387 0.65394
#
# Static dielectric constant tensor:
#      x y z
#    x 1.641940 0.000000 0.000000 
#    y 0.000000 1.674020 0.000000 
#    z 0.000000 0.000000 1.613640 
# 
# From -- ./inp_files/65001.got.cif
#   From: 2010.05.17/outbox.cif.g08.bks.cpg/sg74_33_cif.got.tgz:65001.got - 2010.06.03 17:57:02.
