data_PCOD9534309
_publ_section_title
;
Structure prediction by ZEFSAII (Michael W. Deem and Ramdas Pophale) SiO2 
 PCOD9534309
Probable space group: I M M A
;
_chemical_formula_sum "Si O2"
_cell_formula_units_Z 96
_cell_length_a 8.935912
_cell_length_b 29.041332
_cell_length_c 26.642156
_cell_angle_alpha 90.000000
_cell_angle_beta 90.000000
_cell_angle_gamma 90.000000
_cell_volume 6913.926874
_symmetry_space_group_name_H-M "I M M A"
_symmetry_group_IT_number 74
_symmetry_cell_setting 'orthorhombic'
loop_
_space_group_symop_operation_xyz
x,y,z
-x,1/2-y,z
x,-y,-z
-x,1/2+y,-z
-x,-y,-z
x,1/2+y,-z
-x,y,z
x,1/2-y,z
1/2+x,1/2+y,1/2+z
1/2-x,-y,1/2+z
1/2+x,1/2-y,1/2-z
1/2-x,y,1/2-z
1/2-x,1/2-y,1/2-z
1/2+x,y,1/2-z
1/2-x,1/2+y,1/2+z
1/2+x,-y,1/2+z
loop_
_atom_site_type_symbol
_atom_site_label
_atom_site_fract_x
_atom_site_fract_y
_atom_site_fract_z
Si Si1 0.323242 0.302840 0.044572
Si Si2 0.323173 0.946478 0.605849
Si Si3 0.678355 0.892559 0.802191
Si Si4 0.178210 0.302894 0.154699
Si Si5 0.823213 0.110450 0.002074
Si Si6 0.172888 0.471273 0.552362
O O1 0.500000 0.310933 0.052937
O O2 0.303896 0.250000 0.027583
O O3 0.237424 0.307321 0.097639
O O4 0.257432 0.340663 0.007247
O O5 0.500000 0.948202 0.616251
O O6 0.236689 0.923395 0.651747
O O7 0.302252 0.914854 0.556145
O O8 0.259806 0.996597 0.591551
O O9 0.500000 0.893002 0.799767
O O10 0.750000 0.908482 0.750000
O O11 0.737366 0.840892 0.812995
O O12 0.205680 0.250000 0.170541
O O13 0.000000 0.311456 0.155768
O O14 0.751874 0.076727 0.960847
O O15 0.000000 0.115547 0.994062
O O16 0.175191 0.500000 0.500000
O O17 0.000000 0.465026 0.566680
#
# Coordination Sequence:
#
# PCOD9534309 Si02
#       6
#    16  16  16  16  16  16
#     4  10  19  29  43  63  86 113 144 177 214 256
#     4  10  19  32  47  64  86 108 136 173 214 258
#     4  12  24  36  50  64  82 107 140 178 222 266
#     4  10  20  34  49  63  80 104 137 178 223 266
#     4  10  18  28  45  65  87 112 139 173 211 253
#     4   9  17  28  44  65  87 109 136 168 207 252
#
# _framework density 13.885019
#
# number of rings (size 3 to 8) (size 9 to 14) (size 15 to 20)
#    0.000    1.833    1.667    4.000    0.000    5.667 
#    0.000    0.000    0.000    0.000    0.000    0.000 
#    0.000    0.000    0.000    0.000    0.000    0.833 
#
# Total GULP energy -267903.993125 kJ/mol
# GULP energy per Si atom -5581.333190 kJ/mol
# Density = 1.385342 g / cm^3
# Si number density = 13.885019 Si / 1000 Ang^3
#
#
#
# Elastic Constant Matrix: (Units=GPa)
#
#
# Indices 1 2 3 4 5 6 
#
# 1 114.1082 53.6570 41.0815 0.0000 0.0000 0.0000
# 2 53.6570 67.4913 35.5969 0.0000 0.0000 0.0000
# 3 41.0815 35.5969 41.2611 0.0000 0.0000 0.0000
# 4 0.0000 0.0000 0.0000 12.0084 0.0000 0.0000
# 5 0.0000 0.0000 0.0000 0.0000 19.1270 0.0000
# 6 0.0000 0.0000 0.0000 0.0000 0.0000 25.8660
#
#
#
# Elastic Compliance Matrix: (Units=1/GPa)
#
#
# Indices 1 2 3 4 5 6 
#
# 1 0.015580 -0.007716 -0.008856 0.000000 0.000000 0.000000
# 2 -0.007716 0.031009 -0.019070 0.000000 0.000000 0.000000
# 3 -0.008856 -0.019070 0.049505 0.000000 0.000000 0.000000
# 4 0.000000 0.000000 0.000000 0.083275 0.000000 0.000000
# 5 0.000000 0.000000 0.000000 0.000000 0.052282 0.000000
# 6 0.000000 0.000000 0.000000 0.000000 0.000000 0.038661
#
#
# Mechanical properties :
#
#
# Convention : Reuss Voigt Hill
#
# Bulk Modulus (GPa) = 40.30410 53.72571 47.01491
# Shear Modulus (GPa) = 14.29119 17.56860 15.92990
#
# Velocity S-wave (km/s) = 3.21168 3.56095 3.39082
# Velocity P-wave (km/s) = 6.54547 7.46220 7.01882
#
# Compressibility (1/GPa) = 0.02481137
#
# Stress axis : x y z
#
# Youngs Moduli (GPa) = 64.18480 32.24877 20.19988
#
# Poissons Ratio (x) = 0.24882 0.17888
# Poissons Ratio (y) = 0.49523 0.38521
# Poissons Ratio (z) = 0.56840 0.61498
#
# Static dielectric constant tensor:
#      x y z
#    x 1.460310 0.000000 0.000000 
#    y 0.000000 1.462280 0.000000 
#    z 0.000000 0.000000 1.430450 
# 
# From -- ./inp_files/49090.got.cif
#   From: 2010.05.17/outbox.cif.g08.bks.cpg/sg74_25_cif.got.tgz:49090.got - 2010.06.03 17:57:02.
