data_PCOD9534787
_publ_section_title
;
Structure prediction by ZEFSAII (Michael W. Deem and Ramdas Pophale) SiO2 
 PCOD9534787
Probable space group: I M M A
;
_chemical_formula_sum "Si O2"
_cell_formula_units_Z 72
_cell_length_a 7.304181
_cell_length_b 25.158125
_cell_length_c 16.752267
_cell_angle_alpha 90.000000
_cell_angle_beta 90.000000
_cell_angle_gamma 90.000000
_cell_volume 3078.388185
_symmetry_space_group_name_H-M "I M M A"
_symmetry_group_IT_number 74
_symmetry_cell_setting 'orthorhombic'
loop_
_space_group_symop_operation_xyz
x,y,z
-x,1/2-y,z
x,-y,-z
-x,1/2+y,-z
-x,-y,-z
x,1/2+y,-z
-x,y,z
x,1/2-y,z
1/2+x,1/2+y,1/2+z
1/2-x,-y,1/2+z
1/2+x,1/2-y,1/2-z
1/2-x,y,1/2-z
1/2-x,1/2-y,1/2-z
1/2+x,y,1/2-z
1/2-x,1/2+y,1/2+z
1/2+x,-y,1/2+z
loop_
_atom_site_type_symbol
_atom_site_label
_atom_site_fract_x
_atom_site_fract_y
_atom_site_fract_z
Si Si1 0.275912 0.416979 0.892083
Si Si2 0.776897 0.866986 0.562467
Si Si3 0.250000 0.345874 0.750000
Si Si4 0.215827 0.750000 0.548649
Si Si5 0.276956 0.250000 0.640619
Si Si6 0.282675 0.968498 0.843860
O O1 0.500000 0.413924 0.881589
O O2 0.187732 0.388284 0.816254
O O3 0.221229 0.478741 0.890432
O O4 0.228935 0.387183 0.973654
O O5 0.711184 0.806962 0.577529
O O6 0.712437 0.912528 0.622883
O O7 0.000000 0.865152 0.564462
O O8 0.193854 0.301351 0.684088
O O9 0.238800 0.750000 0.452700
O O10 0.000000 0.750000 0.566611
O O11 0.500000 0.250000 0.652511
O O12 0.500000 0.966936 0.856640
O O13 0.250000 0.974922 0.750000
#
# Coordination Sequence:
#
# PCOD9534787 Si02
#       6
#    16  16   8   8   8  16
#     4  10  18  31  53  78 104 138 178 214 249 304
#     4   9  18  33  55  79 101 135 181 221 254 303
#     4  11  20  32  50  74 110 147 174 200 250 315
#     4  10  19  35  57  76 100 138 184 220 255 306
#     4  11  23  33  48  79 114 142 170 210 259 308
#     4  10  20  35  56  80 106 134 173 222 269 311
#
# _framework density 23.388862
#
# number of rings (size 3 to 8) (size 9 to 14) (size 15 to 20)
#    0.000    2.000    3.333    1.333    0.000    4.444 
#    0.000    1.667    0.000    1.333    0.000    0.000 
#    0.000    0.000    0.000    0.000    0.000    0.000 
#
# Total GULP energy -200624.033297 kJ/mol
# GULP energy per Si atom -5572.889814 kJ/mol
# Density = 2.333563 g / cm^3
# Si number density = 23.388862 Si / 1000 Ang^3
#
#
#
# Elastic Constant Matrix: (Units=GPa)
#
#
# Indices 1 2 3 4 5 6 
#
# 1 113.0228 19.7738 -2.2485 0.0000 0.0000 0.0000
# 2 19.7738 253.7399 34.4230 0.0000 0.0000 0.0000
# 3 -2.2485 34.4230 25.1845 0.0000 0.0000 0.0000
# 4 0.0000 0.0000 0.0000 53.5058 0.0000 0.0000
# 5 0.0000 0.0000 0.0000 0.0000 8.2496 0.0000
# 6 0.0000 0.0000 0.0000 0.0000 0.0000 -5.3948
#
#
#
# Elastic Compliance Matrix: (Units=1/GPa)
#
#
# Indices 1 2 3 4 5 6 
#
# 1 0.009066 -0.001002 0.002179 0.000000 0.000000 0.000000
# 2 -0.001002 0.004949 -0.006854 0.000000 0.000000 0.000000
# 3 0.002179 -0.006854 0.049270 0.000000 0.000000 0.000000
# 4 0.000000 0.000000 0.000000 0.018690 0.000000 0.000000
# 5 0.000000 0.000000 0.000000 0.000000 0.121218 0.000000
# 6 0.000000 0.000000 0.000000 0.000000 0.000000 -0.185363
#
#
# Mechanical properties :
#
#
# Convention : Reuss Voigt Hill
#
# Bulk Modulus (GPa) = 19.25618 55.09376 37.17497
# Shear Modulus (GPa) = 107.54219 33.93872 70.74046
#
# Velocity S-wave (km/s) = 6.78822 3.81342 5.50554
# Velocity P-wave (km/s) = 8.34810 6.55715 7.50623
#
# Compressibility (1/GPa) = 0.05193138
#
# Stress axis : x y z
#
# Youngs Moduli (GPa) = 110.29662 202.06298 20.29653
#
# Poissons Ratio (x) = 0.20250 -0.04423
# Poissons Ratio (y) = 0.11054 0.13911
# Poissons Ratio (z) = -0.24037 1.38491
#
# Static dielectric constant tensor:
#      x y z
#    x 2.009090 0.000000 0.000000 
#    y 0.000000 1.895940 0.000000 
#    z 0.000000 0.000000 1.628990 
# 
# From -- ./inp_files/29220.got.cif
#   From: 2010.05.17/outbox.cif.g08.bks.cpg/sg74_15_cif.got.tgz:29220.got - 2010.06.03 17:57:02.
