data_PCOD9534984
_publ_section_title
;
Structure prediction by ZEFSAII (Michael W. Deem and Ramdas Pophale) SiO2 
 PCOD9534984
Probable space group: I M M A
;
_chemical_formula_sum "Si O2"
_cell_formula_units_Z 48
_cell_length_a 10.542722
_cell_length_b 14.734689
_cell_length_c 15.002738
_cell_angle_alpha 90.000000
_cell_angle_beta 90.000000
_cell_angle_gamma 90.000000
_cell_volume 2330.581279
_symmetry_space_group_name_H-M "I M M A"
_symmetry_group_IT_number 74
_symmetry_cell_setting 'orthorhombic'
loop_
_space_group_symop_operation_xyz
x,y,z
-x,1/2-y,z
x,-y,-z
-x,1/2+y,-z
-x,-y,-z
x,1/2+y,-z
-x,y,z
x,1/2-y,z
1/2+x,1/2+y,1/2+z
1/2-x,-y,1/2+z
1/2+x,1/2-y,1/2-z
1/2-x,y,1/2-z
1/2-x,1/2-y,1/2-z
1/2+x,y,1/2-z
1/2-x,1/2+y,1/2+z
1/2+x,-y,1/2+z
loop_
_atom_site_type_symbol
_atom_site_label
_atom_site_fract_x
_atom_site_fract_y
_atom_site_fract_z
Si Si1 0.000000 0.645746 0.687430
Si Si2 0.750000 0.592978 0.250000
Si Si3 0.000000 0.653168 0.163417
Si Si4 0.500000 0.446526 0.380316
Si Si5 0.779867 0.549287 0.590550
O O1 0.122446 0.622849 0.627531
O O2 0.000000 0.750000 0.715979
O O3 0.000000 0.582611 0.775864
O O4 0.625549 0.647953 0.276136
O O5 0.777352 0.527659 0.333348
O O6 0.000000 0.750000 0.113939
O O7 0.000000 0.556809 0.111667
O O8 0.635149 0.415004 0.418382
O O9 0.819701 0.500000 0.500000
#
# Coordination Sequence:
#
# PCOD9534984 Si02
#       5
#     8   8   8   8  16
#     4  12  23  41  67  94 130 173 216 265 320 381
#     4  10  19  38  57  86 116 160 201 248 323 362
#     4  10  18  32  58  85 112 154 194 241 305 370
#     4  10  21  41  62  91 122 171 211 256 322 373
#     4  11  21  40  65  89 126 166 213 263 317 381
#
# _framework density 20.595721000000001
#
# number of rings (size 3 to 8) (size 9 to 14) (size 15 to 20)
#    0.000    1.333    6.667    1.500    0.000    2.667 
#    0.000   10.000    0.000    8.000    0.000    0.000 
#    0.000    0.000    0.000    0.000    0.000    0.000 
#
# Total GULP energy -133949.731978 kJ/mol
# GULP energy per Si atom -5581.238832 kJ/mol
# Density = 2.054884 g / cm^3
# Si number density = 20.595721 Si / 1000 Ang^3
#
#
#
# Elastic Constant Matrix: (Units=GPa)
#
#
# Indices 1 2 3 4 5 6 
#
# 1 126.5311 28.7612 -16.8174 0.0000 0.0000 0.0000
# 2 28.7612 84.5214 16.6451 0.0000 0.0000 0.0000
# 3 -16.8174 16.6451 96.0940 0.0000 0.0000 0.0000
# 4 0.0000 0.0000 0.0000 1.4574 0.0000 0.0000
# 5 0.0000 0.0000 0.0000 0.0000 18.2906 0.0000
# 6 0.0000 0.0000 0.0000 0.0000 0.0000 -108.8510
#
#
#
# Elastic Compliance Matrix: (Units=1/GPa)
#
#
# Indices 1 2 3 4 5 6 
#
# 1 0.008985 -0.003486 0.002176 0.000000 0.000000 0.000000
# 2 -0.003486 0.013602 -0.002966 0.000000 0.000000 0.000000
# 3 0.002176 -0.002966 0.011301 0.000000 0.000000 0.000000
# 4 0.000000 0.000000 0.000000 0.686140 0.000000 0.000000
# 5 0.000000 0.000000 0.000000 0.000000 0.054673 0.000000
# 6 0.000000 0.000000 0.000000 0.000000 0.000000 -0.009187
#
#
# Mechanical properties :
#
#
# Convention : Reuss Voigt Hill
#
# Bulk Modulus (GPa) = 39.46957 40.48048 39.97502
# Shear Modulus (GPa) = 6.38969 0.74990 3.56980
#
# Velocity S-wave (km/s) = 1.76328 0.60407 1.31797
# Velocity P-wave (km/s) = 4.83230 4.49266 4.66557
#
# Compressibility (1/GPa) = 0.02533598
#
# Stress axis : x y z
#
# Youngs Moduli (GPa) = 111.29873 73.52042 88.48677
#
# Poissons Ratio (x) = 0.25629 -0.19257
# Poissons Ratio (y) = 0.38798 0.26246
# Poissons Ratio (z) = -0.24222 0.21807
#
# Static dielectric constant tensor:
#      x y z
#    x 1.788200 0.000000 0.000000 
#    y 0.000000 1.711830 0.000000 
#    z 0.000000 0.000000 1.707090 
# 
# From -- ./inp_files/28288.got.cif
#   From: 2010.05.17/outbox.cif.g08.bks.cpg/sg74_15_cif.got.tgz:28288.got - 2010.06.03 17:57:02.
