data_PCOD9534875
_publ_section_title
;
Structure prediction by ZEFSAII (Michael W. Deem and Ramdas Pophale) SiO2 
 PCOD9534875
Probable space group: I M M A
;
_chemical_formula_sum "Si O2"
_cell_formula_units_Z 72
_cell_length_a 8.703500
_cell_length_b 16.646085
_cell_length_c 28.743061
_cell_angle_alpha 90.000000
_cell_angle_beta 90.000000
_cell_angle_gamma 90.000000
_cell_volume 4164.271706
_symmetry_space_group_name_H-M "I M M A"
_symmetry_group_IT_number 74
_symmetry_cell_setting 'orthorhombic'
loop_
_space_group_symop_operation_xyz
x,y,z
-x,1/2-y,z
x,-y,-z
-x,1/2+y,-z
-x,-y,-z
x,1/2+y,-z
-x,y,z
x,1/2-y,z
1/2+x,1/2+y,1/2+z
1/2-x,-y,1/2+z
1/2+x,1/2-y,1/2-z
1/2-x,y,1/2-z
1/2-x,1/2-y,1/2-z
1/2+x,y,1/2-z
1/2-x,1/2+y,1/2+z
1/2+x,-y,1/2+z
loop_
_atom_site_type_symbol
_atom_site_label
_atom_site_fract_x
_atom_site_fract_y
_atom_site_fract_z
Si Si1 0.324809 0.413555 0.526030
Si Si2 0.815929 0.250000 0.802568
Si Si3 0.683274 0.917440 0.197989
Si Si4 0.182535 0.159023 0.438460
Si Si5 0.815293 0.506834 0.885494
O O1 0.330671 0.500000 0.500000
O O2 0.500000 0.382994 0.528766
O O3 0.226187 0.358239 0.492269
O O4 0.267904 0.437747 0.577124
O O5 0.750000 0.250000 0.750000
O O6 0.752371 0.166334 0.821941
O O7 0.000000 0.250000 0.802469
O O8 0.500000 0.911807 0.200598
O O9 0.750000 0.928510 0.250000
O O10 0.737960 0.986978 0.163395
O O11 0.227505 0.250000 0.426378
O O12 0.264923 0.091824 0.407191
O O13 0.000000 0.150313 0.432953
O O14 0.000000 0.504324 0.882133
#
# Coordination Sequence:
#
# PCOD9534875 Si02
#       5
#    16   8  16  16  16
#     4   8  16  31  50  71  97 130 168 210 256 306
#     4  10  18  32  52  74 102 134 170 210 254 304
#     4  11  21  35  55  79 107 140 176 217 263 313
#     4  10  20  33  51  77 107 139 175 217 263 314
#     4  10  20  35  54  77 104 138 179 220 262 313
#
# _framework density 17.289939
#
# number of rings (size 3 to 8) (size 9 to 14) (size 15 to 20)
#    0.000    2.222    0.000    7.000    0.000    6.667 
#    2.000    0.000    0.000    0.667    0.000    0.000 
#    0.000    0.000    0.000    0.000    0.000    0.000 
#
# Total GULP energy -200699.115921 kJ/mol
# GULP energy per Si atom -5574.975442 kJ/mol
# Density = 1.725059 g / cm^3
# Si number density = 17.289939 Si / 1000 Ang^3
#
#
#
# Elastic Constant Matrix: (Units=GPa)
#
#
# Indices 1 2 3 4 5 6 
#
# 1 106.9379 45.8605 40.3073 0.0000 0.0000 0.0000
# 2 45.8605 86.0559 43.9331 0.0000 0.0000 0.0000
# 3 40.3073 43.9331 94.2896 0.0000 0.0000 0.0000
# 4 0.0000 0.0000 0.0000 21.8570 0.0000 0.0000
# 5 0.0000 0.0000 0.0000 0.0000 24.6062 0.0000
# 6 0.0000 0.0000 0.0000 0.0000 0.0000 15.7792
#
#
#
# Elastic Compliance Matrix: (Units=1/GPa)
#
#
# Indices 1 2 3 4 5 6 
#
# 1 0.012735 -0.005258 -0.002994 0.000000 0.000000 0.000000
# 2 -0.005258 0.017418 -0.005868 0.000000 0.000000 0.000000
# 3 -0.002994 -0.005868 0.014620 0.000000 0.000000 0.000000
# 4 0.000000 0.000000 0.000000 0.045752 0.000000 0.000000
# 5 0.000000 0.000000 0.000000 0.000000 0.040640 0.000000
# 6 0.000000 0.000000 0.000000 0.000000 0.000000 0.063375
#
#
# Mechanical properties :
#
#
# Convention : Reuss Voigt Hill
#
# Bulk Modulus (GPa) = 60.48733 60.83170 60.65952
# Shear Modulus (GPa) = 21.90198 22.92732 22.41465
#
# Velocity S-wave (km/s) = 3.56300 3.64545 3.60446
# Velocity P-wave (km/s) = 7.21018 7.27865 7.24449
#
# Compressibility (1/GPa) = 0.01653239
#
# Stress axis : x y z
#
# Youngs Moduli (GPa) = 78.52609 57.41126 68.40109
#
# Poissons Ratio (x) = 0.30187 0.20479
# Poissons Ratio (y) = 0.41289 0.40138
# Poissons Ratio (z) = 0.23510 0.33689
#
# Static dielectric constant tensor:
#      x y z
#    x 1.578390 0.000000 0.000000 
#    y 0.000000 1.603540 0.000000 
#    z 0.000000 0.000000 1.664440 
# 
# From -- ./inp_files/63837.got.cif
#   From: 2010.05.17/outbox.cif.g08.bks.cpg/sg74_32_cif.got.tgz:63837.got - 2010.06.03 17:57:02.
