data_PCOD9534018
_publ_section_title
;
Structure prediction by ZEFSAII (Michael W. Deem and Ramdas Pophale) SiO2 
 PCOD9534018
Probable space group: I M M A
;
_chemical_formula_sum "Si O2"
_cell_formula_units_Z 96
_cell_length_a 10.700771
_cell_length_b 15.024449
_cell_length_c 26.169180
_cell_angle_alpha 90.000000
_cell_angle_beta 90.000000
_cell_angle_gamma 90.000000
_cell_volume 4207.302500
_symmetry_space_group_name_H-M "I M M A"
_symmetry_group_IT_number 74
_symmetry_cell_setting 'orthorhombic'
loop_
_space_group_symop_operation_xyz
x,y,z
-x,1/2-y,z
x,-y,-z
-x,1/2+y,-z
-x,-y,-z
x,1/2+y,-z
-x,y,z
x,1/2-y,z
1/2+x,1/2+y,1/2+z
1/2-x,-y,1/2+z
1/2+x,1/2-y,1/2-z
1/2-x,y,1/2-z
1/2-x,1/2-y,1/2-z
1/2+x,y,1/2-z
1/2-x,1/2+y,1/2+z
1/2+x,-y,1/2+z
loop_
_atom_site_type_symbol
_atom_site_label
_atom_site_fract_x
_atom_site_fract_y
_atom_site_fract_z
Si Si1 0.643312 0.601457 0.504440
Si Si2 0.638671 0.604368 0.713591
Si Si3 0.851606 0.887018 0.206931
Si Si4 0.500000 0.350659 0.082870
Si Si5 0.000000 0.093290 0.532059
Si Si6 0.266729 0.398555 0.393204
Si Si7 0.758393 0.395543 0.903868
O O1 0.697367 0.500000 0.500000
O O2 0.500000 0.592251 0.517388
O O3 0.704403 0.646744 0.552914
O O4 0.661400 0.644917 0.449856
O O5 0.500000 0.629645 0.730532
O O6 0.750000 0.633953 0.750000
O O7 0.644174 0.495701 0.711018
O O8 0.667017 0.637784 0.656465
O O9 0.750000 0.858625 0.250000
O O10 0.790162 0.859740 0.152258
O O11 0.000000 0.859717 0.211380
O O12 0.500000 0.250000 0.100404
O O13 0.381494 0.397869 0.107786
O O14 0.500000 0.348884 0.020374
O O15 0.880286 0.105287 0.569794
O O16 0.000000 0.000000 0.500000
O O17 0.303560 0.501945 0.397900
#
# Coordination Sequence:
#
# PCOD9534018 Si02
#       7
#    16  16  16   8   8  16  16
#     4   9  15  24  43  71  97 126 164 213 263 309
#     4   9  18  30  47  74 102 134 180 226 275 323
#     4   9  18  29  41  69 113 152 175 211 273 325
#     4  12  24  36  52  78 110 140 176 225 277 331
#     4  12  18  34  52  82 104 136 184 215 273 326
#     4  10  18  31  48  71 101 135 173 218 266 319
#     4  10  17  27  49  72 104 135 179 219 253 317
#
# _framework density 22.817468999999999
#
# number of rings (size 3 to 8) (size 9 to 14) (size 15 to 20)
#    0.000    2.167    3.333    1.500    2.333    4.000 
#    0.000    0.000    0.000    2.500    0.000    0.000 
#    0.000    0.667    0.000    0.000    0.000    0.167 
#
# Total GULP energy -267323.795622 kJ/mol
# GULP energy per Si atom -5569.245742 kJ/mol
# Density = 2.276554 g / cm^3
# Si number density = 22.817469 Si / 1000 Ang^3
#
#
#
# Elastic Constant Matrix: (Units=GPa)
#
#
# Indices 1 2 3 4 5 6 
#
# 1 160.9875 -12.3028 71.1042 0.0000 0.0000 0.0000
# 2 -12.3028 61.4721 3.0258 0.0000 0.0000 0.0000
# 3 71.1042 3.0258 149.2190 0.0000 0.0000 0.0000
# 4 0.0000 0.0000 0.0000 -12.0764 0.0000 0.0000
# 5 0.0000 0.0000 0.0000 0.0000 44.3194 0.0000
# 6 0.0000 0.0000 0.0000 0.0000 0.0000 -36.6651
#
#
#
# Elastic Compliance Matrix: (Units=1/GPa)
#
#
# Indices 1 2 3 4 5 6 
#
# 1 0.008063 0.001805 -0.003878 0.000000 0.000000 0.000000
# 2 0.001805 0.016688 -0.001198 0.000000 0.000000 0.000000
# 3 -0.003878 -0.001198 0.008574 0.000000 0.000000 0.000000
# 4 0.000000 0.000000 0.000000 -0.082806 0.000000 0.000000
# 5 0.000000 0.000000 0.000000 0.000000 0.022564 0.000000
# 6 0.000000 0.000000 0.000000 0.000000 0.000000 -0.027274
#
#
# Mechanical properties :
#
#
# Convention : Reuss Voigt Hill
#
# Bulk Modulus (GPa) = 37.34154 55.03700 46.18927
# Shear Modulus (GPa) = -129.12806 19.77233 -54.67786
#
# Velocity S-wave (km/s) = -7.53091 2.94690 -4.90053
# Velocity P-wave (km/s) = 7.69536 5.97929 3.42540
#
# Compressibility (1/GPa) = 0.02677983
#
# Stress axis : x y z
#
# Youngs Moduli (GPa) = 124.02948 59.92445 116.63177
#
# Poissons Ratio (x) = -0.10814 0.45236
# Poissons Ratio (y) = -0.22381 0.13975
# Poissons Ratio (z) = 0.48105 0.07180
#
# Static dielectric constant tensor:
#      x y z
#    x 1.858330 0.000000 0.000000 
#    y 0.000000 1.900880 0.000000 
#    z 0.000000 0.000000 1.883160 
# 
# From -- ./inp_files/58892.got.cif
#   From: 2010.05.17/outbox.cif.g08.bks.cpg/sg74_30_cif.got.tgz:58892.got - 2010.06.03 17:57:02.
