data_PCOD9534341
_publ_section_title
;
Structure prediction by ZEFSAII (Michael W. Deem and Ramdas Pophale) SiO2 
 PCOD9534341
Probable space group: I M M A
;
_chemical_formula_sum "Si O2"
_cell_formula_units_Z 112
_cell_length_a 23.564550
_cell_length_b 16.642481
_cell_length_c 15.198673
_cell_angle_alpha 90.000000
_cell_angle_beta 90.000000
_cell_angle_gamma 90.000000
_cell_volume 5960.502737
_symmetry_space_group_name_H-M "I M M A"
_symmetry_group_IT_number 74
_symmetry_cell_setting 'orthorhombic'
loop_
_space_group_symop_operation_xyz
x,y,z
-x,1/2-y,z
x,-y,-z
-x,1/2+y,-z
-x,-y,-z
x,1/2+y,-z
-x,y,z
x,1/2-y,z
1/2+x,1/2+y,1/2+z
1/2-x,-y,1/2+z
1/2+x,1/2-y,1/2-z
1/2-x,y,1/2-z
1/2-x,1/2-y,1/2-z
1/2+x,y,1/2-z
1/2-x,1/2+y,1/2+z
1/2+x,-y,1/2+z
loop_
_atom_site_type_symbol
_atom_site_label
_atom_site_fract_x
_atom_site_fract_y
_atom_site_fract_z
Si Si1 0.566052 0.346806 0.611611
Si Si2 0.066167 0.579269 0.303116
Si Si3 0.370801 0.426533 0.125002
Si Si4 0.566559 0.161156 0.980627
Si Si5 0.634065 0.347729 0.441355
Si Si6 0.063398 0.845569 0.776971
Si Si7 0.244644 0.344670 0.356264
O O1 0.500000 0.361640 0.585006
O O2 0.571180 0.250000 0.622892
O O3 0.576058 0.389398 0.704931
O O4 0.610040 0.373444 0.535983
O O5 0.109304 0.510491 0.334002
O O6 0.071501 0.648487 0.376441
O O7 0.000000 0.551890 0.309234
O O8 0.397094 0.364011 0.195000
O O9 0.305118 0.405210 0.117205
O O10 0.400621 0.407005 0.033029
O O11 0.500000 0.155712 0.003727
O O12 0.587068 0.250000 0.005714
O O13 0.631172 0.250000 0.442098
O O14 0.591420 0.378156 0.365783
O O15 0.697314 0.366102 0.407413
O O16 0.060074 0.750000 0.786396
O O17 0.000000 0.876917 0.763412
O O18 0.231692 0.250000 0.375485
O O19 0.250000 0.349930 0.250000
#
# Coordination Sequence:
#
# PCOD9534341 Si02
#       7
#    16  16  16  16  16  16  16
#     4   9  17  33  59  87 113 147 190 231 276 337
#     4  10  21  36  55  81 116 151 182 225 284 344
#     4  12  21  32  53  79 112 147 181 225 282 340
#     4  10  20  35  57  84 110 140 182 229 277 336
#     4   9  17  31  54  81 108 143 188 235 275 320
#     4  10  18  28  47  78 110 138 173 222 277 333
#     4  10  19  34  56  79 105 145 191 232 277 329
#
# _framework density 18.790361999999998
#
# number of rings (size 3 to 8) (size 9 to 14) (size 15 to 20)
#    0.000    2.000    1.429    3.857    0.000    5.714 
#    0.000    0.714    6.286    2.571    0.000    4.000 
#    0.000    0.000    0.000    0.000    0.000    0.000 
#
# Total GULP energy -312379.551865 kJ/mol
# GULP energy per Si atom -5578.206283 kJ/mol
# Density = 1.874759 g / cm^3
# Si number density = 18.790362 Si / 1000 Ang^3
#
#
#
# Elastic Constant Matrix: (Units=GPa)
#
#
# Indices 1 2 3 4 5 6 
#
# 1 68.0026 29.2304 45.7579 0.0000 0.0000 0.0000
# 2 29.2304 49.0235 20.7169 0.0000 0.0000 0.0000
# 3 45.7579 20.7169 115.1727 0.0000 0.0000 0.0000
# 4 0.0000 0.0000 0.0000 2.5106 0.0000 0.0000
# 5 0.0000 0.0000 0.0000 0.0000 150.6183 0.0000
# 6 0.0000 0.0000 0.0000 0.0000 0.0000 30.7026
#
#
#
# Elastic Compliance Matrix: (Units=1/GPa)
#
#
# Indices 1 2 3 4 5 6 
#
# 1 0.024945 -0.011565 -0.007831 0.000000 0.000000 0.000000
# 2 -0.011565 0.027438 -0.000341 0.000000 0.000000 0.000000
# 3 -0.007831 -0.000341 0.011855 0.000000 0.000000 0.000000
# 4 0.000000 0.000000 0.000000 0.398317 0.000000 0.000000
# 5 0.000000 0.000000 0.000000 0.000000 0.006639 0.000000
# 6 0.000000 0.000000 0.000000 0.000000 0.000000 0.032571
#
#
# Mechanical properties :
#
#
# Convention : Reuss Voigt Hill
#
# Bulk Modulus (GPa) = 40.37763 47.06771 43.72267
# Shear Modulus (GPa) = 9.09931 45.86584 27.48258
#
# Velocity S-wave (km/s) = 2.20296 4.94593 3.82853
# Velocity P-wave (km/s) = 5.29206 7.59734 6.54696
#
# Compressibility (1/GPa) = 0.02476619
#
# Stress axis : x y z
#
# Youngs Moduli (GPa) = 40.08763 36.44601 84.35269
#
# Poissons Ratio (x) = 0.42148 0.66053
# Poissons Ratio (y) = 0.46360 0.02875
# Poissons Ratio (z) = 0.31391 0.01242
#
# Static dielectric constant tensor:
#      x y z
#    x 1.643870 0.000000 0.000000 
#    y 0.000000 1.688480 0.000000 
#    z 0.000000 0.000000 1.652780 
# 
# From -- ./inp_files/36494.got.cif
#   From: 2010.05.17/outbox.cif.g08.bks.cpg/sg74_19_cif.got.tgz:36494.got - 2010.06.03 17:57:02.
