data_PCOD9534760
_publ_section_title
;
Structure prediction by ZEFSAII (Michael W. Deem and Ramdas Pophale) SiO2 
 PCOD9534760
Probable space group: I M M A
;
_chemical_formula_sum "Si O2"
_cell_formula_units_Z 96
_cell_length_a 25.759427
_cell_length_b 23.866976
_cell_length_c 7.059692
_cell_angle_alpha 90.000000
_cell_angle_beta 90.000000
_cell_angle_gamma 90.000000
_cell_volume 4340.296001
_symmetry_space_group_name_H-M "I M M A"
_symmetry_group_IT_number 74
_symmetry_cell_setting 'orthorhombic'
loop_
_space_group_symop_operation_xyz
x,y,z
-x,1/2-y,z
x,-y,-z
-x,1/2+y,-z
-x,-y,-z
x,1/2+y,-z
-x,y,z
x,1/2-y,z
1/2+x,1/2+y,1/2+z
1/2-x,-y,1/2+z
1/2+x,1/2-y,1/2-z
1/2-x,y,1/2-z
1/2-x,1/2-y,1/2-z
1/2+x,y,1/2-z
1/2-x,1/2+y,1/2+z
1/2+x,-y,1/2+z
loop_
_atom_site_type_symbol
_atom_site_label
_atom_site_fract_x
_atom_site_fract_y
_atom_site_fract_z
Si Si1 0.108239 0.380213 0.882263
Si Si2 0.500000 0.814451 0.867062
Si Si3 0.319346 0.184906 0.072801
Si Si4 0.204879 0.813940 0.026745
Si Si5 0.500000 0.185357 0.680019
Si Si6 0.441351 0.987235 0.271261
Si Si7 0.904397 0.394414 0.312503
O O1 0.054156 0.344978 0.875482
O O2 0.097326 0.435049 0.758039
O O3 0.160626 0.345243 0.854668
O O4 0.116567 0.399720 0.099023
O O5 0.500000 0.750000 0.804378
O O6 0.450858 0.849906 0.803327
O O7 0.500000 0.814372 0.093307
O O8 0.334013 0.250000 0.025038
O O9 0.265139 0.168621 0.973652
O O10 0.309278 0.186269 0.301600
O O11 0.362961 0.137230 0.055891
O O12 0.203647 0.750000 0.089242
O O13 0.500000 0.250000 0.615840
O O14 0.500000 0.969888 0.220848
O O15 0.443287 0.000000 0.500000
O O16 0.425830 0.043037 0.157360
#
# Coordination Sequence:
#
# PCOD9534760 Si02
#       7
#    16   8  16  16   8  16  16
#     4  10  18  31  52  74 101 137 179 218 262 321
#     4  11  23  34  45  70 108 141 170 219 278 323
#     4   8  14  25  44  74 104 126 163 219 267 313
#     4   8  14  25  44  74 105 128 161 214 270 314
#     4  11  23  34  45  70 108 141 172 221 274 323
#     4   9  16  28  46  74 106 129 172 222 259 306
#     4  10  18  31  52  74 101 137 176 220 268 319
#
# _framework density 22.118307000000001
#
# number of rings (size 3 to 8) (size 9 to 14) (size 15 to 20)
#    0.000    2.667    1.667    2.500    0.000    2.667 
#    0.000    1.667    0.000    1.000    0.000   30.333 
#    0.000    0.000    0.000    0.000    0.000    0.000 
#
# Total GULP energy -267947.700965 kJ/mol
# GULP energy per Si atom -5582.243770 kJ/mol
# Density = 2.206797 g / cm^3
# Si number density = 22.118307 Si / 1000 Ang^3
#
#
#
# Elastic Constant Matrix: (Units=GPa)
#
#
# Indices 1 2 3 4 5 6 
#
# 1 159.9572 103.4721 19.7564 0.0000 0.0000 0.0000
# 2 103.4721 167.7073 18.4284 0.0000 0.0000 0.0000
# 3 19.7564 18.4284 88.1936 0.0000 0.0000 0.0000
# 4 0.0000 0.0000 0.0000 32.4443 0.0000 0.0000
# 5 0.0000 0.0000 0.0000 0.0000 27.6846 0.0000
# 6 0.0000 0.0000 0.0000 0.0000 0.0000 -2.7417
#
#
#
# Elastic Compliance Matrix: (Units=1/GPa)
#
#
# Indices 1 2 3 4 5 6 
#
# 1 0.010493 -0.006362 -0.001021 0.000000 0.000000 0.000000
# 2 -0.006362 0.009960 -0.000656 0.000000 0.000000 0.000000
# 3 -0.001021 -0.000656 0.011705 0.000000 0.000000 0.000000
# 4 0.000000 0.000000 0.000000 0.030822 0.000000 0.000000
# 5 0.000000 0.000000 0.000000 0.000000 0.036121 0.000000
# 6 0.000000 0.000000 0.000000 0.000000 0.000000 -0.364738
#
#
# Mechanical properties :
#
#
# Convention : Reuss Voigt Hill
#
# Bulk Modulus (GPa) = 62.19145 77.68577 69.93861
# Shear Modulus (GPa) = -20.47513 29.75752 4.64120
#
# Velocity S-wave (km/s) = -3.04585 3.67192 1.45014
# Velocity P-wave (km/s) = 3.97606 7.29222 5.87305
#
# Compressibility (1/GPa) = 0.01607938
#
# Stress axis : x y z
#
# Youngs Moduli (GPa) = 95.30070 100.40186 85.43685
#
# Poissons Ratio (x) = 0.63874 0.08725
# Poissons Ratio (y) = 0.60629 0.05605
# Poissons Ratio (z) = 0.09733 0.06587
#
# Static dielectric constant tensor:
#      x y z
#    x 1.809440 0.000000 0.000000 
#    y 0.000000 1.797790 0.000000 
#    z 0.000000 0.000000 1.928400 
# 
# From -- ./inp_files/13956.got.cif
#   From: 2010.05.17/outbox.cif.g08.bks.cpg/sg74_7_cif.got.tgz:13956.got - 2010.06.03 17:57:02.
