data_PCOD9534849
_publ_section_title
;
Structure prediction by ZEFSAII (Michael W. Deem and Ramdas Pophale) SiO2 
 PCOD9534849
Probable space group: I M M A
;
_chemical_formula_sum "Si O2"
_cell_formula_units_Z 96
_cell_length_a 8.805447
_cell_length_b 22.329814
_cell_length_c 27.965774
_cell_angle_alpha 90.000000
_cell_angle_beta 90.000000
_cell_angle_gamma 90.000000
_cell_volume 5498.742171
_symmetry_space_group_name_H-M "I M M A"
_symmetry_group_IT_number 74
_symmetry_cell_setting 'orthorhombic'
loop_
_space_group_symop_operation_xyz
x,y,z
-x,1/2-y,z
x,-y,-z
-x,1/2+y,-z
-x,-y,-z
x,1/2+y,-z
-x,y,z
x,1/2-y,z
1/2+x,1/2+y,1/2+z
1/2-x,-y,1/2+z
1/2+x,1/2-y,1/2-z
1/2-x,y,1/2-z
1/2-x,1/2-y,1/2-z
1/2+x,y,1/2-z
1/2-x,1/2+y,1/2+z
1/2+x,-y,1/2+z
loop_
_atom_site_type_symbol
_atom_site_label
_atom_site_fract_x
_atom_site_fract_y
_atom_site_fract_z
Si Si1 0.318879 0.750000 0.026661
Si Si2 0.177910 0.563916 0.606815
Si Si3 0.176553 0.436797 0.554756
Si Si4 0.317847 0.250000 0.633690
Si Si5 0.681531 0.496908 0.301401
Si Si6 0.182636 0.119226 0.852183
Si Si7 0.678958 0.134958 0.474449
O O1 0.500000 0.750000 0.028960
O O2 0.260002 0.692006 0.998108
O O3 0.253776 0.750000 0.080674
O O4 0.190528 0.504060 0.574111
O O5 0.253653 0.545425 0.656831
O O6 0.257677 0.616540 0.577307
O O7 0.000000 0.576413 0.613416
O O8 0.230100 0.395965 0.598957
O O9 0.280162 0.419340 0.510400
O O10 0.000000 0.425951 0.542359
O O11 0.500000 0.250000 0.627085
O O12 0.279140 0.187827 0.660114
O O13 0.500000 0.492435 0.300453
O O14 0.750000 0.482697 0.250000
O O15 0.721858 0.565843 0.315786
O O16 0.000000 0.115327 0.860455
O O17 0.500000 0.144786 0.472878
#
# Coordination Sequence:
#
# PCOD9534849 Si02
#       7
#     8  16  16   8  16  16  16
#     4  12  24  36  52  75 106 147 187 223 259 305
#     4  10  21  36  54  78 106 137 174 221 270 319
#     4  10  19  31  49  74 106 140 176 218 263 310
#     4  10  18  32  51  73 101 141 185 225 265 313
#     4  10  20  36  56  79 104 136 174 223 280 331
#     4   9  18  31  50  73 102 138 181 225 269 317
#     4  12  23  35  51  75 108 144 180 216 259 315
#
# _framework density 17.458538999999998
#
# number of rings (size 3 to 8) (size 9 to 14) (size 15 to 20)
#    0.000    1.667    1.667    4.250    0.000    4.667 
#    0.000    0.417    0.000    0.000    0.000    0.583 
#    0.000    0.000    0.000    0.000    0.000    0.000 
#
# Total GULP energy -267972.744601 kJ/mol
# GULP energy per Si atom -5582.765513 kJ/mol
# Density = 1.741880 g / cm^3
# Si number density = 17.458539 Si / 1000 Ang^3
#
#
#
# Elastic Constant Matrix: (Units=GPa)
#
#
# Indices 1 2 3 4 5 6 
#
# 1 60.7050 7.2908 29.6893 0.0000 0.0000 0.0000
# 2 7.2908 17.7627 13.5612 0.0000 0.0000 0.0000
# 3 29.6893 13.5612 88.4963 0.0000 0.0000 0.0000
# 4 0.0000 0.0000 0.0000 12.6772 0.0000 0.0000
# 5 0.0000 0.0000 0.0000 0.0000 27.5843 0.0000
# 6 0.0000 0.0000 0.0000 0.0000 0.0000 19.8254
#
#
#
# Elastic Compliance Matrix: (Units=1/GPa)
#
#
# Indices 1 2 3 4 5 6 
#
# 1 0.019894 -0.003477 -0.006141 0.000000 0.000000 0.000000
# 2 -0.003477 0.064364 -0.008697 0.000000 0.000000 0.000000
# 3 -0.006141 -0.008697 0.014693 0.000000 0.000000 0.000000
# 4 0.000000 0.000000 0.000000 0.078882 0.000000 0.000000
# 5 0.000000 0.000000 0.000000 0.000000 0.036253 0.000000
# 6 0.000000 0.000000 0.000000 0.000000 0.000000 0.050440
#
#
# Mechanical properties :
#
#
# Convention : Reuss Voigt Hill
#
# Bulk Modulus (GPa) = 16.04585 29.78294 22.91440
# Shear Modulus (GPa) = 15.53130 19.77889 17.65509
#
# Velocity S-wave (km/s) = 2.98587 3.36952 3.18348
# Velocity P-wave (km/s) = 4.59326 5.67754 5.16394
#
# Compressibility (1/GPa) = 0.06232142
#
# Stress axis : x y z
#
# Youngs Moduli (GPa) = 50.26564 15.53655 68.05978
#
# Poissons Ratio (x) = 0.05402 0.41799
# Poissons Ratio (y) = 0.17477 0.59190
# Poissons Ratio (z) = 0.30870 0.13512
#
# Static dielectric constant tensor:
#      x y z
#    x 1.579720 0.000000 0.000000 
#    y 0.000000 1.627700 0.000000 
#    z 0.000000 0.000000 1.572490 
# 
# From -- ./inp_files/57329.got.cif
#   From: 2010.05.17/outbox.cif.g08.bks.cpg/sg74_29_cif.got.tgz:57329.got - 2010.06.03 17:57:02.
