data_PCOD9534630
_publ_section_title
;
Structure prediction by ZEFSAII (Michael W. Deem and Ramdas Pophale) SiO2 
 PCOD9534630
Probable space group: I M M A
;
_chemical_formula_sum "Si O2"
_cell_formula_units_Z 88
_cell_length_a 19.758046
_cell_length_b 20.660122
_cell_length_c 12.068477
_cell_angle_alpha 90.000000
_cell_angle_beta 90.000000
_cell_angle_gamma 90.000000
_cell_volume 4926.396251
_symmetry_space_group_name_H-M "I M M A"
_symmetry_group_IT_number 74
_symmetry_cell_setting 'orthorhombic'
loop_
_space_group_symop_operation_xyz
x,y,z
-x,1/2-y,z
x,-y,-z
-x,1/2+y,-z
-x,-y,-z
x,1/2+y,-z
-x,y,z
x,1/2-y,z
1/2+x,1/2+y,1/2+z
1/2-x,-y,1/2+z
1/2+x,1/2-y,1/2-z
1/2-x,y,1/2-z
1/2-x,1/2-y,1/2-z
1/2+x,y,1/2-z
1/2-x,1/2+y,1/2+z
1/2+x,-y,1/2+z
loop_
_atom_site_type_symbol
_atom_site_label
_atom_site_fract_x
_atom_site_fract_y
_atom_site_fract_z
Si Si1 0.854596 0.042933 0.288142
Si Si2 0.627374 0.322523 0.308760
Si Si3 0.692602 0.084119 0.662100
Si Si4 0.578637 0.326434 0.562803
Si Si5 0.229171 0.000000 0.500000
Si Si6 0.500000 0.317519 0.142530
Si Si7 0.000000 0.045314 0.393771
O O1 0.836421 0.111786 0.232106
O O2 0.933634 0.038355 0.318838
O O3 0.836087 0.982814 0.211277
O O4 0.815391 0.030030 0.402018
O O5 0.659973 0.250000 0.305370
O O6 0.599601 0.332650 0.433167
O O7 0.564266 0.319092 0.223836
O O8 0.750000 0.107647 0.750000
O O9 0.632489 0.133389 0.634753
O O10 0.728400 0.059323 0.550438
O O11 0.500000 0.347018 0.576238
O O12 0.582515 0.250000 0.589274
O O13 0.500000 0.250000 0.079396
O O14 0.500000 0.380098 0.066901
O O15 0.000000 0.000000 0.500000
#
# Coordination Sequence:
#
# PCOD9534630 Si02
#       7
#    16  16  16  16   8   8   8
#     4  10  20  34  55  80 112 145 184 227 276 325
#     4   9  16  30  52  82 112 137 170 222 280 328
#     4  10  22  37  56  78 108 149 185 228 274 331
#     4  10  20  36  58  83 111 142 182 234 284 327
#     4  10  20  39  53  74 114 152 182 222 274 326
#     4   8  14  26  45  71 109 139 163 208 278 327
#     4  10  18  30  51  81 105 139 181 231 274 327
#
# _framework density 17.862956000000001
#
# number of rings (size 3 to 8) (size 9 to 14) (size 15 to 20)
#    0.000    2.364    1.818    1.091    1.273    0.364 
#    0.000    2.273    0.000    9.273    0.000    0.000 
#    0.000    0.000    0.000    0.000    0.000    0.000 
#
# Total GULP energy -245096.968368 kJ/mol
# GULP energy per Si atom -5570.385645 kJ/mol
# Density = 1.782230 g / cm^3
# Si number density = 17.862956 Si / 1000 Ang^3
#
#
#
# Elastic Constant Matrix: (Units=GPa)
#
#
# Indices 1 2 3 4 5 6 
#
# 1 101.0294 59.0006 38.0127 0.0000 0.0000 0.0000
# 2 59.0006 139.2198 61.7606 0.0000 0.0000 0.0000
# 3 38.0127 61.7606 63.6696 0.0000 0.0000 0.0000
# 4 0.0000 0.0000 0.0000 25.6740 0.0000 0.0000
# 5 0.0000 0.0000 0.0000 0.0000 10.1293 0.0000
# 6 0.0000 0.0000 0.0000 0.0000 0.0000 -3.7860
#
#
#
# Elastic Compliance Matrix: (Units=1/GPa)
#
#
# Indices 1 2 3 4 5 6 
#
# 1 0.013858 -0.003866 -0.004523 0.000000 0.000000 0.000000
# 2 -0.003866 0.013687 -0.010969 0.000000 0.000000 0.000000
# 3 -0.004523 -0.010969 0.029046 0.000000 0.000000 0.000000
# 4 0.000000 0.000000 0.000000 0.038950 0.000000 0.000000
# 5 0.000000 0.000000 0.000000 0.000000 0.098723 0.000000
# 6 0.000000 0.000000 0.000000 0.000000 0.000000 -0.264132
#
#
# Mechanical properties :
#
#
# Convention : Reuss Voigt Hill
#
# Bulk Modulus (GPa) = 55.94326 69.05185 62.49756
# Shear Modulus (GPa) = -198.46870 16.07979 -91.19446
#
# Velocity S-wave (km/s) = -10.55213 3.00355 -7.15284
# Velocity P-wave (km/s) = 10.82023 7.12522 5.75798
#
# Compressibility (1/GPa) = 0.01787526
#
# Stress axis : x y z
#
# Youngs Moduli (GPa) = 72.16103 73.06053 34.42784
#
# Poissons Ratio (x) = 0.28248 0.15572
# Poissons Ratio (y) = 0.27900 0.37762
# Poissons Ratio (z) = 0.32640 0.80137
#
# Static dielectric constant tensor:
#      x y z
#    x 1.640980 0.000000 0.000000 
#    y 0.000000 1.641030 0.000000 
#    z 0.000000 0.000000 1.598340 
# 
# From -- ./inp_files/22226.got.cif
#   From: 2010.05.17/outbox.cif.g08.bks.cpg/sg74_12_cif.got.tgz:22226.got - 2010.06.03 17:57:02.
