data_PCOD9534249
_publ_section_title
;
Structure prediction by ZEFSAII (Michael W. Deem and Ramdas Pophale) SiO2 
 PCOD9534249
Probable space group: I M M A
;
_chemical_formula_sum "Si O2"
_cell_formula_units_Z 72
_cell_length_a 8.875829
_cell_length_b 32.562815
_cell_length_c 18.737326
_cell_angle_alpha 90.000000
_cell_angle_beta 90.000000
_cell_angle_gamma 90.000000
_cell_volume 5415.499017
_symmetry_space_group_name_H-M "I M M A"
_symmetry_group_IT_number 74
_symmetry_cell_setting 'orthorhombic'
loop_
_space_group_symop_operation_xyz
x,y,z
-x,1/2-y,z
x,-y,-z
-x,1/2+y,-z
-x,-y,-z
x,1/2+y,-z
-x,y,z
x,1/2-y,z
1/2+x,1/2+y,1/2+z
1/2-x,-y,1/2+z
1/2+x,1/2-y,1/2-z
1/2-x,y,1/2-z
1/2-x,1/2-y,1/2-z
1/2+x,y,1/2-z
1/2-x,1/2+y,1/2+z
1/2+x,-y,1/2+z
loop_
_atom_site_type_symbol
_atom_site_label
_atom_site_fract_x
_atom_site_fract_y
_atom_site_fract_z
Si Si1 0.318965 0.750000 0.330152
Si Si2 0.826412 0.042836 0.044305
Si Si3 0.819604 0.416986 0.586367
Si Si4 0.820006 0.999112 0.327802
Si Si5 0.818649 0.834061 0.329280
O O1 0.500000 0.750000 0.328179
O O2 0.250000 0.750000 0.250000
O O3 0.254420 0.707493 0.360841
O O4 0.000000 0.052037 0.059778
O O5 0.737190 0.033387 0.116620
O O6 0.756004 0.075660 0.990171
O O7 0.819997 0.000000 0.000000
O O8 0.774958 0.454790 0.638419
O O9 0.783717 0.373887 0.623405
O O10 0.000000 0.419625 0.577538
O O11 0.750000 0.003822 0.250000
O O12 0.000000 0.000089 0.323444
O O13 0.750000 0.840065 0.250000
O O14 0.000000 0.829492 0.323629
#
# Coordination Sequence:
#
# PCOD9534249 Si02
#       5
#     8  16  16  16  16
#     4  10  18  28  40  54  74 100 129 160 197 234
#     4   9  17  28  41  56  75 100 129 160 195 233
#     4   9  18  29  41  57  77 102 130 163 199 233
#     4  10  18  28  41  57  78 102 131 164 197 232
#     4  10  18  28  41  57  77 101 131 164 198 233
#
# _framework density 13.295173999999999
#
# number of rings (size 3 to 8) (size 9 to 14) (size 15 to 20)
#    0.000    2.444    0.000    5.000    0.000    5.333 
#    0.000    0.000    0.000    0.000    0.000    0.000 
#    0.000    0.000    0.000    1.000    0.000   13.111 
#
# Total GULP energy -200600.260828 kJ/mol
# GULP energy per Si atom -5572.229467 kJ/mol
# Density = 1.326491 g / cm^3
# Si number density = 13.295174 Si / 1000 Ang^3
#
#
#
# Elastic Constant Matrix: (Units=GPa)
#
#
# Indices 1 2 3 4 5 6 
#
# 1 68.2134 45.0613 48.5663 0.0000 0.0000 0.0000
# 2 45.0613 88.3082 49.5763 0.0000 0.0000 0.0000
# 3 48.5663 49.5763 93.7396 0.0000 0.0000 0.0000
# 4 0.0000 0.0000 0.0000 18.2942 0.0000 0.0000
# 5 0.0000 0.0000 0.0000 0.0000 24.5099 0.0000
# 6 0.0000 0.0000 0.0000 0.0000 0.0000 18.0528
#
#
#
# Elastic Compliance Matrix: (Units=1/GPa)
#
#
# Indices 1 2 3 4 5 6 
#
# 1 0.027024 -0.008433 -0.009541 0.000000 0.000000 0.000000
# 2 -0.008433 0.018738 -0.005541 0.000000 0.000000 0.000000
# 3 -0.009541 -0.005541 0.018541 0.000000 0.000000 0.000000
# 4 0.000000 0.000000 0.000000 0.054662 0.000000 0.000000
# 5 0.000000 0.000000 0.000000 0.000000 0.040800 0.000000
# 6 0.000000 0.000000 0.000000 0.000000 0.000000 0.055393
#
#
# Mechanical properties :
#
#
# Convention : Reuss Voigt Hill
#
# Bulk Modulus (GPa) = 57.89293 59.62989 58.76141
# Shear Modulus (GPa) = 18.66057 19.30853 18.98455
#
# Velocity S-wave (km/s) = 3.75048 3.81504 3.78289
# Velocity P-wave (km/s) = 7.89896 8.02210 7.96077
#
# Compressibility (1/GPa) = 0.01727327
#
# Stress axis : x y z
#
# Youngs Moduli (GPa) = 37.00469 53.36832 53.93388
#
# Poissons Ratio (x) = 0.45007 0.51457
# Poissons Ratio (y) = 0.31207 0.29883
# Poissons Ratio (z) = 0.35305 0.29569
#
# Static dielectric constant tensor:
#      x y z
#    x 1.446080 0.000000 0.000000 
#    y 0.000000 1.445810 0.000000 
#    z 0.000000 0.000000 1.412270 
# 
# From -- ./inp_files/48926.got.cif
#   From: 2010.05.17/outbox.cif.g08.bks.cpg/sg74_25_cif.got.tgz:48926.got - 2010.06.03 17:57:02.
