data_PCOD9534755
_publ_section_title
;
Structure prediction by ZEFSAII (Michael W. Deem and Ramdas Pophale) SiO2 
 PCOD9534755
Probable space group: I M M A
;
_chemical_formula_sum "Si O2"
_cell_formula_units_Z 96
_cell_length_a 14.478053
_cell_length_b 29.217714
_cell_length_c 11.817132
_cell_angle_alpha 90.000000
_cell_angle_beta 90.000000
_cell_angle_gamma 90.000000
_cell_volume 4998.831323
_symmetry_space_group_name_H-M "I M M A"
_symmetry_group_IT_number 74
_symmetry_cell_setting 'orthorhombic'
loop_
_space_group_symop_operation_xyz
x,y,z
-x,1/2-y,z
x,-y,-z
-x,1/2+y,-z
-x,-y,-z
x,1/2+y,-z
-x,y,z
x,1/2-y,z
1/2+x,1/2+y,1/2+z
1/2-x,-y,1/2+z
1/2+x,1/2-y,1/2-z
1/2-x,y,1/2-z
1/2-x,1/2-y,1/2-z
1/2+x,y,1/2-z
1/2-x,1/2+y,1/2+z
1/2+x,-y,1/2+z
loop_
_atom_site_type_symbol
_atom_site_label
_atom_site_fract_x
_atom_site_fract_y
_atom_site_fract_z
Si Si1 0.608813 0.750000 0.716323
Si Si2 0.894584 0.150243 0.497342
Si Si3 0.168785 0.553712 0.843056
Si Si4 0.606156 0.541526 0.261770
Si Si5 0.641526 0.350034 0.268474
Si Si6 0.887953 0.750000 0.528780
Si Si7 0.761501 0.070328 0.578039
O O1 0.500000 0.750000 0.731432
O O2 0.626555 0.698872 0.670058
O O3 0.652549 0.750000 0.843168
O O4 0.898172 0.149520 0.359339
O O5 0.864973 0.201982 0.527423
O O6 0.819135 0.115371 0.544019
O O7 0.000000 0.140935 0.536335
O O8 0.250000 0.553206 0.750000
O O9 0.109871 0.508702 0.817986
O O10 0.117041 0.602612 0.830743
O O11 0.218584 0.551387 0.963166
O O12 0.500000 0.556181 0.251185
O O13 0.672998 0.573595 0.338276
O O14 0.661783 0.539945 0.143139
O O15 0.750000 0.351865 0.250000
O O16 0.000000 0.750000 0.536531
#
# Coordination Sequence:
#
# PCOD9534755 Si02
#       7
#     8  16  16  16  16   8  16
#     4   9  17  29  45  75 117 159 194 229 276 358
#     4  10  18  32  57  89 121 157 196 241 293 352
#     4  11  21  39  57  88 121 155 191 246 293 354
#     4  11  26  43  63  86 116 160 205 249 304 349
#     4  10  18  31  51  80 121 157 191 234 295 352
#     4   7  14  27  47  82 122 152 192 239 284 347
#     4  11  22  41  65  84 121 153 199 250 291 350
#
# _framework density 19.204488000000001
#
# number of rings (size 3 to 8) (size 9 to 14) (size 15 to 20)
#    0.000    1.833    5.000    2.750    0.000    2.667 
#    0.000    0.833    0.000    2.000    0.000    1.750 
#    0.000    1.333    0.000    0.000    0.000    0.000 
#
# Total GULP energy -267258.570121 kJ/mol
# GULP energy per Si atom -5567.886878 kJ/mol
# Density = 1.916078 g / cm^3
# Si number density = 19.204488 Si / 1000 Ang^3
#
#
#
# Elastic Constant Matrix: (Units=GPa)
#
#
# Indices 1 2 3 4 5 6 
#
# 1 105.1345 38.5974 24.6587 0.0000 0.0000 0.0000
# 2 38.5974 151.8966 33.6479 0.0000 0.0000 0.0000
# 3 24.6587 33.6479 74.5154 0.0001 0.0000 -0.0001
# 4 0.0000 0.0000 0.0001 15.0731 0.0000 0.0000
# 5 0.0000 0.0000 0.0000 0.0000 18.5999 0.0000
# 6 0.0000 0.0000 -0.0001 0.0000 0.0000 43.6431
#
#
#
# Elastic Compliance Matrix: (Units=1/GPa)
#
#
# Indices 1 2 3 4 5 6 
#
# 1 0.010934 -0.002197 -0.002626 0.000000 0.000000 0.000000
# 2 -0.002197 0.007756 -0.002776 0.000000 0.000000 0.000000
# 3 -0.002626 -0.002776 0.015543 0.000000 0.000000 0.000000
# 4 0.000000 0.000000 0.000000 0.066343 0.000000 0.000000
# 5 0.000000 0.000000 0.000000 0.000000 0.053764 0.000000
# 6 0.000000 0.000000 0.000000 0.000000 0.000000 0.022913
#
#
# Mechanical properties :
#
#
# Convention : Reuss Voigt Hill
#
# Bulk Modulus (GPa) = 52.53248 58.37271 55.45260
# Shear Modulus (GPa) = 25.15149 31.10607 28.12878
#
# Velocity S-wave (km/s) = 3.62286 4.02895 3.83129
# Velocity P-wave (km/s) = 6.70178 7.21835 6.96485
#
# Compressibility (1/GPa) = 0.01903584
#
# Stress axis : x y z
#
# Youngs Moduli (GPa) = 91.45735 128.92548 64.33965
#
# Poissons Ratio (x) = 0.28319 0.16898
# Poissons Ratio (y) = 0.20089 0.17858
# Poissons Ratio (z) = 0.24021 0.35784
#
# Static dielectric constant tensor:
#      x y z
#    x 1.664160 0.000000 0.000000 
#    y 0.000000 1.781800 0.000000 
#    z 0.000000 0.000000 1.698450 
# 
# From -- ./inp_files/21066.got.cif
#   From: 2010.05.17/outbox.cif.g08.bks.cpg/sg74_11_cif.got.tgz:21066.got - 2010.06.03 17:57:02.
