data_PCOD9534431
_publ_section_title
;
Structure prediction by ZEFSAII (Michael W. Deem and Ramdas Pophale) SiO2 
 PCOD9534431
Probable space group: I M M A
;
_chemical_formula_sum "Si O2"
_cell_formula_units_Z 112
_cell_length_a 18.153671
_cell_length_b 26.299703
_cell_length_c 11.026798
_cell_angle_alpha 90.000000
_cell_angle_beta 90.000000
_cell_angle_gamma 90.000000
_cell_volume 5264.592046
_symmetry_space_group_name_H-M "I M M A"
_symmetry_group_IT_number 74
_symmetry_cell_setting 'orthorhombic'
loop_
_space_group_symop_operation_xyz
x,y,z
-x,1/2-y,z
x,-y,-z
-x,1/2+y,-z
-x,-y,-z
x,1/2+y,-z
-x,y,z
x,1/2-y,z
1/2+x,1/2+y,1/2+z
1/2-x,-y,1/2+z
1/2+x,1/2-y,1/2-z
1/2-x,y,1/2-z
1/2-x,1/2-y,1/2-z
1/2+x,y,1/2-z
1/2-x,1/2+y,1/2+z
1/2+x,-y,1/2+z
loop_
_atom_site_type_symbol
_atom_site_label
_atom_site_fract_x
_atom_site_fract_y
_atom_site_fract_z
Si Si1 0.583777 0.051541 0.892227
Si Si2 0.200006 0.052063 0.056159
Si Si3 0.084841 0.544085 0.734778
Si Si4 0.265887 0.338888 0.109243
Si Si5 0.191395 0.190775 0.855610
Si Si6 0.584125 0.898493 0.370717
Si Si7 0.416273 0.862703 0.931171
O O1 0.500000 0.050750 0.939148
O O2 0.583895 0.070204 0.753417
O O3 0.606027 0.993026 0.876515
O O4 0.614242 0.099157 0.964927
O O5 0.147411 0.037125 0.167206
O O6 0.250326 0.099572 0.097599
O O7 0.141901 0.074701 0.959507
O O8 0.233494 0.000000 0.000000
O O9 0.082608 0.601667 0.688147
O O10 0.000000 0.531425 0.771807
O O11 0.250000 0.325408 0.250000
O O12 0.350884 0.323828 0.086989
O O13 0.221451 0.316735 0.993794
O O14 0.176774 0.250000 0.835529
O O15 0.250000 0.174366 0.750000
O O16 0.118475 0.156671 0.845144
O O17 0.500000 0.896729 0.417569
O O18 0.500000 0.845614 0.956274
#
# Coordination Sequence:
#
# PCOD9534431 Si02
#       7
#    16  16  16  16  16  16  16
#     4   9  17  29  49  78 110 150 198 240 279 327
#     4  11  21  34  51  81 123 168 199 238 285 340
#     4  10  18  29  48  74 110 158 201 236 278 332
#     4  11  23  41  60  90 119 153 203 244 297 359
#     4  10  23  44  67  89 117 152 189 243 316 378
#     4  10  20  34  58  89 118 152 197 243 289 347
#     4  10  20  35  54  76 111 155 198 245 288 334
#
# _framework density 21.274203
#
# number of rings (size 3 to 8) (size 9 to 14) (size 15 to 20)
#    0.000    1.857    2.857    1.714    0.000    4.000 
#    0.000    0.714    0.000    1.286    0.000    0.000 
#    0.000    0.000    0.000    0.000    0.000    0.000 
#
# Total GULP energy -312122.589232 kJ/mol
# GULP energy per Si atom -5573.617665 kJ/mol
# Density = 2.122578 g / cm^3
# Si number density = 21.274203 Si / 1000 Ang^3
#
#
#
# Elastic Constant Matrix: (Units=GPa)
#
#
# Indices 1 2 3 4 5 6 
#
# 1 87.5540 3.9943 4.1486 0.0000 0.0000 0.0000
# 2 3.9943 43.6838 -16.1606 0.0000 0.0000 0.0000
# 3 4.1486 -16.1606 62.5610 0.0000 0.0000 0.0000
# 4 0.0000 0.0000 0.0000 10.7692 0.0000 0.0000
# 5 0.0000 0.0000 0.0000 0.0000 28.1307 0.0000
# 6 0.0000 0.0000 0.0000 0.0000 0.0000 12.6939
#
#
#
# Elastic Compliance Matrix: (Units=1/GPa)
#
#
# Indices 1 2 3 4 5 6 
#
# 1 0.011543 -0.001480 -0.001148 0.000000 0.000000 0.000000
# 2 -0.001480 0.025500 0.006685 0.000000 0.000000 0.000000
# 3 -0.001148 0.006685 0.017787 0.000000 0.000000 0.000000
# 4 0.000000 0.000000 0.000000 0.092857 0.000000 0.000000
# 5 0.000000 0.000000 0.000000 0.000000 0.035548 0.000000
# 6 0.000000 0.000000 0.000000 0.000000 0.000000 0.078778
#
#
# Mechanical properties :
#
#
# Convention : Reuss Voigt Hill
#
# Bulk Modulus (GPa) = 15.88667 19.75151 17.81909
# Shear Modulus (GPa) = 18.18962 23.77319 20.98141
#
# Velocity S-wave (km/s) = 2.92722 3.34648 3.14385
# Velocity P-wave (km/s) = 4.34841 4.92304 4.64462
#
# Compressibility (1/GPa) = 0.06294587
#
# Stress axis : x y z
#
# Youngs Moduli (GPa) = 86.62928 39.21523 56.21948
#
# Poissons Ratio (x) = 0.05804 0.06453
# Poissons Ratio (y) = 0.12822 -0.37584
# Poissons Ratio (z) = 0.09943 -0.26217
#
# Static dielectric constant tensor:
#      x y z
#    x 1.774380 0.000000 0.000000 
#    y 0.000000 1.802500 0.000000 
#    z 0.000000 0.000000 1.834040 
# 
# From -- ./inp_files/24171.got.cif
#   From: 2010.05.17/outbox.cif.g08.bks.cpg/sg74_13_cif.got.tgz:24171.got - 2010.06.03 17:57:02.
