data_PCOD9534610
_publ_section_title
;
Structure prediction by ZEFSAII (Michael W. Deem and Ramdas Pophale) SiO2 
 PCOD9534610
Probable space group: I M M A
;
_chemical_formula_sum "Si O2"
_cell_formula_units_Z 104
_cell_length_a 7.891510
_cell_length_b 22.478925
_cell_length_c 28.624909
_cell_angle_alpha 90.000000
_cell_angle_beta 90.000000
_cell_angle_gamma 90.000000
_cell_volume 5077.848791
_symmetry_space_group_name_H-M "I M M A"
_symmetry_group_IT_number 74
_symmetry_cell_setting 'orthorhombic'
loop_
_space_group_symop_operation_xyz
x,y,z
-x,1/2-y,z
x,-y,-z
-x,1/2+y,-z
-x,-y,-z
x,1/2+y,-z
-x,y,z
x,1/2-y,z
1/2+x,1/2+y,1/2+z
1/2-x,-y,1/2+z
1/2+x,1/2-y,1/2-z
1/2-x,y,1/2-z
1/2-x,1/2-y,1/2-z
1/2+x,y,1/2-z
1/2-x,1/2+y,1/2+z
1/2+x,-y,1/2+z
loop_
_atom_site_type_symbol
_atom_site_label
_atom_site_fract_x
_atom_site_fract_y
_atom_site_fract_z
Si Si1 0.705644 0.640951 0.861657
Si Si2 0.703108 0.750000 0.802783
Si Si3 0.297474 0.477502 0.304401
Si Si4 0.695599 0.923110 0.370189
Si Si5 0.195241 0.491951 0.449517
Si Si6 0.308831 0.351618 0.039687
Si Si7 0.203010 0.317849 0.935379
O O1 0.500000 0.641933 0.866034
O O2 0.766803 0.689494 0.825167
O O3 0.745474 0.576497 0.839097
O O4 0.773926 0.666771 0.911442
O O5 0.500000 0.750000 0.808784
O O6 0.750000 0.750000 0.750000
O O7 0.500000 0.480424 0.306522
O O8 0.250000 0.468302 0.250000
O O9 0.229600 0.540454 0.326024
O O10 0.500000 0.909007 0.358981
O O11 0.704726 0.973304 0.410535
O O12 0.769672 0.864618 0.396312
O O13 0.275136 0.500000 0.500000
O O14 0.183500 0.421495 0.447104
O O15 0.000000 0.515532 0.449417
O O16 0.500000 0.327686 0.036098
O O17 0.233335 0.340326 0.988635
O O18 0.267066 0.250000 0.930739
O O19 0.000000 0.316403 0.929741
#
# Coordination Sequence:
#
# PCOD9534610 Si02
#       7
#    16   8  16  16  16  16  16
#     4  10  21  37  56  79 109 145 184 225 269 318
#     4  10  22  38  54  72  98 140 188 228 267 310
#     4  11  23  38  58  83 108 137 176 227 284 336
#     4  10  21  36  55  79 108 142 181 224 275 330
#     4  10  18  30  50  79 109 139 172 209 258 313
#     4  10  20  33  53  80 111 144 179 219 265 317
#     4  10  22  38  55  78 111 150 188 226 269 324
#
# _framework density 20.481114999999999
#
# number of rings (size 3 to 8) (size 9 to 14) (size 15 to 20)
#    0.000    1.846    3.077    0.923    1.077    4.308 
#    0.000    0.000    0.000    0.462    0.000    0.000 
#    0.000    0.000    0.000    0.000    0.000    0.154 
#
# Total GULP energy -289490.065071 kJ/mol
# GULP energy per Si atom -5567.116636 kJ/mol
# Density = 2.043450 g / cm^3
# Si number density = 20.481115 Si / 1000 Ang^3
#
#
#
# Elastic Constant Matrix: (Units=GPa)
#
#
# Indices 1 2 3 4 5 6 
#
# 1 32.2407 3.3962 3.4703 0.0000 0.0000 0.0000
# 2 3.3962 121.3474 39.5725 0.0000 0.0000 0.0000
# 3 3.4703 39.5725 87.3802 0.0000 0.0000 0.0000
# 4 0.0000 0.0000 0.0000 37.3708 0.0000 0.0000
# 5 0.0000 0.0000 0.0000 0.0000 9.3886 0.0000
# 6 0.0000 0.0000 0.0000 0.0000 0.0000 0.5528
#
#
#
# Elastic Compliance Matrix: (Units=1/GPa)
#
#
# Indices 1 2 3 4 5 6 
#
# 1 0.031181 -0.000550 -0.000989 0.000000 0.000000 0.000000
# 2 -0.000550 0.009678 -0.004361 0.000000 0.000000 0.000000
# 3 -0.000989 -0.004361 0.013459 0.000000 0.000000 0.000000
# 4 0.000000 0.000000 0.000000 0.026759 0.000000 0.000000
# 5 0.000000 0.000000 0.000000 0.000000 0.106512 0.000000
# 6 0.000000 0.000000 0.000000 0.000000 0.000000 1.808835
#
#
# Mechanical properties :
#
#
# Convention : Reuss Voigt Hill
#
# Bulk Modulus (GPa) = 23.52000 37.09403 30.30702
# Shear Modulus (GPa) = 2.47231 22.43106 12.45169
#
# Velocity S-wave (km/s) = 1.09988 3.31298 2.46836
# Velocity P-wave (km/s) = 3.62238 5.72583 4.79097
#
# Compressibility (1/GPa) = 0.04251700
#
# Stress axis : x y z
#
# Youngs Moduli (GPa) = 32.07068 103.32215 74.30153
#
# Poissons Ratio (x) = 0.05683 0.07350
# Poissons Ratio (y) = 0.01764 0.32405
# Poissons Ratio (z) = 0.03173 0.45062
#
# Static dielectric constant tensor:
#      x y z
#    x 1.756580 0.000000 0.000000 
#    y 0.000000 1.561610 0.000000 
#    z 0.000000 0.000000 1.866070 
# 
# From -- ./inp_files/64785.got.cif
#   From: 2010.05.17/outbox.cif.g08.bks.cpg/sg74_33_cif.got.tgz:64785.got - 2010.06.03 17:57:02.
