data_PCOD9534361
_publ_section_title
;
Structure prediction by ZEFSAII (Michael W. Deem and Ramdas Pophale) SiO2 
 PCOD9534361
Probable space group: I M M A
;
_chemical_formula_sum "Si O2"
_cell_formula_units_Z 112
_cell_length_a 27.264356
_cell_length_b 17.206869
_cell_length_c 14.915002
_cell_angle_alpha 90.000000
_cell_angle_beta 90.000000
_cell_angle_gamma 90.000000
_cell_volume 6997.137562
_symmetry_space_group_name_H-M "I M M A"
_symmetry_group_IT_number 74
_symmetry_cell_setting 'orthorhombic'
loop_
_space_group_symop_operation_xyz
x,y,z
-x,1/2-y,z
x,-y,-z
-x,1/2+y,-z
-x,-y,-z
x,1/2+y,-z
-x,y,z
x,1/2-y,z
1/2+x,1/2+y,1/2+z
1/2-x,-y,1/2+z
1/2+x,1/2-y,1/2-z
1/2-x,y,1/2-z
1/2-x,1/2-y,1/2-z
1/2+x,y,1/2-z
1/2-x,1/2+y,1/2+z
1/2+x,-y,1/2+z
loop_
_atom_site_type_symbol
_atom_site_label
_atom_site_fract_x
_atom_site_fract_y
_atom_site_fract_z
Si Si1 0.308957 0.095088 0.830922
Si Si2 0.296431 0.659056 0.359373
Si Si3 0.289444 0.415198 0.128959
Si Si4 0.639061 0.656830 0.733777
Si Si5 0.811345 0.656069 0.939737
Si Si6 0.376135 0.590785 0.011026
Si Si7 0.555407 0.343017 0.131797
O O1 0.315240 0.110244 0.725473
O O2 0.262666 0.147557 0.860599
O O3 0.292044 0.006885 0.851065
O O4 0.357795 0.109306 0.889086
O O5 0.306952 0.750000 0.344299
O O6 0.317135 0.634949 0.456114
O O7 0.312576 0.372456 0.214498
O O8 0.236890 0.385717 0.098504
O O9 0.327249 0.397529 0.048625
O O10 0.638219 0.750000 0.739718
O O11 0.645027 0.636464 0.629384
O O12 0.592155 0.627078 0.789958
O O13 0.803820 0.750000 0.937042
O O14 0.419049 0.637804 0.962980
O O15 0.388853 0.500000 0.000000
O O16 0.500000 0.373448 0.138024
O O17 0.553387 0.250000 0.140683
#
# Coordination Sequence:
#
# PCOD9534361 Si02
#       7
#    16  16  16  16  16  16  16
#     4  10  19  31  43  63  90 127 160 197 225 260
#     4  10  21  32  42  60  89 129 170 193 220 264
#     4  10  18  29  43  66  94 121 154 191 228 274
#     4   9  18  30  45  66  91 119 149 188 237 286
#     4  10  19  30  44  64  92 127 162 192 225 276
#     4   9  18  31  46  67  96 121 157 190 232 285
#     4   9  18  32  50  72  93 115 150 198 250 298
#
# _framework density 16.006546
#
# number of rings (size 3 to 8) (size 9 to 14) (size 15 to 20)
#    0.000    2.429    1.429    1.714    4.000    3.143 
#    0.000    0.000    0.000    0.000    0.000    1.000 
#    0.000   13.714    0.000    0.000    0.000    0.000 
#
# Total GULP energy -311997.139872 kJ/mol
# GULP energy per Si atom -5571.377498 kJ/mol
# Density = 1.597011 g / cm^3
# Si number density = 16.006546 Si / 1000 Ang^3
#
#
#
# Elastic Constant Matrix: (Units=GPa)
#
#
# Indices 1 2 3 4 5 6 
#
# 1 60.5203 15.2085 42.3767 0.0000 0.0000 0.0000
# 2 15.2085 8.3502 21.5804 0.0000 0.0000 0.0000
# 3 42.3767 21.5804 135.6418 0.0000 0.0000 0.0000
# 4 0.0000 0.0000 0.0000 -7.7213 0.0000 0.0000
# 5 0.0000 0.0000 0.0000 0.0000 9.4942 0.0000
# 6 0.0000 0.0000 0.0000 0.0000 0.0000 9.9503
#
#
#
# Elastic Compliance Matrix: (Units=1/GPa)
#
#
# Indices 1 2 3 4 5 6 
#
# 1 0.030579 -0.052656 -0.001176 0.000000 0.000000 0.000000
# 2 -0.052656 0.294057 -0.030334 0.000000 0.000000 0.000000
# 3 -0.001176 -0.030334 0.012566 0.000000 0.000000 0.000000
# 4 0.000000 0.000000 0.000000 -0.129512 0.000000 0.000000
# 5 0.000000 0.000000 0.000000 0.000000 0.105327 0.000000
# 6 0.000000 0.000000 0.000000 0.000000 0.000000 0.100499
#
#
# Mechanical properties :
#
#
# Convention : Reuss Voigt Hill
#
# Bulk Modulus (GPa) = 5.92167 40.31595 23.11881
# Shear Modulus (GPa) = 7.83532 10.70109 9.26821
#
# Velocity S-wave (km/s) = 2.21488 2.58843 2.40891
# Velocity P-wave (km/s) = 3.20133 5.84595 4.71294
#
# Compressibility (1/GPa) = 0.16887139
#
# Stress axis : x y z
#
# Youngs Moduli (GPa) = 32.70225 3.40070 79.58130
#
# Poissons Ratio (x) = 0.17907 0.09358
# Poissons Ratio (y) = 1.72196 2.41398
# Poissons Ratio (z) = 0.03846 0.10316
#
# Static dielectric constant tensor:
#      x y z
#    x 1.518470 0.000000 0.000000 
#    y 0.000000 1.555510 0.000000 
#    z 0.000000 0.000000 1.593570 
# 
# From -- ./inp_files/33144.got.cif
#   From: 2010.05.17/outbox.cif.g08.bks.cpg/sg74_17_cif.got.tgz:33144.got - 2010.06.03 17:57:02.
