data_PCOD9534020
_publ_section_title
;
Structure prediction by ZEFSAII (Michael W. Deem and Ramdas Pophale) SiO2 
 PCOD9534020
Probable space group: I M M A
;
_chemical_formula_sum "Si O2"
_cell_formula_units_Z 96
_cell_length_a 10.210619
_cell_length_b 23.177373
_cell_length_c 24.164457
_cell_angle_alpha 90.000000
_cell_angle_beta 90.000000
_cell_angle_gamma 90.000000
_cell_volume 5718.647428
_symmetry_space_group_name_H-M "I M M A"
_symmetry_group_IT_number 74
_symmetry_cell_setting 'orthorhombic'
loop_
_space_group_symop_operation_xyz
x,y,z
-x,1/2-y,z
x,-y,-z
-x,1/2+y,-z
-x,-y,-z
x,1/2+y,-z
-x,y,z
x,1/2-y,z
1/2+x,1/2+y,1/2+z
1/2-x,-y,1/2+z
1/2+x,1/2-y,1/2-z
1/2-x,y,1/2-z
1/2-x,1/2-y,1/2-z
1/2+x,y,1/2-z
1/2-x,1/2+y,1/2+z
1/2+x,-y,1/2+z
loop_
_atom_site_type_symbol
_atom_site_label
_atom_site_fract_x
_atom_site_fract_y
_atom_site_fract_z
Si Si1 0.242306 0.637349 0.617546
Si Si2 0.500000 0.680655 0.810882
Si Si3 0.344183 0.185194 0.005843
Si Si4 0.000000 0.819576 0.821758
Si Si5 0.841497 0.893159 0.405286
Si Si6 0.153255 0.317598 0.699112
Si Si7 0.342075 0.982256 0.936035
O O1 0.226542 0.678215 0.564023
O O2 0.374363 0.651387 0.649873
O O3 0.224934 0.573633 0.590715
O O4 0.125111 0.652304 0.659652
O O5 0.500000 0.750000 0.821008
O O6 0.500000 0.671887 0.744729
O O7 0.500000 0.175507 0.015963
O O8 0.330053 0.250000 0.983611
O O9 0.296966 0.138712 0.961187
O O10 0.000000 0.750000 0.830928
O O11 0.804176 0.856624 0.352111
O O12 0.805432 0.959903 0.402932
O O13 0.000000 0.891429 0.408280
O O14 0.159916 0.250000 0.683622
O O15 0.250000 0.327095 0.750000
O O16 0.000000 0.329790 0.712390
O O17 0.500000 0.972446 0.933902
O O18 0.313211 0.000000 0.000000
#
# Coordination Sequence:
#
# PCOD9534020 Si02
#       7
#    16   8  16   8  16  16  16
#     4  12  21  37  60  86 111 150 192 230 287 346
#     4  11  22  40  63  86 110 146 197 242 284 341
#     4  10  17  27  51  86 112 133 178 235 276 323
#     4  11  26  42  57  82 122 156 183 238 300 349
#     4   9  17  29  51  81 108 138 178 229 279 318
#     4   9  17  31  52  76 105 140 177 221 272 325
#     4  10  18  33  57  85 112 144 184 233 277 326
#
# _framework density 16.787185999999998
#
# number of rings (size 3 to 8) (size 9 to 14) (size 15 to 20)
#    0.000    1.833    3.333    2.500    0.000    3.333 
#    0.000    2.083    3.667    0.000    0.000    0.000 
#    0.000    0.000    0.000    0.000    0.000    0.000 
#
# Total GULP energy -267636.519578 kJ/mol
# GULP energy per Si atom -5575.760825 kJ/mol
# Density = 1.674898 g / cm^3
# Si number density = 16.787186 Si / 1000 Ang^3
#
#
#
# Elastic Constant Matrix: (Units=GPa)
#
#
# Indices 1 2 3 4 5 6 
#
# 1 81.3397 45.0470 50.5619 0.0000 0.0000 0.0000
# 2 45.0470 111.0001 76.7494 0.0000 0.0000 0.0000
# 3 50.5619 76.7494 106.6048 0.0000 0.0000 0.0000
# 4 0.0000 0.0000 0.0000 18.8685 0.0000 0.0000
# 5 0.0000 0.0000 0.0000 0.0000 4.3785 0.0000
# 6 0.0000 0.0000 0.0000 0.0000 0.0000 15.9854
#
#
#
# Elastic Compliance Matrix: (Units=1/GPa)
#
#
# Indices 1 2 3 4 5 6 
#
# 1 0.017851 -0.002769 -0.006474 0.000000 0.000000 0.000000
# 2 -0.002769 0.018368 -0.011911 0.000000 0.000000 0.000000
# 3 -0.006474 -0.011911 0.021026 0.000000 0.000000 0.000000
# 4 0.000000 0.000000 0.000000 0.052998 0.000000 0.000000
# 5 0.000000 0.000000 0.000000 0.000000 0.228389 0.000000
# 6 0.000000 0.000000 0.000000 0.000000 0.000000 0.062557
#
#
# Mechanical properties :
#
#
# Convention : Reuss Voigt Hill
#
# Bulk Modulus (GPa) = 66.93683 71.51793 69.22738
# Shear Modulus (GPa) = 11.14887 16.28557 13.71722
#
# Velocity S-wave (km/s) = 2.57987 3.11805 2.86164
# Velocity P-wave (km/s) = 6.98818 7.46044 7.22817
#
# Compressibility (1/GPa) = 0.01493946
#
# Stress axis : x y z
#
# Youngs Moduli (GPa) = 56.01771 54.44178 47.55993
#
# Poissons Ratio (x) = 0.15072 0.30789
# Poissons Ratio (y) = 0.15509 0.56649
# Poissons Ratio (z) = 0.36264 0.64846
#
# Static dielectric constant tensor:
#      x y z
#    x 1.551070 0.000000 0.000000 
#    y 0.000000 1.589030 0.000000 
#    z 0.000000 0.000000 1.556910 
# 
# From -- ./inp_files/57355.got.cif
#   From: 2010.05.17/outbox.cif.g08.bks.cpg/sg74_29_cif.got.tgz:57355.got - 2010.06.03 17:57:02.
