data_PCOD9534643
_publ_section_title
;
Structure prediction by ZEFSAII (Michael W. Deem and Ramdas Pophale) SiO2 
 PCOD9534643
Probable space group: I M M A
;
_chemical_formula_sum "Si O2"
_cell_formula_units_Z 104
_cell_length_a 10.070308
_cell_length_b 26.548004
_cell_length_c 23.588955
_cell_angle_alpha 90.000000
_cell_angle_beta 90.000000
_cell_angle_gamma 90.000000
_cell_volume 6306.426376
_symmetry_space_group_name_H-M "I M M A"
_symmetry_group_IT_number 74
_symmetry_cell_setting 'orthorhombic'
loop_
_space_group_symop_operation_xyz
x,y,z
-x,1/2-y,z
x,-y,-z
-x,1/2+y,-z
-x,-y,-z
x,1/2+y,-z
-x,y,z
x,1/2-y,z
1/2+x,1/2+y,1/2+z
1/2-x,-y,1/2+z
1/2+x,1/2-y,1/2-z
1/2-x,y,1/2-z
1/2-x,1/2-y,1/2-z
1/2+x,y,1/2-z
1/2-x,1/2+y,1/2+z
1/2+x,-y,1/2+z
loop_
_atom_site_type_symbol
_atom_site_label
_atom_site_fract_x
_atom_site_fract_y
_atom_site_fract_z
Si Si1 0.658992 0.750000 0.805194
Si Si2 0.340233 0.656037 0.886929
Si Si3 0.500000 0.810319 0.331666
Si Si4 0.500000 0.309160 0.802933
Si Si5 0.157786 0.450446 0.695495
Si Si6 0.342738 0.069921 0.196353
Si Si7 0.839197 0.808428 0.490248
Si Si8 0.232120 0.359580 0.625894
O O1 0.500000 0.750000 0.792300
O O2 0.750000 0.750000 0.750000
O O3 0.688722 0.798818 0.843450
O O4 0.500000 0.654243 0.892291
O O5 0.300754 0.603941 0.857076
O O6 0.290127 0.669933 0.949484
O O7 0.500000 0.750000 0.342385
O O8 0.500000 0.817719 0.263960
O O9 0.626777 0.837513 0.357461
O O10 0.500000 0.250000 0.813300
O O11 0.372599 0.332077 0.833021
O O12 0.250000 0.437663 0.750000
O O13 0.170121 0.510253 0.685554
O O14 0.210242 0.417688 0.642764
O O15 0.000000 0.439840 0.705392
O O16 0.500000 0.079971 0.208231
O O17 0.250000 0.082513 0.250000
O O18 0.796123 0.750000 0.482602
O O19 0.797877 0.843457 0.438129
O O20 0.000000 0.807410 0.491134
#
# Coordination Sequence:
#
# PCOD9534643 Si02
#       8
#     8  16   8   8  16  16  16  16
#     4  10  18  30  52  82 112 138 171 215 266 322
#     4   9  17  31  52  80 107 140 177 220 260 312
#     4  11  24  36  50  74 109 136 168 223 286 323
#     4  11  20  34  52  76  99 130 174 223 264 313
#     4  10  20  34  53  79 106 137 178 222 268 318
#     4   9  18  33  54  80 110 138 171 219 272 319
#     4  10  18  32  54  76 103 140 188 221 254 311
#     4  12  22  34  53  76 103 140 179 216 262 317
#
# _framework density 16.491114
#
# number of rings (size 3 to 8) (size 9 to 14) (size 15 to 20)
#    0.000    1.846    2.308    3.231    1.077    1.231 
#    0.000    0.769    3.385    3.692    0.000    1.077 
#    0.000    0.000    0.000    0.000    0.000    0.000 
#
# Total GULP energy -289994.691802 kJ/mol
# GULP energy per Si atom -5576.820996 kJ/mol
# Density = 1.645358 g / cm^3
# Si number density = 16.491114 Si / 1000 Ang^3
#
#
#
# Elastic Constant Matrix: (Units=GPa)
#
#
# Indices 1 2 3 4 5 6 
#
# 1 78.1357 30.3269 34.2594 0.0000 0.0000 0.0000
# 2 30.3269 87.0950 66.6335 0.0000 0.0000 0.0000
# 3 34.2594 66.6335 98.7054 0.0000 0.0000 0.0000
# 4 0.0000 0.0000 0.0000 21.1234 0.0000 0.0000
# 5 0.0000 0.0000 0.0000 0.0000 16.9163 0.0000
# 6 0.0000 0.0000 0.0000 0.0000 0.0000 17.8366
#
#
#
# Elastic Compliance Matrix: (Units=1/GPa)
#
#
# Indices 1 2 3 4 5 6 
#
# 1 0.015381 -0.002629 -0.003564 0.000000 0.000000 0.000000
# 2 -0.002629 0.024195 -0.015421 0.000000 0.000000 0.000000
# 3 -0.003564 -0.015421 0.021778 0.000000 0.000000 0.000000
# 4 0.000000 0.000000 0.000000 0.047341 0.000000 0.000000
# 5 0.000000 0.000000 0.000000 0.000000 0.059115 0.000000
# 6 0.000000 0.000000 0.000000 0.000000 0.000000 0.056064
#
#
# Mechanical properties :
#
#
# Convention : Reuss Voigt Hill
#
# Bulk Modulus (GPa) = 55.16654 58.48619 56.82636
# Shear Modulus (GPa) = 18.30527 20.02303 19.16415
#
# Velocity S-wave (km/s) = 3.33529 3.48828 3.41264
# Velocity P-wave (km/s) = 6.95393 7.19488 7.07543
#
# Compressibility (1/GPa) = 0.01812693
#
# Stress axis : x y z
#
# Youngs Moduli (GPa) = 65.01397 41.33009 45.91706
#
# Poissons Ratio (x) = 0.10868 0.16363
# Poissons Ratio (y) = 0.17095 0.70809
# Poissons Ratio (z) = 0.23168 0.63735
#
# Static dielectric constant tensor:
#      x y z
#    x 1.552600 0.000000 0.000000 
#    y 0.000000 1.581100 0.000000 
#    z 0.000000 0.000000 1.539860 
# 
# From -- ./inp_files/57657.got.cif
#   From: 2010.05.17/outbox.cif.g08.bks.cpg/sg74_29_cif.got.tgz:57657.got - 2010.06.03 17:57:02.
