data_PCOD9534454
_publ_section_title
;
Structure prediction by ZEFSAII (Michael W. Deem and Ramdas Pophale) SiO2 
 PCOD9534454
Probable space group: I M M A
;
_chemical_formula_sum "Si O2"
_cell_formula_units_Z 112
_cell_length_a 16.556988
_cell_length_b 14.830445
_cell_length_c 23.393434
_cell_angle_alpha 90.000000
_cell_angle_beta 90.000000
_cell_angle_gamma 90.000000
_cell_volume 5744.199233
_symmetry_space_group_name_H-M "I M M A"
_symmetry_group_IT_number 74
_symmetry_cell_setting 'orthorhombic'
loop_
_space_group_symop_operation_xyz
x,y,z
-x,1/2-y,z
x,-y,-z
-x,1/2+y,-z
-x,-y,-z
x,1/2+y,-z
-x,y,z
x,1/2-y,z
1/2+x,1/2+y,1/2+z
1/2-x,-y,1/2+z
1/2+x,1/2-y,1/2-z
1/2-x,y,1/2-z
1/2-x,1/2-y,1/2-z
1/2+x,y,1/2-z
1/2-x,1/2+y,1/2+z
1/2+x,-y,1/2+z
loop_
_atom_site_type_symbol
_atom_site_label
_atom_site_fract_x
_atom_site_fract_y
_atom_site_fract_z
Si Si1 0.096533 0.348924 0.100119
Si Si2 0.846783 0.534618 0.360976
Si Si3 0.861157 0.149026 0.531339
Si Si4 0.848871 0.145613 0.750020
Si Si5 0.178045 0.897208 0.017666
Si Si6 0.847752 0.042732 0.863769
Si Si7 0.404910 0.351796 0.098624
O O1 0.121491 0.250000 0.123023
O O2 0.125977 0.438457 0.132811
O O3 0.000000 0.352036 0.098646
O O4 0.130323 0.356992 0.035545
O O5 0.882199 0.581178 0.417950
O O6 0.874817 0.588218 0.305094
O O7 0.749853 0.543860 0.363808
O O8 0.866280 0.429228 0.363171
O O9 0.890029 0.250000 0.544683
O O10 0.763575 0.150024 0.527133
O O11 0.891190 0.124796 0.468188
O O12 0.874271 0.250000 0.747402
O O13 0.750000 0.145744 0.750000
O O14 0.875725 0.095879 0.807920
O O15 0.129694 0.906776 0.077016
O O16 0.198666 0.000000 0.000000
O O17 0.500000 0.350310 0.109446
O O18 0.372353 0.250000 0.106966
#
# Coordination Sequence:
#
# PCOD9534454 Si02
#       7
#    16  16  16  16  16  16  16
#     4  10  20  33  50  73 102 136 170 206 252 300
#     4  10  19  33  53  77 102 132 167 205 249 295
#     4  10  18  29  49  77 106 133 164 202 246 299
#     4   9  18  34  56  80 104 130 164 206 248 294
#     4   9  17  29  48  75 104 133 166 204 248 297
#     4   9  19  33  52  77 103 132 168 206 248 296
#     4  10  21  35  51  73 101 134 169 206 252 300
#
# _framework density 19.49793
#
# number of rings (size 3 to 8) (size 9 to 14) (size 15 to 20)
#    0.000    2.429    0.000    3.857    0.000    9.429 
#    0.000    1.429    0.000    6.857    0.000    0.000 
#    0.000    0.000    0.000    0.000    0.000    0.000 
#
# Total GULP energy -312399.580325 kJ/mol
# GULP energy per Si atom -5578.563934 kJ/mol
# Density = 1.945355 g / cm^3
# Si number density = 19.497930 Si / 1000 Ang^3
#
#
#
# Elastic Constant Matrix: (Units=GPa)
#
#
# Indices 1 2 3 4 5 6 
#
# 1 10.9014 7.6098 3.8556 0.0000 0.0000 0.0000
# 2 7.6098 144.7469 83.5488 0.0000 0.0000 0.0000
# 3 3.8556 83.5488 101.9025 0.0000 0.0000 0.0000
# 4 0.0000 0.0000 0.0000 28.7101 0.0000 0.0000
# 5 0.0000 0.0000 0.0000 0.0000 -17.9047 0.0000
# 6 0.0000 0.0000 0.0000 0.0000 0.0000 10.1941
#
#
#
# Elastic Compliance Matrix: (Units=1/GPa)
#
#
# Indices 1 2 3 4 5 6 
#
# 1 0.095275 -0.005559 0.000953 0.000000 0.000000 0.000000
# 2 -0.005559 0.013440 -0.010809 0.000000 0.000000 0.000000
# 3 0.000953 -0.010809 0.018639 0.000000 0.000000 0.000000
# 4 0.000000 0.000000 0.000000 0.034831 0.000000 0.000000
# 5 0.000000 0.000000 0.000000 0.000000 -0.055851 0.000000
# 6 0.000000 0.000000 0.000000 0.000000 0.000000 0.098096
#
#
# Mechanical properties :
#
#
# Convention : Reuss Voigt Hill
#
# Bulk Modulus (GPa) = 10.36009 49.73100 30.04554
# Shear Modulus (GPa) = 18.69622 15.03570 16.86596
#
# Velocity S-wave (km/s) = 3.09994 2.77996 2.94430
# Velocity P-wave (km/s) = 4.25885 5.98877 5.19631
#
# Compressibility (1/GPa) = 0.09652423
#
# Stress axis : x y z
#
# Youngs Moduli (GPa) = 10.49595 74.40618 53.65025
#
# Poissons Ratio (x) = 0.41361 -0.05112
# Poissons Ratio (y) = 0.05835 0.57989
# Poissons Ratio (z) = -0.01000 0.80424
#
# Static dielectric constant tensor:
#      x y z
#    x 1.677160 0.000000 0.000000 
#    y 0.000000 1.693460 0.000000 
#    z 0.000000 0.000000 1.685060 
# 
# From -- ./inp_files/60197.got.cif
#   From: 2010.05.17/outbox.cif.g08.bks.cpg/sg74_31_cif.got.tgz:60197.got - 2010.06.03 17:57:02.
