data_PCOD9534427
_publ_section_title
;
Structure prediction by ZEFSAII (Michael W. Deem and Ramdas Pophale) SiO2 
 PCOD9534427
Probable space group: I M M A
;
_chemical_formula_sum "Si O2"
_cell_formula_units_Z 92
_cell_length_a 26.162352
_cell_length_b 7.623012
_cell_length_c 22.461821
_cell_angle_alpha 90.000000
_cell_angle_beta 90.000000
_cell_angle_gamma 90.000000
_cell_volume 4479.694009
_symmetry_space_group_name_H-M "I M M A"
_symmetry_group_IT_number 74
_symmetry_cell_setting 'orthorhombic'
loop_
_space_group_symop_operation_xyz
x,y,z
-x,1/2-y,z
x,-y,-z
-x,1/2+y,-z
-x,-y,-z
x,1/2+y,-z
-x,y,z
x,1/2-y,z
1/2+x,1/2+y,1/2+z
1/2-x,-y,1/2+z
1/2+x,1/2-y,1/2-z
1/2-x,y,1/2-z
1/2-x,1/2-y,1/2-z
1/2+x,y,1/2-z
1/2-x,1/2+y,1/2+z
1/2+x,-y,1/2+z
loop_
_atom_site_type_symbol
_atom_site_label
_atom_site_fract_x
_atom_site_fract_y
_atom_site_fract_z
Si Si1 0.316439 0.452142 0.069455
Si Si2 0.500000 0.250000 0.061263
Si Si3 0.203355 0.041513 0.929886
Si Si4 0.102730 0.534667 0.137135
Si Si5 0.442733 0.037471 0.757190
Si Si6 0.925279 0.452162 0.606308
Si Si7 0.000000 0.039798 0.930144
O O1 0.328888 0.250000 0.075997
O O2 0.258982 0.481516 0.092417
O O3 0.364613 0.550478 0.096316
O O4 0.313890 0.500000 0.000000
O O5 0.544612 0.406831 0.066582
O O6 0.203471 0.250000 0.924800
O O7 0.154652 0.972720 0.893775
O O8 0.197884 0.000000 0.000000
O O9 0.103220 0.750000 0.135848
O O10 0.095671 0.479494 0.205741
O O11 0.052244 0.477074 0.100923
O O12 0.500000 0.983387 0.739536
O O13 0.441599 0.250000 0.757350
O O14 0.434302 0.987281 0.825401
O O15 0.943368 0.250000 0.598217
O O16 0.000000 0.250000 0.922649
O O17 0.000000 0.000000 0.000000
#
# Coordination Sequence:
#
# PCOD9534427 Si02
#       7
#    16   4  16  16  16  16   8
#     4  11  22  40  64  86 115 152 194 243 295 357
#     4  12  22  38  62  92 126 158 192 234 286 354
#     4  10  19  33  55  81 111 151 199 247 296 358
#     4   9  17  30  52  81 109 149 202 244 290 354
#     4   9  16  31  57  81 109 152 200 240 288 351
#     4  11  22  39  65  91 122 158 198 242 292 355
#     4  10  18  29  48  73 111 151 188 242 298 348
#
# _framework density 20.537116999999999
#
# number of rings (size 3 to 8) (size 9 to 14) (size 15 to 20)
#    0.000    1.913    2.609    3.913    0.000    0.000 
#    0.000    2.174    7.652    5.217    0.000    0.000 
#    0.000    0.000    0.000    0.000    0.000    0.000 
#
# Total GULP energy -256281.922478 kJ/mol
# GULP energy per Si atom -5571.346141 kJ/mol
# Density = 2.049037 g / cm^3
# Si number density = 20.537117 Si / 1000 Ang^3
#
#
#
# Elastic Constant Matrix: (Units=GPa)
#
#
# Indices 1 2 3 4 5 6 
#
# 1 168.7859 18.5895 30.8550 0.0000 0.0000 0.0000
# 2 18.5895 92.7024 3.2621 0.0000 0.0000 0.0000
# 3 30.8550 3.2621 38.2635 0.0000 0.0000 0.0000
# 4 0.0000 0.0000 0.0000 11.7375 0.0000 0.0000
# 5 0.0000 0.0000 0.0000 0.0000 40.8549 0.0000
# 6 0.0000 0.0000 0.0000 0.0000 0.0000 -149.0555
#
#
#
# Elastic Compliance Matrix: (Units=1/GPa)
#
#
# Indices 1 2 3 4 5 6 
#
# 1 0.007085 -0.001223 -0.005609 0.000000 0.000000 0.000000
# 2 -0.001223 0.011031 0.000046 0.000000 0.000000 0.000000
# 3 -0.005609 0.000046 0.030653 0.000000 0.000000 0.000000
# 4 0.000000 0.000000 0.000000 0.085197 0.000000 0.000000
# 5 0.000000 0.000000 0.000000 0.000000 0.024477 0.000000
# 6 0.000000 0.000000 0.000000 0.000000 0.000000 -0.006709
#
#
# Mechanical properties :
#
#
# Convention : Reuss Voigt Hill
#
# Bulk Modulus (GPa) = 28.41149 45.01834 36.71491
# Shear Modulus (GPa) = 28.24250 -2.82294 12.70978
#
# Velocity S-wave (km/s) = 3.71238 -1.17369 2.49041
# Velocity P-wave (km/s) = 5.67802 4.48680 5.11719
#
# Compressibility (1/GPa) = 0.03519703
#
# Stress axis : x y z
#
# Youngs Moduli (GPa) = 141.14939 90.65449 32.62287
#
# Poissons Ratio (x) = 0.11090 0.18297
# Poissons Ratio (y) = 0.17267 -0.00150
# Poissons Ratio (z) = 0.79166 -0.00417
#
# Static dielectric constant tensor:
#      x y z
#    x 1.749510 0.000000 0.000000 
#    y 0.000000 1.728380 0.000000 
#    z 0.000000 0.000000 1.725210 
# 
# From -- ./inp_files/61972.got.cif
#   From: 2010.05.17/outbox.cif.g08.bks.cpg/sg74_31_cif.got.tgz:61972.got - 2010.06.03 17:57:02.
