data_PCOD9534034
_publ_section_title
;
Structure prediction by ZEFSAII (Michael W. Deem and Ramdas Pophale) SiO2 
 PCOD9534034
Probable space group: I M M A
;
_chemical_formula_sum "Si O2"
_cell_formula_units_Z 128
_cell_length_a 17.691803
_cell_length_b 25.916154
_cell_length_c 17.155620
_cell_angle_alpha 90.000000
_cell_angle_beta 90.000000
_cell_angle_gamma 90.000000
_cell_volume 7865.911662
_symmetry_space_group_name_H-M "I M M A"
_symmetry_group_IT_number 74
_symmetry_cell_setting 'orthorhombic'
loop_
_space_group_symop_operation_xyz
x,y,z
-x,1/2-y,z
x,-y,-z
-x,1/2+y,-z
-x,-y,-z
x,1/2+y,-z
-x,y,z
x,1/2-y,z
1/2+x,1/2+y,1/2+z
1/2-x,-y,1/2+z
1/2+x,1/2-y,1/2-z
1/2-x,y,1/2-z
1/2-x,1/2-y,1/2-z
1/2+x,y,1/2-z
1/2-x,1/2+y,1/2+z
1/2+x,-y,1/2+z
loop_
_atom_site_type_symbol
_atom_site_label
_atom_site_fract_x
_atom_site_fract_y
_atom_site_fract_z
Si Si1 0.910651 0.689221 0.938792
Si Si2 0.166648 0.918647 0.648308
Si Si3 0.660616 0.440045 0.981504
Si Si4 0.334481 0.548043 0.615743
Si Si5 0.586942 0.871563 0.714329
Si Si6 0.325233 0.063064 0.695571
Si Si7 0.822629 0.894831 0.035588
Si Si8 0.914207 0.524168 0.328699
O O1 0.900250 0.750000 0.949134
O O2 0.895553 0.672415 0.849102
O O3 0.000000 0.676721 0.953028
O O4 0.856207 0.655546 0.993846
O O5 0.129646 0.917299 0.562339
O O6 0.256568 0.921150 0.635936
O O7 0.139132 0.876865 0.709811
O O8 0.140552 0.974780 0.678655
O O9 0.732520 0.405195 0.961549
O O10 0.605628 0.446789 0.908930
O O11 0.684941 0.500000 0.000000
O O12 0.399533 0.575781 0.665123
O O13 0.320167 0.490577 0.646167
O O14 0.349153 0.559600 0.524594
O O15 0.500000 0.867471 0.738400
O O16 0.250000 0.069881 0.750000
O O17 0.342777 0.102707 0.626393
O O18 0.393716 0.059109 0.755671
O O19 0.000000 0.506536 0.329203
#
# Coordination Sequence:
#
# PCOD9534034 Si02
#       8
#    16  16  16  16  16  16  16  16
#     4   9  20  38  55  72  98 127 159 208 265 310
#     4  10  17  28  45  65  96 134 174 200 232 279
#     4   9  18  31  47  69  99 140 172 198 234 285
#     4  10  18  30  46  68 101 140 166 194 236 288
#     4  10  18  28  47  72  94 126 166 202 245 295
#     4  12  18  29  47  69 102 137 167 200 241 285
#     4  10  19  31  53  73  92 127 174 198 245 305
#     4  11  21  29  41  67 102 139 172 204 237 274
#
# _framework density 16.272748
#
# number of rings (size 3 to 8) (size 9 to 14) (size 15 to 20)
#    0.000    1.875    3.750    2.625    0.000    3.250 
#    0.000    0.000    0.000   19.500    0.000    0.000 
#    0.000    0.500    0.000    0.250    0.000    0.000 
#
# Total GULP energy -356289.659945 kJ/mol
# GULP energy per Si atom -5567.025937 kJ/mol
# Density = 1.623571 g / cm^3
# Si number density = 16.272748 Si / 1000 Ang^3
#
#
#
# Elastic Constant Matrix: (Units=GPa)
#
#
# Indices 1 2 3 4 5 6 
#
# 1 41.1763 21.5089 13.2062 0.0000 0.0000 0.0000
# 2 21.5089 52.2118 25.7527 0.0000 0.0000 0.0000
# 3 13.2062 25.7527 110.6260 0.0000 0.0000 0.0000
# 4 0.0000 0.0000 0.0000 14.5570 0.0000 0.0000
# 5 0.0000 0.0000 0.0000 0.0000 20.5770 0.0000
# 6 0.0000 0.0000 0.0000 0.0000 0.0000 13.0101
#
#
#
# Elastic Compliance Matrix: (Units=1/GPa)
#
#
# Indices 1 2 3 4 5 6 
#
# 1 0.031011 -0.012369 -0.000822 0.000000 0.000000 0.000000
# 2 -0.012369 0.026571 -0.004709 0.000000 0.000000 0.000000
# 3 -0.000822 -0.004709 0.010234 0.000000 0.000000 0.000000
# 4 0.000000 0.000000 0.000000 0.068695 0.000000 0.000000
# 5 0.000000 0.000000 0.000000 0.000000 0.048598 0.000000
# 6 0.000000 0.000000 0.000000 0.000000 0.000000 0.076863
#
#
# Mechanical properties :
#
#
# Convention : Reuss Voigt Hill
#
# Bulk Modulus (GPa) = 31.23618 36.10554 33.67086
# Shear Modulus (GPa) = 16.21034 19.19858 17.70446
#
# Velocity S-wave (km/s) = 3.15963 3.43855 3.30204
# Velocity P-wave (km/s) = 5.70509 6.16447 5.93923
#
# Compressibility (1/GPa) = 0.03201416
#
# Stress axis : x y z
#
# Youngs Moduli (GPa) = 32.24669 37.63502 97.71514
#
# Poissons Ratio (x) = 0.46552 0.08037
# Poissons Ratio (y) = 0.39887 0.46013
# Poissons Ratio (z) = 0.02652 0.17722
#
# Static dielectric constant tensor:
#      x y z
#    x 1.558610 0.000000 0.000000 
#    y 0.000000 1.534820 0.000000 
#    z 0.000000 0.000000 1.621820 
# 
# From -- ./inp_files/45674.got.cif
#   From: 2010.05.17/outbox.cif.g08.bks.cpg/sg74_23_cif.got.tgz:45674.got - 2010.06.03 17:57:02.
