data_PCOD9534360
_publ_section_title
;
Structure prediction by ZEFSAII (Michael W. Deem and Ramdas Pophale) SiO2 
 PCOD9534360
Probable space group: I M M A
;
_chemical_formula_sum "Si O2"
_cell_formula_units_Z 80
_cell_length_a 10.388246
_cell_length_b 14.390520
_cell_length_c 37.398602
_cell_angle_alpha 90.000000
_cell_angle_beta 90.000000
_cell_angle_gamma 90.000000
_cell_volume 5590.801602
_symmetry_space_group_name_H-M "I M M A"
_symmetry_group_IT_number 74
_symmetry_cell_setting 'orthorhombic'
loop_
_space_group_symop_operation_xyz
x,y,z
-x,1/2-y,z
x,-y,-z
-x,1/2+y,-z
-x,-y,-z
x,1/2+y,-z
-x,y,z
x,1/2-y,z
1/2+x,1/2+y,1/2+z
1/2-x,-y,1/2+z
1/2+x,1/2-y,1/2-z
1/2-x,y,1/2-z
1/2-x,1/2-y,1/2-z
1/2+x,y,1/2-z
1/2-x,1/2+y,1/2+z
1/2+x,-y,1/2+z
loop_
_atom_site_type_symbol
_atom_site_label
_atom_site_fract_x
_atom_site_fract_y
_atom_site_fract_z
Si Si1 0.000000 0.137805 0.279934
Si Si2 0.852391 0.561102 0.589025
Si Si3 0.350183 0.042327 0.539756
Si Si4 0.358983 0.250000 0.043946
Si Si5 0.773971 0.862806 0.665533
Si Si6 0.000000 0.637404 0.801640
Si Si7 0.645822 0.250000 0.516305
O O1 0.874003 0.113542 0.302859
O O2 0.000000 0.102702 0.239315
O O3 0.000000 0.250000 0.277624
O O4 0.749561 0.497881 0.568327
O O5 0.850302 0.659328 0.568337
O O6 0.814020 0.584654 0.629588
O O7 0.000000 0.525681 0.587433
O O8 0.500000 0.018385 0.547842
O O9 0.339206 0.153854 0.537513
O O10 0.322984 0.000000 0.500000
O O11 0.500000 0.250000 0.026125
O O12 0.247078 0.250000 0.015391
O O13 0.781169 0.750000 0.659846
O O14 0.630317 0.887809 0.677857
O O15 0.000000 0.750000 0.799922
O O16 0.500000 0.250000 0.501566
#
# Coordination Sequence:
#
# PCOD9534360 Si02
#       7
#     8  16  16   8  16   8   8
#     4   9  16  28  46  58  89 127 161 193 229 278
#     4  11  21  32  46  69  96 127 162 202 239 274
#     4  10  21  35  52  71  92 120 155 196 242 286
#     4  10  20  30  48  68  93 124 161 198 239 276
#     4  10  18  29  43  64  93 125 161 199 236 270
#     4   9  18  28  40  66  87 123 167 197 225 274
#     4  10  20  38  52  70  92 119 152 196 247 288
#
# _framework density 14.309218
#
# number of rings (size 3 to 8) (size 9 to 14) (size 15 to 20)
#    0.000    2.000    4.000    0.600    1.400    3.600 
#    0.000    0.000    0.000    0.000    0.000    0.000 
#    0.000    0.000    0.000    5.400    0.000    0.100 
#
# Total GULP energy -222943.702678 kJ/mol
# GULP energy per Si atom -5573.592567 kJ/mol
# Density = 1.427665 g / cm^3
# Si number density = 14.309218 Si / 1000 Ang^3
#
#
#
# Elastic Constant Matrix: (Units=GPa)
#
#
# Indices 1 2 3 4 5 6 
#
# 1 133.3085 32.2689 68.4919 0.0000 0.0000 0.0000
# 2 32.2689 51.1298 21.9938 0.0000 0.0000 0.0000
# 3 68.4919 21.9938 85.7959 0.0000 0.0000 0.0000
# 4 0.0000 0.0000 0.0000 -0.8234 0.0000 0.0000
# 5 0.0000 0.0000 0.0000 0.0000 9.8990 0.0000
# 6 0.0000 0.0000 0.0000 0.0000 0.0000 1.6234
#
#
#
# Elastic Compliance Matrix: (Units=1/GPa)
#
#
# Indices 1 2 3 4 5 6 
#
# 1 0.013537 -0.004377 -0.009684 0.000000 0.000000 0.000000
# 2 -0.004377 0.023398 -0.002503 0.000000 0.000000 0.000000
# 3 -0.009684 -0.002503 0.020028 0.000000 0.000000 0.000000
# 4 0.000000 0.000000 0.000000 -1.214428 0.000000 -0.000003
# 5 0.000000 0.000000 0.000000 0.000000 0.101020 0.000000
# 6 0.000000 0.000000 0.000000 -0.000003 0.000000 0.615981
#
#
# Mechanical properties :
#
#
# Convention : Reuss Voigt Hill
#
# Bulk Modulus (GPa) = 41.95980 57.30482 49.63231
# Shear Modulus (GPa) = -12.51911 11.97177 -0.27367
#
# Velocity S-wave (km/s) = -2.96108 2.89562 -0.43780
# Velocity P-wave (km/s) = 4.20674 7.16337 5.87412
#
# Compressibility (1/GPa) = 0.02383234
#
# Stress axis : x y z
#
# Youngs Moduli (GPa) = 73.87343 42.73937 49.92900
#
# Poissons Ratio (x) = 0.18709 0.48353
# Poissons Ratio (y) = 0.32338 0.12499
# Poissons Ratio (z) = 0.71541 0.10700
#
# Static dielectric constant tensor:
#      x y z
#    x 1.491750 0.000000 0.000000 
#    y 0.000000 1.438970 0.000000 
#    z 0.000000 0.000000 1.455810 
# 
# From -- ./inp_files/65880.got.cif
#   From: 2010.05.17/outbox.cif.g08.bks.cpg/sg74_33_cif.got.tgz:65880.got - 2010.06.03 17:57:02.
