data_PCOD9534556
_publ_section_title
;
Structure prediction by ZEFSAII (Michael W. Deem and Ramdas Pophale) SiO2 
 PCOD9534556
Probable space group: I M M A
;
_chemical_formula_sum "Si O2"
_cell_formula_units_Z 104
_cell_length_a 27.943135
_cell_length_b 9.013867
_cell_length_c 24.562445
_cell_angle_alpha 90.000000
_cell_angle_beta 90.000000
_cell_angle_gamma 90.000000
_cell_volume 6186.683088
_symmetry_space_group_name_H-M "I M M A"
_symmetry_group_IT_number 74
_symmetry_cell_setting 'orthorhombic'
loop_
_space_group_symop_operation_xyz
x,y,z
-x,1/2-y,z
x,-y,-z
-x,1/2+y,-z
-x,-y,-z
x,1/2+y,-z
-x,y,z
x,1/2-y,z
1/2+x,1/2+y,1/2+z
1/2-x,-y,1/2+z
1/2+x,1/2-y,1/2-z
1/2-x,y,1/2-z
1/2-x,1/2-y,1/2-z
1/2+x,y,1/2-z
1/2-x,1/2+y,1/2+z
1/2+x,-y,1/2+z
loop_
_atom_site_type_symbol
_atom_site_label
_atom_site_fract_x
_atom_site_fract_y
_atom_site_fract_z
Si Si1 0.598112 0.429377 0.059992
Si Si2 0.180552 0.573642 0.646618
Si Si3 0.361070 0.925748 0.734028
Si Si4 0.944716 0.429258 0.825919
Si Si5 0.941703 0.579643 0.054341
Si Si6 0.271428 0.919871 0.311615
Si Si7 0.000000 0.429880 0.560966
O O1 0.591711 0.250000 0.056122
O O2 0.643951 0.460403 0.097907
O O3 0.549719 0.504683 0.084149
O O4 0.605052 0.500000 0.000000
O O5 0.190490 0.750000 0.645551
O O6 0.154328 0.541108 0.704005
O O7 0.230680 0.487197 0.649558
O O8 0.365291 0.750000 0.728586
O O9 0.410018 0.004654 0.718556
O O10 0.319579 0.985932 0.694140
O O11 0.942515 0.250000 0.826213
O O12 0.928697 0.482040 0.886329
O O13 0.000000 0.471132 0.817713
O O14 0.926590 0.750000 0.051938
O O15 0.000000 0.577570 0.053827
O O16 0.924726 0.500000 0.000000
O O17 0.282113 0.750000 0.325816
O O18 0.250000 0.922147 0.250000
O O19 0.000000 0.500000 0.500000
O O20 0.000000 0.250000 0.559916
#
# Coordination Sequence:
#
# PCOD9534556 Si02
#       7
#    16  16  16  16  16  16   8
#     4  10  19  33  52  73 100 133 168 209 256 302
#     4   9  19  34  51  73  99 127 160 202 249 295
#     4  10  19  32  50  72  98 130 166 201 241 293
#     4   9  18  32  47  66  98 133 161 195 241 287
#     4   8  14  25  42  63  86 115 151 190 228 266
#     4   9  17  30  51  75  96 120 153 195 237 282
#     4  10  18  30  48  70  96 128 168 208 247 294
#
# _framework density 16.810299000000001
#
# number of rings (size 3 to 8) (size 9 to 14) (size 15 to 20)
#    0.000    2.769    0.000    3.923    0.000    4.615 
#    1.385    1.538    0.000    0.923    0.000    6.462 
#    0.000    0.000    0.000    0.000    0.000    0.000 
#
# Total GULP energy -289597.671071 kJ/mol
# GULP energy per Si atom -5569.185982 kJ/mol
# Density = 1.677204 g / cm^3
# Si number density = 16.810299 Si / 1000 Ang^3
#
#
#
# Elastic Constant Matrix: (Units=GPa)
#
#
# Indices 1 2 3 4 5 6 
#
# 1 81.2986 38.1084 36.3439 0.0000 0.0000 0.0000
# 2 38.1084 56.9928 31.9066 0.0000 0.0000 0.0000
# 3 36.3439 31.9066 46.8054 0.0000 0.0000 0.0000
# 4 0.0000 0.0000 0.0000 23.1683 0.0000 0.0000
# 5 0.0000 0.0000 0.0000 0.0000 25.1399 0.0000
# 6 0.0000 0.0000 0.0000 0.0000 0.0000 28.4869
#
#
#
# Elastic Compliance Matrix: (Units=1/GPa)
#
#
# Indices 1 2 3 4 5 6 
#
# 1 0.020819 -0.007876 -0.010796 0.000000 0.000000 0.000000
# 2 -0.007876 0.031355 -0.015258 0.000000 0.000000 0.000000
# 3 -0.010796 -0.015258 0.040150 0.000000 0.000000 0.000000
# 4 0.000000 0.000000 0.000000 0.043162 0.000000 0.000000
# 5 0.000000 0.000000 0.000000 0.000000 0.039777 0.000000
# 6 0.000000 0.000000 0.000000 0.000000 0.000000 0.035104
#
#
# Mechanical properties :
#
#
# Convention : Reuss Voigt Hill
#
# Bulk Modulus (GPa) = 40.88087 44.20163 42.54125
# Shear Modulus (GPa) = 17.45917 20.60821 19.03369
#
# Velocity S-wave (km/s) = 3.22623 3.50512 3.36856
# Velocity P-wave (km/s) = 6.18464 6.53702 6.36327
#
# Compressibility (1/GPa) = 0.02446132
#
# Stress axis : x y z
#
# Youngs Moduli (GPa) = 48.03352 31.89310 24.90682
#
# Poissons Ratio (x) = 0.25120 0.26890
# Poissons Ratio (y) = 0.37833 0.38003
# Poissons Ratio (z) = 0.51859 0.48663
#
# Static dielectric constant tensor:
#      x y z
#    x 1.575230 0.000000 0.000000 
#    y 0.000000 1.567420 0.000000 
#    z 0.000000 0.000000 1.576190 
# 
# From -- ./inp_files/62332.got.cif
#   From: 2010.05.17/outbox.cif.g08.bks.cpg/sg74_32_cif.got.tgz:62332.got - 2010.06.03 17:57:02.
