data_PCOD9534759
_publ_section_title
;
Structure prediction by ZEFSAII (Michael W. Deem and Ramdas Pophale) SiO2 
 PCOD9534759
Probable space group: I M M A
;
_chemical_formula_sum "Si O2"
_cell_formula_units_Z 96
_cell_length_a 17.898866
_cell_length_b 19.953667
_cell_length_c 16.804371
_cell_angle_alpha 90.000000
_cell_angle_beta 90.000000
_cell_angle_gamma 90.000000
_cell_volume 6001.647693
_symmetry_space_group_name_H-M "I M M A"
_symmetry_group_IT_number 74
_symmetry_cell_setting 'orthorhombic'
loop_
_space_group_symop_operation_xyz
x,y,z
-x,1/2-y,z
x,-y,-z
-x,1/2+y,-z
-x,-y,-z
x,1/2+y,-z
-x,y,z
x,1/2-y,z
1/2+x,1/2+y,1/2+z
1/2-x,-y,1/2+z
1/2+x,1/2-y,1/2-z
1/2-x,y,1/2-z
1/2-x,1/2-y,1/2-z
1/2+x,y,1/2-z
1/2-x,1/2+y,1/2+z
1/2+x,-y,1/2+z
loop_
_atom_site_type_symbol
_atom_site_label
_atom_site_fract_x
_atom_site_fract_y
_atom_site_fract_z
Si Si1 0.587467 0.070248 0.950363
Si Si2 0.414549 0.824663 0.779982
Si Si3 0.775508 0.949322 0.927448
Si Si4 0.412981 0.454520 0.324440
Si Si5 0.174442 0.671763 0.557804
Si Si6 0.683597 0.532755 0.197743
O O1 0.500000 0.074681 0.930499
O O2 0.638749 0.070208 0.871695
O O3 0.614367 0.131829 0.004470
O O4 0.596709 0.000000 0.000000
O O5 0.500000 0.831632 0.811270
O O6 0.407188 0.750000 0.746016
O O7 0.404411 0.881380 0.715045
O O8 0.357680 0.830964 0.852601
O O9 0.861083 0.955354 0.901531
O O10 0.747917 0.874725 0.947517
O O11 0.726918 0.974334 0.851422
O O12 0.761311 0.000000 0.000000
O O13 0.500000 0.468229 0.337855
O O14 0.376968 0.504060 0.259177
O O15 0.183906 0.750000 0.536696
O O16 0.750000 0.566454 0.250000
#
# Coordination Sequence:
#
# PCOD9534759 Si02
#       6
#    16  16  16  16  16  16
#     4  11  19  31  53  77 104 136 168 203 255 309
#     4   9  17  29  45  70 107 137 156 187 236 298
#     4  11  20  35  51  71 102 135 169 207 251 297
#     4  10  20  32  50  75  99 128 168 210 249 294
#     4  11  20  31  49  76 106 136 168 199 244 297
#     4  10  18  31  52  74 100 130 164 207 250 300
#
# _framework density 15.995608000000001
#
# number of rings (size 3 to 8) (size 9 to 14) (size 15 to 20)
#    0.000    1.667    5.000    1.000    0.000    4.667 
#    0.000    1.667    0.000    0.500    0.000    0.000 
#    0.000    0.000    0.000    0.000    0.000    0.000 
#
# Total GULP energy -267444.074809 kJ/mol
# GULP energy per Si atom -5571.751559 kJ/mol
# Density = 1.595920 g / cm^3
# Si number density = 15.995608 Si / 1000 Ang^3
#
#
#
# Elastic Constant Matrix: (Units=GPa)
#
#
# Indices 1 2 3 4 5 6 
#
# 1 105.9402 22.5724 34.5977 0.0000 0.0000 0.0000
# 2 22.5724 61.5371 18.5496 0.0000 0.0000 0.0000
# 3 34.5977 18.5496 46.4695 0.0000 0.0000 0.0000
# 4 0.0000 0.0000 0.0000 13.8850 0.0000 0.0000
# 5 0.0000 0.0000 0.0000 0.0000 29.6479 0.0000
# 6 0.0000 0.0000 0.0000 0.0000 0.0000 6.7335
#
#
#
# Elastic Compliance Matrix: (Units=1/GPa)
#
#
# Indices 1 2 3 4 5 6 
#
# 1 0.012696 -0.002055 -0.008632 0.000000 0.000000 0.000000
# 2 -0.002055 0.018806 -0.005977 0.000000 0.000000 0.000000
# 3 -0.008632 -0.005977 0.030332 0.000000 0.000000 0.000000
# 4 0.000000 0.000000 0.000000 0.072020 0.000000 0.000000
# 5 0.000000 0.000000 0.000000 0.000000 0.033729 0.000000
# 6 0.000000 0.000000 0.000000 0.000000 0.000000 0.148511
#
#
# Mechanical properties :
#
#
# Convention : Reuss Voigt Hill
#
# Bulk Modulus (GPa) = 35.08041 40.59846 37.83943
# Shear Modulus (GPa) = 13.93047 19.26841 16.59944
#
# Velocity S-wave (km/s) = 2.95429 3.47451 3.22491
# Velocity P-wave (km/s) = 5.79793 6.44456 6.12978
#
# Compressibility (1/GPa) = 0.02850594
#
# Stress axis : x y z
#
# Youngs Moduli (GPa) = 78.76323 53.17501 32.96813
#
# Poissons Ratio (x) = 0.10927 0.28459
# Poissons Ratio (y) = 0.16186 0.19705
# Poissons Ratio (z) = 0.67991 0.31782
#
# Static dielectric constant tensor:
#      x y z
#    x 1.571390 0.000000 0.000000 
#    y 0.000000 1.521960 0.000000 
#    z 0.000000 0.000000 1.532270 
# 
# From -- ./inp_files/44095.got.cif
#   From: 2010.05.17/outbox.cif.g08.bks.cpg/sg74_23_cif.got.tgz:44095.got - 2010.06.03 17:57:02.
