data_PCOD9534551
_publ_section_title
;
Structure prediction by ZEFSAII (Michael W. Deem and Ramdas Pophale) SiO2 
 PCOD9534551
Probable space group: I M M A
;
_chemical_formula_sum "Si O2"
_cell_formula_units_Z 104
_cell_length_a 28.377063
_cell_length_b 8.871089
_cell_length_c 24.661522
_cell_angle_alpha 90.000000
_cell_angle_beta 90.000000
_cell_angle_gamma 90.000000
_cell_volume 6208.179374
_symmetry_space_group_name_H-M "I M M A"
_symmetry_group_IT_number 74
_symmetry_cell_setting 'orthorhombic'
loop_
_space_group_symop_operation_xyz
x,y,z
-x,1/2-y,z
x,-y,-z
-x,1/2+y,-z
-x,-y,-z
x,1/2+y,-z
-x,y,z
x,1/2-y,z
1/2+x,1/2+y,1/2+z
1/2-x,-y,1/2+z
1/2+x,1/2-y,1/2-z
1/2-x,y,1/2-z
1/2-x,1/2-y,1/2-z
1/2+x,y,1/2-z
1/2-x,1/2+y,1/2+z
1/2+x,-y,1/2+z
loop_
_atom_site_type_symbol
_atom_site_label
_atom_site_fract_x
_atom_site_fract_y
_atom_site_fract_z
Si Si1 0.269135 0.575695 0.687840
Si Si2 0.500000 0.568016 0.938935
Si Si3 0.858515 0.568595 0.233536
Si Si4 0.177157 0.931260 0.351955
Si Si5 0.946532 0.568355 0.168269
Si Si6 0.597911 0.432263 0.939614
Si Si7 0.557352 0.422346 0.444848
O O1 0.275662 0.750000 0.674059
O O2 0.250000 0.566341 0.750000
O O3 0.318767 0.491547 0.692537
O O4 0.229125 0.502918 0.650037
O O5 0.500000 0.750000 0.939732
O O6 0.549239 0.503135 0.916139
O O7 0.500000 0.500000 0.000000
O O8 0.856758 0.750000 0.232755
O O9 0.846987 0.521341 0.294958
O O10 0.909588 0.518529 0.213395
O O11 0.182172 0.750000 0.351224
O O12 0.142363 0.969535 0.401327
O O13 0.947291 0.750000 0.167202
O O14 0.930264 0.510605 0.109590
O O15 0.000000 0.515319 0.177852
O O16 0.593030 0.250000 0.942661
O O17 0.604447 0.500000 0.000000
O O18 0.574106 0.500000 0.500000
O O19 0.500000 0.422829 0.446905
O O20 0.572966 0.250000 0.441990
#
# Coordination Sequence:
#
# PCOD9534551 Si02
#       7
#    16   8  16  16  16  16  16
#     4   9  17  29  48  72  94 119 151 192 235 279
#     4  10  18  30  48  68  94 128 166 204 245 290
#     4   9  17  31  49  70  96 128 161 197 239 286
#     4   9  18  32  50  73  96 123 161 202 244 291
#     4   9  17  29  45  67  95 125 156 190 232 281
#     4  10  19  32  50  73  99 130 167 208 252 297
#     4   9  16  26  42  63  86 115 151 189 224 260
#
# _framework density 16.752094
#
# number of rings (size 3 to 8) (size 9 to 14) (size 15 to 20)
#    0.000    2.769    0.000    3.000    0.000    5.538 
#    1.385    0.000    0.000    0.923    0.000    4.308 
#    0.000    0.000    0.000    0.000    0.000    0.000 
#
# Total GULP energy -289568.863777 kJ/mol
# GULP energy per Si atom -5568.631996 kJ/mol
# Density = 1.671397 g / cm^3
# Si number density = 16.752094 Si / 1000 Ang^3
#
#
#
# Elastic Constant Matrix: (Units=GPa)
#
#
# Indices 1 2 3 4 5 6 
#
# 1 95.9344 31.0012 49.3971 0.0000 0.0000 0.0000
# 2 31.0012 41.5326 20.8396 0.0000 0.0000 0.0000
# 3 49.3971 20.8396 60.0526 0.0000 0.0000 0.0000
# 4 0.0000 0.0000 0.0000 19.7248 0.0000 0.0000
# 5 0.0000 0.0000 0.0000 0.0000 27.9608 0.0000
# 6 0.0000 0.0000 0.0000 0.0000 0.0000 17.2689
#
#
#
# Elastic Compliance Matrix: (Units=1/GPa)
#
#
# Indices 1 2 3 4 5 6 
#
# 1 0.020120 -0.008129 -0.013729 0.000000 0.000000 0.000000
# 2 -0.008129 0.032439 -0.004570 0.000000 0.000000 0.000000
# 3 -0.013729 -0.004570 0.029531 0.000000 0.000000 0.000000
# 4 0.000000 0.000000 0.000000 0.050698 0.000000 0.000000
# 5 0.000000 0.000000 0.000000 0.000000 0.035764 0.000000
# 6 0.000000 0.000000 0.000000 0.000000 0.000000 0.057908
#
#
# Mechanical properties :
#
#
# Convention : Reuss Voigt Hill
#
# Bulk Modulus (GPa) = 34.20806 44.44393 39.32599
# Shear Modulus (GPa) = 17.29750 19.40968 18.35359
#
# Velocity S-wave (km/s) = 3.21683 3.40758 3.31358
# Velocity P-wave (km/s) = 5.85336 6.48614 6.17786
#
# Compressibility (1/GPa) = 0.02923288
#
# Stress axis : x y z
#
# Youngs Moduli (GPa) = 49.70226 30.82748 33.86306
#
# Poissons Ratio (x) = 0.25061 0.46490
# Poissons Ratio (y) = 0.40405 0.15475
# Poissons Ratio (z) = 0.68235 0.14088
#
# Static dielectric constant tensor:
#      x y z
#    x 1.586310 0.000000 0.000000 
#    y 0.000000 1.565860 0.000000 
#    z 0.000000 0.000000 1.556430 
# 
# From -- ./inp_files/62355.got.cif
#   From: 2010.05.17/outbox.cif.g08.bks.cpg/sg74_32_cif.got.tgz:62355.got - 2010.06.03 17:57:02.
