data_PCOD9534401
_publ_section_title
;
Structure prediction by ZEFSAII (Michael W. Deem and Ramdas Pophale) SiO2 
 PCOD9534401
Probable space group: I M M A
;
_chemical_formula_sum "Si O2"
_cell_formula_units_Z 116
_cell_length_a 27.865525
_cell_length_b 7.591617
_cell_length_c 27.751324
_cell_angle_alpha 90.000000
_cell_angle_beta 90.000000
_cell_angle_gamma 90.000000
_cell_volume 5870.636999
_symmetry_space_group_name_H-M "I M M A"
_symmetry_group_IT_number 74
_symmetry_cell_setting 'orthorhombic'
loop_
_space_group_symop_operation_xyz
x,y,z
-x,1/2-y,z
x,-y,-z
-x,1/2+y,-z
-x,-y,-z
x,1/2+y,-z
-x,y,z
x,1/2-y,z
1/2+x,1/2+y,1/2+z
1/2-x,-y,1/2+z
1/2+x,1/2-y,1/2-z
1/2-x,y,1/2-z
1/2-x,1/2-y,1/2-z
1/2+x,y,1/2-z
1/2-x,1/2+y,1/2+z
1/2+x,-y,1/2+z
loop_
_atom_site_type_symbol
_atom_site_label
_atom_site_fract_x
_atom_site_fract_y
_atom_site_fract_z
Si Si1 0.948330 0.043655 0.710723
Si Si2 0.741539 0.950413 0.127830
Si Si3 0.500000 0.250000 0.538309
Si Si4 0.931198 0.047031 0.074682
Si Si5 0.343359 0.036078 0.813446
Si Si6 0.686139 0.541867 0.705776
Si Si7 0.678250 0.039338 0.555558
Si Si8 0.420325 0.538182 0.682591
O O1 0.948988 0.250000 0.698121
O O2 0.898365 0.970734 0.689682
O O3 0.000000 0.966204 0.696553
O O4 0.944025 0.031784 0.768872
O O5 0.732524 0.750000 0.111676
O O6 0.690239 0.028795 0.143047
O O7 0.778634 0.029667 0.089374
O O8 0.771493 0.948831 0.177670
O O9 0.458368 0.403988 0.543669
O O10 0.946300 0.250000 0.066025
O O11 0.941661 0.996930 0.130636
O O12 0.873878 0.038613 0.067852
O O13 0.344354 0.250000 0.815259
O O14 0.318961 0.987037 0.762579
O O15 0.691726 0.750000 0.697110
O O16 0.635210 0.480737 0.684011
O O17 0.674375 0.250000 0.562896
O O18 0.688652 0.000000 0.500000
O O19 0.420856 0.750000 0.686715
#
# Coordination Sequence:
#
# PCOD9534401 Si02
#       8
#    16  16   4  16  16  16  16  16
#     4   9  18  29  46  68  98 142 186 224 261 308
#     4  10  20  33  53  76 102 135 170 211 270 333
#     4  12  26  40  62  86 110 142 188 232 292 332
#     4  11  23  41  61  83 110 142 182 234 285 338
#     4   9  18  32  46  70 105 140 176 216 259 317
#     4  10  18  29  46  71 103 137 170 212 260 312
#     4  11  23  41  64  84 104 135 174 223 285 350
#     4   9  19  31  46  70 100 135 178 224 270 310
#
# _framework density 19.759353999999998
#
# number of rings (size 3 to 8) (size 9 to 14) (size 15 to 20)
#    0.000    2.069    2.069    1.448    1.931    3.586 
#    0.000    0.345    0.000    0.000    0.000    0.000 
#    0.000    0.552    0.000    0.414    0.000    0.828 
#
# Total GULP energy -323437.842223 kJ/mol
# GULP energy per Si atom -5576.514521 kJ/mol
# Density = 1.971438 g / cm^3
# Si number density = 19.759354 Si / 1000 Ang^3
#
#
#
# Elastic Constant Matrix: (Units=GPa)
#
#
# Indices 1 2 3 4 5 6 
#
# 1 150.4494 14.9843 67.0101 0.0000 0.0000 0.0000
# 2 14.9843 79.8747 12.9365 0.0000 0.0000 0.0000
# 3 67.0101 12.9365 64.9224 0.0000 0.0000 0.0000
# 4 0.0000 0.0000 0.0000 11.6475 0.0000 0.0000
# 5 0.0000 0.0000 0.0000 0.0000 -12.4642 0.0000
# 6 0.0000 0.0000 0.0000 0.0000 0.0000 31.3450
#
#
#
# Elastic Compliance Matrix: (Units=1/GPa)
#
#
# Indices 1 2 3 4 5 6 
#
# 1 0.012308 -0.000260 -0.012652 0.000000 0.000000 0.000000
# 2 -0.000260 0.012943 -0.002311 0.000000 0.000000 0.000000
# 3 -0.012652 -0.002311 0.028922 0.000000 0.000000 0.000000
# 4 0.000000 0.000000 0.000000 0.085855 0.000000 0.000000
# 5 0.000000 0.000000 0.000000 0.000000 -0.080230 0.000000
# 6 0.000000 0.000000 0.000000 0.000000 0.000000 0.031903
#
#
# Mechanical properties :
#
#
# Convention : Reuss Voigt Hill
#
# Bulk Modulus (GPa) = 42.14485 53.90091 48.02288
# Shear Modulus (GPa) = 38.44551 19.46006 28.95278
#
# Velocity S-wave (km/s) = 4.41578 3.14164 3.83204
# Velocity P-wave (km/s) = 6.88289 6.36379 6.62842
#
# Compressibility (1/GPa) = 0.02372769
#
# Stress axis : x y z
#
# Youngs Moduli (GPa) = 81.25007 77.26421 34.57578
#
# Poissons Ratio (x) = 0.02008 0.43744
# Poissons Ratio (y) = 0.02111 0.07990
# Poissons Ratio (z) = 1.02795 0.17854
#
# Static dielectric constant tensor:
#      x y z
#    x 1.753810 0.000000 0.000000 
#    y 0.000000 1.747370 0.000000 
#    z 0.000000 0.000000 1.700960 
# 
# From -- ./inp_files/73940.got.cif
#   From: 2010.05.17/outbox.cif.g08.bks.cpg/sg74_37_cif.got.tgz:73940.got - 2010.06.03 17:57:02.
