data_PCOD9534046
_publ_section_title
;
Structure prediction by ZEFSAII (Michael W. Deem and Ramdas Pophale) SiO2 
 PCOD9534046
Probable space group: I M M A
;
_chemical_formula_sum "Si O2"
_cell_formula_units_Z 88
_cell_length_a 7.860535
_cell_length_b 21.240233
_cell_length_c 26.003105
_cell_angle_alpha 90.000000
_cell_angle_beta 90.000000
_cell_angle_gamma 90.000000
_cell_volume 4341.467877
_symmetry_space_group_name_H-M "I M M A"
_symmetry_group_IT_number 74
_symmetry_cell_setting 'orthorhombic'
loop_
_space_group_symop_operation_xyz
x,y,z
-x,1/2-y,z
x,-y,-z
-x,1/2+y,-z
-x,-y,-z
x,1/2+y,-z
-x,y,z
x,1/2-y,z
1/2+x,1/2+y,1/2+z
1/2-x,-y,1/2+z
1/2+x,1/2-y,1/2-z
1/2-x,y,1/2-z
1/2-x,1/2-y,1/2-z
1/2+x,y,1/2-z
1/2-x,1/2+y,1/2+z
1/2+x,-y,1/2+z
loop_
_atom_site_type_symbol
_atom_site_label
_atom_site_fract_x
_atom_site_fract_y
_atom_site_fract_z
Si Si1 0.308286 0.644466 0.025288
Si Si2 0.702703 0.955398 0.893643
Si Si3 0.796118 0.055272 0.809160
Si Si4 0.207101 0.682047 0.586900
Si Si5 0.699379 0.680293 0.362862
Si Si6 0.749954 0.500000 0.500000
O O1 0.500000 0.668462 0.031909
O O2 0.212707 0.661774 0.077111
O O3 0.318830 0.569276 0.016173
O O4 0.237142 0.673027 0.972472
O O5 0.500000 0.957711 0.908944
O O6 0.750966 0.882631 0.884407
O O7 0.726758 0.000113 0.845408
O O8 0.809723 0.980061 0.942674
O O9 0.750000 0.046631 0.750000
O O10 0.727804 0.122359 0.830215
O O11 0.000000 0.054906 0.814659
O O12 0.265813 0.750000 0.606503
O O13 0.000000 0.683137 0.585896
O O14 0.500000 0.683927 0.349809
O O15 0.773986 0.750000 0.354734
#
# Coordination Sequence:
#
# PCOD9534046 Si02
#       6
#    16  16  16  16  16   8
#     4  10  17  28  50  79 111 146 184 220 255 309
#     4  10  18  32  56  82 111 145 179 221 267 317
#     4  11  24  41  59  79 104 138 182 231 277 326
#     4   8  15  27  47  79 114 146 179 214 256 310
#     4  10  22  38  53  74 107 142 177 224 278 322
#     4  10  17  28  51  84 117 144 177 220 267 316
#
# _framework density 20.269642999999999
#
# number of rings (size 3 to 8) (size 9 to 14) (size 15 to 20)
#    0.000    2.182    1.818    3.818    0.000    2.182 
#    0.000    4.545    0.000    2.182    0.000    0.000 
#    0.000    0.000    0.000    0.000    0.000    0.000 
#
# Total GULP energy -244967.353014 kJ/mol
# GULP energy per Si atom -5567.439841 kJ/mol
# Density = 2.022351 g / cm^3
# Si number density = 20.269643 Si / 1000 Ang^3
#
#
#
# Elastic Constant Matrix: (Units=GPa)
#
#
# Indices 1 2 3 4 5 6 
#
# 1 39.7253 15.3197 1.3162 0.0000 0.0000 0.0000
# 2 15.3197 215.5229 82.8600 0.0000 0.0000 0.0000
# 3 1.3162 82.8600 109.2481 0.0000 0.0000 0.0000
# 4 0.0000 0.0000 0.0000 16.1937 0.0000 0.0000
# 5 0.0000 0.0000 0.0000 0.0000 3.5509 0.0000
# 6 0.0000 0.0000 0.0000 0.0000 0.0000 -0.6890
#
#
#
# Elastic Compliance Matrix: (Units=1/GPa)
#
#
# Indices 1 2 3 4 5 6 
#
# 1 0.026065 -0.002445 0.001540 0.000000 0.000000 0.000000
# 2 -0.002445 0.006779 -0.005112 0.000000 0.000000 0.000000
# 3 0.001540 -0.005112 0.013012 0.000000 0.000000 0.000000
# 4 0.000000 0.000000 0.000000 0.061752 0.000000 0.000000
# 5 0.000000 0.000000 0.000000 0.000000 0.281615 0.000000
# 6 0.000000 0.000000 0.000000 0.000000 0.000000 -1.451355
#
#
# Mechanical properties :
#
#
# Convention : Reuss Voigt Hill
#
# Bulk Modulus (GPa) = 29.56605 62.60980 46.08793
# Shear Modulus (GPa) = -4.81313 21.47782 8.33234
#
# Velocity S-wave (km/s) = -1.54263 3.25869 2.02970
# Velocity P-wave (km/s) = 3.38306 6.71671 5.31786
#
# Compressibility (1/GPa) = 0.03382257
#
# Stress axis : x y z
#
# Youngs Moduli (GPa) = 38.36602 147.51207 76.85034
#
# Poissons Ratio (x) = 0.36066 -0.11838
# Poissons Ratio (y) = 0.09380 0.39287
# Poissons Ratio (z) = -0.05910 0.75411
#
# Static dielectric constant tensor:
#      x y z
#    x 1.814690 0.000000 0.000000 
#    y 0.000000 1.755310 0.000000 
#    z 0.000000 0.000000 1.658780 
# 
# From -- ./inp_files/56987.got.cif
#   From: 2010.05.17/outbox.cif.g08.bks.cpg/sg74_29_cif.got.tgz:56987.got - 2010.06.03 17:57:02.
