data_PCOD9534301
_publ_section_title
;
Structure prediction by ZEFSAII (Michael W. Deem and Ramdas Pophale) SiO2 
 PCOD9534301
Probable space group: I M M A
;
_chemical_formula_sum "Si O2"
_cell_formula_units_Z 72
_cell_length_a 8.961559
_cell_length_b 19.111682
_cell_length_c 18.909022
_cell_angle_alpha 90.000000
_cell_angle_beta 90.000000
_cell_angle_gamma 90.000000
_cell_volume 3238.557006
_symmetry_space_group_name_H-M "I M M A"
_symmetry_group_IT_number 74
_symmetry_cell_setting 'orthorhombic'
loop_
_space_group_symop_operation_xyz
x,y,z
-x,1/2-y,z
x,-y,-z
-x,1/2+y,-z
-x,-y,-z
x,1/2+y,-z
-x,y,z
x,1/2-y,z
1/2+x,1/2+y,1/2+z
1/2-x,-y,1/2+z
1/2+x,1/2-y,1/2-z
1/2-x,y,1/2-z
1/2-x,1/2-y,1/2-z
1/2+x,y,1/2-z
1/2-x,1/2+y,1/2+z
1/2+x,-y,1/2+z
loop_
_atom_site_type_symbol
_atom_site_label
_atom_site_fract_x
_atom_site_fract_y
_atom_site_fract_z
Si Si1 0.833262 0.470645 0.845353
Si Si2 0.319876 0.119352 0.178504
Si Si3 0.167132 0.849310 0.528028
Si Si4 0.180660 0.172665 0.630328
Si Si5 0.755643 0.500000 0.000000
O O1 0.736163 0.538357 0.824626
O O2 0.755706 0.395271 0.834636
O O3 0.000000 0.473323 0.814436
O O4 0.844118 0.479389 0.930250
O O5 0.500000 0.121227 0.179707
O O6 0.250000 0.149510 0.250000
O O7 0.265271 0.158080 0.106358
O O8 0.231754 0.825798 0.452742
O O9 0.000000 0.821833 0.531042
O O10 0.160808 0.932834 0.519523
O O11 0.214043 0.250000 0.660180
O O12 0.000000 0.163387 0.630274
#
# Coordination Sequence:
#
# PCOD9534301 Si02
#       5
#    16  16  16  16   8
#     4  10  18  28  44  67  94 120 148 184 228 274
#     4  10  19  31  47  67  92 121 154 190 229 272
#     4   8  14  25  43  66  90 117 149 186 226 268
#     4   9  17  30  48  69  93 122 155 188 223 266
#     4   8  14  24  40  64  91 116 141 178 229 278
#
# _framework density 22.232123999999999
#
# number of rings (size 3 to 8) (size 9 to 14) (size 15 to 20)
#    0.000    2.889    0.000    2.000    0.000    5.778 
#    0.000    1.111    0.000    1.333    0.000    0.000 
#    0.000    0.000    0.000    0.000    0.000    0.667 
#
# Total GULP energy -200437.387196 kJ/mol
# GULP energy per Si atom -5567.705200 kJ/mol
# Density = 2.218152 g / cm^3
# Si number density = 22.232124 Si / 1000 Ang^3
#
#
#
# Elastic Constant Matrix: (Units=GPa)
#
#
# Indices 1 2 3 4 5 6 
#
# 1 75.7384 16.1690 5.8932 0.0000 0.0000 0.0000
# 2 16.1690 96.5228 -16.3558 0.0000 0.0000 0.0000
# 3 5.8932 -16.3558 98.2869 0.0000 0.0000 0.0000
# 4 0.0000 0.0000 0.0000 2.1753 0.0000 0.0000
# 5 0.0000 0.0000 0.0000 0.0000 17.0508 0.0000
# 6 0.0000 0.0000 0.0000 0.0000 0.0000 -3.7336
#
#
#
# Elastic Compliance Matrix: (Units=1/GPa)
#
#
# Indices 1 2 3 4 5 6 
#
# 1 0.013841 -0.002531 -0.001251 0.000000 0.000000 0.000000
# 2 -0.002531 0.011124 0.002003 0.000000 0.000000 0.000000
# 3 -0.001251 0.002003 0.010583 0.000000 0.000000 0.000000
# 4 0.000000 0.000000 0.000000 0.459700 0.000000 0.000000
# 5 0.000000 0.000000 0.000000 0.000000 0.058648 0.000000
# 6 0.000000 0.000000 0.000000 0.000000 0.000000 -0.267837
#
#
# Mechanical properties :
#
#
# Convention : Reuss Voigt Hill
#
# Bulk Modulus (GPa) = 31.26025 31.32900 31.29462
# Shear Modulus (GPa) = 16.65124 20.75463 18.70293
#
# Velocity S-wave (km/s) = 2.73970 3.05871 2.90359
# Velocity P-wave (km/s) = 4.90911 5.15719 5.03468
#
# Compressibility (1/GPa) = 0.03198951
#
# Stress axis : x y z
#
# Youngs Moduli (GPa) = 72.24954 89.89964 94.49489
#
# Poissons Ratio (x) = 0.22749 0.11821
# Poissons Ratio (y) = 0.18283 -0.18925
# Poissons Ratio (z) = 0.09038 -0.18005
#
# Static dielectric constant tensor:
#      x y z
#    x 1.788200 0.000000 0.000000 
#    y 0.000000 1.809690 0.000000 
#    z 0.000000 0.000000 1.920370 
# 
# From -- ./inp_files/48389.got.cif
#   From: 2010.05.17/outbox.cif.g08.bks.cpg/sg74_25_cif.got.tgz:48389.got - 2010.06.03 17:57:02.
