data_PCOD9534930
_publ_section_title
;
Structure prediction by ZEFSAII (Michael W. Deem and Ramdas Pophale) SiO2 
 PCOD9534930
Probable space group: I M M A
;
_chemical_formula_sum "Si O2"
_cell_formula_units_Z 120
_cell_length_a 13.979004
_cell_length_b 22.754062
_cell_length_c 21.484692
_cell_angle_alpha 90.000000
_cell_angle_beta 90.000000
_cell_angle_gamma 90.000000
_cell_volume 6833.832005
_symmetry_space_group_name_H-M "I M M A"
_symmetry_group_IT_number 74
_symmetry_cell_setting 'orthorhombic'
loop_
_space_group_symop_operation_xyz
x,y,z
-x,1/2-y,z
x,-y,-z
-x,1/2+y,-z
-x,-y,-z
x,1/2+y,-z
-x,y,z
x,1/2-y,z
1/2+x,1/2+y,1/2+z
1/2-x,-y,1/2+z
1/2+x,1/2-y,1/2-z
1/2-x,y,1/2-z
1/2-x,1/2-y,1/2-z
1/2+x,y,1/2-z
1/2-x,1/2+y,1/2+z
1/2+x,-y,1/2+z
loop_
_atom_site_type_symbol
_atom_site_label
_atom_site_fract_x
_atom_site_fract_y
_atom_site_fract_z
Si Si1 0.887795 0.090710 0.397247
Si Si2 0.250000 0.103347 0.750000
Si Si3 0.893531 0.318037 0.085579
Si Si4 0.278382 0.319431 0.179857
Si Si5 0.888952 0.319304 0.835705
Si Si6 0.112811 0.040107 0.651735
Si Si7 0.811328 0.936032 0.475973
Si Si8 0.606442 0.394040 0.539191
O O1 0.861460 0.140900 0.348390
O O2 0.834512 0.102257 0.463080
O O3 0.000000 0.088568 0.410839
O O4 0.862106 0.027398 0.366788
O O5 0.181724 0.144516 0.791731
O O6 0.181841 0.064389 0.705388
O O7 0.882816 0.250000 0.065602
O O8 0.813148 0.330606 0.135951
O O9 0.000000 0.324282 0.113160
O O10 0.888800 0.359049 0.025547
O O11 0.301177 0.250000 0.177745
O O12 0.250000 0.334728 0.250000
O O13 0.866166 0.250000 0.837398
O O14 0.883510 0.348055 0.904229
O O15 0.000000 0.325336 0.815137
O O16 0.132908 0.076279 0.587784
O O17 0.000000 0.043075 0.667707
O O18 0.698808 0.935488 0.460001
O O19 0.842253 0.000000 0.500000
O O20 0.500000 0.578548 0.455500
#
# Coordination Sequence:
#
# PCOD9534930 Si02
#       8
#    16   8  16  16  16  16  16  16
#     4  10  21  38  60  81 106 143 190 233 279 332
#     4  12  21  36  60  84 113 148 184 232 272 320
#     4   9  17  31  52  75 100 134 175 219 269 325
#     4  10  21  35  54  79 111 145 179 224 277 335
#     4  10  21  36  55  82 115 150 186 221 269 333
#     4  10  22  38  58  84 111 146 187 230 277 330
#     4  10  19  36  58  80 108 143 184 235 281 327
#     4  10  18  32  54  81 108 139 181 227 273 319
#
# _framework density 17.559695000000001
#
# number of rings (size 3 to 8) (size 9 to 14) (size 15 to 20)
#    0.000    2.000    2.667    1.400    0.933    4.267 
#    0.000    1.333    0.000    0.000    0.000    0.000 
#    0.000    0.000    0.000    0.000    0.000    0.000 
#
# Total GULP energy -334432.525191 kJ/mol
# GULP energy per Si atom -5573.875420 kJ/mol
# Density = 1.751973 g / cm^3
# Si number density = 17.559695 Si / 1000 Ang^3
#
#
#
# Elastic Constant Matrix: (Units=GPa)
#
#
# Indices 1 2 3 4 5 6 
#
# 1 72.7130 20.6372 36.6875 0.0000 0.0000 0.0000
# 2 20.6372 28.4243 32.2096 0.0000 0.0000 0.0000
# 3 36.6875 32.2096 104.8673 0.0000 0.0000 0.0000
# 4 0.0000 0.0000 0.0000 32.4290 0.0000 0.0000
# 5 0.0000 0.0000 0.0000 0.0000 21.9802 0.0000
# 6 0.0000 0.0000 0.0000 0.0000 0.0000 27.1115
#
#
#
# Elastic Compliance Matrix: (Units=1/GPa)
#
#
# Indices 1 2 3 4 5 6 
#
# 1 0.018135 -0.009169 -0.003528 0.000000 0.000000 0.000000
# 2 -0.009169 0.058598 -0.014791 0.000000 0.000000 0.000000
# 3 -0.003528 -0.014791 0.015313 0.000000 0.000000 0.000000
# 4 0.000000 0.000000 0.000000 0.030837 0.000000 0.000000
# 5 0.000000 0.000000 0.000000 0.000000 0.045495 0.000000
# 6 0.000000 0.000000 0.000000 0.000000 0.000000 0.036885
#
#
# Mechanical properties :
#
#
# Convention : Reuss Voigt Hill
#
# Bulk Modulus (GPa) = 26.97507 42.78591 34.88049
# Shear Modulus (GPa) = 18.34219 24.06883 21.20551
#
# Velocity S-wave (km/s) = 3.23547 3.70629 3.47886
# Velocity P-wave (km/s) = 5.41784 6.53715 6.00364
#
# Compressibility (1/GPa) = 0.03707127
#
# Stress axis : x y z
#
# Youngs Moduli (GPa) = 55.14148 17.06538 65.30338
#
# Poissons Ratio (x) = 0.15647 0.23042
# Poissons Ratio (y) = 0.50557 0.96588
# Poissons Ratio (z) = 0.19456 0.25241
#
# Static dielectric constant tensor:
#      x y z
#    x 1.612350 0.000000 0.000000 
#    y 0.000000 1.587430 0.000000 
#    z 0.000000 0.000000 1.593170 
# 
# From -- ./inp_files/52347.got.cif
#   From: 2010.05.17/outbox.cif.g08.bks.cpg/sg74_27_cif.got.tgz:52347.got - 2010.06.03 17:57:02.
