data_PCOD9534176
_publ_section_title
;
Structure prediction by ZEFSAII (Michael W. Deem and Ramdas Pophale) SiO2 
 PCOD9534176
Probable space group: I M M A
;
_chemical_formula_sum "Si O2"
_cell_formula_units_Z 96
_cell_length_a 9.256763
_cell_length_b 33.224266
_cell_length_c 27.121956
_cell_angle_alpha 90.000000
_cell_angle_beta 90.000000
_cell_angle_gamma 90.000000
_cell_volume 8341.334683
_symmetry_space_group_name_H-M "I M M A"
_symmetry_group_IT_number 74
_symmetry_cell_setting 'orthorhombic'
loop_
_space_group_symop_operation_xyz
x,y,z
-x,1/2-y,z
x,-y,-z
-x,1/2+y,-z
-x,-y,-z
x,1/2+y,-z
-x,y,z
x,1/2-y,z
1/2+x,1/2+y,1/2+z
1/2-x,-y,1/2+z
1/2+x,1/2-y,1/2-z
1/2-x,y,1/2-z
1/2-x,1/2-y,1/2-z
1/2+x,y,1/2-z
1/2-x,1/2+y,1/2+z
1/2+x,-y,1/2+z
loop_
_atom_site_type_symbol
_atom_site_label
_atom_site_fract_x
_atom_site_fract_y
_atom_site_fract_z
Si Si1 0.828572 0.447225 0.197670
Si Si2 0.328970 0.131204 0.371012
Si Si3 0.333914 0.586132 0.953565
Si Si4 0.326769 0.203343 0.301490
Si Si5 0.666889 0.494137 0.115184
Si Si6 0.333101 0.459721 0.534348
O O1 0.750000 0.445331 0.250000
O O2 0.809176 0.405037 0.168409
O O3 0.755891 0.481160 0.163282
O O4 0.000000 0.453866 0.203157
O O5 0.500000 0.132726 0.382516
O O6 0.240895 0.119644 0.419653
O O7 0.284577 0.172367 0.344239
O O8 0.500000 0.595578 0.964936
O O9 0.333324 0.545652 0.919772
O O10 0.244338 0.574464 0.002074
O O11 0.500000 0.199812 0.295004
O O12 0.293376 0.250000 0.312961
O O13 0.250000 0.193044 0.250000
O O14 0.500000 0.503768 0.126086
O O15 0.745275 0.528344 0.083168
O O16 0.332329 0.500000 0.500000
O O17 0.500000 0.450294 0.544733
#
# Coordination Sequence:
#
# PCOD9534176 Si02
#       6
#    16  16  16  16  16  16
#     4  10  18  26  35  47  63  83 107 134 165 198
#     4   9  17  27  37  49  65  83 103 130 165 203
#     4   9  16  24  35  50  65  81 101 125 154 189
#     4   9  17  28  40  52  65  82 105 133 166 204
#     4   9  16  25  35  47  63  82 104 128 154 186
#     4   9  15  23  35  49  65  83 101 122 150 185
#
# _framework density 11.508948999999999
#
# number of rings (size 3 to 8) (size 9 to 14) (size 15 to 20)
#    0.000    2.833    0.000    2.500    0.000    7.333 
#    0.000    0.000    0.000    0.000    0.000    0.000 
#    0.000    0.000    0.000    0.000    0.000    0.000 
#
# Total GULP energy -267324.587970 kJ/mol
# GULP energy per Si atom -5569.262249 kJ/mol
# Density = 1.148275 g / cm^3
# Si number density = 11.508949 Si / 1000 Ang^3
#
#
#
# Elastic Constant Matrix: (Units=GPa)
#
#
# Indices 1 2 3 4 5 6 
#
# 1 80.7103 31.2045 36.3194 0.0000 0.0000 0.0000
# 2 31.2045 45.7045 29.6032 0.0000 0.0000 0.0000
# 3 36.3194 29.6032 36.5652 0.0000 0.0000 0.0000
# 4 0.0000 0.0000 0.0000 22.6886 0.0000 0.0000
# 5 0.0000 0.0000 0.0000 0.0000 21.5773 0.0000
# 6 0.0000 0.0000 0.0000 0.0000 0.0000 10.6315
#
#
#
# Elastic Compliance Matrix: (Units=1/GPa)
#
#
# Indices 1 2 3 4 5 6 
#
# 1 0.022479 -0.001862 -0.020821 0.000000 0.000000 0.000000
# 2 -0.001862 0.046157 -0.035520 0.000000 0.000000 0.000000
# 3 -0.020821 -0.035520 0.076786 0.000000 0.000000 0.000000
# 4 0.000000 0.000000 0.000000 0.044075 0.000000 0.000000
# 5 0.000000 0.000000 0.000000 0.000000 0.046345 0.000000
# 6 0.000000 0.000000 0.000000 0.000000 0.000000 0.094060
#
#
# Mechanical properties :
#
#
# Convention : Reuss Voigt Hill
#
# Bulk Modulus (GPa) = 34.46144 39.69270 37.07707
# Shear Modulus (GPa) = 10.96542 15.36967 13.16754
#
# Velocity S-wave (km/s) = 3.09005 3.65835 3.38614
# Velocity P-wave (km/s) = 6.53754 7.23935 6.89737
#
# Compressibility (1/GPa) = 0.02901794
#
# Stress axis : x y z
#
# Youngs Moduli (GPa) = 44.48590 21.66513 13.02324
#
# Poissons Ratio (x) = 0.04033 0.27115
# Poissons Ratio (y) = 0.08282 0.46258
# Poissons Ratio (z) = 0.92623 0.76954
#
# Static dielectric constant tensor:
#      x y z
#    x 1.385210 0.000000 0.000000 
#    y 0.000000 1.353240 0.000000 
#    z 0.000000 0.000000 1.354680 
# 
# From -- ./inp_files/64693.got.cif
#   From: 2010.05.17/outbox.cif.g08.bks.cpg/sg74_33_cif.got.tgz:64693.got - 2010.06.03 17:57:02.
