data_PCOD9534257
_publ_section_title
;
Structure prediction by ZEFSAII (Michael W. Deem and Ramdas Pophale) SiO2 
 PCOD9534257
Probable space group: I M M A
;
_chemical_formula_sum "Si O2"
_cell_formula_units_Z 72
_cell_length_a 8.770699
_cell_length_b 33.024006
_cell_length_c 18.680984
_cell_angle_alpha 90.000000
_cell_angle_beta 90.000000
_cell_angle_gamma 90.000000
_cell_volume 5410.827764
_symmetry_space_group_name_H-M "I M M A"
_symmetry_group_IT_number 74
_symmetry_cell_setting 'orthorhombic'
loop_
_space_group_symop_operation_xyz
x,y,z
-x,1/2-y,z
x,-y,-z
-x,1/2+y,-z
-x,-y,-z
x,1/2+y,-z
-x,y,z
x,1/2-y,z
1/2+x,1/2+y,1/2+z
1/2-x,-y,1/2+z
1/2+x,1/2-y,1/2-z
1/2-x,y,1/2-z
1/2-x,1/2-y,1/2-z
1/2+x,y,1/2-z
1/2-x,1/2+y,1/2+z
1/2+x,-y,1/2+z
loop_
_atom_site_type_symbol
_atom_site_label
_atom_site_fract_x
_atom_site_fract_y
_atom_site_fract_z
Si Si1 0.316197 0.661013 0.830704
Si Si2 0.317109 0.250000 0.170296
Si Si3 0.324649 0.041015 0.547884
Si Si4 0.819242 0.494788 0.327998
Si Si5 0.316195 0.083485 0.408127
O O1 0.500000 0.657606 0.827577
O O2 0.250000 0.657613 0.750000
O O3 0.274109 0.705972 0.860170
O O4 0.247519 0.625227 0.877857
O O5 0.500000 0.250000 0.174919
O O6 0.250000 0.250000 0.250000
O O7 0.500000 0.048622 0.569353
O O8 0.225674 0.030431 0.616777
O O9 0.272867 0.074709 0.490949
O O10 0.324913 0.000000 0.500000
O O11 0.750000 0.501883 0.250000
O O12 0.748717 0.453384 0.360424
O O13 0.000000 0.490449 0.323796
O O14 0.500000 0.082263 0.404226
#
# Coordination Sequence:
#
# PCOD9534257 Si02
#       5
#    16   8  16  16  16
#     4  10  18  28  41  57  77 101 132 165 197 231
#     4   8  16  28  40  54  74 100 127 160 197 230
#     4   8  16  30  43  55  75 100 125 157 196 232
#     4  11  20  29  42  58  77 101 131 163 194 229
#     4  10  19  30  42  57  78 102 129 162 198 231
#
# _framework density 13.306651
#
# number of rings (size 3 to 8) (size 9 to 14) (size 15 to 20)
#    0.000    2.444    0.000    5.333    0.000    5.778 
#    0.000    0.000    0.000    0.000    0.000    0.000 
#    0.000    0.000    0.000    1.000    0.000   12.889 
#
# Total GULP energy -200507.426733 kJ/mol
# GULP energy per Si atom -5569.650743 kJ/mol
# Density = 1.327636 g / cm^3
# Si number density = 13.306651 Si / 1000 Ang^3
#
#
#
# Elastic Constant Matrix: (Units=GPa)
#
#
# Indices 1 2 3 4 5 6 
#
# 1 68.1942 35.4969 45.0394 0.0000 0.0000 0.0000
# 2 35.4969 100.3648 54.0839 0.0000 0.0000 0.0000
# 3 45.0394 54.0839 85.4872 -0.0001 0.0000 0.0000
# 4 0.0000 0.0000 -0.0001 20.4524 0.0000 0.0001
# 5 0.0000 0.0000 0.0000 0.0000 20.2441 0.0000
# 6 0.0000 0.0000 0.0000 0.0001 0.0000 66.4827
#
#
#
# Elastic Compliance Matrix: (Units=1/GPa)
#
#
# Indices 1 2 3 4 5 6 
#
# 1 0.022871 -0.002421 -0.010518 0.000000 0.000000 0.000000
# 2 -0.002421 0.015374 -0.008451 0.000000 0.000000 0.000000
# 3 -0.010518 -0.008451 0.022585 0.000000 0.000000 0.000000
# 4 0.000000 0.000000 0.000000 0.048894 0.000000 0.000000
# 5 0.000000 0.000000 0.000000 0.000000 0.049397 0.000000
# 6 0.000000 0.000000 0.000000 0.000000 0.000000 0.015042
#
#
# Mechanical properties :
#
#
# Convention : Reuss Voigt Hill
#
# Bulk Modulus (GPa) = 55.39973 58.14296 56.77135
# Shear Modulus (GPa) = 22.42562 29.39759 25.91161
#
# Velocity S-wave (km/s) = 4.10969 4.70535 4.41757
# Velocity P-wave (km/s) = 8.01516 8.56213 8.29316
#
# Compressibility (1/GPa) = 0.01805063
#
# Stress axis : x y z
#
# Youngs Moduli (GPa) = 43.72368 65.04561 44.27622
#
# Poissons Ratio (x) = 0.15748 0.46569
# Poissons Ratio (y) = 0.10586 0.37417
# Poissons Ratio (z) = 0.45988 0.54968
#
# Static dielectric constant tensor:
#      x y z
#    x 1.444270 0.000000 0.000000 
#    y 0.000000 1.450300 0.000000 
#    z 0.000000 0.000000 1.424070 
# 
# From -- ./inp_files/48921.got.cif
#   From: 2010.05.17/outbox.cif.g08.bks.cpg/sg74_25_cif.got.tgz:48921.got - 2010.06.03 17:57:02.
