data_PCOD9534433
_publ_section_title
;
Structure prediction by ZEFSAII (Michael W. Deem and Ramdas Pophale) SiO2 
 PCOD9534433
Probable space group: I M M A
;
_chemical_formula_sum "Si O2"
_cell_formula_units_Z 88
_cell_length_a 8.419140
_cell_length_b 28.873369
_cell_length_c 19.595196
_cell_angle_alpha 90.000000
_cell_angle_beta 90.000000
_cell_angle_gamma 90.000000
_cell_volume 4763.375344
_symmetry_space_group_name_H-M "I M M A"
_symmetry_group_IT_number 74
_symmetry_cell_setting 'orthorhombic'
loop_
_space_group_symop_operation_xyz
x,y,z
-x,1/2-y,z
x,-y,-z
-x,1/2+y,-z
-x,-y,-z
x,1/2+y,-z
-x,y,z
x,1/2-y,z
1/2+x,1/2+y,1/2+z
1/2-x,-y,1/2+z
1/2+x,1/2-y,1/2-z
1/2-x,y,1/2-z
1/2-x,1/2-y,1/2-z
1/2+x,y,1/2-z
1/2-x,1/2+y,1/2+z
1/2+x,-y,1/2+z
loop_
_atom_site_type_symbol
_atom_site_label
_atom_site_fract_x
_atom_site_fract_y
_atom_site_fract_z
Si Si1 0.811055 0.971394 0.671814
Si Si2 0.694032 0.303514 0.443146
Si Si3 0.190163 0.873307 0.827526
Si Si4 0.306179 0.159733 0.589108
Si Si5 0.808315 0.250000 0.826860
Si Si6 0.309379 0.930300 0.328192
O O1 0.750000 0.971378 0.750000
O O2 0.747641 0.922881 0.643271
O O3 0.000000 0.971188 0.671436
O O4 0.748695 0.020110 0.643623
O O5 0.500000 0.302814 0.443473
O O6 0.746053 0.250000 0.444327
O O7 0.744279 0.331780 0.376376
O O8 0.744265 0.330358 0.511662
O O9 0.250000 0.868101 0.750000
O O10 0.000000 0.874105 0.825712
O O11 0.500000 0.158993 0.589094
O O12 0.255497 0.203834 0.633972
O O13 0.254148 0.112294 0.624885
O O14 0.750000 0.250000 0.750000
O O15 0.000000 0.250000 0.827676
O O16 0.500000 0.930746 0.325961
O O17 0.250000 0.924579 0.250000
#
# Coordination Sequence:
#
# PCOD9534433 Si02
#       6
#    16  16  16  16   8  16
#     4  10  18  31  51  73 101 134 166 206 252 301
#     4   9  17  32  53  76 101 132 171 210 250 294
#     4  10  19  32  54  80 103 128 162 208 254 304
#     4   9  17  30  49  73 101 134 171 210 248 289
#     4  10  18  30  50  74 101 132 170 212 249 290
#     4  10  18  29  48  75 104 134 169 210 251 293
#
# _framework density 18.474295000000001
#
# number of rings (size 3 to 8) (size 9 to 14) (size 15 to 20)
#    0.000    2.364    0.909    5.455    0.000    0.364 
#    0.000    1.818    0.000   13.636    0.000    0.000 
#    0.000    0.000    0.000    0.000    0.000    0.000 
#
# Total GULP energy -245371.020889 kJ/mol
# GULP energy per Si atom -5576.614111 kJ/mol
# Density = 1.843225 g / cm^3
# Si number density = 18.474295 Si / 1000 Ang^3
#
#
#
# Elastic Constant Matrix: (Units=GPa)
#
#
# Indices 1 2 3 4 5 6 
#
# 1 48.8970 23.3591 16.1652 0.0000 0.0000 0.0000
# 2 23.3591 158.1565 78.5826 0.0000 0.0000 0.0000
# 3 16.1652 78.5826 103.7350 -0.0002 0.0000 0.0000
# 4 0.0000 0.0000 -0.0002 -19.6926 0.0000 0.0000
# 5 0.0000 0.0000 0.0000 0.0000 15.9128 0.0000
# 6 0.0000 0.0000 0.0000 0.0000 0.0000 16.9489
#
#
#
# Elastic Compliance Matrix: (Units=1/GPa)
#
#
# Indices 1 2 3 4 5 6 
#
# 1 0.022160 -0.002497 -0.001562 0.000000 0.000000 0.000000
# 2 -0.002497 0.010421 -0.007505 0.000000 0.000000 0.000000
# 3 -0.001562 -0.007505 0.015568 0.000000 0.000000 0.000000
# 4 0.000000 0.000000 0.000000 -0.050781 0.000000 0.000000
# 5 0.000000 0.000000 0.000000 0.000000 0.062842 0.000000
# 6 0.000000 0.000000 0.000000 0.000000 0.000000 0.059001
#
#
# Mechanical properties :
#
#
# Convention : Reuss Voigt Hill
#
# Bulk Modulus (GPa) = 39.96440 60.77802 50.37121
# Shear Modulus (GPa) = 33.18299 15.47927 24.33113
#
# Velocity S-wave (km/s) = 4.24272 2.89776 3.63302
# Velocity P-wave (km/s) = 6.75872 6.64576 6.70248
#
# Compressibility (1/GPa) = 0.02502227
#
# Stress axis : x y z
#
# Youngs Moduli (GPa) = 45.12569 95.96458 64.23273
#
# Poissons Ratio (x) = 0.23963 0.10031
# Poissons Ratio (y) = 0.11268 0.48205
# Poissons Ratio (z) = 0.07047 0.72019
#
# Static dielectric constant tensor:
#      x y z
#    x 1.656260 0.000000 0.000000 
#    y 0.000000 1.662180 0.000000 
#    z 0.000000 0.000000 1.615850 
# 
# From -- ./inp_files/40116.got.cif
#   From: 2010.05.17/outbox.cif.g08.bks.cpg/sg74_21_cif.got.tgz:40116.got - 2010.06.03 17:57:02.
