data_PCOD9534731
_publ_section_title
;
Structure prediction by ZEFSAII (Michael W. Deem and Ramdas Pophale) SiO2 
 PCOD9534731
Probable space group: I M M A
;
_chemical_formula_sum "Si O2"
_cell_formula_units_Z 96
_cell_length_a 23.736754
_cell_length_b 8.192789
_cell_length_c 28.220119
_cell_angle_alpha 90.000000
_cell_angle_beta 90.000000
_cell_angle_gamma 90.000000
_cell_volume 5487.972668
_symmetry_space_group_name_H-M "I M M A"
_symmetry_group_IT_number 74
_symmetry_cell_setting 'orthorhombic'
loop_
_space_group_symop_operation_xyz
x,y,z
-x,1/2-y,z
x,-y,-z
-x,1/2+y,-z
-x,-y,-z
x,1/2+y,-z
-x,y,z
x,1/2-y,z
1/2+x,1/2+y,1/2+z
1/2-x,-y,1/2+z
1/2+x,1/2-y,1/2-z
1/2-x,y,1/2-z
1/2-x,1/2-y,1/2-z
1/2+x,y,1/2-z
1/2-x,1/2+y,1/2+z
1/2+x,-y,1/2+z
loop_
_atom_site_type_symbol
_atom_site_label
_atom_site_fract_x
_atom_site_fract_y
_atom_site_fract_z
Si Si1 0.294696 0.050655 0.642464
Si Si2 0.378357 0.059356 0.113676
Si Si3 0.000000 0.558110 0.741696
Si Si4 0.223308 0.554201 0.446973
Si Si5 0.189178 0.059708 0.701020
Si Si6 0.000000 0.942776 0.367549
Si Si7 0.884424 0.948387 0.212351
O O1 0.293374 0.250000 0.642667
O O2 0.270822 0.000212 0.591286
O O3 0.247301 0.992402 0.680148
O O4 0.355816 0.003414 0.662416
O O5 0.372226 0.250000 0.124783
O O6 0.336738 0.016035 0.070613
O O7 0.354719 0.957355 0.158101
O O8 0.443734 0.017095 0.109502
O O9 0.000000 0.476450 0.689424
O O10 0.945049 0.511243 0.772014
O O11 0.000000 0.750000 0.732481
O O12 0.236038 0.500000 0.500000
O O13 0.219705 0.750000 0.444743
O O14 0.199706 0.250000 0.710982
O O15 0.159218 0.991862 0.747218
O O16 0.000000 0.750000 0.374513
O O17 0.886886 0.750000 0.214010
#
# Coordination Sequence:
#
# PCOD9534731 Si02
#       7
#    16  16   8  16  16   8  16
#     4   8  16  30  51  78 102 130 170 214 254 304
#     4  11  21  33  51  76 105 137 174 217 261 304
#     4  12  24  34  46  71 108 145 178 216 255 295
#     4  10  20  37  58  80 105 133 168 213 265 316
#     4   9  16  28  48  73 103 136 171 208 249 300
#     4  12  22  36  53  71  98 141 187 220 253 299
#     4  10  18  31  51  73 101 139 179 210 248 302
#
# _framework density 17.492798000000001
#
# number of rings (size 3 to 8) (size 9 to 14) (size 15 to 20)
#    0.000    2.000    1.667    5.000    0.000    2.000 
#    0.000    4.583    0.000    5.000    0.000    0.583 
#    0.000    0.000    0.000    0.000    0.000    0.000 
#
# Total GULP energy -267649.821193 kJ/mol
# GULP energy per Si atom -5576.037942 kJ/mol
# Density = 1.745298 g / cm^3
# Si number density = 17.492798 Si / 1000 Ang^3
#
#
#
# Elastic Constant Matrix: (Units=GPa)
#
#
# Indices 1 2 3 4 5 6 
#
# 1 58.0672 9.4744 66.2157 0.0000 0.0000 0.0000
# 2 9.4744 31.8940 7.5983 0.0000 0.0000 0.0000
# 3 66.2157 7.5983 101.4745 0.0000 0.0000 0.0000
# 4 0.0000 0.0000 0.0000 15.1570 0.0000 0.0000
# 5 0.0000 0.0000 0.0000 0.0000 3.5030 0.0000
# 6 0.0000 0.0000 0.0000 0.0000 0.0000 -7.2235
#
#
#
# Elastic Compliance Matrix: (Units=1/GPa)
#
#
# Indices 1 2 3 4 5 6 
#
# 1 0.070383 -0.010147 -0.045168 0.000000 0.000000 0.000000
# 2 -0.010147 0.033386 0.004122 0.000000 0.000000 0.000000
# 3 -0.045168 0.004122 0.039020 0.000000 0.000000 0.000000
# 4 0.000000 0.000000 0.000000 0.065976 0.000000 0.000000
# 5 0.000000 0.000000 0.000000 0.000000 0.285467 0.000000
# 6 0.000000 0.000000 0.000000 0.000000 0.000000 -0.138437
#
#
# Mechanical properties :
#
#
# Convention : Reuss Voigt Hill
#
# Bulk Modulus (GPa) = 24.75119 39.77918 32.26519
# Shear Modulus (GPa) = 10.60112 9.49712 10.04912
#
# Velocity S-wave (km/s) = 2.46443 2.33258 2.39941
# Velocity P-wave (km/s) = 4.71996 5.48127 5.11480
#
# Compressibility (1/GPa) = 0.04040209
#
# Stress axis : x y z
#
# Youngs Moduli (GPa) = 14.20798 29.95235 25.62820
#
# Poissons Ratio (x) = 0.30394 1.15756
# Poissons Ratio (y) = 0.14417 -0.10563
# Poissons Ratio (z) = 0.64174 -0.12345
#
# Static dielectric constant tensor:
#      x y z
#    x 1.616170 0.000000 0.000000 
#    y 0.000000 1.614890 0.000000 
#    z 0.000000 0.000000 1.594510 
# 
# From -- ./inp_files/68589.got.cif
#   From: 2010.05.17/outbox.cif.g08.bks.cpg/sg74_35_cif.got.tgz:68589.got - 2010.06.03 17:57:02.
