data_PCOD9534196
_publ_section_title
;
Structure prediction by ZEFSAII (Michael W. Deem and Ramdas Pophale) SiO2 
 PCOD9534196
Probable space group: I M M A
;
_chemical_formula_sum "Si O2"
_cell_formula_units_Z 80
_cell_length_a 14.211216
_cell_length_b 14.426321
_cell_length_c 21.928532
_cell_angle_alpha 90.000000
_cell_angle_beta 90.000000
_cell_angle_gamma 90.000000
_cell_volume 4495.690352
_symmetry_space_group_name_H-M "I M M A"
_symmetry_group_IT_number 74
_symmetry_cell_setting 'orthorhombic'
loop_
_space_group_symop_operation_xyz
x,y,z
-x,1/2-y,z
x,-y,-z
-x,1/2+y,-z
-x,-y,-z
x,1/2+y,-z
-x,y,z
x,1/2-y,z
1/2+x,1/2+y,1/2+z
1/2-x,-y,1/2+z
1/2+x,1/2-y,1/2-z
1/2-x,y,1/2-z
1/2-x,1/2-y,1/2-z
1/2+x,y,1/2-z
1/2-x,1/2+y,1/2+z
1/2+x,-y,1/2+z
loop_
_atom_site_type_symbol
_atom_site_label
_atom_site_fract_x
_atom_site_fract_y
_atom_site_fract_z
Si Si1 0.114494 0.356972 0.225888
Si Si2 0.386386 0.461455 0.153687
Si Si3 0.202080 0.361666 0.462536
Si Si4 0.606308 0.362760 0.410562
Si Si5 0.386688 0.356259 0.908093
O O1 0.144330 0.250000 0.232845
O O2 0.147420 0.416782 0.283131
O O3 0.137727 0.391032 0.157823
O O4 0.000000 0.356366 0.226709
O O5 0.500000 0.456364 0.154191
O O6 0.350961 0.405138 0.094988
O O7 0.359809 0.568424 0.142478
O O8 0.195479 0.250000 0.457348
O O9 0.311683 0.388850 0.456905
O O10 0.157276 0.386367 0.527294
O O11 0.500000 0.395355 0.423155
O O12 0.602424 0.250000 0.408777
O O13 0.500000 0.357668 0.914460
O O14 0.358530 0.250000 0.895226
#
# Coordination Sequence:
#
# PCOD9534196 Si02
#       5
#    16  16  16  16  16
#     4   8  14  25  41  63  91 117 139 166 203 252
#     4  10  18  27  41  61  87 117 144 172 209 254
#     4  10  18  26  41  64  88 116 145 170 204 255
#     4   8  15  28  43  61  89 119 142 169 207 251
#     4   9  18  31  44  60  85 115 146 180 214 249
#
# _framework density 17.794820000000001
#
# number of rings (size 3 to 8) (size 9 to 14) (size 15 to 20)
#    0.000    3.000    0.000    3.000    0.000    4.400 
#    0.000    3.000    0.000    2.400    0.000    2.800 
#    0.000    1.600    0.000    0.000    0.000    0.000 
#
# Total GULP energy -222972.660039 kJ/mol
# GULP energy per Si atom -5574.316501 kJ/mol
# Density = 1.775432 g / cm^3
# Si number density = 17.794820 Si / 1000 Ang^3
#
#
#
# Elastic Constant Matrix: (Units=GPa)
#
#
# Indices 1 2 3 4 5 6 
#
# 1 30.4569 11.0604 7.1699 0.0000 0.0000 0.0000
# 2 11.0604 51.8747 29.7892 0.0000 0.0000 0.0000
# 3 7.1699 29.7892 39.2222 0.0000 0.0000 0.0000
# 4 0.0000 0.0000 0.0000 1.2396 0.0000 0.0000
# 5 0.0000 0.0000 0.0000 0.0000 16.4720 0.0000
# 6 0.0000 0.0000 0.0000 0.0000 0.0000 8.4824
#
#
#
# Elastic Compliance Matrix: (Units=1/GPa)
#
#
# Indices 1 2 3 4 5 6 
#
# 1 0.035627 -0.006839 -0.001319 0.000000 0.000000 0.000000
# 2 -0.006839 0.035501 -0.025713 0.000000 0.000000 0.000000
# 3 -0.001319 -0.025713 0.045266 0.000000 0.000000 0.000000
# 4 0.000000 0.000000 0.000000 0.806705 0.000000 0.000000
# 5 0.000000 0.000000 0.000000 0.000000 0.060709 0.000000
# 6 0.000000 0.000000 0.000000 0.000000 0.000000 0.117891
#
#
# Mechanical properties :
#
#
# Convention : Reuss Voigt Hill
#
# Bulk Modulus (GPa) = 20.55364 24.17698 22.36531
# Shear Modulus (GPa) = 4.21707 10.14110 7.17909
#
# Velocity S-wave (km/s) = 1.54110 2.38983 2.01075
# Velocity P-wave (km/s) = 3.83954 4.60772 4.24106
#
# Compressibility (1/GPa) = 0.04865319
#
# Stress axis : x y z
#
# Youngs Moduli (GPa) = 28.06841 28.16824 22.09182
#
# Poissons Ratio (x) = 0.19264 0.02913
# Poissons Ratio (y) = 0.19196 0.56804
# Poissons Ratio (z) = 0.03701 0.72428
#
# Static dielectric constant tensor:
#      x y z
#    x 1.641180 0.000000 0.000000 
#    y 0.000000 1.618340 0.000000 
#    z 0.000000 0.000000 1.595030 
# 
# From -- ./inp_files/42656.got.cif
#   From: 2010.05.17/outbox.cif.g08.bks.cpg/sg74_22_cif.got.tgz:42656.got - 2010.06.03 17:57:02.
