data_PCOD9534012
_publ_section_title
;
Structure prediction by ZEFSAII (Michael W. Deem and Ramdas Pophale) SiO2 
 PCOD9534012
Probable space group: I M M A
;
_chemical_formula_sum "Si O2"
_cell_formula_units_Z 96
_cell_length_a 20.811525
_cell_length_b 17.968232
_cell_length_c 16.963475
_cell_angle_alpha 90.000000
_cell_angle_beta 90.000000
_cell_angle_gamma 90.000000
_cell_volume 6343.428872
_symmetry_space_group_name_H-M "I M M A"
_symmetry_group_IT_number 74
_symmetry_cell_setting 'orthorhombic'
loop_
_space_group_symop_operation_xyz
x,y,z
-x,1/2-y,z
x,-y,-z
-x,1/2+y,-z
-x,-y,-z
x,1/2+y,-z
-x,y,z
x,1/2-y,z
1/2+x,1/2+y,1/2+z
1/2-x,-y,1/2+z
1/2+x,1/2-y,1/2-z
1/2-x,y,1/2-z
1/2-x,1/2-y,1/2-z
1/2+x,y,1/2-z
1/2-x,1/2+y,1/2+z
1/2+x,-y,1/2+z
loop_
_atom_site_type_symbol
_atom_site_label
_atom_site_fract_x
_atom_site_fract_y
_atom_site_fract_z
Si Si1 0.426863 0.917947 0.978247
Si Si2 0.642695 0.833247 0.733905
Si Si3 0.205456 0.959645 0.326191
Si Si4 0.427717 0.463279 0.200465
Si Si5 0.259610 0.625696 0.872947
Si Si6 0.309471 0.164435 0.957354
O O1 0.500000 0.913121 0.007489
O O2 0.427547 0.920754 0.884006
O O3 0.381810 0.856479 0.015309
O O4 0.400718 0.000000 0.000000
O O5 0.616489 0.750000 0.729972
O O6 0.591239 0.899102 0.738166
O O7 0.686713 0.840775 0.813208
O O8 0.692175 0.848922 0.663182
O O9 0.250000 0.946140 0.250000
O O10 0.208177 0.892786 0.388214
O O11 0.131026 0.977994 0.302702
O O12 0.230911 0.036882 0.364425
O O13 0.500000 0.493136 0.211518
O O14 0.269828 0.650190 0.962268
O O15 0.303995 0.250000 0.933470
#
# Coordination Sequence:
#
# PCOD9534012 Si02
#       6
#    16  16  16  16  16  16
#     4  10  18  30  47  66  95 134 169 196 229 288
#     4  10  17  27  46  72 102 127 156 200 248 295
#     4  11  20  36  53  70  95 135 175 209 246 294
#     4  10  19  30  48  72 100 135 166 197 239 291
#     4  10  17  31  49  70  94 129 168 201 240 293
#     4  12  22  31  48  73 103 131 165 211 254 294
#
# _framework density 15.13377
#
# number of rings (size 3 to 8) (size 9 to 14) (size 15 to 20)
#    0.000    1.500    8.333    2.500    0.000    1.000 
#    0.000    1.667    0.000    0.000    0.000    2.333 
#    0.000    1.333    0.000    0.000    0.000    0.000 
#
# Total GULP energy -267518.526963 kJ/mol
# GULP energy per Si atom -5573.302645 kJ/mol
# Density = 1.509932 g / cm^3
# Si number density = 15.133770 Si / 1000 Ang^3
#
#
#
# Elastic Constant Matrix: (Units=GPa)
#
#
# Indices 1 2 3 4 5 6 
#
# 1 56.7752 21.2236 38.0300 0.0000 0.0000 0.0000
# 2 21.2236 98.2659 48.4299 0.0000 0.0000 0.0000
# 3 38.0300 48.4299 59.1079 0.0000 0.0000 0.0000
# 4 0.0000 0.0000 0.0000 20.1042 0.0000 0.0000
# 5 0.0000 0.0000 0.0000 0.0000 16.4816 0.0000
# 6 0.0000 0.0000 0.0000 0.0000 0.0000 11.1096
#
#
#
# Elastic Compliance Matrix: (Units=1/GPa)
#
#
# Indices 1 2 3 4 5 6 
#
# 1 0.032657 0.005539 -0.025550 0.000000 0.000000 0.000000
# 2 0.005539 0.018009 -0.018319 0.000000 0.000000 0.000000
# 3 -0.025550 -0.018319 0.048366 0.000000 0.000000 0.000000
# 4 0.000000 0.000000 0.000000 0.049741 0.000000 0.000000
# 5 0.000000 0.000000 0.000000 0.000000 0.060674 0.000000
# 6 0.000000 0.000000 0.000000 0.000000 0.000000 0.090013
#
#
# Mechanical properties :
#
#
# Convention : Reuss Voigt Hill
#
# Bulk Modulus (GPa) = 44.69811 47.72399 46.21105
# Shear Modulus (GPa) = 13.03524 16.63678 14.83601
#
# Velocity S-wave (km/s) = 2.93803 3.31919 3.13441
# Velocity P-wave (km/s) = 6.41162 6.80386 6.61065
#
# Compressibility (1/GPa) = 0.02237231
#
# Stress axis : x y z
#
# Youngs Moduli (GPa) = 30.62145 55.52899 20.67554
#
# Poissons Ratio (x) = -0.30756 0.52825
# Poissons Ratio (y) = -0.16960 0.37875
# Poissons Ratio (z) = 0.78236 1.01723
#
# Static dielectric constant tensor:
#      x y z
#    x 1.532070 0.000000 0.000000 
#    y 0.000000 1.512840 0.000000 
#    z 0.000000 0.000000 1.510520 
# 
# From -- ./inp_files/45389.got.cif
#   From: 2010.05.17/outbox.cif.g08.bks.cpg/sg74_23_cif.got.tgz:45389.got - 2010.06.03 17:57:02.
