data_PCOD9534685
_publ_section_title
;
Structure prediction by ZEFSAII (Michael W. Deem and Ramdas Pophale) SiO2 
 PCOD9534685
Probable space group: I M M A
;
_chemical_formula_sum "Si O2"
_cell_formula_units_Z 116
_cell_length_a 25.098515
_cell_length_b 7.796330
_cell_length_c 27.838618
_cell_angle_alpha 90.000000
_cell_angle_beta 90.000000
_cell_angle_gamma 90.000000
_cell_volume 5447.357919
_symmetry_space_group_name_H-M "I M M A"
_symmetry_group_IT_number 74
_symmetry_cell_setting 'orthorhombic'
loop_
_space_group_symop_operation_xyz
x,y,z
-x,1/2-y,z
x,-y,-z
-x,1/2+y,-z
-x,-y,-z
x,1/2+y,-z
-x,y,z
x,1/2-y,z
1/2+x,1/2+y,1/2+z
1/2-x,-y,1/2+z
1/2+x,1/2-y,1/2-z
1/2-x,y,1/2-z
1/2-x,1/2-y,1/2-z
1/2+x,y,1/2-z
1/2-x,1/2+y,1/2+z
1/2+x,-y,1/2+z
loop_
_atom_site_type_symbol
_atom_site_label
_atom_site_fract_x
_atom_site_fract_y
_atom_site_fract_z
Si Si1 0.435807 0.554519 0.328306
Si Si2 0.149422 0.452335 0.651196
Si Si3 0.500000 0.750000 0.454133
Si Si4 0.060632 0.954627 0.724141
Si Si5 0.741989 0.052721 0.303163
Si Si6 0.301746 0.547165 0.597598
Si Si7 0.586319 0.447857 0.431370
Si Si8 0.189150 0.452932 0.553485
O O1 0.500000 0.543799 0.325241
O O2 0.421874 0.750000 0.340078
O O3 0.415340 0.508522 0.275672
O O4 0.420465 0.441969 0.373407
O O5 0.162175 0.250000 0.654062
O O6 0.096501 0.484122 0.680766
O O7 0.198677 0.550439 0.675051
O O8 0.148521 0.505378 0.595533
O O9 0.546209 0.594260 0.449867
O O10 0.058799 0.750000 0.724076
O O11 0.000000 0.020817 0.720714
O O12 0.723633 0.250000 0.295666
O O13 0.750000 0.973210 0.250000
O O14 0.706508 0.977004 0.347442
O O15 0.309508 0.750000 0.603701
O O16 0.352293 0.491228 0.565948
O O17 0.246977 0.521269 0.569148
O O18 0.576815 0.250000 0.449066
O O19 0.173972 0.500000 0.500000
O O20 0.193944 0.250000 0.554971
#
# Coordination Sequence:
#
# PCOD9534685 Si02
#       8
#    16  16   4  16  16  16  16  16
#     4  10  18  31  47  70 102 144 195 240 279 322
#     4  10  21  36  53  81 111 144 182 230 286 339
#     4  12  22  36  52  78 108 156 204 244 294 326
#     4  10  21  34  51  75 106 150 195 236 277 331
#     4   9  18  33  51  74 106 147 188 226 276 335
#     4   9  20  35  53  81 115 145 183 233 284 340
#     4  11  21  34  52  77 114 152 196 246 288 339
#     4  10  21  38  63  87 113 139 177 230 289 354
#
# _framework density 21.294727999999999
#
# number of rings (size 3 to 8) (size 9 to 14) (size 15 to 20)
#    0.000    2.069    1.379    1.862    2.897    3.310 
#    0.000    0.000    0.000    0.414    0.000    0.483 
#    0.000    0.000    0.000    0.000    0.000    0.000 
#
# Total GULP energy -323150.756825 kJ/mol
# GULP energy per Si atom -5571.564773 kJ/mol
# Density = 2.124626 g / cm^3
# Si number density = 21.294728 Si / 1000 Ang^3
#
#
#
# Elastic Constant Matrix: (Units=GPa)
#
#
# Indices 1 2 3 4 5 6 
#
# 1 51.8307 18.7581 26.5284 0.0000 0.0000 0.0000
# 2 18.7581 69.4693 22.4999 0.0000 0.0000 0.0000
# 3 26.5284 22.4999 135.8162 0.0000 0.0000 0.0000
# 4 0.0000 0.0000 0.0000 21.4666 0.0000 0.0000
# 5 0.0000 0.0000 0.0000 0.0000 -1.5581 0.0000
# 6 0.0000 0.0000 0.0000 0.0000 0.0000 84.5035
#
#
#
# Elastic Compliance Matrix: (Units=1/GPa)
#
#
# Indices 1 2 3 4 5 6 
#
# 1 0.022983 -0.005021 -0.003657 0.000000 0.000000 0.000000
# 2 -0.005021 0.016308 -0.001721 0.000000 0.000000 0.000000
# 3 -0.003657 -0.001721 0.008362 0.000000 0.000000 0.000000
# 4 0.000000 0.000000 0.000000 0.046584 0.000000 0.000000
# 5 0.000000 0.000000 0.000000 0.000000 -0.641822 0.000000
# 6 0.000000 0.000000 0.000000 0.000000 0.000000 0.011834
#
#
# Mechanical properties :
#
#
# Convention : Reuss Voigt Hill
#
# Bulk Modulus (GPa) = 37.23798 43.63210 40.43504
# Shear Modulus (GPa) = -9.88141 33.50439 11.81149
#
# Velocity S-wave (km/s) = -2.15647 3.97087 2.35769
# Velocity P-wave (km/s) = 3.36518 6.44654 5.14209
#
# Compressibility (1/GPa) = 0.02685430
#
# Stress axis : x y z
#
# Youngs Moduli (GPa) = 43.51092 61.31942 119.58374
#
# Poissons Ratio (x) = 0.30790 0.43735
# Poissons Ratio (y) = 0.21848 0.20579
# Poissons Ratio (z) = 0.15913 0.10552
#
# Static dielectric constant tensor:
#      x y z
#    x 1.813600 0.000000 0.000000 
#    y 0.000000 1.788850 0.000000 
#    z 0.000000 0.000000 1.825360 
# 
# From -- ./inp_files/68769.got.cif
#   From: 2010.05.17/outbox.cif.g08.bks.cpg/sg74_35_cif.got.tgz:68769.got - 2010.06.03 17:57:02.
