data_PCOD9534140
_publ_section_title
;
Structure prediction by ZEFSAII (Michael W. Deem and Ramdas Pophale) SiO2 
 PCOD9534140
Probable space group: I M M A
;
_chemical_formula_sum "Si O2"
_cell_formula_units_Z 72
_cell_length_a 15.112882
_cell_length_b 15.236190
_cell_length_c 13.973623
_cell_angle_alpha 90.000000
_cell_angle_beta 90.000000
_cell_angle_gamma 90.000000
_cell_volume 3217.604742
_symmetry_space_group_name_H-M "I M M A"
_symmetry_group_IT_number 74
_symmetry_cell_setting 'orthorhombic'
loop_
_space_group_symop_operation_xyz
x,y,z
-x,1/2-y,z
x,-y,-z
-x,1/2+y,-z
-x,-y,-z
x,1/2+y,-z
-x,y,z
x,1/2-y,z
1/2+x,1/2+y,1/2+z
1/2-x,-y,1/2+z
1/2+x,1/2-y,1/2-z
1/2-x,y,1/2-z
1/2-x,1/2-y,1/2-z
1/2+x,y,1/2-z
1/2-x,1/2+y,1/2+z
1/2+x,-y,1/2+z
loop_
_atom_site_type_symbol
_atom_site_label
_atom_site_fract_x
_atom_site_fract_y
_atom_site_fract_z
Si Si1 0.644469 0.250000 0.361734
Si Si2 0.861635 0.250000 0.357484
Si Si3 0.869634 0.897006 0.495448
Si Si4 0.750000 0.511190 0.250000
Si Si5 0.820807 0.078166 0.058113
Si Si6 0.599235 0.151774 0.784286
O O1 0.753409 0.250000 0.360485
O O2 0.613055 0.250000 0.252924
O O3 0.620747 0.161187 0.415911
O O4 0.892879 0.163324 0.414003
O O5 0.762347 0.895487 0.491073
O O6 0.904121 0.853641 0.399451
O O7 0.894882 0.000000 0.500000
O O8 0.772492 0.453144 0.156763
O O9 0.665942 0.574688 0.241372
O O10 0.866052 0.000000 0.000000
O O11 0.500000 0.137284 0.746932
O O12 0.628538 0.250000 0.755934
#
# Coordination Sequence:
#
# PCOD9534140 Si02
#       6
#     8   8  16   8  16  16
#     4   9  18  28  50  80 123 161 205 255 306 366
#     4   9  16  28  49  74 113 158 198 242 303 362
#     4  10  17  32  53  81 116 155 194 243 308 378
#     4  12  21  39  62  88 124 168 214 264 310 388
#     4  10  19  33  55  89 123 161 211 258 314 378
#     4  11  24  40  59  88 127 166 210 262 318 383
#
# _framework density 22.376894
#
# number of rings (size 3 to 8) (size 9 to 14) (size 15 to 20)
#    0.000    1.778    5.556    3.000    0.000    0.444 
#    2.000    0.000    0.000    0.667    0.000    2.333 
#    0.000    0.000    0.000    0.000    0.000    0.000 
#
# Total GULP energy -201067.041313 kJ/mol
# GULP energy per Si atom -5585.195592 kJ/mol
# Density = 2.232596 g / cm^3
# Si number density = 22.376894 Si / 1000 Ang^3
#
#
#
# Elastic Constant Matrix: (Units=GPa)
#
#
# Indices 1 2 3 4 5 6 
#
# 1 50.9446 16.4343 2.8733 0.0000 0.0000 0.0000
# 2 16.4343 184.5890 43.8751 0.0000 0.0000 0.0000
# 3 2.8733 43.8751 54.8846 0.0000 0.0000 0.0000
# 4 0.0000 0.0000 0.0000 28.1765 0.0000 0.0000
# 5 0.0000 0.0000 0.0000 0.0000 -23.3386 0.0000
# 6 0.0000 0.0000 0.0000 0.0000 0.0000 -5.1734
#
#
#
# Elastic Compliance Matrix: (Units=1/GPa)
#
#
# Indices 1 2 3 4 5 6 
#
# 1 0.020219 -0.001912 0.000470 0.000000 0.000000 0.000000
# 2 -0.001912 0.006869 -0.005391 0.000000 0.000000 0.000000
# 3 0.000470 -0.005391 0.022505 0.000000 0.000000 0.000000
# 4 0.000000 0.000000 0.000000 0.035491 0.000000 0.000000
# 5 0.000000 0.000000 0.000000 0.000000 -0.042848 0.000000
# 6 0.000000 0.000000 0.000000 0.000000 0.000000 -0.193297
#
#
# Mechanical properties :
#
#
# Convention : Reuss Voigt Hill
#
# Bulk Modulus (GPa) = 27.83394 46.30929 37.07161
# Shear Modulus (GPa) = -39.86655 15.08195 -12.39230
#
# Velocity S-wave (km/s) = -4.22547 2.59896 -2.35585
# Velocity P-wave (km/s) = 3.36756 5.45401 3.03362
#
# Compressibility (1/GPa) = 0.03592736
#
# Stress axis : x y z
#
# Youngs Moduli (GPa) = 49.45741 145.58015 44.43434
#
# Poissons Ratio (x) = 0.27833 -0.02088
# Poissons Ratio (y) = 0.09455 0.23955
# Poissons Ratio (z) = -0.02324 0.78484
#
# Static dielectric constant tensor:
#      x y z
#    x 1.819520 0.000000 0.000000 
#    y 0.000000 1.890420 0.000000 
#    z 0.000000 0.000000 1.813930 
# 
# From -- ./inp_files/33872.got.cif
#   From: 2010.05.17/outbox.cif.g08.bks.cpg/sg74_17_cif.got.tgz:33872.got - 2010.06.03 17:57:02.
