data_PCOD9534536
_publ_section_title
;
Structure prediction by ZEFSAII (Michael W. Deem and Ramdas Pophale) SiO2 
 PCOD9534536
Probable space group: I M M A
;
_chemical_formula_sum "Si O2"
_cell_formula_units_Z 88
_cell_length_a 7.942797
_cell_length_b 21.588474
_cell_length_c 25.336700
_cell_angle_alpha 90.000000
_cell_angle_beta 90.000000
_cell_angle_gamma 90.000000
_cell_volume 4344.556577
_symmetry_space_group_name_H-M "I M M A"
_symmetry_group_IT_number 74
_symmetry_cell_setting 'orthorhombic'
loop_
_space_group_symop_operation_xyz
x,y,z
-x,1/2-y,z
x,-y,-z
-x,1/2+y,-z
-x,-y,-z
x,1/2+y,-z
-x,y,z
x,1/2-y,z
1/2+x,1/2+y,1/2+z
1/2-x,-y,1/2+z
1/2+x,1/2-y,1/2-z
1/2-x,y,1/2-z
1/2-x,1/2-y,1/2-z
1/2+x,y,1/2-z
1/2-x,1/2+y,1/2+z
1/2+x,-y,1/2+z
loop_
_atom_site_type_symbol
_atom_site_label
_atom_site_fract_x
_atom_site_fract_y
_atom_site_fract_z
Si Si1 0.793897 0.680919 0.921294
Si Si2 0.797869 0.615873 0.188324
Si Si3 0.797439 0.750000 0.188109
Si Si4 0.808260 0.944525 0.966197
Si Si5 0.190746 0.012577 0.358109
Si Si6 0.299237 0.632025 0.693281
O O1 0.741137 0.750000 0.936435
O O2 0.734535 0.624499 0.958657
O O3 0.743993 0.667169 0.860288
O O4 0.000000 0.678938 0.922193
O O5 0.750000 0.613174 0.250000
O O6 0.739470 0.683292 0.167099
O O7 0.719999 0.556837 0.160345
O O8 0.000000 0.612210 0.183844
O O9 0.750000 0.750000 0.250000
O O10 0.000000 0.750000 0.184559
O O11 0.809832 0.969453 0.906404
O O12 0.000000 0.936834 0.986474
O O13 0.727362 0.000000 0.000000
O O14 0.224960 0.062830 0.312615
O O15 0.000000 0.020609 0.376634
O O16 0.500000 0.628281 0.691522
O O17 0.250000 0.659172 0.750000
#
# Coordination Sequence:
#
# PCOD9534536 Si02
#       6
#    16  16   8  16  16  16
#     4   8  15  29  50  75 101 130 166 205 248 298
#     4  10  18  30  47  69  97 128 164 203 245 295
#     4   8  16  28  44  64  88 122 160 198 238 286
#     4   9  18  34  56  77  97 125 160 206 256 303
#     4  11  21  32  48  71  97 129 166 206 249 295
#     4  10  19  31  47  70 102 137 170 207 245 290
#
# _framework density 20.255230000000001
#
# number of rings (size 3 to 8) (size 9 to 14) (size 15 to 20)
#    0.000    2.545    0.000    4.364    0.000    1.455 
#    0.000    0.000    2.000   13.091    0.000    0.000 
#    0.000    0.000    0.000    0.000    0.000    0.000 
#
# Total GULP energy -245167.519930 kJ/mol
# GULP energy per Si atom -5571.989089 kJ/mol
# Density = 2.020913 g / cm^3
# Si number density = 20.255230 Si / 1000 Ang^3
#
#
#
# Elastic Constant Matrix: (Units=GPa)
#
#
# Indices 1 2 3 4 5 6 
#
# 1 48.0721 4.5561 -5.6289 0.0000 0.0000 0.0000
# 2 4.5561 180.7202 32.0260 0.0000 0.0000 0.0000
# 3 -5.6289 32.0260 41.8498 0.0000 0.0000 0.0000
# 4 0.0000 0.0000 0.0000 25.2020 0.0000 0.0000
# 5 0.0000 0.0000 0.0000 0.0000 13.6916 0.0000
# 6 0.0000 0.0000 0.0000 0.0000 0.0000 1.3799
#
#
#
# Elastic Compliance Matrix: (Units=1/GPa)
#
#
# Indices 1 2 3 4 5 6 
#
# 1 0.021362 -0.001212 0.003801 0.000000 0.000000 0.000000
# 2 -0.001212 0.006470 -0.005115 0.000000 0.000000 0.000000
# 3 0.003801 -0.005115 0.028320 0.000000 0.000000 0.000000
# 4 0.000000 0.000000 0.000000 0.039679 0.000000 0.000000
# 5 0.000000 0.000000 0.000000 0.000000 0.073037 0.000000
# 6 0.000000 0.000000 0.000000 0.000000 0.000000 0.724713
#
#
# Mechanical properties :
#
#
# Convention : Reuss Voigt Hill
#
# Bulk Modulus (GPa) = 19.56917 36.94985 28.25951
# Shear Modulus (GPa) = 5.46050 24.03396 14.74723
#
# Velocity S-wave (km/s) = 1.64368 3.44838 2.70120
# Velocity P-wave (km/s) = 3.64479 5.84267 4.86936
#
# Compressibility (1/GPa) = 0.05110080
#
# Stress axis : x y z
#
# Youngs Moduli (GPa) = 46.81208 154.55159 35.31062
#
# Poissons Ratio (x) = 0.18733 -0.13421
# Poissons Ratio (y) = 0.05674 0.18060
# Poissons Ratio (z) = -0.17792 0.79046
#
# Static dielectric constant tensor:
#      x y z
#    x 1.736090 0.000000 0.000000 
#    y 0.000000 1.777180 0.000000 
#    z 0.000000 0.000000 1.703200 
# 
# From -- ./inp_files/70468.got.cif
#   From: 2010.05.17/outbox.cif.g08.bks.cpg/sg74_36_cif.got.tgz:70468.got - 2010.06.03 17:57:02.
