data_PCOD9534937
_publ_section_title
;
Structure prediction by ZEFSAII (Michael W. Deem and Ramdas Pophale) SiO2 
 PCOD9534937
Probable space group: I M M A
;
_chemical_formula_sum "Si O2"
_cell_formula_units_Z 64
_cell_length_a 10.866818
_cell_length_b 21.346354
_cell_length_c 15.577062
_cell_angle_alpha 90.000000
_cell_angle_beta 90.000000
_cell_angle_gamma 90.000000
_cell_volume 3613.363467
_symmetry_space_group_name_H-M "I M M A"
_symmetry_group_IT_number 74
_symmetry_cell_setting 'orthorhombic'
loop_
_space_group_symop_operation_xyz
x,y,z
-x,1/2-y,z
x,-y,-z
-x,1/2+y,-z
-x,-y,-z
x,1/2+y,-z
-x,y,z
x,1/2-y,z
1/2+x,1/2+y,1/2+z
1/2-x,-y,1/2+z
1/2+x,1/2-y,1/2-z
1/2-x,y,1/2-z
1/2-x,1/2-y,1/2-z
1/2+x,y,1/2-z
1/2-x,1/2+y,1/2+z
1/2+x,-y,1/2+z
loop_
_atom_site_type_symbol
_atom_site_label
_atom_site_fract_x
_atom_site_fract_y
_atom_site_fract_z
Si Si1 0.000000 0.938619 0.736690
Si Si2 0.250000 0.138629 0.250000
Si Si3 0.500000 0.040893 0.911944
Si Si4 0.147825 0.819574 0.927241
Si Si5 0.000000 0.521978 0.100296
Si Si6 0.260080 0.431538 0.546354
O O1 0.871931 0.901344 0.725260
O O2 0.000000 0.965239 0.833579
O O3 0.000000 0.994400 0.668319
O O4 0.206134 0.176554 0.167216
O O5 0.626792 0.079025 0.913332
O O6 0.500000 0.000000 0.000000
O O7 0.171638 0.750000 0.963519
O O8 0.000000 0.827490 0.921856
O O9 0.204018 0.876658 0.981165
O O10 0.125423 0.560574 0.110883
O O11 0.000000 0.500000 0.000000
O O12 0.252350 0.500000 0.500000
#
# Coordination Sequence:
#
# PCOD9534937 Si02
#       6
#     8   8   8  16   8  16
#     4  12  22  34  59  90 125 158 192 242 300 346
#     4  12  21  36  54  84 120 162 191 228 283 362
#     4  10  20  34  50  84 119 148 187 243 296 339
#     4  11  23  39  57  83 116 159 200 238 291 356
#     4  10  18  32  54  84 111 152 193 235 280 341
#     4  10  19  35  58  79 109 146 193 241 283 332
#
# _framework density 17.712029999999999
#
# number of rings (size 3 to 8) (size 9 to 14) (size 15 to 20)
#    0.000    1.250    2.500    7.875    0.000    0.000 
#    0.000    1.875    0.000    0.000    0.000    5.250 
#    0.000    0.000    0.000    0.000    0.000    0.000 
#
# Total GULP energy -178430.084677 kJ/mol
# GULP energy per Si atom -5575.940146 kJ/mol
# Density = 1.767172 g / cm^3
# Si number density = 17.712030 Si / 1000 Ang^3
#
#
#
# Elastic Constant Matrix: (Units=GPa)
#
#
# Indices 1 2 3 4 5 6 
#
# 1 183.8299 47.3210 17.7638 0.0000 0.0000 0.0000
# 2 47.3210 118.0488 35.7643 0.0000 0.0000 0.0000
# 3 17.7638 35.7643 39.8525 0.0000 0.0000 0.0000
# 4 0.0000 0.0000 0.0000 -0.2585 0.0000 0.0000
# 5 0.0000 0.0000 0.0000 0.0000 23.4526 0.0000
# 6 0.0000 0.0000 0.0000 0.0000 0.0000 0.6110
#
#
#
# Elastic Compliance Matrix: (Units=1/GPa)
#
#
# Indices 1 2 3 4 5 6 
#
# 1 0.006081 -0.002220 -0.000718 0.000000 0.000000 0.000000
# 2 -0.002220 0.012445 -0.010179 0.000000 0.000000 0.000000
# 3 -0.000718 -0.010179 0.034547 -0.000003 0.000000 0.000000
# 4 0.000000 0.000000 -0.000003 -3.869210 0.000000 -0.000016
# 5 0.000000 0.000000 0.000000 0.000000 0.042639 0.000000
# 6 0.000000 0.000000 0.000000 -0.000016 0.000000 1.636730
#
#
# Mechanical properties :
#
#
# Convention : Reuss Voigt Hill
#
# Bulk Modulus (GPa) = 37.25912 60.38105 48.82009
# Shear Modulus (GPa) = -2.37915 20.81983 9.22034
#
# Velocity S-wave (km/s) = -1.16024 3.43222 2.28407
# Velocity P-wave (km/s) = 4.39168 7.06196 5.88040
#
# Compressibility (1/GPa) = 0.02683906
#
# Stress axis : x y z
#
# Youngs Moduli (GPa) = 164.45599 80.35579 28.94601
#
# Poissons Ratio (x) = 0.17838 0.02079
# Poissons Ratio (y) = 0.36508 0.29463
# Poissons Ratio (z) = 0.11811 0.81791
#
# Static dielectric constant tensor:
#      x y z
#    x 1.690660 0.000000 0.000000 
#    y 0.000000 1.635410 0.000000 
#    z 0.000000 0.000000 1.588220 
# 
# From -- ./inp_files/30302.got.cif
#   From: 2010.05.17/outbox.cif.g08.bks.cpg/sg74_16_cif.got.tgz:30302.got - 2010.06.03 17:57:02.
