data_PCOD9534737
_publ_section_title
;
Structure prediction by ZEFSAII (Michael W. Deem and Ramdas Pophale) SiO2 
 PCOD9534737
Probable space group: I M M A
;
_chemical_formula_sum "Si O2"
_cell_formula_units_Z 80
_cell_length_a 27.072212
_cell_length_b 14.512191
_cell_length_c 10.684236
_cell_angle_alpha 90.000000
_cell_angle_beta 90.000000
_cell_angle_gamma 90.000000
_cell_volume 4197.591777
_symmetry_space_group_name_H-M "I M M A"
_symmetry_group_IT_number 74
_symmetry_cell_setting 'orthorhombic'
loop_
_space_group_symop_operation_xyz
x,y,z
-x,1/2-y,z
x,-y,-z
-x,1/2+y,-z
-x,-y,-z
x,1/2+y,-z
-x,y,z
x,1/2-y,z
1/2+x,1/2+y,1/2+z
1/2-x,-y,1/2+z
1/2+x,1/2-y,1/2-z
1/2-x,y,1/2-z
1/2-x,1/2-y,1/2-z
1/2+x,y,1/2-z
1/2-x,1/2+y,1/2+z
1/2+x,-y,1/2+z
loop_
_atom_site_type_symbol
_atom_site_label
_atom_site_fract_x
_atom_site_fract_y
_atom_site_fract_z
Si Si1 0.143563 0.856298 0.069420
Si Si2 0.390546 0.646432 0.720273
Si Si3 0.748875 0.098771 0.884343
Si Si4 0.054837 0.027405 0.852407
Si Si5 0.788727 0.391257 0.354816
O O1 0.152913 0.750000 0.102686
O O2 0.193347 0.913995 0.085423
O O3 0.099000 0.898863 0.149915
O O4 0.129189 0.858104 0.923038
O O5 0.410334 0.750000 0.739936
O O6 0.429422 0.563162 0.724966
O O7 0.343628 0.630177 0.809559
O O8 0.750000 0.146860 0.750000
O O9 0.721097 0.001467 0.863548
O O10 0.724747 0.143616 0.006609
O O11 0.000000 0.060267 0.817736
O O12 0.052796 0.000000 0.000000
O O13 0.750000 0.357129 0.250000
#
# Coordination Sequence:
#
# PCOD9534737 Si02
#       5
#    16  16  16  16  16
#     4  10  20  33  51  75 107 146 188 230 277 331
#     4  10  20  33  53  78 105 142 189 232 274 335
#     4  10  20  31  50  76 109 149 183 223 270 323
#     4   9  18  32  52  77 109 143 177 231 296 342
#     4  10  18  31  51  74 105 148 186 220 267 325
#
# _framework density 19.058547000000001
#
# number of rings (size 3 to 8) (size 9 to 14) (size 15 to 20)
#    0.000    2.200    2.000    2.400    5.600    2.400 
#    0.000    4.000    0.000    0.000    0.000   11.200 
#    0.000    9.600    0.000    0.000    0.000    0.000 
#
# Total GULP energy -222993.029167 kJ/mol
# GULP energy per Si atom -5574.825729 kJ/mol
# Density = 1.901517 g / cm^3
# Si number density = 19.058547 Si / 1000 Ang^3
#
#
#
# Elastic Constant Matrix: (Units=GPa)
#
#
# Indices 1 2 3 4 5 6 
#
# 1 93.2530 28.8181 15.8770 0.0000 0.0000 0.0000
# 2 28.8181 95.9665 19.8278 0.0000 0.0000 0.0000
# 3 15.8770 19.8278 99.8443 0.0000 0.0000 0.0000
# 4 0.0000 0.0000 0.0000 3.7523 0.0000 0.0000
# 5 0.0000 0.0000 0.0000 0.0000 12.4943 0.0000
# 6 0.0000 0.0000 0.0000 0.0000 0.0000 -1.8825
#
#
#
# Elastic Compliance Matrix: (Units=1/GPa)
#
#
# Indices 1 2 3 4 5 6 
#
# 1 0.011966 -0.003337 -0.001240 0.000000 0.000000 0.000000
# 2 -0.003337 0.011797 -0.001812 0.000000 0.000000 0.000000
# 3 -0.001240 -0.001812 0.010573 0.000000 0.000000 0.000000
# 4 0.000000 0.000000 0.000000 0.266507 0.000000 0.000000
# 5 0.000000 0.000000 0.000000 0.000000 0.080037 0.000000
# 6 0.000000 0.000000 0.000000 0.000000 0.000000 -0.531204
#
#
# Mechanical properties :
#
#
# Convention : Reuss Voigt Hill
#
# Bulk Modulus (GPa) = 46.38875 46.45661 46.42268
# Shear Modulus (GPa) = -38.35506 17.84219 -10.25643
#
# Velocity S-wave (km/s) = -4.49094 3.06302 -2.32233
# Velocity P-wave (km/s) = 1.58064 6.07767 4.14968
#
# Compressibility (1/GPa) = 0.02155695
#
# Stress axis : x y z
#
# Youngs Moduli (GPa) = 83.57075 84.76882 94.58373
#
# Poissons Ratio (x) = 0.28288 0.11729
# Poissons Ratio (y) = 0.27888 0.17139
# Poissons Ratio (z) = 0.10364 0.15360
#
# Static dielectric constant tensor:
#      x y z
#    x 1.645920 0.000000 0.000000 
#    y 0.000000 1.726920 0.000000 
#    z 0.000000 0.000000 1.694430 
# 
# From -- ./inp_files/20809.got.cif
#   From: 2010.05.17/outbox.cif.g08.bks.cpg/sg74_11_cif.got.tgz:20809.got - 2010.06.03 17:57:02.
