data_PCOD9534525
_publ_section_title
;
Structure prediction by ZEFSAII (Michael W. Deem and Ramdas Pophale) SiO2 
 PCOD9534525
Probable space group: I M M A
;
_chemical_formula_sum "Si O2"
_cell_formula_units_Z 56
_cell_length_a 8.450600
_cell_length_b 13.716209
_cell_length_c 24.060062
_cell_angle_alpha 90.000000
_cell_angle_beta 90.000000
_cell_angle_gamma 90.000000
_cell_volume 2788.806497
_symmetry_space_group_name_H-M "I M M A"
_symmetry_group_IT_number 74
_symmetry_cell_setting 'orthorhombic'
loop_
_space_group_symop_operation_xyz
x,y,z
-x,1/2-y,z
x,-y,-z
-x,1/2+y,-z
-x,-y,-z
x,1/2+y,-z
-x,y,z
x,1/2-y,z
1/2+x,1/2+y,1/2+z
1/2-x,-y,1/2+z
1/2+x,1/2-y,1/2-z
1/2-x,y,1/2-z
1/2-x,1/2-y,1/2-z
1/2+x,y,1/2-z
1/2-x,1/2+y,1/2+z
1/2+x,-y,1/2+z
loop_
_atom_site_type_symbol
_atom_site_label
_atom_site_fract_x
_atom_site_fract_y
_atom_site_fract_z
Si Si1 0.186689 0.359987 0.523586
Si Si2 0.811654 0.540535 0.313034
Si Si3 0.810359 0.250000 0.813642
Si Si4 0.315432 0.449804 0.418430
O O1 0.230800 0.250000 0.539087
O O2 0.218618 0.377305 0.458081
O O3 0.284939 0.443802 0.554000
O O4 0.000000 0.374833 0.535124
O O5 0.750000 0.528907 0.250000
O O6 0.756152 0.647417 0.334842
O O7 0.744029 0.461216 0.355587
O O8 0.000000 0.538871 0.312729
O O9 0.750000 0.250000 0.750000
O O10 0.000000 0.250000 0.816037
O O11 0.500000 0.425967 0.420486
#
# Coordination Sequence:
#
# PCOD9534525 Si02
#       4
#    16  16   8  16
#     4  10  21  38  59  82 110 144 184 229 278 326
#     4  11  21  35  53  76 109 145 183 224 272 325
#     4  10  18  30  46  70 102 138 178 216 261 316
#     4  11  22  36  56  83 113 145 185 227 273 328
#
# _framework density 20.080273999999999
#
# number of rings (size 3 to 8) (size 9 to 14) (size 15 to 20)
#    0.000    1.429    0.000   10.714    2.000    2.286 
#    0.000    0.000    0.000    0.857    0.000    0.000 
#    0.000    0.000    0.000    0.000    0.000    0.000 
#
# Total GULP energy -156474.072139 kJ/mol
# GULP energy per Si atom -5588.359719 kJ/mol
# Density = 2.003457 g / cm^3
# Si number density = 20.080274 Si / 1000 Ang^3
#
#
#
# Elastic Constant Matrix: (Units=GPa)
#
#
# Indices 1 2 3 4 5 6 
#
# 1 96.1265 -8.9793 -10.0182 0.0000 0.0000 0.0000
# 2 -8.9793 26.4820 -2.1216 0.0000 0.0000 0.0000
# 3 -10.0182 -2.1216 83.5687 0.0000 0.0000 0.0000
# 4 0.0000 0.0000 0.0000 28.2951 0.0000 0.0000
# 5 0.0000 0.0000 0.0000 0.0000 30.8195 0.0000
# 6 0.0000 0.0000 0.0000 0.0000 0.0000 -66.9522
#
#
#
# Elastic Compliance Matrix: (Units=1/GPa)
#
#
# Indices 1 2 3 4 5 6 
#
# 1 0.010905 0.003810 0.001404 0.000000 0.000000 0.000000
# 2 0.003810 0.039170 0.001451 0.000000 0.000000 0.000000
# 3 0.001404 0.001451 0.012171 0.000000 0.000000 0.000000
# 4 0.000000 0.000000 0.000000 0.035342 0.000000 0.000000
# 5 0.000000 0.000000 0.000000 0.000000 0.032447 0.000000
# 6 0.000000 0.000000 0.000000 0.000000 0.000000 -0.014936
#
#
# Mechanical properties :
#
#
# Convention : Reuss Voigt Hill
#
# Bulk Modulus (GPa) = 13.23155 18.21546 15.72351
# Shear Modulus (GPa) = 39.38226 13.58556 26.48391
#
# Velocity S-wave (km/s) = 4.43339 2.60390 3.63561
# Velocity P-wave (km/s) = 5.72803 4.25810 5.04687
#
# Compressibility (1/GPa) = 0.07557691
#
# Stress axis : x y z
#
# Youngs Moduli (GPa) = 91.69948 25.52994 82.16006
#
# Poissons Ratio (x) = -0.09727 -0.11536
# Poissons Ratio (y) = -0.34939 -0.11923
# Poissons Ratio (z) = -0.12875 -0.03705
#
# Static dielectric constant tensor:
#      x y z
#    x 1.658190 0.000000 0.000000 
#    y 0.000000 1.715830 0.000000 
#    z 0.000000 0.000000 1.750200 
# 
# From -- ./inp_files/56276.got.cif
#   From: 2010.05.17/outbox.cif.g08.bks.cpg/sg74_29_cif.got.tgz:56276.got - 2010.06.03 17:57:02.
