data_PCOD9534291
_publ_section_title
;
Structure prediction by ZEFSAII (Michael W. Deem and Ramdas Pophale) SiO2 
 PCOD9534291
Probable space group: I M M A
;
_chemical_formula_sum "Si O2"
_cell_formula_units_Z 56
_cell_length_a 8.668138
_cell_length_b 30.024839
_cell_length_c 13.901651
_cell_angle_alpha 90.000000
_cell_angle_beta 90.000000
_cell_angle_gamma 90.000000
_cell_volume 3618.036014
_symmetry_space_group_name_H-M "I M M A"
_symmetry_group_IT_number 74
_symmetry_cell_setting 'orthorhombic'
loop_
_space_group_symop_operation_xyz
x,y,z
-x,1/2-y,z
x,-y,-z
-x,1/2+y,-z
-x,-y,-z
x,1/2+y,-z
-x,y,z
x,1/2-y,z
1/2+x,1/2+y,1/2+z
1/2-x,-y,1/2+z
1/2+x,1/2-y,1/2-z
1/2-x,y,1/2-z
1/2-x,1/2-y,1/2-z
1/2+x,y,1/2-z
1/2-x,1/2+y,1/2+z
1/2+x,-y,1/2+z
loop_
_atom_site_type_symbol
_atom_site_label
_atom_site_fract_x
_atom_site_fract_y
_atom_site_fract_z
Si Si1 0.185261 0.565176 0.958547
Si Si2 0.316062 0.750000 0.858929
Si Si3 0.315332 0.842191 0.641946
Si Si4 0.184558 0.979010 0.354978
O O1 0.222562 0.614191 0.919811
O O2 0.255324 0.527649 0.888286
O O3 0.000000 0.559968 0.960065
O O4 0.252386 0.554371 0.063492
O O5 0.500000 0.750000 0.856608
O O6 0.250000 0.750000 0.750000
O O7 0.253994 0.796465 0.900422
O O8 0.500000 0.837811 0.648268
O O9 0.250000 0.848109 0.750000
O O10 0.250000 0.968761 0.250000
O O11 0.000000 0.978901 0.354733
#
# Coordination Sequence:
#
# PCOD9534291 Si02
#       4
#    16   8  16  16
#     4  10  20  33  49  70  94 122 157 193 230 275
#     4  10  18  28  44  64  91 122 153 188 226 272
#     4  10  19  30  46  67  94 124 154 189 228 272
#     4  11  21  33  49  68  94 125 156 193 231 272
#
# _framework density 15.478011
#
# number of rings (size 3 to 8) (size 9 to 14) (size 15 to 20)
#    0.000    1.714    0.000    9.857    0.000    6.857 
#    0.000    0.000    0.000    0.000    0.000    1.000 
#    0.000    0.000    0.000    0.000    0.000    0.000 
#
# Total GULP energy -156289.503348 kJ/mol
# GULP energy per Si atom -5581.767977 kJ/mol
# Density = 1.544278 g / cm^3
# Si number density = 15.478011 Si / 1000 Ang^3
#
#
#
# Elastic Constant Matrix: (Units=GPa)
#
#
# Indices 1 2 3 4 5 6 
#
# 1 115.1746 72.4203 43.3619 0.0000 0.0000 0.0000
# 2 72.4203 156.6753 61.1602 0.0000 0.0000 0.0000
# 3 43.3619 61.1602 86.3194 0.0000 0.0000 0.0000
# 4 0.0000 0.0000 0.0000 18.8726 0.0000 0.0000
# 5 0.0000 0.0000 0.0000 0.0000 23.6865 0.0000
# 6 0.0000 0.0000 0.0000 0.0000 0.0000 24.9735
#
#
#
# Elastic Compliance Matrix: (Units=1/GPa)
#
#
# Indices 1 2 3 4 5 6 
#
# 1 0.012812 -0.004713 -0.003096 0.000000 0.000000 0.000000
# 2 -0.004713 0.010557 -0.005112 0.000000 0.000000 0.000000
# 3 -0.003096 -0.005112 0.016763 0.000000 0.000000 0.000000
# 4 0.000000 0.000000 0.000000 0.052987 0.000000 0.000000
# 5 0.000000 0.000000 0.000000 0.000000 0.042218 0.000000
# 6 0.000000 0.000000 0.000000 0.000000 0.000000 0.040042
#
#
# Mechanical properties :
#
#
# Convention : Reuss Voigt Hill
#
# Bulk Modulus (GPa) = 69.99170 79.11712 74.55441
# Shear Modulus (GPa) = 24.27358 25.58831 24.93095
#
# Velocity S-wave (km/s) = 3.96443 4.07037 4.01775
# Velocity P-wave (km/s) = 8.14087 8.56256 8.35438
#
# Compressibility (1/GPa) = 0.01428741
#
# Stress axis : x y z
#
# Youngs Moduli (GPa) = 78.05230 94.72477 59.65694
#
# Poissons Ratio (x) = 0.44647 0.18472
# Poissons Ratio (y) = 0.36789 0.30498
# Poissons Ratio (z) = 0.24168 0.48425
#
# Static dielectric constant tensor:
#      x y z
#    x 1.517700 0.000000 0.000000 
#    y 0.000000 1.535880 0.000000 
#    z 0.000000 0.000000 1.494290 
# 
# From -- ./inp_files/17471.got.cif
#   From: 2010.05.17/outbox.cif.g08.bks.cpg/sg74_9_cif.got.tgz:17471.got - 2010.06.03 17:57:02.
