data_PCOD9534440
_publ_section_title
;
Structure prediction by ZEFSAII (Michael W. Deem and Ramdas Pophale) SiO2 
 PCOD9534440
Probable space group: I M M A
;
_chemical_formula_sum "Si O2"
_cell_formula_units_Z 88
_cell_length_a 17.011477
_cell_length_b 19.759189
_cell_length_c 14.103232
_cell_angle_alpha 90.000000
_cell_angle_beta 90.000000
_cell_angle_gamma 90.000000
_cell_volume 4740.561530
_symmetry_space_group_name_H-M "I M M A"
_symmetry_group_IT_number 74
_symmetry_cell_setting 'orthorhombic'
loop_
_space_group_symop_operation_xyz
x,y,z
-x,1/2-y,z
x,-y,-z
-x,1/2+y,-z
-x,-y,-z
x,1/2+y,-z
-x,y,z
x,1/2-y,z
1/2+x,1/2+y,1/2+z
1/2-x,-y,1/2+z
1/2+x,1/2-y,1/2-z
1/2-x,y,1/2-z
1/2-x,1/2-y,1/2-z
1/2+x,y,1/2-z
1/2-x,1/2+y,1/2+z
1/2+x,-y,1/2+z
loop_
_atom_site_type_symbol
_atom_site_label
_atom_site_fract_x
_atom_site_fract_y
_atom_site_fract_z
Si Si1 0.753188 0.606116 0.541636
Si Si2 0.666517 0.526291 0.694593
Si Si3 0.309444 0.250000 0.401974
Si Si4 0.912148 0.898603 0.638873
Si Si5 0.310452 0.877037 0.334612
Si Si6 0.093510 0.750000 0.093376
Si Si7 0.412873 0.750000 0.782645
O O1 0.687453 0.560530 0.594310
O O2 0.739684 0.681766 0.582181
O O3 0.840278 0.582255 0.570170
O O4 0.739163 0.608652 0.430132
O O5 0.750000 0.529823 0.750000
O O6 0.606155 0.567640 0.758995
O O7 0.646026 0.447599 0.687161
O O8 0.375327 0.250000 0.484795
O O9 0.347820 0.250000 0.298758
O O10 0.908362 0.817972 0.656145
O O11 0.000000 0.916467 0.606684
O O12 0.250000 0.861103 0.250000
O O13 0.368747 0.815832 0.357016
O O14 0.000000 0.750000 0.097457
O O15 0.500000 0.750000 0.736880
#
# Coordination Sequence:
#
# PCOD9534440 Si02
#       7
#    16  16   8  16  16   8   8
#     4  10  19  33  55  80 108 148 185 219 261 317
#     4   9  18  33  55  80 107 139 178 216 262 321
#     4  10  18  31  55  77 107 148 184 213 256 320
#     4  10  20  32  51  84 121 146 171 213 267 329
#     4  10  21  38  59  78 102 140 189 234 268 317
#     4  10  22  38  56  78 104 134 180 237 283 318
#     4  10  18  29  48  79 120 148 167 206 264 324
#
# _framework density 18.563200999999999
#
# number of rings (size 3 to 8) (size 9 to 14) (size 15 to 20)
#    0.000    2.182    1.818    1.636    0.000    1.455 
#    0.000    0.909    0.000   18.545    0.000    0.000 
#    0.000    0.000    0.000    0.000    0.000    0.000 
#
# Total GULP energy -245534.080034 kJ/mol
# GULP energy per Si atom -5580.320001 kJ/mol
# Density = 1.852095 g / cm^3
# Si number density = 18.563201 Si / 1000 Ang^3
#
#
#
# Elastic Constant Matrix: (Units=GPa)
#
#
# Indices 1 2 3 4 5 6 
#
# 1 107.5597 30.9284 39.1987 0.0000 0.0000 0.0000
# 2 30.9284 78.9697 -3.7184 0.0000 0.0000 0.0000
# 3 39.1987 -3.7184 73.4404 0.0000 0.0000 0.0000
# 4 0.0000 0.0000 0.0000 14.6993 0.0000 0.0000
# 5 0.0000 0.0000 0.0000 0.0000 13.9928 0.0000
# 6 0.0000 0.0000 0.0000 0.0000 0.0000 -7.9357
#
#
#
# Elastic Compliance Matrix: (Units=1/GPa)
#
#
# Indices 1 2 3 4 5 6 
#
# 1 0.013720 -0.005732 -0.007613 0.000000 0.000000 0.000000
# 2 -0.005732 0.015088 0.003823 0.000000 0.000000 0.000000
# 3 -0.007613 0.003823 0.017874 0.000000 0.000000 0.000000
# 4 0.000000 0.000000 0.000000 0.068030 0.000000 0.000000
# 5 0.000000 0.000000 0.000000 0.000000 0.071465 0.000000
# 6 0.000000 0.000000 0.000000 0.000000 0.000000 -0.126012
#
#
# Mechanical properties :
#
#
# Convention : Reuss Voigt Hill
#
# Bulk Modulus (GPa) = 36.18209 43.64303 39.91256
# Shear Modulus (GPa) = 56.54782 17.05536 36.80159
#
# Velocity S-wave (km/s) = 5.52526 3.03441 4.45736
# Velocity P-wave (km/s) = 7.76133 5.98652 6.93097
#
# Compressibility (1/GPa) = 0.02763799
#
# Stress axis : x y z
#
# Youngs Moduli (GPa) = 72.88714 66.27796 55.94849
#
# Poissons Ratio (x) = 0.37989 0.42594
# Poissons Ratio (y) = 0.41778 -0.21391
# Poissons Ratio (z) = 0.55490 -0.25340
#
# Static dielectric constant tensor:
#      x y z
#    x 1.630840 0.000000 0.000000 
#    y 0.000000 1.660280 0.000000 
#    z 0.000000 0.000000 1.632160 
# 
# From -- ./inp_files/23732.got.cif
#   From: 2010.05.17/outbox.cif.g08.bks.cpg/sg74_12_cif.got.tgz:23732.got - 2010.06.03 17:57:02.
