data_PCOD9534988
_publ_section_title
;
Structure prediction by ZEFSAII (Michael W. Deem and Ramdas Pophale) SiO2 
 PCOD9534988
Probable space group: I M M A
;
_chemical_formula_sum "Si O2"
_cell_formula_units_Z 120
_cell_length_a 14.586390
_cell_length_b 15.739054
_cell_length_c 28.504250
_cell_angle_alpha 90.000000
_cell_angle_beta 90.000000
_cell_angle_gamma 90.000000
_cell_volume 6543.891124
_symmetry_space_group_name_H-M "I M M A"
_symmetry_group_IT_number 74
_symmetry_cell_setting 'orthorhombic'
loop_
_space_group_symop_operation_xyz
x,y,z
-x,1/2-y,z
x,-y,-z
-x,1/2+y,-z
-x,-y,-z
x,1/2+y,-z
-x,y,z
x,1/2-y,z
1/2+x,1/2+y,1/2+z
1/2-x,-y,1/2+z
1/2+x,1/2-y,1/2-z
1/2-x,y,1/2-z
1/2-x,1/2-y,1/2-z
1/2+x,y,1/2-z
1/2-x,1/2+y,1/2+z
1/2+x,-y,1/2+z
loop_
_atom_site_type_symbol
_atom_site_label
_atom_site_fract_x
_atom_site_fract_y
_atom_site_fract_z
Si Si1 0.100480 0.345108 0.279881
Si Si2 0.107338 0.486535 0.830812
Si Si3 0.805009 0.897643 0.994314
Si Si4 0.890384 0.155688 0.907886
Si Si5 0.750000 0.978581 0.750000
Si Si6 0.864700 0.842018 0.613439
Si Si7 0.401441 0.594174 0.979643
Si Si8 0.352644 0.847291 0.609777
O O1 0.128047 0.250000 0.264137
O O2 0.174399 0.415845 0.271099
O O3 0.093191 0.343415 0.335811
O O4 0.000000 0.363666 0.259376
O O5 0.132704 0.418625 0.871313
O O6 0.186267 0.478165 0.790493
O O7 0.109318 0.579971 0.855708
O O8 0.000000 0.471030 0.816090
O O9 0.849534 0.860159 0.040805
O O10 0.698310 0.867821 0.991910
O O11 0.855964 0.872252 0.945690
O O12 0.806462 0.000000 0.000000
O O13 0.863168 0.250000 0.891140
O O14 0.000000 0.153759 0.912424
O O15 0.886046 0.750000 0.591306
O O16 0.897367 0.910760 0.576798
O O17 0.756027 0.847024 0.619950
O O18 0.500000 0.633897 0.993057
O O19 0.401046 0.500000 0.000000
O O20 0.386181 0.750000 0.616580
#
# Coordination Sequence:
#
# PCOD9534988 Si02
#       8
#    16  16  16  16   8  16  16  16
#     4  10  20  33  52  76 104 145 190 227 271 335
#     4  11  24  41  62  87 114 150 192 237 295 354
#     4  10  18  32  58  86 120 159 197 238 285 337
#     4  10  22  41  63  86 115 153 197 243 291 347
#     4  12  23  38  57  80 114 142 182 242 298 346
#     4   9  17  31  49  68  97 142 187 224 264 316
#     4   9  18  29  45  73 108 147 189 229 272 323
#     4  10  19  33  53  83 122 158 190 230 278 334
#
# _framework density 18.337713999999998
#
# number of rings (size 3 to 8) (size 9 to 14) (size 15 to 20)
#    0.000    2.000    2.667    1.400    0.000    2.933 
#    0.000    0.333    0.000    0.800    0.000    0.000 
#    0.000    0.000    0.000    0.000    0.000    0.000 
#
# Total GULP energy -334088.441131 kJ/mol
# GULP energy per Si atom -5568.140686 kJ/mol
# Density = 1.829598 g / cm^3
# Si number density = 18.337714 Si / 1000 Ang^3
#
#
#
# Elastic Constant Matrix: (Units=GPa)
#
#
# Indices 1 2 3 4 5 6 
#
# 1 68.6623 10.3034 24.8714 0.0000 0.0000 0.0000
# 2 10.3034 65.8501 22.1070 0.0000 0.0000 0.0000
# 3 24.8714 22.1070 69.6077 0.0000 0.0000 0.0000
# 4 0.0000 0.0000 0.0000 -4.7768 0.0000 0.0000
# 5 0.0000 0.0000 0.0000 0.0000 -65.7997 0.0000
# 6 0.0000 0.0000 0.0000 0.0000 0.0000 26.2628
#
#
#
# Elastic Compliance Matrix: (Units=1/GPa)
#
#
# Indices 1 2 3 4 5 6 
#
# 1 0.016757 -0.000685 -0.005770 0.000000 0.000000 0.000000
# 2 -0.000685 0.017026 -0.005163 0.000000 0.000000 0.000000
# 3 -0.005770 -0.005163 0.018068 0.000000 0.000000 0.000000
# 4 0.000000 0.000000 0.000000 -0.209347 0.000000 0.000000
# 5 0.000000 0.000000 0.000000 0.000000 -0.015198 0.000000
# 6 0.000000 0.000000 0.000000 0.000000 0.000000 0.038077
#
#
# Mechanical properties :
#
#
# Convention : Reuss Voigt Hill
#
# Bulk Modulus (GPa) = 34.94580 35.40932 35.17756
# Shear Modulus (GPa) = -49.09489 0.92648 -24.08420
#
# Velocity S-wave (km/s) = -5.17984 0.71157 -3.62798
# Velocity P-wave (km/s) = 4.08365 4.47511 1.29430
#
# Compressibility (1/GPa) = 0.02861574
#
# Stress axis : x y z
#
# Youngs Moduli (GPa) = 59.67724 58.73236 55.34794
#
# Poissons Ratio (x) = 0.04022 0.31935
# Poissons Ratio (y) = 0.04087 0.28575
# Poissons Ratio (z) = 0.34433 0.30322
#
# Static dielectric constant tensor:
#      x y z
#    x 1.692820 0.000000 0.000000 
#    y 0.000000 1.682130 0.000000 
#    z 0.000000 0.000000 1.652130 
# 
# From -- ./inp_files/72759.got.cif
#   From: 2010.05.17/outbox.cif.g08.bks.cpg/sg74_37_cif.got.tgz:72759.got - 2010.06.03 17:57:02.
