data_PCOD9534474
_publ_section_title
;
Structure prediction by ZEFSAII (Michael W. Deem and Ramdas Pophale) SiO2 
 PCOD9534474
Probable space group: I M M A
;
_chemical_formula_sum "Si O2"
_cell_formula_units_Z 80
_cell_length_a 8.023690
_cell_length_b 17.000742
_cell_length_c 29.556808
_cell_angle_alpha 90.000000
_cell_angle_beta 90.000000
_cell_angle_gamma 90.000000
_cell_volume 4031.805270
_symmetry_space_group_name_H-M "I M M A"
_symmetry_group_IT_number 74
_symmetry_cell_setting 'orthorhombic'
loop_
_space_group_symop_operation_xyz
x,y,z
-x,1/2-y,z
x,-y,-z
-x,1/2+y,-z
-x,-y,-z
x,1/2+y,-z
-x,y,z
x,1/2-y,z
1/2+x,1/2+y,1/2+z
1/2-x,-y,1/2+z
1/2+x,1/2-y,1/2-z
1/2-x,y,1/2-z
1/2-x,1/2-y,1/2-z
1/2+x,y,1/2-z
1/2-x,1/2+y,1/2+z
1/2+x,-y,1/2+z
loop_
_atom_site_type_symbol
_atom_site_label
_atom_site_fract_x
_atom_site_fract_y
_atom_site_fract_z
Si Si1 0.694687 0.591792 0.962339
Si Si2 0.805804 0.024308 0.885372
Si Si3 0.198622 0.339993 0.555922
Si Si4 0.298341 0.574690 0.701075
Si Si5 0.685783 0.750000 0.905660
Si Si6 0.312161 0.750000 0.688560
O O1 0.500000 0.566853 0.965372
O O2 0.783357 0.531294 0.929174
O O3 0.700031 0.674445 0.936636
O O4 0.762975 0.611212 0.012189
O O5 0.728965 0.107742 0.899722
O O6 0.000000 0.037583 0.877049
O O7 0.737524 0.976850 0.841660
O O8 0.262363 0.250000 0.557714
O O9 0.000000 0.334815 0.548542
O O10 0.500000 0.579162 0.697223
O O11 0.250000 0.541352 0.750000
O O12 0.233571 0.665282 0.699794
O O13 0.500000 0.750000 0.884745
O O14 0.815970 0.750000 0.865677
O O15 0.500000 0.750000 0.707601
#
# Coordination Sequence:
#
# PCOD9534474 Si02
#       6
#    16  16  16  16   8   8
#     4  10  19  34  55  80 110 147 188 223 257 305
#     4  11  23  37  54  81 113 143 177 221 273 325
#     4  10  21  38  58  80 108 143 184 227 267 312
#     4  10  22  37  55  78 107 141 179 222 268 319
#     4  10  18  29  51  80 109 146 187 221 254 301
#     4  10  19  35  53  76 112 148 178 217 265 313
#
# _framework density 19.842229
#
# number of rings (size 3 to 8) (size 9 to 14) (size 15 to 20)
#    0.000    1.800    3.000    1.500    0.000    6.000 
#    0.000    0.000    0.000    0.600    0.000    0.000 
#    0.000    0.000    0.000    0.000    0.000    0.000 
#
# Total GULP energy -223156.306236 kJ/mol
# GULP energy per Si atom -5578.907656 kJ/mol
# Density = 1.979707 g / cm^3
# Si number density = 19.842229 Si / 1000 Ang^3
#
#
#
# Elastic Constant Matrix: (Units=GPa)
#
#
# Indices 1 2 3 4 5 6 
#
# 1 13.9898 -1.9622 6.8182 0.0000 0.0000 0.0000
# 2 -1.9622 69.7799 75.1856 0.0000 0.0000 0.0000
# 3 6.8182 75.1856 137.0009 0.0000 0.0000 0.0000
# 4 0.0000 0.0000 0.0000 22.8412 0.0000 0.0000
# 5 0.0000 0.0000 0.0000 0.0000 20.7346 0.0000
# 6 0.0000 0.0000 0.0000 0.0000 0.0000 12.1834
#
#
#
# Elastic Compliance Matrix: (Units=1/GPa)
#
#
# Indices 1 2 3 4 5 6 
#
# 1 0.079939 0.015989 -0.012753 0.000000 0.000000 0.000000
# 2 0.015989 0.038263 -0.021794 0.000000 0.000000 0.000000
# 3 -0.012753 -0.021794 0.019895 0.000000 0.000000 0.000000
# 4 0.000000 0.000000 0.000000 0.043781 0.000000 0.000000
# 5 0.000000 0.000000 0.000000 0.000000 0.048229 0.000000
# 6 0.000000 0.000000 0.000000 0.000000 0.000000 0.082079
#
#
# Mechanical properties :
#
#
# Convention : Reuss Voigt Hill
#
# Bulk Modulus (GPa) = 9.90300 42.31707 26.11004
# Shear Modulus (GPa) = 13.05614 20.53376 16.79495
#
# Velocity S-wave (km/s) = 2.56793 3.22040 2.91249
# Velocity P-wave (km/s) = 3.71403 5.93305 4.94950
#
# Compressibility (1/GPa) = 0.10097950
#
# Stress axis : x y z
#
# Youngs Moduli (GPa) = 12.50956 26.13485 50.26498
#
# Poissons Ratio (x) = -0.41787 0.64103
# Poissons Ratio (y) = -0.20001 1.09549
# Poissons Ratio (z) = 0.15953 0.56959
#
# Static dielectric constant tensor:
#      x y z
#    x 1.733110 0.000000 0.000000 
#    y 0.000000 1.711720 0.000000 
#    z 0.000000 0.000000 1.706560 
# 
# From -- ./inp_files/64005.got.cif
#   From: 2010.05.17/outbox.cif.g08.bks.cpg/sg74_33_cif.got.tgz:64005.got - 2010.06.03 17:57:02.
