data_PCOD9534785
_publ_section_title
;
Structure prediction by ZEFSAII (Michael W. Deem and Ramdas Pophale) SiO2 
 PCOD9534785
Probable space group: I M M A
;
_chemical_formula_sum "Si O2"
_cell_formula_units_Z 80
_cell_length_a 18.106564
_cell_length_b 17.611990
_cell_length_c 14.621007
_cell_angle_alpha 90.000000
_cell_angle_beta 90.000000
_cell_angle_gamma 90.000000
_cell_volume 4662.531289
_symmetry_space_group_name_H-M "I M M A"
_symmetry_group_IT_number 74
_symmetry_cell_setting 'orthorhombic'
loop_
_space_group_symop_operation_xyz
x,y,z
-x,1/2-y,z
x,-y,-z
-x,1/2+y,-z
-x,-y,-z
x,1/2+y,-z
-x,y,z
x,1/2-y,z
1/2+x,1/2+y,1/2+z
1/2-x,-y,1/2+z
1/2+x,1/2-y,1/2-z
1/2-x,y,1/2-z
1/2-x,1/2-y,1/2-z
1/2+x,y,1/2-z
1/2-x,1/2+y,1/2+z
1/2+x,-y,1/2+z
loop_
_atom_site_type_symbol
_atom_site_label
_atom_site_fract_x
_atom_site_fract_y
_atom_site_fract_z
Si Si1 0.411975 0.960193 0.403517
Si Si2 0.710282 0.160125 0.650867
Si Si3 0.338502 0.427318 0.938936
Si Si4 0.088202 0.028150 0.287576
Si Si5 0.087796 0.665007 0.592314
O O1 0.500000 0.942305 0.406818
O O2 0.363168 0.887857 0.372881
O O3 0.392086 0.000000 0.500000
O O4 0.399209 0.018287 0.319609
O O5 0.697560 0.250000 0.642272
O O6 0.750000 0.147496 0.750000
O O7 0.770670 0.127084 0.581476
O O8 0.373219 0.462213 0.846821
O O9 0.316663 0.500000 0.000000
O O10 0.395878 0.378627 0.998123
O O11 0.114644 0.108460 0.328080
O O12 0.000000 0.022068 0.303744
O O13 0.119019 0.750000 0.593864
O O14 0.000000 0.670818 0.602727
#
# Coordination Sequence:
#
# PCOD9534785 Si02
#       5
#    16  16  16  16  16
#     4  10  21  39  60  79 103 143 192 231 266 318
#     4  11  22  36  54  79 110 140 175 224 281 327
#     4  10  18  31  53  76 105 141 174 213 264 328
#     4   9  17  31  51  76 106 139 177 220 263 317
#     4   9  17  29  48  78 111 139 169 209 264 326
#
# _framework density 17.158062999999999
#
# number of rings (size 3 to 8) (size 9 to 14) (size 15 to 20)
#    0.000    2.200    2.000    1.800    0.000    2.800 
#    0.000    1.000    0.000    3.600    0.000    7.000 
#    0.000    0.000    0.000    0.000    0.000    0.000 
#
# Total GULP energy -222729.350086 kJ/mol
# GULP energy per Si atom -5568.233752 kJ/mol
# Density = 1.711901 g / cm^3
# Si number density = 17.158063 Si / 1000 Ang^3
#
#
#
# Elastic Constant Matrix: (Units=GPa)
#
#
# Indices 1 2 3 4 5 6 
#
# 1 40.9530 41.8563 34.0034 0.0000 0.0000 0.0000
# 2 41.8563 139.0388 62.0548 0.0000 0.0000 0.0000
# 3 34.0034 62.0548 119.9391 0.0000 0.0000 0.0000
# 4 0.0000 0.0000 0.0000 12.9413 0.0000 0.0000
# 5 0.0000 0.0000 0.0000 0.0000 14.1839 0.0000
# 6 0.0000 0.0000 0.0000 0.0000 0.0000 26.1514
#
#
#
# Elastic Compliance Matrix: (Units=1/GPa)
#
#
# Indices 1 2 3 4 5 6 
#
# 1 0.038749 -0.008792 -0.006437 0.000000 0.000000 0.000000
# 2 -0.008792 0.011347 -0.003378 0.000000 0.000000 0.000000
# 3 -0.006437 -0.003378 0.011910 0.000000 0.000000 0.000000
# 4 0.000000 0.000000 0.000000 0.077272 0.000000 0.000000
# 5 0.000000 0.000000 0.000000 0.000000 0.070502 0.000000
# 6 0.000000 0.000000 0.000000 0.000000 0.000000 0.038239
#
#
# Mechanical properties :
#
#
# Convention : Reuss Voigt Hill
#
# Bulk Modulus (GPa) = 40.33553 63.97332 52.15442
# Shear Modulus (GPa) = 17.03598 21.45639 19.24619
#
# Velocity S-wave (km/s) = 3.15443 3.54010 3.35281
# Velocity P-wave (km/s) = 6.06848 7.35359 6.74173
#
# Compressibility (1/GPa) = 0.02479204
#
# Stress axis : x y z
#
# Youngs Moduli (GPa) = 25.80732 88.13144 83.96258
#
# Poissons Ratio (x) = 0.77487 0.54043
# Poissons Ratio (y) = 0.22690 0.28362
# Poissons Ratio (z) = 0.16611 0.29771
#
# Static dielectric constant tensor:
#      x y z
#    x 1.583520 0.000000 0.000000 
#    y 0.000000 1.579980 0.000000 
#    z 0.000000 0.000000 1.587560 
# 
# From -- ./inp_files/32077.got.cif
#   From: 2010.05.17/outbox.cif.g08.bks.cpg/sg74_17_cif.got.tgz:32077.got - 2010.06.03 17:57:02.
