data_PCOD9534983
_publ_section_title
;
Structure prediction by ZEFSAII (Michael W. Deem and Ramdas Pophale) SiO2 
 PCOD9534983
Probable space group: I M M A
;
_chemical_formula_sum "Si O2"
_cell_formula_units_Z 104
_cell_length_a 13.123425
_cell_length_b 25.715703
_cell_length_c 16.931902
_cell_angle_alpha 90.000000
_cell_angle_beta 90.000000
_cell_angle_gamma 90.000000
_cell_volume 5714.146110
_symmetry_space_group_name_H-M "I M M A"
_symmetry_group_IT_number 74
_symmetry_cell_setting 'orthorhombic'
loop_
_space_group_symop_operation_xyz
x,y,z
-x,1/2-y,z
x,-y,-z
-x,1/2+y,-z
-x,-y,-z
x,1/2+y,-z
-x,y,z
x,1/2-y,z
1/2+x,1/2+y,1/2+z
1/2-x,-y,1/2+z
1/2+x,1/2-y,1/2-z
1/2-x,y,1/2-z
1/2-x,1/2-y,1/2-z
1/2+x,y,1/2-z
1/2-x,1/2+y,1/2+z
1/2+x,-y,1/2+z
loop_
_atom_site_type_symbol
_atom_site_label
_atom_site_fract_x
_atom_site_fract_y
_atom_site_fract_z
Si Si1 0.620866 0.694829 0.085176
Si Si2 0.689920 0.806992 0.902114
Si Si3 0.000000 0.190470 0.282665
Si Si4 0.820245 0.512243 0.682167
Si Si5 0.000000 0.946108 0.952410
Si Si6 0.719326 0.087540 0.438560
Si Si7 0.000000 0.074070 0.232765
Si Si8 0.118244 0.916953 0.422291
O O1 0.500000 0.697702 0.095920
O O2 0.665450 0.750000 0.114392
O O3 0.649976 0.638194 0.117430
O O4 0.643698 0.692611 0.991024
O O5 0.737504 0.750000 0.889444
O O6 0.598882 0.812852 0.839649
O O7 0.764145 0.855910 0.900107
O O8 0.000000 0.250000 0.248369
O O9 0.000000 0.137296 0.231758
O O10 0.750000 0.488617 0.750000
O O11 0.744510 0.544501 0.626362
O O12 0.902617 0.551638 0.719739
O O13 0.872407 0.466448 0.633389
O O14 0.893779 0.918008 0.972090
O O15 0.000000 0.948175 0.856354
O O16 0.000000 0.000000 0.000000
O O17 0.805047 0.077835 0.504784
O O18 0.000000 0.912554 0.449037
#
# Coordination Sequence:
#
# PCOD9534983 Si02
#       8
#    16  16   8  16   8  16   8  16
#     4   8  13  24  46  78 116 147 174 215 277 348
#     4   9  16  29  52  84 117 151 186 228 287 351
#     4  10  18  32  57  91 126 153 186 237 303 363
#     4  12  23  37  55  82 117 151 189 238 297 353
#     4  12  26  46  58  72 108 161 209 236 285 352
#     4  11  23  37  58  82 115 156 195 239 293 352
#     4  12  24  38  60  82 116 155 198 240 289 352
#     4  10  21  34  57  90 117 142 185 244 301 350
#
# _framework density 18.200444000000001
#
# number of rings (size 3 to 8) (size 9 to 14) (size 15 to 20)
#    0.000    1.692    4.615    1.385    2.154    0.615 
#    0.000    1.154    0.000    3.231    0.000    0.000 
#    0.000    0.000    0.000    0.000    0.000    0.000 
#
# Total GULP energy -289719.941193 kJ/mol
# GULP energy per Si atom -5571.537331 kJ/mol
# Density = 1.815902 g / cm^3
# Si number density = 18.200444 Si / 1000 Ang^3
#
#
#
# Elastic Constant Matrix: (Units=GPa)
#
#
# Indices 1 2 3 4 5 6 
#
# 1 93.8265 25.3963 17.9263 0.0001 0.0000 0.0000
# 2 25.3963 140.9178 39.7059 0.0000 0.0000 0.0000
# 3 17.9263 39.7059 35.2351 -0.0002 0.0000 0.0000
# 4 0.0001 0.0000 -0.0002 0.0435 0.0000 0.0000
# 5 0.0000 0.0000 0.0000 0.0000 16.4664 0.0000
# 6 0.0000 0.0000 0.0000 0.0000 0.0000 -0.1838
#
#
#
# Elastic Compliance Matrix: (Units=1/GPa)
#
#
# Indices 1 2 3 4 5 6 
#
# 1 0.011845 -0.000640 -0.005305 -0.000034 0.000000 0.000000
# 2 -0.000640 0.010432 -0.011431 -0.000041 0.000000 0.000001
# 3 -0.005305 -0.011431 0.043961 0.000171 0.000000 -0.000001
# 4 -0.000034 -0.000041 0.000171 22.989843 -0.000019 0.000238
# 5 0.000000 0.000000 0.000000 -0.000019 0.060730 0.000001
# 6 0.000000 0.000001 -0.000001 0.000238 0.000001 -5.439439
#
#
# Mechanical properties :
#
#
# Convention : Reuss Voigt Hill
#
# Bulk Modulus (GPa) = 31.75933 48.44848 40.10391
# Shear Modulus (GPa) = 0.28213 15.72862 8.00537
#
# Velocity S-wave (km/s) = 0.39414 2.94290 2.09952
# Velocity P-wave (km/s) = 4.20651 6.18261 5.28770
#
# Compressibility (1/GPa) = 0.03148681
#
# Stress axis : x y z
#
# Youngs Moduli (GPa) = 84.42564 95.85532 22.74761
#
# Poissons Ratio (x) = 0.06134 0.12068
# Poissons Ratio (y) = 0.05402 0.26002
# Poissons Ratio (z) = 0.44789 1.09568
#
# Static dielectric constant tensor:
#      x y z
#    x 1.630860 0.000000 0.000000 
#    y 0.000000 1.690250 0.000000 
#    z 0.000000 0.000000 1.611470 
# 
# From -- ./inp_files/41726.got.cif
#   From: 2010.05.17/outbox.cif.g08.bks.cpg/sg74_21_cif.got.tgz:41726.got - 2010.06.03 17:57:02.
