data_PCOD9534288
_publ_section_title
;
Structure prediction by ZEFSAII (Michael W. Deem and Ramdas Pophale) SiO2 
 PCOD9534288
Probable space group: I M M A
;
_chemical_formula_sum "Si O2"
_cell_formula_units_Z 96
_cell_length_a 8.931603
_cell_length_b 29.447458
_cell_length_c 26.843085
_cell_angle_alpha 90.000000
_cell_angle_beta 90.000000
_cell_angle_gamma 90.000000
_cell_volume 7060.080428
_symmetry_space_group_name_H-M "I M M A"
_symmetry_group_IT_number 74
_symmetry_cell_setting 'orthorhombic'
loop_
_space_group_symop_operation_xyz
x,y,z
-x,1/2-y,z
x,-y,-z
-x,1/2+y,-z
-x,-y,-z
x,1/2+y,-z
-x,y,z
x,1/2-y,z
1/2+x,1/2+y,1/2+z
1/2-x,-y,1/2+z
1/2+x,1/2-y,1/2-z
1/2-x,y,1/2-z
1/2-x,1/2-y,1/2-z
1/2+x,y,1/2-z
1/2-x,1/2+y,1/2+z
1/2+x,-y,1/2+z
loop_
_atom_site_type_symbol
_atom_site_label
_atom_site_fract_x
_atom_site_fract_y
_atom_site_fract_z
Si Si1 0.177864 0.802087 0.039508
Si Si2 0.820036 0.889634 0.494753
Si Si3 0.321163 0.697971 0.149379
Si Si4 0.678823 0.111286 0.698240
Si Si5 0.826798 0.974472 0.553722
Si Si6 0.822173 0.057338 0.901697
O O1 0.202422 0.750000 0.023409
O O2 0.249934 0.839824 0.004207
O O3 0.253145 0.807095 0.093934
O O4 0.000000 0.809678 0.044448
O O5 0.777423 0.923533 0.539887
O O6 0.760168 0.912817 0.443891
O O7 0.000000 0.887992 0.492824
O O8 0.500000 0.691361 0.147407
O O9 0.291538 0.750000 0.165427
O O10 0.246305 0.660306 0.183840
O O11 0.500000 0.114709 0.702602
O O12 0.750000 0.095916 0.750000
O O13 0.713904 0.077785 0.652251
O O14 0.000000 0.974150 0.569994
O O15 0.822910 0.000000 0.500000
O O16 0.729973 0.005590 0.590018
O O17 0.000000 0.061133 0.909615
#
# Coordination Sequence:
#
# PCOD9534288 Si02
#       6
#    16  16  16  16  16  16
#     4  10  19  29  42  61  84 109 137 169 205 244
#     4  10  18  28  44  63  83 107 134 163 199 243
#     4  10  20  33  48  62  76 100 133 170 215 258
#     4  11  23  35  47  62  79 103 135 171 213 255
#     4   8  16  28  42  62  83 104 129 158 197 243
#     4  10  19  30  44  62  81 102 130 167 207 246
#
# _framework density 13.597579
#
# number of rings (size 3 to 8) (size 9 to 14) (size 15 to 20)
#    0.000    2.167    1.667    3.500    0.000    8.000 
#    0.000    0.000    0.000    0.000    0.000    0.000 
#    0.000    0.000    0.000    0.000    0.000    0.833 
#
# Total GULP energy -267640.865882 kJ/mol
# GULP energy per Si atom -5575.851373 kJ/mol
# Density = 1.356663 g / cm^3
# Si number density = 13.597579 Si / 1000 Ang^3
#
#
#
# Elastic Constant Matrix: (Units=GPa)
#
#
# Indices 1 2 3 4 5 6 
#
# 1 57.5227 44.4154 34.6527 0.0000 0.0000 0.0000
# 2 44.4154 86.4363 44.9985 0.0000 0.0000 0.0000
# 3 34.6527 44.9985 45.5536 0.0000 0.0000 0.0000
# 4 0.0000 0.0000 0.0000 17.0714 0.0000 0.0000
# 5 0.0000 0.0000 0.0000 0.0000 17.5913 0.0000
# 6 0.0000 0.0000 0.0000 0.0000 0.0000 23.5939
#
#
#
# Elastic Compliance Matrix: (Units=1/GPa)
#
#
# Indices 1 2 3 4 5 6 
#
# 1 0.034853 -0.008455 -0.018161 0.000000 0.000000 0.000000
# 2 -0.008455 0.025868 -0.019122 0.000000 0.000000 0.000000
# 3 -0.018161 -0.019122 0.054656 0.000000 0.000000 0.000000
# 4 0.000000 0.000000 0.000000 0.058577 0.000000 0.000000
# 5 0.000000 0.000000 0.000000 0.000000 0.056846 0.000000
# 6 0.000000 0.000000 0.000000 0.000000 0.000000 0.042384
#
#
# Mechanical properties :
#
#
# Convention : Reuss Voigt Hill
#
# Bulk Modulus (GPa) = 41.83657 48.62731 45.23194
# Shear Modulus (GPa) = 13.41821 16.01438 14.71629
#
# Velocity S-wave (km/s) = 3.14476 3.43554 3.29336
# Velocity P-wave (km/s) = 6.63479 7.18169 6.91365
#
# Compressibility (1/GPa) = 0.02390253
#
# Stress axis : x y z
#
# Youngs Moduli (GPa) = 28.69172 38.65733 18.29621
#
# Poissons Ratio (x) = 0.32683 0.33228
# Poissons Ratio (y) = 0.24258 0.34985
# Poissons Ratio (z) = 0.52108 0.73919
#
# Static dielectric constant tensor:
#      x y z
#    x 1.452430 0.000000 0.000000 
#    y 0.000000 1.479230 0.000000 
#    z 0.000000 0.000000 1.417640 
# 
# From -- ./inp_files/64925.got.cif
#   From: 2010.05.17/outbox.cif.g08.bks.cpg/sg74_33_cif.got.tgz:64925.got - 2010.06.03 17:57:02.
