data_PCOD9534119
_publ_section_title
;
Structure prediction by ZEFSAII (Michael W. Deem and Ramdas Pophale) SiO2 
 PCOD9534119
Probable space group: I M M A
;
_chemical_formula_sum "Si O2"
_cell_formula_units_Z 40
_cell_length_a 14.190846
_cell_length_b 5.418863
_cell_length_c 24.933896
_cell_angle_alpha 90.000000
_cell_angle_beta 90.000000
_cell_angle_gamma 90.000000
_cell_volume 1917.372976
_symmetry_space_group_name_H-M "I M M A"
_symmetry_group_IT_number 74
_symmetry_cell_setting 'orthorhombic'
loop_
_space_group_symop_operation_xyz
x,y,z
-x,1/2-y,z
x,-y,-z
-x,1/2+y,-z
-x,-y,-z
x,1/2+y,-z
-x,y,z
x,1/2-y,z
1/2+x,1/2+y,1/2+z
1/2-x,-y,1/2+z
1/2+x,1/2-y,1/2-z
1/2-x,y,1/2-z
1/2-x,1/2-y,1/2-z
1/2+x,y,1/2-z
1/2-x,1/2+y,1/2+z
1/2+x,-y,1/2+z
loop_
_atom_site_type_symbol
_atom_site_label
_atom_site_fract_x
_atom_site_fract_y
_atom_site_fract_z
Si Si1 0.636452 0.250000 0.468850
Si Si2 0.392045 0.250000 0.155957
Si Si3 0.500000 0.250000 0.697433
Si Si4 0.891566 0.250000 0.698162
Si Si5 0.862853 0.250000 0.469090
Si Si6 0.000000 0.250000 0.128987
O O1 0.608654 0.500000 0.500000
O O2 0.749306 0.250000 0.465870
O O3 0.589265 0.250000 0.410852
O O4 0.500000 0.250000 0.178365
O O5 0.345794 0.500117 0.177314
O O6 0.396024 0.250000 0.092067
O O7 0.411285 0.250000 0.738615
O O8 0.500000 0.500453 0.663686
O O9 0.000000 0.250000 0.674162
O O10 0.891140 0.500000 0.500000
#
# Coordination Sequence:
#
# PCOD9534119 Si02
#       6
#     8   8   4   8   8   4
#     4  10  21  37  53  76 108 138 164 202 262 305
#     4  10  17  31  53  74  97 143 173 197 248 306
#     4  10  20  33  54  84 102 125 172 218 266 280
#     4   8  17  31  49  74  98 135 168 204 253 302
#     4  10  21  34  50  75 108 137 167 213 251 294
#     4  12  20  33  60  80  98 129 178 214 242 316
#
# _framework density 20.861878000000001
#
# number of rings (size 3 to 8) (size 9 to 14) (size 15 to 20)
#    0.600    1.600    0.000    4.200    0.000    0.800 
#    0.000    0.000    0.000    7.200    0.000    0.000 
#    0.000    0.000    0.000    0.000    0.000    0.000 
#
# Total GULP energy -111585.588415 kJ/mol
# GULP energy per Si atom -5579.279421 kJ/mol
# Density = 2.081440 g / cm^3
# Si number density = 20.861878 Si / 1000 Ang^3
#
#
#
# Elastic Constant Matrix: (Units=GPa)
#
#
# Indices 1 2 3 4 5 6 
#
# 1 53.9189 16.1749 10.1565 0.0000 0.0000 0.0000
# 2 16.1749 275.2182 119.2456 0.0000 0.0000 0.0000
# 3 10.1565 119.2456 160.8005 0.0000 0.0000 0.0000
# 4 0.0000 0.0000 0.0000 52.5033 0.0000 0.0000
# 5 0.0000 0.0000 0.0000 0.0000 -79.9793 0.0000
# 6 0.0000 0.0000 0.0000 0.0000 0.0000 -11.6416
#
#
#
# Elastic Compliance Matrix: (Units=1/GPa)
#
#
# Indices 1 2 3 4 5 6 
#
# 1 0.018912 -0.000875 -0.000546 0.000000 0.000000 0.000000
# 2 -0.000875 0.005394 -0.003945 0.000000 0.000000 0.000000
# 3 -0.000546 -0.003945 0.009179 0.000000 0.000000 0.000000
# 4 0.000000 0.000000 0.000000 0.019046 0.000000 0.000000
# 5 0.000000 0.000000 0.000000 0.000000 -0.012503 0.000000
# 6 0.000000 0.000000 0.000000 0.000000 0.000000 -0.085899
#
#
# Mechanical properties :
#
#
# Convention : Reuss Voigt Hill
#
# Bulk Modulus (GPa) = 43.94928 86.78796 65.36862
# Shear Modulus (GPa) = -181.45223 15.13384 -83.15919
#
# Velocity S-wave (km/s) = -9.33631 2.69630 -6.32047
# Velocity P-wave (km/s) = 9.75242 7.16833 4.67573
#
# Compressibility (1/GPa) = 0.02275350
#
# Stress axis : x y z
#
# Youngs Moduli (GPa) = 52.87749 185.38650 108.94707
#
# Poissons Ratio (x) = 0.16223 0.05944
# Poissons Ratio (y) = 0.04627 0.42978
# Poissons Ratio (z) = 0.02885 0.73133
#
# Static dielectric constant tensor:
#      x y z
#    x 1.780610 0.000000 0.000000 
#    y 0.000000 2.158930 0.000000 
#    z 0.000000 0.000000 1.691190 
# 
# From -- ./inp_files/53500.got.cif
#   From: 2010.05.17/outbox.cif.g08.bks.cpg/sg74_27_cif.got.tgz:53500.got - 2010.06.03 17:57:02.
