data_PCOD9534141
_publ_section_title
;
Structure prediction by ZEFSAII (Michael W. Deem and Ramdas Pophale) SiO2 
 PCOD9534141
Probable space group: I M M A
;
_chemical_formula_sum "Si O2"
_cell_formula_units_Z 128
_cell_length_a 14.842046
_cell_length_b 20.484303
_cell_length_c 22.676344
_cell_angle_alpha 90.000000
_cell_angle_beta 90.000000
_cell_angle_gamma 90.000000
_cell_volume 6894.265451
_symmetry_space_group_name_H-M "I M M A"
_symmetry_group_IT_number 74
_symmetry_cell_setting 'orthorhombic'
loop_
_space_group_symop_operation_xyz
x,y,z
-x,1/2-y,z
x,-y,-z
-x,1/2+y,-z
-x,-y,-z
x,1/2+y,-z
-x,y,z
x,1/2-y,z
1/2+x,1/2+y,1/2+z
1/2-x,-y,1/2+z
1/2+x,1/2-y,1/2-z
1/2-x,y,1/2-z
1/2-x,1/2-y,1/2-z
1/2+x,y,1/2-z
1/2-x,1/2+y,1/2+z
1/2+x,-y,1/2+z
loop_
_atom_site_type_symbol
_atom_site_label
_atom_site_fract_x
_atom_site_fract_y
_atom_site_fract_z
Si Si1 0.851589 0.014816 0.917949
Si Si2 0.289831 0.678148 0.983819
Si Si3 0.605026 0.506138 0.836133
Si Si4 0.110005 0.967059 0.793164
Si Si5 0.902394 0.386929 0.010974
Si Si6 0.391357 0.820709 0.730637
Si Si7 0.391748 0.149289 0.132825
Si Si8 0.650463 0.549781 0.047743
O O1 0.854508 0.007515 0.848241
O O2 0.892808 0.948575 0.944740
O O3 0.750285 0.021785 0.940635
O O4 0.898401 0.077743 0.946949
O O5 0.298603 0.750000 0.010583
O O6 0.184776 0.657763 0.980839
O O7 0.334404 0.679291 0.919328
O O8 0.340043 0.620955 0.019793
O O9 0.500000 0.518857 0.826234
O O10 0.640620 0.502651 0.769566
O O11 0.637632 0.573499 0.865091
O O12 0.611555 0.451767 0.886276
O O13 0.139940 0.890493 0.795026
O O14 0.000000 0.967474 0.797203
O O15 0.000000 0.355538 0.019950
O O16 0.500000 0.820570 0.722752
O O17 0.356834 0.750000 0.708690
O O18 0.375841 0.824648 0.801168
O O19 0.500000 0.155336 0.121492
O O20 0.607212 0.500000 0.000000
#
# Coordination Sequence:
#
# PCOD9534141 Si02
#       8
#    16  16  16  16  16  16  16  16
#     4  10  17  32  54  77  99 128 169 218 258 301
#     4  11  22  34  49  74 104 133 170 218 256 299
#     4   9  18  31  50  78 105 133 169 209 251 298
#     4   9  17  28  46  73 102 128 166 215 251 292
#     4  10  19  33  53  74  97 133 171 211 267 310
#     4   8  14  25  41  65 102 143 170 192 232 289
#     4   9  16  29  50  74 102 138 176 206 240 292
#     4  11  19  35  53  73 101 135 172 209 259 309
#
# _framework density 18.566155999999999
#
# number of rings (size 3 to 8) (size 9 to 14) (size 15 to 20)
#    0.000    2.375    3.750    3.375    0.000    2.250 
#    0.000    0.625    0.000    1.500    0.000   11.375 
#    0.000    4.000    0.000    0.000    0.000    0.000 
#
# Total GULP energy -356742.866147 kJ/mol
# GULP energy per Si atom -5574.107284 kJ/mol
# Density = 1.852390 g / cm^3
# Si number density = 18.566156 Si / 1000 Ang^3
#
#
#
# Elastic Constant Matrix: (Units=GPa)
#
#
# Indices 1 2 3 4 5 6 
#
# 1 37.8377 20.2875 17.6512 0.0000 0.0000 0.0000
# 2 20.2875 65.1252 28.2402 0.0000 0.0000 0.0000
# 3 17.6512 28.2402 98.0462 0.0000 0.0000 0.0000
# 4 0.0000 0.0000 0.0000 7.0716 0.0000 0.0000
# 5 0.0000 0.0000 0.0000 0.0000 55.7259 0.0000
# 6 0.0000 0.0000 0.0000 0.0000 0.0000 -3.2724
#
#
#
# Elastic Compliance Matrix: (Units=1/GPa)
#
#
# Indices 1 2 3 4 5 6 
#
# 1 0.032675 -0.008717 -0.003372 0.000000 0.000000 0.000000
# 2 -0.008717 0.019872 -0.004154 0.000000 0.000000 0.000000
# 3 -0.003372 -0.004154 0.012003 0.000000 0.000000 0.000000
# 4 0.000000 0.000000 0.000000 0.141411 0.000000 0.000000
# 5 0.000000 0.000000 0.000000 0.000000 0.017945 0.000000
# 6 0.000000 0.000000 0.000000 0.000000 0.000000 -0.305586
#
#
# Mechanical properties :
#
#
# Convention : Reuss Voigt Hill
#
# Bulk Modulus (GPa) = 31.18751 37.04077 34.11414
# Shear Modulus (GPa) = -129.85072 20.89370 -54.47851
#
# Velocity S-wave (km/s) = -8.37206 3.35829 -5.42279
# Velocity P-wave (km/s) = 8.75332 5.91874 4.56011
#
# Compressibility (1/GPa) = 0.03206412
#
# Stress axis : x y z
#
# Youngs Moduli (GPa) = 30.60415 50.32232 83.31321
#
# Poissons Ratio (x) = 0.43865 0.28092
# Poissons Ratio (y) = 0.26677 0.34612
# Poissons Ratio (z) = 0.10319 0.20906
#
# Static dielectric constant tensor:
#      x y z
#    x 1.715170 0.000000 0.000000 
#    y 0.000000 1.648460 0.000000 
#    z 0.000000 0.000000 1.681110 
# 
# From -- ./inp_files/53451.got.cif
#   From: 2010.05.17/outbox.cif.g08.bks.cpg/sg74_27_cif.got.tgz:53451.got - 2010.06.03 17:57:02.
