data_PCOD9534297
_publ_section_title
;
Structure prediction by ZEFSAII (Michael W. Deem and Ramdas Pophale) SiO2 
 PCOD9534297
Probable space group: I M M A
;
_chemical_formula_sum "Si O2"
_cell_formula_units_Z 88
_cell_length_a 28.787408
_cell_length_b 7.354969
_cell_length_c 18.066830
_cell_angle_alpha 90.000000
_cell_angle_beta 90.000000
_cell_angle_gamma 90.000000
_cell_volume 3825.298831
_symmetry_space_group_name_H-M "I M M A"
_symmetry_group_IT_number 74
_symmetry_cell_setting 'orthorhombic'
loop_
_space_group_symop_operation_xyz
x,y,z
-x,1/2-y,z
x,-y,-z
-x,1/2+y,-z
-x,-y,-z
x,1/2+y,-z
-x,y,z
x,1/2-y,z
1/2+x,1/2+y,1/2+z
1/2-x,-y,1/2+z
1/2+x,1/2-y,1/2-z
1/2-x,y,1/2-z
1/2-x,1/2-y,1/2-z
1/2+x,y,1/2-z
1/2-x,1/2+y,1/2+z
1/2+x,-y,1/2+z
loop_
_atom_site_type_symbol
_atom_site_label
_atom_site_fract_x
_atom_site_fract_y
_atom_site_fract_z
Si Si1 0.500000 0.466125 0.413597
Si Si2 0.588472 0.472102 0.322466
Si Si3 0.733333 0.027796 0.168458
Si Si4 0.946872 0.028419 0.339818
Si Si5 0.856417 0.466546 0.415595
Si Si6 0.176374 0.533277 0.914052
O O1 0.500000 0.250000 0.401289
O O2 0.500000 0.500000 0.500000
O O3 0.546591 0.533822 0.375094
O O4 0.589983 0.250000 0.322288
O O5 0.574684 0.524624 0.239619
O O6 0.636743 0.534896 0.358037
O O7 0.731769 0.250000 0.169456
O O8 0.750000 0.971984 0.250000
O O9 0.682908 0.965252 0.140983
O O10 0.772836 0.968748 0.110382
O O11 0.949035 0.250000 0.340697
O O12 0.908501 0.966817 0.398964
O O13 0.000000 0.965631 0.348661
O O14 0.842537 0.500000 0.500000
O O15 0.858037 0.250000 0.404880
O O16 0.177186 0.750000 0.904903
O O17 0.165657 0.500000 0.000000
#
# Coordination Sequence:
#
# PCOD9534297 Si02
#       6
#     8  16  16  16  16  16
#     4  10  18  28  44  66  93 122 154 196 239 280
#     4   9  16  28  46  69  93 121 161 202 234 270
#     4   9  17  31  51  74  96 122 162 204 236 273
#     4   9  16  29  50  74  95 121 164 209 240 274
#     4  10  20  33  52  76 101 128 158 199 247 290
#     4  10  19  30  47  70  97 127 156 192 237 283
#
# _framework density 23.004738
#
# number of rings (size 3 to 8) (size 9 to 14) (size 15 to 20)
#    0.000    2.545    0.909    2.182    0.000    4.727 
#    0.000    0.000    0.000    6.545    0.000    0.000 
#    0.000    0.000    0.000    0.000    0.000    0.000 
#
# Total GULP energy -245835.274939 kJ/mol
# GULP energy per Si atom -5587.165340 kJ/mol
# Density = 2.295238 g / cm^3
# Si number density = 23.004738 Si / 1000 Ang^3
#
#
#
# Elastic Constant Matrix: (Units=GPa)
#
#
# Indices 1 2 3 4 5 6 
#
# 1 181.9804 10.3983 53.8331 0.0000 0.0000 0.0000
# 2 10.3983 84.3345 -7.8173 0.0000 0.0000 0.0000
# 3 53.8331 -7.8173 97.8260 0.0000 0.0000 0.0000
# 4 0.0000 0.0000 0.0000 13.7017 0.0000 0.0000
# 5 0.0000 0.0000 0.0000 0.0000 46.8703 0.0000
# 6 0.0000 0.0000 0.0000 0.0000 0.0000 -15.0229
#
#
#
# Elastic Compliance Matrix: (Units=1/GPa)
#
#
# Indices 1 2 3 4 5 6 
#
# 1 0.006677 -0.001172 -0.003768 0.000000 0.000000 0.000000
# 2 -0.001172 0.012152 0.001616 0.000000 0.000000 0.000000
# 3 -0.003768 0.001616 0.012425 0.000000 0.000000 0.000000
# 4 0.000000 0.000000 0.000000 0.072983 0.000000 0.000000
# 5 0.000000 0.000000 0.000000 0.000000 0.021335 0.000000
# 6 0.000000 0.000000 0.000000 0.000000 0.000000 -0.066565
#
#
# Mechanical properties :
#
#
# Convention : Reuss Voigt Hill
#
# Bulk Modulus (GPa) = 40.64158 52.99655 46.81906
# Shear Modulus (GPa) = 67.69826 29.62495 48.66161
#
# Velocity S-wave (km/s) = 5.43064 3.59245 4.60421
# Velocity P-wave (km/s) = 7.55165 6.34782 6.97575
#
# Compressibility (1/GPa) = 0.02460534
#
# Stress axis : x y z
#
# Youngs Moduli (GPa) = 149.77489 82.29143 80.48413
#
# Poissons Ratio (x) = 0.09649 0.30325
# Poissons Ratio (y) = 0.17561 -0.13008
# Poissons Ratio (z) = 0.56433 -0.13301
#
# Static dielectric constant tensor:
#      x y z
#    x 1.850550 0.000000 0.000000 
#    y 0.000000 1.896570 0.000000 
#    z 0.000000 0.000000 1.794880 
# 
# From -- ./inp_files/30975.got.cif
#   From: 2010.05.17/outbox.cif.g08.bks.cpg/sg74_16_cif.got.tgz:30975.got - 2010.06.03 17:57:02.
