data_PCOD9534726
_publ_section_title
;
Structure prediction by ZEFSAII (Michael W. Deem and Ramdas Pophale) SiO2 
 PCOD9534726
Probable space group: I M M A
;
_chemical_formula_sum "Si O2"
_cell_formula_units_Z 88
_cell_length_a 12.532997
_cell_length_b 14.137723
_cell_length_c 28.634962
_cell_angle_alpha 90.000000
_cell_angle_beta 90.000000
_cell_angle_gamma 90.000000
_cell_volume 5073.772791
_symmetry_space_group_name_H-M "I M M A"
_symmetry_group_IT_number 74
_symmetry_cell_setting 'orthorhombic'
loop_
_space_group_symop_operation_xyz
x,y,z
-x,1/2-y,z
x,-y,-z
-x,1/2+y,-z
-x,-y,-z
x,1/2+y,-z
-x,y,z
x,1/2-y,z
1/2+x,1/2+y,1/2+z
1/2-x,-y,1/2+z
1/2+x,1/2-y,1/2-z
1/2-x,y,1/2-z
1/2-x,1/2-y,1/2-z
1/2+x,y,1/2-z
1/2-x,1/2+y,1/2+z
1/2+x,-y,1/2+z
loop_
_atom_site_type_symbol
_atom_site_label
_atom_site_fract_x
_atom_site_fract_y
_atom_site_fract_z
Si Si1 0.624535 0.639365 0.675427
Si Si2 0.628553 0.855780 0.191881
Si Si3 0.875889 0.442748 0.598255
Si Si4 0.875402 0.358888 0.503512
Si Si5 0.750000 0.488943 0.250000
Si Si6 0.298226 0.644065 0.900736
O O1 0.500000 0.613098 0.672230
O O2 0.630429 0.750000 0.689585
O O3 0.687538 0.575765 0.712710
O O4 0.685644 0.633261 0.625612
O O5 0.500000 0.858370 0.191137
O O6 0.661082 0.750000 0.206182
O O7 0.668890 0.877933 0.139360
O O8 0.669934 0.940013 0.223858
O O9 0.834494 0.422395 0.546165
O O10 0.864221 0.551525 0.613592
O O11 0.000000 0.418788 0.593691
O O12 0.877450 0.250000 0.520087
O O13 0.804933 0.360947 0.456870
O O14 0.000000 0.383436 0.490787
O O15 0.339452 0.750000 0.888340
#
# Coordination Sequence:
#
# PCOD9534726 Si02
#       6
#    16  16  16  16   8  16
#     4  10  22  39  57  78 106 139 175 219 270 320
#     4  10  21  35  53  81 111 138 173 215 262 316
#     4  10  18  31  50  76 111 145 171 207 260 315
#     4   9  17  29  49  78 110 142 174 211 257 312
#     4  12  20  38  60  80 100 136 180 226 264 316
#     4  10  19  32  49  74 103 136 177 214 253 312
#
# _framework density 17.344096
#
# number of rings (size 3 to 8) (size 9 to 14) (size 15 to 20)
#    0.000    2.000    1.818    2.727    0.000    4.727 
#    0.000    0.000    0.000    2.182    0.000    0.000 
#    0.000    0.000    0.000    0.000    0.000    0.000 
#
# Total GULP energy -244999.685711 kJ/mol
# GULP energy per Si atom -5568.174675 kJ/mol
# Density = 1.730462 g / cm^3
# Si number density = 17.344096 Si / 1000 Ang^3
#
#
#
# Elastic Constant Matrix: (Units=GPa)
#
#
# Indices 1 2 3 4 5 6 
#
# 1 55.6527 34.8597 51.3634 0.0000 0.0000 0.0000
# 2 34.8597 101.3934 47.0519 0.0000 0.0000 0.0000
# 3 51.3634 47.0519 98.1624 0.0000 0.0000 0.0000
# 4 0.0000 0.0000 0.0000 30.1778 0.0000 0.0000
# 5 0.0000 0.0000 0.0000 0.0000 21.9008 0.0000
# 6 0.0000 0.0000 0.0000 0.0000 0.0000 18.8329
#
#
#
# Elastic Compliance Matrix: (Units=1/GPa)
#
#
# Indices 1 2 3 4 5 6 
#
# 1 0.036434 -0.004732 -0.016796 0.000000 0.000000 0.000000
# 2 -0.004732 0.013298 -0.003898 0.000000 0.000000 0.000000
# 3 -0.016796 -0.003898 0.020844 0.000000 0.000000 0.000000
# 4 0.000000 0.000000 0.000000 0.033137 0.000000 0.000000
# 5 0.000000 0.000000 0.000000 0.000000 0.045660 0.000000
# 6 0.000000 0.000000 0.000000 0.000000 0.000000 0.053099
#
#
# Mechanical properties :
#
#
# Convention : Reuss Voigt Hill
#
# Bulk Modulus (GPa) = 50.69896 57.97315 54.33605
# Shear Modulus (GPa) = 19.23818 22.31121 20.77469
#
# Velocity S-wave (km/s) = 3.33409 3.59051 3.46467
# Velocity P-wave (km/s) = 6.64201 7.11947 6.88488
#
# Compressibility (1/GPa) = 0.01972427
#
# Stress axis : x y z
#
# Youngs Moduli (GPa) = 27.44688 75.19649 47.97507
#
# Poissons Ratio (x) = 0.35584 0.80578
# Poissons Ratio (y) = 0.12988 0.18702
# Poissons Ratio (z) = 0.46099 0.29314
#
# Static dielectric constant tensor:
#      x y z
#    x 1.559430 0.000000 0.000000 
#    y 0.000000 1.643100 0.000000 
#    z 0.000000 0.000000 1.630130 
# 
# From -- ./inp_files/65931.got.cif
#   From: 2010.05.17/outbox.cif.g08.bks.cpg/sg74_33_cif.got.tgz:65931.got - 2010.06.03 17:57:02.
