data_PCOD9534447
_publ_section_title
;
Structure prediction by ZEFSAII (Michael W. Deem and Ramdas Pophale) SiO2 
 PCOD9534447
Probable space group: I M M A
;
_chemical_formula_sum "Si O2"
_cell_formula_units_Z 96
_cell_length_a 24.728893
_cell_length_b 14.090324
_cell_length_c 12.300529
_cell_angle_alpha 90.000000
_cell_angle_beta 90.000000
_cell_angle_gamma 90.000000
_cell_volume 4285.973132
_symmetry_space_group_name_H-M "I M M A"
_symmetry_group_IT_number 74
_symmetry_cell_setting 'orthorhombic'
loop_
_space_group_symop_operation_xyz
x,y,z
-x,1/2-y,z
x,-y,-z
-x,1/2+y,-z
-x,-y,-z
x,1/2+y,-z
-x,y,z
x,1/2-y,z
1/2+x,1/2+y,1/2+z
1/2-x,-y,1/2+z
1/2+x,1/2-y,1/2-z
1/2-x,y,1/2-z
1/2-x,1/2-y,1/2-z
1/2+x,y,1/2-z
1/2-x,1/2+y,1/2+z
1/2+x,-y,1/2+z
loop_
_atom_site_type_symbol
_atom_site_label
_atom_site_fract_x
_atom_site_fract_y
_atom_site_fract_z
Si Si1 0.559377 0.090960 0.579908
Si Si2 0.561748 0.363707 0.825316
Si Si3 0.560648 0.865635 0.748863
Si Si4 0.647755 0.142278 0.425262
Si Si5 0.262167 0.634838 0.875457
Si Si6 0.121922 0.134195 0.462135
O O1 0.500000 0.137709 0.564228
O O2 0.566005 0.084965 0.709345
O O3 0.611855 0.142254 0.532742
O O4 0.557403 0.000000 0.500000
O O5 0.500000 0.375794 0.865188
O O6 0.569045 0.250000 0.805687
O O7 0.602953 0.395586 0.918455
O O8 0.500000 0.898356 0.719852
O O9 0.559179 0.750000 0.741058
O O10 0.608807 0.897317 0.668973
O O11 0.577545 0.890386 0.870840
O O12 0.657283 0.250000 0.389490
O O13 0.707691 0.102052 0.436772
O O14 0.267115 0.750000 0.880240
O O15 0.250000 0.609954 0.750000
O O16 0.319142 0.600443 0.922831
O O17 0.122755 0.250000 0.464616
#
# Coordination Sequence:
#
# PCOD9534447 Si02
#       6
#    16  16  16  16  16  16
#     4  10  21  36  52  69  94 130 169 211 263 317
#     4   9  17  30  50  75 103 136 172 212 258 307
#     4   9  15  22  38  69 103 127 155 204 255 294
#     4  10  18  29  49  75 100 126 164 210 251 297
#     4   9  15  26  44  71 105 137 164 199 251 302
#     4   9  15  25  43  71 105 136 167 202 250 308
#
# _framework density 22.398647
#
# number of rings (size 3 to 8) (size 9 to 14) (size 15 to 20)
#    0.000    2.667    1.667    1.500    0.000    3.667 
#    0.000    0.833    0.000    7.000    0.000    4.667 
#    0.000    0.000    0.000    0.000    0.000    0.000 
#
# Total GULP energy -267822.929902 kJ/mol
# GULP energy per Si atom -5579.644373 kJ/mol
# Density = 2.234767 g / cm^3
# Si number density = 22.398647 Si / 1000 Ang^3
#
#
#
# Elastic Constant Matrix: (Units=GPa)
#
#
# Indices 1 2 3 4 5 6 
#
# 1 166.4101 14.3233 79.0231 0.0000 0.0000 0.0000
# 2 14.3233 51.4905 12.8176 0.0000 0.0000 0.0000
# 3 79.0231 12.8176 144.5604 0.0000 0.0000 0.0000
# 4 0.0000 0.0000 0.0000 2.9257 0.0000 0.0000
# 5 0.0000 0.0000 0.0000 0.0000 30.2351 0.0000
# 6 0.0000 0.0000 0.0000 0.0000 0.0000 15.5048
#
#
#
# Elastic Compliance Matrix: (Units=1/GPa)
#
#
# Indices 1 2 3 4 5 6 
#
# 1 0.008187 -0.001190 -0.004370 0.000000 0.000000 0.000000
# 2 -0.001190 0.020032 -0.001126 0.000000 0.000000 0.000000
# 3 -0.004370 -0.001126 0.009406 0.000000 0.000000 0.000000
# 4 0.000000 0.000000 0.000000 0.341795 0.000000 0.000000
# 5 0.000000 0.000000 0.000000 0.000000 0.033074 0.000000
# 6 0.000000 0.000000 0.000000 0.000000 0.000000 0.064496
#
#
# Mechanical properties :
#
#
# Convention : Reuss Voigt Hill
#
# Bulk Modulus (GPa) = 41.22938 63.86545 52.54741
# Shear Modulus (GPa) = 10.03118 26.81960 18.42539
#
# Velocity S-wave (km/s) = 2.11854 3.46407 2.87123
# Velocity P-wave (km/s) = 4.94280 6.67643 5.87392
#
# Compressibility (1/GPa) = 0.02425455
#
# Stress axis : x y z
#
# Youngs Moduli (GPa) = 122.14953 49.91955 106.31469
#
# Poissons Ratio (x) = 0.05938 0.46457
# Poissons Ratio (y) = 0.14530 0.11970
# Poissons Ratio (z) = 0.53376 0.05621
#
# Static dielectric constant tensor:
#      x y z
#    x 1.838870 0.000000 0.000000 
#    y 0.000000 1.977540 0.000000 
#    z 0.000000 0.000000 1.806650 
# 
# From -- ./inp_files/22476.got.cif
#   From: 2010.05.17/outbox.cif.g08.bks.cpg/sg74_12_cif.got.tgz:22476.got - 2010.06.03 17:57:02.
