data_PCOD9534147
_publ_section_title
;
Structure prediction by ZEFSAII (Michael W. Deem and Ramdas Pophale) SiO2 
 PCOD9534147
Probable space group: I M M A
;
_chemical_formula_sum "Si O2"
_cell_formula_units_Z 88
_cell_length_a 19.244393
_cell_length_b 13.876448
_cell_length_c 15.186651
_cell_angle_alpha 90.000000
_cell_angle_beta 90.000000
_cell_angle_gamma 90.000000
_cell_volume 4055.501277
_symmetry_space_group_name_H-M "I M M A"
_symmetry_group_IT_number 74
_symmetry_cell_setting 'orthorhombic'
loop_
_space_group_symop_operation_xyz
x,y,z
-x,1/2-y,z
x,-y,-z
-x,1/2+y,-z
-x,-y,-z
x,1/2+y,-z
-x,y,z
x,1/2-y,z
1/2+x,1/2+y,1/2+z
1/2-x,-y,1/2+z
1/2+x,1/2-y,1/2-z
1/2-x,y,1/2-z
1/2-x,1/2-y,1/2-z
1/2+x,y,1/2-z
1/2-x,1/2+y,1/2+z
1/2+x,-y,1/2+z
loop_
_atom_site_type_symbol
_atom_site_label
_atom_site_fract_x
_atom_site_fract_y
_atom_site_fract_z
Si Si1 0.655445 0.637857 0.528285
Si Si2 0.250000 0.529420 0.750000
Si Si3 0.129163 0.642561 0.649911
Si Si4 0.370451 0.956219 0.356661
Si Si5 0.074095 0.555140 0.331712
Si Si6 0.690506 0.858197 0.041996
O O1 0.654574 0.750000 0.554171
O O2 0.616925 0.615921 0.436673
O O3 0.625624 0.564345 0.601166
O O4 0.734712 0.610411 0.498608
O O5 0.196315 0.599305 0.700396
O O6 0.292267 0.461817 0.683155
O O7 0.113399 0.750000 0.681292
O O8 0.073294 0.560313 0.662658
O O9 0.145160 0.646073 0.546596
O O10 0.414787 0.927908 0.271979
O O11 0.141799 0.587266 0.387735
O O12 0.000000 0.595836 0.362707
O O13 0.702612 0.750000 0.076841
#
# Coordination Sequence:
#
# PCOD9534147 Si02
#       6
#    16   8  16  16  16  16
#     4  10  20  37  61  91 120 143 185 251 316 359
#     4  10  17  32  57  88 122 150 187 240 303 354
#     4  10  20  33  56  88 119 154 193 237 294 350
#     4  10  21  35  59  87 115 154 195 241 298 359
#     4  11  25  41  56  81 121 166 205 239 280 348
#     4  10  21  37  60  89 118 151 191 242 300 355
#
# _framework density 21.698920000000001
#
# number of rings (size 3 to 8) (size 9 to 14) (size 15 to 20)
#    0.000    1.818    1.818    3.000    2.545    5.818 
#    0.000    5.909    0.000    1.091    0.000    0.000 
#    0.000    0.000    0.000    0.000    0.000    0.000 
#
# Total GULP energy -245185.169937 kJ/mol
# GULP energy per Si atom -5572.390226 kJ/mol
# Density = 2.164953 g / cm^3
# Si number density = 21.698920 Si / 1000 Ang^3
#
#
#
# Elastic Constant Matrix: (Units=GPa)
#
#
# Indices 1 2 3 4 5 6 
#
# 1 46.8030 15.2113 1.8886 0.0000 0.0000 0.0000
# 2 15.2113 55.3425 -9.5770 0.0000 0.0000 0.0000
# 3 1.8886 -9.5770 72.7348 0.0000 0.0000 0.0000
# 4 0.0000 0.0000 0.0000 13.1500 0.0000 0.0000
# 5 0.0000 0.0000 0.0000 0.0000 -2.9403 0.0000
# 6 0.0000 0.0000 0.0000 0.0000 0.0000 -12.9070
#
#
#
# Elastic Compliance Matrix: (Units=1/GPa)
#
#
# Indices 1 2 3 4 5 6 
#
# 1 0.023621 -0.006752 -0.001502 0.000000 0.000000 0.000000
# 2 -0.006752 0.020421 0.002864 0.000000 0.000000 0.000000
# 3 -0.001502 0.002864 0.014165 0.000000 0.000000 0.000000
# 4 0.000000 0.000000 0.000000 0.076046 0.000000 0.000000
# 5 0.000000 0.000000 0.000000 0.000000 -0.340097 0.000000
# 6 0.000000 0.000000 0.000000 0.000000 0.000000 -0.077477
#
#
# Mechanical properties :
#
#
# Convention : Reuss Voigt Hill
#
# Bulk Modulus (GPa) = 21.08576 21.10291 21.09434
# Shear Modulus (GPa) = -19.47556 10.61769 -4.42894
#
# Velocity S-wave (km/s) = -2.99914 2.21446 -1.43022
# Velocity P-wave (km/s) = 1.50154 4.03545 2.64861
#
# Compressibility (1/GPa) = 0.04742538
#
# Stress axis : x y z
#
# Youngs Moduli (GPa) = 42.33451 48.96945 70.59802
#
# Poissons Ratio (x) = 0.33067 0.10607
# Poissons Ratio (y) = 0.28586 -0.20220
# Poissons Ratio (z) = 0.06361 -0.14026
#
# Static dielectric constant tensor:
#      x y z
#    x 1.939470 0.000000 0.000000 
#    y 0.000000 1.840230 0.000000 
#    z 0.000000 0.000000 1.822200 
# 
# From -- ./inp_files/35158.got.cif
#   From: 2010.05.17/outbox.cif.g08.bks.cpg/sg74_18_cif.got.tgz:35158.got - 2010.06.03 17:57:02.
