data_PCOD9534741
_publ_section_title
;
Structure prediction by ZEFSAII (Michael W. Deem and Ramdas Pophale) SiO2 
 PCOD9534741
Probable space group: I M M A
;
_chemical_formula_sum "Si O2"
_cell_formula_units_Z 72
_cell_length_a 15.517662
_cell_length_b 10.539976
_cell_length_c 22.717446
_cell_angle_alpha 90.000000
_cell_angle_beta 90.000000
_cell_angle_gamma 90.000000
_cell_volume 3715.569715
_symmetry_space_group_name_H-M "I M M A"
_symmetry_group_IT_number 74
_symmetry_cell_setting 'orthorhombic'
loop_
_space_group_symop_operation_xyz
x,y,z
-x,1/2-y,z
x,-y,-z
-x,1/2+y,-z
-x,-y,-z
x,1/2+y,-z
-x,y,z
x,1/2-y,z
1/2+x,1/2+y,1/2+z
1/2-x,-y,1/2+z
1/2+x,1/2-y,1/2-z
1/2-x,y,1/2-z
1/2-x,1/2-y,1/2-z
1/2+x,y,1/2-z
1/2-x,1/2+y,1/2+z
1/2+x,-y,1/2+z
loop_
_atom_site_type_symbol
_atom_site_label
_atom_site_fract_x
_atom_site_fract_y
_atom_site_fract_z
Si Si1 0.500000 0.101740 0.903481
Si Si2 0.500000 0.899152 0.348170
Si Si3 0.189040 0.111031 0.306516
Si Si4 0.500000 0.027762 0.221349
Si Si5 0.312803 0.600830 0.097260
Si Si6 0.871560 0.396494 0.952727
O O1 0.500000 0.250000 0.915470
O O2 0.593187 0.056180 0.925934
O O3 0.500000 0.073170 0.833056
O O4 0.500000 0.750000 0.334287
O O5 0.417925 0.923894 0.390371
O O6 0.500000 0.971182 0.286720
O O7 0.204029 0.250000 0.334485
O O8 0.250000 0.101596 0.250000
O O9 0.088992 0.102244 0.287705
O O10 0.206554 0.993458 0.349124
O O11 0.320206 0.750000 0.115605
O O12 0.231372 0.595399 0.054721
O O13 0.893500 0.250000 0.968143
O O14 0.899473 0.500000 0.000000
#
# Coordination Sequence:
#
# PCOD9534741 Si02
#       6
#     8   8  16   8  16  16
#     4   8  15  29  51  78 103 127 157 198 247 295
#     4  10  20  34  53  77 104 136 176 216 253 301
#     4  10  20  32  47  72 105 136 166 202 247 300
#     4  10  18  31  51  75 105 137 167 202 244 298
#     4   9  18  33  53  74  97 129 169 209 250 300
#     4  10  21  37  55  76 101 132 174 221 264 305
#
# _framework density 19.377915999999999
#
# number of rings (size 3 to 8) (size 9 to 14) (size 15 to 20)
#    0.000    2.444    0.000    2.333    0.000    2.222 
#    0.000    2.778    0.000    0.000    0.000    0.000 
#    0.000    0.000    0.000    0.000    0.000    0.000 
#
# Total GULP energy -200534.571289 kJ/mol
# GULP energy per Si atom -5570.404758 kJ/mol
# Density = 1.933381 g / cm^3
# Si number density = 19.377916 Si / 1000 Ang^3
#
#
#
# Elastic Constant Matrix: (Units=GPa)
#
#
# Indices 1 2 3 4 5 6 
#
# 1 108.8047 12.1608 3.5956 0.0000 0.0000 0.0000
# 2 12.1608 88.9058 40.7078 0.0000 0.0000 0.0000
# 3 3.5956 40.7078 45.0134 0.0000 0.0000 0.0000
# 4 0.0000 0.0000 0.0000 19.4338 0.0000 0.0000
# 5 0.0000 0.0000 0.0000 0.0000 3.9350 0.0000
# 6 0.0000 0.0000 0.0000 0.0000 0.0000 27.9227
#
#
#
# Elastic Compliance Matrix: (Units=1/GPa)
#
#
# Indices 1 2 3 4 5 6 
#
# 1 0.009346 -0.001598 0.000699 0.000000 0.000000 0.000000
# 2 -0.001598 0.019470 -0.017480 0.000000 0.000000 0.000000
# 3 0.000699 -0.017480 0.037968 0.000000 0.000000 0.000000
# 4 0.000000 0.000000 0.000000 0.051457 0.000000 0.000000
# 5 0.000000 0.000000 0.000000 0.000000 0.254132 0.000000
# 6 0.000000 0.000000 0.000000 0.000000 0.000000 0.035813
#
#
# Mechanical properties :
#
#
# Convention : Reuss Voigt Hill
#
# Bulk Modulus (GPa) = 33.30534 39.51692 36.41113
# Shear Modulus (GPa) = 10.99011 22.67561 16.83286
#
# Velocity S-wave (km/s) = 2.38407 3.42450 2.95050
# Velocity P-wave (km/s) = 4.98025 6.00610 5.51707
#
# Compressibility (1/GPa) = 0.03002522
#
# Stress axis : x y z
#
# Youngs Moduli (GPa) = 106.99379 51.36032 26.33795
#
# Poissons Ratio (x) = 0.08210 -0.01841
# Poissons Ratio (y) = 0.17103 0.46039
# Poissons Ratio (z) = -0.07479 0.89779
#
# Static dielectric constant tensor:
#      x y z
#    x 1.737020 0.000000 0.000000 
#    y 0.000000 1.668980 0.000000 
#    z 0.000000 0.000000 1.627040 
# 
# From -- ./inp_files/59664.got.cif
#   From: 2010.05.17/outbox.cif.g08.bks.cpg/sg74_30_cif.got.tgz:59664.got - 2010.06.03 17:57:02.
