data_PCOD9534720
_publ_section_title
;
Structure prediction by ZEFSAII (Michael W. Deem and Ramdas Pophale) SiO2 
 PCOD9534720
Probable space group: I M M A
;
_chemical_formula_sum "Si O2"
_cell_formula_units_Z 72
_cell_length_a 21.153458
_cell_length_b 7.315353
_cell_length_c 26.662166
_cell_angle_alpha 90.000000
_cell_angle_beta 90.000000
_cell_angle_gamma 90.000000
_cell_volume 4125.837209
_symmetry_space_group_name_H-M "I M M A"
_symmetry_group_IT_number 74
_symmetry_cell_setting 'orthorhombic'
loop_
_space_group_symop_operation_xyz
x,y,z
-x,1/2-y,z
x,-y,-z
-x,1/2+y,-z
-x,-y,-z
x,1/2+y,-z
-x,y,z
x,1/2-y,z
1/2+x,1/2+y,1/2+z
1/2-x,-y,1/2+z
1/2+x,1/2-y,1/2-z
1/2-x,y,1/2-z
1/2-x,1/2-y,1/2-z
1/2+x,y,1/2-z
1/2-x,1/2+y,1/2+z
1/2+x,-y,1/2+z
loop_
_atom_site_type_symbol
_atom_site_label
_atom_site_fract_x
_atom_site_fract_y
_atom_site_fract_z
Si Si1 0.638025 0.969386 0.601875
Si Si2 0.600205 0.250000 0.772100
Si Si3 0.500000 0.470285 0.269700
Si Si4 0.679677 0.750000 0.133285
Si Si5 0.815664 0.250000 0.818971
Si Si6 0.500000 0.030625 0.389445
Si Si7 0.770709 0.036482 0.442642
O O1 0.637781 0.750000 0.608595
O O2 0.567002 0.029158 0.587530
O O3 0.696583 0.016546 0.565626
O O4 0.654777 0.073764 0.653058
O O5 0.559392 0.427123 0.755728
O O6 0.620135 0.250000 0.830042
O O7 0.662444 0.250000 0.737677
O O8 0.500000 0.250000 0.264130
O O9 0.500000 0.512542 0.329689
O O10 0.742123 0.750000 0.168201
O O11 0.687895 0.577908 0.096340
O O12 0.500000 0.250000 0.393000
O O13 0.776035 0.250000 0.431837
O O14 0.787964 0.000000 0.500000
#
# Coordination Sequence:
#
# PCOD9534720 Si02
#       7
#    16   8   8   8   8   8  16
#     4   9  18  29  47  73 101 141 186 220 258 309
#     4  11  21  34  54  82 111 143 186 215 259 321
#     4  10  21  35  54  76 108 151 176 214 262 311
#     4  10  22  35  52  83 109 139 180 226 269 323
#     4  10  18  31  50  73 111 147 175 219 262 307
#     4   9  15  29  48  69 100 142 189 214 249 305
#     4  10  19  35  55  74 103 139 178 226 280 318
#
# _framework density 17.451003
#
# number of rings (size 3 to 8) (size 9 to 14) (size 15 to 20)
#    0.000    2.222    3.333    0.333    0.000    1.333 
#    0.000    0.556    0.000    6.667    0.000    3.111 
#    0.000    0.000    0.000    0.000    0.000    0.000 
#
# Total GULP energy -200601.845937 kJ/mol
# GULP energy per Si atom -5572.273498 kJ/mol
# Density = 1.741128 g / cm^3
# Si number density = 17.451003 Si / 1000 Ang^3
#
#
#
# Elastic Constant Matrix: (Units=GPa)
#
#
# Indices 1 2 3 4 5 6 
#
# 1 17.6610 7.1651 9.8150 0.0000 0.0000 0.0000
# 2 7.1651 92.8786 18.8356 0.0000 0.0000 0.0000
# 3 9.8150 18.8356 76.0988 0.0000 0.0000 0.0000
# 4 0.0000 0.0000 0.0000 14.5535 0.0000 0.0000
# 5 0.0000 0.0000 0.0000 0.0000 20.4672 0.0000
# 6 0.0000 0.0000 0.0000 0.0000 0.0000 12.9490
#
#
#
# Elastic Compliance Matrix: (Units=1/GPa)
#
#
# Indices 1 2 3 4 5 6 
#
# 1 0.061955 -0.003326 -0.007167 0.000000 0.000000 0.000000
# 2 -0.003326 0.011514 -0.002421 0.000000 0.000000 0.000000
# 3 -0.007167 -0.002421 0.014664 0.000000 0.000000 0.000000
# 4 0.000000 0.000000 0.000000 0.068712 0.000000 0.000000
# 5 0.000000 0.000000 0.000000 0.000000 0.048859 0.000000
# 6 0.000000 0.000000 0.000000 0.000000 0.000000 0.077226
#
#
# Mechanical properties :
#
#
# Convention : Reuss Voigt Hill
#
# Bulk Modulus (GPa) = 16.05020 28.69664 22.37342
# Shear Modulus (GPa) = 15.17328 19.64880 17.41104
#
# Velocity S-wave (km/s) = 2.95189 3.35914 3.16208
# Velocity P-wave (km/s) = 4.56459 5.61471 5.11666
#
# Compressibility (1/GPa) = 0.06230452
#
# Stress axis : x y z
#
# Youngs Moduli (GPa) = 16.14087 86.84855 68.19200
#
# Poissons Ratio (x) = 0.28885 0.48876
# Poissons Ratio (y) = 0.05368 0.16509
# Poissons Ratio (z) = 0.11569 0.21026
#
# Static dielectric constant tensor:
#      x y z
#    x 1.621850 0.000000 0.000000 
#    y 0.000000 1.609680 0.000000 
#    z 0.000000 0.000000 1.562950 
# 
# From -- ./inp_files/68026.got.cif
#   From: 2010.05.17/outbox.cif.g08.bks.cpg/sg74_35_cif.got.tgz:68026.got - 2010.06.03 17:57:02.
