data_PCOD9534661
_publ_section_title
;
Structure prediction by ZEFSAII (Michael W. Deem and Ramdas Pophale) SiO2 
 PCOD9534661
Probable space group: I M M A
;
_chemical_formula_sum "Si O2"
_cell_formula_units_Z 60
_cell_length_a 14.205427
_cell_length_b 10.894028
_cell_length_c 19.388845
_cell_angle_alpha 90.000000
_cell_angle_beta 90.000000
_cell_angle_gamma 90.000000
_cell_volume 3000.507514
_symmetry_space_group_name_H-M "I M M A"
_symmetry_group_IT_number 74
_symmetry_cell_setting 'orthorhombic'
loop_
_space_group_symop_operation_xyz
x,y,z
-x,1/2-y,z
x,-y,-z
-x,1/2+y,-z
-x,-y,-z
x,1/2+y,-z
-x,y,z
x,1/2-y,z
1/2+x,1/2+y,1/2+z
1/2-x,-y,1/2+z
1/2+x,1/2-y,1/2-z
1/2-x,y,1/2-z
1/2-x,1/2-y,1/2-z
1/2+x,y,1/2-z
1/2-x,1/2+y,1/2+z
1/2+x,-y,1/2+z
loop_
_atom_site_type_symbol
_atom_site_label
_atom_site_fract_x
_atom_site_fract_y
_atom_site_fract_z
Si Si1 0.795565 0.513911 0.326081
Si Si2 0.500000 0.104630 0.616348
Si Si3 0.695414 0.391019 0.549458
Si Si4 0.000000 0.493550 0.728290
Si Si5 0.000000 0.250000 0.198766
Si Si6 0.217948 0.750000 0.830536
O O1 0.750000 0.529000 0.250000
O O2 0.757300 0.608499 0.381479
O O3 0.905920 0.528306 0.314124
O O4 0.762905 0.378893 0.353733
O O5 0.500000 0.250000 0.612454
O O6 0.406766 0.064179 0.576859
O O7 0.500000 0.071796 0.696959
O O8 0.730078 0.500000 0.500000
O O9 0.690289 0.250000 0.521715
O O10 0.000000 0.633800 0.752178
O O11 0.896725 0.250000 0.161454
O O12 0.250000 0.750000 0.750000
#
# Coordination Sequence:
#
# PCOD9534661 Si02
#       6
#    16   8  16   8   4   8
#     4  11  21  37  63  93 127 167 214 267 322 373
#     4  10  21  39  64  93 127 164 210 261 325 390
#     4  11  25  44  65  92 131 173 215 260 324 390
#     4  12  20  35  60 100 127 161 208 274 319 380
#     4  12  16  28  50  90 136 158 204 252 314 386
#     4  10  18  30  54  90 132 162 207 254 319 372
#
# _framework density 19.996618000000002
#
# number of rings (size 3 to 8) (size 9 to 14) (size 15 to 20)
#    0.000    1.067    8.000    0.400    1.867    1.600 
#    2.400    0.667    0.000    0.000    0.000    0.000 
#    0.000    0.000    0.000    0.000    0.000    0.000 
#
# Total GULP energy -167331.014522 kJ/mol
# GULP energy per Si atom -5577.700484 kJ/mol
# Density = 1.995111 g / cm^3
# Si number density = 19.996618 Si / 1000 Ang^3
#
#
#
# Elastic Constant Matrix: (Units=GPa)
#
#
# Indices 1 2 3 4 5 6 
#
# 1 144.0625 12.3067 29.9744 0.0000 0.0000 0.0000
# 2 12.3067 69.4952 35.0554 0.0000 0.0000 0.0000
# 3 29.9744 35.0554 68.3178 0.0000 0.0000 0.0000
# 4 0.0000 0.0000 0.0000 23.9206 0.0000 0.0000
# 5 0.0000 0.0000 0.0000 0.0000 16.1217 0.0000
# 6 0.0000 0.0000 0.0000 0.0000 0.0000 13.3148
#
#
#
# Elastic Compliance Matrix: (Units=1/GPa)
#
#
# Indices 1 2 3 4 5 6 
#
# 1 0.007649 0.000457 -0.003590 0.000000 0.000000 0.000000
# 2 0.000457 0.019442 -0.010176 0.000000 0.000000 0.000000
# 3 -0.003590 -0.010176 0.021435 0.000000 0.000000 0.000000
# 4 0.000000 0.000000 0.000000 0.041805 0.000000 0.000000
# 5 0.000000 0.000000 0.000000 0.000000 0.062028 0.000000
# 6 0.000000 0.000000 0.000000 0.000000 0.000000 0.075104
#
#
# Mechanical properties :
#
#
# Convention : Reuss Voigt Hill
#
# Bulk Modulus (GPa) = 45.65114 48.50540 47.07827
# Shear Modulus (GPa) = 19.12881 24.30736 21.71809
#
# Velocity S-wave (km/s) = 3.09625 3.49029 3.29916
# Velocity P-wave (km/s) = 5.97171 6.36807 6.17307
#
# Compressibility (1/GPa) = 0.02190526
#
# Stress axis : x y z
#
# Youngs Moduli (GPa) = 130.72783 51.43525 46.65374
#
# Poissons Ratio (x) = -0.02348 0.16751
# Poissons Ratio (y) = -0.05968 0.47477
# Poissons Ratio (z) = 0.46937 0.52342
#
# Static dielectric constant tensor:
#      x y z
#    x 1.788570 0.000000 0.000000 
#    y 0.000000 1.713300 0.000000 
#    z 0.000000 0.000000 1.711490 
# 
# From -- ./inp_files/42220.got.cif
#   From: 2010.05.17/outbox.cif.g08.bks.cpg/sg74_22_cif.got.tgz:42220.got - 2010.06.03 17:57:02.
