data_PCOD9534460
_publ_section_title
;
Structure prediction by ZEFSAII (Michael W. Deem and Ramdas Pophale) SiO2 
 PCOD9534460
Probable space group: I M M A
;
_chemical_formula_sum "Si O2"
_cell_formula_units_Z 128
_cell_length_a 17.196872
_cell_length_b 17.790682
_cell_length_c 25.410196
_cell_angle_alpha 90.000000
_cell_angle_beta 90.000000
_cell_angle_gamma 90.000000
_cell_volume 7774.099067
_symmetry_space_group_name_H-M "I M M A"
_symmetry_group_IT_number 74
_symmetry_cell_setting 'orthorhombic'
loop_
_space_group_symop_operation_xyz
x,y,z
-x,1/2-y,z
x,-y,-z
-x,1/2+y,-z
-x,-y,-z
x,1/2+y,-z
-x,y,z
x,1/2-y,z
1/2+x,1/2+y,1/2+z
1/2-x,-y,1/2+z
1/2+x,1/2-y,1/2-z
1/2-x,y,1/2-z
1/2-x,1/2-y,1/2-z
1/2+x,y,1/2-z
1/2-x,1/2+y,1/2+z
1/2+x,-y,1/2+z
loop_
_atom_site_type_symbol
_atom_site_label
_atom_site_fract_x
_atom_site_fract_y
_atom_site_fract_z
Si Si1 0.708770 0.882318 0.428550
Si Si2 0.417679 0.340842 0.002192
Si Si3 0.371362 0.335971 0.883673
Si Si4 0.830663 0.034616 0.777638
Si Si5 0.251816 0.536876 0.623381
Si Si6 0.909411 0.012079 0.671627
Si Si7 0.247228 0.660335 0.544060
Si Si8 0.092244 0.336161 0.844574
O O1 0.779569 0.841152 0.397319
O O2 0.710581 0.860930 0.489539
O O3 0.630248 0.857459 0.400396
O O4 0.727306 0.969571 0.417177
O O5 0.500000 0.370449 0.021941
O O6 0.417683 0.250000 0.005967
O O7 0.341602 0.365888 0.032430
O O8 0.409255 0.356377 0.940134
O O9 0.391455 0.250000 0.869764
O O10 0.396440 0.399417 0.842677
O O11 0.750000 0.057876 0.750000
O O12 0.886476 0.001426 0.732777
O O13 0.870744 0.106245 0.803580
O O14 0.802770 0.979609 0.824518
O O15 0.160366 0.528724 0.639266
O O16 0.271993 0.614267 0.594936
O O17 0.000000 0.992743 0.661333
O O18 0.249908 0.750000 0.550810
O O19 0.111288 0.250000 0.831807
O O20 0.000000 0.344564 0.845644
#
# Coordination Sequence:
#
# PCOD9534460 Si02
#       8
#    16  16  16  16  16  16  16  16
#     4   9  17  31  48  68  98 131 156 176 216 277
#     4   8  14  24  38  62  98 130 148 169 211 265
#     4   9  16  26  42  66  97 131 162 186 211 255
#     4   9  19  34  49  63  88 125 159 190 233 283
#     4   9  19  33  48  68  94 123 153 189 229 274
#     4  10  19  30  46  67  91 122 158 195 234 273
#     4  10  18  29  50  74  92 118 156 193 229 268
#     4  10  19  30  47  72  99 124 153 191 229 266
#
# _framework density 16.464929999999999
#
# number of rings (size 3 to 8) (size 9 to 14) (size 15 to 20)
#    0.000    2.750    0.000    3.750    0.000    2.000 
#    0.000    0.000    0.000   14.625    0.000    0.000 
#    0.000    0.000    0.000    0.000    0.000    0.000 
#
# Total GULP energy -356514.221202 kJ/mol
# GULP energy per Si atom -5570.534706 kJ/mol
# Density = 1.642746 g / cm^3
# Si number density = 16.464930 Si / 1000 Ang^3
#
#
#
# Elastic Constant Matrix: (Units=GPa)
#
#
# Indices 1 2 3 4 5 6 
#
# 1 35.1826 8.6753 19.8842 0.0000 0.0000 0.0000
# 2 8.6753 52.4992 46.1300 0.0000 0.0000 0.0000
# 3 19.8842 46.1300 80.1138 0.0000 0.0000 0.0000
# 4 0.0000 0.0000 0.0000 8.8069 0.0000 0.0000
# 5 0.0000 0.0000 0.0000 0.0000 1.7268 0.0000
# 6 0.0000 0.0000 0.0000 0.0000 0.0000 7.9573
#
#
#
# Elastic Compliance Matrix: (Units=1/GPa)
#
#
# Indices 1 2 3 4 5 6 
#
# 1 0.033388 0.003571 -0.010343 0.000000 0.000000 0.000000
# 2 0.003571 0.038936 -0.023306 0.000000 0.000000 0.000000
# 3 -0.010343 -0.023306 0.028469 0.000000 0.000000 0.000000
# 4 0.000000 0.000000 0.000000 0.113547 0.000000 0.000000
# 5 0.000000 0.000000 0.000000 0.000000 0.579104 0.000000
# 6 0.000000 0.000000 0.000000 0.000000 0.000000 0.125671
#
#
# Mechanical properties :
#
#
# Convention : Reuss Voigt Hill
#
# Bulk Modulus (GPa) = 24.60785 35.24161 29.92473
# Shear Modulus (GPa) = 5.03617 9.90527 7.47072
#
# Velocity S-wave (km/s) = 1.75082 2.45541 2.13242
# Velocity P-wave (km/s) = 4.36637 5.43040 4.92719
#
# Compressibility (1/GPa) = 0.04063743
#
# Stress axis : x y z
#
# Youngs Moduli (GPa) = 29.95062 25.68284 35.12563
#
# Poissons Ratio (x) = -0.09172 0.36331
# Poissons Ratio (y) = -0.10696 0.81864
# Poissons Ratio (z) = 0.30979 0.59857
#
# Static dielectric constant tensor:
#      x y z
#    x 1.590900 0.000000 0.000000 
#    y 0.000000 1.544710 0.000000 
#    z 0.000000 0.000000 1.563000 
# 
# From -- ./inp_files/61124.got.cif
#   From: 2010.05.17/outbox.cif.g08.bks.cpg/sg74_31_cif.got.tgz:61124.got - 2010.06.03 17:57:02.
