data_PCOD9534139
_publ_section_title
;
Structure prediction by ZEFSAII (Michael W. Deem and Ramdas Pophale) SiO2 
 PCOD9534139
Probable space group: I M M A
;
_chemical_formula_sum "Si O2"
_cell_formula_units_Z 52
_cell_length_a 27.990705
_cell_length_b 14.870185
_cell_length_c 4.930817
_cell_angle_alpha 90.000000
_cell_angle_beta 90.000000
_cell_angle_gamma 90.000000
_cell_volume 2052.338978
_symmetry_space_group_name_H-M "I M M A"
_symmetry_group_IT_number 74
_symmetry_cell_setting 'orthorhombic'
loop_
_space_group_symop_operation_xyz
x,y,z
-x,1/2-y,z
x,-y,-z
-x,1/2+y,-z
-x,-y,-z
x,1/2+y,-z
-x,y,z
x,1/2-y,z
1/2+x,1/2+y,1/2+z
1/2-x,-y,1/2+z
1/2+x,1/2-y,1/2-z
1/2-x,y,1/2-z
1/2-x,1/2-y,1/2-z
1/2+x,y,1/2-z
1/2-x,1/2+y,1/2+z
1/2+x,-y,1/2+z
loop_
_atom_site_type_symbol
_atom_site_label
_atom_site_fract_x
_atom_site_fract_y
_atom_site_fract_z
Si Si1 0.050590 0.092771 0.653749
Si Si2 0.000000 0.250000 0.397855
Si Si3 0.352704 0.141553 0.569613
Si Si4 0.295030 0.859241 0.926556
O O1 0.041461 0.171996 0.437692
O O2 0.096726 0.107230 0.832093
O O3 0.000000 0.098475 0.818131
O O4 0.053181 0.000000 0.500000
O O5 0.353442 0.250000 0.586794
O O6 0.339961 0.118069 0.263749
O O7 0.310001 0.110903 0.773589
O O8 0.289340 0.750000 0.943184
O O9 0.250000 0.891622 0.750000
#
# Coordination Sequence:
#
# PCOD9534139 Si02
#       4
#    16   4  16  16
#     4   9  17  31  55  85 119 157 202 247 301 364
#     4   8  14  32  56  80 122 158 198 250 304 360
#     4  10  17  32  53  80 115 154 191 242 296 351
#     4   9  18  30  52  82 113 149 196 241 293 354
#
# _framework density 25.336946000000001
#
# number of rings (size 3 to 8) (size 9 to 14) (size 15 to 20)
#    0.923    1.846    1.538    0.923    0.000    3.692 
#    0.000    3.077    0.000   14.769    0.000    0.000 
#    0.000    0.000    0.000    0.308    0.000    0.000 
#
# Total GULP energy -144822.340194 kJ/mol
# GULP energy per Si atom -5570.090007 kJ/mol
# Density = 2.527928 g / cm^3
# Si number density = 25.336946 Si / 1000 Ang^3
#
#
#
# Elastic Constant Matrix: (Units=GPa)
#
#
# Indices 1 2 3 4 5 6 
#
# 1 87.3073 10.3774 -0.9109 0.0000 0.0000 0.0000
# 2 10.3774 110.8335 20.0110 0.0000 0.0000 0.0000
# 3 -0.9109 20.0110 75.3533 0.0000 -0.0002 0.0000
# 4 0.0000 0.0000 0.0000 -0.9524 0.0000 0.0000
# 5 0.0000 0.0000 -0.0002 0.0000 19.0389 0.0000
# 6 0.0000 0.0000 0.0000 0.0000 0.0000 10.9001
#
#
#
# Elastic Compliance Matrix: (Units=1/GPa)
#
#
# Indices 1 2 3 4 5 6 
#
# 1 0.011597 -0.001167 0.000450 0.000000 0.000000 0.000000
# 2 -0.001167 0.009594 -0.002562 0.000000 0.000000 0.000000
# 3 0.000450 -0.002562 0.013957 -0.000001 0.000000 0.000000
# 4 0.000000 0.000000 -0.000001 -1.049935 0.000001 0.000000
# 5 0.000000 0.000000 0.000000 0.000001 0.052524 0.000000
# 6 0.000000 0.000000 0.000000 0.000000 0.000000 0.091743
#
#
# Mechanical properties :
#
#
# Convention : Reuss Voigt Hill
#
# Bulk Modulus (GPa) = 34.97698 36.93878 35.95788
# Shear Modulus (GPa) = -5.85184 22.06509 8.10662
#
# Velocity S-wave (km/s) = -1.52139 2.95425 1.79066
# Velocity P-wave (km/s) = 3.27850 5.12322 4.30093
#
# Compressibility (1/GPa) = 0.02859023
#
# Stress axis : x y z
#
# Youngs Moduli (GPa) = 86.22759 104.22750 71.65055
#
# Poissons Ratio (x) = 0.12165 -0.03225
# Poissons Ratio (y) = 0.10064 0.18357
# Poissons Ratio (z) = -0.03881 0.26703
#
# Static dielectric constant tensor:
#      x y z
#    x 2.033470 0.000000 0.000000 
#    y 0.000000 1.925880 0.000000 
#    z 0.000000 0.000000 1.983870 
# 
# From -- ./inp_files/2085.got.cif
#   From: 2010.05.17/outbox.cif.g08.bks.cpg/sg74_2_cif.got.tgz:2085.got - 2010.06.03 17:57:02.
