data_PCOD9534035
_publ_section_title
;
Structure prediction by ZEFSAII (Michael W. Deem and Ramdas Pophale) SiO2 
 PCOD9534035
Probable space group: I M M A
;
_chemical_formula_sum "Si O2"
_cell_formula_units_Z 112
_cell_length_a 14.662025
_cell_length_b 32.575683
_cell_length_c 13.462247
_cell_angle_alpha 90.000000
_cell_angle_beta 90.000000
_cell_angle_gamma 90.000000
_cell_volume 6429.912166
_symmetry_space_group_name_H-M "I M M A"
_symmetry_group_IT_number 74
_symmetry_cell_setting 'orthorhombic'
loop_
_space_group_symop_operation_xyz
x,y,z
-x,1/2-y,z
x,-y,-z
-x,1/2+y,-z
-x,-y,-z
x,1/2+y,-z
-x,y,z
x,1/2-y,z
1/2+x,1/2+y,1/2+z
1/2-x,-y,1/2+z
1/2+x,1/2-y,1/2-z
1/2-x,y,1/2-z
1/2-x,1/2-y,1/2-z
1/2+x,y,1/2-z
1/2-x,1/2+y,1/2+z
1/2+x,-y,1/2+z
loop_
_atom_site_type_symbol
_atom_site_label
_atom_site_fract_x
_atom_site_fract_y
_atom_site_fract_z
Si Si1 0.352197 0.797970 0.257249
Si Si2 0.395926 0.915891 0.207386
Si Si3 0.289228 0.880242 0.019139
Si Si4 0.903108 0.639481 0.096337
Si Si5 0.390865 0.991229 0.725135
Si Si6 0.721881 0.466604 0.088667
Si Si7 0.104071 0.202281 0.529813
O O1 0.344745 0.750000 0.272385
O O2 0.250000 0.815838 0.250000
O O3 0.399632 0.816278 0.352820
O O4 0.396376 0.804035 0.149715
O O5 0.500000 0.916728 0.167092
O O6 0.331006 0.897574 0.123114
O O7 0.395449 0.888114 0.304863
O O8 0.373722 0.960853 0.249053
O O9 0.184411 0.867918 0.031647
O O10 0.341641 0.837818 0.991436
O O11 0.288458 0.920318 0.950266
O O12 0.000000 0.631210 0.046943
O O13 0.500000 0.985708 0.706215
O O14 0.354781 0.970816 0.826354
O O15 0.321115 0.976476 0.638799
O O16 0.708305 0.500000 0.000000
O O17 0.138053 0.250000 0.514093
O O18 0.000000 0.200927 0.494188
#
# Coordination Sequence:
#
# PCOD9534035 Si02
#       7
#    16  16  16  16  16  16  16
#     4  10  17  28  45  65  98 142 183 222 268 322
#     4  10  19  32  52  74 101 138 180 225 271 321
#     4  12  21  33  53  78 108 143 187 233 275 330
#     4  11  21  30  44  70 102 143 189 226 264 315
#     4  10  23  41  59  82 112 147 188 236 286 342
#     4  11  23  38  59  84 116 150 190 235 287 340
#     4  10  20  33  49  73 107 145 185 232 285 336
#
# _framework density 17.418589999999998
#
# number of rings (size 3 to 8) (size 9 to 14) (size 15 to 20)
#    0.000    1.429    4.286    2.143    2.000    3.143 
#    0.000    0.000    0.000    0.000    0.000    2.000 
#    0.000    1.143    0.000    0.000    0.000    0.000 
#
# Total GULP energy -312014.598575 kJ/mol
# GULP energy per Si atom -5571.689260 kJ/mol
# Density = 1.737894 g / cm^3
# Si number density = 17.418590 Si / 1000 Ang^3
#
#
#
# Elastic Constant Matrix: (Units=GPa)
#
#
# Indices 1 2 3 4 5 6 
#
# 1 86.7663 31.0617 4.0099 0.0000 0.0006 0.0000
# 2 31.0617 108.2261 29.9196 -0.0001 0.0000 -0.0001
# 3 4.0099 29.9196 29.1114 -0.0001 0.0014 0.0000
# 4 0.0000 -0.0001 -0.0001 11.4472 0.0001 0.0000
# 5 0.0006 0.0000 0.0014 0.0001 96.2979 -0.0002
# 6 0.0000 -0.0001 0.0000 0.0000 -0.0002 18.7153
#
#
#
# Elastic Compliance Matrix: (Units=1/GPa)
#
#
# Indices 1 2 3 4 5 6 
#
# 1 0.013013 -0.004525 0.002858 0.000000 0.000000 0.000000
# 2 -0.004525 0.014481 -0.014259 0.000000 0.000000 0.000000
# 3 0.002858 -0.014259 0.048612 0.000000 -0.000001 0.000000
# 4 0.000000 0.000000 0.000000 0.087358 0.000000 0.000000
# 5 0.000000 0.000000 -0.000001 0.000000 0.010384 0.000000
# 6 0.000000 0.000000 0.000000 0.000000 0.000000 0.053432
#
#
# Mechanical properties :
#
#
# Convention : Reuss Voigt Hill
#
# Bulk Modulus (GPa) = 22.59704 39.34292 30.96998
# Shear Modulus (GPa) = 18.25589 35.89960 27.07774
#
# Velocity S-wave (km/s) = 3.24090 4.54474 3.94703
# Velocity P-wave (km/s) = 5.19670 7.08346 6.21213
#
# Compressibility (1/GPa) = 0.04425358
#
# Stress axis : x y z
#
# Youngs Moduli (GPa) = 76.84606 69.05746 20.57090
#
# Poissons Ratio (x) = 0.31248 -0.05879
# Poissons Ratio (y) = 0.34773 0.29333
# Poissons Ratio (z) = -0.21964 0.98472
#
# Static dielectric constant tensor:
#      x y z
#    x 1.627040 0.000000 0.000000 
#    y 0.000000 1.678760 0.000000 
#    z 0.000000 0.000000 1.560680 
# 
# From -- ./inp_files/33175.got.cif
#   From: 2010.05.17/outbox.cif.g08.bks.cpg/sg74_17_cif.got.tgz:33175.got - 2010.06.03 17:57:02.
