data_PCOD9534969
_publ_section_title
;
Structure prediction by ZEFSAII (Michael W. Deem and Ramdas Pophale) SiO2 
 PCOD9534969
Probable space group: I M M A
;
_chemical_formula_sum "Si O2"
_cell_formula_units_Z 112
_cell_length_a 30.228274
_cell_length_b 14.198385
_cell_length_c 12.448886
_cell_angle_alpha 90.000000
_cell_angle_beta 90.000000
_cell_angle_gamma 90.000000
_cell_volume 5342.970647
_symmetry_space_group_name_H-M "I M M A"
_symmetry_group_IT_number 74
_symmetry_cell_setting 'orthorhombic'
loop_
_space_group_symop_operation_xyz
x,y,z
-x,1/2-y,z
x,-y,-z
-x,1/2+y,-z
-x,-y,-z
x,1/2+y,-z
-x,y,z
x,1/2-y,z
1/2+x,1/2+y,1/2+z
1/2-x,-y,1/2+z
1/2+x,1/2-y,1/2-z
1/2-x,y,1/2-z
1/2-x,1/2-y,1/2-z
1/2+x,y,1/2-z
1/2-x,1/2+y,1/2+z
1/2+x,-y,1/2+z
loop_
_atom_site_type_symbol
_atom_site_label
_atom_site_fract_x
_atom_site_fract_y
_atom_site_fract_z
Si Si1 0.710016 0.949216 0.327156
Si Si2 0.906054 0.637892 0.861449
Si Si3 0.549960 0.376536 0.906680
Si Si4 0.451969 0.365515 0.567637
Si Si5 0.950735 0.596177 0.646944
Si Si6 0.377523 0.643203 0.268696
Si Si7 0.305956 0.861816 0.561743
O O1 0.750000 0.920495 0.250000
O O2 0.664420 0.924672 0.265354
O O3 0.705830 0.891829 0.439742
O O4 0.715666 0.058961 0.361233
O O5 0.910953 0.750000 0.857022
O O6 0.915509 0.606145 0.741087
O O7 0.858048 0.621444 0.913261
O O8 0.942393 0.603178 0.946511
O O9 0.500000 0.344178 0.877753
O O10 0.547796 0.487518 0.885121
O O11 0.591396 0.347553 0.835050
O O12 0.557761 0.355671 0.032090
O O13 0.500000 0.396230 0.606712
O O14 0.451611 0.250000 0.571139
O O15 0.411329 0.394730 0.641361
O O16 0.000000 0.625589 0.684952
O O17 0.362819 0.750000 0.298417
O O18 0.296744 0.750000 0.579086
#
# Coordination Sequence:
#
# PCOD9534969 Si02
#       7
#    16  16  16  16  16  16  16
#     4  11  24  43  69  97 126 167 213 265 332 397
#     4  10  18  32  56  86 120 160 203 252 310 373
#     4   9  19  35  53  77 117 169 218 266 318 371
#     4   9  17  29  49  84 128 167 202 247 307 370
#     4   9  18  33  51  75 116 169 220 265 309 368
#     4  11  21  36  59  88 125 168 213 265 320 378
#     4  10  22  43  69  97 130 164 205 264 331 395
#
# _framework density 20.962121
#
# number of rings (size 3 to 8) (size 9 to 14) (size 15 to 20)
#    0.000    2.143    1.429    3.000    0.000    3.714 
#    0.000    7.143    0.000    3.429    0.000    0.000 
#    0.000    0.000    0.000    0.000    0.000    0.000 
#
# Total GULP energy -312489.693718 kJ/mol
# GULP energy per Si atom -5580.173102 kJ/mol
# Density = 2.091441 g / cm^3
# Si number density = 20.962121 Si / 1000 Ang^3
#
#
#
# Elastic Constant Matrix: (Units=GPa)
#
#
# Indices 1 2 3 4 5 6 
#
# 1 122.1497 29.8442 76.2516 0.0000 0.0000 0.0000
# 2 29.8442 89.8410 25.8665 0.0000 0.0000 0.0000
# 3 76.2516 25.8665 132.7066 0.0000 0.0000 0.0000
# 4 0.0000 0.0000 0.0000 -270.6336 0.0000 0.0000
# 5 0.0000 0.0000 0.0000 0.0000 38.1326 0.0000
# 6 0.0000 0.0000 0.0000 0.0000 0.0000 28.5302
#
#
#
# Elastic Compliance Matrix: (Units=1/GPa)
#
#
# Indices 1 2 3 4 5 6 
#
# 1 0.013212 -0.002334 -0.007136 0.000000 0.000000 0.000000
# 2 -0.002334 0.012205 -0.001038 0.000000 0.000000 0.000000
# 3 -0.007136 -0.001038 0.011838 0.000000 0.000000 0.000000
# 4 0.000000 0.000000 0.000000 -0.003695 0.000000 0.000000
# 5 0.000000 0.000000 0.000000 0.000000 0.026224 0.000000
# 6 0.000000 0.000000 0.000000 0.000000 0.000000 0.035051
#
#
# Mechanical properties :
#
#
# Convention : Reuss Voigt Hill
#
# Bulk Modulus (GPa) = 61.58261 67.62466 64.60364
# Shear Modulus (GPa) = 41.23229 -26.61183 7.31023
#
# Velocity S-wave (km/s) = 4.43989 -3.56690 1.86947
# Velocity P-wave (km/s) = 7.46494 3.92005 5.96205
#
# Compressibility (1/GPa) = 0.01623835
#
# Stress axis : x y z
#
# Youngs Moduli (GPa) = 75.68969 81.93409 84.47248
#
# Poissons Ratio (x) = 0.19125 0.60283
# Poissons Ratio (y) = 0.17667 0.08766
# Poissons Ratio (z) = 0.54015 0.08503
#
# Static dielectric constant tensor:
#      x y z
#    x 1.715730 0.000000 0.000000 
#    y 0.000000 1.853740 0.000000 
#    z 0.000000 0.000000 1.768040 
# 
# From -- ./inp_files/27205.got.cif
#   From: 2010.05.17/outbox.cif.g08.bks.cpg/sg74_14_cif.got.tgz:27205.got - 2010.06.03 17:57:02.
