data_PCOD9534989
_publ_section_title
;
Structure prediction by ZEFSAII (Michael W. Deem and Ramdas Pophale) SiO2 
 PCOD9534989
Probable space group: I M M A
;
_chemical_formula_sum "Si O2"
_cell_formula_units_Z 96
_cell_length_a 15.226239
_cell_length_b 24.830982
_cell_length_c 12.288135
_cell_angle_alpha 90.000000
_cell_angle_beta 90.000000
_cell_angle_gamma 90.000000
_cell_volume 4645.928390
_symmetry_space_group_name_H-M "I M M A"
_symmetry_group_IT_number 74
_symmetry_cell_setting 'orthorhombic'
loop_
_space_group_symop_operation_xyz
x,y,z
-x,1/2-y,z
x,-y,-z
-x,1/2+y,-z
-x,-y,-z
x,1/2+y,-z
-x,y,z
x,1/2-y,z
1/2+x,1/2+y,1/2+z
1/2-x,-y,1/2+z
1/2+x,1/2-y,1/2-z
1/2-x,y,1/2-z
1/2-x,1/2-y,1/2-z
1/2+x,y,1/2-z
1/2-x,1/2+y,1/2+z
1/2+x,-y,1/2+z
loop_
_atom_site_type_symbol
_atom_site_label
_atom_site_fract_x
_atom_site_fract_y
_atom_site_fract_z
Si Si1 0.892292 0.250000 0.944060
Si Si2 0.137914 0.951060 0.817346
Si Si3 0.667404 0.448357 0.077756
Si Si4 0.603163 0.862250 0.515778
Si Si5 0.892457 0.868224 0.400715
Si Si6 0.102047 0.427032 0.815360
Si Si7 0.393286 0.750000 0.189096
O O1 0.860455 0.197453 0.007939
O O2 0.865088 0.250000 0.816608
O O3 0.000000 0.250000 0.942286
O O4 0.237078 0.952951 0.865917
O O5 0.113720 0.947468 0.689992
O O6 0.104901 0.010553 0.845310
O O7 0.106175 0.897766 0.877165
O O8 0.651035 0.500000 0.000000
O O9 0.649587 0.394987 0.007587
O O10 0.500000 0.856757 0.492771
O O11 0.643829 0.895246 0.415335
O O12 0.862498 0.907224 0.300491
O O13 0.868430 0.806530 0.369059
O O14 0.000000 0.870548 0.412009
O O15 0.000000 0.412010 0.807115
O O16 0.500000 0.750000 0.191284
#
# Coordination Sequence:
#
# PCOD9534989 Si02
#       7
#     8  16  16  16  16  16   8
#     4   9  16  30  56  85 114 148 185 235 293 338
#     4  11  23  37  55  80 115 156 189 230 290 355
#     4  11  23  40  56  78 113 156 193 233 288 348
#     4  10  19  33  55  85 115 144 187 236 285 341
#     4  10  20  35  61  91 116 148 193 244 295 346
#     4  10  18  32  58  88 115 144 183 238 294 345
#     4   9  16  34  60  87 118 148 187 244 300 338
#
# _framework density 20.663254999999999
#
# number of rings (size 3 to 8) (size 9 to 14) (size 15 to 20)
#    0.000    1.833    3.333    2.000    0.000    3.000 
#    0.000    1.667    0.000    6.000    0.000    0.000 
#    0.000    0.000    0.000    0.000    0.000    0.000 
#
# Total GULP energy -267354.855423 kJ/mol
# GULP energy per Si atom -5569.892821 kJ/mol
# Density = 2.061622 g / cm^3
# Si number density = 20.663255 Si / 1000 Ang^3
#
#
#
# Elastic Constant Matrix: (Units=GPa)
#
#
# Indices 1 2 3 4 5 6 
#
# 1 19.1712 -0.2179 10.2612 0.0000 0.0000 0.0000
# 2 -0.2179 177.4411 94.6061 0.0000 0.0000 0.0000
# 3 10.2612 94.6061 138.4537 0.0000 0.0000 0.0000
# 4 0.0000 0.0000 0.0000 35.0735 0.0000 0.0000
# 5 0.0000 0.0000 0.0000 0.0000 21.2737 0.0000
# 6 0.0000 0.0000 0.0000 0.0000 0.0000 36.6004
#
#
#
# Elastic Compliance Matrix: (Units=1/GPa)
#
#
# Indices 1 2 3 4 5 6 
#
# 1 0.055718 0.003571 -0.006570 0.000000 0.000000 0.000000
# 2 0.003571 0.009094 -0.006479 0.000000 0.000000 0.000000
# 3 -0.006570 -0.006479 0.012137 0.000000 0.000000 0.000000
# 4 0.000000 0.000000 0.000000 0.028512 0.000000 0.000000
# 5 0.000000 0.000000 0.000000 0.000000 0.047006 0.000000
# 6 0.000000 0.000000 0.000000 0.000000 0.000000 0.027322
#
#
# Mechanical properties :
#
#
# Convention : Reuss Voigt Hill
#
# Bulk Modulus (GPa) = 17.24298 60.48498 38.86398
# Shear Modulus (GPa) = 22.92780 33.95062 28.43921
#
# Velocity S-wave (km/s) = 3.33467 4.05784 3.71390
# Velocity P-wave (km/s) = 4.81555 7.16171 6.10244
#
# Compressibility (1/GPa) = 0.05799461
#
# Stress axis : x y z
#
# Youngs Moduli (GPa) = 17.94739 109.95757 82.39541
#
# Poissons Ratio (x) = -0.39267 0.54131
# Poissons Ratio (y) = -0.06409 0.53383
# Poissons Ratio (z) = 0.11791 0.71241
#
# Static dielectric constant tensor:
#      x y z
#    x 1.834380 0.000000 0.000000 
#    y 0.000000 1.771000 0.000000 
#    z 0.000000 0.000000 1.756890 
# 
# From -- ./inp_files/22527.got.cif
#   From: 2010.05.17/outbox.cif.g08.bks.cpg/sg74_12_cif.got.tgz:22527.got - 2010.06.03 17:57:02.
