data_PCOD9534831
_publ_section_title
;
Structure prediction by ZEFSAII (Michael W. Deem and Ramdas Pophale) SiO2 
 PCOD9534831
Probable space group: I M M A
;
_chemical_formula_sum "Si O2"
_cell_formula_units_Z 116
_cell_length_a 8.068999
_cell_length_b 30.772031
_cell_length_c 29.001253
_cell_angle_alpha 90.000000
_cell_angle_beta 90.000000
_cell_angle_gamma 90.000000
_cell_volume 7200.996253
_symmetry_space_group_name_H-M "I M M A"
_symmetry_group_IT_number 74
_symmetry_cell_setting 'orthorhombic'
loop_
_space_group_symop_operation_xyz
x,y,z
-x,1/2-y,z
x,-y,-z
-x,1/2+y,-z
-x,-y,-z
x,1/2+y,-z
-x,y,z
x,1/2-y,z
1/2+x,1/2+y,1/2+z
1/2-x,-y,1/2+z
1/2+x,1/2-y,1/2-z
1/2-x,y,1/2-z
1/2-x,1/2-y,1/2-z
1/2+x,y,1/2-z
1/2-x,1/2+y,1/2+z
1/2+x,-y,1/2+z
loop_
_atom_site_type_symbol
_atom_site_label
_atom_site_fract_x
_atom_site_fract_y
_atom_site_fract_z
Si Si1 0.193231 0.681697 0.516173
Si Si2 0.190249 0.462537 0.613585
Si Si3 0.697929 0.587992 0.030183
Si Si4 0.306286 0.135768 0.397295
Si Si5 0.306452 0.543288 0.559337
Si Si6 0.500000 0.250000 0.495750
Si Si7 0.308308 0.987998 0.700187
Si Si8 0.691720 0.609569 0.801985
O O1 0.222244 0.636842 0.487733
O O2 0.207719 0.668932 0.570471
O O3 0.348405 0.712793 0.505432
O O4 0.000000 0.695568 0.507268
O O5 0.254032 0.422902 0.582097
O O6 0.203020 0.503627 0.579009
O O7 0.281687 0.477729 0.659582
O O8 0.000000 0.454480 0.626279
O O9 0.500000 0.579775 0.028513
O O10 0.782184 0.555403 0.993892
O O11 0.500000 0.141372 0.408223
O O12 0.257626 0.087341 0.413939
O O13 0.282033 0.135593 0.342599
O O14 0.500000 0.534330 0.568834
O O15 0.500000 0.975972 0.703173
O O16 0.250000 0.004426 0.750000
O O17 0.216539 0.942375 0.690677
O O18 0.500000 0.619650 0.805998
O O19 0.750000 0.618653 0.750000
#
# Coordination Sequence:
#
# PCOD9534831 Si02
#       8
#    16  16  16  16  16   4  16  16
#     4  10  21  38  58  81 106 132 164 204 255 316
#     4  11  20  31  46  66  94 136 178 210 248 289
#     4   9  20  34  48  69  99 132 167 205 249 293
#     4  10  18  32  49  72 103 129 165 216 258 297
#     4  10  19  28  43  66  95 133 172 211 245 286
#     4  12  22  40  60  86 100 132 158 204 264 322
#     4  11  21  33  45  64  91 132 181 224 256 289
#     4  11  20  30  46  67  94 131 169 218 265 300
#
# _framework density 16.108882999999999
#
# number of rings (size 3 to 8) (size 9 to 14) (size 15 to 20)
#    0.000    1.655    2.069    5.172    0.966    3.862 
#    0.000    0.000    0.000    0.000    0.000    0.483 
#    0.000    0.000    0.000    0.621    4.966    2.069 
#
# Total GULP energy -322929.984530 kJ/mol
# GULP energy per Si atom -5567.758354 kJ/mol
# Density = 1.607222 g / cm^3
# Si number density = 16.108883 Si / 1000 Ang^3
#
#
#
# Elastic Constant Matrix: (Units=GPa)
#
#
# Indices 1 2 3 4 5 6 
#
# 1 57.8101 25.6369 8.6745 0.0000 0.0000 0.0000
# 2 25.6369 45.4032 18.4989 0.0000 0.0000 0.0000
# 3 8.6745 18.4989 59.0983 0.0000 0.0000 0.0000
# 4 0.0000 0.0000 0.0000 -4.7457 0.0000 0.0000
# 5 0.0000 0.0000 0.0000 0.0000 21.0627 0.0000
# 6 0.0000 0.0000 0.0000 0.0000 0.0000 22.8586
#
#
#
# Elastic Compliance Matrix: (Units=1/GPa)
#
#
# Indices 1 2 3 4 5 6 
#
# 1 0.023109 -0.013372 0.000794 0.000000 0.000000 0.000000
# 2 -0.013372 0.032982 -0.008361 0.000000 0.000000 0.000000
# 3 0.000794 -0.008361 0.019422 0.000000 0.000000 0.000000
# 4 0.000000 0.000000 0.000000 -0.210718 0.000000 0.000000
# 5 0.000000 0.000000 0.000000 0.000000 0.047477 0.000000
# 6 0.000000 0.000000 0.000000 0.000000 0.000000 0.043747
#
#
# Mechanical properties :
#
#
# Convention : Reuss Voigt Hill
#
# Bulk Modulus (GPa) = 29.73199 29.77023 29.75111
# Shear Modulus (GPa) = 548.94274 15.13522 282.03898
#
# Velocity S-wave (km/s) = 18.47999 3.06855 13.24624
# Velocity P-wave (km/s) = 21.76795 5.57453 15.88897
#
# Compressibility (1/GPa) = 0.03363380
#
# Stress axis : x y z
#
# Youngs Moduli (GPa) = 43.27341 30.31964 51.48880
#
# Poissons Ratio (x) = 0.40543 -0.04087
# Poissons Ratio (y) = 0.57864 0.43051
# Poissons Ratio (z) = -0.03435 0.25351
#
# Static dielectric constant tensor:
#      x y z
#    x 1.555290 0.000000 0.000000 
#    y 0.000000 1.529750 0.000000 
#    z 0.000000 0.000000 1.584280 
# 
# From -- ./inp_files/65313.got.cif
#   From: 2010.05.17/outbox.cif.g08.bks.cpg/sg74_33_cif.got.tgz:65313.got - 2010.06.03 17:57:02.
