data_PCOD9534319
_publ_section_title
;
Structure prediction by ZEFSAII (Michael W. Deem and Ramdas Pophale) SiO2 
 PCOD9534319
Probable space group: I M M A
;
_chemical_formula_sum "Si O2"
_cell_formula_units_Z 96
_cell_length_a 7.892646
_cell_length_b 26.596383
_cell_length_c 24.213579
_cell_angle_alpha 90.000000
_cell_angle_beta 90.000000
_cell_angle_gamma 90.000000
_cell_volume 5082.813676
_symmetry_space_group_name_H-M "I M M A"
_symmetry_group_IT_number 74
_symmetry_cell_setting 'orthorhombic'
loop_
_space_group_symop_operation_xyz
x,y,z
-x,1/2-y,z
x,-y,-z
-x,1/2+y,-z
-x,-y,-z
x,1/2+y,-z
-x,y,z
x,1/2-y,z
1/2+x,1/2+y,1/2+z
1/2-x,-y,1/2+z
1/2+x,1/2-y,1/2-z
1/2-x,y,1/2-z
1/2-x,1/2-y,1/2-z
1/2+x,y,1/2-z
1/2-x,1/2+y,1/2+z
1/2+x,-y,1/2+z
loop_
_atom_site_type_symbol
_atom_site_label
_atom_site_fract_x
_atom_site_fract_y
_atom_site_fract_z
Si Si1 0.806716 0.097765 0.885502
Si Si2 0.794761 0.692703 0.054974
Si Si3 0.704174 0.907288 0.881332
Si Si4 0.204257 0.806592 0.572522
Si Si5 0.201015 0.994758 0.186264
Si Si6 0.693808 0.940542 0.001190
O O1 0.730809 0.152850 0.899275
O O2 0.727255 0.053801 0.847467
O O3 0.000000 0.105750 0.866187
O O4 0.804052 0.075265 0.947156
O O5 0.737576 0.750000 0.064522
O O6 0.000000 0.691672 0.057033
O O7 0.746753 0.679713 0.991401
O O8 0.500000 0.906837 0.880689
O O9 0.761620 0.848947 0.883492
O O10 0.761155 0.925405 0.941722
O O11 0.752791 0.950505 0.838362
O O12 0.269819 0.750000 0.582141
O O13 0.000000 0.804965 0.575387
O O14 0.250000 0.991692 0.250000
O O15 0.000000 0.991342 0.180723
O O16 0.500000 0.920816 0.008253
O O17 0.682392 0.000000 0.000000
#
# Coordination Sequence:
#
# PCOD9534319 Si02
#       6
#    16  16  16  16  16  16
#     4  10  20  32  49  73 101 131 165 204 247 295
#     4   9  17  29  46  71 104 137 165 196 238 290
#     4  10  19  32  51  75 105 136 165 200 244 295
#     4   9  17  29  47  74 107 139 167 195 233 286
#     4  11  24  39  54  72  95 128 170 215 259 300
#     4  10  18  28  45  73 105 135 162 191 240 298
#
# _framework density 18.887176
#
# number of rings (size 3 to 8) (size 9 to 14) (size 15 to 20)
#    0.000    2.167    3.333    0.500    0.000    2.333 
#    0.000    0.000    0.000    1.000    0.000    0.000 
#    0.000    0.000    0.000    0.000    0.000    0.167 
#
# Total GULP energy -267214.594073 kJ/mol
# GULP energy per Si atom -5566.970710 kJ/mol
# Density = 1.884419 g / cm^3
# Si number density = 18.887176 Si / 1000 Ang^3
#
#
#
# Elastic Constant Matrix: (Units=GPa)
#
#
# Indices 1 2 3 4 5 6 
#
# 1 21.5009 10.5089 1.7060 0.0000 0.0000 0.0000
# 2 10.5089 163.5169 57.1651 0.0000 0.0000 0.0000
# 3 1.7060 57.1651 81.0488 0.0000 0.0000 0.0000
# 4 0.0000 0.0000 0.0000 20.2736 0.0000 0.0000
# 5 0.0000 0.0000 0.0000 0.0000 1.5169 0.0000
# 6 0.0000 0.0000 0.0000 0.0000 0.0000 14.7470
#
#
#
# Elastic Compliance Matrix: (Units=1/GPa)
#
#
# Indices 1 2 3 4 5 6 
#
# 1 0.048165 -0.003638 0.001552 0.000000 0.000000 0.000000
# 2 -0.003638 0.008392 -0.005842 0.000000 0.000000 0.000000
# 3 0.001552 -0.005842 0.016426 0.000000 0.000000 0.000000
# 4 0.000000 0.000000 0.000000 0.049325 0.000000 0.000000
# 5 0.000000 0.000000 0.000000 0.000000 0.659251 0.000000
# 6 0.000000 0.000000 0.000000 0.000000 0.000000 0.067810
#
#
# Mechanical properties :
#
#
# Convention : Reuss Voigt Hill
#
# Bulk Modulus (GPa) = 17.50508 44.98074 31.24291
# Shear Modulus (GPa) = 5.65439 20.41994 13.03717
#
# Velocity S-wave (km/s) = 1.73213 3.29166 2.63014
# Velocity P-wave (km/s) = 3.64537 6.18982 5.07950
#
# Compressibility (1/GPa) = 0.05712627
#
# Stress axis : x y z
#
# Youngs Moduli (GPa) = 20.76212 119.16320 60.87808
#
# Poissons Ratio (x) = 0.43353 -0.09449
# Poissons Ratio (y) = 0.07553 0.35567
# Poissons Ratio (z) = -0.03223 0.69619
#
# Static dielectric constant tensor:
#      x y z
#    x 1.722930 0.000000 0.000000 
#    y 0.000000 1.764860 0.000000 
#    z 0.000000 0.000000 1.532020 
# 
# From -- ./inp_files/55040.got.cif
#   From: 2010.05.17/outbox.cif.g08.bks.cpg/sg74_28_cif.got.tgz:55040.got - 2010.06.03 17:57:02.
