data_PCOD9534198
_publ_section_title
;
Structure prediction by ZEFSAII (Michael W. Deem and Ramdas Pophale) SiO2 
 PCOD9534198
Probable space group: I M M A
;
_chemical_formula_sum "Si O2"
_cell_formula_units_Z 80
_cell_length_a 14.656278
_cell_length_b 23.913391
_cell_length_c 11.854697
_cell_angle_alpha 90.000000
_cell_angle_beta 90.000000
_cell_angle_gamma 90.000000
_cell_volume 4154.849692
_symmetry_space_group_name_H-M "I M M A"
_symmetry_group_IT_number 74
_symmetry_cell_setting 'orthorhombic'
loop_
_space_group_symop_operation_xyz
x,y,z
-x,1/2-y,z
x,-y,-z
-x,1/2+y,-z
-x,-y,-z
x,1/2+y,-z
-x,y,z
x,1/2-y,z
1/2+x,1/2+y,1/2+z
1/2-x,-y,1/2+z
1/2+x,1/2-y,1/2-z
1/2-x,y,1/2-z
1/2-x,1/2-y,1/2-z
1/2+x,y,1/2-z
1/2-x,1/2+y,1/2+z
1/2+x,-y,1/2+z
loop_
_atom_site_type_symbol
_atom_site_label
_atom_site_fract_x
_atom_site_fract_y
_atom_site_fract_z
Si Si1 0.281647 0.555352 0.421558
Si Si2 0.107914 0.584343 0.532809
Si Si3 0.896892 0.507735 0.747196
Si Si4 0.895188 0.881043 0.904381
Si Si5 0.611343 0.313036 0.195132
O O1 0.289242 0.500000 0.500000
O O2 0.176916 0.575367 0.430344
O O3 0.330763 0.535936 0.307542
O O4 0.338451 0.603489 0.485789
O O5 0.124245 0.535296 0.625808
O O6 0.132135 0.641379 0.599316
O O7 0.000000 0.583807 0.505953
O O8 0.896866 0.562706 0.827750
O O9 0.000000 0.485795 0.744093
O O10 0.856697 0.834864 0.817798
O O11 0.000000 0.867659 0.933503
O O12 0.500000 0.313838 0.202036
O O13 0.640715 0.250000 0.171451
#
# Coordination Sequence:
#
# PCOD9534198 Si02
#       5
#    16  16  16  16  16
#     4  10  18  26  42  61  82 113 152 185 220 261
#     4   9  18  31  44  62  90 121 154 185 214 258
#     4   8  15  28  44  60  81 113 149 184 221 261
#     4   8  14  24  38  58  81 104 139 181 212 245
#     4   8  14  26  43  60  83 118 151 177 210 256
#
# _framework density 19.254608000000001
#
# number of rings (size 3 to 8) (size 9 to 14) (size 15 to 20)
#    0.000    3.400    0.000    3.000    0.000   10.000 
#    0.000    2.000    0.000    2.400    0.000    0.000 
#    0.000    0.000    0.000   64.800    0.000  478.800 
#
# Total GULP energy -223068.036722 kJ/mol
# GULP energy per Si atom -5576.700918 kJ/mol
# Density = 1.921078 g / cm^3
# Si number density = 19.254608 Si / 1000 Ang^3
#
#
#
# Elastic Constant Matrix: (Units=GPa)
#
#
# Indices 1 2 3 4 5 6 
#
# 1 100.7112 45.0122 65.6473 0.0000 0.0000 0.0000
# 2 45.0122 106.8313 40.2438 0.0000 0.0000 0.0000
# 3 65.6473 40.2438 82.6550 -0.0001 0.0001 0.0000
# 4 0.0000 0.0000 -0.0001 22.6881 0.0000 0.0000
# 5 0.0000 0.0000 0.0001 0.0000 31.8325 0.0000
# 6 0.0000 0.0000 0.0000 0.0000 0.0000 10.2955
#
#
#
# Elastic Compliance Matrix: (Units=1/GPa)
#
#
# Indices 1 2 3 4 5 6 
#
# 1 0.021450 -0.003209 -0.015474 0.000000 0.000000 0.000000
# 2 -0.003209 0.011943 -0.003267 0.000000 0.000000 0.000000
# 3 -0.015474 -0.003267 0.025979 0.000000 0.000000 0.000000
# 4 0.000000 0.000000 0.000000 0.044076 0.000000 0.000000
# 5 0.000000 0.000000 0.000000 0.000000 0.031414 0.000000
# 6 0.000000 0.000000 0.000000 0.000000 0.000000 0.097130
#
#
# Mechanical properties :
#
#
# Convention : Reuss Voigt Hill
#
# Bulk Modulus (GPa) = 64.62651 65.77823 65.20237
# Shear Modulus (GPa) = 17.79052 22.24950 20.02001
#
# Velocity S-wave (km/s) = 3.04297 3.40301 3.22802
# Velocity P-wave (km/s) = 6.78110 7.04820 6.91594
#
# Compressibility (1/GPa) = 0.01547353
#
# Stress axis : x y z
#
# Youngs Moduli (GPa) = 46.62005 83.73123 38.49274
#
# Poissons Ratio (x) = 0.26866 0.59564
# Poissons Ratio (y) = 0.14958 0.12574
# Poissons Ratio (z) = 0.72140 0.27351
#
# Static dielectric constant tensor:
#      x y z
#    x 1.750670 0.000000 0.000000 
#    y 0.000000 1.663720 0.000000 
#    z 0.000000 0.000000 1.717440 
# 
# From -- ./inp_files/20518.got.cif
#   From: 2010.05.17/outbox.cif.g08.bks.cpg/sg74_11_cif.got.tgz:20518.got - 2010.06.03 17:57:02.
