data_PCOD9534242
_publ_section_title
;
Structure prediction by ZEFSAII (Michael W. Deem and Ramdas Pophale) SiO2 
 PCOD9534242
Probable space group: I M M A
;
_chemical_formula_sum "Si O2"
_cell_formula_units_Z 80
_cell_length_a 14.247165
_cell_length_b 17.839291
_cell_length_c 14.528320
_cell_angle_alpha 90.000000
_cell_angle_beta 90.000000
_cell_angle_gamma 90.000000
_cell_volume 3692.507966
_symmetry_space_group_name_H-M "I M M A"
_symmetry_group_IT_number 74
_symmetry_cell_setting 'orthorhombic'
loop_
_space_group_symop_operation_xyz
x,y,z
-x,1/2-y,z
x,-y,-z
-x,1/2+y,-z
-x,-y,-z
x,1/2+y,-z
-x,y,z
x,1/2-y,z
1/2+x,1/2+y,1/2+z
1/2-x,-y,1/2+z
1/2+x,1/2-y,1/2-z
1/2-x,y,1/2-z
1/2-x,1/2-y,1/2-z
1/2+x,y,1/2-z
1/2-x,1/2+y,1/2+z
1/2+x,-y,1/2+z
loop_
_atom_site_type_symbol
_atom_site_label
_atom_site_fract_x
_atom_site_fract_y
_atom_site_fract_z
Si Si1 0.893943 0.455949 0.337277
Si Si2 0.885623 0.877939 0.315180
Si Si3 0.147751 0.669055 0.794850
Si Si4 0.885581 0.167449 0.478061
Si Si5 0.614783 0.250000 0.676158
Si Si6 0.613383 0.250000 0.466864
O O1 0.850518 0.536368 0.315675
O O2 0.898236 0.404090 0.246947
O O3 0.851783 0.401858 0.415787
O O4 0.000000 0.472313 0.369713
O O5 0.863157 0.844197 0.415142
O O6 0.855461 0.823508 0.233013
O O7 0.000000 0.879265 0.308585
O O8 0.104861 0.750000 0.764879
O O9 0.250000 0.667784 0.750000
O O10 0.145419 0.679172 0.904658
O O11 0.852216 0.250000 0.447848
O O12 0.000000 0.167988 0.470180
O O13 0.500000 0.250000 0.674424
O O14 0.647107 0.250000 0.570916
O O15 0.500000 0.250000 0.467146
#
# Coordination Sequence:
#
# PCOD9534242 Si02
#       6
#    16  16  16  16   8   8
#     4  10  18  27  47  78 102 124 160 212 256 292
#     4   9  16  27  43  69 105 135 165 203 252 306
#     4   9  19  34  51  73  97 130 159 200 256 310
#     4   9  15  24  41  69 103 132 157 196 254 309
#     4   9  16  29  48  69  99 143 173 202 254 300
#     4   9  17  31  54  77  97 127 173 214 242 286
#
# _framework density 21.665492
#
# number of rings (size 3 to 8) (size 9 to 14) (size 15 to 20)
#    0.600    2.200    1.000    1.800    0.000    3.200 
#    0.000    1.000    0.000    9.600    0.000    2.100 
#    0.000    0.000    0.000    0.000    0.000    0.000 
#
# Total GULP energy -223014.010183 kJ/mol
# GULP energy per Si atom -5575.350255 kJ/mol
# Density = 2.161618 g / cm^3
# Si number density = 21.665492 Si / 1000 Ang^3
#
#
#
# Elastic Constant Matrix: (Units=GPa)
#
#
# Indices 1 2 3 4 5 6 
#
# 1 66.2618 11.5080 12.1567 0.0000 0.0000 0.0000
# 2 11.5080 165.6543 83.8273 0.0000 0.0000 0.0000
# 3 12.1567 83.8273 198.0690 0.0000 0.0000 0.0000
# 4 0.0000 0.0000 0.0000 -9.7211 0.0000 0.0000
# 5 0.0000 0.0000 0.0000 0.0000 8.9959 0.0000
# 6 0.0000 0.0000 0.0000 0.0000 0.0000 3.5128
#
#
#
# Elastic Compliance Matrix: (Units=1/GPa)
#
#
# Indices 1 2 3 4 5 6 
#
# 1 0.015336 -0.000750 -0.000624 0.000000 0.000000 0.000000
# 2 -0.000750 0.007719 -0.003221 0.000000 0.000000 0.000000
# 3 -0.000624 -0.003221 0.006450 0.000000 0.000000 0.000000
# 4 0.000000 0.000000 0.000000 -0.102869 0.000000 0.000000
# 5 0.000000 0.000000 0.000000 0.000000 0.111162 0.000000
# 6 0.000000 0.000000 0.000000 0.000000 0.000000 0.284670
#
#
# Mechanical properties :
#
#
# Convention : Reuss Voigt Hill
#
# Bulk Modulus (GPa) = 49.22146 71.66322 60.44234
# Shear Modulus (GPa) = 14.77418 22.05708 18.41563
#
# Velocity S-wave (km/s) = 2.61420 3.19419 2.91864
# Velocity P-wave (km/s) = 5.64625 6.83760 6.27028
#
# Compressibility (1/GPa) = 0.02031634
#
# Stress axis : x y z
#
# Youngs Moduli (GPa) = 65.20467 129.55869 155.03648
#
# Poissons Ratio (x) = 0.09712 0.09675
# Poissons Ratio (y) = 0.04888 0.49932
# Poissons Ratio (z) = 0.04069 0.41726
#
# Static dielectric constant tensor:
#      x y z
#    x 1.864870 0.000000 0.000000 
#    y 0.000000 1.800030 0.000000 
#    z 0.000000 0.000000 1.787940 
# 
# From -- ./inp_files/35389.got.cif
#   From: 2010.05.17/outbox.cif.g08.bks.cpg/sg74_18_cif.got.tgz:35389.got - 2010.06.03 17:57:02.
