data_PCOD9534348
_publ_section_title
;
Structure prediction by ZEFSAII (Michael W. Deem and Ramdas Pophale) SiO2 
 PCOD9534348
Probable space group: I M M A
;
_chemical_formula_sum "Si O2"
_cell_formula_units_Z 80
_cell_length_a 18.851763
_cell_length_b 17.666621
_cell_length_c 10.106745
_cell_angle_alpha 90.000000
_cell_angle_beta 90.000000
_cell_angle_gamma 90.000000
_cell_volume 3366.020618
_symmetry_space_group_name_H-M "I M M A"
_symmetry_group_IT_number 74
_symmetry_cell_setting 'orthorhombic'
loop_
_space_group_symop_operation_xyz
x,y,z
-x,1/2-y,z
x,-y,-z
-x,1/2+y,-z
-x,-y,-z
x,1/2+y,-z
-x,y,z
x,1/2-y,z
1/2+x,1/2+y,1/2+z
1/2-x,-y,1/2+z
1/2+x,1/2-y,1/2-z
1/2-x,y,1/2-z
1/2-x,1/2-y,1/2-z
1/2+x,y,1/2-z
1/2-x,1/2+y,1/2+z
1/2+x,-y,1/2+z
loop_
_atom_site_type_symbol
_atom_site_label
_atom_site_fract_x
_atom_site_fract_y
_atom_site_fract_z
Si Si1 0.000000 0.411108 0.466354
Si Si2 0.856646 0.402140 0.776105
Si Si3 0.656898 0.589883 0.975204
Si Si4 0.000000 0.337884 0.755221
Si Si5 0.916873 0.049977 0.135226
Si Si6 0.299630 0.840653 0.537749
O O1 0.000000 0.500000 0.500000
O O2 0.078977 0.394238 0.411540
O O3 0.000000 0.372578 0.609794
O O4 0.846878 0.376412 0.625583
O O5 0.930285 0.366202 0.825660
O O6 0.871921 0.491755 0.774004
O O7 0.802764 0.375423 0.887522
O O8 0.724712 0.627834 0.907735
O O9 0.667940 0.500000 0.000000
O O10 0.000000 0.250000 0.745801
O O11 0.000000 0.060560 0.174097
O O12 0.867812 0.122569 0.109731
O O13 0.918578 0.000000 0.000000
O O14 0.301552 0.750000 0.536139
#
# Coordination Sequence:
#
# PCOD9534348 Si02
#       6
#     8  16  16   8  16  16
#     4   8  18  34  52  71 102 147 188 227 274 344
#     4  10  19  34  56  81 114 150 185 229 286 353
#     4  10  20  36  56  81 111 144 191 238 286 348
#     4  10  18  28  49  85 114 135 172 227 290 340
#     4   9  18  35  56  79 110 150 196 234 278 345
#     4  11  23  34  51  83 118 151 188 235 292 350
#
# _framework density 23.766936999999999
#
# number of rings (size 3 to 8) (size 9 to 14) (size 15 to 20)
#    0.000    2.200    1.000    3.000    1.400    5.200 
#    0.000    0.000    0.000    2.400    0.000    4.200 
#    0.000    0.000    0.000    0.000    0.000    0.000 
#
# Total GULP energy -223364.673021 kJ/mol
# GULP energy per Si atom -5584.116826 kJ/mol
# Density = 2.371284 g / cm^3
# Si number density = 23.766937 Si / 1000 Ang^3
#
#
#
# Elastic Constant Matrix: (Units=GPa)
#
#
# Indices 1 2 3 4 5 6 
#
# 1 216.6203 79.1126 20.8906 0.0000 0.0000 0.0000
# 2 79.1126 138.4934 23.0388 0.0000 0.0000 0.0000
# 3 20.8906 23.0388 56.8373 0.0000 0.0000 0.0000
# 4 0.0000 0.0000 0.0000 10.3313 0.0000 0.0000
# 5 0.0000 0.0000 0.0000 0.0000 38.0300 0.0000
# 6 0.0000 0.0000 0.0000 0.0000 0.0000 2.0908
#
#
#
# Elastic Compliance Matrix: (Units=1/GPa)
#
#
# Indices 1 2 3 4 5 6 
#
# 1 0.005872 -0.003212 -0.000856 0.000000 0.000000 0.000000
# 2 -0.003212 0.009499 -0.002670 0.000000 0.000000 0.000000
# 3 -0.000856 -0.002670 0.018991 0.000000 0.000000 0.000000
# 4 0.000000 0.000000 0.000000 0.096794 0.000000 0.000000
# 5 0.000000 0.000000 0.000000 0.000000 0.026295 0.000000
# 6 0.000000 0.000000 0.000000 0.000000 0.000000 0.478293
#
#
# Mechanical properties :
#
#
# Convention : Reuss Voigt Hill
#
# Bulk Modulus (GPa) = 47.87876 73.11500 60.49688
# Shear Modulus (GPa) = 7.61982 29.35100 18.48541
#
# Velocity S-wave (km/s) = 1.79249 3.51800 2.79189
# Velocity P-wave (km/s) = 4.94701 6.87982 5.99186
#
# Compressibility (1/GPa) = 0.02088609
#
# Stress axis : x y z
#
# Youngs Moduli (GPa) = 170.30099 105.26933 52.65616
#
# Poissons Ratio (x) = 0.33811 0.04509
# Poissons Ratio (y) = 0.54698 0.14059
# Poissons Ratio (z) = 0.14584 0.28107
#
# Static dielectric constant tensor:
#      x y z
#    x 1.954880 0.000000 0.000000 
#    y 0.000000 1.779760 0.000000 
#    z 0.000000 0.000000 2.120140 
# 
# From -- ./inp_files/34031.got.cif
#   From: 2010.05.17/outbox.cif.g08.bks.cpg/sg74_18_cif.got.tgz:34031.got - 2010.06.03 17:57:02.
