data_PCOD9534237
_publ_section_title
;
Structure prediction by ZEFSAII (Michael W. Deem and Ramdas Pophale) SiO2 
 PCOD9534237
Probable space group: I M M A
;
_chemical_formula_sum "Si O2"
_cell_formula_units_Z 80
_cell_length_a 20.494551
_cell_length_b 7.501290
_cell_length_c 26.372369
_cell_angle_alpha 90.000000
_cell_angle_beta 90.000000
_cell_angle_gamma 90.000000
_cell_volume 4054.371193
_symmetry_space_group_name_H-M "I M M A"
_symmetry_group_IT_number 74
_symmetry_cell_setting 'orthorhombic'
loop_
_space_group_symop_operation_xyz
x,y,z
-x,1/2-y,z
x,-y,-z
-x,1/2+y,-z
-x,-y,-z
x,1/2+y,-z
-x,y,z
x,1/2-y,z
1/2+x,1/2+y,1/2+z
1/2-x,-y,1/2+z
1/2+x,1/2-y,1/2-z
1/2-x,y,1/2-z
1/2-x,1/2-y,1/2-z
1/2+x,y,1/2-z
1/2-x,1/2+y,1/2+z
1/2+x,-y,1/2+z
loop_
_atom_site_type_symbol
_atom_site_label
_atom_site_fract_x
_atom_site_fract_y
_atom_site_fract_z
Si Si1 0.500000 0.533406 0.130973
Si Si2 0.250479 0.032215 0.331943
Si Si3 0.500000 0.451176 0.245910
Si Si4 0.740836 0.445855 0.442976
Si Si5 0.610782 0.461496 0.945366
Si Si6 0.644569 0.467198 0.245641
O O1 0.500000 0.750000 0.135821
O O2 0.500000 0.446693 0.185155
O O3 0.563322 0.481545 0.099012
O O4 0.246860 0.250000 0.334628
O O5 0.268300 0.962584 0.388030
O O6 0.306485 0.988179 0.291380
O O7 0.181558 0.974390 0.306273
O O8 0.500000 0.250000 0.267515
O O9 0.571318 0.533308 0.256444
O O10 0.720407 0.500000 0.500000
O O11 0.712511 0.250000 0.436926
O O12 0.819604 0.444574 0.445080
O O13 0.622413 0.250000 0.941252
O O14 0.579765 0.500000 0.000000
O O15 0.640641 0.250000 0.242938
#
# Coordination Sequence:
#
# PCOD9534237 Si02
#       6
#     8  16   8  16  16  16
#     4  10  21  31  39  54  82 115 141 168 208 250
#     4   8  14  25  41  60  87 115 136 163 211 259
#     4  10  18  27  45  68  84 101 137 180 213 246
#     4  10  18  28  43  63  84 109 138 172 212 254
#     4  10  19  30  41  55  78 110 144 178 208 239
#     4   8  14  25  41  64  87 107 135 175 212 248
#
# _framework density 19.73179
#
# number of rings (size 3 to 8) (size 9 to 14) (size 15 to 20)
#    0.000    2.800    0.000    5.100    0.000    3.200 
#    0.000    0.000    0.000    2.400    0.000   10.500 
#    0.000    0.000    0.000    0.000    0.000    0.000 
#
# Total GULP energy -222791.698923 kJ/mol
# GULP energy per Si atom -5569.792473 kJ/mol
# Density = 1.968688 g / cm^3
# Si number density = 19.731790 Si / 1000 Ang^3
#
#
#
# Elastic Constant Matrix: (Units=GPa)
#
#
# Indices 1 2 3 4 5 6 
#
# 1 93.4189 -1.1439 27.8706 0.0000 0.0000 0.0000
# 2 -1.1439 53.4931 2.2801 0.0000 0.0000 0.0000
# 3 27.8706 2.2801 128.8607 0.0000 0.0000 0.0000
# 4 0.0000 0.0000 0.0000 9.1776 0.0000 0.0000
# 5 0.0000 0.0000 0.0000 0.0000 23.5645 0.0000
# 6 0.0000 0.0000 0.0000 0.0000 0.0000 -1.8362
#
#
#
# Elastic Compliance Matrix: (Units=1/GPa)
#
#
# Indices 1 2 3 4 5 6 
#
# 1 0.011449 0.000351 -0.002483 0.000000 0.000000 0.000000
# 2 0.000351 0.018719 -0.000407 0.000000 0.000000 0.000000
# 3 -0.002483 -0.000407 0.008304 0.000000 0.000000 0.000000
# 4 0.000000 0.000000 0.000000 0.108961 0.000000 0.000000
# 5 0.000000 0.000000 0.000000 0.000000 0.042437 0.000000
# 6 0.000000 0.000000 0.000000 0.000000 0.000000 -0.544616
#
#
# Mechanical properties :
#
#
# Convention : Reuss Voigt Hill
#
# Bulk Modulus (GPa) = 29.94479 37.08738 33.51609
# Shear Modulus (GPa) = -14.76945 22.63226 3.93140
#
# Velocity S-wave (km/s) = -2.73886 3.39040 1.41306
# Velocity P-wave (km/s) = 2.28190 5.84491 4.43678
#
# Compressibility (1/GPa) = 0.03339479
#
# Stress axis : x y z
#
# Youngs Moduli (GPa) = 87.34083 53.42213 120.41728
#
# Poissons Ratio (x) = -0.01873 0.29894
# Poissons Ratio (y) = -0.03063 0.04902
# Poissons Ratio (z) = 0.21683 0.02175
#
# Static dielectric constant tensor:
#      x y z
#    x 1.685960 0.000000 0.000000 
#    y 0.000000 1.771790 0.000000 
#    z 0.000000 0.000000 1.743520 
# 
# From -- ./inp_files/64187.got.cif
#   From: 2010.05.17/outbox.cif.g08.bks.cpg/sg74_33_cif.got.tgz:64187.got - 2010.06.03 17:57:02.
