data_PCOD9534681
_publ_section_title
;
Structure prediction by ZEFSAII (Michael W. Deem and Ramdas Pophale) SiO2 
 PCOD9534681
Probable space group: I M M A
;
_chemical_formula_sum "Si O2"
_cell_formula_units_Z 96
_cell_length_a 7.978725
_cell_length_b 31.889106
_cell_length_c 21.586113
_cell_angle_alpha 90.000000
_cell_angle_beta 90.000000
_cell_angle_gamma 90.000000
_cell_volume 5492.249866
_symmetry_space_group_name_H-M "I M M A"
_symmetry_group_IT_number 74
_symmetry_cell_setting 'orthorhombic'
loop_
_space_group_symop_operation_xyz
x,y,z
-x,1/2-y,z
x,-y,-z
-x,1/2+y,-z
-x,-y,-z
x,1/2+y,-z
-x,y,z
x,1/2-y,z
1/2+x,1/2+y,1/2+z
1/2-x,-y,1/2+z
1/2+x,1/2-y,1/2-z
1/2-x,y,1/2-z
1/2-x,1/2-y,1/2-z
1/2+x,y,1/2-z
1/2-x,1/2+y,1/2+z
1/2+x,-y,1/2+z
loop_
_atom_site_type_symbol
_atom_site_label
_atom_site_fract_x
_atom_site_fract_y
_atom_site_fract_z
Si Si1 0.695482 0.404812 0.157506
Si Si2 0.800133 0.887610 0.979209
Si Si3 0.795026 0.204571 0.046325
Si Si4 0.201828 0.502590 0.683460
Si Si5 0.808880 0.313616 0.183147
Si Si6 0.702689 0.966458 0.052487
O O1 0.500000 0.400206 0.174423
O O2 0.711967 0.404309 0.083087
O O3 0.763128 0.449215 0.180460
O O4 0.791153 0.364034 0.181182
O O5 0.747015 0.838941 0.986805
O O6 0.000000 0.887922 0.967815
O O7 0.759248 0.920178 0.032952
O O8 0.742094 0.250000 0.021284
O O9 0.731804 0.200958 0.117797
O O10 0.000000 0.204459 0.047042
O O11 0.250000 0.484149 0.750000
O O12 0.260700 0.479651 0.621055
O O13 0.000000 0.504387 0.679978
O O14 0.750000 0.298898 0.250000
O O15 0.000000 0.301251 0.178914
O O16 0.500000 0.967429 0.052060
O O17 0.759576 0.000000 0.000000
#
# Coordination Sequence:
#
# PCOD9534681 Si02
#       6
#    16  16  16  16  16  16
#     4  10  18  31  47  63  89 126 162 197 240 284
#     4  10  19  30  49  75  94 117 158 203 240 277
#     4   8  16  31  47  63  88 118 149 192 244 291
#     4  10  21  33  47  67  93 128 162 197 236 279
#     4  10  19  29  42  62  85 116 158 199 243 287
#     4  10  19  35  52  68  96 133 166 193 235 291
#
# _framework density 17.479175999999999
#
# number of rings (size 3 to 8) (size 9 to 14) (size 15 to 20)
#    0.000    2.333    1.667    3.000    0.000    4.000 
#    0.000    0.000    0.000   17.500    0.000    0.000 
#    0.000    0.667    0.000    1.500    0.000    2.333 
#
# Total GULP energy -267673.769000 kJ/mol
# GULP energy per Si atom -5576.536854 kJ/mol
# Density = 1.743939 g / cm^3
# Si number density = 17.479176 Si / 1000 Ang^3
#
#
#
# Elastic Constant Matrix: (Units=GPa)
#
#
# Indices 1 2 3 4 5 6 
#
# 1 19.3893 4.6326 3.5960 0.0000 0.0000 0.0000
# 2 4.6326 134.6469 63.4912 0.0000 0.0000 0.0000
# 3 3.5960 63.4912 93.6805 -0.0001 0.0000 0.0000
# 4 0.0000 0.0000 -0.0001 -1.8404 0.0000 0.0000
# 5 0.0000 0.0000 0.0000 0.0000 20.6497 0.0000
# 6 0.0000 0.0000 0.0000 0.0000 0.0000 -4.2419
#
#
#
# Elastic Compliance Matrix: (Units=1/GPa)
#
#
# Indices 1 2 3 4 5 6 
#
# 1 0.052087 -0.001248 -0.001153 0.000000 0.000000 0.000000
# 2 -0.001248 0.010945 -0.007370 0.000000 0.000000 0.000000
# 3 -0.001153 -0.007370 0.015714 0.000000 0.000000 0.000000
# 4 0.000000 0.000000 0.000000 -0.543363 0.000000 0.000000
# 5 0.000000 0.000000 0.000000 0.000000 0.048427 0.000000
# 6 0.000000 0.000000 0.000000 0.000000 0.000000 -0.235743
#
#
# Mechanical properties :
#
#
# Convention : Reuss Voigt Hill
#
# Bulk Modulus (GPa) = 16.89116 43.46183 30.17649
# Shear Modulus (GPa) = -8.16118 14.64661 3.24271
#
# Velocity S-wave (km/s) = -2.16315 2.89787 1.36353
# Velocity P-wave (km/s) = 1.85623 6.00964 4.44755
#
# Compressibility (1/GPa) = 0.05920256
#
# Stress axis : x y z
#
# Youngs Moduli (GPa) = 19.19864 91.36596 63.63840
#
# Poissons Ratio (x) = 0.11404 0.07341
# Poissons Ratio (y) = 0.02396 0.46901
# Poissons Ratio (z) = 0.02215 0.67336
#
# Static dielectric constant tensor:
#      x y z
#    x 1.642250 0.000000 0.000000 
#    y 0.000000 1.623980 0.000000 
#    z 0.000000 0.000000 1.609040 
# 
# From -- ./inp_files/57479.got.cif
#   From: 2010.05.17/outbox.cif.g08.bks.cpg/sg74_29_cif.got.tgz:57479.got - 2010.06.03 17:57:02.
