data_PCOD9534878
_publ_section_title
;
Structure prediction by ZEFSAII (Michael W. Deem and Ramdas Pophale) SiO2 
 PCOD9534878
Probable space group: I M M A
;
_chemical_formula_sum "Si O2"
_cell_formula_units_Z 64
_cell_length_a 7.530273
_cell_length_b 10.066094
_cell_length_c 39.370435
_cell_angle_alpha 90.000000
_cell_angle_beta 90.000000
_cell_angle_gamma 90.000000
_cell_volume 2984.296133
_symmetry_space_group_name_H-M "I M M A"
_symmetry_group_IT_number 74
_symmetry_cell_setting 'orthorhombic'
loop_
_space_group_symop_operation_xyz
x,y,z
-x,1/2-y,z
x,-y,-z
-x,1/2+y,-z
-x,-y,-z
x,1/2+y,-z
-x,y,z
x,1/2-y,z
1/2+x,1/2+y,1/2+z
1/2-x,-y,1/2+z
1/2+x,1/2-y,1/2-z
1/2-x,y,1/2-z
1/2-x,1/2-y,1/2-z
1/2+x,y,1/2-z
1/2-x,1/2+y,1/2+z
1/2+x,-y,1/2+z
loop_
_atom_site_type_symbol
_atom_site_label
_atom_site_fract_x
_atom_site_fract_y
_atom_site_fract_z
Si Si1 0.785808 0.595741 0.906865
Si Si2 0.211892 0.250000 0.210705
Si Si3 0.282295 0.996197 0.667606
Si Si4 0.211383 0.595844 0.470059
Si Si5 0.286838 0.250000 0.709580
O O1 0.724147 0.750000 0.911910
O O2 0.725418 0.535916 0.870705
O O3 0.737832 0.490484 0.936008
O O4 0.000000 0.602876 0.905967
O O5 0.250000 0.250000 0.250000
O O6 0.278951 0.377273 0.191323
O O7 0.000000 0.250000 0.206629
O O8 0.500000 0.999951 0.666576
O O9 0.222257 0.125363 0.687753
O O10 0.283806 0.500000 0.500000
O O11 0.278814 0.750000 0.469101
O O12 0.000000 0.607462 0.475550
O O13 0.500000 0.250000 0.707730
O O14 0.250000 0.250000 0.750000
#
# Coordination Sequence:
#
# PCOD9534878 Si02
#       5
#    16   8  16  16   8
#     4  10  20  36  59  86 114 146 188 234 277 326
#     4  10  18  32  52  74 103 136 177 223 268 321
#     4   9  18  33  53  76 104 141 180 221 273 328
#     4  10  22  40  61  85 115 151 186 222 272 331
#     4  10  20  34  52  74 103 140 181 225 276 329
#
# _framework density 21.445592999999999
#
# number of rings (size 3 to 8) (size 9 to 14) (size 15 to 20)
#    0.000    2.250    1.250    1.500    1.750    2.500 
#    0.000    2.500    0.000    0.000    0.000    0.000 
#    0.000    0.000    0.000    0.000    0.000    0.000 
#
# Total GULP energy -178515.177396 kJ/mol
# GULP energy per Si atom -5578.599294 kJ/mol
# Density = 2.139678 g / cm^3
# Si number density = 21.445593 Si / 1000 Ang^3
#
#
#
# Elastic Constant Matrix: (Units=GPa)
#
#
# Indices 1 2 3 4 5 6 
#
# 1 54.2182 10.6054 -5.6639 0.0000 0.0000 0.0000
# 2 10.6054 276.7099 147.9565 0.0000 0.0000 0.0000
# 3 -5.6639 147.9565 228.2385 0.0000 0.0000 0.0000
# 4 0.0000 0.0000 0.0000 40.1742 0.0000 0.0000
# 5 0.0000 0.0000 0.0000 0.0000 27.2036 0.0000
# 6 0.0000 0.0000 0.0000 0.0000 0.0000 49.7276
#
#
#
# Elastic Compliance Matrix: (Units=1/GPa)
#
#
# Indices 1 2 3 4 5 6 
#
# 1 0.018886 -0.001491 0.001435 0.000000 0.000000 0.000000
# 2 -0.001491 0.005649 -0.003699 0.000000 0.000000 0.000000
# 3 0.001435 -0.003699 0.006815 0.000000 0.000000 0.000000
# 4 0.000000 0.000000 0.000000 0.024892 0.000000 0.000000
# 5 0.000000 0.000000 0.000000 0.000000 0.036760 0.000000
# 6 0.000000 0.000000 0.000000 0.000000 0.000000 0.020110
#
#
# Mechanical properties :
#
#
# Convention : Reuss Voigt Hill
#
# Bulk Modulus (GPa) = 41.94685 96.10698 69.02691
# Shear Modulus (GPa) = 38.89036 50.50564 44.69800
#
# Velocity S-wave (km/s) = 4.26307 4.85816 4.57031
# Velocity P-wave (km/s) = 6.62071 8.73960 7.75288
#
# Compressibility (1/GPa) = 0.02383969
#
# Stress axis : x y z
#
# Youngs Moduli (GPa) = 52.95025 177.02725 146.73886
#
# Poissons Ratio (x) = 0.26401 -0.21063
# Poissons Ratio (y) = 0.07897 0.54277
# Poissons Ratio (z) = -0.07601 0.65481
#
# Static dielectric constant tensor:
#      x y z
#    x 1.835190 0.000000 0.000000 
#    y 0.000000 1.670930 0.000000 
#    z 0.000000 0.000000 1.682590 
# 
# From -- ./inp_files/71296.got.cif
#   From: 2010.05.17/outbox.cif.g08.bks.cpg/sg74_36_cif.got.tgz:71296.got - 2010.06.03 17:57:02.
