data_PCOD9534676
_publ_section_title
;
Structure prediction by ZEFSAII (Michael W. Deem and Ramdas Pophale) SiO2 
 PCOD9534676
Probable space group: I M M A
;
_chemical_formula_sum "Si O2"
_cell_formula_units_Z 80
_cell_length_a 27.632802
_cell_length_b 27.743563
_cell_length_c 5.469747
_cell_angle_alpha 90.000000
_cell_angle_beta 90.000000
_cell_angle_gamma 90.000000
_cell_volume 4193.285178
_symmetry_space_group_name_H-M "I M M A"
_symmetry_group_IT_number 74
_symmetry_cell_setting 'orthorhombic'
loop_
_space_group_symop_operation_xyz
x,y,z
-x,1/2-y,z
x,-y,-z
-x,1/2+y,-z
-x,-y,-z
x,1/2+y,-z
-x,y,z
x,1/2-y,z
1/2+x,1/2+y,1/2+z
1/2-x,-y,1/2+z
1/2+x,1/2-y,1/2-z
1/2-x,y,1/2-z
1/2-x,1/2-y,1/2-z
1/2+x,y,1/2-z
1/2-x,1/2+y,1/2+z
1/2+x,-y,1/2+z
loop_
_atom_site_type_symbol
_atom_site_label
_atom_site_fract_x
_atom_site_fract_y
_atom_site_fract_z
Si Si1 0.808292 0.596127 0.989348
Si Si2 0.893394 0.692124 0.512708
Si Si3 0.556147 0.191236 0.508546
Si Si4 0.302194 0.942814 0.006808
Si Si5 0.693488 0.196505 0.692939
O O1 0.827089 0.573042 0.241694
O O2 0.814138 0.653209 0.007077
O O3 0.750870 0.582360 0.998724
O O4 0.827995 0.574045 0.740336
O O5 0.900204 0.750000 0.523575
O O6 0.914230 0.674083 0.769656
O O7 0.837437 0.685179 0.436241
O O8 0.921936 0.675141 0.268927
O O9 0.500000 0.177678 0.486418
O O10 0.557992 0.250000 0.511676
O O11 0.294474 0.000000 0.000000
O O12 0.678388 0.250000 0.604628
O O13 0.750000 0.197701 0.750000
#
# Coordination Sequence:
#
# PCOD9534676 Si02
#       5
#    16  16  16  16  16
#     4  10  18  31  46  66  86 119 163 203 236 291
#     4   9  18  30  44  65  89 119 161 202 244 284
#     4   9  16  29  48  66  83 107 150 211 263 297
#     4  10  18  31  49  67  85 108 159 217 256 291
#     4  10  20  35  48  66 101 145 181 210 228 265
#
# _framework density 19.078120999999999
#
# number of rings (size 3 to 8) (size 9 to 14) (size 15 to 20)
#    0.000    2.400    2.000    3.600    0.000    4.000 
#    0.000    5.000    0.000    0.000    0.000    0.000 
#    0.000    0.000    0.000    0.000    0.000  116.000 
#
# Total GULP energy -223081.225880 kJ/mol
# GULP energy per Si atom -5577.030647 kJ/mol
# Density = 1.903470 g / cm^3
# Si number density = 19.078121 Si / 1000 Ang^3
#
#
#
# Elastic Constant Matrix: (Units=GPa)
#
#
# Indices 1 2 3 4 5 6 
#
# 1 89.1433 -4.3665 30.2167 0.0000 0.0000 0.0000
# 2 -4.3665 97.1756 27.9620 0.0000 0.0000 0.0000
# 3 30.2167 27.9620 160.4521 0.0000 0.0000 0.0000
# 4 0.0000 0.0000 0.0000 48.2562 0.0000 0.0000
# 5 0.0000 0.0000 0.0000 0.0000 13.9257 0.0000
# 6 0.0000 0.0000 0.0000 0.0000 0.0000 0.4971
#
#
#
# Elastic Compliance Matrix: (Units=1/GPa)
#
#
# Indices 1 2 3 4 5 6 
#
# 1 0.012129 0.001266 -0.002505 0.000000 0.000000 0.000000
# 2 0.001266 0.010966 -0.002149 0.000000 0.000000 0.000000
# 3 -0.002505 -0.002149 0.007079 0.000000 0.000000 0.000000
# 4 0.000000 0.000000 0.000000 0.020723 0.000000 0.000000
# 5 0.000000 0.000000 0.000000 0.000000 0.071810 0.000000
# 6 0.000000 0.000000 0.000000 0.000000 0.000000 2.011512
#
#
# Mechanical properties :
#
#
# Convention : Reuss Voigt Hill
#
# Bulk Modulus (GPa) = 42.74092 50.48836 46.61464
# Shear Modulus (GPa) = 2.32689 32.06640 17.19664
#
# Velocity S-wave (km/s) = 1.10558 4.10420 3.00556
# Velocity P-wave (km/s) = 4.90729 6.99862 6.04410
#
# Compressibility (1/GPa) = 0.02339678
#
# Stress axis : x y z
#
# Youngs Moduli (GPa) = 82.44761 91.19087 141.26962
#
# Poissons Ratio (x) = -0.11542 0.35384
# Poissons Ratio (y) = -0.10436 0.30365
# Poissons Ratio (z) = 0.20651 0.19601
#
# Static dielectric constant tensor:
#      x y z
#    x 1.678330 0.000000 0.000000 
#    y 0.000000 1.672170 0.000000 
#    z 0.000000 0.000000 1.763850 
# 
# From -- ./inp_files/4525.got.cif
#   From: 2010.05.17/outbox.cif.g08.bks.cpg/sg74_3_cif.got.tgz:4525.got - 2010.06.03 17:57:02.
