data_PCOD9534458
_publ_section_title
;
Structure prediction by ZEFSAII (Michael W. Deem and Ramdas Pophale) SiO2 
 PCOD9534458
Probable space group: I M M A
;
_chemical_formula_sum "Si O2"
_cell_formula_units_Z 128
_cell_length_a 17.712349
_cell_length_b 21.792206
_cell_length_c 20.321684
_cell_angle_alpha 90.000000
_cell_angle_beta 90.000000
_cell_angle_gamma 90.000000
_cell_volume 7843.990343
_symmetry_space_group_name_H-M "I M M A"
_symmetry_group_IT_number 74
_symmetry_cell_setting 'orthorhombic'
loop_
_space_group_symop_operation_xyz
x,y,z
-x,1/2-y,z
x,-y,-z
-x,1/2+y,-z
-x,-y,-z
x,1/2+y,-z
-x,y,z
x,1/2-y,z
1/2+x,1/2+y,1/2+z
1/2-x,-y,1/2+z
1/2+x,1/2-y,1/2-z
1/2-x,y,1/2-z
1/2-x,1/2-y,1/2-z
1/2+x,y,1/2-z
1/2-x,1/2+y,1/2+z
1/2+x,-y,1/2+z
loop_
_atom_site_type_symbol
_atom_site_label
_atom_site_fract_x
_atom_site_fract_y
_atom_site_fract_z
Si Si1 0.413582 0.821780 0.164832
Si Si2 0.584885 0.535552 0.812302
Si Si3 0.179994 0.114767 0.403935
Si Si4 0.914628 0.820796 0.493111
Si Si5 0.795264 0.572465 0.318506
Si Si6 0.086501 0.575081 0.839258
Si Si7 0.707808 0.820995 0.682997
Si Si8 0.794806 0.502092 0.921311
O O1 0.500000 0.840321 0.185696
O O2 0.403998 0.750000 0.183537
O O3 0.413030 0.824838 0.085433
O O4 0.343181 0.864373 0.184932
O O5 0.500000 0.521025 0.833362
O O6 0.616108 0.593576 0.852629
O O7 0.640063 0.478971 0.823680
O O8 0.585899 0.549945 0.735087
O O9 0.143017 0.134589 0.471749
O O10 0.229992 0.168796 0.373342
O O11 0.234388 0.056667 0.411301
O O12 0.898877 0.750000 0.511096
O O13 0.000000 0.835151 0.514755
O O14 0.750000 0.564412 0.250000
O O15 0.739684 0.556502 0.380749
O O16 0.136869 0.636641 0.834888
O O17 0.129860 0.526318 0.885126
O O18 0.000000 0.585726 0.859850
O O19 0.687351 0.750000 0.691041
O O20 0.750000 0.842659 0.750000
O O21 0.805843 0.500000 0.000000
#
# Coordination Sequence:
#
# PCOD9534458 Si02
#       8
#    16  16  16  16  16  16  16  16
#     4   9  19  35  53  73 102 135 165 199 245 303
#     4  10  19  31  48  72 100 133 165 203 252 302
#     4  10  18  29  50  70 104 132 167 205 246 297
#     4   9  17  30  47  70 101 137 171 200 236 292
#     4  11  20  33  54  77 103 130 166 208 254 306
#     4  10  20  35  52  69  98 134 171 213 256 298
#     4  10  19  31  47  69  99 133 169 209 254 296
#     4  10  21  34  52  77 102 131 168 211 256 302
#
# _framework density 16.318225000000002
#
# number of rings (size 3 to 8) (size 9 to 14) (size 15 to 20)
#    0.000    2.125    2.500    2.625    0.000    0.750 
#    0.000    0.000    0.000    6.000    0.000    0.000 
#    0.000    0.000    0.000    0.000    0.000    0.000 
#
# Total GULP energy -356407.702143 kJ/mol
# GULP energy per Si atom -5568.870346 kJ/mol
# Density = 1.628108 g / cm^3
# Si number density = 16.318225 Si / 1000 Ang^3
#
#
#
# Elastic Constant Matrix: (Units=GPa)
#
#
# Indices 1 2 3 4 5 6 
#
# 1 112.9921 36.8462 24.6700 0.0000 0.0000 0.0000
# 2 36.8462 40.9263 0.2604 0.0000 0.0000 0.0000
# 3 24.6700 0.2604 48.6409 0.0000 0.0000 0.0000
# 4 0.0000 0.0000 0.0000 20.0528 0.0000 0.0000
# 5 0.0000 0.0000 0.0000 0.0000 19.5938 0.0000
# 6 0.0000 0.0000 0.0000 0.0000 0.0000 10.4980
#
#
#
# Elastic Compliance Matrix: (Units=1/GPa)
#
#
# Indices 1 2 3 4 5 6 
#
# 1 0.014805 -0.013282 -0.007438 0.000000 0.000000 0.000000
# 2 -0.013282 0.036350 0.006542 0.000000 0.000000 0.000000
# 3 -0.007438 0.006542 0.024296 0.000000 0.000000 0.000000
# 4 0.000000 0.000000 0.000000 0.049868 0.000000 0.000000
# 5 0.000000 0.000000 0.000000 0.000000 0.051037 0.000000
# 6 0.000000 0.000000 0.000000 0.000000 0.000000 0.095256
#
#
# Mechanical properties :
#
#
# Convention : Reuss Voigt Hill
#
# Bulk Modulus (GPa) = 21.23332 36.23473 28.73402
# Shear Modulus (GPa) = 15.83942 19.41443 17.62692
#
# Velocity S-wave (km/s) = 3.11892 3.45300 3.29020
# Velocity P-wave (km/s) = 5.10005 6.17664 5.66398
#
# Compressibility (1/GPa) = 0.04709580
#
# Stress axis : x y z
#
# Youngs Moduli (GPa) = 67.54317 27.51001 41.15856
#
# Poissons Ratio (x) = 0.36539 0.30614
# Poissons Ratio (y) = 0.89711 -0.26925
# Poissons Ratio (z) = 0.50239 -0.17997
#
# Static dielectric constant tensor:
#      x y z
#    x 1.555830 0.000000 0.000000 
#    y 0.000000 1.556270 0.000000 
#    z 0.000000 0.000000 1.543490 
# 
# From -- ./inp_files/44600.got.cif
#   From: 2010.05.17/outbox.cif.g08.bks.cpg/sg74_23_cif.got.tgz:44600.got - 2010.06.03 17:57:02.
