data_PCOD9534421
_publ_section_title
;
Structure prediction by ZEFSAII (Michael W. Deem and Ramdas Pophale) SiO2 
 PCOD9534421
Probable space group: I M M A
;
_chemical_formula_sum "Si O2"
_cell_formula_units_Z 128
_cell_length_a 20.258571
_cell_length_b 21.148674
_cell_length_c 18.709651
_cell_angle_alpha 90.000000
_cell_angle_beta 90.000000
_cell_angle_gamma 90.000000
_cell_volume 8015.998681
_symmetry_space_group_name_H-M "I M M A"
_symmetry_group_IT_number 74
_symmetry_cell_setting 'orthorhombic'
loop_
_space_group_symop_operation_xyz
x,y,z
-x,1/2-y,z
x,-y,-z
-x,1/2+y,-z
-x,-y,-z
x,1/2+y,-z
-x,y,z
x,1/2-y,z
1/2+x,1/2+y,1/2+z
1/2-x,-y,1/2+z
1/2+x,1/2-y,1/2-z
1/2-x,y,1/2-z
1/2-x,1/2-y,1/2-z
1/2+x,y,1/2-z
1/2-x,1/2+y,1/2+z
1/2+x,-y,1/2+z
loop_
_atom_site_type_symbol
_atom_site_label
_atom_site_fract_x
_atom_site_fract_y
_atom_site_fract_z
Si Si1 0.291796 0.854549 0.677143
Si Si2 0.572602 0.156483 0.262020
Si Si3 0.071673 0.176857 0.405685
Si Si4 0.788351 0.322873 0.460865
Si Si5 0.279022 0.938778 0.052851
Si Si6 0.298764 0.995569 0.316755
Si Si7 0.426065 0.536685 0.075938
Si Si8 0.427699 0.993223 0.763712
O O1 0.250000 0.847786 0.750000
O O2 0.364166 0.826395 0.691613
O O3 0.252441 0.824368 0.612433
O O4 0.298642 0.929907 0.662458
O O5 0.500000 0.176720 0.287170
O O6 0.580267 0.177250 0.179763
O O7 0.572851 0.080517 0.256225
O O8 0.068116 0.250000 0.428193
O O9 0.137805 0.151650 0.441334
O O10 0.000000 0.146200 0.421192
O O11 0.791573 0.250000 0.486180
O O12 0.758204 0.374514 0.513668
O O13 0.231465 0.956206 0.118365
O O14 0.355581 0.928183 0.076354
O O15 0.278226 0.000000 0.000000
O O16 0.250000 0.990486 0.250000
O O17 0.369732 0.977363 0.283778
O O18 0.500000 0.567185 0.080763
O O19 0.419821 0.496641 0.150011
O O20 0.426797 0.500000 0.000000
O O21 0.500000 0.020000 0.747323
#
# Coordination Sequence:
#
# PCOD9534421 Si02
#       8
#    16  16  16  16  16  16  16  16
#     4  10  18  29  48  72 101 132 169 203 242 291
#     4   9  17  27  44  66  97 133 167 200 233 281
#     4   9  18  30  43  63  96 139 175 195 224 283
#     4  11  23  35  48  71 102 136 170 208 250 296
#     4  11  21  33  52  73 100 134 168 206 251 297
#     4  10  18  31  51  75 100 130 168 210 247 295
#     4   9  18  27  42  73 108 133 159 196 243 296
#     4   9  17  29  46  73 104 132 161 204 252 292
#
# _framework density 15.968066
#
# number of rings (size 3 to 8) (size 9 to 14) (size 15 to 20)
#    0.000    2.250    3.750    0.000    3.500    1.250 
#    0.000    0.000    0.000    1.500    0.000    0.000 
#    0.000    0.000    0.000    0.000    0.000    0.000 
#
# Total GULP energy -356305.328421 kJ/mol
# GULP energy per Si atom -5567.270757 kJ/mol
# Density = 1.593172 g / cm^3
# Si number density = 15.968066 Si / 1000 Ang^3
#
#
#
# Elastic Constant Matrix: (Units=GPa)
#
#
# Indices 1 2 3 4 5 6 
#
# 1 113.1586 26.2775 48.2827 0.0000 0.0000 0.0000
# 2 26.2775 54.8024 33.4789 0.0000 0.0000 0.0000
# 3 48.2827 33.4789 67.8364 0.0000 0.0000 0.0000
# 4 0.0000 0.0000 0.0000 9.3257 0.0000 0.0000
# 5 0.0000 0.0000 0.0000 0.0000 25.9521 0.0000
# 6 0.0000 0.0000 0.0000 0.0000 0.0000 10.1661
#
#
#
# Elastic Compliance Matrix: (Units=1/GPa)
#
#
# Indices 1 2 3 4 5 6 
#
# 1 0.012717 -0.000814 -0.008650 0.000000 0.000000 0.000000
# 2 -0.000814 0.026175 -0.012339 0.000000 0.000000 0.000000
# 3 -0.008650 -0.012339 0.026987 0.000000 0.000000 0.000000
# 4 0.000000 0.000000 0.000000 0.107230 0.000000 0.000000
# 5 0.000000 0.000000 0.000000 0.000000 0.038533 0.000000
# 6 0.000000 0.000000 0.000000 0.000000 0.000000 0.098366
#
#
# Mechanical properties :
#
#
# Convention : Reuss Voigt Hill
#
# Bulk Modulus (GPa) = 44.89359 50.20839 47.55099
# Shear Modulus (GPa) = 13.84896 17.60602 15.72749
#
# Velocity S-wave (km/s) = 2.94817 3.32411 3.14177
# Velocity P-wave (km/s) = 6.30592 6.80031 6.55777
#
# Compressibility (1/GPa) = 0.02227490
#
# Stress axis : x y z
#
# Youngs Moduli (GPa) = 78.63670 38.20372 37.05427
#
# Poissons Ratio (x) = 0.03108 0.32051
# Poissons Ratio (y) = 0.06397 0.45722
# Poissons Ratio (z) = 0.68018 0.47140
#
# Static dielectric constant tensor:
#      x y z
#    x 1.602130 0.000000 0.000000 
#    y 0.000000 1.568400 0.000000 
#    z 0.000000 0.000000 1.511530 
# 
# From -- ./inp_files/45660.got.cif
#   From: 2010.05.17/outbox.cif.g08.bks.cpg/sg74_23_cif.got.tgz:45660.got - 2010.06.03 17:57:02.
