data_PCOD9534229
_publ_section_title
;
Structure prediction by ZEFSAII (Michael W. Deem and Ramdas Pophale) SiO2 
 PCOD9534229
Probable space group: I M M A
;
_chemical_formula_sum "Si O2"
_cell_formula_units_Z 112
_cell_length_a 17.341123
_cell_length_b 22.900671
_cell_length_c 17.105785
_cell_angle_alpha 90.000000
_cell_angle_beta 90.000000
_cell_angle_gamma 90.000000
_cell_volume 6793.106688
_symmetry_space_group_name_H-M "I M M A"
_symmetry_group_IT_number 74
_symmetry_cell_setting 'orthorhombic'
loop_
_space_group_symop_operation_xyz
x,y,z
-x,1/2-y,z
x,-y,-z
-x,1/2+y,-z
-x,-y,-z
x,1/2+y,-z
-x,y,z
x,1/2-y,z
1/2+x,1/2+y,1/2+z
1/2-x,-y,1/2+z
1/2+x,1/2-y,1/2-z
1/2-x,y,1/2-z
1/2-x,1/2-y,1/2-z
1/2+x,y,1/2-z
1/2-x,1/2+y,1/2+z
1/2+x,-y,1/2+z
loop_
_atom_site_type_symbol
_atom_site_label
_atom_site_fract_x
_atom_site_fract_y
_atom_site_fract_z
Si Si1 0.669122 0.579051 0.016792
Si Si2 0.589149 0.148566 0.752670
Si Si3 0.089978 0.019457 0.381997
Si Si4 0.092180 0.184591 0.921898
Si Si5 0.838508 0.972200 0.234311
Si Si6 0.413750 0.684571 0.073925
Si Si7 0.153107 0.053708 0.946637
O O1 0.614072 0.540419 0.073453
O O2 0.651914 0.644988 0.038209
O O3 0.756103 0.560775 0.034185
O O4 0.642531 0.565375 0.928791
O O5 0.500000 0.126905 0.745897
O O6 0.606620 0.180849 0.671841
O O7 0.645404 0.094000 0.761566
O O8 0.593248 0.184370 0.832139
O O9 0.000000 0.030864 0.393133
O O10 0.110337 0.012085 0.291117
O O11 0.120267 0.250000 0.948442
O O12 0.120999 0.120720 0.953136
O O13 0.000000 0.184629 0.933557
O O14 0.750000 0.987455 0.250000
O O15 0.856335 0.968712 0.142507
O O16 0.500000 0.660841 0.056199
O O17 0.409651 0.750000 0.044687
O O18 0.122550 0.000000 0.000000
#
# Coordination Sequence:
#
# PCOD9534229 Si02
#       7
#    16  16  16  16  16  16  16
#     4  11  19  33  48  72 104 134 173 216 260 313
#     4   9  16  27  44  65  94 132 173 207 243 300
#     4  11  20  32  53  73  96 138 180 217 255 311
#     4   9  19  34  51  71  99 139 181 214 253 316
#     4  11  18  30  47  71 103 136 173 219 261 308
#     4  10  18  27  42  67 101 136 172 214 256 304
#     4  11  21  35  53  77 109 140 171 222 280 309
#
# _framework density 16.487302
#
# number of rings (size 3 to 8) (size 9 to 14) (size 15 to 20)
#    0.000    1.714    4.286    2.571    0.000    3.143 
#    0.000    0.000    0.000    4.714    0.000    1.000 
#    0.000    5.714    0.000    0.000    0.000    0.000 
#
# Total GULP energy -311814.972747 kJ/mol
# GULP energy per Si atom -5568.124513 kJ/mol
# Density = 1.644978 g / cm^3
# Si number density = 16.487302 Si / 1000 Ang^3
#
#
#
# Elastic Constant Matrix: (Units=GPa)
#
#
# Indices 1 2 3 4 5 6 
#
# 1 39.1969 20.0292 18.4324 0.0000 0.0000 0.0000
# 2 20.0292 88.7938 38.9160 0.0000 0.0000 0.0000
# 3 18.4324 38.9160 68.8976 0.0000 0.0000 0.0000
# 4 0.0000 0.0000 0.0000 18.9428 0.0000 0.0000
# 5 0.0000 0.0000 0.0000 0.0000 17.1113 0.0000
# 6 0.0000 0.0000 0.0000 0.0000 0.0000 3.9454
#
#
#
# Elastic Compliance Matrix: (Units=1/GPa)
#
#
# Indices 1 2 3 4 5 6 
#
# 1 0.030413 -0.004378 -0.005664 0.000000 0.000000 0.000000
# 2 -0.004378 0.015597 -0.007639 0.000000 0.000000 0.000000
# 3 -0.005664 -0.007639 0.020344 0.000000 0.000000 0.000000
# 4 0.000000 0.000000 0.000000 0.052791 0.000000 0.000000
# 5 0.000000 0.000000 0.000000 0.000000 0.058441 0.000000
# 6 0.000000 0.000000 0.000000 0.000000 0.000000 0.253460
#
#
# Mechanical properties :
#
#
# Convention : Reuss Voigt Hill
#
# Bulk Modulus (GPa) = 32.26470 39.07150 35.66810
# Shear Modulus (GPa) = 10.48794 15.96727 13.22761
#
# Velocity S-wave (km/s) = 2.52488 3.11538 2.83555
# Velocity P-wave (km/s) = 5.30207 6.05724 5.69219
#
# Compressibility (1/GPa) = 0.03099362
#
# Stress axis : x y z
#
# Youngs Moduli (GPa) = 32.88106 64.11295 49.15415
#
# Poissons Ratio (x) = 0.28068 0.27839
# Poissons Ratio (y) = 0.14395 0.37548
# Poissons Ratio (z) = 0.18622 0.48975
#
# Static dielectric constant tensor:
#      x y z
#    x 1.580650 0.000000 0.000000 
#    y 0.000000 1.584130 0.000000 
#    z 0.000000 0.000000 1.577060 
# 
# From -- ./inp_files/44429.got.cif
#   From: 2010.05.17/outbox.cif.g08.bks.cpg/sg74_23_cif.got.tgz:44429.got - 2010.06.03 17:57:02.
