data_PCOD9534645
_publ_section_title
;
Structure prediction by ZEFSAII (Michael W. Deem and Ramdas Pophale) SiO2 
 PCOD9534645
Probable space group: I M M A
;
_chemical_formula_sum "Si O2"
_cell_formula_units_Z 72
_cell_length_a 8.294054
_cell_length_b 24.167371
_cell_length_c 18.216185
_cell_angle_alpha 90.000000
_cell_angle_beta 90.000000
_cell_angle_gamma 90.000000
_cell_volume 3651.351948
_symmetry_space_group_name_H-M "I M M A"
_symmetry_group_IT_number 74
_symmetry_cell_setting 'orthorhombic'
loop_
_space_group_symop_operation_xyz
x,y,z
-x,1/2-y,z
x,-y,-z
-x,1/2+y,-z
-x,-y,-z
x,1/2+y,-z
-x,y,z
x,1/2-y,z
1/2+x,1/2+y,1/2+z
1/2-x,-y,1/2+z
1/2+x,1/2-y,1/2-z
1/2-x,y,1/2-z
1/2-x,1/2-y,1/2-z
1/2+x,y,1/2-z
1/2-x,1/2+y,1/2+z
1/2+x,-y,1/2+z
loop_
_atom_site_type_symbol
_atom_site_label
_atom_site_fract_x
_atom_site_fract_y
_atom_site_fract_z
Si Si1 0.189887 0.974851 0.425119
Si Si2 0.191804 0.750000 0.165404
Si Si3 0.806645 0.869356 0.334942
Si Si4 0.806643 0.810111 0.664941
Si Si5 0.690236 0.925321 0.666607
O O1 0.213027 0.024905 0.369049
O O2 0.000000 0.964243 0.438720
O O3 0.262726 0.000000 0.500000
O O4 0.254796 0.919000 0.387152
O O5 0.250000 0.750000 0.250000
O O6 0.254819 0.691215 0.136234
O O7 0.000000 0.750000 0.163318
O O8 0.750000 0.876257 0.250000
O O9 0.000000 0.871396 0.332994
O O10 0.763161 0.750000 0.632321
O O11 0.750000 0.808000 0.750000
O O12 0.729945 0.865329 0.631817
O O13 0.000000 0.815620 0.664009
O O14 0.500000 0.935615 0.663435
O O15 0.750000 0.921963 0.750000
#
# Coordination Sequence:
#
# PCOD9534645 Si02
#       5
#    16   8  16  16  16
#     4  10  22  39  57  77 107 145 184 226 272 325
#     4  10  18  30  52  82 114 142 173 220 273 328
#     4  10  19  33  56  84 112 142 180 225 273 327
#     4   9  16  27  46  72 101 132 168 212 261 308
#     4  11  21  33  53  79 107 139 177 223 269 320
#
# _framework density 19.718724000000002
#
# number of rings (size 3 to 8) (size 9 to 14) (size 15 to 20)
#    0.000    2.000    0.000    7.667    0.000    5.333 
#    0.000    0.000    2.444    0.000    0.000    0.000 
#    0.000    0.000    0.000    0.000    0.000    0.000 
#
# Total GULP energy -200667.059045 kJ/mol
# GULP energy per Si atom -5574.084973 kJ/mol
# Density = 1.967384 g / cm^3
# Si number density = 19.718724 Si / 1000 Ang^3
#
#
#
# Elastic Constant Matrix: (Units=GPa)
#
#
# Indices 1 2 3 4 5 6 
#
# 1 39.0057 -5.8247 3.6709 0.0000 0.0000 0.0000
# 2 -5.8247 182.5586 53.6941 0.0000 0.0000 0.0000
# 3 3.6709 53.6941 49.3496 0.0000 0.0000 0.0000
# 4 0.0000 0.0000 0.0000 5.5230 0.0000 0.0000
# 5 0.0000 0.0000 0.0000 0.0000 9.7223 0.0000
# 6 0.0000 0.0000 0.0000 0.0000 0.0000 32.9907
#
#
#
# Elastic Compliance Matrix: (Units=1/GPa)
#
#
# Indices 1 2 3 4 5 6 
#
# 1 0.026346 0.002084 -0.004227 0.000000 0.000000 0.000000
# 2 0.002084 0.008220 -0.009099 0.000000 0.000000 0.000000
# 3 -0.004227 -0.009099 0.030478 0.000000 0.000000 0.000000
# 4 0.000000 0.000000 0.000000 0.181060 0.000000 0.000000
# 5 0.000000 0.000000 0.000000 0.000000 0.102856 0.000000
# 6 0.000000 0.000000 0.000000 0.000000 0.000000 0.030312
#
#
# Mechanical properties :
#
#
# Convention : Reuss Voigt Hill
#
# Bulk Modulus (GPa) = 23.49611 41.55492 32.52552
# Shear Modulus (GPa) = 12.02084 24.27211 18.14647
#
# Velocity S-wave (km/s) = 2.47172 3.51225 3.03688
# Velocity P-wave (km/s) = 4.48189 6.12923 5.36912
#
# Compressibility (1/GPa) = 0.04256023
#
# Stress axis : x y z
#
# Youngs Moduli (GPa) = 37.95600 121.64838 32.81034
#
# Poissons Ratio (x) = -0.25350 0.13869
# Poissons Ratio (y) = -0.07910 0.29855
# Poissons Ratio (z) = 0.16044 1.10689
#
# Static dielectric constant tensor:
#      x y z
#    x 1.693260 0.000000 0.000000 
#    y 0.000000 1.769360 0.000000 
#    z 0.000000 0.000000 1.923890 
# 
# From -- ./inp_files/39473.got.cif
#   From: 2010.05.17/outbox.cif.g08.bks.cpg/sg74_20_cif.got.tgz:39473.got - 2010.06.03 17:57:02.
