data_PCOD9534791
_publ_section_title
;
Structure prediction by ZEFSAII (Michael W. Deem and Ramdas Pophale) SiO2 
 PCOD9534791
Probable space group: I M M A
;
_chemical_formula_sum "Si O2"
_cell_formula_units_Z 80
_cell_length_a 11.498414
_cell_length_b 24.790892
_cell_length_c 12.884656
_cell_angle_alpha 90.000000
_cell_angle_beta 90.000000
_cell_angle_gamma 90.000000
_cell_volume 3672.847723
_symmetry_space_group_name_H-M "I M M A"
_symmetry_group_IT_number 74
_symmetry_cell_setting 'orthorhombic'
loop_
_space_group_symop_operation_xyz
x,y,z
-x,1/2-y,z
x,-y,-z
-x,1/2+y,-z
-x,-y,-z
x,1/2+y,-z
-x,y,z
x,1/2-y,z
1/2+x,1/2+y,1/2+z
1/2-x,-y,1/2+z
1/2+x,1/2-y,1/2-z
1/2-x,y,1/2-z
1/2-x,1/2-y,1/2-z
1/2+x,y,1/2-z
1/2-x,1/2+y,1/2+z
1/2+x,-y,1/2+z
loop_
_atom_site_type_symbol
_atom_site_label
_atom_site_fract_x
_atom_site_fract_y
_atom_site_fract_z
Si Si1 0.186533 0.691164 0.139563
Si Si2 0.122841 0.928919 0.134267
Si Si3 0.368215 0.190560 0.046749
Si Si4 0.627074 0.535538 0.122797
Si Si5 0.368241 0.416045 0.183611
O O1 0.128735 0.750000 0.129850
O O2 0.250000 0.690392 0.250000
O O3 0.118665 0.635672 0.134522
O O4 0.280860 0.687901 0.048291
O O5 0.247494 0.943748 0.085060
O O6 0.126200 0.949682 0.253610
O O7 0.000000 0.949277 0.088638
O O8 0.500000 0.188860 0.006146
O O9 0.352734 0.250000 0.097950
O O10 0.355000 0.139624 0.121345
O O11 0.500000 0.555897 0.084375
O O12 0.628430 0.470803 0.116358
O O13 0.500000 0.414353 0.233604
O O14 0.250000 0.421459 0.250000
#
# Coordination Sequence:
#
# PCOD9534791 Si02
#       5
#    16  16  16  16  16
#     4  10  20  35  55  80 110 150 193 238 294 350
#     4  10  18  31  53  80 111 146 185 238 290 337
#     4   9  20  38  59  87 121 154 198 251 295 349
#     4   9  17  31  52  79 111 150 191 234 282 340
#     4  10  19  35  62  90 119 158 198 241 297 354
#
# _framework density 21.781464
#
# number of rings (size 3 to 8) (size 9 to 14) (size 15 to 20)
#    0.000    2.400    4.000    0.000    0.000    2.400 
#    0.000    4.000    0.000    6.000    0.000    0.000 
#    0.000    0.000    0.000    0.000    0.000    0.000 
#
# Total GULP energy -222907.501593 kJ/mol
# GULP energy per Si atom -5572.687540 kJ/mol
# Density = 2.173189 g / cm^3
# Si number density = 21.781464 Si / 1000 Ang^3
#
#
#
# Elastic Constant Matrix: (Units=GPa)
#
#
# Indices 1 2 3 4 5 6 
#
# 1 231.7554 52.5281 35.4923 0.0002 0.0005 0.0000
# 2 52.5281 152.7561 10.0401 0.0001 0.0001 0.0001
# 3 35.4923 10.0401 18.0373 0.0015 -0.0024 -0.0001
# 4 0.0002 0.0001 0.0015 7.6705 -0.0023 0.0001
# 5 0.0005 0.0001 -0.0024 -0.0023 -665.0842 -0.0007
# 6 0.0000 0.0001 -0.0001 0.0001 -0.0007 -44.7116
#
#
#
# Elastic Compliance Matrix: (Units=1/GPa)
#
#
# Indices 1 2 3 4 5 6 
#
# 1 0.006468 -0.001440 -0.011925 0.000002 0.000000 0.000000
# 2 -0.001440 0.007116 -0.001127 0.000000 0.000000 0.000000
# 3 -0.011925 -0.001127 0.079532 -0.000015 0.000000 0.000000
# 4 0.000002 0.000000 -0.000015 0.130369 0.000000 0.000000
# 5 0.000000 0.000000 0.000000 0.000000 -0.001504 0.000000
# 6 0.000000 0.000000 0.000000 0.000000 0.000000 -0.022366
#
#
# Mechanical properties :
#
#
# Convention : Reuss Voigt Hill
#
# Bulk Modulus (GPa) = 15.59282 66.51887 41.05584
# Shear Modulus (GPa) = 20.00189 -120.12584 -50.06197
#
# Velocity S-wave (km/s) = 3.03363 -7.43439 -4.79934
# Velocity P-wave (km/s) = 4.40963 6.56415 3.43826
#
# Compressibility (1/GPa) = 0.06413210
#
# Stress axis : x y z
#
# Youngs Moduli (GPa) = 154.61853 140.53442 12.57352
#
# Poissons Ratio (x) = 0.20240 0.14993
# Poissons Ratio (y) = 0.22269 0.01417
# Poissons Ratio (z) = 1.84377 0.15836
#
# Static dielectric constant tensor:
#      x y z
#    x 1.867800 0.000000 0.000000 
#    y 0.000000 1.825010 0.000000 
#    z 0.000000 0.000000 1.784780 
# 
# From -- ./inp_files/30706.got.cif
#   From: 2010.05.17/outbox.cif.g08.bks.cpg/sg74_16_cif.got.tgz:30706.got - 2010.06.03 17:57:02.
