data_PCOD9534813
_publ_section_title
;
Structure prediction by ZEFSAII (Michael W. Deem and Ramdas Pophale) SiO2 
 PCOD9534813
Probable space group: I M M A
;
_chemical_formula_sum "Si O2"
_cell_formula_units_Z 56
_cell_length_a 9.365521
_cell_length_b 10.141622
_cell_length_c 27.360835
_cell_angle_alpha 90.000000
_cell_angle_beta 90.000000
_cell_angle_gamma 90.000000
_cell_volume 2598.775169
_symmetry_space_group_name_H-M "I M M A"
_symmetry_group_IT_number 74
_symmetry_cell_setting 'orthorhombic'
loop_
_space_group_symop_operation_xyz
x,y,z
-x,1/2-y,z
x,-y,-z
-x,1/2+y,-z
-x,-y,-z
x,1/2+y,-z
-x,y,z
x,1/2-y,z
1/2+x,1/2+y,1/2+z
1/2-x,-y,1/2+z
1/2+x,1/2-y,1/2-z
1/2-x,y,1/2-z
1/2-x,1/2-y,1/2-z
1/2+x,y,1/2-z
1/2-x,1/2+y,1/2+z
1/2+x,-y,1/2+z
loop_
_atom_site_type_symbol
_atom_site_label
_atom_site_fract_x
_atom_site_fract_y
_atom_site_fract_z
Si Si1 0.169276 0.250000 0.478117
Si Si2 0.327228 0.456738 0.297917
Si Si3 0.839263 0.047359 0.393476
Si Si4 0.156265 0.750000 0.185895
Si Si5 0.764433 0.250000 0.584470
O O1 0.193302 0.375719 0.443469
O O2 0.262697 0.250000 0.526857
O O3 0.000000 0.250000 0.492852
O O4 0.500000 0.446601 0.295369
O O5 0.250000 0.400294 0.250000
O O6 0.268160 0.410972 0.350357
O O7 0.278320 0.611252 0.299983
O O8 0.000000 0.084056 0.378313
O O9 0.837831 0.890787 0.404450
O O10 0.146916 0.750000 0.127054
O O11 0.000000 0.750000 0.208613
#
# Coordination Sequence:
#
# PCOD9534813 Si02
#       5
#     8  16  16   8   8
#     4  10  20  34  52  76 108 143 178 218 262 308
#     4  10  19  33  53  77 106 139 176 218 266 316
#     4  10  20  34  53  79 109 140 177 218 261 311
#     4   8  17  31  48  76 111 141 171 213 265 321
#     4  10  18  31  55  82 107 138 178 221 261 305
#
# _framework density 21.548611999999999
#
# number of rings (size 3 to 8) (size 9 to 14) (size 15 to 20)
#    0.000    2.286    0.000    3.429    0.000    2.286 
#    0.000    7.143    0.000    6.857    0.000    0.000 
#    0.000    0.000    0.000    0.000    0.000    0.000 
#
# Total GULP energy -155927.696345 kJ/mol
# GULP energy per Si atom -5568.846298 kJ/mol
# Density = 2.149957 g / cm^3
# Si number density = 21.548612 Si / 1000 Ang^3
#
#
#
# Elastic Constant Matrix: (Units=GPa)
#
#
# Indices 1 2 3 4 5 6 
#
# 1 74.1146 16.5057 65.4064 0.0000 0.0000 0.0000
# 2 16.5057 108.0499 26.3222 0.0000 0.0000 0.0000
# 3 65.4064 26.3222 175.5935 0.0000 0.0000 0.0000
# 4 0.0000 0.0000 0.0000 61.2684 0.0000 0.0000
# 5 0.0000 0.0000 0.0000 0.0000 26.6987 0.0000
# 6 0.0000 0.0000 0.0000 0.0000 0.0000 3.6018
#
#
#
# Elastic Compliance Matrix: (Units=1/GPa)
#
#
# Indices 1 2 3 4 5 6 
#
# 1 0.020276 -0.001305 -0.007357 0.000000 0.000000 0.000000
# 2 -0.001305 0.009690 -0.000966 0.000000 0.000000 0.000000
# 3 -0.007357 -0.000966 0.008580 0.000000 0.000000 0.000000
# 4 0.000000 0.000000 0.000000 0.016322 0.000000 0.000000
# 5 0.000000 0.000000 0.000000 0.000000 0.037455 0.000000
# 6 0.000000 0.000000 0.000000 0.000000 0.000000 0.277641
#
#
# Mechanical properties :
#
#
# Convention : Reuss Voigt Hill
#
# Bulk Modulus (GPa) = 51.84306 63.80295 57.82301
# Shear Modulus (GPa) = 12.63746 34.94869 23.79308
#
# Velocity S-wave (km/s) = 2.42433 4.03159 3.32649
# Velocity P-wave (km/s) = 5.65220 7.16553 6.45338
#
# Compressibility (1/GPa) = 0.01928898
#
# Stress axis : x y z
#
# Youngs Moduli (GPa) = 49.32021 103.20157 116.54809
#
# Poissons Ratio (x) = 0.13469 0.85742
# Poissons Ratio (y) = 0.06437 0.11263
# Poissons Ratio (z) = 0.36284 0.09973
#
# Static dielectric constant tensor:
#      x y z
#    x 1.753620 0.000000 0.000000 
#    y 0.000000 1.858130 0.000000 
#    z 0.000000 0.000000 1.782270 
# 
# From -- ./inp_files/58203.got.cif
#   From: 2010.05.17/outbox.cif.g08.bks.cpg/sg74_30_cif.got.tgz:58203.got - 2010.06.03 17:57:02.
