data_PCOD9534110
_publ_section_title
;
Structure prediction by ZEFSAII (Michael W. Deem and Ramdas Pophale) SiO2 
 PCOD9534110
Probable space group: I M M A
;
_chemical_formula_sum "Si O2"
_cell_formula_units_Z 112
_cell_length_a 31.630490
_cell_length_b 13.544663
_cell_length_c 14.024192
_cell_angle_alpha 90.000000
_cell_angle_beta 90.000000
_cell_angle_gamma 90.000000
_cell_volume 6008.305027
_symmetry_space_group_name_H-M "I M M A"
_symmetry_group_IT_number 74
_symmetry_cell_setting 'orthorhombic'
loop_
_space_group_symop_operation_xyz
x,y,z
-x,1/2-y,z
x,-y,-z
-x,1/2+y,-z
-x,-y,-z
x,1/2+y,-z
-x,y,z
x,1/2-y,z
1/2+x,1/2+y,1/2+z
1/2-x,-y,1/2+z
1/2+x,1/2-y,1/2-z
1/2-x,y,1/2-z
1/2-x,1/2-y,1/2-z
1/2+x,y,1/2-z
1/2-x,1/2+y,1/2+z
1/2+x,-y,1/2+z
loop_
_atom_site_type_symbol
_atom_site_label
_atom_site_fract_x
_atom_site_fract_y
_atom_site_fract_z
Si Si1 0.576379 0.133292 0.415489
Si Si2 0.048587 0.631582 0.699120
Si Si3 0.869505 0.867153 0.228910
Si Si4 0.702259 0.865861 0.768913
Si Si5 0.544406 0.131512 0.622004
Si Si6 0.130578 0.980337 0.612494
Si Si7 0.664990 0.472007 0.400748
O O1 0.586766 0.250000 0.420286
O O2 0.554835 0.116734 0.313255
O O3 0.549847 0.110761 0.510088
O O4 0.618511 0.069676 0.422812
O O5 0.053142 0.750000 0.682603
O O6 0.087129 0.575539 0.645554
O O7 0.000000 0.604261 0.672788
O O8 0.863248 0.750000 0.226158
O O9 0.915019 0.893911 0.183515
O O10 0.868320 0.914916 0.332747
O O11 0.837589 0.929348 0.163055
O O12 0.703639 0.750000 0.792365
O O13 0.750000 0.903173 0.750000
O O14 0.670991 0.920002 0.844160
O O15 0.682789 0.886057 0.665143
O O16 0.500000 0.090023 0.657432
O O17 0.542727 0.250000 0.628806
O O18 0.132205 0.000000 0.500000
O O19 0.686482 0.500000 0.500000
#
# Coordination Sequence:
#
# PCOD9534110 Si02
#       7
#    16  16  16  16  16  16  16
#     4  10  17  30  53  83 117 152 192 238 291 352
#     4  10  20  35  58  89 123 159 205 262 312 354
#     4  10  21  36  51  76 112 154 200 238 282 340
#     4  10  22  42  68  94 118 146 187 243 302 363
#     4   9  17  29  47  75 114 156 194 232 279 340
#     4  11  24  41  63  86 116 157 203 252 306 356
#     4  11  20  33  56  88 118 152 185 226 288 353
#
# _framework density 18.640864000000001
#
# number of rings (size 3 to 8) (size 9 to 14) (size 15 to 20)
#    0.000    1.857    4.286    1.286    0.000    4.857 
#    0.000    0.714    0.000    8.571    0.000    0.000 
#    0.000    0.000    0.000    0.000    0.000    0.000 
#
# Total GULP energy -312126.421864 kJ/mol
# GULP energy per Si atom -5573.686105 kJ/mol
# Density = 1.859844 g / cm^3
# Si number density = 18.640864 Si / 1000 Ang^3
#
#
#
# Elastic Constant Matrix: (Units=GPa)
#
#
# Indices 1 2 3 4 5 6 
#
# 1 85.4701 9.7551 25.1417 0.0000 0.0000 0.0000
# 2 9.7551 87.0319 13.0037 0.0000 0.0000 0.0000
# 3 25.1417 13.0037 127.1841 0.0000 0.0000 0.0000
# 4 0.0000 0.0000 0.0000 18.8758 0.0000 0.0000
# 5 0.0000 0.0000 0.0000 0.0000 -0.9981 0.0000
# 6 0.0000 0.0000 0.0000 0.0000 0.0000 15.5161
#
#
#
# Elastic Compliance Matrix: (Units=1/GPa)
#
#
# Indices 1 2 3 4 5 6 
#
# 1 0.012516 -0.001049 -0.002367 0.000000 0.000000 0.000000
# 2 -0.001049 0.011756 -0.000995 0.000000 0.000000 0.000000
# 3 -0.002367 -0.000995 0.008432 0.000000 0.000000 0.000000
# 4 0.000000 0.000000 0.000000 0.052978 0.000000 0.000000
# 5 0.000000 0.000000 0.000000 0.000000 -1.001947 0.000000
# 6 0.000000 0.000000 0.000000 0.000000 0.000000 0.064449
#
#
# Mechanical properties :
#
#
# Convention : Reuss Voigt Hill
#
# Bulk Modulus (GPa) = 41.87070 43.94300 42.90685
# Shear Modulus (GPa) = -5.98779 23.46446 8.73833
#
# Velocity S-wave (km/s) = -1.79420 3.55176 2.16747
# Velocity P-wave (km/s) = 4.26829 6.35961 5.41585
#
# Compressibility (1/GPa) = 0.02388305
#
# Stress axis : x y z
#
# Youngs Moduli (GPa) = 79.89784 85.06112 118.59312
#
# Poissons Ratio (x) = 0.08925 0.28069
# Poissons Ratio (y) = 0.08383 0.11795
# Poissons Ratio (z) = 0.18911 0.08460
#
# Static dielectric constant tensor:
#      x y z
#    x 1.697500 0.000000 0.000000 
#    y 0.000000 1.668320 0.000000 
#    z 0.000000 0.000000 1.669050 
# 
# From -- ./inp_files/37918.got.cif
#   From: 2010.05.17/outbox.cif.g08.bks.cpg/sg74_19_cif.got.tgz:37918.got - 2010.06.03 17:57:02.
