data_PCOD9534675
_publ_section_title
;
Structure prediction by ZEFSAII (Michael W. Deem and Ramdas Pophale) SiO2 
 PCOD9534675
Probable space group: I M M A
;
_chemical_formula_sum "Si O2"
_cell_formula_units_Z 80
_cell_length_a 23.198748
_cell_length_b 9.432072
_cell_length_c 24.954021
_cell_angle_alpha 90.000000
_cell_angle_beta 90.000000
_cell_angle_gamma 90.000000
_cell_volume 5460.245767
_symmetry_space_group_name_H-M "I M M A"
_symmetry_group_IT_number 74
_symmetry_cell_setting 'orthorhombic'
loop_
_space_group_symop_operation_xyz
x,y,z
-x,1/2-y,z
x,-y,-z
-x,1/2+y,-z
-x,-y,-z
x,1/2+y,-z
-x,y,z
x,1/2-y,z
1/2+x,1/2+y,1/2+z
1/2-x,-y,1/2+z
1/2+x,1/2-y,1/2-z
1/2-x,y,1/2-z
1/2-x,1/2-y,1/2-z
1/2+x,y,1/2-z
1/2-x,1/2+y,1/2+z
1/2+x,-y,1/2+z
loop_
_atom_site_type_symbol
_atom_site_label
_atom_site_fract_x
_atom_site_fract_y
_atom_site_fract_z
Si Si1 0.670068 0.578832 0.776663
Si Si2 0.619817 0.958426 0.378561
Si Si3 0.732833 0.919308 0.323145
Si Si4 0.568062 0.409206 0.738191
Si Si5 0.069072 0.250000 0.089543
Si Si6 0.431521 0.750000 0.462318
O O1 0.675639 0.750000 0.776480
O O2 0.698783 0.504182 0.724076
O O3 0.706427 0.502199 0.824018
O O4 0.604747 0.524596 0.770935
O O5 0.688089 0.934654 0.371898
O O6 0.589515 0.906560 0.323670
O O7 0.595473 0.881306 0.430763
O O8 0.600004 0.117683 0.384277
O O9 0.739637 0.750000 0.312280
O O10 0.500000 0.436049 0.739117
O O11 0.579602 0.250000 0.759486
O O12 0.000000 0.250000 0.098835
O O13 0.078380 0.250000 0.025531
O O14 0.500000 0.750000 0.453850
#
# Coordination Sequence:
#
# PCOD9534675 Si02
#       6
#    16  16  16  16   8   8
#     4  10  19  28  44  66  87 107 134 180 223 254
#     4  11  20  32  47  64  81 111 150 189 222 261
#     4  10  18  31  46  60  81 110 144 178 214 263
#     4  10  19  31  46  63  88 120 150 177 209 258
#     4  11  24  32  44  63  86 112 141 190 239 271
#     4  11  20  36  48  59  82 112 149 186 231 273
#
# _framework density 14.651355000000001
#
# number of rings (size 3 to 8) (size 9 to 14) (size 15 to 20)
#    0.000    1.600    2.000    7.200    7.000    2.000 
#    0.000    0.000    0.000    0.000    0.000    0.000 
#    0.000    0.000    0.000    0.000    0.000    6.000 
#
# Total GULP energy -222716.180056 kJ/mol
# GULP energy per Si atom -5567.904501 kJ/mol
# Density = 1.461801 g / cm^3
# Si number density = 14.651355 Si / 1000 Ang^3
#
#
#
# Elastic Constant Matrix: (Units=GPa)
#
#
# Indices 1 2 3 4 5 6 
#
# 1 81.8477 47.3511 28.0736 0.0000 0.0000 0.0000
# 2 47.3511 153.5159 18.3592 0.0000 0.0000 0.0000
# 3 28.0736 18.3592 27.8936 0.0000 0.0000 0.0000
# 4 0.0000 0.0000 0.0000 -25.0690 0.0000 0.0000
# 5 0.0000 0.0000 0.0000 0.0000 15.6178 0.0000
# 6 0.0000 0.0000 0.0000 0.0000 0.0000 24.4599
#
#
#
# Elastic Compliance Matrix: (Units=1/GPa)
#
#
# Indices 1 2 3 4 5 6 
#
# 1 0.020965 -0.004280 -0.018283 0.000000 0.000000 0.000000
# 2 -0.004280 0.007944 -0.000921 0.000000 0.000000 0.000000
# 3 -0.018283 -0.000921 0.054858 0.000000 0.000000 0.000000
# 4 0.000000 0.000000 0.000000 -0.039890 0.000000 0.000000
# 5 0.000000 0.000000 0.000000 0.000000 0.064029 0.000000
# 6 0.000000 0.000000 0.000000 0.000000 0.000000 0.040883
#
#
# Mechanical properties :
#
#
# Convention : Reuss Voigt Hill
#
# Bulk Modulus (GPa) = 27.17502 50.09165 38.63333
# Shear Modulus (GPa) = 24.03554 14.29998 19.16776
#
# Velocity S-wave (km/s) = 4.05470 3.12752 3.62091
# Velocity P-wave (km/s) = 6.36466 6.87787 6.62624
#
# Compressibility (1/GPa) = 0.03679850
#
# Stress axis : x y z
#
# Youngs Moduli (GPa) = 47.69839 125.87644 18.22883
#
# Poissons Ratio (x) = 0.53876 0.33328
# Poissons Ratio (y) = 0.20415 0.01679
# Poissons Ratio (z) = 0.87208 0.11595
#
# Static dielectric constant tensor:
#      x y z
#    x 1.535260 0.000000 0.000000 
#    y 0.000000 1.337140 0.000000 
#    z 0.000000 0.000000 1.470460 
# 
# From -- ./inp_files/68543.got.cif
#   From: 2010.05.17/outbox.cif.g08.bks.cpg/sg74_35_cif.got.tgz:68543.got - 2010.06.03 17:57:02.
