data_PCOD9534397
_publ_section_title
;
Structure prediction by ZEFSAII (Michael W. Deem and Ramdas Pophale) SiO2 
 PCOD9534397
Probable space group: I M M A
;
_chemical_formula_sum "Si O2"
_cell_formula_units_Z 104
_cell_length_a 29.769008
_cell_length_b 9.292676
_cell_length_c 23.218124
_cell_angle_alpha 90.000000
_cell_angle_beta 90.000000
_cell_angle_gamma 90.000000
_cell_volume 6422.916622
_symmetry_space_group_name_H-M "I M M A"
_symmetry_group_IT_number 74
_symmetry_cell_setting 'orthorhombic'
loop_
_space_group_symop_operation_xyz
x,y,z
-x,1/2-y,z
x,-y,-z
-x,1/2+y,-z
-x,-y,-z
x,1/2+y,-z
-x,y,z
x,1/2-y,z
1/2+x,1/2+y,1/2+z
1/2-x,-y,1/2+z
1/2+x,1/2-y,1/2-z
1/2-x,y,1/2-z
1/2-x,1/2-y,1/2-z
1/2+x,y,1/2-z
1/2-x,1/2+y,1/2+z
1/2+x,-y,1/2+z
loop_
_atom_site_type_symbol
_atom_site_label
_atom_site_fract_x
_atom_site_fract_y
_atom_site_fract_z
Si Si1 0.734474 0.575543 0.438530
Si Si2 0.500000 0.082724 0.303032
Si Si3 0.177383 0.585891 0.844456
Si Si4 0.250000 0.017128 0.250000
Si Si5 0.910099 0.416769 0.802564
Si Si6 0.187794 0.919589 0.353751
Si Si7 0.500000 0.084856 0.162569
Si Si8 0.911104 0.416585 0.663389
O O1 0.731571 0.500000 0.500000
O O2 0.731670 0.750000 0.441726
O O3 0.697043 0.510243 0.396066
O O4 0.781040 0.533361 0.406500
O O5 0.500000 0.250000 0.321003
O O6 0.500000 0.082408 0.232846
O O7 0.455470 0.997380 0.321728
O O8 0.168295 0.750000 0.862364
O O9 0.215166 0.591095 0.793939
O O10 0.133111 0.507005 0.821537
O O11 0.216198 0.938919 0.294754
O O12 0.908140 0.250000 0.821726
O O13 0.910874 0.414644 0.733016
O O14 0.181309 0.750000 0.359634
O O15 0.137561 0.981506 0.352932
O O16 0.500000 0.250000 0.144282
O O17 0.454515 0.004957 0.144025
O O18 0.915352 0.250000 0.644500
#
# Coordination Sequence:
#
# PCOD9534397 Si02
#       8
#    16   8  16   8  16  16   8  16
#     4  10  21  37  54  71  95 127 166 208 247 292
#     4   9  17  29  43  63  96 133 164 199 241 287
#     4  11  21  32  48  72 101 132 164 201 247 293
#     4  10  18  30  44  70 101 130 159 200 243 292
#     4  10  18  29  46  69  97 131 168 201 238 289
#     4   9  17  29  49  72  96 127 162 199 243 293
#     4   9  17  27  39  61  92 129 160 193 236 281
#     4   9  16  28  44  66  93 127 163 195 232 287
#
# _framework density 16.192019999999999
#
# number of rings (size 3 to 8) (size 9 to 14) (size 15 to 20)
#    0.000    2.308    1.538    2.308    0.000    3.692 
#    0.000    1.538    0.000    0.000    0.000    1.077 
#    0.000    0.000    0.000    0.000    0.000    0.000 
#
# Total GULP energy -289479.142012 kJ/mol
# GULP energy per Si atom -5566.906577 kJ/mol
# Density = 1.615517 g / cm^3
# Si number density = 16.192020 Si / 1000 Ang^3
#
#
#
# Elastic Constant Matrix: (Units=GPa)
#
#
# Indices 1 2 3 4 5 6 
#
# 1 133.5140 61.2917 12.3122 0.0000 0.0000 0.0000
# 2 61.2917 102.5848 22.1077 0.0000 0.0000 0.0000
# 3 12.3122 22.1077 53.1419 0.0000 0.0000 0.0000
# 4 0.0000 0.0000 0.0000 13.0886 0.0000 0.0000
# 5 0.0000 0.0000 0.0000 0.0000 11.1497 0.0000
# 6 0.0000 0.0000 0.0000 0.0000 0.0000 8.3350
#
#
#
# Elastic Compliance Matrix: (Units=1/GPa)
#
#
# Indices 1 2 3 4 5 6 
#
# 1 0.010322 -0.006209 0.000191 0.000000 0.000000 0.000000
# 2 -0.006209 0.014442 -0.004570 0.000000 0.000000 0.000000
# 3 0.000191 -0.004570 0.020674 0.000000 0.000000 0.000000
# 4 0.000000 0.000000 0.000000 0.076403 0.000000 0.000000
# 5 0.000000 0.000000 0.000000 0.000000 0.089688 0.000000
# 6 0.000000 0.000000 0.000000 0.000000 0.000000 0.119977
#
#
# Mechanical properties :
#
#
# Convention : Reuss Voigt Hill
#
# Bulk Modulus (GPa) = 41.21172 53.40711 47.30942
# Shear Modulus (GPa) = 13.85929 19.41658 16.63793
#
# Velocity S-wave (km/s) = 2.92881 3.46662 3.20900
# Velocity P-wave (km/s) = 6.07819 7.00561 6.55831
#
# Compressibility (1/GPa) = 0.02426494
#
# Stress axis : x y z
#
# Youngs Moduli (GPa) = 96.87715 69.24110 48.36921
#
# Poissons Ratio (x) = 0.42989 -0.00925
# Poissons Ratio (y) = 0.60147 0.22103
# Poissons Ratio (z) = -0.01853 0.31641
#
# Static dielectric constant tensor:
#      x y z
#    x 1.572050 0.000000 0.000000 
#    y 0.000000 1.550300 0.000000 
#    z 0.000000 0.000000 1.510490 
# 
# From -- ./inp_files/62706.got.cif
#   From: 2010.05.17/outbox.cif.g08.bks.cpg/sg74_32_cif.got.tgz:62706.got - 2010.06.03 17:57:02.
