data_PCOD9534116
_publ_section_title
;
Structure prediction by ZEFSAII (Michael W. Deem and Ramdas Pophale) SiO2 
 PCOD9534116
Probable space group: I M M A
;
_chemical_formula_sum "Si O2"
_cell_formula_units_Z 80
_cell_length_a 17.369256
_cell_length_b 9.440722
_cell_length_c 28.953063
_cell_angle_alpha 90.000000
_cell_angle_beta 90.000000
_cell_angle_gamma 90.000000
_cell_volume 4747.674550
_symmetry_space_group_name_H-M "I M M A"
_symmetry_group_IT_number 74
_symmetry_cell_setting 'orthorhombic'
loop_
_space_group_symop_operation_xyz
x,y,z
-x,1/2-y,z
x,-y,-z
-x,1/2+y,-z
-x,-y,-z
x,1/2+y,-z
-x,y,z
x,1/2-y,z
1/2+x,1/2+y,1/2+z
1/2-x,-y,1/2+z
1/2+x,1/2-y,1/2-z
1/2-x,y,1/2-z
1/2-x,1/2-y,1/2-z
1/2+x,y,1/2-z
1/2-x,1/2+y,1/2+z
1/2+x,-y,1/2+z
loop_
_atom_site_type_symbol
_atom_site_label
_atom_site_fract_x
_atom_site_fract_y
_atom_site_fract_z
Si Si1 0.260496 0.078710 0.138640
Si Si2 0.174726 0.084311 0.045071
Si Si3 0.411752 0.421626 0.182056
Si Si4 0.364037 0.419644 0.286514
Si Si5 0.500000 0.417075 0.663828
Si Si6 0.500000 0.410857 0.426070
O O1 0.262082 0.250000 0.135788
O O2 0.213439 0.031740 0.093149
O O3 0.348406 0.028603 0.144867
O O4 0.214560 0.048107 0.186204
O O5 0.194224 0.250000 0.040212
O O6 0.081505 0.077101 0.048297
O O7 0.200520 0.000000 0.000000
O O8 0.500000 0.473631 0.178380
O O9 0.415421 0.250000 0.178875
O O10 0.376067 0.451766 0.232640
O O11 0.377373 0.250000 0.291706
O O12 0.427226 0.509446 0.312966
O O13 0.500000 0.250000 0.669400
O O14 0.500000 0.465948 0.611205
O O15 0.500000 0.250000 0.404972
#
# Coordination Sequence:
#
# PCOD9534116 Si02
#       6
#    16  16  16  16   8   8
#     4   9  17  29  48  74 101 127 160 205 248 288
#     4  10  20  33  51  72  98 127 162 202 246 293
#     4   9  16  26  48  80 102 121 159 210 250 282
#     4  10  17  31  51  71  99 134 169 199 239 288
#     4  12  22  29  45  74 107 138 167 199 238 287
#     4  10  19  35  53  70  94 132 168 203 243 285
#
# _framework density 16.850353999999999
#
# number of rings (size 3 to 8) (size 9 to 14) (size 15 to 20)
#    0.000    2.200    3.000    1.800    0.000    3.200 
#    0.000    0.000    0.000    4.200    0.000    0.000 
#    0.000    0.000    0.000    0.000    0.000    0.000 
#
# Total GULP energy -222669.382392 kJ/mol
# GULP energy per Si atom -5566.734560 kJ/mol
# Density = 1.681200 g / cm^3
# Si number density = 16.850354 Si / 1000 Ang^3
#
#
#
# Elastic Constant Matrix: (Units=GPa)
#
#
# Indices 1 2 3 4 5 6 
#
# 1 127.5966 20.4547 56.9965 0.0000 0.0000 0.0000
# 2 20.4547 14.0634 15.2260 0.0000 0.0000 0.0000
# 3 56.9965 15.2260 67.8359 0.0000 0.0000 0.0000
# 4 0.0000 0.0000 0.0000 13.7896 0.0000 0.0000
# 5 0.0000 0.0000 0.0000 0.0000 10.6584 0.0000
# 6 0.0000 0.0000 0.0000 0.0000 0.0000 3.0285
#
#
#
# Elastic Compliance Matrix: (Units=1/GPa)
#
#
# Indices 1 2 3 4 5 6 
#
# 1 0.013478 -0.009700 -0.009147 0.000000 0.000000 0.000000
# 2 -0.009700 0.100914 -0.014501 0.000000 0.000000 0.000000
# 3 -0.009147 -0.014501 0.025682 0.000000 0.000000 0.000000
# 4 0.000000 0.000000 0.000000 0.072519 0.000000 0.000000
# 5 0.000000 0.000000 0.000000 0.000000 0.093822 0.000000
# 6 0.000000 0.000000 0.000000 0.000000 0.000000 0.330194
#
#
# Mechanical properties :
#
#
# Convention : Reuss Voigt Hill
#
# Bulk Modulus (GPa) = 13.62797 43.87225 28.75011
# Shear Modulus (GPa) = 6.87036 13.28322 10.07679
#
# Velocity S-wave (km/s) = 2.02142 2.81072 2.44809
# Velocity P-wave (km/s) = 3.68149 6.05198 5.00898
#
# Compressibility (1/GPa) = 0.07337848
#
# Stress axis : x y z
#
# Youngs Moduli (GPa) = 74.19361 9.90942 38.93797
#
# Poissons Ratio (x) = 0.09612 0.35618
# Poissons Ratio (y) = 0.71968 0.56462
# Poissons Ratio (z) = 0.67868 0.14369
#
# Static dielectric constant tensor:
#      x y z
#    x 1.613760 0.000000 0.000000 
#    y 0.000000 1.546140 0.000000 
#    z 0.000000 0.000000 1.583490 
# 
# From -- ./inp_files/67568.got.cif
#   From: 2010.05.17/outbox.cif.g08.bks.cpg/sg74_34_cif.got.tgz:67568.got - 2010.06.03 17:57:02.
