data_PCOD9534692
_publ_section_title
;
Structure prediction by ZEFSAII (Michael W. Deem and Ramdas Pophale) SiO2 
 PCOD9534692
Probable space group: I M M A
;
_chemical_formula_sum "Si O2"
_cell_formula_units_Z 72
_cell_length_a 14.759427
_cell_length_b 9.685174
_cell_length_c 30.591888
_cell_angle_alpha 90.000000
_cell_angle_beta 90.000000
_cell_angle_gamma 90.000000
_cell_volume 4373.037539
_symmetry_space_group_name_H-M "I M M A"
_symmetry_group_IT_number 74
_symmetry_cell_setting 'orthorhombic'
loop_
_space_group_symop_operation_xyz
x,y,z
-x,1/2-y,z
x,-y,-z
-x,1/2+y,-z
-x,-y,-z
x,1/2+y,-z
-x,y,z
x,1/2-y,z
1/2+x,1/2+y,1/2+z
1/2-x,-y,1/2+z
1/2+x,1/2-y,1/2-z
1/2-x,y,1/2-z
1/2-x,1/2-y,1/2-z
1/2+x,y,1/2-z
1/2-x,1/2+y,1/2+z
1/2+x,-y,1/2+z
loop_
_atom_site_type_symbol
_atom_site_label
_atom_site_fract_x
_atom_site_fract_y
_atom_site_fract_z
Si Si1 0.500000 0.408399 0.561792
Si Si2 0.000000 0.082998 0.744298
Si Si3 0.294967 0.402829 0.360973
Si Si4 0.500000 0.512231 0.655140
Si Si5 0.689943 0.911782 0.206409
Si Si6 0.678191 0.085435 0.460660
O O1 0.500000 0.250000 0.545701
O O2 0.500000 0.404976 0.614734
O O3 0.414347 0.498429 0.546733
O O4 0.090393 0.035443 0.719496
O O5 0.000000 0.250000 0.744175
O O6 0.000000 0.040662 0.795221
O O7 0.265388 0.250000 0.347999
O O8 0.403764 0.412018 0.352549
O O9 0.241555 0.511588 0.332126
O O10 0.277634 0.421689 0.412633
O O11 0.682871 0.750000 0.195585
O O12 0.750000 0.924414 0.250000
O O13 0.665137 0.250000 0.470189
O O14 0.724691 0.000000 0.500000
#
# Coordination Sequence:
#
# PCOD9534692 Si02
#       6
#     8   8  16   8  16  16
#     4  10  19  28  45  69  97 134 173 209 248 295
#     4  10  19  33  50  73 103 133 171 211 247 287
#     4  10  21  35  50  73 104 134 168 212 256 300
#     4  10  18  31  48  72 101 139 175 210 246 294
#     4  10  20  34  53  75 101 135 171 210 248 294
#     4  10  20  33  48  67  96 130 167 210 255 303
#
# _framework density 16.464527
#
# number of rings (size 3 to 8) (size 9 to 14) (size 15 to 20)
#    0.000    2.000    2.222    2.000    0.000    7.556 
#    0.000    0.556    0.000    0.000    0.000    0.778 
#    0.000    0.000    0.000    0.000    0.000    0.000 
#
# Total GULP energy -200492.589212 kJ/mol
# GULP energy per Si atom -5569.238589 kJ/mol
# Density = 1.642705 g / cm^3
# Si number density = 16.464527 Si / 1000 Ang^3
#
#
#
# Elastic Constant Matrix: (Units=GPa)
#
#
# Indices 1 2 3 4 5 6 
#
# 1 68.7146 28.1930 35.1205 0.0000 0.0000 0.0000
# 2 28.1930 103.6380 60.1582 0.0000 0.0000 0.0000
# 3 35.1205 60.1582 111.7218 0.0000 0.0000 0.0000
# 4 0.0000 0.0000 0.0000 25.0178 0.0000 0.0000
# 5 0.0000 0.0000 0.0000 0.0000 18.0797 0.0000
# 6 0.0000 0.0000 0.0000 0.0000 0.0000 5.7232
#
#
#
# Elastic Compliance Matrix: (Units=1/GPa)
#
#
# Indices 1 2 3 4 5 6 
#
# 1 0.017710 -0.002307 -0.004325 0.000000 0.000000 0.000000
# 2 -0.002307 0.014337 -0.006994 0.000000 0.000000 0.000000
# 3 -0.004325 -0.006994 0.014077 0.000000 0.000000 0.000000
# 4 0.000000 0.000000 0.000000 0.039971 0.000000 0.000000
# 5 0.000000 0.000000 0.000000 0.000000 0.055311 0.000000
# 6 0.000000 0.000000 0.000000 0.000000 0.000000 0.174728
#
#
# Mechanical properties :
#
#
# Convention : Reuss Voigt Hill
#
# Bulk Modulus (GPa) = 52.99392 59.00199 55.99796
# Shear Modulus (GPa) = 14.29891 20.47099 17.38495
#
# Velocity S-wave (km/s) = 2.95017 3.52993 3.25299
# Velocity P-wave (km/s) = 6.62279 7.24758 6.94222
#
# Compressibility (1/GPa) = 0.01887009
#
# Stress axis : x y z
#
# Youngs Moduli (GPa) = 56.46493 69.75115 71.03959
#
# Poissons Ratio (x) = 0.16094 0.30724
# Poissons Ratio (y) = 0.13028 0.49689
# Poissons Ratio (z) = 0.24421 0.48787
#
# Static dielectric constant tensor:
#      x y z
#    x 1.539700 0.000000 0.000000 
#    y 0.000000 1.560810 0.000000 
#    z 0.000000 0.000000 1.579230 
# 
# From -- ./inp_files/66804.got.cif
#   From: 2010.05.17/outbox.cif.g08.bks.cpg/sg74_34_cif.got.tgz:66804.got - 2010.06.03 17:57:02.
