data_PCOD9534703
_publ_section_title
;
Structure prediction by ZEFSAII (Michael W. Deem and Ramdas Pophale) SiO2 
 PCOD9534703
Probable space group: I M M A
;
_chemical_formula_sum "Si O2"
_cell_formula_units_Z 80
_cell_length_a 18.052036
_cell_length_b 20.021265
_cell_length_c 12.906209
_cell_angle_alpha 90.000000
_cell_angle_beta 90.000000
_cell_angle_gamma 90.000000
_cell_volume 4664.621381
_symmetry_space_group_name_H-M "I M M A"
_symmetry_group_IT_number 74
_symmetry_cell_setting 'orthorhombic'
loop_
_space_group_symop_operation_xyz
x,y,z
-x,1/2-y,z
x,-y,-z
-x,1/2+y,-z
-x,-y,-z
x,1/2+y,-z
-x,y,z
x,1/2-y,z
1/2+x,1/2+y,1/2+z
1/2-x,-y,1/2+z
1/2+x,1/2-y,1/2-z
1/2-x,y,1/2-z
1/2-x,1/2-y,1/2-z
1/2+x,y,1/2-z
1/2-x,1/2+y,1/2+z
1/2+x,-y,1/2+z
loop_
_atom_site_type_symbol
_atom_site_label
_atom_site_fract_x
_atom_site_fract_y
_atom_site_fract_z
Si Si1 0.301510 0.324383 0.150869
Si Si2 0.918124 0.172096 0.812203
Si Si3 0.413210 0.433699 0.112803
Si Si4 0.234288 0.828686 0.072565
Si Si5 0.869892 0.081864 0.626486
O O1 0.331747 0.250000 0.135466
O O2 0.250000 0.326148 0.250000
O O3 0.368920 0.374352 0.165096
O O4 0.251483 0.338457 0.049144
O O5 0.911413 0.250000 0.778468
O O6 0.849273 0.159391 0.889086
O O7 0.912771 0.123183 0.713861
O O8 0.000000 0.164496 0.860061
O O9 0.500000 0.439617 0.135654
O O10 0.372545 0.502552 0.144356
O O11 0.404038 0.416832 0.989792
O O12 0.251550 0.750000 0.097059
O O13 0.290534 0.881038 0.124758
#
# Coordination Sequence:
#
# PCOD9534703 Si02
#       5
#    16  16  16  16  16
#     4   9  19  36  54  71  94 126 165 206 247 293
#     4  10  19  30  47  74 106 136 164 197 241 293
#     4  10  20  33  50  74  99 124 161 206 248 288
#     4   9  18  32  50  73 100 130 165 201 240 293
#     4  10  18  31  49  71 101 133 161 196 242 294
#
# _framework density 17.150373999999999
#
# number of rings (size 3 to 8) (size 9 to 14) (size 15 to 20)
#    0.000    2.400    0.000    3.600    0.000    4.400 
#    0.000    1.000    0.000    3.600    0.000   14.000 
#    0.000    0.000    0.000    0.000    0.000    0.000 
#
# Total GULP energy -222701.562947 kJ/mol
# GULP energy per Si atom -5567.539074 kJ/mol
# Density = 1.711134 g / cm^3
# Si number density = 17.150374 Si / 1000 Ang^3
#
#
#
# Elastic Constant Matrix: (Units=GPa)
#
#
# Indices 1 2 3 4 5 6 
#
# 1 140.6893 73.8233 32.5365 0.0000 0.0000 0.0000
# 2 73.8233 96.9494 35.0929 0.0000 0.0000 0.0000
# 3 32.5365 35.0929 36.4283 0.0000 0.0000 0.0000
# 4 0.0000 0.0000 0.0000 14.8052 0.0000 0.0000
# 5 0.0000 0.0000 0.0000 0.0000 15.4165 0.0000
# 6 0.0000 0.0000 0.0000 0.0000 0.0000 -5.4712
#
#
#
# Elastic Compliance Matrix: (Units=1/GPa)
#
#
# Indices 1 2 3 4 5 6 
#
# 1 0.012041 -0.008100 -0.002951 0.000000 0.000000 0.000000
# 2 -0.008100 0.021287 -0.013271 0.000000 0.000000 0.000000
# 3 -0.002951 -0.013271 0.042872 0.000000 0.000000 0.000000
# 4 0.000000 0.000000 0.000000 0.067544 0.000000 0.000000
# 5 0.000000 0.000000 0.000000 0.000000 0.064866 0.000000
# 6 0.000000 0.000000 0.000000 0.000000 0.000000 -0.182774
#
#
# Mechanical properties :
#
#
# Convention : Reuss Voigt Hill
#
# Bulk Modulus (GPa) = 36.29270 61.88583 49.08927
# Shear Modulus (GPa) = 59.76282 13.79105 36.77694
#
# Velocity S-wave (km/s) = 5.90949 2.83879 4.63577
# Velocity P-wave (km/s) = 8.23226 6.84891 7.57224
#
# Compressibility (1/GPa) = 0.02755375
#
# Stress axis : x y z
#
# Youngs Moduli (GPa) = 83.05069 46.97778 23.32549
#
# Poissons Ratio (x) = 0.38054 0.06883
# Poissons Ratio (y) = 0.67275 0.30956
# Poissons Ratio (z) = 0.24508 0.62345
#
# Static dielectric constant tensor:
#      x y z
#    x 1.575800 0.000000 0.000000 
#    y 0.000000 1.602240 0.000000 
#    z 0.000000 0.000000 1.581250 
# 
# From -- ./inp_files/33980.got.cif
#   From: 2010.05.17/outbox.cif.g08.bks.cpg/sg74_17_cif.got.tgz:33980.got - 2010.06.03 17:57:02.
