data_PCOD9534501
_publ_section_title
;
Structure prediction by ZEFSAII (Michael W. Deem and Ramdas Pophale) SiO2 
 PCOD9534501
Probable space group: I M M A
;
_chemical_formula_sum "Si O2"
_cell_formula_units_Z 96
_cell_length_a 25.086956
_cell_length_b 8.530715
_cell_length_c 31.165662
_cell_angle_alpha 90.000000
_cell_angle_beta 90.000000
_cell_angle_gamma 90.000000
_cell_volume 6669.753098
_symmetry_space_group_name_H-M "I M M A"
_symmetry_group_IT_number 74
_symmetry_cell_setting 'orthorhombic'
loop_
_space_group_symop_operation_xyz
x,y,z
-x,1/2-y,z
x,-y,-z
-x,1/2+y,-z
-x,-y,-z
x,1/2+y,-z
-x,y,z
x,1/2-y,z
1/2+x,1/2+y,1/2+z
1/2-x,-y,1/2+z
1/2+x,1/2-y,1/2-z
1/2-x,y,1/2-z
1/2-x,1/2-y,1/2-z
1/2+x,y,1/2-z
1/2-x,1/2+y,1/2+z
1/2+x,-y,1/2+z
loop_
_atom_site_type_symbol
_atom_site_label
_atom_site_fract_x
_atom_site_fract_y
_atom_site_fract_z
Si Si1 0.139961 0.069289 0.379073
Si Si2 0.558081 0.438587 0.277945
Si Si3 0.939605 0.072296 0.682892
Si Si4 0.939391 0.939949 0.548294
Si Si5 0.214937 0.065203 0.689001
Si Si6 0.175454 0.937033 0.779469
O O1 0.153940 0.250000 0.386486
O O2 0.108530 0.004926 0.420718
O O3 0.094826 0.051576 0.342669
O O4 0.189474 0.984297 0.356360
O O5 0.500000 0.474379 0.298693
O O6 0.558981 0.250000 0.270993
O O7 0.558392 0.526230 0.232477
O O8 0.616327 0.478675 0.296592
O O9 0.918347 0.250000 0.677616
O O10 0.000000 0.070218 0.666803
O O11 0.938405 0.750000 0.549062
O O12 0.000000 0.987617 0.561595
O O13 0.931857 0.000000 0.500000
O O14 0.211465 0.250000 0.694454
O O15 0.183588 0.988753 0.729643
O O16 0.275946 0.012391 0.694666
O O17 0.181527 0.750000 0.780802
#
# Coordination Sequence:
#
# PCOD9534501 Si02
#       6
#    16  16  16  16  16  16
#     4  11  20  31  45  61  80 105 138 172 210 258
#     4   9  17  28  42  58  77 103 133 166 205 248
#     4  10  19  27  37  56  79 101 128 167 211 248
#     4   9  19  34  50  66  84 108 137 173 219 268
#     4  11  21  30  42  59  81 107 138 176 214 250
#     4  10  18  30  45  59  80 109 139 170 209 257
#
# _framework density 14.393337000000001
#
# number of rings (size 3 to 8) (size 9 to 14) (size 15 to 20)
#    0.000    2.000    1.667    4.500    0.000    3.667 
#    0.000    1.667    0.000    0.000    0.000    0.000 
#    0.000    0.000    0.000    0.000    0.000    0.833 
#
# Total GULP energy -267278.429841 kJ/mol
# GULP energy per Si atom -5568.300622 kJ/mol
# Density = 1.436058 g / cm^3
# Si number density = 14.393337 Si / 1000 Ang^3
#
#
#
# Elastic Constant Matrix: (Units=GPa)
#
#
# Indices 1 2 3 4 5 6 
#
# 1 116.9965 11.8287 31.0464 0.0000 0.0000 0.0000
# 2 11.8287 20.7546 7.0387 0.0000 0.0000 0.0000
# 3 31.0464 7.0387 49.4178 0.0000 0.0000 0.0000
# 4 0.0000 0.0000 0.0000 14.0358 0.0000 0.0000
# 5 0.0000 0.0000 0.0000 0.0000 23.6868 0.0000
# 6 0.0000 0.0000 0.0000 0.0000 0.0000 -28.9956
#
#
#
# Elastic Compliance Matrix: (Units=1/GPa)
#
#
# Indices 1 2 3 4 5 6 
#
# 1 0.010558 -0.003959 -0.006069 0.000000 0.000000 0.000000
# 2 -0.003959 0.052112 -0.004935 0.000000 0.000000 0.000000
# 3 -0.006069 -0.004935 0.024751 0.000000 0.000000 0.000000
# 4 0.000000 0.000000 0.000000 0.071246 0.000000 0.000000
# 5 0.000000 0.000000 0.000000 0.000000 0.042218 0.000000
# 6 0.000000 0.000000 0.000000 0.000000 0.000000 -0.034488
#
#
# Mechanical properties :
#
#
# Convention : Reuss Voigt Hill
#
# Bulk Modulus (GPa) = 17.39282 31.88847 24.64065
# Shear Modulus (GPa) = 23.20300 10.89576 17.04938
#
# Velocity S-wave (km/s) = 4.01941 2.75435 3.44544
# Velocity P-wave (km/s) = 5.80095 5.68492 5.74323
#
# Compressibility (1/GPa) = 0.05749499
#
# Stress axis : x y z
#
# Youngs Moduli (GPa) = 94.71446 19.18933 40.40168
#
# Poissons Ratio (x) = 0.07597 0.24520
# Poissons Ratio (y) = 0.37498 0.19939
# Poissons Ratio (z) = 0.57483 0.09470
#
# Static dielectric constant tensor:
#      x y z
#    x 1.538170 0.000000 0.000000 
#    y 0.000000 1.495800 0.000000 
#    z 0.000000 0.000000 1.451490 
# 
# From -- ./inp_files/64910.got.cif
#   From: 2010.05.17/outbox.cif.g08.bks.cpg/sg74_33_cif.got.tgz:64910.got - 2010.06.03 17:57:02.
