data_PCOD9534328
_publ_section_title
;
Structure prediction by ZEFSAII (Michael W. Deem and Ramdas Pophale) SiO2 
 PCOD9534328
Probable space group: I M M A
;
_chemical_formula_sum "Si O2"
_cell_formula_units_Z 80
_cell_length_a 9.114975
_cell_length_b 25.377991
_cell_length_c 20.840050
_cell_angle_alpha 90.000000
_cell_angle_beta 90.000000
_cell_angle_gamma 90.000000
_cell_volume 4820.715229
_symmetry_space_group_name_H-M "I M M A"
_symmetry_group_IT_number 74
_symmetry_cell_setting 'orthorhombic'
loop_
_space_group_symop_operation_xyz
x,y,z
-x,1/2-y,z
x,-y,-z
-x,1/2+y,-z
-x,-y,-z
x,1/2+y,-z
-x,y,z
x,1/2-y,z
1/2+x,1/2+y,1/2+z
1/2-x,-y,1/2+z
1/2+x,1/2-y,1/2-z
1/2-x,y,1/2-z
1/2-x,1/2-y,1/2-z
1/2+x,y,1/2-z
1/2-x,1/2+y,1/2+z
1/2+x,-y,1/2+z
loop_
_atom_site_type_symbol
_atom_site_label
_atom_site_fract_x
_atom_site_fract_y
_atom_site_fract_z
Si Si1 0.324540 0.461348 0.940422
Si Si2 0.175383 0.750000 0.866466
Si Si3 0.171520 0.133940 0.141744
Si Si4 0.174561 0.250000 0.504769
Si Si5 0.326909 0.856987 0.487055
Si Si6 0.325291 0.028946 0.184826
O O1 0.500000 0.451428 0.940694
O O2 0.239155 0.407364 0.951597
O O3 0.285759 0.491993 0.875373
O O4 0.292220 0.500000 0.000000
O O5 0.202646 0.806482 0.834052
O O6 0.272360 0.750000 0.930577
O O7 0.000000 0.750000 0.884252
O O8 0.269745 0.088088 0.170414
O O9 0.000000 0.122311 0.154306
O O10 0.192434 0.135095 0.064281
O O11 0.243591 0.196425 0.532093
O O12 0.000000 0.250000 0.509159
O O13 0.500000 0.851530 0.475907
O O14 0.500000 0.029121 0.191223
O O15 0.250000 0.010453 0.250000
#
# Coordination Sequence:
#
# PCOD9534328 Si02
#       6
#    16   8  16   8  16  16
#     4  10  20  35  54  78 106 134 173 220 265 310
#     4   8  16  30  47  71 100 133 172 219 262 305
#     4   9  17  31  50  72 101 134 172 214 260 306
#     4  10  18  28  46  73 108 141 170 209 259 309
#     4  10  19  31  51  78 107 137 172 215 260 310
#     4  11  23  37  53  73 103 138 174 217 262 314
#
# _framework density 16.595047999999998
#
# number of rings (size 3 to 8) (size 9 to 14) (size 15 to 20)
#    0.000    2.200    2.000    3.300    0.000    5.200 
#    0.000    0.500    0.000    0.000    0.000    0.700 
#    0.000    0.000    0.000    0.000    0.000    0.000 
#
# Total GULP energy -223150.950918 kJ/mol
# GULP energy per Si atom -5578.773773 kJ/mol
# Density = 1.655728 g / cm^3
# Si number density = 16.595048 Si / 1000 Ang^3
#
#
#
# Elastic Constant Matrix: (Units=GPa)
#
#
# Indices 1 2 3 4 5 6 
#
# 1 74.2132 72.5419 48.0874 0.0000 0.0000 0.0000
# 2 72.5419 128.0793 52.7091 0.0000 0.0000 0.0000
# 3 48.0874 52.7091 84.4131 0.0000 0.0000 0.0000
# 4 0.0000 0.0000 0.0000 7.0601 0.0000 0.0000
# 5 0.0000 0.0000 0.0000 0.0000 21.7322 0.0000
# 6 0.0000 0.0000 0.0000 0.0000 0.0000 31.9781
#
#
#
# Elastic Compliance Matrix: (Units=1/GPa)
#
#
# Indices 1 2 3 4 5 6 
#
# 1 0.035938 -0.016055 -0.010447 0.000000 0.000000 0.000000
# 2 -0.016055 0.017680 -0.001894 0.000000 0.000000 0.000000
# 3 -0.010447 -0.001894 0.018981 0.000000 0.000000 0.000000
# 4 0.000000 0.000000 0.000000 0.141641 0.000000 0.000000
# 5 0.000000 0.000000 0.000000 0.000000 0.046015 0.000000
# 6 0.000000 0.000000 0.000000 0.000000 0.000000 0.031271
#
#
# Mechanical properties :
#
#
# Convention : Reuss Voigt Hill
#
# Bulk Modulus (GPa) = 63.26747 70.37580 66.82164
# Shear Modulus (GPa) = 14.14078 19.71190 16.92634
#
# Velocity S-wave (km/s) = 2.92226 3.45021 3.19715
# Velocity P-wave (km/s) = 7.04224 7.64014 7.34728
#
# Compressibility (1/GPa) = 0.01580591
#
# Stress axis : x y z
#
# Youngs Moduli (GPa) = 27.82602 56.56012 52.68511
#
# Poissons Ratio (x) = 0.90807 0.55043
# Poissons Ratio (y) = 0.44674 0.09978
# Poissons Ratio (z) = 0.29071 0.10712
#
# Static dielectric constant tensor:
#      x y z
#    x 1.545850 0.000000 0.000000 
#    y 0.000000 1.567140 0.000000 
#    z 0.000000 0.000000 1.551050 
# 
# From -- ./inp_files/46537.got.cif
#   From: 2010.05.17/outbox.cif.g08.bks.cpg/sg74_24_cif.got.tgz:46537.got - 2010.06.03 17:57:02.
