data_PCOD9534379
_publ_section_title
;
Structure prediction by ZEFSAII (Michael W. Deem and Ramdas Pophale) SiO2 
 PCOD9534379
Probable space group: I M M A
;
_chemical_formula_sum "Si O2"
_cell_formula_units_Z 80
_cell_length_a 9.057428
_cell_length_b 24.217059
_cell_length_c 26.293637
_cell_angle_alpha 90.000000
_cell_angle_beta 90.000000
_cell_angle_gamma 90.000000
_cell_volume 5767.358568
_symmetry_space_group_name_H-M "I M M A"
_symmetry_group_IT_number 74
_symmetry_cell_setting 'orthorhombic'
loop_
_space_group_symop_operation_xyz
x,y,z
-x,1/2-y,z
x,-y,-z
-x,1/2+y,-z
-x,-y,-z
x,1/2+y,-z
-x,y,z
x,1/2-y,z
1/2+x,1/2+y,1/2+z
1/2-x,-y,1/2+z
1/2+x,1/2-y,1/2-z
1/2-x,y,1/2-z
1/2-x,1/2-y,1/2-z
1/2+x,y,1/2-z
1/2-x,1/2+y,1/2+z
1/2+x,-y,1/2+z
loop_
_atom_site_type_symbol
_atom_site_label
_atom_site_fract_x
_atom_site_fract_y
_atom_site_fract_z
Si Si1 0.175393 0.563931 0.106844
Si Si2 0.821814 0.750000 0.033000
Si Si3 0.822841 0.866746 0.304721
Si Si4 0.175797 0.629628 0.001424
Si Si5 0.669861 0.966313 0.946546
Si Si6 0.176733 0.750000 0.356103
O O1 0.259102 0.590442 0.154260
O O2 0.202233 0.602768 0.057252
O O3 0.236904 0.503757 0.092003
O O4 0.000000 0.562458 0.115517
O O5 0.779133 0.806508 0.004804
O O6 0.754932 0.750000 0.089399
O O7 0.000000 0.750000 0.037718
O O8 0.750000 0.875184 0.250000
O O9 0.784837 0.805298 0.325245
O O10 0.000000 0.871011 0.301677
O O11 0.000000 0.625933 0.992226
O O12 0.260004 0.592515 0.960419
O O13 0.500000 0.961750 0.930448
O O14 0.672869 0.000000 0.000000
O O15 0.000000 0.750000 0.364067
#
# Coordination Sequence:
#
# PCOD9534379 Si02
#       6
#    16   8  16  16  16   8
#     4  10  18  30  47  63  82 108 141 181 222 262
#     4  10  18  29  45  64  87 116 147 181 218 259
#     4  11  22  34  46  62  83 111 148 188 228 265
#     4   9  17  28  43  63  85 111 143 176 214 259
#     4   9  17  28  43  62  84 108 137 174 215 260
#     4  10  21  33  45  60  82 112 148 189 227 261
#
# _framework density 13.871169
#
# number of rings (size 3 to 8) (size 9 to 14) (size 15 to 20)
#    0.000    2.200    2.000    2.100    0.000    4.800 
#    0.000    0.000    0.000    0.000    0.000    0.000 
#    0.000    0.000    0.000    0.900    0.000   11.400 
#
# Total GULP energy -223074.762833 kJ/mol
# GULP energy per Si atom -5576.869071 kJ/mol
# Density = 1.383960 g / cm^3
# Si number density = 13.871169 Si / 1000 Ang^3
#
#
#
# Elastic Constant Matrix: (Units=GPa)
#
#
# Indices 1 2 3 4 5 6 
#
# 1 56.8188 51.8715 39.7503 0.0000 0.0000 0.0000
# 2 51.8715 114.1974 54.7160 0.0000 0.0000 0.0000
# 3 39.7503 54.7160 60.5771 0.0000 0.0000 0.0000
# 4 0.0000 0.0000 0.0000 10.9357 0.0000 0.0000
# 5 0.0000 0.0000 0.0000 0.0000 22.5964 0.0000
# 6 0.0000 0.0000 0.0000 0.0000 0.0000 21.1489
#
#
#
# Elastic Compliance Matrix: (Units=1/GPa)
#
#
# Indices 1 2 3 4 5 6 
#
# 1 0.037315 -0.009198 -0.016178 0.000000 0.000000 0.000000
# 2 -0.009198 0.017705 -0.009956 0.000000 0.000000 0.000000
# 3 -0.016178 -0.009956 0.036117 0.000000 0.000000 0.000000
# 4 0.000000 0.000000 0.000000 0.091443 0.000000 0.000000
# 5 0.000000 0.000000 0.000000 0.000000 0.044255 0.000000
# 6 0.000000 0.000000 0.000000 0.000000 0.000000 0.047284
#
#
# Mechanical properties :
#
#
# Convention : Reuss Voigt Hill
#
# Bulk Modulus (GPa) = 48.84622 58.25209 53.54916
# Shear Modulus (GPa) = 14.22043 16.61992 15.42018
#
# Velocity S-wave (km/s) = 3.20531 3.46520 3.33779
# Velocity P-wave (km/s) = 6.99924 7.62210 7.31730
#
# Compressibility (1/GPa) = 0.02047241
#
# Stress axis : x y z
#
# Youngs Moduli (GPa) = 26.79904 56.48027 27.68809
#
# Poissons Ratio (x) = 0.51951 0.44792
# Poissons Ratio (y) = 0.24650 0.27568
# Poissons Ratio (z) = 0.43354 0.56234
#
# Static dielectric constant tensor:
#      x y z
#    x 1.460270 0.000000 0.000000 
#    y 0.000000 1.458740 0.000000 
#    z 0.000000 0.000000 1.418110 
# 
# From -- ./inp_files/46529.got.cif
#   From: 2010.05.17/outbox.cif.g08.bks.cpg/sg74_24_cif.got.tgz:46529.got - 2010.06.03 17:57:02.
