data_PCOD9534914
_publ_section_title
;
Structure prediction by ZEFSAII (Michael W. Deem and Ramdas Pophale) SiO2 
 PCOD9534914
Probable space group: I M M A
;
_chemical_formula_sum "Si O2"
_cell_formula_units_Z 48
_cell_length_a 25.094217
_cell_length_b 14.590315
_cell_length_c 5.294975
_cell_angle_alpha 90.000000
_cell_angle_beta 90.000000
_cell_angle_gamma 90.000000
_cell_volume 1938.662597
_symmetry_space_group_name_H-M "I M M A"
_symmetry_group_IT_number 74
_symmetry_cell_setting 'orthorhombic'
loop_
_space_group_symop_operation_xyz
x,y,z
-x,1/2-y,z
x,-y,-z
-x,1/2+y,-z
-x,-y,-z
x,1/2+y,-z
-x,y,z
x,1/2-y,z
1/2+x,1/2+y,1/2+z
1/2-x,-y,1/2+z
1/2+x,1/2-y,1/2-z
1/2-x,y,1/2-z
1/2-x,1/2-y,1/2-z
1/2+x,y,1/2-z
1/2-x,1/2+y,1/2+z
1/2+x,-y,1/2+z
loop_
_atom_site_type_symbol
_atom_site_label
_atom_site_fract_x
_atom_site_fract_y
_atom_site_fract_z
Si Si1 0.216742 0.857816 0.992908
Si Si2 0.102112 0.600073 0.190895
Si Si3 0.938935 0.606399 0.693600
O O1 0.206468 0.750000 0.940526
O O2 0.250000 0.864615 0.250000
O O3 0.160447 0.901353 0.068365
O O4 0.250000 0.894354 0.750000
O O5 0.078196 0.499246 0.250329
O O6 0.098516 0.643191 0.469869
O O7 0.067696 0.646984 0.972320
O O8 0.000000 0.612218 0.610498
#
# Coordination Sequence:
#
# PCOD9534914 Si02
#       3
#    16  16  16
#     4  10  21  37  55  75 103 141 183 225 267 314
#     4  10  18  32  54  77 101 138 176 211 262 322
#     4  10  19  33  54  79 108 138 169 212 267 325
#
# _framework density 24.759336000000001
#
# number of rings (size 3 to 8) (size 9 to 14) (size 15 to 20)
#    0.000    2.000    0.000    7.000    0.000    0.000 
#    0.000   13.333    0.000   11.000    0.000    0.000 
#    0.000    0.000    0.000    0.000    0.000    0.000 
#
# Total GULP energy -133936.282005 kJ/mol
# GULP energy per Si atom -5580.678417 kJ/mol
# Density = 2.470298 g / cm^3
# Si number density = 24.759336 Si / 1000 Ang^3
#
#
#
# Elastic Constant Matrix: (Units=GPa)
#
#
# Indices 1 2 3 4 5 6 
#
# 1 156.2695 9.8071 55.0831 0.0000 0.0000 0.0000
# 2 9.8071 89.6131 10.8696 0.0000 0.0000 0.0000
# 3 55.0831 10.8696 256.8461 0.0000 0.0000 0.0000
# 4 0.0000 0.0000 0.0000 -11.3674 0.0000 0.0000
# 5 0.0000 0.0000 0.0000 0.0000 52.2928 0.0000
# 6 0.0000 0.0000 0.0000 0.0000 0.0000 43.7406
#
#
#
# Elastic Compliance Matrix: (Units=1/GPa)
#
#
# Indices 1 2 3 4 5 6 
#
# 1 0.006953 -0.000583 -0.001466 0.000000 0.000000 0.000000
# 2 -0.000583 0.011266 -0.000352 0.000000 0.000000 0.000000
# 3 -0.001466 -0.000352 0.004223 0.000000 0.000000 0.000000
# 4 0.000000 0.000000 0.000000 -0.087971 0.000000 0.000000
# 5 0.000000 0.000000 0.000000 0.000000 0.019123 0.000000
# 6 0.000000 0.000000 0.000000 0.000000 0.000000 0.022862
#
#
# Mechanical properties :
#
#
# Convention : Reuss Voigt Hill
#
# Bulk Modulus (GPa) = 56.69349 72.69424 64.69387
# Shear Modulus (GPa) = -388.70515 45.39780 -171.65367
#
# Velocity S-wave (km/s) = -12.54329 4.28666 -8.33543
# Velocity P-wave (km/s) = 13.66863 7.34334 8.15189
#
# Compressibility (1/GPa) = 0.01763871
#
# Stress axis : x y z
#
# Youngs Moduli (GPa) = 143.82954 88.76622 236.81263
#
# Poissons Ratio (x) = 0.05175 0.34726
# Poissons Ratio (y) = 0.08386 0.08329
# Poissons Ratio (z) = 0.21091 0.03122
#
# Static dielectric constant tensor:
#      x y z
#    x 1.993330 0.000000 0.000000 
#    y 0.000000 1.538400 0.000000 
#    z 0.000000 0.000000 2.131760 
# 
# From -- ./inp_files/2668.got.cif
#   From: 2010.05.17/outbox.cif.g08.bks.cpg/sg74_2_cif.got.tgz:2668.got - 2010.06.03 17:57:02.
