data_PCOD9534516
_publ_section_title
;
Structure prediction by ZEFSAII (Michael W. Deem and Ramdas Pophale) SiO2 
 PCOD9534516
Probable space group: I M M A
;
_chemical_formula_sum "Si O2"
_cell_formula_units_Z 44
_cell_length_a 5.586791
_cell_length_b 39.073787
_cell_length_c 9.566686
_cell_angle_alpha 90.000000
_cell_angle_beta 90.000000
_cell_angle_gamma 90.000000
_cell_volume 2088.379634
_symmetry_space_group_name_H-M "I M M A"
_symmetry_group_IT_number 74
_symmetry_cell_setting 'orthorhombic'
loop_
_space_group_symop_operation_xyz
x,y,z
-x,1/2-y,z
x,-y,-z
-x,1/2+y,-z
-x,-y,-z
x,1/2+y,-z
-x,y,z
x,1/2-y,z
1/2+x,1/2+y,1/2+z
1/2-x,-y,1/2+z
1/2+x,1/2-y,1/2-z
1/2-x,y,1/2-z
1/2-x,1/2-y,1/2-z
1/2+x,y,1/2-z
1/2-x,1/2+y,1/2+z
1/2+x,-y,1/2+z
loop_
_atom_site_type_symbol
_atom_site_label
_atom_site_fract_x
_atom_site_fract_y
_atom_site_fract_z
Si Si1 0.500000 0.852803 0.598770
Si Si2 0.000000 0.250000 0.339118
Si Si3 0.000000 0.567347 0.934914
Si Si4 0.000000 0.325911 0.418485
Si Si5 0.000000 0.459736 0.476325
Si Si6 0.000000 0.910935 0.250417
O O1 0.500000 0.893551 0.615482
O O2 0.749778 0.841539 0.528368
O O3 0.500000 0.835512 0.752258
O O4 0.250000 0.250000 0.250000
O O5 0.000000 0.285051 0.425938
O O6 0.252562 0.550093 0.900728
O O7 0.000000 0.568660 0.104840
O O8 0.000000 0.500000 0.500000
O O9 0.000000 0.437117 0.619393
O O10 0.750000 0.891157 0.250000
#
# Coordination Sequence:
#
# PCOD9534516 Si02
#       6
#     8   4   8   8   8   8
#     4  10  18  30  46  66  96 132 159 201 239 284
#     4  12  16  30  48  74  90 148 172 196 240 272
#     4  10  19  32  52  67  93 124 155 194 258 294
#     4  10  19  30  48  67 105 131 169 198 227 292
#     4  10  19  33  53  70  91 116 158 205 254 299
#     4   8  16  30  49  67  85 113 142 191 240 290
#
# _framework density 21.068967000000001
#
# number of rings (size 3 to 8) (size 9 to 14) (size 15 to 20)
#    0.000    2.182    3.636    1.636    0.000    0.000 
#    0.000    0.000   72.000    0.000    0.000    0.000 
#    0.000    0.000    0.000  250.364    0.000    0.000 
#
# Total GULP energy -122613.443961 kJ/mol
# GULP energy per Si atom -5573.338362 kJ/mol
# Density = 2.102101 g / cm^3
# Si number density = 21.068967 Si / 1000 Ang^3
#
#
#
# Elastic Constant Matrix: (Units=GPa)
#
#
# Indices 1 2 3 4 5 6 
#
# 1 279.9180 66.6000 -4.0545 0.0000 0.0000 0.0000
# 2 66.6000 161.2315 -4.7647 -0.0001 0.0000 0.0000
# 3 -4.0545 -4.7647 77.4318 -0.0003 0.0001 0.0000
# 4 0.0000 -0.0001 -0.0003 -49.3714 0.0001 0.0000
# 5 0.0000 0.0000 0.0001 0.0001 -69.2849 0.0000
# 6 0.0000 0.0000 0.0000 0.0000 0.0000 35.5057
#
#
#
# Elastic Compliance Matrix: (Units=1/GPa)
#
#
# Indices 1 2 3 4 5 6 
#
# 1 0.003963 -0.001634 0.000107 0.000000 0.000000 0.000000
# 2 -0.001634 0.006887 0.000338 0.000000 0.000000 0.000000
# 3 0.000107 0.000338 0.012941 0.000000 0.000000 0.000000
# 4 0.000000 0.000000 0.000000 -0.020255 0.000000 0.000000
# 5 0.000000 0.000000 0.000000 0.000000 -0.014433 0.000000
# 6 0.000000 0.000000 0.000000 0.000000 0.000000 0.028164
#
#
# Mechanical properties :
#
#
# Convention : Reuss Voigt Hill
#
# Bulk Modulus (GPa) = 46.69884 70.46033 58.57959
# Shear Modulus (GPa) = 186.68922 14.08992 100.38957
#
# Velocity S-wave (km/s) = 9.42343 2.58883 6.91025
# Velocity P-wave (km/s) = 11.85809 6.51547 9.56728
#
# Compressibility (1/GPa) = 0.02141381
#
# Stress axis : x y z
#
# Youngs Moduli (GPa) = 252.35117 145.19893 77.27375
#
# Poissons Ratio (x) = 0.23722 -0.00827
# Poissons Ratio (y) = 0.41227 -0.02614
# Poissons Ratio (z) = -0.02699 -0.04911
#
# Static dielectric constant tensor:
#      x y z
#    x 1.890680 0.000000 0.000000 
#    y 0.000000 1.689990 0.000000 
#    z 0.000000 0.000000 1.772250 
# 
# From -- ./inp_files/27691.got.cif
#   From: 2010.05.17/outbox.cif.g08.bks.cpg/sg74_14_cif.got.tgz:27691.got - 2010.06.03 17:57:02.
