data_PCOD9534694
_publ_section_title
;
Structure prediction by ZEFSAII (Michael W. Deem and Ramdas Pophale) SiO2 
 PCOD9534694
Probable space group: I M M A
;
_chemical_formula_sum "Si O2"
_cell_formula_units_Z 68
_cell_length_a 19.169963
_cell_length_b 10.996501
_cell_length_c 18.114512
_cell_angle_alpha 90.000000
_cell_angle_beta 90.000000
_cell_angle_gamma 90.000000
_cell_volume 3818.584729
_symmetry_space_group_name_H-M "I M M A"
_symmetry_group_IT_number 74
_symmetry_cell_setting 'orthorhombic'
loop_
_space_group_symop_operation_xyz
x,y,z
-x,1/2-y,z
x,-y,-z
-x,1/2+y,-z
-x,-y,-z
x,1/2+y,-z
-x,y,z
x,1/2-y,z
1/2+x,1/2+y,1/2+z
1/2-x,-y,1/2+z
1/2+x,1/2-y,1/2-z
1/2-x,y,1/2-z
1/2-x,1/2-y,1/2-z
1/2+x,y,1/2-z
1/2-x,1/2+y,1/2+z
1/2+x,-y,1/2+z
loop_
_atom_site_type_symbol
_atom_site_label
_atom_site_fract_x
_atom_site_fract_y
_atom_site_fract_z
Si Si1 0.918349 0.750000 0.740561
Si Si2 0.145454 0.496898 0.700545
Si Si3 0.500000 0.250000 0.664800
Si Si4 0.636442 0.750000 0.435760
Si Si5 0.704292 0.481225 0.637377
Si Si6 0.644288 0.750000 0.604824
Si Si7 0.000000 0.882436 0.312072
O O1 0.875629 0.863943 0.711090
O O2 0.912144 0.750000 0.829511
O O3 0.000000 0.750000 0.719791
O O4 0.212888 0.476012 0.650681
O O5 0.167519 0.454253 0.783113
O O6 0.074029 0.440196 0.671190
O O7 0.567923 0.250000 0.614857
O O8 0.500000 0.362561 0.722459
O O9 0.678620 0.626126 0.416371
O O10 0.617080 0.750000 0.521670
O O11 0.685033 0.620845 0.615734
O O12 0.000000 0.750000 0.346348
#
# Coordination Sequence:
#
# PCOD9534694 Si02
#       7
#     8  16   4   8  16   8   8
#     4  10  19  33  52  80 113 145 172 215 269 326
#     4  10  19  33  55  78 110 139 176 227 278 317
#     4  10  22  34  48  82 118 142 172 218 258 322
#     4  12  22  37  57  77 111 152 186 211 259 318
#     4  10  21  36  55  78 107 144 186 225 266 312
#     4  10  23  38  51  78 110 151 187 214 252 318
#     4  10  18  31  48  82 116 135 164 225 278 327
#
# _framework density 17.807645000000001
#
# number of rings (size 3 to 8) (size 9 to 14) (size 15 to 20)
#    0.353    1.412    3.529    1.412    2.471    3.765 
#    0.000    1.176    0.000    0.000    0.000    4.941 
#    0.000    0.000    0.000    0.000    0.000    0.000 
#
# Total GULP energy -189346.418399 kJ/mol
# GULP energy per Si atom -5569.012306 kJ/mol
# Density = 1.776711 g / cm^3
# Si number density = 17.807645 Si / 1000 Ang^3
#
#
#
# Elastic Constant Matrix: (Units=GPa)
#
#
# Indices 1 2 3 4 5 6 
#
# 1 123.1280 28.9655 0.5196 0.0000 0.0000 0.0000
# 2 28.9655 93.0857 4.5700 0.0000 0.0000 0.0000
# 3 0.5196 4.5700 20.2289 0.0000 0.0000 0.0000
# 4 0.0000 0.0000 0.0000 17.1919 0.0000 0.0000
# 5 0.0000 0.0000 0.0000 0.0000 70.2318 0.0000
# 6 0.0000 0.0000 0.0000 0.0000 0.0000 18.6275
#
#
#
# Elastic Compliance Matrix: (Units=1/GPa)
#
#
# Indices 1 2 3 4 5 6 
#
# 1 0.008766 -0.002747 0.000395 0.000000 0.000000 0.000000
# 2 -0.002747 0.011724 -0.002578 0.000000 0.000000 0.000000
# 3 0.000395 -0.002578 0.050006 0.000000 0.000000 0.000000
# 4 0.000000 0.000000 0.000000 0.058167 0.000000 0.000000
# 5 0.000000 0.000000 0.000000 0.000000 0.014239 0.000000
# 6 0.000000 0.000000 0.000000 0.000000 0.000000 0.053684
#
#
# Mechanical properties :
#
#
# Convention : Reuss Voigt Hill
#
# Bulk Modulus (GPa) = 16.49152 33.83920 25.16536
# Shear Modulus (GPa) = 22.05961 34.70274 28.38117
#
# Velocity S-wave (km/s) = 3.52344 4.41926 3.99653
# Velocity P-wave (km/s) = 5.08270 6.71444 5.95473
#
# Compressibility (1/GPa) = 0.06063721
#
# Stress axis : x y z
#
# Youngs Moduli (GPa) = 114.07402 85.29360 19.99743
#
# Poissons Ratio (x) = 0.23432 -0.00791
# Poissons Ratio (y) = 0.31339 0.05156
# Poissons Ratio (z) = -0.04511 0.21989
#
# Static dielectric constant tensor:
#      x y z
#    x 1.584560 0.000000 0.000000 
#    y 0.000000 1.609600 0.000000 
#    z 0.000000 0.000000 1.592210 
# 
# From -- ./inp_files/41034.got.cif
#   From: 2010.05.17/outbox.cif.g08.bks.cpg/sg74_21_cif.got.tgz:41034.got - 2010.06.03 17:57:02.
