data_PCOD9534456
_publ_section_title
;
Structure prediction by ZEFSAII (Michael W. Deem and Ramdas Pophale) SiO2 
 PCOD9534456
Probable space group: I M M A
;
_chemical_formula_sum "Si O2"
_cell_formula_units_Z 104
_cell_length_a 18.386237
_cell_length_b 13.609579
_cell_length_c 24.920662
_cell_angle_alpha 90.000000
_cell_angle_beta 90.000000
_cell_angle_gamma 90.000000
_cell_volume 6235.870960
_symmetry_space_group_name_H-M "I M M A"
_symmetry_group_IT_number 74
_symmetry_cell_setting 'orthorhombic'
loop_
_space_group_symop_operation_xyz
x,y,z
-x,1/2-y,z
x,-y,-z
-x,1/2+y,-z
-x,-y,-z
x,1/2+y,-z
-x,y,z
x,1/2-y,z
1/2+x,1/2+y,1/2+z
1/2-x,-y,1/2+z
1/2+x,1/2-y,1/2-z
1/2-x,y,1/2-z
1/2-x,1/2-y,1/2-z
1/2+x,y,1/2-z
1/2-x,1/2+y,1/2+z
1/2+x,-y,1/2+z
loop_
_atom_site_type_symbol
_atom_site_label
_atom_site_fract_x
_atom_site_fract_y
_atom_site_fract_z
Si Si1 0.300779 0.500000 0.000000
Si Si2 0.816470 0.634226 0.792443
Si Si3 0.918849 0.865803 0.448902
Si Si4 0.713413 0.999191 0.607750
Si Si5 0.915574 0.135821 0.876626
Si Si6 0.664711 0.365575 0.840350
Si Si7 0.415583 0.957896 0.259750
O O1 0.355587 0.413200 0.983909
O O2 0.252602 0.524994 0.948084
O O3 0.833363 0.750000 0.794445
O O4 0.750000 0.621024 0.750000
O O5 0.796893 0.591510 0.851420
O O6 0.882128 0.564643 0.772781
O O7 0.920131 0.750000 0.458883
O O8 0.895263 0.879903 0.387097
O O9 0.000000 0.905330 0.458288
O O10 0.638902 0.058216 0.596644
O O11 0.764762 0.075505 0.640190
O O12 0.895118 0.250000 0.884892
O O13 0.911465 0.107728 0.813569
O O14 0.000000 0.123779 0.892844
O O15 0.680224 0.250000 0.835703
O O16 0.632872 0.408281 0.785815
O O17 0.500000 0.964033 0.243771
#
# Coordination Sequence:
#
# PCOD9534456 Si02
#       7
#     8  16  16  16  16  16  16
#     4  10  21  34  53  76 102 134 178 220 267 306
#     4  10  20  36  54  71  98 138 183 225 262 299
#     4   9  18  32  50  73 103 139 174 209 251 301
#     4  10  20  35  52  78 103 138 175 220 263 313
#     4   9  18  32  51  76 107 136 160 199 259 321
#     4  10  18  29  49  79 111 140 168 202 250 312
#     4  10  19  31  50  79 108 136 169 206 253 309
#
# _framework density 16.677702
#
# number of rings (size 3 to 8) (size 9 to 14) (size 15 to 20)
#    0.000    2.308    1.538    1.615    0.000    3.077 
#    0.000    2.692    0.000    0.000    0.000    0.000 
#    0.000    0.000    0.000    0.000    0.000    0.000 
#
# Total GULP energy -289892.384472 kJ/mol
# GULP energy per Si atom -5574.853548 kJ/mol
# Density = 1.663974 g / cm^3
# Si number density = 16.677702 Si / 1000 Ang^3
#
#
#
# Elastic Constant Matrix: (Units=GPa)
#
#
# Indices 1 2 3 4 5 6 
#
# 1 33.1567 -0.1806 5.4494 0.0000 0.0000 0.0000
# 2 -0.1806 58.4464 10.6671 0.0000 0.0000 0.0000
# 3 5.4494 10.6671 45.6504 0.0000 0.0000 0.0000
# 4 0.0000 0.0000 0.0000 17.7686 0.0000 0.0000
# 5 0.0000 0.0000 0.0000 0.0000 43.2394 0.0000
# 6 0.0000 0.0000 0.0000 0.0000 0.0000 23.4592
#
#
#
# Elastic Compliance Matrix: (Units=1/GPa)
#
#
# Indices 1 2 3 4 5 6 
#
# 1 0.030799 0.000800 -0.003864 0.000000 0.000000 0.000000
# 2 0.000800 0.017893 -0.004277 0.000000 0.000000 0.000000
# 3 -0.003864 -0.004277 0.023366 0.000000 0.000000 0.000000
# 4 0.000000 0.000000 0.000000 0.056279 0.000000 0.000000
# 5 0.000000 0.000000 0.000000 0.000000 0.023127 0.000000
# 6 0.000000 0.000000 0.000000 0.000000 0.000000 0.042627
#
#
# Mechanical properties :
#
#
# Convention : Reuss Voigt Hill
#
# Bulk Modulus (GPa) = 17.42817 18.79171 18.10994
# Shear Modulus (GPa) = 21.93973 24.98128 23.46050
#
# Velocity S-wave (km/s) = 3.63093 3.87445 3.75467
# Velocity P-wave (km/s) = 5.29631 5.59528 5.44785
#
# Compressibility (1/GPa) = 0.05737837
#
# Stress axis : x y z
#
# Youngs Moduli (GPa) = 32.46844 55.88875 42.79699
#
# Poissons Ratio (x) = -0.04473 0.16535
# Poissons Ratio (y) = -0.02598 0.18302
# Poissons Ratio (z) = 0.12544 0.23901
#
# Static dielectric constant tensor:
#      x y z
#    x 1.577390 0.000000 0.000000 
#    y 0.000000 1.543830 0.000000 
#    z 0.000000 0.000000 1.548650 
# 
# From -- ./inp_files/60963.got.cif
#   From: 2010.05.17/outbox.cif.g08.bks.cpg/sg74_31_cif.got.tgz:60963.got - 2010.06.03 17:57:02.
