data_PCOD9534555
_publ_section_title
;
Structure prediction by ZEFSAII (Michael W. Deem and Ramdas Pophale) SiO2 
 PCOD9534555
Probable space group: I M M A
;
_chemical_formula_sum "Si O2"
_cell_formula_units_Z 88
_cell_length_a 18.015152
_cell_length_b 9.076074
_cell_length_c 29.895495
_cell_angle_alpha 90.000000
_cell_angle_beta 90.000000
_cell_angle_gamma 90.000000
_cell_volume 4888.118297
_symmetry_space_group_name_H-M "I M M A"
_symmetry_group_IT_number 74
_symmetry_cell_setting 'orthorhombic'
loop_
_space_group_symop_operation_xyz
x,y,z
-x,1/2-y,z
x,-y,-z
-x,1/2+y,-z
-x,-y,-z
x,1/2+y,-z
-x,y,z
x,1/2-y,z
1/2+x,1/2+y,1/2+z
1/2-x,-y,1/2+z
1/2+x,1/2-y,1/2-z
1/2-x,y,1/2-z
1/2-x,1/2-y,1/2-z
1/2+x,y,1/2-z
1/2-x,1/2+y,1/2+z
1/2+x,-y,1/2+z
loop_
_atom_site_type_symbol
_atom_site_label
_atom_site_fract_x
_atom_site_fract_y
_atom_site_fract_z
Si Si1 0.913959 0.426892 0.615888
Si Si2 0.855866 0.928984 0.105671
Si Si3 0.911563 0.073380 0.799135
Si Si4 0.090380 0.919735 0.707471
Si Si5 0.500000 0.428065 0.548489
Si Si6 0.786704 0.927948 0.451524
O O1 0.910901 0.250000 0.621019
O O2 0.886546 0.498552 0.662125
O O3 0.862142 0.467843 0.574445
O O4 0.000000 0.468822 0.608720
O O5 0.855420 0.750000 0.107305
O O6 0.868000 0.977861 0.156718
O O7 0.927137 0.971759 0.076295
O O8 0.781528 0.974795 0.080309
O O9 0.904184 0.250000 0.794760
O O10 0.000000 0.044120 0.805883
O O11 0.886258 0.998214 0.753274
O O12 0.113063 0.750000 0.706824
O O13 0.000000 0.925592 0.707630
O O14 0.500000 0.250000 0.544441
O O15 0.500000 0.500000 0.500000
O O16 0.783875 0.750000 0.456034
O O17 0.781437 0.000000 0.500000
#
# Coordination Sequence:
#
# PCOD9534555 Si02
#       6
#    16  16  16  16   8  16
#     4   9  18  34  54  74  96 127 167 204 240 294
#     4   9  17  31  50  72  98 130 168 204 240 286
#     4   9  15  27  49  73  97 131 169 200 234 283
#     4   9  17  29  48  76 105 129 157 200 250 295
#     4  10  18  30  48  70  96 128 168 208 243 286
#     4  10  21  36  53  73  99 129 163 206 252 294
#
# _framework density 18.002837
#
# number of rings (size 3 to 8) (size 9 to 14) (size 15 to 20)
#    0.000    2.727    0.909    1.091    0.000    3.273 
#    0.000    2.727    0.000    5.455    0.000    0.000 
#    0.000    0.000    0.000    0.000    0.000    0.000 
#
# Total GULP energy -245332.620378 kJ/mol
# GULP energy per Si atom -5575.741372 kJ/mol
# Density = 1.796186 g / cm^3
# Si number density = 18.002837 Si / 1000 Ang^3
#
#
#
# Elastic Constant Matrix: (Units=GPa)
#
#
# Indices 1 2 3 4 5 6 
#
# 1 76.4249 22.5151 55.5046 0.0000 0.0000 0.0000
# 2 22.5151 16.1800 30.5011 0.0000 0.0000 0.0000
# 3 55.5046 30.5011 120.5818 0.0000 0.0000 0.0000
# 4 0.0000 0.0000 0.0000 33.7810 0.0000 0.0000
# 5 0.0000 0.0000 0.0000 0.0000 11.4314 0.0000
# 6 0.0000 0.0000 0.0000 0.0000 0.0000 5.8989
#
#
#
# Elastic Compliance Matrix: (Units=1/GPa)
#
#
# Indices 1 2 3 4 5 6 
#
# 1 0.023590 -0.023620 -0.004884 0.000000 0.000000 0.000000
# 2 -0.023620 0.141786 -0.024992 0.000000 0.000000 0.000000
# 3 -0.004884 -0.024992 0.016863 0.000000 0.000000 0.000000
# 4 0.000000 0.000000 0.000000 0.029602 0.000000 0.000000
# 5 0.000000 0.000000 0.000000 0.000000 0.087478 0.000000
# 6 0.000000 0.000000 0.000000 0.000000 0.000000 0.169524
#
#
# Mechanical properties :
#
#
# Convention : Reuss Voigt Hill
#
# Bulk Modulus (GPa) = 13.28956 47.80312 30.54634
# Shear Modulus (GPa) = 8.32058 17.19999 12.76028
#
# Velocity S-wave (km/s) = 2.15217 3.09431 2.66520
# Velocity P-wave (km/s) = 3.68426 6.27512 5.14543
#
# Compressibility (1/GPa) = 0.07524702
#
# Stress axis : x y z
#
# Youngs Moduli (GPa) = 42.38999 7.05287 59.30085
#
# Poissons Ratio (x) = 0.16659 0.28964
# Poissons Ratio (y) = 1.00124 1.48207
# Poissons Ratio (z) = 0.20704 0.17627
#
# Static dielectric constant tensor:
#      x y z
#    x 1.627270 0.000000 0.000000 
#    y 0.000000 1.604590 0.000000 
#    z 0.000000 0.000000 1.591740 
# 
# From -- ./inp_files/72940.got.cif
#   From: 2010.05.17/outbox.cif.g08.bks.cpg/sg74_37_cif.got.tgz:72940.got - 2010.06.03 17:57:02.
