data_PCOD9534539
_publ_section_title
;
Structure prediction by ZEFSAII (Michael W. Deem and Ramdas Pophale) SiO2 
 PCOD9534539
Probable space group: I M M A
;
_chemical_formula_sum "Si O2"
_cell_formula_units_Z 72
_cell_length_a 17.169087
_cell_length_b 14.918644
_cell_length_c 14.183905
_cell_angle_alpha 90.000000
_cell_angle_beta 90.000000
_cell_angle_gamma 90.000000
_cell_volume 3633.058289
_symmetry_space_group_name_H-M "I M M A"
_symmetry_group_IT_number 74
_symmetry_cell_setting 'orthorhombic'
loop_
_space_group_symop_operation_xyz
x,y,z
-x,1/2-y,z
x,-y,-z
-x,1/2+y,-z
-x,-y,-z
x,1/2+y,-z
-x,y,z
x,1/2-y,z
1/2+x,1/2+y,1/2+z
1/2-x,-y,1/2+z
1/2+x,1/2-y,1/2-z
1/2-x,y,1/2-z
1/2-x,1/2-y,1/2-z
1/2+x,y,1/2-z
1/2-x,1/2+y,1/2+z
1/2+x,-y,1/2+z
loop_
_atom_site_type_symbol
_atom_site_label
_atom_site_fract_x
_atom_site_fract_y
_atom_site_fract_z
Si Si1 0.094151 0.250000 0.680253
Si Si2 0.910596 0.563666 0.224722
Si Si3 0.789823 0.750000 0.853952
Si Si4 0.370628 0.250000 0.040241
Si Si5 0.617489 0.446381 0.090200
Si Si6 0.709930 0.556018 0.646782
O O1 0.117192 0.159532 0.734934
O O2 0.122679 0.250000 0.572575
O O3 0.000000 0.250000 0.675180
O O4 0.907886 0.495230 0.314029
O O5 0.852571 0.522921 0.146960
O O6 0.000000 0.571714 0.193101
O O7 0.750000 0.750000 0.750000
O O8 0.719139 0.750000 0.927751
O O9 0.829961 0.653666 0.863923
O O10 0.404717 0.157864 0.081978
O O11 0.712206 0.449482 0.085430
O O12 0.587591 0.500000 0.000000
O O13 0.750000 0.553368 0.750000
#
# Coordination Sequence:
#
# PCOD9534539 Si02
#       6
#     8  16   8   8  16  16
#     4  10  20  32  46  70 105 139 163 198 245 298
#     4  10  20  33  48  68 100 133 165 199 243 301
#     4   8  14  28  49  64  89 123 163 208 248 275
#     4  10  18  30  47  71  99 125 158 207 248 291
#     4  10  18  31  51  71  98 126 164 206 248 292
#     4   8  16  30  47  69  91 127 164 204 242 291
#
# _framework density 19.818014000000002
#
# number of rings (size 3 to 8) (size 9 to 14) (size 15 to 20)
#    0.000    2.667    2.222    1.333    0.000    1.333 
#    0.000    7.778    0.000    0.667    0.000    0.000 
#    0.000    0.000    0.000    0.000    0.000    0.000 
#
# Total GULP energy -200526.261541 kJ/mol
# GULP energy per Si atom -5570.173932 kJ/mol
# Density = 1.977291 g / cm^3
# Si number density = 19.818014 Si / 1000 Ang^3
#
#
#
# Elastic Constant Matrix: (Units=GPa)
#
#
# Indices 1 2 3 4 5 6 
#
# 1 67.3446 38.5022 14.5790 0.0000 0.0000 0.0000
# 2 38.5022 165.6045 20.7572 0.0000 0.0000 0.0000
# 3 14.5790 20.7572 17.3003 0.0000 0.0000 0.0000
# 4 0.0000 0.0000 0.0000 18.2383 0.0000 0.0000
# 5 0.0000 0.0000 0.0000 0.0000 14.6736 0.0000
# 6 0.0000 0.0000 0.0000 0.0000 0.0000 1.4653
#
#
#
# Elastic Compliance Matrix: (Units=1/GPa)
#
#
# Indices 1 2 3 4 5 6 
#
# 1 0.019260 -0.002876 -0.012780 0.000000 0.000000 0.000000
# 2 -0.002876 0.007537 -0.006619 0.000000 0.000000 0.000000
# 3 -0.012780 -0.006619 0.076514 0.000000 0.000000 0.000000
# 4 0.000000 0.000000 0.000000 0.054830 0.000000 0.000000
# 5 0.000000 0.000000 0.000000 0.000000 0.068150 0.000000
# 6 0.000000 0.000000 0.000000 0.000000 0.000000 0.682435
#
#
# Mechanical properties :
#
#
# Convention : Reuss Voigt Hill
#
# Bulk Modulus (GPa) = 17.01814 44.21402 30.61608
# Shear Modulus (GPa) = 5.13947 18.63616 11.88782
#
# Velocity S-wave (km/s) = 1.61213 3.06986 2.45184
# Velocity P-wave (km/s) = 3.47435 5.90964 4.84742
#
# Compressibility (1/GPa) = 0.05876083
#
# Stress axis : x y z
#
# Youngs Moduli (GPa) = 51.92137 132.68236 13.06950
#
# Poissons Ratio (x) = 0.38159 0.16703
# Poissons Ratio (y) = 0.14933 0.08651
# Poissons Ratio (z) = 0.66354 0.87825
#
# Static dielectric constant tensor:
#      x y z
#    x 1.749700 0.000000 0.000000 
#    y 0.000000 1.753670 0.000000 
#    z 0.000000 0.000000 1.857230 
# 
# From -- ./inp_files/33863.got.cif
#   From: 2010.05.17/outbox.cif.g08.bks.cpg/sg74_17_cif.got.tgz:33863.got - 2010.06.03 17:57:02.
