data_PCOD9534264
_publ_section_title
;
Structure prediction by ZEFSAII (Michael W. Deem and Ramdas Pophale) SiO2 
 PCOD9534264
Probable space group: I M M A
;
_chemical_formula_sum "Si O2"
_cell_formula_units_Z 88
_cell_length_a 18.429868
_cell_length_b 7.328278
_cell_length_c 30.250918
_cell_angle_alpha 90.000000
_cell_angle_beta 90.000000
_cell_angle_gamma 90.000000
_cell_volume 4085.664670
_symmetry_space_group_name_H-M "I M M A"
_symmetry_group_IT_number 74
_symmetry_cell_setting 'orthorhombic'
loop_
_space_group_symop_operation_xyz
x,y,z
-x,1/2-y,z
x,-y,-z
-x,1/2+y,-z
-x,-y,-z
x,1/2+y,-z
-x,y,z
x,1/2-y,z
1/2+x,1/2+y,1/2+z
1/2-x,-y,1/2+z
1/2+x,1/2-y,1/2-z
1/2-x,y,1/2-z
1/2-x,1/2-y,1/2-z
1/2+x,y,1/2-z
1/2-x,1/2+y,1/2+z
1/2+x,-y,1/2+z
loop_
_atom_site_type_symbol
_atom_site_label
_atom_site_fract_x
_atom_site_fract_y
_atom_site_fract_z
Si Si1 0.916808 0.526478 0.888671
Si Si2 0.088324 0.460984 0.208377
Si Si3 0.286394 0.467515 0.447952
Si Si4 0.415424 0.527255 0.804621
Si Si5 0.000000 0.967129 0.552086
Si Si6 0.143644 0.973230 0.602709
O O1 0.917826 0.750000 0.887416
O O2 0.891761 0.464197 0.839676
O O3 0.860833 0.465980 0.925898
O O4 0.000000 0.469936 0.896149
O O5 0.112282 0.250000 0.208267
O O6 0.109557 0.537729 0.256156
O O7 0.000000 0.462501 0.208803
O O8 0.281068 0.500000 0.500000
O O9 0.286641 0.250000 0.442063
O O10 0.216508 0.536164 0.421216
O O11 0.500000 0.475144 0.811663
O O12 0.415427 0.750000 0.803185
O O13 0.367970 0.471626 0.846481
O O14 0.073163 0.034488 0.575212
O O15 0.000000 0.750000 0.559089
O O16 0.000000 0.000000 0.500000
O O17 0.144264 0.750000 0.602287
#
# Coordination Sequence:
#
# PCOD9534264 Si02
#       6
#    16  16  16  16   8  16
#     4   8  14  26  42  60  83 111 138 166 207 256
#     4   7  10  17  33  56  81 109 135 158 196 252
#     4  10  20  32  45  61  84 112 141 176 214 247
#     4   8  11  18  34  56  82 112 139 161 196 250
#     4  10  18  28  42  58  80 110 144 178 207 240
#     4   9  16  26  39  58  83 111 141 172 207 244
#
# _framework density 21.538724999999999
#
# number of rings (size 3 to 8) (size 9 to 14) (size 15 to 20)
#    0.000    3.455    0.909    2.727    0.000    0.364 
#    0.000    0.909    0.000    5.455    0.000    0.000 
#    0.000    4.364    0.000    0.000    0.000    0.000 
#
# Total GULP energy -245368.510334 kJ/mol
# GULP energy per Si atom -5576.557053 kJ/mol
# Density = 2.148970 g / cm^3
# Si number density = 21.538725 Si / 1000 Ang^3
#
#
#
# Elastic Constant Matrix: (Units=GPa)
#
#
# Indices 1 2 3 4 5 6 
#
# 1 119.5015 7.5484 83.7245 0.0000 0.0000 0.0000
# 2 7.5484 82.7394 2.0392 0.0000 0.0000 0.0000
# 3 83.7245 2.0392 138.1653 0.0000 0.0000 0.0000
# 4 0.0000 0.0000 0.0000 3.8914 0.0000 0.0000
# 5 0.0000 0.0000 0.0000 0.0000 20.0429 0.0000
# 6 0.0000 0.0000 0.0000 0.0000 0.0000 -17.0186
#
#
#
# Elastic Compliance Matrix: (Units=1/GPa)
#
#
# Indices 1 2 3 4 5 6 
#
# 1 0.014645 -0.001118 -0.008858 0.000000 0.000000 0.000000
# 2 -0.001118 0.012176 0.000498 0.000000 0.000000 0.000000
# 3 -0.008858 0.000498 0.012598 0.000000 0.000000 0.000000
# 4 0.000000 0.000000 0.000000 0.256977 0.000000 0.000000
# 5 0.000000 0.000000 0.000000 0.000000 0.049893 0.000000
# 6 0.000000 0.000000 0.000000 0.000000 0.000000 -0.058759
#
#
# Mechanical properties :
#
#
# Convention : Reuss Voigt Hill
#
# Bulk Modulus (GPa) = 48.86960 58.55897 53.71428
# Shear Modulus (GPa) = 15.95886 17.85607 16.90747
#
# Velocity S-wave (km/s) = 2.72497 2.88240 2.80479
# Velocity P-wave (km/s) = 5.71306 6.19067 5.95665
#
# Compressibility (1/GPa) = 0.02046262
#
# Stress axis : x y z
#
# Youngs Moduli (GPa) = 68.28489 82.12983 79.37835
#
# Poissons Ratio (x) = 0.09180 0.70311
# Poissons Ratio (y) = 0.07632 -0.03950
# Poissons Ratio (z) = 0.60485 -0.04087
#
# Static dielectric constant tensor:
#      x y z
#    x 1.741260 0.000000 0.000000 
#    y 0.000000 1.916280 0.000000 
#    z 0.000000 0.000000 1.798660 
# 
# From -- ./inp_files/73090.got.cif
#   From: 2010.05.17/outbox.cif.g08.bks.cpg/sg74_37_cif.got.tgz:73090.got - 2010.06.03 17:57:02.
