data_PCOD9534084
_publ_section_title
;
Structure prediction by ZEFSAII (Michael W. Deem and Ramdas Pophale) SiO2 
 PCOD9534084
Probable space group: I M M A
;
_chemical_formula_sum "Si O2"
_cell_formula_units_Z 112
_cell_length_a 18.793902
_cell_length_b 23.249174
_cell_length_c 18.571320
_cell_angle_alpha 90.000000
_cell_angle_beta 90.000000
_cell_angle_gamma 90.000000
_cell_volume 8114.602661
_symmetry_space_group_name_H-M "I M M A"
_symmetry_group_IT_number 74
_symmetry_cell_setting 'orthorhombic'
loop_
_space_group_symop_operation_xyz
x,y,z
-x,1/2-y,z
x,-y,-z
-x,1/2+y,-z
-x,-y,-z
x,1/2+y,-z
-x,y,z
x,1/2-y,z
1/2+x,1/2+y,1/2+z
1/2-x,-y,1/2+z
1/2+x,1/2-y,1/2-z
1/2-x,y,1/2-z
1/2-x,1/2-y,1/2-z
1/2+x,y,1/2-z
1/2-x,1/2+y,1/2+z
1/2+x,-y,1/2+z
loop_
_atom_site_type_symbol
_atom_site_label
_atom_site_fract_x
_atom_site_fract_y
_atom_site_fract_z
Si Si1 0.918857 0.114524 0.543458
Si Si2 0.843874 0.183852 0.662427
Si Si3 0.922032 0.519031 0.330787
Si Si4 0.280875 0.595628 0.371440
Si Si5 0.783238 0.432698 0.479250
Si Si6 0.581670 0.880504 0.286985
Si Si7 0.729141 0.468517 0.171653
O O1 0.891239 0.167085 0.592680
O O2 0.917303 0.060799 0.599764
O O3 0.859177 0.099086 0.485236
O O4 0.000000 0.121737 0.518989
O O5 0.822612 0.250000 0.661712
O O6 0.776080 0.141117 0.660212
O O7 0.890408 0.168415 0.732436
O O8 0.916558 0.561762 0.262435
O O9 0.855702 0.477337 0.331131
O O10 0.000000 0.491688 0.330889
O O11 0.265542 0.592109 0.456722
O O12 0.360282 0.612208 0.349212
O O13 0.262021 0.532719 0.339017
O O14 0.793997 0.500000 0.500000
O O15 0.751689 0.432256 0.399219
O O16 0.500000 0.871064 0.308986
O O17 0.750000 0.446365 0.250000
#
# Coordination Sequence:
#
# PCOD9534084 Si02
#       7
#    16  16  16  16  16  16  16
#     4   9  16  26  38  56  83 108 131 161 196 237
#     4  10  18  28  42  61  84 111 139 165 195 234
#     4   9  15  23  36  55  77 101 128 159 197 238
#     4  10  17  30  41  56  80 106 138 172 201 237
#     4   9  17  26  39  58  76 101 135 171 201 239
#     4  10  18  27  39  54  76 109 142 170 197 225
#     4  11  16  27  43  58  77 104 134 170 210 242
#
# _framework density 13.802277999999999
#
# number of rings (size 3 to 8) (size 9 to 14) (size 15 to 20)
#    0.000    2.286    7.143    1.714    0.000    3.143 
#    0.000    0.000    0.000    4.714    0.000    0.000 
#    0.000    9.143    0.000    0.000    0.000    9.143 
#
# Total GULP energy -311867.975117 kJ/mol
# GULP energy per Si atom -5569.070984 kJ/mol
# Density = 1.377086 g / cm^3
# Si number density = 13.802278 Si / 1000 Ang^3
#
#
#
# Elastic Constant Matrix: (Units=GPa)
#
#
# Indices 1 2 3 4 5 6 
#
# 1 90.8250 22.0569 36.8030 0.0000 0.0000 0.0000
# 2 22.0569 28.6921 19.1131 0.0000 0.0000 0.0000
# 3 36.8030 19.1131 83.2281 0.0000 0.0000 0.0000
# 4 0.0000 0.0000 0.0000 4.6730 0.0000 0.0000
# 5 0.0000 0.0000 0.0000 0.0000 13.0079 0.0000
# 6 0.0000 0.0000 0.0000 0.0000 0.0000 3.5725
#
#
#
# Elastic Compliance Matrix: (Units=1/GPa)
#
#
# Indices 1 2 3 4 5 6 
#
# 1 0.014940 -0.008364 -0.004686 0.000000 0.000000 0.000000
# 2 -0.008364 0.045830 -0.006826 0.000000 0.000000 0.000000
# 3 -0.004686 -0.006826 0.015655 0.000000 0.000000 0.000000
# 4 0.000000 0.000000 0.000000 0.213996 0.000000 0.000000
# 5 0.000000 0.000000 0.000000 0.000000 0.076876 0.000000
# 6 0.000000 0.000000 0.000000 0.000000 0.000000 0.279915
#
#
# Mechanical properties :
#
#
# Convention : Reuss Voigt Hill
#
# Bulk Modulus (GPa) = 27.26792 39.85457 33.56124
# Shear Modulus (GPa) = 7.15116 12.56884 9.86000
#
# Velocity S-wave (km/s) = 2.27868 3.02095 2.67568
# Velocity P-wave (km/s) = 5.16935 6.41141 5.82359
#
# Compressibility (1/GPa) = 0.03667313
#
# Stress axis : x y z
#
# Youngs Moduli (GPa) = 66.93456 21.81994 63.87827
#
# Poissons Ratio (x) = 0.18249 0.29931
# Poissons Ratio (y) = 0.55982 0.43605
# Poissons Ratio (z) = 0.31363 0.14895
#
# Static dielectric constant tensor:
#      x y z
#    x 1.472720 0.000000 0.000000 
#    y 0.000000 1.439730 0.000000 
#    z 0.000000 0.000000 1.475590 
# 
# From -- ./inp_files/45560.got.cif
#   From: 2010.05.17/outbox.cif.g08.bks.cpg/sg74_23_cif.got.tgz:45560.got - 2010.06.03 17:57:02.
