data_PCOD9534099
_publ_section_title
;
Structure prediction by ZEFSAII (Michael W. Deem and Ramdas Pophale) SiO2 
 PCOD9534099
Probable space group: I M M A
;
_chemical_formula_sum "Si O2"
_cell_formula_units_Z 96
_cell_length_a 8.845138
_cell_length_b 23.186752
_cell_length_c 26.436396
_cell_angle_alpha 90.000000
_cell_angle_beta 90.000000
_cell_angle_gamma 90.000000
_cell_volume 5421.841016
_symmetry_space_group_name_H-M "I M M A"
_symmetry_group_IT_number 74
_symmetry_cell_setting 'orthorhombic'
loop_
_space_group_symop_operation_xyz
x,y,z
-x,1/2-y,z
x,-y,-z
-x,1/2+y,-z
-x,-y,-z
x,1/2+y,-z
-x,y,z
x,1/2-y,z
1/2+x,1/2+y,1/2+z
1/2-x,-y,1/2+z
1/2+x,1/2-y,1/2-z
1/2-x,y,1/2-z
1/2-x,1/2-y,1/2-z
1/2+x,y,1/2-z
1/2-x,1/2+y,1/2+z
1/2+x,-y,1/2+z
loop_
_atom_site_type_symbol
_atom_site_label
_atom_site_fract_x
_atom_site_fract_y
_atom_site_fract_z
Si Si1 0.164570 0.498645 0.559973
Si Si2 0.174960 0.893399 0.098675
Si Si3 0.819757 0.057879 0.695178
Si Si4 0.825869 0.130352 0.404914
Si Si5 0.683166 0.922589 0.805115
Si Si6 0.679568 0.181779 0.990598
O O1 0.162797 0.500000 0.500000
O O2 0.297736 0.457739 0.577238
O O3 0.171760 0.563826 0.577793
O O4 0.000000 0.474615 0.577705
O O5 0.257242 0.898774 0.152745
O O6 0.245668 0.851993 0.055972
O O7 0.000000 0.880065 0.105359
O O8 0.750000 0.069931 0.750000
O O9 0.000000 0.061193 0.697928
O O10 0.779905 0.990234 0.682969
O O11 0.761356 0.122200 0.348305
O O12 0.760222 0.163941 0.453369
O O13 0.000000 0.151199 0.399435
O O14 0.500000 0.919614 0.804136
O O15 0.750000 0.910307 0.750000
O O16 0.500000 0.167129 0.990463
O O17 0.696299 0.250000 0.984107
#
# Coordination Sequence:
#
# PCOD9534099 Si02
#       6
#    16  16  16  16  16  16
#     4  10  17  30  51  73 103 139 174 214 265 321
#     4  12  23  33  50  78 113 144 173 212 264 327
#     4  10  19  33  52  77 109 145 179 213 257 311
#     4   9  16  30  52  76 102 135 173 218 268 311
#     4   9  17  29  47  72 105 140 171 207 254 309
#     4  10  21  38  59  78  97 133 186 232 269 315
#
# _framework density 17.706161999999999
#
# number of rings (size 3 to 8) (size 9 to 14) (size 15 to 20)
#    0.000    2.000    3.333    2.000    0.000    1.333 
#    0.000    0.833    0.000    1.000    0.000    0.000 
#    0.000    0.000    0.000    0.000    0.000    0.000 
#
# Total GULP energy -267362.286749 kJ/mol
# GULP energy per Si atom -5570.047641 kJ/mol
# Density = 1.766586 g / cm^3
# Si number density = 17.706162 Si / 1000 Ang^3
#
#
#
# Elastic Constant Matrix: (Units=GPa)
#
#
# Indices 1 2 3 4 5 6 
#
# 1 50.7095 20.8878 44.2694 0.0000 0.0000 0.0000
# 2 20.8878 37.0500 30.7988 0.0000 0.0000 0.0000
# 3 44.2694 30.7988 147.1404 0.0000 0.0000 0.0000
# 4 0.0000 0.0000 0.0000 9.0379 0.0000 0.0000
# 5 0.0000 0.0000 0.0000 0.0000 25.6140 0.0000
# 6 0.0000 0.0000 0.0000 0.0000 0.0000 3.3245
#
#
#
# Elastic Compliance Matrix: (Units=1/GPa)
#
#
# Indices 1 2 3 4 5 6 
#
# 1 0.030324 -0.011515 -0.006713 0.000000 0.000000 0.000000
# 2 -0.011515 0.037049 -0.004290 0.000000 0.000000 0.000000
# 3 -0.006713 -0.004290 0.009714 0.000000 0.000000 0.000000
# 4 0.000000 0.000000 0.000000 0.110645 0.000000 0.000000
# 5 0.000000 0.000000 0.000000 0.000000 0.039041 0.000000
# 6 0.000000 0.000000 0.000000 0.000000 0.000000 0.300795
#
#
# Mechanical properties :
#
#
# Convention : Reuss Voigt Hill
#
# Bulk Modulus (GPa) = 31.20187 47.42356 39.31271
# Shear Modulus (GPa) = 8.57207 16.85821 12.71514
#
# Velocity S-wave (km/s) = 2.20268 3.08897 2.68268
# Velocity P-wave (km/s) = 4.91217 6.29000 5.64329
#
# Compressibility (1/GPa) = 0.03204936
#
# Stress axis : x y z
#
# Youngs Moduli (GPa) = 32.97718 26.99112 102.94429
#
# Poissons Ratio (x) = 0.31082 0.69107
# Poissons Ratio (y) = 0.37975 0.44167
# Poissons Ratio (z) = 0.22138 0.11580
#
# Static dielectric constant tensor:
#      x y z
#    x 1.620040 0.000000 0.000000 
#    y 0.000000 1.582630 0.000000 
#    z 0.000000 0.000000 1.682850 
# 
# From -- ./inp_files/64684.got.cif
#   From: 2010.05.17/outbox.cif.g08.bks.cpg/sg74_33_cif.got.tgz:64684.got - 2010.06.03 17:57:02.
