data_PCOD9534428
_publ_section_title
;
Structure prediction by ZEFSAII (Michael W. Deem and Ramdas Pophale) SiO2 
 PCOD9534428
Probable space group: I M M A
;
_chemical_formula_sum "Si O2"
_cell_formula_units_Z 112
_cell_length_a 28.691728
_cell_length_b 16.992369
_cell_length_c 14.061941
_cell_angle_alpha 90.000000
_cell_angle_beta 90.000000
_cell_angle_gamma 90.000000
_cell_volume 6855.764754
_symmetry_space_group_name_H-M "I M M A"
_symmetry_group_IT_number 74
_symmetry_cell_setting 'orthorhombic'
loop_
_space_group_symop_operation_xyz
x,y,z
-x,1/2-y,z
x,-y,-z
-x,1/2+y,-z
-x,-y,-z
x,1/2+y,-z
-x,y,z
x,1/2-y,z
1/2+x,1/2+y,1/2+z
1/2-x,-y,1/2+z
1/2+x,1/2-y,1/2-z
1/2-x,y,1/2-z
1/2-x,1/2-y,1/2-z
1/2+x,y,1/2-z
1/2-x,1/2+y,1/2+z
1/2+x,-y,1/2+z
loop_
_atom_site_type_symbol
_atom_site_label
_atom_site_fract_x
_atom_site_fract_y
_atom_site_fract_z
Si Si1 0.052239 0.344829 0.720678
Si Si2 0.287015 0.841408 0.476193
Si Si3 0.352967 0.654828 0.317239
Si Si4 0.852763 0.657167 0.539617
Si Si5 0.702569 0.903316 0.136080
Si Si6 0.552812 0.906022 0.005235
Si Si7 0.268575 0.585071 0.854523
O O1 0.054157 0.250000 0.712075
O O2 0.094521 0.368740 0.789295
O O3 0.058560 0.378937 0.614821
O O4 0.000000 0.366343 0.753440
O O5 0.290997 0.750000 0.503889
O O6 0.333286 0.868041 0.420571
O O7 0.245714 0.850186 0.398215
O O8 0.269315 0.891113 0.565754
O O9 0.350058 0.750000 0.312656
O O10 0.319452 0.620488 0.235828
O O11 0.849094 0.750000 0.521364
O O12 0.835782 0.610337 0.445821
O O13 0.906145 0.633407 0.555240
O O14 0.815847 0.631903 0.619582
O O15 0.719711 0.992849 0.137636
O O16 0.500000 0.884259 0.976326
O O17 0.557142 0.000000 0.000000
O O18 0.250000 0.602915 0.750000
#
# Coordination Sequence:
#
# PCOD9534428 Si02
#       7
#    16  16  16  16  16  16  16
#     4   9  17  29  47  72 103 135 162 194 245 304
#     4  10  20  32  48  69  95 127 163 203 246 297
#     4  10  18  29  48  74 101 129 159 195 247 302
#     4  11  21  33  51  73 100 136 168 203 249 299
#     4  11  19  31  49  71  99 126 160 203 249 297
#     4  10  19  31  48  73 104 135 165 199 240 295
#     4  11  23  36  50  68  95 132 175 213 251 291
#
# _framework density 16.336617
#
# number of rings (size 3 to 8) (size 9 to 14) (size 15 to 20)
#    0.000    1.714    1.429    6.857    0.000    3.143 
#    0.000    0.000    0.000    0.000    0.000    1.000 
#    0.000    8.000    0.000    0.000    0.000    0.000 
#
# Total GULP energy -312419.779584 kJ/mol
# GULP energy per Si atom -5578.924635 kJ/mol
# Density = 1.629943 g / cm^3
# Si number density = 16.336617 Si / 1000 Ang^3
#
#
#
# Elastic Constant Matrix: (Units=GPa)
#
#
# Indices 1 2 3 4 5 6 
#
# 1 103.5263 36.7483 68.7302 0.0000 0.0000 0.0000
# 2 36.7483 39.5759 38.6242 0.0000 0.0000 0.0000
# 3 68.7302 38.6242 90.2595 0.0000 0.0000 0.0000
# 4 0.0000 0.0000 0.0000 17.5012 0.0000 0.0000
# 5 0.0000 0.0000 0.0000 0.0000 18.2917 0.0000
# 6 0.0000 0.0000 0.0000 0.0000 0.0000 16.1659
#
#
#
# Elastic Compliance Matrix: (Units=1/GPa)
#
#
# Indices 1 2 3 4 5 6 
#
# 1 0.020469 -0.006516 -0.012798 0.000000 0.000000 0.000000
# 2 -0.006516 0.045463 -0.014493 0.000000 0.000000 0.000000
# 3 -0.012798 -0.014493 0.027026 0.000000 0.000000 0.000000
# 4 0.000000 0.000000 0.000000 0.057139 0.000000 0.000000
# 5 0.000000 0.000000 0.000000 0.000000 0.054669 0.000000
# 6 0.000000 0.000000 0.000000 0.000000 0.000000 0.061859
#
#
# Mechanical properties :
#
#
# Convention : Reuss Voigt Hill
#
# Bulk Modulus (GPa) = 39.45704 57.95192 48.70448
# Shear Modulus (GPa) = 14.59058 16.34238 15.46648
#
# Velocity S-wave (km/s) = 2.99176 3.16627 3.08025
# Velocity P-wave (km/s) = 6.01158 6.99411 6.52138
#
# Compressibility (1/GPa) = 0.02534402
#
# Stress axis : x y z
#
# Youngs Moduli (GPa) = 48.85442 21.99611 37.00079
#
# Poissons Ratio (x) = 0.14333 0.47354
# Poissons Ratio (y) = 0.31834 0.53624
# Poissons Ratio (z) = 0.62525 0.31878
#
# Static dielectric constant tensor:
#      x y z
#    x 1.601350 0.000000 0.000000 
#    y 0.000000 1.550230 0.000000 
#    z 0.000000 0.000000 1.534360 
# 
# From -- ./inp_files/37428.got.cif
#   From: 2010.05.17/outbox.cif.g08.bks.cpg/sg74_19_cif.got.tgz:37428.got - 2010.06.03 17:57:02.
