data_PCOD9534209
_publ_section_title
;
Structure prediction by ZEFSAII (Michael W. Deem and Ramdas Pophale) SiO2 
 PCOD9534209
Probable space group: I M M A
;
_chemical_formula_sum "Si O2"
_cell_formula_units_Z 112
_cell_length_a 14.126870
_cell_length_b 15.521519
_cell_length_c 32.354790
_cell_angle_alpha 90.000000
_cell_angle_beta 90.000000
_cell_angle_gamma 90.000000
_cell_volume 7094.450370
_symmetry_space_group_name_H-M "I M M A"
_symmetry_group_IT_number 74
_symmetry_cell_setting 'orthorhombic'
loop_
_space_group_symop_operation_xyz
x,y,z
-x,1/2-y,z
x,-y,-z
-x,1/2+y,-z
-x,-y,-z
x,1/2+y,-z
-x,y,z
x,1/2-y,z
1/2+x,1/2+y,1/2+z
1/2-x,-y,1/2+z
1/2+x,1/2-y,1/2-z
1/2-x,y,1/2-z
1/2-x,1/2-y,1/2-z
1/2+x,y,1/2-z
1/2-x,1/2+y,1/2+z
1/2+x,-y,1/2+z
loop_
_atom_site_type_symbol
_atom_site_label
_atom_site_fract_x
_atom_site_fract_y
_atom_site_fract_z
Si Si1 0.614009 0.971294 0.778326
Si Si2 0.884386 0.154203 0.690496
Si Si3 0.890226 0.611443 0.401695
Si Si4 0.610229 0.588852 0.922502
Si Si5 0.110402 0.348995 0.202431
Si Si6 0.610362 0.349999 0.991046
Si Si7 0.294374 0.153760 0.155685
O O1 0.500000 0.970267 0.780585
O O2 0.639008 0.919044 0.736842
O O3 0.652864 0.916512 0.816586
O O4 0.645262 0.070667 0.783038
O O5 0.855387 0.250000 0.704381
O O6 0.851908 0.139935 0.642789
O O7 0.000000 0.152789 0.690206
O O8 0.889291 0.508568 0.406047
O O9 0.846725 0.642481 0.445187
O O10 0.000000 0.641684 0.401206
O O11 0.500000 0.618553 0.921598
O O12 0.673842 0.642409 0.891226
O O13 0.644996 0.595800 0.969783
O O14 0.119673 0.250000 0.218554
O O15 0.182932 0.356468 0.164613
O O16 0.000000 0.361410 0.191923
O O17 0.500000 0.377090 0.985978
O O18 0.612888 0.250000 0.003327
O O19 0.321234 0.250000 0.169807
#
# Coordination Sequence:
#
# PCOD9534209 Si02
#       7
#    16  16  16  16  16  16  16
#     4  10  18  29  44  65  90 114 142 176 213 254
#     4   9  16  26  41  61  85 116 153 182 204 238
#     4   9  15  25  38  54  80 118 156 179 198 234
#     4  10  18  27  38  60  91 120 147 175 209 249
#     4   9  19  34  49  64  82 108 145 183 218 263
#     4   9  16  24  35  53  81 119 155 179 201 237
#     4  11  20  29  44  64  87 115 144 176 217 261
#
# _framework density 15.786987
#
# number of rings (size 3 to 8) (size 9 to 14) (size 15 to 20)
#    0.000    2.429    1.429    2.571    0.000    6.857 
#    0.000    0.000    0.000    1.714    0.000    0.000 
#    0.000    2.286    0.000    0.286    0.000    0.000 
#
# Total GULP energy -311771.580569 kJ/mol
# GULP energy per Si atom -5567.349653 kJ/mol
# Density = 1.575106 g / cm^3
# Si number density = 15.786987 Si / 1000 Ang^3
#
#
#
# Elastic Constant Matrix: (Units=GPa)
#
#
# Indices 1 2 3 4 5 6 
#
# 1 26.1210 20.6410 26.6268 0.0000 0.0000 0.0000
# 2 20.6410 94.0214 27.4429 0.0000 0.0000 0.0000
# 3 26.6268 27.4429 60.3209 0.0000 0.0000 0.0000
# 4 0.0000 0.0000 0.0000 24.1409 0.0000 0.0000
# 5 0.0000 0.0000 0.0000 0.0000 12.4687 0.0000
# 6 0.0000 0.0000 0.0000 0.0000 0.0000 6.3787
#
#
#
# Elastic Compliance Matrix: (Units=1/GPa)
#
#
# Indices 1 2 3 4 5 6 
#
# 1 0.074208 -0.007761 -0.029226 0.000000 0.000000 0.000000
# 2 -0.007761 0.013076 -0.002523 0.000000 0.000000 0.000000
# 3 -0.029226 -0.002523 0.030627 0.000000 0.000000 0.000000
# 4 0.000000 0.000000 0.000000 0.041423 0.000000 0.000000
# 5 0.000000 0.000000 0.000000 0.000000 0.080201 0.000000
# 6 0.000000 0.000000 0.000000 0.000000 0.000000 0.156772
#
#
# Mechanical properties :
#
#
# Convention : Reuss Voigt Hill
#
# Bulk Modulus (GPa) = 25.71293 36.65384 31.18339
# Shear Modulus (GPa) = 10.23980 15.64784 12.94382
#
# Velocity S-wave (km/s) = 2.54957 3.15173 2.86650
# Velocity P-wave (km/s) = 4.99899 6.04257 5.54538
#
# Compressibility (1/GPa) = 0.03889094
#
# Stress axis : x y z
#
# Youngs Moduli (GPa) = 13.47563 76.47528 32.65116
#
# Poissons Ratio (x) = 0.59351 0.95426
# Poissons Ratio (y) = 0.10458 0.08238
# Poissons Ratio (z) = 0.39384 0.19296
#
# Static dielectric constant tensor:
#      x y z
#    x 1.503150 0.000000 0.000000 
#    y 0.000000 1.581240 0.000000 
#    z 0.000000 0.000000 1.557390 
# 
# From -- ./inp_files/72688.got.cif
#   From: 2010.05.17/outbox.cif.g08.bks.cpg/sg74_37_cif.got.tgz:72688.got - 2010.06.03 17:57:02.
