data_PCOD9534492
_publ_section_title
;
Structure prediction by ZEFSAII (Michael W. Deem and Ramdas Pophale) SiO2 
 PCOD9534492
Probable space group: I M M A
;
_chemical_formula_sum "Si O2"
_cell_formula_units_Z 76
_cell_length_a 19.521094
_cell_length_b 7.535463
_cell_length_c 41.441721
_cell_angle_alpha 90.000000
_cell_angle_beta 90.000000
_cell_angle_gamma 90.000000
_cell_volume 6096.097116
_symmetry_space_group_name_H-M "I M M A"
_symmetry_group_IT_number 74
_symmetry_cell_setting 'orthorhombic'
loop_
_space_group_symop_operation_xyz
x,y,z
-x,1/2-y,z
x,-y,-z
-x,1/2+y,-z
-x,-y,-z
x,1/2+y,-z
-x,y,z
x,1/2-y,z
1/2+x,1/2+y,1/2+z
1/2-x,-y,1/2+z
1/2+x,1/2-y,1/2-z
1/2-x,y,1/2-z
1/2-x,1/2-y,1/2-z
1/2+x,y,1/2-z
1/2-x,1/2+y,1/2+z
1/2+x,-y,1/2+z
loop_
_atom_site_type_symbol
_atom_site_label
_atom_site_fract_x
_atom_site_fract_y
_atom_site_fract_z
Si Si1 0.000000 0.250000 0.699071
Si Si2 0.649488 0.536386 0.731750
Si Si3 0.583217 0.750000 0.086585
Si Si4 0.916827 0.551392 0.536099
Si Si5 0.639125 0.750000 0.158141
Si Si6 0.500000 0.534827 0.745029
Si Si7 0.713741 0.964668 0.801292
O O1 0.067341 0.250000 0.677284
O O2 0.000000 0.423840 0.721899
O O3 0.652193 0.750000 0.731070
O O4 0.570695 0.485301 0.727227
O O5 0.673149 0.488531 0.768078
O O6 0.707909 0.480485 0.706713
O O7 0.500000 0.750000 0.091494
O O8 0.602035 0.582843 0.064229
O O9 0.621119 0.750000 0.120556
O O10 0.893757 0.500000 0.500000
O O11 0.894568 0.750000 0.543368
O O12 0.000000 0.547878 0.534864
O O13 0.680996 0.577444 0.170153
O O14 0.500000 0.750000 0.750467
O O15 0.709594 0.750000 0.805675
#
# Coordination Sequence:
#
# PCOD9534492 Si02
#       7
#     4  16   8  16   8   8  16
#     4  12  22  28  38  58  74 106 134 156 214 252
#     4   8  15  28  45  60  73  96 132 169 206 242
#     4  10  20  30  38  58  82  96 130 164 191 240
#     4   9  15  26  44  60  73  95 119 152 196 231
#     4  12  22  30  41  54  80 111 130 163 204 247
#     4  10  18  30  44  60  78  94 125 178 217 243
#     4   9  18  31  43  56  75 102 134 163 198 250
#
# _framework density 12.466993
#
# number of rings (size 3 to 8) (size 9 to 14) (size 15 to 20)
#    0.000    2.526    3.684    1.263    0.000    3.368 
#    0.000    0.000    0.000    0.000    0.000    0.000 
#    0.000    0.000    0.000    0.000    0.000    0.000 
#
# Total GULP energy -211582.951435 kJ/mol
# GULP energy per Si atom -5567.972406 kJ/mol
# Density = 1.243862 g / cm^3
# Si number density = 12.466993 Si / 1000 Ang^3
#
#
#
# Elastic Constant Matrix: (Units=GPa)
#
#
# Indices 1 2 3 4 5 6 
#
# 1 88.8906 26.4536 39.6452 0.0000 0.0000 0.0000
# 2 26.4536 83.5653 50.1532 0.0000 0.0000 0.0000
# 3 39.6452 50.1532 93.8799 0.0000 0.0000 0.0000
# 4 0.0000 0.0000 0.0000 15.3688 0.0000 0.0000
# 5 0.0000 0.0000 0.0000 0.0000 15.4813 0.0000
# 6 0.0000 0.0000 0.0000 0.0000 0.0000 10.3791
#
#
#
# Elastic Compliance Matrix: (Units=1/GPa)
#
#
# Indices 1 2 3 4 5 6 
#
# 1 0.013955 -0.001296 -0.005201 0.000000 0.000000 0.000000
# 2 -0.001296 0.017735 -0.008927 0.000000 0.000000 0.000000
# 3 -0.005201 -0.008927 0.017617 0.000000 0.000000 0.000000
# 4 0.000000 0.000000 0.000000 0.065067 0.000000 0.000000
# 5 0.000000 0.000000 0.000000 0.000000 0.064594 0.000000
# 6 0.000000 0.000000 0.000000 0.000000 0.000000 0.096348
#
#
# Mechanical properties :
#
#
# Convention : Reuss Voigt Hill
#
# Bulk Modulus (GPa) = 54.17396 55.42666 54.80031
# Shear Modulus (GPa) = 16.00941 18.25143 17.13042
#
# Velocity S-wave (km/s) = 3.58738 3.83035 3.71086
# Velocity P-wave (km/s) = 7.79149 8.00733 7.90015
#
# Compressibility (1/GPa) = 0.01845905
#
# Stress axis : x y z
#
# Youngs Moduli (GPa) = 71.65860 56.38652 56.76292
#
# Poissons Ratio (x) = 0.07310 0.29520
# Poissons Ratio (y) = 0.09290 0.50672
# Poissons Ratio (z) = 0.37267 0.50336
#
# Static dielectric constant tensor:
#      x y z
#    x 1.418610 0.000000 0.000000 
#    y 0.000000 1.441160 0.000000 
#    z 0.000000 0.000000 1.371760 
# 
# From -- ./inp_files/72924.got.cif
#   From: 2010.05.17/outbox.cif.g08.bks.cpg/sg74_37_cif.got.tgz:72924.got - 2010.06.03 17:57:02.
