data_PCOD9534916
_publ_section_title
;
Structure prediction by ZEFSAII (Michael W. Deem and Ramdas Pophale) SiO2 
 PCOD9534916
Probable space group: I M M A
;
_chemical_formula_sum "Si O2"
_cell_formula_units_Z 104
_cell_length_a 8.657171
_cell_length_b 28.736719
_cell_length_c 23.751825
_cell_angle_alpha 90.000000
_cell_angle_beta 90.000000
_cell_angle_gamma 90.000000
_cell_volume 5908.947917
_symmetry_space_group_name_H-M "I M M A"
_symmetry_group_IT_number 74
_symmetry_cell_setting 'orthorhombic'
loop_
_space_group_symop_operation_xyz
x,y,z
-x,1/2-y,z
x,-y,-z
-x,1/2+y,-z
-x,-y,-z
x,1/2+y,-z
-x,y,z
x,1/2-y,z
1/2+x,1/2+y,1/2+z
1/2-x,-y,1/2+z
1/2+x,1/2-y,1/2-z
1/2-x,y,1/2-z
1/2-x,1/2-y,1/2-z
1/2+x,y,1/2-z
1/2-x,1/2+y,1/2+z
1/2+x,-y,1/2+z
loop_
_atom_site_type_symbol
_atom_site_label
_atom_site_fract_x
_atom_site_fract_y
_atom_site_fract_z
Si Si1 0.185084 0.926816 0.383293
Si Si2 0.816997 0.750000 0.313655
Si Si3 0.687115 0.446685 0.008829
Si Si4 0.814949 0.015790 0.310830
Si Si5 0.681578 0.655827 0.312454
Si Si6 0.313067 0.803347 0.812895
Si Si7 0.188570 0.105148 0.377576
O O1 0.219357 0.922983 0.449159
O O2 0.274668 0.888579 0.348392
O O3 0.000000 0.920842 0.375679
O O4 0.224727 0.977500 0.358012
O O5 0.750000 0.750000 0.250000
O O6 0.755724 0.702190 0.339078
O O7 0.000000 0.750000 0.311404
O O8 0.500000 0.450308 0.015280
O O9 0.740934 0.416570 0.062437
O O10 0.742787 0.500000 0.000000
O O11 0.750000 0.003160 0.250000
O O12 0.763904 0.066648 0.331347
O O13 0.000000 0.016460 0.307017
O O14 0.500000 0.662457 0.307457
O O15 0.750000 0.649563 0.250000
O O16 0.500000 0.804621 0.810545
O O17 0.267647 0.750000 0.827758
O O18 0.250000 0.813003 0.750000
O O19 0.262326 0.843691 0.856543
O O20 0.000000 0.105967 0.379465
#
# Coordination Sequence:
#
# PCOD9534916 Si02
#       7
#    16   8  16  16  16  16  16
#     4  10  19  31  49  72  97 129 168 209 252 302
#     4  10  18  32  54  78 102 128 164 204 245 294
#     4   9  15  28  50  72  93 126 171 213 252 297
#     4  10  19  29  44  68  97 126 159 199 249 301
#     4  11  21  34  52  75 104 136 167 203 252 304
#     4   9  17  29  47  72 101 130 160 201 254 307
#     4   9  16  28  47  70  95 126 164 208 251 296
#
# _framework density 17.600425999999999
#
# number of rings (size 3 to 8) (size 9 to 14) (size 15 to 20)
#    0.000    2.308    1.538    3.923    0.000    1.846 
#    0.000    0.000    1.692    2.308    0.000    0.000 
#    0.000    0.000    0.000    0.000    0.000    0.000 
#
# Total GULP energy -289815.961605 kJ/mol
# GULP energy per Si atom -5573.383877 kJ/mol
# Density = 1.756037 g / cm^3
# Si number density = 17.600426 Si / 1000 Ang^3
#
#
#
# Elastic Constant Matrix: (Units=GPa)
#
#
# Indices 1 2 3 4 5 6 
#
# 1 38.6021 31.9257 19.4180 0.0000 0.0000 0.0000
# 2 31.9257 127.7616 48.6236 0.0000 0.0000 0.0000
# 3 19.4180 48.6236 94.5694 0.0000 0.0000 0.0000
# 4 0.0000 0.0000 0.0000 17.2851 0.0000 0.0000
# 5 0.0000 0.0000 0.0000 0.0000 15.1362 0.0000
# 6 0.0000 0.0000 0.0000 0.0000 0.0000 14.7359
#
#
#
# Elastic Compliance Matrix: (Units=1/GPa)
#
#
# Indices 1 2 3 4 5 6 
#
# 1 0.033411 -0.007134 -0.003192 0.000000 0.000000 0.000000
# 2 -0.007134 0.011255 -0.004322 0.000000 0.000000 0.000000
# 3 -0.003192 -0.004322 0.013452 0.000000 0.000000 0.000000
# 4 0.000000 0.000000 0.000000 0.057853 0.000000 0.000000
# 5 0.000000 0.000000 0.000000 0.000000 0.066067 0.000000
# 6 0.000000 0.000000 0.000000 0.000000 0.000000 0.067862
#
#
# Mechanical properties :
#
#
# Convention : Reuss Voigt Hill
#
# Bulk Modulus (GPa) = 34.69651 51.20753 42.95202
# Shear Modulus (GPa) = 17.31285 20.16249 18.73767
#
# Velocity S-wave (km/s) = 3.13974 3.38830 3.26638
# Velocity P-wave (km/s) = 5.73587 6.66821 6.21954
#
# Compressibility (1/GPa) = 0.02882134
#
# Stress axis : x y z
#
# Youngs Moduli (GPa) = 29.92998 88.85298 74.33942
#
# Poissons Ratio (x) = 0.63388 0.23732
# Poissons Ratio (y) = 0.21352 0.32128
# Poissons Ratio (z) = 0.09555 0.38400
#
# Static dielectric constant tensor:
#      x y z
#    x 2.176310 0.000000 0.000000 
#    y 0.000000 1.644560 0.000000 
#    z 0.000000 0.000000 1.591080 
# 
# From -- ./inp_files/49632.got.cif
#   From: 2010.05.17/outbox.cif.g08.bks.cpg/sg74_25_cif.got.tgz:49632.got - 2010.06.03 17:57:02.
