data_PCOD9534953
_publ_section_title
;
Structure prediction by ZEFSAII (Michael W. Deem and Ramdas Pophale) SiO2 
 PCOD9534953
Probable space group: I M M A
;
_chemical_formula_sum "Si O2"
_cell_formula_units_Z 88
_cell_length_a 23.383470
_cell_length_b 21.492649
_cell_length_c 9.824295
_cell_angle_alpha 90.000000
_cell_angle_beta 90.000000
_cell_angle_gamma 90.000000
_cell_volume 4937.422593
_symmetry_space_group_name_H-M "I M M A"
_symmetry_group_IT_number 74
_symmetry_cell_setting 'orthorhombic'
loop_
_space_group_symop_operation_xyz
x,y,z
-x,1/2-y,z
x,-y,-z
-x,1/2+y,-z
-x,-y,-z
x,1/2+y,-z
-x,y,z
x,1/2-y,z
1/2+x,1/2+y,1/2+z
1/2-x,-y,1/2+z
1/2+x,1/2-y,1/2-z
1/2-x,y,1/2-z
1/2-x,1/2-y,1/2-z
1/2+x,y,1/2-z
1/2-x,1/2+y,1/2+z
1/2+x,-y,1/2+z
loop_
_atom_site_type_symbol
_atom_site_label
_atom_site_fract_x
_atom_site_fract_y
_atom_site_fract_z
Si Si1 0.000000 0.480041 0.340781
Si Si2 0.196006 0.821651 0.848732
Si Si3 0.229823 0.174403 0.601102
Si Si4 0.098321 0.176871 0.560318
Si Si5 0.500000 0.176743 0.457889
Si Si6 0.500000 0.882469 0.244319
Si Si7 0.585279 0.127361 0.234703
O O1 0.000000 0.500000 0.500000
O O2 0.054982 0.437699 0.303017
O O3 0.000000 0.543266 0.256619
O O4 0.172742 0.750000 0.861157
O O5 0.250000 0.817068 0.750000
O O6 0.150644 0.867684 0.781287
O O7 0.222607 0.843929 0.990923
O O8 0.228830 0.250000 0.594610
O O9 0.250000 0.155288 0.750000
O O10 0.164433 0.155064 0.572036
O O11 0.096073 0.250000 0.593558
O O12 0.055349 0.141441 0.660459
O O13 0.079465 0.166788 0.404260
O O14 0.500000 0.250000 0.480356
O O15 0.500000 0.143813 0.603594
O O16 0.552610 0.156570 0.362954
#
# Coordination Sequence:
#
# PCOD9534953 Si02
#       7
#     8  16  16  16   8   8  16
#     4  11  23  45  62  84 112 170 226 246 293 349
#     4  10  18  32  55  89 124 151 191 245 310 376
#     4   9  19  32  52  85 128 163 188 233 307 385
#     4  11  20  35  59  91 123 159 199 251 319 375
#     4  11  24  38  58  95 127 149 187 255 326 366
#     4  12  25  40  60  85 120 164 209 259 298 364
#     4  11  22  37  62  86 120 163 200 256 295 372
#
# _framework density 17.823063999999999
#
# number of rings (size 3 to 8) (size 9 to 14) (size 15 to 20)
#    0.000    1.455    3.636    3.000    2.545    1.455 
#    0.000    0.000    0.000    1.091    4.727    0.000 
#    0.000    0.000    0.000    0.000    0.000    0.000 
#
# Total GULP energy -245439.726689 kJ/mol
# GULP energy per Si atom -5578.175607 kJ/mol
# Density = 1.778250 g / cm^3
# Si number density = 17.823064 Si / 1000 Ang^3
#
#
#
# Elastic Constant Matrix: (Units=GPa)
#
#
# Indices 1 2 3 4 5 6 
#
# 1 114.3058 50.4014 50.4251 0.0000 0.0000 0.0000
# 2 50.4014 92.9683 31.8616 0.0000 0.0000 0.0000
# 3 50.4251 31.8616 138.9317 0.0000 0.0000 0.0000
# 4 0.0000 0.0000 0.0000 26.5339 0.0000 0.0000
# 5 0.0000 0.0000 0.0000 0.0000 30.4266 0.0000
# 6 0.0000 0.0000 0.0000 0.0000 0.0000 281.0000
#
#
#
# Elastic Compliance Matrix: (Units=1/GPa)
#
#
# Indices 1 2 3 4 5 6 
#
# 1 0.012756 -0.005783 -0.003303 0.000000 0.000000 0.000000
# 2 -0.005783 0.014296 -0.001180 0.000000 0.000000 0.000000
# 3 -0.003303 -0.001180 0.008667 0.000000 0.000000 0.000000
# 4 0.000000 0.000000 0.000000 0.037688 0.000000 0.000000
# 5 0.000000 0.000000 0.000000 0.000000 0.032866 0.000000
# 6 0.000000 0.000000 0.000000 0.000000 0.000000 0.003559
#
#
# Mechanical properties :
#
#
# Convention : Reuss Voigt Hill
#
# Bulk Modulus (GPa) = 65.84742 67.95357 66.90050
# Shear Modulus (GPa) = 36.92063 81.82662 59.37362
#
# Velocity S-wave (km/s) = 4.55632 6.78308 5.77799
# Velocity P-wave (km/s) = 8.04396 9.97780 9.06261
#
# Compressibility (1/GPa) = 0.01518662
#
# Stress axis : x y z
#
# Youngs Moduli (GPa) = 78.39598 69.95024 115.37694
#
# Poissons Ratio (x) = 0.40454 0.38114
# Poissons Ratio (y) = 0.45338 0.13609
# Poissons Ratio (z) = 0.25897 0.08251
#
# Static dielectric constant tensor:
#      x y z
#    x 1.653420 0.000000 0.000000 
#    y 0.000000 1.592270 0.000000 
#    z 0.000000 0.000000 1.628400 
# 
# From -- ./inp_files/13775.got.cif
#   From: 2010.05.17/outbox.cif.g08.bks.cpg/sg74_7_cif.got.tgz:13775.got - 2010.06.03 17:57:02.
