data_PCOD9534384
_publ_section_title
;
Structure prediction by ZEFSAII (Michael W. Deem and Ramdas Pophale) SiO2 
 PCOD9534384
Probable space group: I M M A
;
_chemical_formula_sum "Si O2"
_cell_formula_units_Z 120
_cell_length_a 27.577826
_cell_length_b 8.726683
_cell_length_c 28.358018
_cell_angle_alpha 90.000000
_cell_angle_beta 90.000000
_cell_angle_gamma 90.000000
_cell_volume 6824.724136
_symmetry_space_group_name_H-M "I M M A"
_symmetry_group_IT_number 74
_symmetry_cell_setting 'orthorhombic'
loop_
_space_group_symop_operation_xyz
x,y,z
-x,1/2-y,z
x,-y,-z
-x,1/2+y,-z
-x,-y,-z
x,1/2+y,-z
-x,y,z
x,1/2-y,z
1/2+x,1/2+y,1/2+z
1/2-x,-y,1/2+z
1/2+x,1/2-y,1/2-z
1/2-x,y,1/2-z
1/2-x,1/2-y,1/2-z
1/2+x,y,1/2-z
1/2-x,1/2+y,1/2+z
1/2+x,-y,1/2+z
loop_
_atom_site_type_symbol
_atom_site_label
_atom_site_fract_x
_atom_site_fract_y
_atom_site_fract_z
Si Si1 0.392892 0.434758 0.446631
Si Si2 0.500000 0.934093 0.552733
Si Si3 0.201214 0.565246 0.103416
Si Si4 0.746235 0.934050 0.196709
Si Si5 0.346650 0.068590 0.147126
Si Si6 0.295802 0.566613 0.948522
Si Si7 0.942593 0.921715 0.546075
Si Si8 0.445942 0.569186 0.146450
O O1 0.388512 0.500000 0.500000
O O2 0.389464 0.250000 0.448560
O O3 0.446956 0.478205 0.427605
O O4 0.349434 0.500844 0.415449
O O5 0.500000 0.750000 0.550569
O O6 0.500000 0.000000 0.500000
O O7 0.201213 0.750000 0.100657
O O8 0.214321 0.517565 0.157260
O O9 0.245112 0.501472 0.071143
O O10 0.748748 0.750000 0.198455
O O11 0.750000 0.993754 0.250000
O O12 0.694838 0.983745 0.175897
O O13 0.340908 0.250000 0.151613
O O14 0.335639 0.029561 0.091931
O O15 0.399200 0.018050 0.165379
O O16 0.291685 0.750000 0.951523
O O17 0.305885 0.500000 0.000000
O O18 0.923011 0.750000 0.555881
O O19 0.000000 0.901385 0.536725
O O20 0.920689 0.000000 0.500000
O O21 0.941825 0.031327 0.590928
O O22 0.500000 0.517639 0.161474
O O23 0.442147 0.750000 0.154525
#
# Coordination Sequence:
#
# PCOD9534384 Si02
#       8
#    16   8  16  16  16  16  16  16
#     4  10  18  29  45  68 101 139 178 214 247 286
#     4   8  16  28  42  62  92 134 178 214 244 276
#     4  10  19  31  49  74 101 129 163 202 250 301
#     4   9  19  37  59  80 101 126 158 203 254 307
#     4  10  21  35  52  76 103 130 163 205 250 300
#     4  10  20  33  48  68  97 133 169 204 246 293
#     4   9  16  26  40  58  83 117 158 202 242 279
#     4  10  20  33  49  69  94 126 163 201 243 290
#
# _framework density 17.583127999999999
#
# number of rings (size 3 to 8) (size 9 to 14) (size 15 to 20)
#    0.000    2.400    0.000    2.800    0.000    5.867 
#    0.000    1.333    0.000    0.000    1.733    0.000 
#    0.000    0.000    0.000    0.000    0.000    0.000 
#
# Total GULP energy -334406.734666 kJ/mol
# GULP energy per Si atom -5573.445578 kJ/mol
# Density = 1.754311 g / cm^3
# Si number density = 17.583128 Si / 1000 Ang^3
#
#
#
# Elastic Constant Matrix: (Units=GPa)
#
#
# Indices 1 2 3 4 5 6 
#
# 1 134.4568 11.2548 37.8274 0.0000 0.0000 0.0000
# 2 11.2548 21.7102 12.6026 0.0000 0.0000 0.0000
# 3 37.8274 12.6026 83.5230 0.0000 0.0000 0.0000
# 4 0.0000 0.0000 0.0000 14.1015 0.0000 0.0000
# 5 0.0000 0.0000 0.0000 0.0000 4.9069 0.0000
# 6 0.0000 0.0000 0.0000 0.0000 0.0000 21.5772
#
#
#
# Elastic Compliance Matrix: (Units=1/GPa)
#
#
# Indices 1 2 3 4 5 6 
#
# 1 0.008638 -0.002419 -0.003547 0.000000 0.000000 0.000000
# 2 -0.002419 0.051160 -0.006624 0.000000 0.000000 0.000000
# 3 -0.003547 -0.006624 0.014579 0.000000 0.000000 0.000000
# 4 0.000000 0.000000 0.000000 0.070914 0.000000 0.000000
# 5 0.000000 0.000000 0.000000 0.000000 0.203794 0.000000
# 6 0.000000 0.000000 0.000000 0.000000 0.000000 0.046345
#
#
# Mechanical properties :
#
#
# Convention : Reuss Voigt Hill
#
# Bulk Modulus (GPa) = 20.32644 40.33996 30.33320
# Shear Modulus (GPa) = 11.44141 19.98414 15.71277
#
# Velocity S-wave (km/s) = 2.55366 3.37494 2.99260
# Velocity P-wave (km/s) = 4.50335 6.17893 5.40645
#
# Compressibility (1/GPa) = 0.04919700
#
# Stress axis : x y z
#
# Youngs Moduli (GPa) = 115.77141 19.54638 68.59331
#
# Poissons Ratio (x) = 0.04728 0.24330
# Poissons Ratio (y) = 0.28003 0.45436
# Poissons Ratio (z) = 0.41064 0.12948
#
# Static dielectric constant tensor:
#      x y z
#    x 1.654070 0.000000 0.000000 
#    y 0.000000 1.547780 0.000000 
#    z 0.000000 0.000000 1.592830 
# 
# From -- ./inp_files/69037.got.cif
#   From: 2010.05.17/outbox.cif.g08.bks.cpg/sg74_35_cif.got.tgz:69037.got - 2010.06.03 17:57:02.
