data_PCOD9534684
_publ_section_title
;
Structure prediction by ZEFSAII (Michael W. Deem and Ramdas Pophale) SiO2 
 PCOD9534684
Probable space group: I M M A
;
_chemical_formula_sum "Si O2"
_cell_formula_units_Z 64
_cell_length_a 19.015389
_cell_length_b 13.091772
_cell_length_c 15.424174
_cell_angle_alpha 90.000000
_cell_angle_beta 90.000000
_cell_angle_gamma 90.000000
_cell_volume 3839.773114
_symmetry_space_group_name_H-M "I M M A"
_symmetry_group_IT_number 74
_symmetry_cell_setting 'orthorhombic'
loop_
_space_group_symop_operation_xyz
x,y,z
-x,1/2-y,z
x,-y,-z
-x,1/2+y,-z
-x,-y,-z
x,1/2+y,-z
-x,y,z
x,1/2-y,z
1/2+x,1/2+y,1/2+z
1/2-x,-y,1/2+z
1/2+x,1/2-y,1/2-z
1/2-x,y,1/2-z
1/2-x,1/2-y,1/2-z
1/2+x,y,1/2-z
1/2-x,1/2+y,1/2+z
1/2+x,-y,1/2+z
loop_
_atom_site_type_symbol
_atom_site_label
_atom_site_fract_x
_atom_site_fract_y
_atom_site_fract_z
Si Si1 0.849988 0.132521 0.445331
Si Si2 0.500000 0.871839 0.030040
Si Si3 0.783626 0.064840 0.622334
Si Si4 0.500000 0.625189 0.230966
Si Si5 0.648648 0.868281 0.297830
O O1 0.848083 0.250000 0.415829
O O2 0.804159 0.118727 0.532846
O O3 0.929436 0.105888 0.475916
O O4 0.818054 0.047756 0.381513
O O5 0.500000 0.750000 0.039994
O O6 0.500000 0.910429 0.129991
O O7 0.700643 0.067572 0.641234
O O8 0.818449 0.125652 0.701387
O O9 0.500000 0.750000 0.228314
O O10 0.430371 0.594224 0.282710
O O11 0.648785 0.750000 0.326411
#
# Coordination Sequence:
#
# PCOD9534684 Si02
#       5
#    16   8  16   8  16
#     4  10  19  31  45  68 100 127 156 193 235 289
#     4   9  16  28  46  72 101 128 151 185 241 293
#     4  10  19  28  47  70  93 128 160 186 240 284
#     4   9  16  27  49  72  96 126 153 194 249 280
#     4  10  18  31  47  69  96 122 160 202 237 279
#
# _framework density 16.667653000000001
#
# number of rings (size 3 to 8) (size 9 to 14) (size 15 to 20)
#    0.000    2.250    2.500    3.000    0.000    3.000 
#    0.000    2.500    0.000    3.000    0.000    4.375 
#    0.000    0.000    0.000    0.000    0.000    0.000 
#
# Total GULP energy -178273.636816 kJ/mol
# GULP energy per Si atom -5571.051150 kJ/mol
# Density = 1.662972 g / cm^3
# Si number density = 16.667653 Si / 1000 Ang^3
#
#
#
# Elastic Constant Matrix: (Units=GPa)
#
#
# Indices 1 2 3 4 5 6 
#
# 1 162.4362 35.6015 34.0188 0.0000 0.0000 0.0000
# 2 35.6015 96.3215 9.3063 0.0000 0.0000 0.0000
# 3 34.0188 9.3063 29.8929 0.0000 0.0000 0.0000
# 4 0.0000 0.0000 0.0000 20.6123 0.0000 0.0000
# 5 0.0000 0.0000 0.0000 0.0000 21.9763 0.0000
# 6 0.0000 0.0000 0.0000 0.0000 0.0000 -170.7290
#
#
#
# Elastic Compliance Matrix: (Units=1/GPa)
#
#
# Indices 1 2 3 4 5 6 
#
# 1 0.008545 -0.002288 -0.009012 0.000000 0.000000 0.000000
# 2 -0.002288 0.011316 -0.000920 0.000000 0.000000 0.000000
# 3 -0.009012 -0.000920 0.043995 0.000000 0.000000 0.000000
# 4 0.000000 0.000000 0.000000 0.048515 0.000000 0.000000
# 5 0.000000 0.000000 0.000000 0.000000 0.045504 0.000000
# 6 0.000000 0.000000 0.000000 0.000000 0.000000 -0.005857
#
#
# Mechanical properties :
#
#
# Convention : Reuss Voigt Hill
#
# Bulk Modulus (GPa) = 25.36946 49.61153 37.49049
# Shear Modulus (GPa) = 26.37189 -11.64647 7.36271
#
# Velocity S-wave (km/s) = 3.98203 -2.64625 2.10403
# Velocity P-wave (km/s) = 6.03290 4.52691 5.33333
#
# Compressibility (1/GPa) = 0.03941747
#
# Stress axis : x y z
#
# Youngs Moduli (GPa) = 117.02644 88.36829 22.72975
#
# Poissons Ratio (x) = 0.20215 0.20485
# Poissons Ratio (y) = 0.26771 0.02090
# Poissons Ratio (z) = 1.05468 0.08127
#
# Static dielectric constant tensor:
#      x y z
#    x 1.619410 0.000000 0.000000 
#    y 0.000000 1.616780 0.000000 
#    z 0.000000 0.000000 1.536180 
# 
# From -- ./inp_files/32039.got.cif
#   From: 2010.05.17/outbox.cif.g08.bks.cpg/sg74_17_cif.got.tgz:32039.got - 2010.06.03 17:57:02.
