data_PCOD9534327
_publ_section_title
;
Structure prediction by ZEFSAII (Michael W. Deem and Ramdas Pophale) SiO2 
 PCOD9534327
Probable space group: I M M A
;
_chemical_formula_sum "Si O2"
_cell_formula_units_Z 104
_cell_length_a 7.460522
_cell_length_b 27.503188
_cell_length_c 23.912567
_cell_angle_alpha 90.000000
_cell_angle_beta 90.000000
_cell_angle_gamma 90.000000
_cell_volume 4906.575125
_symmetry_space_group_name_H-M "I M M A"
_symmetry_group_IT_number 74
_symmetry_cell_setting 'orthorhombic'
loop_
_space_group_symop_operation_xyz
x,y,z
-x,1/2-y,z
x,-y,-z
-x,1/2+y,-z
-x,-y,-z
x,1/2+y,-z
-x,y,z
x,1/2-y,z
1/2+x,1/2+y,1/2+z
1/2-x,-y,1/2+z
1/2+x,1/2-y,1/2-z
1/2-x,y,1/2-z
1/2-x,1/2-y,1/2-z
1/2+x,y,1/2-z
1/2-x,1/2+y,1/2+z
1/2+x,-y,1/2+z
loop_
_atom_site_type_symbol
_atom_site_label
_atom_site_fract_x
_atom_site_fract_y
_atom_site_fract_z
Si Si1 0.280836 0.193583 0.489047
Si Si2 0.785617 0.928452 0.186973
Si Si3 0.212474 0.196869 0.315484
Si Si4 0.215553 0.460647 0.186366
Si Si5 0.219035 0.659312 0.112998
Si Si6 0.699804 0.382726 0.397731
Si Si7 0.213803 0.250000 0.815081
O O1 0.500000 0.194538 0.485669
O O2 0.223169 0.250000 0.479946
O O3 0.229355 0.174962 0.550669
O O4 0.218111 0.152188 0.445331
O O5 0.750000 0.909761 0.250000
O O6 0.720042 0.891756 0.139304
O O7 0.000000 0.931383 0.181329
O O8 0.716968 0.983788 0.183827
O O9 0.268260 0.250000 0.336932
O O10 0.250000 0.195604 0.250000
O O11 0.311969 0.154611 0.346446
O O12 0.000000 0.191574 0.324277
O O13 0.250000 0.442198 0.250000
O O14 0.284963 0.428898 0.133992
O O15 0.000000 0.460511 0.180880
O O16 0.280447 0.701746 0.154568
O O17 0.000000 0.658126 0.112899
O O18 0.500000 0.396875 0.417820
O O19 0.250000 0.250000 0.750000
O O20 0.000000 0.250000 0.823127
#
# Coordination Sequence:
#
# PCOD9534327 Si02
#       7
#    16  16  16  16  16  16   8
#     4   9  16  28  46  68  93 123 159 195 232 278
#     4   9  17  30  48  69  95 124 152 188 236 286
#     4  10  20  32  46  66  93 121 151 193 244 292
#     4   9  18  31  46  68  95 121 153 194 239 282
#     4   9  16  28  46  69  95 123 155 191 231 278
#     4  10  19  30  47  69  91 120 161 200 231 273
#     4  10  18  28  46  72  98 120 151 192 231 280
#
# _framework density 21.196047
#
# number of rings (size 3 to 8) (size 9 to 14) (size 15 to 20)
#    0.000    2.615    0.769    1.846    0.000    3.385 
#    0.000    0.769    0.000    6.462    0.000    0.000 
#    0.000    6.154    0.000    0.000    0.000    0.000 
#
# Total GULP energy -289994.928774 kJ/mol
# GULP energy per Si atom -5576.825553 kJ/mol
# Density = 2.114780 g / cm^3
# Si number density = 21.196047 Si / 1000 Ang^3
#
#
#
# Elastic Constant Matrix: (Units=GPa)
#
#
# Indices 1 2 3 4 5 6 
#
# 1 66.4266 4.6383 -5.0358 0.0000 0.0000 0.0000
# 2 4.6383 121.2062 84.8844 0.0000 0.0000 0.0000
# 3 -5.0358 84.8844 149.1262 0.0000 0.0000 0.0000
# 4 0.0000 0.0000 0.0000 38.3691 0.0000 0.0000
# 5 0.0000 0.0000 0.0000 0.0000 13.2554 0.0000
# 6 0.0000 0.0000 0.0000 0.0000 0.0000 -5.2954
#
#
#
# Elastic Compliance Matrix: (Units=1/GPa)
#
#
# Indices 1 2 3 4 5 6 
#
# 1 0.015271 -0.001572 0.001411 0.000000 0.000000 0.000000
# 2 -0.001572 0.013881 -0.007955 0.000000 0.000000 0.000000
# 3 0.001411 -0.007955 0.011281 0.000000 0.000000 0.000000
# 4 0.000000 0.000000 0.000000 0.026063 0.000000 0.000000
# 5 0.000000 0.000000 0.000000 0.000000 0.075441 0.000000
# 6 0.000000 0.000000 0.000000 0.000000 0.000000 -0.188842
#
#
# Mechanical properties :
#
#
# Convention : Reuss Voigt Hill
#
# Bulk Modulus (GPa) = 41.32040 56.19254 48.75647
# Shear Modulus (GPa) = -221.17955 26.08396 -97.54780
#
# Velocity S-wave (km/s) = -10.22624 3.51180 -6.79129
# Velocity P-wave (km/s) = 10.94979 6.55836 6.20023
#
# Compressibility (1/GPa) = 0.02420112
#
# Stress axis : x y z
#
# Youngs Moduli (GPa) = 65.48383 72.03895 88.64314
#
# Poissons Ratio (x) = 0.11327 -0.12504
# Poissons Ratio (y) = 0.10296 0.70512
# Poissons Ratio (z) = -0.09237 0.57304
#
# Static dielectric constant tensor:
#      x y z
#    x 1.887210 0.000000 0.000000 
#    y 0.000000 1.787010 0.000000 
#    z 0.000000 0.000000 1.773590 
# 
# From -- ./inp_files/57588.got.cif
#   From: 2010.05.17/outbox.cif.g08.bks.cpg/sg74_29_cif.got.tgz:57588.got - 2010.06.03 17:57:02.
