data_PCOD9534947
_publ_section_title
;
Structure prediction by ZEFSAII (Michael W. Deem and Ramdas Pophale) SiO2 
 PCOD9534947
Probable space group: I M M A
;
_chemical_formula_sum "Si O2"
_cell_formula_units_Z 64
_cell_length_a 20.827666
_cell_length_b 15.247440
_cell_length_c 10.083841
_cell_angle_alpha 90.000000
_cell_angle_beta 90.000000
_cell_angle_gamma 90.000000
_cell_volume 3202.311145
_symmetry_space_group_name_H-M "I M M A"
_symmetry_group_IT_number 74
_symmetry_cell_setting 'orthorhombic'
loop_
_space_group_symop_operation_xyz
x,y,z
-x,1/2-y,z
x,-y,-z
-x,1/2+y,-z
-x,-y,-z
x,1/2+y,-z
-x,y,z
x,1/2-y,z
1/2+x,1/2+y,1/2+z
1/2-x,-y,1/2+z
1/2+x,1/2-y,1/2-z
1/2-x,y,1/2-z
1/2-x,1/2-y,1/2-z
1/2+x,y,1/2-z
1/2-x,1/2+y,1/2+z
1/2+x,-y,1/2+z
loop_
_atom_site_type_symbol
_atom_site_label
_atom_site_fract_x
_atom_site_fract_y
_atom_site_fract_z
Si Si1 0.795543 0.596415 0.443797
Si Si2 0.679366 0.148388 0.222844
Si Si3 0.841560 0.647065 0.167446
Si Si4 0.572892 0.642352 0.574259
O O1 0.785149 0.500000 0.500000
O O2 0.830213 0.644543 0.565461
O O3 0.834364 0.597856 0.306668
O O4 0.726443 0.637929 0.409511
O O5 0.684114 0.250000 0.264567
O O6 0.750000 0.108059 0.250000
O O7 0.621874 0.111406 0.311201
O O8 0.850595 0.750000 0.197675
O O9 0.896508 0.616934 0.066951
O O10 0.500000 0.612486 0.591640
O O11 0.571915 0.750000 0.576258
#
# Coordination Sequence:
#
# PCOD9534947 Si02
#       4
#    16  16  16  16
#     4  11  22  32  53  81 111 141 182 234 271 324
#     4  10  18  32  55  82 108 138 176 226 280 324
#     4  10  20  36  56  79 111 146 183 225 279 331
#     4   9  18  33  56  83 108 138 180 226 271 325
#
# _framework density 19.985567
#
# number of rings (size 3 to 8) (size 9 to 14) (size 15 to 20)
#    0.000    2.000    2.500    3.000    3.500    0.000 
#    0.000    1.250    0.000   14.250    0.000    0.000 
#    0.000    0.000    0.000    0.000    0.000    0.000 
#
# Total GULP energy -178637.037528 kJ/mol
# GULP energy per Si atom -5582.407423 kJ/mol
# Density = 1.994008 g / cm^3
# Si number density = 19.985567 Si / 1000 Ang^3
#
#
#
# Elastic Constant Matrix: (Units=GPa)
#
#
# Indices 1 2 3 4 5 6 
#
# 1 145.6391 0.6354 88.1484 0.0000 0.0000 0.0000
# 2 0.6354 33.2304 11.3249 0.0000 0.0000 0.0000
# 3 88.1484 11.3249 167.6695 0.0000 0.0000 0.0000
# 4 0.0000 0.0000 0.0000 44.8637 0.0000 0.0000
# 5 0.0000 0.0000 0.0000 0.0000 29.4690 0.0000
# 6 0.0000 0.0000 0.0000 0.0000 0.0000 -4.9725
#
#
#
# Elastic Compliance Matrix: (Units=1/GPa)
#
#
# Indices 1 2 3 4 5 6 
#
# 1 0.010160 0.001664 -0.005454 0.000000 0.000000 0.000000
# 2 0.001664 0.031075 -0.002974 0.000000 0.000000 0.000000
# 3 -0.005454 -0.002974 0.009032 0.000000 0.000000 0.000000
# 4 0.000000 0.000000 0.000000 0.022290 0.000000 0.000000
# 5 0.000000 0.000000 0.000000 0.000000 0.033934 0.000000
# 6 0.000000 0.000000 0.000000 0.000000 0.000000 -0.201105
#
#
# Mechanical properties :
#
#
# Convention : Reuss Voigt Hill
#
# Bulk Modulus (GPa) = 27.21818 60.75072 43.98445
# Shear Modulus (GPa) = -72.63074 30.30073 -21.16501
#
# Velocity S-wave (km/s) = -6.03494 3.89798 -3.25778
# Velocity P-wave (km/s) = 5.90865 7.12196 2.81159
#
# Compressibility (1/GPa) = 0.03674015
#
# Stress axis : x y z
#
# Youngs Moduli (GPa) = 98.42595 32.18061 110.71542
#
# Poissons Ratio (x) = -0.05356 0.60382
# Poissons Ratio (y) = -0.16382 0.32925
# Poissons Ratio (z) = 0.53679 0.09570
#
# Static dielectric constant tensor:
#      x y z
#    x 1.687360 0.000000 0.000000 
#    y 0.000000 1.772850 0.000000 
#    z 0.000000 0.000000 1.726290 
# 
# From -- ./inp_files/11794.got.cif
#   From: 2010.05.17/outbox.cif.g08.bks.cpg/sg74_6_cif.got.tgz:11794.got - 2010.06.03 17:57:02.
