data_PCOD9534816
_publ_section_title
;
Structure prediction by ZEFSAII (Michael W. Deem and Ramdas Pophale) SiO2 
 PCOD9534816
Probable space group: I M M A
;
_chemical_formula_sum "Si O2"
_cell_formula_units_Z 88
_cell_length_a 24.276124
_cell_length_b 18.596547
_cell_length_c 10.512268
_cell_angle_alpha 90.000000
_cell_angle_beta 90.000000
_cell_angle_gamma 90.000000
_cell_volume 4745.785264
_symmetry_space_group_name_H-M "I M M A"
_symmetry_group_IT_number 74
_symmetry_cell_setting 'orthorhombic'
loop_
_space_group_symop_operation_xyz
x,y,z
-x,1/2-y,z
x,-y,-z
-x,1/2+y,-z
-x,-y,-z
x,1/2+y,-z
-x,y,z
x,1/2-y,z
1/2+x,1/2+y,1/2+z
1/2-x,-y,1/2+z
1/2+x,1/2-y,1/2-z
1/2-x,y,1/2-z
1/2-x,1/2-y,1/2-z
1/2+x,y,1/2-z
1/2-x,1/2+y,1/2+z
1/2+x,-y,1/2+z
loop_
_atom_site_type_symbol
_atom_site_label
_atom_site_fract_x
_atom_site_fract_y
_atom_site_fract_z
Si Si1 0.000000 0.433393 0.158242
Si Si2 0.881276 0.416531 0.034458
Si Si3 0.385085 0.664171 0.277772
Si Si4 0.500000 0.386922 0.044845
Si Si5 0.500000 0.910655 0.236371
Si Si6 0.623484 0.165051 0.997390
Si Si7 0.815677 0.835422 0.749084
O O1 0.944506 0.408844 0.086082
O O2 0.000000 0.409846 0.307123
O O3 0.000000 0.479852 0.827206
O O4 0.842967 0.384510 0.143983
O O5 0.873591 0.500000 0.000000
O O6 0.867130 0.372421 0.907393
O O7 0.380303 0.750000 0.286468
O O8 0.447904 0.638756 0.262464
O O9 0.360272 0.637390 0.142931
O O10 0.500000 0.434563 0.913195
O O11 0.441301 0.347183 0.026356
O O12 0.632221 0.250000 0.991049
O O13 0.659507 0.138619 0.114527
O O14 0.830241 0.750000 0.767088
O O15 0.750000 0.840213 0.750000
#
# Coordination Sequence:
#
# PCOD9534816 Si02
#       7
#     8  16  16   8   8  16  16
#     4  12  21  35  54  87 126 163 191 238 302 365
#     4  12  23  39  60  87 126 159 194 245 303 368
#     4  10  20  35  56  84 118 156 196 239 294 357
#     4  10  18  31  55  85 117 154 190 237 291 358
#     4  10  19  33  52  83 118 159 194 233 293 355
#     4   9  18  35  58  86 116 149 193 244 292 351
#     4  10  22  43  67  88 114 154 204 256 302 347
#
# _framework density 18.542770000000001
#
# number of rings (size 3 to 8) (size 9 to 14) (size 15 to 20)
#    0.000    1.636    3.636    2.182    0.000    2.182 
#    0.000    5.000    0.000    4.364    0.000    0.000 
#    0.000    0.000    0.000    0.000    0.000    0.000 
#
# Total GULP energy -245128.976372 kJ/mol
# GULP energy per Si atom -5571.113099 kJ/mol
# Density = 1.850057 g / cm^3
# Si number density = 18.542770 Si / 1000 Ang^3
#
#
#
# Elastic Constant Matrix: (Units=GPa)
#
#
# Indices 1 2 3 4 5 6 
#
# 1 60.0749 14.8608 48.0407 0.0000 0.0000 0.0000
# 2 14.8608 49.9254 52.4640 0.0000 0.0000 0.0000
# 3 48.0407 52.4640 192.3741 0.0000 0.0000 0.0000
# 4 0.0000 0.0000 0.0000 36.1888 0.0000 0.0000
# 5 0.0000 0.0000 0.0000 0.0000 3.8386 0.0000
# 6 0.0000 0.0000 0.0000 0.0000 0.0000 15.2657
#
#
#
# Elastic Compliance Matrix: (Units=1/GPa)
#
#
# Indices 1 2 3 4 5 6 
#
# 1 0.020837 -0.001029 -0.004923 0.000000 0.000000 0.000000
# 2 -0.001029 0.028127 -0.007414 0.000000 0.000000 0.000000
# 3 -0.004923 -0.007414 0.008449 0.000000 0.000000 0.000000
# 4 0.000000 0.000000 0.000000 0.027633 0.000000 0.000000
# 5 0.000000 0.000000 0.000000 0.000000 0.260509 0.000000
# 6 0.000000 0.000000 0.000000 0.000000 0.000000 0.065507
#
#
# Mechanical properties :
#
#
# Convention : Reuss Voigt Hill
#
# Bulk Modulus (GPa) = 32.59242 59.23390 45.91316
# Shear Modulus (GPa) = 11.16019 23.52589 17.34304
#
# Velocity S-wave (km/s) = 2.45595 3.56580 3.06158
# Velocity P-wave (km/s) = 5.06530 6.99764 6.10837
#
# Compressibility (1/GPa) = 0.03068198
#
# Stress axis : x y z
#
# Youngs Moduli (GPa) = 47.99100 35.55314 118.35110
#
# Poissons Ratio (x) = 0.03659 0.58263
# Poissons Ratio (y) = 0.04939 0.87742
# Poissons Ratio (z) = 0.23626 0.26358
#
# Static dielectric constant tensor:
#      x y z
#    x 1.606450 0.000000 0.000000 
#    y 0.000000 1.631400 0.000000 
#    z 0.000000 0.000000 1.709020 
# 
# From -- ./inp_files/13777.got.cif
#   From: 2010.05.17/outbox.cif.g08.bks.cpg/sg74_7_cif.got.tgz:13777.got - 2010.06.03 17:57:02.
