data_PCOD9534095
_publ_section_title
;
Structure prediction by ZEFSAII (Michael W. Deem and Ramdas Pophale) SiO2 
 PCOD9534095
Probable space group: I M M A
;
_chemical_formula_sum "Si O2"
_cell_formula_units_Z 72
_cell_length_a 25.321525
_cell_length_b 9.903139
_cell_length_c 16.643040
_cell_angle_alpha 90.000000
_cell_angle_beta 90.000000
_cell_angle_gamma 90.000000
_cell_volume 4173.451679
_symmetry_space_group_name_H-M "I M M A"
_symmetry_group_IT_number 74
_symmetry_cell_setting 'orthorhombic'
loop_
_space_group_symop_operation_xyz
x,y,z
-x,1/2-y,z
x,-y,-z
-x,1/2+y,-z
-x,-y,-z
x,1/2+y,-z
-x,y,z
x,1/2-y,z
1/2+x,1/2+y,1/2+z
1/2-x,-y,1/2+z
1/2+x,1/2-y,1/2-z
1/2-x,y,1/2-z
1/2-x,1/2-y,1/2-z
1/2+x,y,1/2-z
1/2-x,1/2+y,1/2+z
1/2+x,-y,1/2+z
loop_
_atom_site_type_symbol
_atom_site_label
_atom_site_fract_x
_atom_site_fract_y
_atom_site_fract_z
Si Si1 0.784006 0.095404 0.371125
Si Si2 0.438716 0.595802 0.140497
Si Si3 0.669376 0.088392 0.424741
Si Si4 0.370060 0.089003 0.249764
Si Si5 0.365163 0.500000 0.000000
O O1 0.771252 0.250000 0.351215
O O2 0.728453 0.037676 0.400289
O O3 0.815547 0.041045 0.293910
O O4 0.826251 0.086330 0.443413
O O5 0.500000 0.568213 0.122326
O O6 0.434102 0.750000 0.169144
O O7 0.416108 0.492938 0.206395
O O8 0.402905 0.579338 0.061082
O O9 0.671406 0.250000 0.443330
O O10 0.634711 0.070757 0.344695
O O11 0.651413 0.000000 0.500000
O O12 0.375016 0.250000 0.233488
#
# Coordination Sequence:
#
# PCOD9534095 Si02
#       5
#    16  16  16  16   8
#     4   9  16  28  47  70 101 138 170 199 237 294
#     4  10  21  35  52  76 105 135 172 218 260 298
#     4  10  19  32  50  75 103 134 171 210 253 302
#     4   9  19  34  52  72  99 136 175 212 252 302
#     4  10  17  30  50  74 108 140 169 194 244 302
#
# _framework density 17.251906999999999
#
# number of rings (size 3 to 8) (size 9 to 14) (size 15 to 20)
#    0.000    2.444    1.111    1.667    0.000    4.889 
#    0.000    0.000    0.000    4.667    0.000    0.000 
#    0.000    0.000    0.000    0.000    0.000    0.000 
#
# Total GULP energy -200517.886836 kJ/mol
# GULP energy per Si atom -5569.941301 kJ/mol
# Density = 1.721264 g / cm^3
# Si number density = 17.251907 Si / 1000 Ang^3
#
#
#
# Elastic Constant Matrix: (Units=GPa)
#
#
# Indices 1 2 3 4 5 6 
#
# 1 50.3715 19.7097 18.2108 0.0000 0.0000 0.0000
# 2 19.7097 49.4725 40.3976 0.0000 0.0000 0.0000
# 3 18.2108 40.3976 109.0821 0.0000 0.0000 0.0000
# 4 0.0000 0.0000 0.0000 27.1771 0.0000 0.0000
# 5 0.0000 0.0000 0.0000 0.0000 13.5140 0.0000
# 6 0.0000 0.0000 0.0000 0.0000 0.0000 22.6698
#
#
#
# Elastic Compliance Matrix: (Units=1/GPa)
#
#
# Indices 1 2 3 4 5 6 
#
# 1 0.023551 -0.008848 -0.000655 0.000000 0.000000 0.000000
# 2 -0.008848 0.032300 -0.010485 0.000000 0.000000 0.000000
# 3 -0.000655 -0.010485 0.013160 0.000000 0.000000 0.000000
# 4 0.000000 0.000000 0.000000 0.036796 0.000000 0.000000
# 5 0.000000 0.000000 0.000000 0.000000 0.073997 0.000000
# 6 0.000000 0.000000 0.000000 0.000000 0.000000 0.044112
#
#
# Mechanical properties :
#
#
# Convention : Reuss Voigt Hill
#
# Bulk Modulus (GPa) = 34.44083 40.61804 37.52944
# Shear Modulus (GPa) = 18.27691 21.37939 19.82815
#
# Velocity S-wave (km/s) = 3.25839 3.52411 3.39386
# Velocity P-wave (km/s) = 5.84491 6.33675 6.09579
#
# Compressibility (1/GPa) = 0.02903530
#
# Stress axis : x y z
#
# Youngs Moduli (GPa) = 42.46034 30.95999 75.98949
#
# Poissons Ratio (x) = 0.27393 0.04978
# Poissons Ratio (y) = 0.37569 0.79673
# Poissons Ratio (z) = 0.02781 0.32461
#
# Static dielectric constant tensor:
#      x y z
#    x 1.594000 0.000000 0.000000 
#    y 0.000000 1.582900 0.000000 
#    z 0.000000 0.000000 1.595930 
# 
# From -- ./inp_files/29210.got.cif
#   From: 2010.05.17/outbox.cif.g08.bks.cpg/sg74_15_cif.got.tgz:29210.got - 2010.06.03 17:57:02.
