data_PCOD9534986
_publ_section_title
;
Structure prediction by ZEFSAII (Michael W. Deem and Ramdas Pophale) SiO2 
 PCOD9534986
Probable space group: I M M A
;
_chemical_formula_sum "Si O2"
_cell_formula_units_Z 88
_cell_length_a 18.604993
_cell_length_b 8.862407
_cell_length_c 29.628441
_cell_angle_alpha 90.000000
_cell_angle_beta 90.000000
_cell_angle_gamma 90.000000
_cell_volume 4885.286093
_symmetry_space_group_name_H-M "I M M A"
_symmetry_group_IT_number 74
_symmetry_cell_setting 'orthorhombic'
loop_
_space_group_symop_operation_xyz
x,y,z
-x,1/2-y,z
x,-y,-z
-x,1/2+y,-z
-x,-y,-z
x,1/2+y,-z
-x,y,z
x,1/2-y,z
1/2+x,1/2+y,1/2+z
1/2-x,-y,1/2+z
1/2+x,1/2-y,1/2-z
1/2-x,y,1/2-z
1/2-x,1/2-y,1/2-z
1/2+x,y,1/2-z
1/2-x,1/2+y,1/2+z
1/2+x,-y,1/2+z
loop_
_atom_site_type_symbol
_atom_site_label
_atom_site_fract_x
_atom_site_fract_y
_atom_site_fract_z
Si Si1 0.705001 0.074582 0.203689
Si Si2 0.647564 0.568424 0.050017
Si Si3 0.723021 0.428996 0.617165
Si Si4 0.584631 0.576383 0.255615
Si Si5 0.417858 0.069700 0.354362
Si Si6 0.500000 0.931627 0.949025
O O1 0.702541 0.250000 0.190816
O O2 0.750000 0.061488 0.250000
O O3 0.741977 0.981711 0.164184
O O4 0.627807 0.010466 0.217293
O O5 0.638611 0.750000 0.047661
O O6 0.718371 0.533275 0.078992
O O7 0.574771 0.495268 0.070676
O O8 0.655785 0.500000 0.000000
O O9 0.712490 0.250000 0.617274
O O10 0.645375 0.507669 0.614156
O O11 0.500000 0.574522 0.246318
O O12 0.609379 0.750000 0.258244
O O13 0.594560 0.498745 0.304406
O O14 0.500000 0.030039 0.367678
O O15 0.412698 0.250000 0.351271
O O16 0.500000 0.750000 0.950118
O O17 0.500000 0.000000 0.000000
#
# Coordination Sequence:
#
# PCOD9534986 Si02
#       6
#    16  16  16  16  16   8
#     4  11  22  35  53  78 108 145 183 224 271 319
#     4  10  21  38  60  86 113 144 181 225 273 323
#     4  11  23  37  57  83 110 144 183 225 275 327
#     4  10  20  34  53  75 102 141 184 225 270 318
#     4  10  20  34  54  80 109 142 182 227 271 321
#     4  10  18  32  58  86 112 146 182 220 268 320
#
# _framework density 18.013273000000002
#
# number of rings (size 3 to 8) (size 9 to 14) (size 15 to 20)
#    0.000    1.636    1.818    4.636    0.000    5.818 
#    1.636    0.000    0.000    0.545    0.000    0.000 
#    0.000    0.000    0.000    0.000    0.000    0.000 
#
# Total GULP energy -245654.933226 kJ/mol
# GULP energy per Si atom -5583.066664 kJ/mol
# Density = 1.797227 g / cm^3
# Si number density = 18.013273 Si / 1000 Ang^3
#
#
#
# Elastic Constant Matrix: (Units=GPa)
#
#
# Indices 1 2 3 4 5 6 
#
# 1 135.0339 41.9515 40.6044 0.0000 0.0000 0.0000
# 2 41.9515 51.0010 19.1589 0.0000 0.0000 0.0000
# 3 40.6044 19.1589 34.8614 0.0000 0.0000 0.0000
# 4 0.0000 0.0000 0.0000 20.3077 0.0000 0.0000
# 5 0.0000 0.0000 0.0000 0.0000 28.0199 0.0000
# 6 0.0000 0.0000 0.0000 0.0000 0.0000 27.1442
#
#
#
# Elastic Compliance Matrix: (Units=1/GPa)
#
#
# Indices 1 2 3 4 5 6 
#
# 1 0.012786 -0.006203 -0.011483 0.000000 0.000000 0.000000
# 2 -0.006203 0.027718 -0.008008 0.000000 0.000000 0.000000
# 3 -0.011483 -0.008008 0.046460 0.000000 0.000000 0.000000
# 4 0.000000 0.000000 0.000000 0.049242 0.000000 0.000000
# 5 0.000000 0.000000 0.000000 0.000000 0.035689 0.000000
# 6 0.000000 0.000000 0.000000 0.000000 0.000000 0.036840
#
#
# Mechanical properties :
#
#
# Convention : Reuss Voigt Hill
#
# Bulk Modulus (GPa) = 28.10863 47.14730 37.62796
# Shear Modulus (GPa) = 18.38354 23.03981 20.71167
#
# Velocity S-wave (km/s) = 3.19808 3.58026 3.39455
# Velocity P-wave (km/s) = 5.41066 6.58190 6.02481
#
# Compressibility (1/GPa) = 0.03557626
#
# Stress axis : x y z
#
# Youngs Moduli (GPa) = 78.21307 36.07715 21.52376
#
# Poissons Ratio (x) = 0.22380 0.24715
# Poissons Ratio (y) = 0.48519 0.17236
# Poissons Ratio (z) = 0.89809 0.28890
#
# Static dielectric constant tensor:
#      x y z
#    x 1.665910 0.000000 0.000000 
#    y 0.000000 1.607430 0.000000 
#    z 0.000000 0.000000 1.589150 
# 
# From -- ./inp_files/72965.got.cif
#   From: 2010.05.17/outbox.cif.g08.bks.cpg/sg74_37_cif.got.tgz:72965.got - 2010.06.03 17:57:02.
