data_PCOD9534962
_publ_section_title
;
Structure prediction by ZEFSAII (Michael W. Deem and Ramdas Pophale) SiO2 
 PCOD9534962
Probable space group: I M M A
;
_chemical_formula_sum "Si O2"
_cell_formula_units_Z 88
_cell_length_a 8.159718
_cell_length_b 19.235563
_cell_length_c 29.283438
_cell_angle_alpha 90.000000
_cell_angle_beta 90.000000
_cell_angle_gamma 90.000000
_cell_volume 4596.233833
_symmetry_space_group_name_H-M "I M M A"
_symmetry_group_IT_number 74
_symmetry_cell_setting 'orthorhombic'
loop_
_space_group_symop_operation_xyz
x,y,z
-x,1/2-y,z
x,-y,-z
-x,1/2+y,-z
-x,-y,-z
x,1/2+y,-z
-x,y,z
x,1/2-y,z
1/2+x,1/2+y,1/2+z
1/2-x,-y,1/2+z
1/2+x,1/2-y,1/2-z
1/2-x,y,1/2-z
1/2-x,1/2-y,1/2-z
1/2+x,y,1/2-z
1/2-x,1/2+y,1/2+z
1/2+x,-y,1/2+z
loop_
_atom_site_type_symbol
_atom_site_label
_atom_site_fract_x
_atom_site_fract_y
_atom_site_fract_z
Si Si1 0.806920 0.460685 0.951773
Si Si2 0.191745 0.028198 0.361134
Si Si3 0.801761 0.171975 0.001128
Si Si4 0.302186 0.671494 0.894444
Si Si5 0.304047 0.100352 0.802645
Si Si6 0.306173 0.250000 0.696888
O O1 0.709225 0.497782 0.912043
O O2 0.747033 0.383612 0.963952
O O3 0.000000 0.460028 0.938760
O O4 0.795454 0.500000 0.000000
O O5 0.260761 0.106800 0.364186
O O6 0.000000 0.035058 0.349208
O O7 0.262520 0.967829 0.328711
O O8 0.751363 0.250000 0.989642
O O9 0.000000 0.168106 0.002578
O O10 0.742412 0.157445 0.052606
O O11 0.500000 0.672062 0.891358
O O12 0.243324 0.750000 0.883421
O O13 0.500000 0.098902 0.804497
O O14 0.250000 0.097621 0.750000
O O15 0.251899 0.175694 0.822453
O O16 0.500000 0.250000 0.695928
O O17 0.250000 0.250000 0.750000
#
# Coordination Sequence:
#
# PCOD9534962 Si02
#       6
#    16  16  16  16  16   8
#     4  10  19  31  47  70 100 133 167 205 247 294
#     4  10  21  34  51  75 101 131 166 207 253 299
#     4   9  17  30  46  64  92 130 168 205 243 284
#     4   9  17  30  49  72  96 126 167 207 244 292
#     4  10  20  36  56  78 104 132 167 208 251 299
#     4  10  18  32  56  82 104 132 166 202 248 298
#
# _framework density 19.14611
#
# number of rings (size 3 to 8) (size 9 to 14) (size 15 to 20)
#    0.000    2.364    1.818    2.455    0.000    2.545 
#    1.636    0.000    0.000    0.545    0.000    0.000 
#    0.000    0.000    0.000    0.000    0.000    0.727 
#
# Total GULP energy -245208.716796 kJ/mol
# GULP energy per Si atom -5572.925382 kJ/mol
# Density = 1.910253 g / cm^3
# Si number density = 19.146110 Si / 1000 Ang^3
#
#
#
# Elastic Constant Matrix: (Units=GPa)
#
#
# Indices 1 2 3 4 5 6 
#
# 1 22.9381 10.4625 -1.5108 0.0000 0.0000 0.0000
# 2 10.4625 185.0852 41.4751 0.0000 0.0000 0.0000
# 3 -1.5108 41.4751 29.6702 0.0000 0.0000 0.0000
# 4 0.0000 0.0000 0.0000 34.5279 0.0000 0.0000
# 5 0.0000 0.0000 0.0000 0.0000 10.6414 0.0000
# 6 0.0000 0.0000 0.0000 0.0000 0.0000 -14.2313
#
#
#
# Elastic Compliance Matrix: (Units=1/GPa)
#
#
# Indices 1 2 3 4 5 6 
#
# 1 0.046259 -0.004576 0.008753 0.000000 0.000000 0.000000
# 2 -0.004576 0.008320 -0.011863 0.000000 0.000000 0.000000
# 3 0.008753 -0.011863 0.050733 0.000000 0.000000 0.000000
# 4 0.000000 0.000000 0.000000 0.028962 0.000000 0.000000
# 5 0.000000 0.000000 0.000000 0.000000 0.093973 0.000000
# 6 0.000000 0.000000 0.000000 0.000000 0.000000 -0.070268
#
#
# Mechanical properties :
#
#
# Convention : Reuss Voigt Hill
#
# Bulk Modulus (GPa) = 11.11873 37.61633 24.36753
# Shear Modulus (GPa) = 24.59019 18.67205 21.63112
#
# Velocity S-wave (km/s) = 3.58766 3.12627 3.36488
# Velocity P-wave (km/s) = 4.79392 5.72023 5.27744
#
# Compressibility (1/GPa) = 0.08993835
#
# Stress axis : x y z
#
# Youngs Moduli (GPa) = 21.61723 120.19210 19.71106
#
# Poissons Ratio (x) = 0.55003 -0.17252
# Poissons Ratio (y) = 0.09893 0.23384
# Poissons Ratio (z) = -0.18921 1.42588
#
# Static dielectric constant tensor:
#      x y z
#    x 1.654740 0.000000 0.000000 
#    y 0.000000 1.766930 0.000000 
#    z 0.000000 0.000000 1.635230 
# 
# From -- ./inp_files/57019.got.cif
#   From: 2010.05.17/outbox.cif.g08.bks.cpg/sg74_29_cif.got.tgz:57019.got - 2010.06.03 17:57:02.
