data_PCOD9534376
_publ_section_title
;
Structure prediction by ZEFSAII (Michael W. Deem and Ramdas Pophale) SiO2 
 PCOD9534376
Probable space group: I M M A
;
_chemical_formula_sum "Si O2"
_cell_formula_units_Z 80
_cell_length_a 26.547602
_cell_length_b 7.929712
_cell_length_c 29.049130
_cell_angle_alpha 90.000000
_cell_angle_beta 90.000000
_cell_angle_gamma 90.000000
_cell_volume 6115.272900
_symmetry_space_group_name_H-M "I M M A"
_symmetry_group_IT_number 74
_symmetry_cell_setting 'orthorhombic'
loop_
_space_group_symop_operation_xyz
x,y,z
-x,1/2-y,z
x,-y,-z
-x,1/2+y,-z
-x,-y,-z
x,1/2+y,-z
-x,y,z
x,1/2-y,z
1/2+x,1/2+y,1/2+z
1/2-x,-y,1/2+z
1/2+x,1/2-y,1/2-z
1/2-x,y,1/2-z
1/2-x,1/2-y,1/2-z
1/2+x,y,1/2-z
1/2-x,1/2+y,1/2+z
1/2+x,-y,1/2+z
loop_
_atom_site_type_symbol
_atom_site_label
_atom_site_fract_x
_atom_site_fract_y
_atom_site_fract_z
Si Si1 0.607699 0.949609 0.448174
Si Si2 0.667808 0.750000 0.766118
Si Si3 0.500000 0.949837 0.590309
Si Si4 0.390904 0.442228 0.728654
Si Si5 0.000000 0.045630 0.195942
Si Si6 0.676305 0.051123 0.636176
Si Si7 0.762638 0.250000 0.174106
O O1 0.609466 0.750000 0.445020
O O2 0.646208 0.010552 0.408986
O O3 0.620413 0.000000 0.500000
O O4 0.550814 0.000882 0.435738
O O5 0.633930 0.582918 0.761163
O O6 0.705050 0.750000 0.809452
O O7 0.703634 0.750000 0.720786
O O8 0.500000 0.750000 0.593897
O O9 0.500000 0.016121 0.642736
O O10 0.383905 0.250000 0.744746
O O11 0.449320 0.481325 0.719808
O O12 0.362639 0.456865 0.679156
O O13 0.000000 0.250000 0.196264
O O14 0.690998 0.250000 0.631691
O O15 0.720654 0.919777 0.647563
#
# Coordination Sequence:
#
# PCOD9534376 Si02
#       7
#    16   8   8  16   8  16   8
#     4  11  22  33  43  57  81 105 140 185 222 267
#     4   9  18  31  42  68  80 101 130 173 218 260
#     4  11  22  30  45  59  75 109 143 178 226 264
#     4  10  18  29  45  61  84 108 136 169 211 252
#     4  11  19  28  44  62  83 112 145 176 206 264
#     4   9  19  31  45  62  77 105 138 171 217 266
#     4   9  18  30  50  58  84 100 128 174 220 269
#
# _framework density 13.082000000000001
#
# number of rings (size 3 to 8) (size 9 to 14) (size 15 to 20)
#    0.000    2.000    3.000    1.500    2.800    1.600 
#    0.000    4.000    0.000    0.000    0.000    0.000 
#    0.000    0.000    0.000    0.000    0.000    0.000 
#
# Total GULP energy -222997.887545 kJ/mol
# GULP energy per Si atom -5574.947189 kJ/mol
# Density = 1.305222 g / cm^3
# Si number density = 13.082000 Si / 1000 Ang^3
#
#
#
# Elastic Constant Matrix: (Units=GPa)
#
#
# Indices 1 2 3 4 5 6 
#
# 1 70.4629 47.1662 44.1587 0.0000 0.0000 0.0000
# 2 47.1662 86.1325 34.8211 0.0000 0.0000 0.0000
# 3 44.1587 34.8211 53.4544 0.0000 0.0000 0.0000
# 4 0.0000 0.0000 0.0000 13.4032 0.0000 0.0000
# 5 0.0000 0.0000 0.0000 0.0000 10.1174 0.0000
# 6 0.0000 0.0000 0.0000 0.0000 0.0000 14.8738
#
#
#
# Elastic Compliance Matrix: (Units=1/GPa)
#
#
# Indices 1 2 3 4 5 6 
#
# 1 0.034907 -0.010123 -0.022243 0.000000 0.000000 0.000000
# 2 -0.010123 0.018696 -0.003816 0.000000 0.000000 0.000000
# 3 -0.022243 -0.003816 0.039568 0.000000 0.000000 0.000000
# 4 0.000000 0.000000 0.000000 0.074609 0.000000 0.000000
# 5 0.000000 0.000000 0.000000 0.000000 0.098840 0.000000
# 6 0.000000 0.000000 0.000000 0.000000 0.000000 0.067232
#
#
# Mechanical properties :
#
#
# Convention : Reuss Voigt Hill
#
# Bulk Modulus (GPa) = 48.05920 51.37129 49.71524
# Shear Modulus (GPa) = 12.10205 13.27247 12.68726
#
# Velocity S-wave (km/s) = 3.04483 3.18867 3.11758
# Velocity P-wave (km/s) = 7.01270 7.27398 7.14453
#
# Compressibility (1/GPa) = 0.02080767
#
# Stress axis : x y z
#
# Youngs Moduli (GPa) = 28.64717 53.48638 25.27282
#
# Poissons Ratio (x) = 0.54146 0.56213
# Poissons Ratio (y) = 0.29000 0.09645
# Poissons Ratio (z) = 0.63719 0.20412
#
# Static dielectric constant tensor:
#      x y z
#    x 1.376740 0.000000 0.000000 
#    y 0.000000 1.455360 0.000000 
#    z 0.000000 0.000000 1.329830 
# 
# From -- ./inp_files/56907.got.cif
#   From: 2010.05.17/outbox.cif.g08.bks.cpg/sg74_29_cif.got.tgz:56907.got - 2010.06.03 17:57:02.
