data_PCOD9534314
_publ_section_title
;
Structure prediction by ZEFSAII (Michael W. Deem and Ramdas Pophale) SiO2 
 PCOD9534314
Probable space group: I M M A
;
_chemical_formula_sum "Si O2"
_cell_formula_units_Z 128
_cell_length_a 23.091145
_cell_length_b 11.996466
_cell_length_c 28.180396
_cell_angle_alpha 90.000000
_cell_angle_beta 90.000000
_cell_angle_gamma 90.000000
_cell_volume 7806.311686
_symmetry_space_group_name_H-M "I M M A"
_symmetry_group_IT_number 74
_symmetry_cell_setting 'orthorhombic'
loop_
_space_group_symop_operation_xyz
x,y,z
-x,1/2-y,z
x,-y,-z
-x,1/2+y,-z
-x,-y,-z
x,1/2+y,-z
-x,y,z
x,1/2-y,z
1/2+x,1/2+y,1/2+z
1/2-x,-y,1/2+z
1/2+x,1/2-y,1/2-z
1/2-x,y,1/2-z
1/2-x,1/2-y,1/2-z
1/2+x,y,1/2-z
1/2-x,1/2+y,1/2+z
1/2+x,-y,1/2+z
loop_
_atom_site_type_symbol
_atom_site_label
_atom_site_fract_x
_atom_site_fract_y
_atom_site_fract_z
Si Si1 0.566455 0.968135 0.384497
Si Si2 0.325262 0.875474 0.611533
Si Si3 0.225290 0.521470 0.799006
Si Si4 0.890947 0.382648 0.784676
Si Si5 0.747039 0.953521 0.451314
Si Si6 0.622460 0.875255 0.475416
Si Si7 0.815460 0.881144 0.361425
Si Si8 0.564046 0.885086 0.181084
O O1 0.500000 0.998205 0.392289
O O2 0.611256 0.070399 0.388049
O O3 0.575008 0.916594 0.332211
O O4 0.588476 0.885300 0.425641
O O5 0.326907 0.750000 0.595927
O O6 0.298899 0.889162 0.663971
O O7 0.284349 0.946652 0.577215
O O8 0.250000 0.566888 0.750000
O O9 0.171608 0.440048 0.787730
O O10 0.226067 0.449959 0.673640
O O11 0.884144 0.250000 0.783872
O O12 0.921748 0.416634 0.735601
O O13 0.691506 0.878310 0.465261
O O14 0.791736 0.899913 0.414582
O O15 0.773257 0.000000 0.500000
O O16 0.608731 0.750000 0.495831
O O17 0.610971 0.000000 0.500000
O O18 0.810857 0.750000 0.349977
O O19 0.881593 0.917476 0.351664
O O20 0.500000 0.925910 0.167530
O O21 0.562267 0.750000 0.180047
#
# Coordination Sequence:
#
# PCOD9534314 Si02
#       8
#    16  16  16  16  16  16  16  16
#     4  10  21  34  49  69  95 131 173 212 248 295
#     4   9  20  35  49  69  95 125 164 210 257 302
#     4  10  18  29  46  70  98 126 161 199 243 296
#     4  10  18  28  45  69  99 131 159 193 240 293
#     4   9  19  33  52  73  96 123 160 206 259 316
#     4  10  21  36  53  74 101 134 172 217 271 322
#     4  10  18  28  46  73 102 128 156 193 244 299
#     4   9  17  27  41  65  97 131 159 183 225 289
#
# _framework density 16.396986999999999
#
# number of rings (size 3 to 8) (size 9 to 14) (size 15 to 20)
#    0.000    2.375    1.250    2.250    0.000    7.750 
#    0.000    0.000    0.000    0.375    0.000    0.000 
#    0.000    8.000    0.000    0.000    0.000    0.000 
#
# Total GULP energy -356474.974829 kJ/mol
# GULP energy per Si atom -5569.921482 kJ/mol
# Density = 1.635967 g / cm^3
# Si number density = 16.396987 Si / 1000 Ang^3
#
#
#
# Elastic Constant Matrix: (Units=GPa)
#
#
# Indices 1 2 3 4 5 6 
#
# 1 103.5033 8.7844 25.1104 0.0000 0.0000 0.0000
# 2 8.7844 68.3084 3.7963 0.0000 0.0000 0.0000
# 3 25.1104 3.7963 74.5729 0.0000 0.0000 0.0000
# 4 0.0000 0.0000 0.0000 12.3489 0.0000 0.0000
# 5 0.0000 0.0000 0.0000 0.0000 4.9541 0.0000
# 6 0.0000 0.0000 0.0000 0.0000 0.0000 0.4152
#
#
#
# Elastic Compliance Matrix: (Units=1/GPa)
#
#
# Indices 1 2 3 4 5 6 
#
# 1 0.010613 -0.001170 -0.003514 0.000000 0.000000 0.000000
# 2 -0.001170 0.014810 -0.000360 0.000000 0.000000 0.000000
# 3 -0.003514 -0.000360 0.014611 0.000000 0.000000 0.000000
# 4 0.000000 0.000000 0.000000 0.080979 0.000000 0.000000
# 5 0.000000 0.000000 0.000000 0.000000 0.201855 0.000000
# 6 0.000000 0.000000 0.000000 0.000000 0.000000 2.408736
#
#
# Mechanical properties :
#
#
# Convention : Reuss Voigt Hill
#
# Bulk Modulus (GPa) = 33.39253 35.75186 34.57220
# Shear Modulus (GPa) = 1.81708 17.45652 9.63680
#
# Velocity S-wave (km/s) = 1.05384 3.26639 2.42692
# Velocity P-wave (km/s) = 4.67868 6.00641 5.38363
#
# Compressibility (1/GPa) = 0.02994682
#
# Stress axis : x y z
#
# Youngs Moduli (GPa) = 94.22089 67.52241 68.43997
#
# Poissons Ratio (x) = 0.07897 0.24051
# Poissons Ratio (y) = 0.11020 0.02465
# Poissons Ratio (z) = 0.33111 0.02432
#
# Static dielectric constant tensor:
#      x y z
#    x 1.545130 0.000000 0.000000 
#    y 0.000000 1.547410 0.000000 
#    z 0.000000 0.000000 1.590630 
# 
# From -- ./inp_files/62111.got.cif
#   From: 2010.05.17/outbox.cif.g08.bks.cpg/sg74_32_cif.got.tgz:62111.got - 2010.06.03 17:57:02.
