data_PCOD9534476
_publ_section_title
;
Structure prediction by ZEFSAII (Michael W. Deem and Ramdas Pophale) SiO2 
 PCOD9534476
Probable space group: I M M A
;
_chemical_formula_sum "Si O2"
_cell_formula_units_Z 64
_cell_length_a 9.075257
_cell_length_b 10.739163
_cell_length_c 31.030970
_cell_angle_alpha 90.000000
_cell_angle_beta 90.000000
_cell_angle_gamma 90.000000
_cell_volume 3024.298947
_symmetry_space_group_name_H-M "I M M A"
_symmetry_group_IT_number 74
_symmetry_cell_setting 'orthorhombic'
loop_
_space_group_symop_operation_xyz
x,y,z
-x,1/2-y,z
x,-y,-z
-x,1/2+y,-z
-x,-y,-z
x,1/2+y,-z
-x,y,z
x,1/2-y,z
1/2+x,1/2+y,1/2+z
1/2-x,-y,1/2+z
1/2+x,1/2-y,1/2-z
1/2-x,y,1/2-z
1/2-x,1/2-y,1/2-z
1/2+x,y,1/2-z
1/2-x,1/2+y,1/2+z
1/2+x,-y,1/2+z
loop_
_atom_site_type_symbol
_atom_site_label
_atom_site_fract_x
_atom_site_fract_y
_atom_site_fract_z
Si Si1 0.660243 0.750000 0.809353
Si Si2 0.828362 0.250000 0.108577
Si Si3 0.334085 0.467390 0.791513
Si Si4 0.324290 0.385839 0.529834
Si Si5 0.177325 0.512118 0.389876
O O1 0.500000 0.750000 0.834179
O O2 0.802161 0.750000 0.839713
O O3 0.658172 0.881658 0.786069
O O4 0.747062 0.121699 0.096857
O O5 0.000000 0.250000 0.096387
O O6 0.500000 0.418436 0.791348
O O7 0.250000 0.417024 0.750000
O O8 0.276386 0.453806 0.840653
O O9 0.276561 0.500000 0.500000
O O10 0.500000 0.398992 0.537408
O O11 0.299861 0.250000 0.509439
O O12 0.239694 0.394800 0.574811
O O13 0.000000 0.506168 0.390284
#
# Coordination Sequence:
#
# PCOD9534476 Si02
#       5
#     8   8  16  16  16
#     4   8  15  27  39  62 106 152 198 252 304 355
#     4  10  18  29  51  82 115 158 206 252 307 361
#     4   9  17  28  45  72 110 153 200 252 301 355
#     4  10  23  43  67  96 127 159 199 249 303 366
#     4  10  21  37  56  84 122 162 206 255 307 366
#
# _framework density 21.161928
#
# number of rings (size 3 to 8) (size 9 to 14) (size 15 to 20)
#    0.000    2.500    0.000    3.750    1.750    6.000 
#    0.000    1.250    0.000    0.750    0.000    0.000 
#    0.000    0.000    0.000    0.000    0.000    0.000 
#
# Total GULP energy -178290.047845 kJ/mol
# GULP energy per Si atom -5571.563995 kJ/mol
# Density = 2.111376 g / cm^3
# Si number density = 21.161928 Si / 1000 Ang^3
#
#
#
# Elastic Constant Matrix: (Units=GPa)
#
#
# Indices 1 2 3 4 5 6 
#
# 1 44.3360 28.3056 35.5226 0.0000 0.0000 0.0000
# 2 28.3056 81.7106 43.6037 0.0000 0.0000 0.0000
# 3 35.5226 43.6037 118.4525 0.0000 0.0000 0.0000
# 4 0.0000 0.0000 0.0000 -0.4844 0.0000 0.0000
# 5 0.0000 0.0000 0.0000 0.0000 29.5008 0.0000
# 6 0.0000 0.0000 0.0000 0.0000 0.0000 11.9375
#
#
#
# Elastic Compliance Matrix: (Units=1/GPa)
#
#
# Indices 1 2 3 4 5 6 
#
# 1 0.033167 -0.007693 -0.007115 0.000000 0.000000 0.000000
# 2 -0.007693 0.017014 -0.003956 0.000000 0.000000 0.000000
# 3 -0.007115 -0.003956 0.012032 0.000000 0.000000 0.000000
# 4 0.000000 0.000000 0.000000 -2.064313 0.000000 0.000000
# 5 0.000000 0.000000 0.000000 0.000000 0.033897 0.000000
# 6 0.000000 0.000000 0.000000 0.000000 0.000000 0.083770
#
#
# Mechanical properties :
#
#
# Convention : Reuss Voigt Hill
#
# Bulk Modulus (GPa) = 40.50862 51.04030 45.77446
# Shear Modulus (GPa) = -2.71935 17.32857 7.30461
#
# Velocity S-wave (km/s) = -1.13482 2.86467 1.85991
# Velocity P-wave (km/s) = 4.17932 5.92563 5.12737
#
# Compressibility (1/GPa) = 0.02468611
#
# Stress axis : x y z
#
# Youngs Moduli (GPa) = 30.15079 58.77388 83.11110
#
# Poissons Ratio (x) = 0.45213 0.59129
# Poissons Ratio (y) = 0.23194 0.32880
# Poissons Ratio (z) = 0.21451 0.23252
#
# Static dielectric constant tensor:
#      x y z
#    x 1.751430 0.000000 0.000000 
#    y 0.000000 1.822050 0.000000 
#    z 0.000000 0.000000 1.792210 
# 
# From -- ./inp_files/69749.got.cif
#   From: 2010.05.17/outbox.cif.g08.bks.cpg/sg74_35_cif.got.tgz:69749.got - 2010.06.03 17:57:02.
