data_PCOD9534639
_publ_section_title
;
Structure prediction by ZEFSAII (Michael W. Deem and Ramdas Pophale) SiO2 
 PCOD9534639
Probable space group: I M M A
;
_chemical_formula_sum "Si O2"
_cell_formula_units_Z 104
_cell_length_a 9.436727
_cell_length_b 28.441222
_cell_length_c 21.521996
_cell_angle_alpha 90.000000
_cell_angle_beta 90.000000
_cell_angle_gamma 90.000000
_cell_volume 5776.332574
_symmetry_space_group_name_H-M "I M M A"
_symmetry_group_IT_number 74
_symmetry_cell_setting 'orthorhombic'
loop_
_space_group_symop_operation_xyz
x,y,z
-x,1/2-y,z
x,-y,-z
-x,1/2+y,-z
-x,-y,-z
x,1/2+y,-z
-x,y,z
x,1/2-y,z
1/2+x,1/2+y,1/2+z
1/2-x,-y,1/2+z
1/2+x,1/2-y,1/2-z
1/2-x,y,1/2-z
1/2-x,1/2-y,1/2-z
1/2+x,y,1/2-z
1/2-x,1/2+y,1/2+z
1/2+x,-y,1/2+z
loop_
_atom_site_type_symbol
_atom_site_label
_atom_site_fract_x
_atom_site_fract_y
_atom_site_fract_z
Si Si1 0.833158 0.804742 0.496411
Si Si2 0.164243 0.562013 0.064633
Si Si3 0.832126 0.529288 0.868787
Si Si4 0.165499 0.116388 0.064673
Si Si5 0.657666 0.113981 0.832092
Si Si6 0.750000 0.532321 0.250000
Si Si7 0.832325 0.804038 0.135244
O O1 0.822900 0.750000 0.515161
O O2 0.760081 0.839256 0.545931
O O3 0.747091 0.808759 0.431369
O O4 0.000000 0.815891 0.487805
O O5 0.203970 0.507881 0.076739
O O6 0.271308 0.590882 0.107229
O O7 0.000000 0.567202 0.087192
O O8 0.166670 0.582685 0.996140
O O9 0.775537 0.581674 0.881538
O O10 0.800118 0.501915 0.805067
O O11 0.000000 0.535912 0.871930
O O12 0.000000 0.130099 0.075206
O O13 0.500000 0.131914 0.842688
O O14 0.650952 0.071008 0.783395
O O15 0.761711 0.157675 0.820001
O O16 0.814161 0.750000 0.155830
O O17 0.000000 0.812983 0.127414
#
# Coordination Sequence:
#
# PCOD9534639 Si02
#       7
#    16  16  16  16  16   8  16
#     4  10  20  33  50  76 112 145 169 203 256 316
#     4   9  17  30  49  74 105 137 169 209 258 312
#     4   9  18  33  52  73 101 138 180 218 256 309
#     4  10  18  30  52  80 106 137 174 212 256 308
#     4  11  21  33  53  77 103 138 177 219 266 309
#     4  10  22  38  53  72 105 140 178 220 264 310
#     4  10  20  34  53  76 102 136 177 218 261 310
#
# _framework density 18.004503
#
# number of rings (size 3 to 8) (size 9 to 14) (size 15 to 20)
#    0.000    2.154    1.538    2.308    0.000    5.538 
#    0.000    4.231    0.000    4.615    0.000    0.538 
#    0.000    0.000    0.000    0.000    0.000    0.000 
#
# Total GULP energy -289565.508085 kJ/mol
# GULP energy per Si atom -5568.567463 kJ/mol
# Density = 1.796352 g / cm^3
# Si number density = 18.004503 Si / 1000 Ang^3
#
#
#
# Elastic Constant Matrix: (Units=GPa)
#
#
# Indices 1 2 3 4 5 6 
#
# 1 96.9633 54.1129 20.2550 0.0000 0.0000 0.0000
# 2 54.1129 130.4050 42.4010 0.0000 0.0000 0.0000
# 3 20.2550 42.4010 42.3539 -0.0001 0.0000 0.0000
# 4 0.0000 0.0000 -0.0001 28.0414 0.0000 0.0000
# 5 0.0000 0.0000 0.0000 0.0000 -13.9144 0.0000
# 6 0.0000 0.0000 0.0000 0.0000 0.0000 9.2048
#
#
#
# Elastic Compliance Matrix: (Units=1/GPa)
#
#
# Indices 1 2 3 4 5 6 
#
# 1 0.013466 -0.005180 -0.001254 0.000000 0.000000 0.000000
# 2 -0.005180 0.013362 -0.010899 0.000000 0.000000 0.000000
# 3 -0.001254 -0.010899 0.035122 0.000000 0.000000 0.000000
# 4 0.000000 0.000000 0.000000 0.035661 0.000000 0.000000
# 5 0.000000 0.000000 0.000000 0.000000 -0.071868 0.000000
# 6 0.000000 0.000000 0.000000 0.000000 0.000000 0.108639
#
#
# Mechanical properties :
#
#
# Convention : Reuss Voigt Hill
#
# Bulk Modulus (GPa) = 36.65336 55.91776 46.28556
# Shear Modulus (GPa) = 28.06716 14.86324 21.46520
#
# Velocity S-wave (km/s) = 3.95257 2.87632 3.45659
# Velocity P-wave (km/s) = 6.42125 6.49277 6.45711
#
# Compressibility (1/GPa) = 0.02728263
#
# Stress axis : x y z
#
# Youngs Moduli (GPa) = 74.26084 74.83953 28.47232
#
# Poissons Ratio (x) = 0.38768 0.03570
# Poissons Ratio (y) = 0.38468 0.31033
# Poissons Ratio (z) = 0.09312 0.81571
#
# Static dielectric constant tensor:
#      x y z
#    x 1.618940 0.000000 0.000000 
#    y 0.000000 1.664810 0.000000 
#    z 0.000000 0.000000 1.658240 
# 
# From -- ./inp_files/49586.got.cif
#   From: 2010.05.17/outbox.cif.g08.bks.cpg/sg74_25_cif.got.tgz:49586.got - 2010.06.03 17:57:02.
