data_PCOD9534985
_publ_section_title
;
Structure prediction by ZEFSAII (Michael W. Deem and Ramdas Pophale) SiO2 
 PCOD9534985
Probable space group: I M M A
;
_chemical_formula_sum "Si O2"
_cell_formula_units_Z 104
_cell_length_a 7.821285
_cell_length_b 31.364331
_cell_length_c 21.418284
_cell_angle_alpha 90.000000
_cell_angle_beta 90.000000
_cell_angle_gamma 90.000000
_cell_volume 5254.105788
_symmetry_space_group_name_H-M "I M M A"
_symmetry_group_IT_number 74
_symmetry_cell_setting 'orthorhombic'
loop_
_space_group_symop_operation_xyz
x,y,z
-x,1/2-y,z
x,-y,-z
-x,1/2+y,-z
-x,-y,-z
x,1/2+y,-z
-x,y,z
x,1/2-y,z
1/2+x,1/2+y,1/2+z
1/2-x,-y,1/2+z
1/2+x,1/2-y,1/2-z
1/2-x,y,1/2-z
1/2-x,1/2-y,1/2-z
1/2+x,y,1/2-z
1/2-x,1/2+y,1/2+z
1/2+x,-y,1/2+z
loop_
_atom_site_type_symbol
_atom_site_label
_atom_site_fract_x
_atom_site_fract_y
_atom_site_fract_z
Si Si1 0.705999 0.973738 0.819222
Si Si2 0.293817 0.703781 0.823220
Si Si3 0.206503 0.526151 0.438856
Si Si4 0.703787 0.614725 0.490515
Si Si5 0.203032 0.704134 0.061988
Si Si6 0.799284 0.114280 0.369161
Si Si7 0.298012 0.750000 0.177887
O O1 0.500000 0.972100 0.824280
O O2 0.750000 0.988443 0.750000
O O3 0.773536 0.925611 0.830945
O O4 0.767623 0.003626 0.875552
O O5 0.500000 0.704492 0.829816
O O6 0.229220 0.750000 0.846197
O O7 0.250000 0.700877 0.750000
O O8 0.225230 0.661079 0.855512
O O9 0.266937 0.500000 0.500000
O O10 0.258541 0.575202 0.445570
O O11 0.000000 0.524488 0.439392
O O12 0.500000 0.617842 0.498413
O O13 0.771497 0.660293 0.465668
O O14 0.782438 0.604600 0.557829
O O15 0.271445 0.750000 0.036641
O O16 0.230791 0.710128 0.136501
O O17 0.000000 0.703904 0.051090
O O18 0.000000 0.116799 0.353148
O O19 0.500000 0.750000 0.173094
O O20 0.250000 0.750000 0.250000
#
# Coordination Sequence:
#
# PCOD9534985 Si02
#       7
#    16  16  16  16  16  16   8
#     4  10  21  37  58  82 109 147 185 231 285 331
#     4   9  18  32  50  73 104 142 182 227 274 321
#     4  10  20  39  61  80 112 155 191 228 283 343
#     4  11  22  35  57  86 112 143 185 234 282 325
#     4   8  18  37  54  76 116 150 177 225 277 328
#     4  10  20  35  53  75 109 148 186 228 277 337
#     4  10  18  32  58  86 110 146 189 226 273 332
#
# _framework density 19.794045000000001
#
# number of rings (size 3 to 8) (size 9 to 14) (size 15 to 20)
#    0.462    1.846    1.538    1.385    0.000    4.000 
#    0.000    0.769    0.000    1.846    0.000    0.000 
#    0.000    0.000    0.000    0.000    0.000    0.000 
#
# Total GULP energy -289846.739677 kJ/mol
# GULP energy per Si atom -5573.975763 kJ/mol
# Density = 1.974899 g / cm^3
# Si number density = 19.794045 Si / 1000 Ang^3
#
#
#
# Elastic Constant Matrix: (Units=GPa)
#
#
# Indices 1 2 3 4 5 6 
#
# 1 23.5822 3.2402 -14.0191 0.0000 0.0000 0.0000
# 2 3.2402 134.7512 39.9162 0.0000 0.0000 0.0000
# 3 -14.0191 39.9162 80.0216 0.0001 0.0000 0.0001
# 4 0.0000 0.0000 0.0001 -2.4382 0.0000 0.0001
# 5 0.0000 0.0000 0.0000 0.0000 23.1921 0.0000
# 6 0.0000 0.0000 0.0001 0.0001 0.0000 48.8803
#
#
#
# Elastic Compliance Matrix: (Units=1/GPa)
#
#
# Indices 1 2 3 4 5 6 
#
# 1 0.049470 -0.004408 0.010866 0.000000 0.000000 0.000000
# 2 -0.004408 0.009101 -0.005312 0.000000 0.000000 0.000000
# 3 0.010866 -0.005312 0.017050 0.000000 0.000000 0.000000
# 4 0.000000 0.000000 0.000000 -0.410144 0.000000 0.000001
# 5 0.000000 0.000000 0.000000 0.000000 0.043118 0.000000
# 6 0.000000 0.000000 0.000000 0.000001 0.000000 0.020458
#
#
# Mechanical properties :
#
#
# Convention : Reuss Voigt Hill
#
# Bulk Modulus (GPa) = 12.83509 32.95885 22.89697
# Shear Modulus (GPa) = -20.22094 27.87468 3.82687
#
# Velocity S-wave (km/s) = -3.19966 3.75672 1.39196
# Velocity P-wave (km/s) = 2.67433 5.95855 3.76512
#
# Compressibility (1/GPa) = 0.07791141
#
# Stress axis : x y z
#
# Youngs Moduli (GPa) = 20.21434 109.88341 58.65167
#
# Poissons Ratio (x) = 0.48438 -0.63728
# Poissons Ratio (y) = 0.08911 0.31155
# Poissons Ratio (z) = -0.21964 0.58368
#
# Static dielectric constant tensor:
#      x y z
#    x 1.726460 0.000000 0.000000 
#    y 0.000000 1.688690 0.000000 
#    z 0.000000 0.000000 1.670540 
# 
# From -- ./inp_files/57868.got.cif
#   From: 2010.05.17/outbox.cif.g08.bks.cpg/sg74_29_cif.got.tgz:57868.got - 2010.06.03 17:57:02.
