data_PCOD9534611
_publ_section_title
;
Structure prediction by ZEFSAII (Michael W. Deem and Ramdas Pophale) SiO2 
 PCOD9534611
Probable space group: I M M A
;
_chemical_formula_sum "Si O2"
_cell_formula_units_Z 116
_cell_length_a 25.428562
_cell_length_b 19.254907
_cell_length_c 12.953663
_cell_angle_alpha 90.000000
_cell_angle_beta 90.000000
_cell_angle_gamma 90.000000
_cell_volume 6342.432019
_symmetry_space_group_name_H-M "I M M A"
_symmetry_group_IT_number 74
_symmetry_cell_setting 'orthorhombic'
loop_
_space_group_symop_operation_xyz
x,y,z
-x,1/2-y,z
x,-y,-z
-x,1/2+y,-z
-x,-y,-z
x,1/2+y,-z
-x,y,z
x,1/2-y,z
1/2+x,1/2+y,1/2+z
1/2-x,-y,1/2+z
1/2+x,1/2-y,1/2-z
1/2-x,y,1/2-z
1/2-x,1/2-y,1/2-z
1/2+x,y,1/2-z
1/2-x,1/2+y,1/2+z
1/2+x,-y,1/2+z
loop_
_atom_site_type_symbol
_atom_site_label
_atom_site_fract_x
_atom_site_fract_y
_atom_site_fract_z
Si Si1 0.559012 0.511447 0.622928
Si Si2 0.651999 0.423522 0.049444
Si Si3 0.558421 0.832631 0.035746
Si Si4 0.333269 0.449028 0.289500
Si Si5 0.421232 0.861946 0.274153
Si Si6 0.695348 0.112100 0.694507
Si Si7 0.500000 0.750000 0.354950
Si Si8 0.230995 0.583289 0.978642
O O1 0.562780 0.500000 0.500000
O O2 0.500000 0.538232 0.645232
O O3 0.609386 0.555274 0.657650
O O4 0.566880 0.438891 0.683492
O O5 0.660271 0.427343 0.171886
O O6 0.708220 0.397217 0.008654
O O7 0.643351 0.500000 0.000000
O O8 0.603897 0.375257 0.019185
O O9 0.500000 0.850188 0.996067
O O10 0.565912 0.750000 0.025918
O O11 0.559877 0.850769 0.157223
O O12 0.313933 0.529474 0.285211
O O13 0.292917 0.408853 0.364554
O O14 0.358313 0.851440 0.271492
O O15 0.453970 0.809993 0.344746
O O16 0.750000 0.131951 0.750000
O O17 0.699913 0.119182 0.570980
O O18 0.227968 0.500000 0.000000
#
# Coordination Sequence:
#
# PCOD9534611 Si02
#       8
#    16  16  16  16  16  16   4  16
#     4  10  19  31  51  84 114 142 180 229 284 330
#     4  11  21  32  55  85 109 138 184 241 285 324
#     4  11  22  39  57  78 110 152 189 225 280 344
#     4  10  18  30  50  79 113 146 178 224 282 343
#     4  11  19  35  56  77 107 146 187 221 266 336
#     4  10  18  30  53  82 114 143 174 228 283 335
#     4  12  20  36  56  76  98 158 196 216 256 348
#     4   9  17  32  51  79 115 145 175 212 279 350
#
# _framework density 18.289514
#
# number of rings (size 3 to 8) (size 9 to 14) (size 15 to 20)
#    0.000    1.655    2.069    7.448    0.000    0.828 
#    0.000    0.345    1.517    1.655    5.379    0.000 
#    0.000    0.000    0.000    0.000    0.000    0.000 
#
# Total GULP energy -323004.183082 kJ/mol
# GULP energy per Si atom -5569.037639 kJ/mol
# Density = 1.824789 g / cm^3
# Si number density = 18.289514 Si / 1000 Ang^3
#
#
#
# Elastic Constant Matrix: (Units=GPa)
#
#
# Indices 1 2 3 4 5 6 
#
# 1 158.0811 30.3948 28.0154 0.0000 0.0000 0.0000
# 2 30.3948 27.8395 13.0454 0.0000 0.0000 0.0000
# 3 28.0154 13.0454 71.3340 0.0000 0.0000 0.0000
# 4 0.0000 0.0000 0.0000 -5.7022 0.0000 0.0000
# 5 0.0000 0.0000 0.0000 0.0000 31.8913 0.0000
# 6 0.0000 0.0000 0.0000 0.0000 0.0000 -2.0888
#
#
#
# Elastic Compliance Matrix: (Units=1/GPa)
#
#
# Indices 1 2 3 4 5 6 
#
# 1 0.008198 -0.008139 -0.001731 0.000000 0.000000 0.000000
# 2 -0.008139 0.047367 -0.005466 0.000000 0.000000 0.000000
# 3 -0.001731 -0.005466 0.015698 0.000000 0.000000 0.000000
# 4 0.000000 0.000000 0.000000 -0.175370 0.000000 0.000000
# 5 0.000000 0.000000 0.000000 0.000000 0.031357 0.000000
# 6 0.000000 0.000000 0.000000 0.000000 0.000000 -0.478735
#
#
# Mechanical properties :
#
#
# Convention : Reuss Voigt Hill
#
# Bulk Modulus (GPa) = 24.63591 44.46288 34.54940
# Shear Modulus (GPa) = -9.85643 17.20665 3.67511
#
# Velocity S-wave (km/s) = -2.32396 3.07056 1.41907
# Velocity P-wave (km/s) = 2.50961 6.07738 4.64933
#
# Compressibility (1/GPa) = 0.04059115
#
# Stress axis : x y z
#
# Youngs Moduli (GPa) = 121.98811 21.11155 63.70229
#
# Poissons Ratio (x) = 0.17182 0.11027
# Poissons Ratio (y) = 0.99284 0.34820
# Poissons Ratio (z) = 0.21117 0.11540
#
# Static dielectric constant tensor:
#      x y z
#    x 1.669790 0.000000 0.000000 
#    y 0.000000 1.606360 0.000000 
#    z 0.000000 0.000000 1.645220 
# 
# From -- ./inp_files/26412.got.cif
#   From: 2010.05.17/outbox.cif.g08.bks.cpg/sg74_14_cif.got.tgz:26412.got - 2010.06.03 17:57:02.
