data_PCOD9534804
_publ_section_title
;
Structure prediction by ZEFSAII (Michael W. Deem and Ramdas Pophale) SiO2 
 PCOD9534804
Probable space group: I M M A
;
_chemical_formula_sum "Si O2"
_cell_formula_units_Z 56
_cell_length_a 13.017353
_cell_length_b 19.771865
_cell_length_c 13.226988
_cell_angle_alpha 90.000000
_cell_angle_beta 90.000000
_cell_angle_gamma 90.000000
_cell_volume 3404.327069
_symmetry_space_group_name_H-M "I M M A"
_symmetry_group_IT_number 74
_symmetry_cell_setting 'orthorhombic'
loop_
_space_group_symop_operation_xyz
x,y,z
-x,1/2-y,z
x,-y,-z
-x,1/2+y,-z
-x,-y,-z
x,1/2+y,-z
-x,y,z
x,1/2-y,z
1/2+x,1/2+y,1/2+z
1/2-x,-y,1/2+z
1/2+x,1/2-y,1/2-z
1/2-x,y,1/2-z
1/2-x,1/2-y,1/2-z
1/2+x,y,1/2-z
1/2-x,1/2+y,1/2+z
1/2+x,-y,1/2+z
loop_
_atom_site_type_symbol
_atom_site_label
_atom_site_fract_x
_atom_site_fract_y
_atom_site_fract_z
Si Si1 0.381907 0.108125 0.189435
Si Si2 0.313755 0.670043 0.598592
Si Si3 0.380968 0.567169 0.431152
Si Si4 0.750000 0.517960 0.250000
O O1 0.500000 0.107538 0.158938
O O2 0.370138 0.141622 0.300841
O O3 0.305274 0.149650 0.117338
O O4 0.333714 0.033299 0.200987
O O5 0.326051 0.750000 0.592212
O O6 0.356049 0.630544 0.502162
O O7 0.366507 0.500000 0.500000
O O8 0.500000 0.568303 0.399266
O O9 0.306327 0.560351 0.336044
#
# Coordination Sequence:
#
# PCOD9534804 Si02
#       4
#    16  16  16   8
#     4  10  18  31  54  81 112 139 168 220 276 318
#     4  10  21  34  52  81 110 140 179 218 262 319
#     4  11  20  36  58  77 105 143 178 216 260 310
#     4  10  20  34  52  82 108 134 180 224 256 304
#
# _framework density 16.449653000000001
#
# number of rings (size 3 to 8) (size 9 to 14) (size 15 to 20)
#    0.000    2.000    5.714    3.429    0.000    4.000 
#    0.000    5.000    0.000    0.000    0.000    0.000 
#    0.000    0.000    0.000    0.000    0.000    0.000 
#
# Total GULP energy -156246.078046 kJ/mol
# GULP energy per Si atom -5580.217073 kJ/mol
# Density = 1.641221 g / cm^3
# Si number density = 16.449653 Si / 1000 Ang^3
#
#
#
# Elastic Constant Matrix: (Units=GPa)
#
#
# Indices 1 2 3 4 5 6 
#
# 1 104.1158 9.8629 34.6274 0.0000 0.0000 0.0000
# 2 9.8629 59.3499 35.8176 0.0000 0.0000 0.0000
# 3 34.6274 35.8176 78.7276 0.0000 0.0000 0.0000
# 4 0.0000 0.0000 0.0000 58.9356 0.0000 0.0000
# 5 0.0000 0.0000 0.0000 0.0000 11.7472 0.0000
# 6 0.0000 0.0000 0.0000 0.0000 0.0000 0.1661
#
#
#
# Elastic Compliance Matrix: (Units=1/GPa)
#
#
# Indices 1 2 3 4 5 6 
#
# 1 0.011353 0.001553 -0.005700 0.000000 0.000000 0.000000
# 2 0.001553 0.023439 -0.011347 0.000000 0.000000 0.000000
# 3 -0.005700 -0.011347 0.020372 0.000000 0.000000 0.000000
# 4 0.000000 0.000000 0.000000 0.016968 0.000000 -0.000001
# 5 0.000000 0.000000 0.000000 0.000000 0.085127 0.000000
# 6 0.000000 0.000000 0.000000 -0.000001 0.000000 6.022116
#
#
# Mechanical properties :
#
#
# Convention : Reuss Voigt Hill
#
# Bulk Modulus (GPa) = 41.36307 44.75659 43.05983
# Shear Modulus (GPa) = 0.80406 24.96213 12.88310
#
# Velocity S-wave (km/s) = 0.69990 3.89972 2.80158
# Velocity P-wave (km/s) = 5.08458 6.89524 6.05794
#
# Compressibility (1/GPa) = 0.02417616
#
# Stress axis : x y z
#
# Youngs Moduli (GPa) = 88.07928 42.66403 49.08777
#
# Poissons Ratio (x) = -0.06628 0.27982
# Poissons Ratio (y) = -0.13683 0.55700
# Poissons Ratio (z) = 0.50209 0.48411
#
# Static dielectric constant tensor:
#      x y z
#    x 1.568530 0.000000 0.000000 
#    y 0.000000 1.537820 0.000000 
#    z 0.000000 0.000000 1.537680 
# 
# From -- ./inp_files/23218.got.cif
#   From: 2010.05.17/outbox.cif.g08.bks.cpg/sg74_12_cif.got.tgz:23218.got - 2010.06.03 17:57:02.
