data_PCOD9534347
_publ_section_title
;
Structure prediction by ZEFSAII (Michael W. Deem and Ramdas Pophale) SiO2 
 PCOD9534347
Probable space group: I M M A
;
_chemical_formula_sum "Si O2"
_cell_formula_units_Z 116
_cell_length_a 28.870241
_cell_length_b 16.530872
_cell_length_c 11.615452
_cell_angle_alpha 90.000000
_cell_angle_beta 90.000000
_cell_angle_gamma 90.000000
_cell_volume 5543.477471
_symmetry_space_group_name_H-M "I M M A"
_symmetry_group_IT_number 74
_symmetry_cell_setting 'orthorhombic'
loop_
_space_group_symop_operation_xyz
x,y,z
-x,1/2-y,z
x,-y,-z
-x,1/2+y,-z
-x,-y,-z
x,1/2+y,-z
-x,y,z
x,1/2-y,z
1/2+x,1/2+y,1/2+z
1/2-x,-y,1/2+z
1/2+x,1/2-y,1/2-z
1/2-x,y,1/2-z
1/2-x,1/2-y,1/2-z
1/2+x,y,1/2-z
1/2-x,1/2+y,1/2+z
1/2+x,-y,1/2+z
loop_
_atom_site_type_symbol
_atom_site_label
_atom_site_fract_x
_atom_site_fract_y
_atom_site_fract_z
Si Si1 0.195808 0.348780 0.257785
Si Si2 0.055160 0.447472 0.169477
Si Si3 0.147608 0.653213 0.508346
Si Si4 0.677869 0.346160 0.489227
Si Si5 0.552043 0.913742 0.936641
Si Si6 0.733514 0.650773 0.126236
Si Si7 0.420236 0.619881 0.427584
Si Si8 0.500000 0.750000 0.370066
O O1 0.194299 0.250000 0.262721
O O2 0.250000 0.370345 0.250000
O O3 0.170262 0.377359 0.372271
O O4 0.171382 0.377709 0.140591
O O5 0.064352 0.421220 0.300715
O O6 0.075881 0.533757 0.134701
O O7 0.000000 0.457593 0.163164
O O8 0.068015 0.387832 0.064665
O O9 0.150428 0.750000 0.509404
O O10 0.094074 0.631473 0.502286
O O11 0.182349 0.623812 0.409312
O O12 0.683535 0.250000 0.477679
O O13 0.726692 0.376379 0.538005
O O14 0.633926 0.357712 0.571032
O O15 0.500000 0.877807 0.944942
O O16 0.549997 0.000000 0.000000
O O17 0.733473 0.750000 0.126343
O O18 0.750000 0.623274 0.250000
O O19 0.458466 0.679919 0.376164
#
# Coordination Sequence:
#
# PCOD9534347 Si02
#       8
#    16  16  16  16  16  16  16   4
#     4   9  15  27  49  80 114 147 180 227 292 350
#     4  10  20  39  58  79 117 166 199 235 302 380
#     4  10  19  35  61  89 116 145 192 257 300 344
#     4  10  18  28  49  82 115 146 188 240 285 351
#     4  10  23  42  63  81 111 162 209 242 297 372
#     4   9  18  32  51  80 116 152 186 229 298 361
#     4  11  20  34  58  88 123 154 201 248 306 358
#     4  12  20  34  56 100 126 154 196 268 310 340
#
# _framework density 20.925492999999999
#
# number of rings (size 3 to 8) (size 9 to 14) (size 15 to 20)
#    0.000    2.069    3.448    1.241    0.000    1.379 
#    1.241    0.000    4.552    0.828    0.000    0.000 
#    0.000    0.000    0.000    0.000    0.000    0.000 
#
# Total GULP energy -322912.247982 kJ/mol
# GULP energy per Si atom -5567.452551 kJ/mol
# Density = 2.087787 g / cm^3
# Si number density = 20.925493 Si / 1000 Ang^3
#
#
#
# Elastic Constant Matrix: (Units=GPa)
#
#
# Indices 1 2 3 4 5 6 
#
# 1 150.7178 8.7128 38.5297 0.0000 0.0000 0.0000
# 2 8.7128 5.6355 -4.3591 0.0000 0.0000 0.0000
# 3 38.5297 -4.3591 59.8814 0.0000 0.0000 0.0000
# 4 0.0000 0.0000 0.0000 3.0251 0.0000 0.0000
# 5 0.0000 0.0000 0.0000 0.0000 19.2895 0.0000
# 6 0.0000 0.0000 0.0000 0.0000 0.0000 24.7187
#
#
#
# Elastic Compliance Matrix: (Units=1/GPa)
#
#
# Indices 1 2 3 4 5 6 
#
# 1 0.009903 -0.021446 -0.007933 0.000000 0.000000 0.000000
# 2 -0.021446 0.234479 0.030868 0.000000 0.000000 0.000000
# 3 -0.007933 0.030868 0.024051 0.000000 0.000000 0.000000
# 4 0.000000 0.000000 0.000000 0.330563 0.000000 0.000000
# 5 0.000000 0.000000 0.000000 0.000000 0.051842 0.000000
# 6 0.000000 0.000000 0.000000 0.000000 0.000000 0.040455
#
#
# Mechanical properties :
#
#
# Convention : Reuss Voigt Hill
#
# Bulk Modulus (GPa) = 3.68444 33.55571 18.62008
# Shear Modulus (GPa) = 6.42026 20.96343 13.69184
#
# Velocity S-wave (km/s) = 1.75351 3.16858 2.56073
# Velocity P-wave (km/s) = 2.42163 5.42744 4.20247
#
# Compressibility (1/GPa) = 0.27141160
#
# Stress axis : x y z
#
# Youngs Moduli (GPa) = 100.98301 4.26477 41.57826
#
# Poissons Ratio (x) = 0.09146 0.32984
# Poissons Ratio (y) = 2.16569 -1.28345
# Poissons Ratio (z) = 0.80109 -0.13165
#
# Static dielectric constant tensor:
#      x y z
#    x 1.761110 0.000000 0.000000 
#    y 0.000000 1.748590 0.000000 
#    z 0.000000 0.000000 1.814240 
# 
# From -- ./inp_files/26393.got.cif
#   From: 2010.05.17/outbox.cif.g08.bks.cpg/sg74_14_cif.got.tgz:26393.got - 2010.06.03 17:57:02.
