data_PCOD9534535
_publ_section_title
;
Structure prediction by ZEFSAII (Michael W. Deem and Ramdas Pophale) SiO2 
 PCOD9534535
Probable space group: I M M A
;
_chemical_formula_sum "Si O2"
_cell_formula_units_Z 64
_cell_length_a 10.502083
_cell_length_b 24.469791
_cell_length_c 12.549263
_cell_angle_alpha 90.000000
_cell_angle_beta 90.000000
_cell_angle_gamma 90.000000
_cell_volume 3224.956993
_symmetry_space_group_name_H-M "I M M A"
_symmetry_group_IT_number 74
_symmetry_cell_setting 'orthorhombic'
loop_
_space_group_symop_operation_xyz
x,y,z
-x,1/2-y,z
x,-y,-z
-x,1/2+y,-z
-x,-y,-z
x,1/2+y,-z
-x,y,z
x,1/2-y,z
1/2+x,1/2+y,1/2+z
1/2-x,-y,1/2+z
1/2+x,1/2-y,1/2-z
1/2-x,y,1/2-z
1/2-x,1/2-y,1/2-z
1/2+x,y,1/2-z
1/2-x,1/2+y,1/2+z
1/2+x,-y,1/2+z
loop_
_atom_site_type_symbol
_atom_site_label
_atom_site_fract_x
_atom_site_fract_y
_atom_site_fract_z
Si Si1 0.247134 0.685232 0.507185
Si Si2 0.350086 0.417530 0.076685
Si Si3 0.000000 0.314184 0.639502
Si Si4 0.348824 0.535757 0.162216
Si Si5 0.000000 0.683961 0.123042
O O1 0.250030 0.750000 0.537681
O O2 0.225969 0.638536 0.595453
O O3 0.126056 0.676807 0.429132
O O4 0.373581 0.670808 0.442033
O O5 0.500000 0.406596 0.090808
O O6 0.320177 0.471367 0.144130
O O7 0.330821 0.436564 0.953437
O O8 0.000000 0.250000 0.658921
O O9 0.000000 0.339388 0.757202
O O10 0.500000 0.540636 0.188448
O O11 0.250000 0.557282 0.250000
O O12 0.000000 0.750000 0.128765
#
# Coordination Sequence:
#
# PCOD9534535 Si02
#       5
#    16  16   8  16   8
#     4  10  18  30  47  69 100 135 167 200 247 302
#     4   9  18  35  54  75 103 134 170 206 247 302
#     4   9  16  26  42  61  89 133 173 197 229 294
#     4   9  19  37  57  75 100 132 168 213 256 295
#     4   9  18  28  38  63 101 135 165 205 247 282
#
# _framework density 19.845226
#
# number of rings (size 3 to 8) (size 9 to 14) (size 15 to 20)
#    0.000    2.750    1.250    2.250    0.000    5.000 
#    4.500    1.250    0.000    0.750    0.000    0.000 
#    0.000    0.000    0.000    0.000    0.000    0.000 
#
# Total GULP energy -178297.929917 kJ/mol
# GULP energy per Si atom -5571.810310 kJ/mol
# Density = 1.980006 g / cm^3
# Si number density = 19.845226 Si / 1000 Ang^3
#
#
#
# Elastic Constant Matrix: (Units=GPa)
#
#
# Indices 1 2 3 4 5 6 
#
# 1 98.8892 8.5865 17.8783 -0.0001 0.0000 0.0000
# 2 8.5865 122.8530 1.6639 0.0000 0.0000 0.0000
# 3 17.8783 1.6639 24.4866 -0.0001 0.0001 0.0001
# 4 -0.0001 0.0000 -0.0001 11.6477 0.0000 0.0000
# 5 0.0000 0.0000 0.0001 0.0000 12.9008 0.0000
# 6 0.0000 0.0000 0.0001 0.0000 0.0000 16.4212
#
#
#
# Elastic Compliance Matrix: (Units=1/GPa)
#
#
# Indices 1 2 3 4 5 6 
#
# 1 0.011711 -0.000703 -0.008502 0.000000 0.000000 0.000000
# 2 -0.000703 0.008190 -0.000043 0.000000 0.000000 0.000000
# 3 -0.008502 -0.000043 0.047049 0.000000 0.000000 0.000000
# 4 0.000000 0.000000 0.000000 0.085854 0.000000 0.000000
# 5 0.000000 0.000000 0.000000 0.000000 0.077515 0.000000
# 6 0.000000 0.000000 0.000000 0.000000 0.000000 0.060897
#
#
# Mechanical properties :
#
#
# Convention : Reuss Voigt Hill
#
# Bulk Modulus (GPa) = 20.63893 33.60956 27.12425
# Shear Modulus (GPa) = 15.34390 22.73396 19.03893
#
# Velocity S-wave (km/s) = 2.78362 3.38829 3.10073
# Velocity P-wave (km/s) = 4.55565 5.68154 5.14946
#
# Compressibility (1/GPa) = 0.04845213
#
# Stress axis : x y z
#
# Youngs Moduli (GPa) = 85.39317 122.10685 21.25429
#
# Poissons Ratio (x) = 0.08588 0.18071
# Poissons Ratio (y) = 0.06006 0.00091
# Poissons Ratio (z) = 0.72604 0.00525
#
# Static dielectric constant tensor:
#      x y z
#    x 1.924960 0.000000 0.000000 
#    y 0.000000 1.773200 0.000000 
#    z 0.000000 0.000000 1.698710 
# 
# From -- ./inp_files/28843.got.cif
#   From: 2010.05.17/outbox.cif.g08.bks.cpg/sg74_15_cif.got.tgz:28843.got - 2010.06.03 17:57:02.
