data_PCOD9534047
_publ_section_title
;
Structure prediction by ZEFSAII (Michael W. Deem and Ramdas Pophale) SiO2 
 PCOD9534047
Probable space group: I M M A
;
_chemical_formula_sum "Si O2"
_cell_formula_units_Z 48
_cell_length_a 9.414429
_cell_length_b 15.155552
_cell_length_c 20.349987
_cell_angle_alpha 90.000000
_cell_angle_beta 90.000000
_cell_angle_gamma 90.000000
_cell_volume 2903.553814
_symmetry_space_group_name_H-M "I M M A"
_symmetry_group_IT_number 74
_symmetry_cell_setting 'orthorhombic'
loop_
_space_group_symop_operation_xyz
x,y,z
-x,1/2-y,z
x,-y,-z
-x,1/2+y,-z
-x,-y,-z
x,1/2+y,-z
-x,y,z
x,1/2-y,z
1/2+x,1/2+y,1/2+z
1/2-x,-y,1/2+z
1/2+x,1/2-y,1/2-z
1/2-x,y,1/2-z
1/2-x,1/2-y,1/2-z
1/2+x,y,1/2-z
1/2-x,1/2+y,1/2+z
1/2+x,-y,1/2+z
loop_
_atom_site_type_symbol
_atom_site_label
_atom_site_fract_x
_atom_site_fract_y
_atom_site_fract_z
Si Si1 0.750000 0.035006 0.750000
Si Si2 0.500000 0.750000 0.611882
Si Si3 0.304376 0.750000 0.937182
Si Si4 0.000000 0.411421 0.212003
Si Si5 0.500000 0.087154 0.842065
Si Si6 0.000000 0.250000 0.560090
Si Si7 0.000000 0.884235 0.634842
O O1 0.641825 0.088485 0.796531
O O2 0.641517 0.972012 0.709455
O O3 0.638224 0.750000 0.567609
O O4 0.500000 0.835161 0.659051
O O5 0.367925 0.665537 0.898352
O O6 0.367455 0.750000 0.010012
O O7 0.000000 0.372241 0.286374
O O8 0.500000 0.164207 0.894455
O O9 0.500000 0.989266 0.874172
#
# Coordination Sequence:
#
# PCOD9534047 Si02
#       7
#     8   4   8   8   8   4   8
#     4   8  18  32  52  80 100 118 160 201 254 313
#     4  12  18  27  48  73 112 132 156 214 242 270
#     4  10  21  33  47  76 102 137 179 194 224 296
#     4  10  17  28  50  81 106 132 154 194 261 305
#     4  10  18  36  57  75  99 125 157 211 256 296
#     4  10  24  39  52  65  92 142 182 198 242 296
#     4   8  17  33  52  74 105 131 161 196 245 312
#
# _framework density 16.531465000000001
#
# number of rings (size 3 to 8) (size 9 to 14) (size 15 to 20)
#    0.000    3.000    0.000    5.000    0.000    5.333 
#    0.000    3.333    0.000    4.000    0.000    0.000 
#    0.000    0.000    0.000    0.000    0.000    0.000 
#
# Total GULP energy -133721.702192 kJ/mol
# GULP energy per Si atom -5571.737591 kJ/mol
# Density = 1.649384 g / cm^3
# Si number density = 16.531465 Si / 1000 Ang^3
#
#
#
# Elastic Constant Matrix: (Units=GPa)
#
#
# Indices 1 2 3 4 5 6 
#
# 1 172.3419 46.5410 70.8435 0.0000 0.0000 0.0000
# 2 46.5410 95.6239 72.2717 0.0000 0.0000 0.0000
# 3 70.8435 72.2717 114.6500 0.0000 0.0000 0.0000
# 4 0.0000 0.0000 0.0000 20.7004 0.0000 0.0000
# 5 0.0000 0.0000 0.0000 0.0000 1.0432 0.0000
# 6 0.0000 0.0000 0.0000 0.0000 0.0000 1.3888
#
#
#
# Elastic Compliance Matrix: (Units=1/GPa)
#
#
# Indices 1 2 3 4 5 6 
#
# 1 0.007782 -0.000293 -0.004624 0.000000 0.000000 0.000000
# 2 -0.000293 0.019985 -0.012417 0.000000 0.000000 0.000000
# 3 -0.004624 -0.012417 0.019407 0.000000 0.000000 0.000000
# 4 0.000000 0.000000 0.000000 0.048308 0.000000 0.000000
# 5 0.000000 0.000000 0.000000 0.000000 0.958574 0.000000
# 6 0.000000 0.000000 0.000000 0.000000 0.000000 0.720022
#
#
# Mechanical properties :
#
#
# Convention : Reuss Voigt Hill
#
# Bulk Modulus (GPa) = 79.96091 84.65867 82.30979
# Shear Modulus (GPa) = 2.75799 17.49046 10.12422
#
# Velocity S-wave (km/s) = 1.29304 3.25624 2.47740
# Velocity P-wave (km/s) = 7.12062 8.09069 7.62110
#
# Compressibility (1/GPa) = 0.01250611
#
# Stress axis : x y z
#
# Youngs Moduli (GPa) = 128.49605 50.03854 51.52862
#
# Poissons Ratio (x) = 0.01465 0.23828
# Poissons Ratio (y) = 0.03762 0.63982
# Poissons Ratio (z) = 0.59420 0.62132
#
# Static dielectric constant tensor:
#      x y z
#    x 1.574780 0.000000 0.000000 
#    y 0.000000 1.553150 0.000000 
#    z 0.000000 0.000000 1.532970 
# 
# From -- ./inp_files/38753.got.cif
#   From: 2010.05.17/outbox.cif.g08.bks.cpg/sg74_20_cif.got.tgz:38753.got - 2010.06.03 17:57:02.
