data_PCOD9534527
_publ_section_title
;
Structure prediction by ZEFSAII (Michael W. Deem and Ramdas Pophale) SiO2 
 PCOD9534527
Probable space group: I M M A
;
_chemical_formula_sum "Si O2"
_cell_formula_units_Z 56
_cell_length_a 10.644912
_cell_length_b 7.460284
_cell_length_c 37.212319
_cell_angle_alpha 90.000000
_cell_angle_beta 90.000000
_cell_angle_gamma 90.000000
_cell_volume 2955.181582
_symmetry_space_group_name_H-M "I M M A"
_symmetry_group_IT_number 74
_symmetry_cell_setting 'orthorhombic'
loop_
_space_group_symop_operation_xyz
x,y,z
-x,1/2-y,z
x,-y,-z
-x,1/2+y,-z
-x,-y,-z
x,1/2+y,-z
-x,y,z
x,1/2-y,z
1/2+x,1/2+y,1/2+z
1/2-x,-y,1/2+z
1/2+x,1/2-y,1/2-z
1/2-x,y,1/2-z
1/2-x,1/2-y,1/2-z
1/2+x,y,1/2-z
1/2-x,1/2+y,1/2+z
1/2+x,-y,1/2+z
loop_
_atom_site_type_symbol
_atom_site_label
_atom_site_fract_x
_atom_site_fract_y
_atom_site_fract_z
Si Si1 0.250613 0.469222 0.582173
Si Si2 0.500000 0.964164 0.457881
Si Si3 0.647071 0.460677 0.657537
Si Si4 0.000000 0.535329 0.457495
Si Si5 0.852835 0.750000 0.781201
O O1 0.250651 0.250000 0.581609
O O2 0.373228 0.531777 0.560578
O O3 0.268457 0.518772 0.623804
O O4 0.125112 0.531325 0.562372
O O5 0.500000 0.750000 0.452581
O O6 0.500000 0.000000 0.500000
O O7 0.500000 0.480622 0.646520
O O8 0.668014 0.250000 0.664552
O O9 0.665489 0.579142 0.692713
O O10 0.000000 0.500000 0.500000
O O11 0.000000 0.750000 0.453536
O O12 0.750000 0.750000 0.750000
O O13 0.000000 0.750000 0.769104
#
# Coordination Sequence:
#
# PCOD9534527 Si02
#       5
#    16   8  16   8   8
#     4   9  17  32  52  70 100 138 179 224 267 321
#     4  10  18  30  46  72 100 131 171 224 270 311
#     4   9  17  35  61  84 109 147 187 225 277 327
#     4  10  20  34  48  68 104 143 179 224 282 329
#     4  10  22  40  60  88 122 146 176 228 280 336
#
# _framework density 18.949767000000001
#
# number of rings (size 3 to 8) (size 9 to 14) (size 15 to 20)
#    0.000    2.571    1.429    0.857    0.000    0.571 
#    7.714    0.000    0.000    0.000    0.000    0.000 
#    0.000    0.000    0.000    0.000    0.000    0.000 
#
# Total GULP energy -156288.014571 kJ/mol
# GULP energy per Si atom -5581.714806 kJ/mol
# Density = 1.890664 g / cm^3
# Si number density = 18.949767 Si / 1000 Ang^3
#
#
#
# Elastic Constant Matrix: (Units=GPa)
#
#
# Indices 1 2 3 4 5 6 
#
# 1 173.1233 36.3202 108.6566 0.0000 0.0000 0.0000
# 2 36.3202 67.7365 37.9224 0.0000 0.0000 0.0000
# 3 108.6566 37.9224 153.1883 0.0000 0.0000 0.0000
# 4 0.0000 0.0000 0.0000 22.7794 0.0000 0.0000
# 5 0.0000 0.0000 0.0000 0.0000 44.2506 0.0000
# 6 0.0000 0.0000 0.0000 0.0000 0.0000 0.6638
#
#
#
# Elastic Compliance Matrix: (Units=1/GPa)
#
#
# Indices 1 2 3 4 5 6 
#
# 1 0.010578 -0.001708 -0.007080 0.000000 0.000000 0.000000
# 2 -0.001708 0.017414 -0.003099 0.000000 0.000000 0.000000
# 3 -0.007080 -0.003099 0.012317 0.000000 0.000000 0.000000
# 4 0.000000 0.000000 0.000000 0.043899 0.000000 0.000000
# 5 0.000000 0.000000 0.000000 0.000000 0.022599 0.000000
# 6 0.000000 0.000000 0.000000 0.000000 0.000000 1.506551
#
#
# Mechanical properties :
#
#
# Convention : Reuss Voigt Hill
#
# Bulk Modulus (GPa) = 60.48122 84.42740 72.45431
# Shear Modulus (GPa) = 3.04387 27.61535 15.32961
#
# Velocity S-wave (km/s) = 1.26877 3.82159 2.84731
# Velocity P-wave (km/s) = 5.84228 8.00767 7.00910
#
# Compressibility (1/GPa) = 0.01653406
#
# Stress axis : x y z
#
# Youngs Moduli (GPa) = 94.53167 57.42448 81.18624
#
# Poissons Ratio (x) = 0.09809 0.57484
# Poissons Ratio (y) = 0.16147 0.25163
# Poissons Ratio (z) = 0.66933 0.17798
#
# Static dielectric constant tensor:
#      x y z
#    x 1.638800 0.000000 0.000000 
#    y 0.000000 1.698500 0.000000 
#    z 0.000000 0.000000 1.617930 
# 
# From -- ./inp_files/71238.got.cif
#   From: 2010.05.17/outbox.cif.g08.bks.cpg/sg74_36_cif.got.tgz:71238.got - 2010.06.03 17:57:02.
