data_PCOD9534974
_publ_section_title
;
Structure prediction by ZEFSAII (Michael W. Deem and Ramdas Pophale) SiO2 
 PCOD9534974
Probable space group: I M M A
;
_chemical_formula_sum "Si O2"
_cell_formula_units_Z 72
_cell_length_a 20.170297
_cell_length_b 8.642079
_cell_length_c 20.484678
_cell_angle_alpha 90.000000
_cell_angle_beta 90.000000
_cell_angle_gamma 90.000000
_cell_volume 3570.751824
_symmetry_space_group_name_H-M "I M M A"
_symmetry_group_IT_number 74
_symmetry_cell_setting 'orthorhombic'
loop_
_space_group_symop_operation_xyz
x,y,z
-x,1/2-y,z
x,-y,-z
-x,1/2+y,-z
-x,-y,-z
x,1/2+y,-z
-x,y,z
x,1/2-y,z
1/2+x,1/2+y,1/2+z
1/2-x,-y,1/2+z
1/2+x,1/2-y,1/2-z
1/2-x,y,1/2-z
1/2-x,1/2-y,1/2-z
1/2+x,y,1/2-z
1/2-x,1/2+y,1/2+z
1/2+x,-y,1/2+z
loop_
_atom_site_type_symbol
_atom_site_label
_atom_site_fract_x
_atom_site_fract_y
_atom_site_fract_z
Si Si1 0.806622 0.063711 0.802520
Si Si2 0.358968 0.934008 0.572975
Si Si3 0.919087 0.572957 0.432514
Si Si4 0.500000 0.064675 0.573569
Si Si5 0.924321 0.939391 0.289940
O O1 0.806259 0.250000 0.811724
O O2 0.750000 0.026256 0.750000
O O3 0.873959 0.015501 0.765775
O O4 0.805336 0.985732 0.873324
O O5 0.364025 0.750000 0.568524
O O6 0.347049 0.000000 0.500000
O O7 0.429613 0.002708 0.598396
O O8 0.895975 0.500000 0.500000
O O9 0.897264 0.750000 0.432873
O O10 0.901532 0.504693 0.361847
O O11 0.000000 0.570737 0.433096
O O12 0.500000 0.250000 0.576287
O O13 0.500000 0.000000 0.500000
O O14 0.924495 0.750000 0.292813
O O15 0.000000 0.987689 0.278061
#
# Coordination Sequence:
#
# PCOD9534974 Si02
#       5
#    16  16  16   8  16
#     4  10  21  37  57  82 114 153 196 241 295 358
#     4  11  22  38  60  87 119 154 198 246 300 359
#     4   8  13  23  41  65  93 124 162 207 258 314
#     4  10  18  32  56  88 122 152 187 236 297 354
#     4   8  15  29  50  75 102 139 185 230 281 342
#
# _framework density 20.163820000000001
#
# number of rings (size 3 to 8) (size 9 to 14) (size 15 to 20)
#    0.000    2.667    0.000    5.667    1.556    0.444 
#    0.000    2.222    0.000    4.000    0.000    0.000 
#    0.000    0.000    0.000    0.000    0.000    0.000 
#
# Total GULP energy -200661.867135 kJ/mol
# GULP energy per Si atom -5573.940754 kJ/mol
# Density = 2.011793 g / cm^3
# Si number density = 20.163820 Si / 1000 Ang^3
#
#
#
# Elastic Constant Matrix: (Units=GPa)
#
#
# Indices 1 2 3 4 5 6 
#
# 1 47.5037 26.3821 57.7934 0.0000 0.0000 0.0000
# 2 26.3821 85.7947 47.9781 0.0000 0.0000 0.0000
# 3 57.7934 47.9781 166.3505 0.0000 0.0000 0.0000
# 4 0.0000 0.0000 0.0000 27.0441 0.0000 0.0000
# 5 0.0000 0.0000 0.0000 0.0000 24.3220 0.0000
# 6 0.0000 0.0000 0.0000 0.0000 0.0000 12.7469
#
#
#
# Elastic Compliance Matrix: (Units=1/GPa)
#
#
# Indices 1 2 3 4 5 6 
#
# 1 0.038294 -0.005169 -0.011813 0.000000 0.000000 0.000000
# 2 -0.005169 0.014595 -0.002413 0.000000 0.000000 0.000000
# 3 -0.011813 -0.002413 0.010812 0.000000 0.000000 0.000000
# 4 0.000000 0.000000 0.000000 0.036977 0.000000 0.000000
# 5 0.000000 0.000000 0.000000 0.000000 0.041115 0.000000
# 6 0.000000 0.000000 0.000000 0.000000 0.000000 0.078450
#
#
# Mechanical properties :
#
#
# Convention : Reuss Voigt Hill
#
# Bulk Modulus (GPa) = 40.14692 62.66179 51.40435
# Shear Modulus (GPa) = 18.70299 23.98897 21.34598
#
# Velocity S-wave (km/s) = 3.04888 3.45295 3.25719
# Velocity P-wave (km/s) = 5.68751 6.85864 6.30035
#
# Compressibility (1/GPa) = 0.02490851
#
# Stress axis : x y z
#
# Youngs Moduli (GPa) = 26.11395 68.51671 92.49345
#
# Poissons Ratio (x) = 0.35418 1.09263
# Poissons Ratio (y) = 0.13499 0.22323
# Poissons Ratio (z) = 0.30849 0.16536
#
# Static dielectric constant tensor:
#      x y z
#    x 1.769480 0.000000 0.000000 
#    y 0.000000 1.677460 0.000000 
#    z 0.000000 0.000000 1.742680 
# 
# From -- ./inp_files/53655.got.cif
#   From: 2010.05.17/outbox.cif.g08.bks.cpg/sg74_27_cif.got.tgz:53655.got - 2010.06.03 17:57:02.
