data_PCOD9534571
_publ_section_title
;
Structure prediction by ZEFSAII (Michael W. Deem and Ramdas Pophale) SiO2 
 PCOD9534571
Probable space group: I M M A
;
_chemical_formula_sum "Si O2"
_cell_formula_units_Z 72
_cell_length_a 16.265162
_cell_length_b 8.843169
_cell_length_c 28.448666
_cell_angle_alpha 90.000000
_cell_angle_beta 90.000000
_cell_angle_gamma 90.000000
_cell_volume 4091.930271
_symmetry_space_group_name_H-M "I M M A"
_symmetry_group_IT_number 74
_symmetry_cell_setting 'orthorhombic'
loop_
_space_group_symop_operation_xyz
x,y,z
-x,1/2-y,z
x,-y,-z
-x,1/2+y,-z
-x,-y,-z
x,1/2+y,-z
-x,y,z
x,1/2-y,z
1/2+x,1/2+y,1/2+z
1/2-x,-y,1/2+z
1/2+x,1/2-y,1/2-z
1/2-x,y,1/2-z
1/2-x,1/2-y,1/2-z
1/2+x,y,1/2-z
1/2-x,1/2+y,1/2+z
1/2+x,-y,1/2+z
loop_
_atom_site_type_symbol
_atom_site_label
_atom_site_fract_x
_atom_site_fract_y
_atom_site_fract_z
Si Si1 0.000000 0.426528 0.777604
Si Si2 0.000000 0.568297 0.446967
Si Si3 0.331734 0.432372 0.052304
Si Si4 0.500000 0.073974 0.608413
Si Si5 0.170865 0.932319 0.779509
Si Si6 0.329794 0.068692 0.388792
O O1 0.084515 0.502715 0.761261
O O2 0.000000 0.250000 0.766450
O O3 0.000000 0.443534 0.834616
O O4 0.000000 0.500000 0.500000
O O5 0.084902 0.503845 0.426305
O O6 0.000000 0.750000 0.448301
O O7 0.340073 0.250000 0.049936
O O8 0.250938 0.472004 0.081952
O O9 0.322489 0.500000 0.000000
O O10 0.500000 0.250000 0.597083
O O11 0.414884 0.999675 0.592189
O O12 0.166590 0.750000 0.777794
O O13 0.250000 0.981764 0.750000
O O14 0.180382 0.977467 0.834209
O O15 0.337551 0.250000 0.389603
#
# Coordination Sequence:
#
# PCOD9534571 Si02
#       6
#     8   8  16   8  16  16
#     4   9  17  29  46  69  96 126 156 188 231 278
#     4  10  18  30  49  70  93 123 158 192 229 276
#     4  10  19  32  50  71  95 123 156 193 233 276
#     4   9  17  29  48  71  94 123 158 192 227 276
#     4   9  17  31  51  72  93 121 158 195 230 272
#     4   9  18  32  50  71  95 123 155 193 234 275
#
# _framework density 17.595607000000001
#
# number of rings (size 3 to 8) (size 9 to 14) (size 15 to 20)
#    0.000    2.667    0.000    3.667    0.000    4.889 
#    0.000    1.667    0.000    6.667    0.000    0.000 
#    0.000    0.000    0.000    0.000    0.000    0.000 
#
# Total GULP energy -200626.724826 kJ/mol
# GULP energy per Si atom -5572.964579 kJ/mol
# Density = 1.755556 g / cm^3
# Si number density = 17.595607 Si / 1000 Ang^3
#
#
#
# Elastic Constant Matrix: (Units=GPa)
#
#
# Indices 1 2 3 4 5 6 
#
# 1 231.3296 68.6290 59.3236 0.0000 0.0000 0.0000
# 2 68.6290 51.1337 19.8852 0.0000 0.0000 0.0000
# 3 59.3236 19.8852 31.7557 0.0000 0.0000 0.0000
# 4 0.0000 0.0000 0.0000 14.1888 0.0000 0.0000
# 5 0.0000 0.0000 0.0000 0.0000 32.1437 0.0000
# 6 0.0000 0.0000 0.0000 0.0000 0.0000 25.6133
#
#
#
# Elastic Compliance Matrix: (Units=1/GPa)
#
#
# Indices 1 2 3 4 5 6 
#
# 1 0.010539 -0.008577 -0.014317 0.000000 0.000000 0.000000
# 2 -0.008577 0.032832 -0.004536 0.000000 0.000000 0.000000
# 3 -0.014317 -0.004536 0.061078 0.000000 0.000000 0.000000
# 4 0.000000 0.000000 0.000000 0.070478 0.000000 0.000000
# 5 0.000000 0.000000 0.000000 0.000000 0.031110 0.000000
# 6 0.000000 0.000000 0.000000 0.000000 0.000000 0.039042
#
#
# Mechanical properties :
#
#
# Convention : Reuss Voigt Hill
#
# Bulk Modulus (GPa) = 20.16633 67.76608 43.96620
# Shear Modulus (GPa) = 15.79926 25.48123 20.64024
#
# Velocity S-wave (km/s) = 2.99976 3.80960 3.42867
# Velocity P-wave (km/s) = 4.84603 7.61232 6.38088
#
# Compressibility (1/GPa) = 0.04958760
#
# Stress axis : x y z
#
# Youngs Moduli (GPa) = 94.88504 30.45767 16.37261
#
# Poissons Ratio (x) = 0.26124 0.23441
# Poissons Ratio (y) = 0.81384 0.07427
# Poissons Ratio (z) = 1.35850 0.13816
#
# Static dielectric constant tensor:
#      x y z
#    x 1.620750 0.000000 0.000000 
#    y 0.000000 1.590740 0.000000 
#    z 0.000000 0.000000 1.597040 
# 
# From -- ./inp_files/72298.got.cif
#   From: 2010.05.17/outbox.cif.g08.bks.cpg/sg74_37_cif.got.tgz:72298.got - 2010.06.03 17:57:02.
