data_PCOD9534160
_publ_section_title
;
Structure prediction by ZEFSAII (Michael W. Deem and Ramdas Pophale) SiO2 
 PCOD9534160
Probable space group: I M M A
;
_chemical_formula_sum "Si O2"
_cell_formula_units_Z 104
_cell_length_a 27.988616
_cell_length_b 20.438221
_cell_length_c 8.972581
_cell_angle_alpha 90.000000
_cell_angle_beta 90.000000
_cell_angle_gamma 90.000000
_cell_volume 5132.652977
_symmetry_space_group_name_H-M "I M M A"
_symmetry_group_IT_number 74
_symmetry_cell_setting 'orthorhombic'
loop_
_space_group_symop_operation_xyz
x,y,z
-x,1/2-y,z
x,-y,-z
-x,1/2+y,-z
-x,-y,-z
x,1/2+y,-z
-x,y,z
x,1/2-y,z
1/2+x,1/2+y,1/2+z
1/2-x,-y,1/2+z
1/2+x,1/2-y,1/2-z
1/2-x,y,1/2-z
1/2-x,1/2-y,1/2-z
1/2+x,y,1/2-z
1/2-x,1/2+y,1/2+z
1/2+x,-y,1/2+z
loop_
_atom_site_type_symbol
_atom_site_label
_atom_site_fract_x
_atom_site_fract_y
_atom_site_fract_z
Si Si1 0.776269 0.890469 0.020105
Si Si2 0.179756 0.896550 0.343093
Si Si3 0.130205 0.565806 0.900606
Si Si4 0.745633 0.750000 0.924593
Si Si5 0.346844 0.750000 0.084512
Si Si6 0.086715 0.016635 0.658381
Si Si7 0.446872 0.121147 0.610710
Si Si8 0.553213 0.250000 0.814163
O O1 0.800634 0.909508 0.177045
O O2 0.721492 0.913270 0.038435
O O3 0.814205 0.913806 0.897112
O O4 0.769256 0.813155 0.999310
O O5 0.167483 0.819014 0.340213
O O6 0.132956 0.938088 0.373308
O O7 0.106530 0.547038 0.744356
O O8 0.128704 0.500000 0.000000
O O9 0.095991 0.615039 0.992092
O O10 0.750000 0.750000 0.750000
O O11 0.688500 0.750000 0.946205
O O12 0.403578 0.750000 0.069673
O O13 0.056849 0.059683 0.775740
O O14 0.063694 0.000000 0.500000
O O15 0.500000 0.120628 0.541703
O O16 0.441973 0.186373 0.709235
O O17 0.500000 0.250000 0.879548
#
# Coordination Sequence:
#
# PCOD9534160 Si02
#       8
#    16  16  16   8   8  16  16   8
#     4  10  19  35  56  79 112 150 194 242 293 346
#     4  10  19  34  57  86 109 148 196 244 294 348
#     4  10  20  37  56  83 116 154 198 237 293 348
#     4  10  23  35  52  88 118 156 197 238 302 361
#     4  10  17  34  59  79 119 145 189 246 296 350
#     4  11  23  38  55  86 121 157 201 236 291 352
#     4  10  21  39  64  90 113 146 198 250 301 355
#     4  10  18  33  65  95 112 141 196 260 307 348
#
# _framework density 20.262426000000001
#
# number of rings (size 3 to 8) (size 9 to 14) (size 15 to 20)
#    0.000    1.846    4.615    0.462    0.000    8.615 
#    0.000    0.000    0.000    1.846    0.000    3.231 
#    0.000    0.000    0.000    0.000    0.000    0.000 
#
# Total GULP energy -289907.694451 kJ/mol
# GULP energy per Si atom -5575.147970 kJ/mol
# Density = 2.021631 g / cm^3
# Si number density = 20.262426 Si / 1000 Ang^3
#
#
#
# Elastic Constant Matrix: (Units=GPa)
#
#
# Indices 1 2 3 4 5 6 
#
# 1 116.4512 18.7574 11.9411 0.0000 0.0000 0.0000
# 2 18.7574 45.9540 3.8984 0.0000 0.0000 0.0000
# 3 11.9411 3.8984 53.1001 0.0000 0.0000 0.0000
# 4 0.0000 0.0000 0.0000 8.3412 0.0000 0.0000
# 5 0.0000 0.0000 0.0000 0.0000 14.8660 0.0000
# 6 0.0000 0.0000 0.0000 0.0000 0.0000 63.3589
#
#
#
# Elastic Compliance Matrix: (Units=1/GPa)
#
#
# Indices 1 2 3 4 5 6 
#
# 1 0.009366 -0.003667 -0.001837 0.000000 0.000000 0.000000
# 2 -0.003667 0.023333 -0.000888 0.000000 0.000000 0.000000
# 3 -0.001837 -0.000888 0.019311 0.000000 0.000000 0.000000
# 4 0.000000 0.000000 0.000000 0.119887 0.000000 0.000000
# 5 0.000000 0.000000 0.000000 0.000000 0.067268 0.000000
# 6 0.000000 0.000000 0.000000 0.000000 0.000000 0.015783
#
#
# Mechanical properties :
#
#
# Convention : Reuss Voigt Hill
#
# Bulk Modulus (GPa) = 25.49407 31.63325 28.56366
# Shear Modulus (GPa) = 17.80572 29.37376 23.58974
#
# Velocity S-wave (km/s) = 2.96760 3.81158 3.41576
# Velocity P-wave (km/s) = 4.93472 5.91748 5.44830
#
# Compressibility (1/GPa) = 0.03922481
#
# Stress axis : x y z
#
# Youngs Moduli (GPa) = 106.76487 42.85748 51.78478
#
# Poissons Ratio (x) = 0.15717 0.09513
# Poissons Ratio (y) = 0.39154 0.04600
# Poissons Ratio (z) = 0.19613 0.03807
#
# Static dielectric constant tensor:
#      x y z
#    x 1.745350 0.000000 0.000000 
#    y 0.000000 1.725880 0.000000 
#    z 0.000000 0.000000 1.724720 
# 
# From -- ./inp_files/15255.got.cif
#   From: 2010.05.17/outbox.cif.g08.bks.cpg/sg74_8_cif.got.tgz:15255.got - 2010.06.03 17:57:02.
