data_PCOD9534352
_publ_section_title
;
Structure prediction by ZEFSAII (Michael W. Deem and Ramdas Pophale) SiO2 
 PCOD9534352
Probable space group: I M M A
;
_chemical_formula_sum "Si O2"
_cell_formula_units_Z 96
_cell_length_a 23.101595
_cell_length_b 20.095244
_cell_length_c 11.854998
_cell_angle_alpha 90.000000
_cell_angle_beta 90.000000
_cell_angle_gamma 90.000000
_cell_volume 5503.471664
_symmetry_space_group_name_H-M "I M M A"
_symmetry_group_IT_number 74
_symmetry_cell_setting 'orthorhombic'
loop_
_space_group_symop_operation_xyz
x,y,z
-x,1/2-y,z
x,-y,-z
-x,1/2+y,-z
-x,-y,-z
x,1/2+y,-z
-x,y,z
x,1/2-y,z
1/2+x,1/2+y,1/2+z
1/2-x,-y,1/2+z
1/2+x,1/2-y,1/2-z
1/2-x,y,1/2-z
1/2-x,1/2-y,1/2-z
1/2+x,y,1/2-z
1/2-x,1/2+y,1/2+z
1/2+x,-y,1/2+z
loop_
_atom_site_type_symbol
_atom_site_label
_atom_site_fract_x
_atom_site_fract_y
_atom_site_fract_z
Si Si1 0.360367 0.171126 0.039794
Si Si2 0.931866 0.437687 0.582121
Si Si3 0.069130 0.534248 0.154417
Si Si4 0.733130 0.828763 0.619783
Si Si5 0.062456 0.328963 0.251728
Si Si6 0.615873 0.897684 0.552757
O O1 0.371723 0.250000 0.022507
O O2 0.291699 0.162424 0.048518
O O3 0.388226 0.150407 0.160698
O O4 0.392273 0.124602 0.951051
O O5 0.918647 0.500000 0.500000
O O6 0.923222 0.455918 0.712787
O O7 0.000000 0.421393 0.566303
O O8 0.101459 0.467594 0.113972
O O9 0.000000 0.528426 0.131930
O O10 0.095732 0.592102 0.075530
O O11 0.716469 0.750000 0.617815
O O12 0.750000 0.843738 0.750000
O O13 0.681187 0.873276 0.572535
O O14 0.059431 0.250000 0.261648
O O15 0.077287 0.346837 0.124494
O O16 0.000000 0.358698 0.283515
#
# Coordination Sequence:
#
# PCOD9534352 Si02
#       6
#    16  16  16  16  16  16
#     4  10  20  36  57  82 112 149 190 236 287 334
#     4  10  21  38  59  84 114 150 191 240 294 345
#     4  10  22  38  56  82 116 150 185 232 292 345
#     4  10  20  36  57  83 115 149 186 234 285 332
#     4  10  18  28  51  84 109 135 182 236 282 334
#     4  11  19  35  56  80 110 150 184 227 283 345
#
# _framework density 17.443534
#
# number of rings (size 3 to 8) (size 9 to 14) (size 15 to 20)
#    0.000    1.833    1.667    4.000    0.000    2.333 
#    3.000    2.500    0.000    4.000    0.000    0.000 
#    0.000    0.000    0.000    0.000    0.000    0.000 
#
# Total GULP energy -267717.948661 kJ/mol
# GULP energy per Si atom -5577.457264 kJ/mol
# Density = 1.740383 g / cm^3
# Si number density = 17.443534 Si / 1000 Ang^3
#
#
#
# Elastic Constant Matrix: (Units=GPa)
#
#
# Indices 1 2 3 4 5 6 
#
# 1 127.1059 65.9638 55.9119 0.0000 0.0000 0.0000
# 2 65.9638 59.4869 44.2710 0.0000 0.0000 0.0000
# 3 55.9119 44.2710 118.5220 0.0000 0.0000 0.0000
# 4 0.0000 0.0000 0.0000 31.3025 0.0000 0.0000
# 5 0.0000 0.0000 0.0000 0.0000 27.0795 0.0000
# 6 0.0000 0.0000 0.0000 0.0000 0.0000 37.0284
#
#
#
# Elastic Compliance Matrix: (Units=1/GPa)
#
#
# Indices 1 2 3 4 5 6 
#
# 1 0.018721 -0.019649 -0.001492 0.000000 0.000000 0.000000
# 2 -0.019649 0.043905 -0.007131 0.000000 0.000000 0.000000
# 3 -0.001492 -0.007131 0.011805 0.000000 0.000000 0.000000
# 4 0.000000 0.000000 0.000000 0.031946 0.000000 0.000000
# 5 0.000000 0.000000 0.000000 0.000000 0.036928 0.000000
# 6 0.000000 0.000000 0.000000 0.000000 0.000000 0.027006
#
#
# Mechanical properties :
#
#
# Convention : Reuss Voigt Hill
#
# Bulk Modulus (GPa) = 55.90406 70.82312 63.36359
# Shear Modulus (GPa) = 21.47614 28.34663 24.91138
#
# Velocity S-wave (km/s) = 3.51262 4.03557 3.78314
# Velocity P-wave (km/s) = 6.96918 7.89961 7.44894
#
# Compressibility (1/GPa) = 0.01788779
#
# Stress axis : x y z
#
# Youngs Moduli (GPa) = 53.41650 22.77645 84.71282
#
# Poissons Ratio (x) = 0.44753 0.12640
# Poissons Ratio (y) = 1.04956 0.60405
# Poissons Ratio (z) = 0.07970 0.16241
#
# Static dielectric constant tensor:
#      x y z
#    x 1.607240 0.000000 0.000000 
#    y 0.000000 1.618480 0.000000 
#    z 0.000000 0.000000 1.604730 
# 
# From -- ./inp_files/23946.got.cif
#   From: 2010.05.17/outbox.cif.g08.bks.cpg/sg74_12_cif.got.tgz:23946.got - 2010.06.03 17:57:02.
