data_PCOD9534158
_publ_section_title
;
Structure prediction by ZEFSAII (Michael W. Deem and Ramdas Pophale) SiO2 
 PCOD9534158
Probable space group: I M M A
;
_chemical_formula_sum "Si O2"
_cell_formula_units_Z 56
_cell_length_a 23.300796
_cell_length_b 23.204095
_cell_length_c 5.258159
_cell_angle_alpha 90.000000
_cell_angle_beta 90.000000
_cell_angle_gamma 90.000000
_cell_volume 2842.949249
_symmetry_space_group_name_H-M "I M M A"
_symmetry_group_IT_number 74
_symmetry_cell_setting 'orthorhombic'
loop_
_space_group_symop_operation_xyz
x,y,z
-x,1/2-y,z
x,-y,-z
-x,1/2+y,-z
-x,-y,-z
x,1/2+y,-z
-x,y,z
x,1/2-y,z
1/2+x,1/2+y,1/2+z
1/2-x,-y,1/2+z
1/2+x,1/2-y,1/2-z
1/2-x,y,1/2-z
1/2-x,1/2-y,1/2-z
1/2+x,y,1/2-z
1/2-x,1/2+y,1/2+z
1/2+x,-y,1/2+z
loop_
_atom_site_type_symbol
_atom_site_label
_atom_site_fract_x
_atom_site_fract_y
_atom_site_fract_z
Si Si1 0.000000 0.460766 0.250059
Si Si2 0.688512 0.816075 0.888854
Si Si3 0.186832 0.571065 0.330728
Si Si4 0.124324 0.915014 0.827471
O O1 0.000000 0.500000 0.500000
O O2 0.058613 0.424838 0.239412
O O3 0.000000 0.500000 0.000000
O O4 0.675602 0.750000 0.946902
O O5 0.750000 0.819266 0.750000
O O6 0.642563 0.848346 0.708327
O O7 0.690774 0.859099 0.128125
O O8 0.250000 0.550794 0.250000
O O9 0.164256 0.554451 0.611727
O O10 0.141767 0.562681 0.104578
#
# Coordination Sequence:
#
# PCOD9534158 Si02
#       4
#     8  16  16  16
#     4  12  26  46  69  82 103 158 218 256 300 356
#     4   9  18  32  59  92 128 163 190 225 289 364
#     4  10  17  34  57  88 123 155 182 235 294 351
#     4  10  21  37  59  87 120 151 200 252 288 344
#
# _framework density 19.697854
#
# number of rings (size 3 to 8) (size 9 to 14) (size 15 to 20)
#    1.714    0.286    2.857    2.571    0.000    1.714 
#    0.000    0.714    0.000   29.143    0.000    0.000 
#    0.000    0.000    0.000    0.000    0.000    0.000 
#
# Total GULP energy -156133.244585 kJ/mol
# GULP energy per Si atom -5576.187307 kJ/mol
# Density = 1.965302 g / cm^3
# Si number density = 19.697854 Si / 1000 Ang^3
#
#
#
# Elastic Constant Matrix: (Units=GPa)
#
#
# Indices 1 2 3 4 5 6 
#
# 1 136.1530 19.1203 29.6113 0.0000 0.0000 0.0000
# 2 19.1203 81.1394 8.0799 0.0000 0.0000 0.0000
# 3 29.6113 8.0799 123.2773 0.0000 0.0000 0.0000
# 4 0.0000 0.0000 0.0000 29.4143 0.0000 0.0000
# 5 0.0000 0.0000 0.0000 0.0000 30.6048 0.0000
# 6 0.0000 0.0000 0.0000 0.0000 0.0000 15.5211
#
#
#
# Elastic Compliance Matrix: (Units=1/GPa)
#
#
# Indices 1 2 3 4 5 6 
#
# 1 0.007976 -0.001700 -0.001804 0.000000 0.000000 0.000000
# 2 -0.001700 0.012768 -0.000429 0.000000 0.000000 0.000000
# 3 -0.001804 -0.000429 0.008573 0.000000 0.000000 0.000000
# 4 0.000000 0.000000 0.000000 0.033997 0.000000 0.000000
# 5 0.000000 0.000000 0.000000 0.000000 0.032675 0.000000
# 6 0.000000 0.000000 0.000000 0.000000 0.000000 0.064429
#
#
# Mechanical properties :
#
#
# Convention : Reuss Voigt Hill
#
# Bulk Modulus (GPa) = 46.61710 50.46587 48.54148
# Shear Modulus (GPa) = 28.50090 34.02523 31.26306
#
# Velocity S-wave (km/s) = 3.80795 4.16066 3.98820
# Velocity P-wave (km/s) = 6.56136 6.98262 6.77526
#
# Compressibility (1/GPa) = 0.02145136
#
# Stress axis : x y z
#
# Youngs Moduli (GPa) = 125.37907 78.32269 116.64121
#
# Poissons Ratio (x) = 0.13313 0.21047
# Poissons Ratio (y) = 0.21312 0.04999
# Poissons Ratio (z) = 0.22623 0.03356
#
# Static dielectric constant tensor:
#      x y z
#    x 1.663760 0.000000 0.000000 
#    y 0.000000 1.778010 0.000000 
#    z 0.000000 0.000000 1.712490 
# 
# From -- ./inp_files/2847.got.cif
#   From: 2010.05.17/outbox.cif.g08.bks.cpg/sg74_2_cif.got.tgz:2847.got - 2010.06.03 17:57:02.
