data_PCOD9534745
_publ_section_title
;
Structure prediction by ZEFSAII (Michael W. Deem and Ramdas Pophale) SiO2 
 PCOD9534745
Probable space group: I M M A
;
_chemical_formula_sum "Si O2"
_cell_formula_units_Z 88
_cell_length_a 18.292025
_cell_length_b 21.836243
_cell_length_c 12.911590
_cell_angle_alpha 90.000000
_cell_angle_beta 90.000000
_cell_angle_gamma 90.000000
_cell_volume 5157.264810
_symmetry_space_group_name_H-M "I M M A"
_symmetry_group_IT_number 74
_symmetry_cell_setting 'orthorhombic'
loop_
_space_group_symop_operation_xyz
x,y,z
-x,1/2-y,z
x,-y,-z
-x,1/2+y,-z
-x,-y,-z
x,1/2+y,-z
-x,y,z
x,1/2-y,z
1/2+x,1/2+y,1/2+z
1/2-x,-y,1/2+z
1/2+x,1/2-y,1/2-z
1/2-x,y,1/2-z
1/2-x,1/2-y,1/2-z
1/2+x,y,1/2-z
1/2-x,1/2+y,1/2+z
1/2+x,-y,1/2+z
loop_
_atom_site_type_symbol
_atom_site_label
_atom_site_fract_x
_atom_site_fract_y
_atom_site_fract_z
Si Si1 0.871430 0.750000 0.265777
Si Si2 0.698780 0.383698 0.528733
Si Si3 0.916138 0.499455 0.321376
Si Si4 0.583812 0.051887 0.409843
Si Si5 0.419225 0.379948 0.711518
Si Si6 0.254078 0.750000 0.422710
Si Si7 0.303982 0.500000 0.000000
O O1 0.916475 0.811454 0.252576
O O2 0.825175 0.750000 0.370473
O O3 0.812809 0.750000 0.171493
O O4 0.642665 0.396746 0.435649
O O5 0.646794 0.386930 0.630582
O O6 0.732932 0.315729 0.522900
O O7 0.754854 0.440814 0.529528
O O8 0.903741 0.474335 0.204991
O O9 0.910263 0.572439 0.304417
O O10 0.856377 0.481118 0.404834
O O11 0.000000 0.484346 0.351367
O O12 0.500000 0.073132 0.414515
O O13 0.592094 0.000000 0.500000
O O14 0.500000 0.393233 0.664506
#
# Coordination Sequence:
#
# PCOD9534745 Si02
#       7
#     8  16  16  16  16   8   8
#     4   9  17  30  46  72 107 149 169 201 255 339
#     4  11  20  33  52  81 106 143 174 222 269 326
#     4  10  21  35  53  76 106 137 175 229 269 316
#     4  10  18  34  55  77 104 136 176 223 272 315
#     4  10  18  31  51  76 107 139 175 217 267 321
#     4   9  20  32  46  71 114 140 173 214 269 312
#     4  12  23  34  53  78 106 144 184 214 267 334
#
# _framework density 17.063309
#
# number of rings (size 3 to 8) (size 9 to 14) (size 15 to 20)
#    0.000    1.818    2.727    2.182    0.000    4.364 
#    0.000    1.364    0.000    2.182    0.000    1.273 
#    0.000    0.000    0.000    0.000    0.000    0.000 
#
# Total GULP energy -245231.378871 kJ/mol
# GULP energy per Si atom -5573.440429 kJ/mol
# Density = 1.702447 g / cm^3
# Si number density = 17.063309 Si / 1000 Ang^3
#
#
#
# Elastic Constant Matrix: (Units=GPa)
#
#
# Indices 1 2 3 4 5 6 
#
# 1 107.0778 52.0173 55.2367 0.0000 0.0000 0.0000
# 2 52.0173 106.1890 28.5772 0.0000 0.0000 0.0000
# 3 55.2367 28.5772 64.2513 0.0000 0.0000 0.0000
# 4 0.0000 0.0000 0.0000 13.9230 0.0000 0.0000
# 5 0.0000 0.0000 0.0000 0.0000 29.4812 0.0000
# 6 0.0000 0.0000 0.0000 0.0000 0.0000 20.6845
#
#
#
# Elastic Compliance Matrix: (Units=1/GPa)
#
#
# Indices 1 2 3 4 5 6 
#
# 1 0.019406 -0.005698 -0.014149 0.000000 0.000000 0.000000
# 2 -0.005698 0.012371 -0.000603 0.000000 0.000000 0.000000
# 3 -0.014149 -0.000603 0.027996 0.000000 0.000000 0.000000
# 4 0.000000 0.000000 0.000000 0.071823 0.000000 0.000000
# 5 0.000000 0.000000 0.000000 0.000000 0.033920 0.000000
# 6 0.000000 0.000000 0.000000 0.000000 0.000000 0.048345
#
#
# Mechanical properties :
#
#
# Convention : Reuss Voigt Hill
#
# Bulk Modulus (GPa) = 52.98921 61.02007 57.00464
# Shear Modulus (GPa) = 19.15318 22.26355 20.70836
#
# Velocity S-wave (km/s) = 3.35397 3.61607 3.48748
# Velocity P-wave (km/s) = 6.79123 7.29885 7.04961
#
# Compressibility (1/GPa) = 0.01887177
#
# Stress axis : x y z
#
# Youngs Moduli (GPa) = 51.53048 80.83456 35.71947
#
# Poissons Ratio (x) = 0.46063 0.50539
# Poissons Ratio (y) = 0.29364 0.02155
# Poissons Ratio (z) = 0.72909 0.04877
#
# Static dielectric constant tensor:
#      x y z
#    x 1.602620 0.000000 0.000000 
#    y 0.000000 1.600720 0.000000 
#    z 0.000000 0.000000 1.574020 
# 
# From -- ./inp_files/22273.got.cif
#   From: 2010.05.17/outbox.cif.g08.bks.cpg/sg74_12_cif.got.tgz:22273.got - 2010.06.03 17:57:02.
