data_PCOD9534892
_publ_section_title
;
Structure prediction by ZEFSAII (Michael W. Deem and Ramdas Pophale) SiO2 
 PCOD9534892
Probable space group: I M M A
;
_chemical_formula_sum "Si O2"
_cell_formula_units_Z 72
_cell_length_a 18.134446
_cell_length_b 8.708769
_cell_length_c 23.411009
_cell_angle_alpha 90.000000
_cell_angle_beta 90.000000
_cell_angle_gamma 90.000000
_cell_volume 3697.270244
_symmetry_space_group_name_H-M "I M M A"
_symmetry_group_IT_number 74
_symmetry_cell_setting 'orthorhombic'
loop_
_space_group_symop_operation_xyz
x,y,z
-x,1/2-y,z
x,-y,-z
-x,1/2+y,-z
-x,-y,-z
x,1/2+y,-z
-x,y,z
x,1/2-y,z
1/2+x,1/2+y,1/2+z
1/2-x,-y,1/2+z
1/2+x,1/2-y,1/2-z
1/2-x,y,1/2-z
1/2-x,1/2-y,1/2-z
1/2+x,y,1/2-z
1/2-x,1/2+y,1/2+z
1/2+x,-y,1/2+z
loop_
_atom_site_type_symbol
_atom_site_label
_atom_site_fract_x
_atom_site_fract_y
_atom_site_fract_z
Si Si1 0.500000 0.564182 0.936038
Si Si2 0.912211 0.930047 0.760868
Si Si3 0.915703 0.932697 0.115666
Si Si4 0.226039 0.566610 0.939290
Si Si5 0.141148 0.562922 0.639409
O O1 0.500000 0.750000 0.938854
O O2 0.427581 0.516231 0.900409
O O3 0.500000 0.500000 0.000000
O O4 0.893979 0.750000 0.770827
O O5 0.870411 0.987457 0.704604
O O6 0.000000 0.937240 0.748226
O O7 0.898638 0.021109 0.818892
O O8 0.912244 0.750000 0.109206
O O9 0.000000 0.983557 0.104168
O O10 0.855506 0.010378 0.075801
O O11 0.227555 0.750000 0.941808
O O12 0.283104 0.515195 0.890286
O O13 0.249963 0.500000 0.000000
O O14 0.139591 0.750000 0.641369
#
# Coordination Sequence:
#
# PCOD9534892 Si02
#       5
#     8  16  16  16  16
#     4  10  18  32  52  78 112 152 193 228 265 314
#     4   9  16  32  59  86 112 146 188 229 269 323
#     4  10  22  40  60  83 111 143 181 231 288 341
#     4  11  23  39  58  82 113 148 188 232 278 330
#     4   9  18  33  56  83 113 150 188 227 270 321
#
# _framework density 19.473828000000001
#
# number of rings (size 3 to 8) (size 9 to 14) (size 15 to 20)
#    0.000    2.222    1.111    2.000    0.000    2.667 
#    0.000    8.889    0.000    0.000    0.000    0.000 
#    0.000    0.000    0.000    0.000    0.000    0.000 
#
# Total GULP energy -201028.242580 kJ/mol
# GULP energy per Si atom -5584.117849 kJ/mol
# Density = 1.942950 g / cm^3
# Si number density = 19.473828 Si / 1000 Ang^3
#
#
#
# Elastic Constant Matrix: (Units=GPa)
#
#
# Indices 1 2 3 4 5 6 
#
# 1 60.4714 14.6079 -1.8687 0.0000 0.0000 0.0000
# 2 14.6079 26.8990 2.0506 0.0000 0.0000 0.0000
# 3 -1.8687 2.0506 13.3040 0.0000 0.0000 0.0000
# 4 0.0000 0.0000 0.0000 33.6206 0.0000 0.0000
# 5 0.0000 0.0000 0.0000 0.0000 31.7354 0.0000
# 6 0.0000 0.0000 0.0000 0.0000 0.0000 8.8467
#
#
#
# Elastic Compliance Matrix: (Units=1/GPa)
#
#
# Indices 1 2 3 4 5 6 
#
# 1 0.019282 -0.010805 0.004374 0.000000 0.000000 0.000000
# 2 -0.010805 0.043673 -0.008249 0.000000 0.000000 0.000000
# 3 0.004374 -0.008249 0.077051 0.000000 0.000000 0.000000
# 4 0.000000 0.000000 0.000000 0.029744 0.000000 0.000000
# 5 0.000000 0.000000 0.000000 0.000000 0.031511 0.000000
# 6 0.000000 0.000000 0.000000 0.000000 0.000000 0.113036
#
#
# Mechanical properties :
#
#
# Convention : Reuss Voigt Hill
#
# Bulk Modulus (GPa) = 9.03787 14.47266 11.75526
# Shear Modulus (GPa) = 13.13928 20.56618 16.85273
#
# Velocity S-wave (km/s) = 2.60035 3.25328 2.94497
# Velocity P-wave (km/s) = 3.69687 4.64325 4.19682
#
# Compressibility (1/GPa) = 0.11064560
#
# Stress axis : x y z
#
# Youngs Moduli (GPa) = 51.86180 22.89761 12.97842
#
# Poissons Ratio (x) = 0.24740 -0.05676
# Poissons Ratio (y) = 0.56036 0.10706
# Poissons Ratio (z) = -0.22683 0.18888
#
# Static dielectric constant tensor:
#      x y z
#    x 1.684750 0.000000 0.000000 
#    y 0.000000 1.661260 0.000000 
#    z 0.000000 0.000000 1.666360 
# 
# From -- ./inp_files/60586.got.cif
#   From: 2010.05.17/outbox.cif.g08.bks.cpg/sg74_31_cif.got.tgz:60586.got - 2010.06.03 17:57:02.
