data_PCOD9534614
_publ_section_title
;
Structure prediction by ZEFSAII (Michael W. Deem and Ramdas Pophale) SiO2 
 PCOD9534614
Probable space group: I M M A
;
_chemical_formula_sum "Si O2"
_cell_formula_units_Z 72
_cell_length_a 20.828646
_cell_length_b 8.552466
_cell_length_c 20.376499
_cell_angle_alpha 90.000000
_cell_angle_beta 90.000000
_cell_angle_gamma 90.000000
_cell_volume 3629.793869
_symmetry_space_group_name_H-M "I M M A"
_symmetry_group_IT_number 74
_symmetry_cell_setting 'orthorhombic'
loop_
_space_group_symop_operation_xyz
x,y,z
-x,1/2-y,z
x,-y,-z
-x,1/2+y,-z
-x,-y,-z
x,1/2+y,-z
-x,y,z
x,1/2-y,z
1/2+x,1/2+y,1/2+z
1/2-x,-y,1/2+z
1/2+x,1/2-y,1/2-z
1/2-x,y,1/2-z
1/2-x,1/2-y,1/2-z
1/2+x,y,1/2-z
1/2-x,1/2+y,1/2+z
1/2+x,-y,1/2+z
loop_
_atom_site_type_symbol
_atom_site_label
_atom_site_fract_x
_atom_site_fract_y
_atom_site_fract_z
Si Si1 0.578076 0.928644 0.568516
Si Si2 0.636719 0.062724 0.926387
Si Si3 0.927479 0.937355 0.208269
Si Si4 0.190792 0.558922 0.294357
Si Si5 0.000000 0.437154 0.425407
O O1 0.500000 0.930245 0.565348
O O2 0.598925 0.750000 0.574705
O O3 0.601566 0.000000 0.500000
O O4 0.594036 0.021952 0.634304
O O5 0.634073 0.250000 0.930375
O O6 0.688003 0.014467 0.870944
O O7 0.567277 0.003833 0.900034
O O8 0.647504 0.000000 0.000000
O O9 0.930534 0.750000 0.213924
O O10 0.874471 0.994554 0.258916
O O11 0.000000 0.999353 0.218709
O O12 0.191439 0.750000 0.293319
O O13 0.250000 0.505297 0.250000
O O14 0.000000 0.500000 0.500000
O O15 0.000000 0.250000 0.423754
#
# Coordination Sequence:
#
# PCOD9534614 Si02
#       5
#    16  16  16  16   8
#     4   9  16  27  45  70 101 133 167 210 260 307
#     4  10  19  33  56  81 110 143 184 229 276 330
#     4   9  17  30  51  76 100 131 176 222 264 314
#     4   9  19  35  55  78 107 144 183 222 267 325
#     4  10  18  30  50  80 114 142 175 220 275 328
#
# _framework density 19.835837000000001
#
# number of rings (size 3 to 8) (size 9 to 14) (size 15 to 20)
#    0.000    2.667    0.000    3.667    1.556    2.667 
#    0.000    3.333    0.000    8.667    0.000    0.000 
#    0.000    0.000    0.000    0.000    0.000    0.000 
#
# Total GULP energy -200645.038215 kJ/mol
# GULP energy per Si atom -5573.473284 kJ/mol
# Density = 1.979069 g / cm^3
# Si number density = 19.835837 Si / 1000 Ang^3
#
#
#
# Elastic Constant Matrix: (Units=GPa)
#
#
# Indices 1 2 3 4 5 6 
#
# 1 71.1484 15.6627 76.2719 0.0000 0.0000 0.0000
# 2 15.6627 43.0870 18.2585 0.0000 0.0000 0.0000
# 3 76.2719 18.2585 150.4806 0.0000 0.0000 0.0000
# 4 0.0000 0.0000 0.0000 18.8022 0.0000 0.0000
# 5 0.0000 0.0000 0.0000 0.0000 28.3384 0.0000
# 6 0.0000 0.0000 0.0000 0.0000 0.0000 7.7244
#
#
#
# Elastic Compliance Matrix: (Units=1/GPa)
#
#
# Indices 1 2 3 4 5 6 
#
# 1 0.031761 -0.004980 -0.015494 0.000000 0.000000 0.000000
# 2 -0.004980 0.025248 -0.000539 0.000000 0.000000 0.000000
# 3 -0.015494 -0.000539 0.014564 0.000000 0.000000 0.000000
# 4 0.000000 0.000000 0.000000 0.053185 0.000000 0.000000
# 5 0.000000 0.000000 0.000000 0.000000 0.035288 0.000000
# 6 0.000000 0.000000 0.000000 0.000000 0.000000 0.129461
#
#
# Mechanical properties :
#
#
# Convention : Reuss Voigt Hill
#
# Bulk Modulus (GPa) = 33.84513 53.90025 43.87269
# Shear Modulus (GPa) = 14.64633 21.27452 17.96042
#
# Velocity S-wave (km/s) = 2.72026 3.27850 3.01234
# Velocity P-wave (km/s) = 5.19289 6.44698 5.85362
#
# Compressibility (1/GPa) = 0.02954635
#
# Stress axis : x y z
#
# Youngs Moduli (GPa) = 31.48479 39.60763 68.66180
#
# Poissons Ratio (x) = 0.19724 1.06386
# Poissons Ratio (y) = 0.15679 0.03703
# Poissons Ratio (z) = 0.48783 0.02136
#
# Static dielectric constant tensor:
#      x y z
#    x 1.736860 0.000000 0.000000 
#    y 0.000000 1.678690 0.000000 
#    z 0.000000 0.000000 1.698440 
# 
# From -- ./inp_files/53653.got.cif
#   From: 2010.05.17/outbox.cif.g08.bks.cpg/sg74_27_cif.got.tgz:53653.got - 2010.06.03 17:57:02.
