data_PCOD9534455
_publ_section_title
;
Structure prediction by ZEFSAII (Michael W. Deem and Ramdas Pophale) SiO2 
 PCOD9534455
Probable space group: I M M A
;
_chemical_formula_sum "Si O2"
_cell_formula_units_Z 88
_cell_length_a 11.836185
_cell_length_b 17.377506
_cell_length_c 16.655325
_cell_angle_alpha 90.000000
_cell_angle_beta 90.000000
_cell_angle_gamma 90.000000
_cell_volume 3425.723472
_symmetry_space_group_name_H-M "I M M A"
_symmetry_group_IT_number 74
_symmetry_cell_setting 'orthorhombic'
loop_
_space_group_symop_operation_xyz
x,y,z
-x,1/2-y,z
x,-y,-z
-x,1/2+y,-z
-x,-y,-z
x,1/2+y,-z
-x,y,z
x,1/2-y,z
1/2+x,1/2+y,1/2+z
1/2-x,-y,1/2+z
1/2+x,1/2-y,1/2-z
1/2-x,y,1/2-z
1/2-x,1/2-y,1/2-z
1/2+x,y,1/2-z
1/2-x,1/2+y,1/2+z
1/2+x,-y,1/2+z
loop_
_atom_site_type_symbol
_atom_site_label
_atom_site_fract_x
_atom_site_fract_y
_atom_site_fract_z
Si Si1 0.622917 0.843090 0.225481
Si Si2 0.125829 0.537502 0.870708
Si Si3 0.624611 0.585590 0.876294
Si Si4 0.646337 0.664256 0.042609
Si Si5 0.116018 0.123228 0.965310
Si Si6 0.624870 0.750000 0.788994
O O1 0.500000 0.869202 0.261643
O O2 0.625540 0.750000 0.234718
O O3 0.750000 0.871201 0.250000
O O4 0.611008 0.859866 0.130895
O O5 0.258223 0.547406 0.843969
O O6 0.123002 0.455908 0.915686
O O7 0.000000 0.545118 0.828179
O O8 0.119912 0.601044 0.941101
O O9 0.500000 0.550287 0.859281
O O10 0.624001 0.671339 0.839255
O O11 0.628619 0.601864 0.972622
O O12 0.607405 0.750000 0.020756
O O13 0.778445 0.671562 0.054141
O O14 0.000000 0.162396 0.946739
O O15 0.500000 0.750000 0.744668
O O16 0.750000 0.750000 0.750000
#
# Coordination Sequence:
#
# PCOD9534455 Si02
#       6
#    16  16  16  16  16   8
#     4   9  18  31  46  65  94 133 169 202 244 295
#     4   8  15  30  49  70 101 138 173 212 263 317
#     4  10  19  33  54  79 105 134 171 217 266 314
#     4  10  18  29  49  77 106 137 175 217 264 314
#     4   8  15  28  45  69 104 140 171 213 267 314
#     4  10  22  38  56  80 113 146 172 210 267 328
#
# _framework density 25.688002999999998
#
# number of rings (size 3 to 8) (size 9 to 14) (size 15 to 20)
#    0.000    2.909    0.909    1.636    0.000    2.545 
#    0.000   10.000    0.000    1.091    0.000    0.000 
#    0.000    0.000    0.000    0.000    0.000    0.000 
#
# Total GULP energy -244971.553351 kJ/mol
# GULP energy per Si atom -5567.535303 kJ/mol
# Density = 2.562954 g / cm^3
# Si number density = 25.688003 Si / 1000 Ang^3
#
#
#
# Elastic Constant Matrix: (Units=GPa)
#
#
# Indices 1 2 3 4 5 6 
#
# 1 358.8479 32.6841 31.9653 0.0000 0.0000 0.0000
# 2 32.6841 48.3619 2.1014 0.0000 0.0000 0.0000
# 3 31.9653 2.1014 89.1209 0.0000 0.0000 0.0000
# 4 0.0000 0.0000 0.0000 12.1799 0.0000 0.0000
# 5 0.0000 0.0000 0.0000 0.0000 9.4208 0.0000
# 6 0.0000 0.0000 0.0000 0.0000 0.0000 -86.9894
#
#
#
# Elastic Compliance Matrix: (Units=1/GPa)
#
#
# Indices 1 2 3 4 5 6 
#
# 1 0.003065 -0.002026 -0.001052 0.000000 0.000000 0.000000
# 2 -0.002026 0.022037 0.000207 0.000000 0.000000 0.000000
# 3 -0.001052 0.000207 0.011593 0.000000 0.000000 0.000000
# 4 0.000000 0.000000 0.000000 0.082103 0.000000 0.000000
# 5 0.000000 0.000000 0.000000 0.000000 0.106148 0.000000
# 6 0.000000 0.000000 0.000000 0.000000 0.000000 -0.011496
#
#
# Mechanical properties :
#
#
# Convention : Reuss Voigt Hill
#
# Bulk Modulus (GPa) = 32.30518 69.98136 51.14327
# Shear Modulus (GPa) = 21.78564 15.56093 18.67329
#
# Velocity S-wave (km/s) = 2.91535 2.46390 2.69908
# Velocity P-wave (km/s) = 4.89241 5.94949 5.44665
#
# Compressibility (1/GPa) = 0.03095479
#
# Stress axis : x y z
#
# Youngs Moduli (GPa) = 326.27956 45.37743 86.25906
#
# Poissons Ratio (x) = 0.09192 0.09070
# Poissons Ratio (y) = 0.66092 -0.01785
# Poissons Ratio (z) = 0.34309 -0.00939
#
# Static dielectric constant tensor:
#      x y z
#    x 2.125940 0.000000 0.000000 
#    y 0.000000 1.922980 0.000000 
#    z 0.000000 0.000000 2.029120 
# 
# From -- ./inp_files/41294.got.cif
#   From: 2010.05.17/outbox.cif.g08.bks.cpg/sg74_21_cif.got.tgz:41294.got - 2010.06.03 17:57:02.
