data_PCOD9534530
_publ_section_title
;
Structure prediction by ZEFSAII (Michael W. Deem and Ramdas Pophale) SiO2 
 PCOD9534530
Probable space group: I M M A
;
_chemical_formula_sum "Si O2"
_cell_formula_units_Z 104
_cell_length_a 28.937554
_cell_length_b 9.200039
_cell_length_c 28.852167
_cell_angle_alpha 90.000000
_cell_angle_beta 90.000000
_cell_angle_gamma 90.000000
_cell_volume 7681.215055
_symmetry_space_group_name_H-M "I M M A"
_symmetry_group_IT_number 74
_symmetry_cell_setting 'orthorhombic'
loop_
_space_group_symop_operation_xyz
x,y,z
-x,1/2-y,z
x,-y,-z
-x,1/2+y,-z
-x,-y,-z
x,1/2+y,-z
-x,y,z
x,1/2-y,z
1/2+x,1/2+y,1/2+z
1/2-x,-y,1/2+z
1/2+x,1/2-y,1/2-z
1/2-x,y,1/2-z
1/2-x,1/2-y,1/2-z
1/2+x,y,1/2-z
1/2-x,1/2+y,1/2+z
1/2+x,-y,1/2+z
loop_
_atom_site_type_symbol
_atom_site_label
_atom_site_fract_x
_atom_site_fract_y
_atom_site_fract_z
Si Si1 0.288954 0.415872 0.209659
Si Si2 0.000000 0.079517 0.951780
Si Si3 0.219562 0.421501 0.852662
Si Si4 0.676300 0.075145 0.548976
Si Si5 0.142671 0.423277 0.775117
Si Si6 0.054636 0.416156 0.194882
Si Si7 0.914370 0.417457 0.088801
O O1 0.302352 0.250000 0.199970
O O2 0.250000 0.414226 0.250000
O O3 0.262881 0.489902 0.166803
O O4 0.330669 0.506257 0.231787
O O5 0.000000 0.250000 0.956543
O O6 0.955292 0.021151 0.926594
O O7 0.000000 0.000000 0.000000
O O8 0.227119 0.250000 0.844408
O O9 0.210727 0.442828 0.907242
O O10 0.174121 0.460589 0.821142
O O11 0.668561 0.250000 0.543004
O O12 0.689270 0.000000 0.500000
O O13 0.631077 0.991299 0.568026
O O14 0.142495 0.250000 0.771975
O O15 0.090551 0.482576 0.778171
O O16 0.055863 0.250000 0.212628
O O17 0.077727 0.412106 0.143827
O O18 0.000000 0.458815 0.192604
O O19 0.918415 0.250000 0.071861
#
# Coordination Sequence:
#
# PCOD9534530 Si02
#       7
#    16   8  16  16  16  16  16
#     4   9  17  28  45  68  88 108 135 167 212 261
#     4  12  24  36  48  58  72  94 130 178 226 272
#     4   9  18  31  46  64  87 110 138 176 217 259
#     4  11  22  35  47  64  85 112 145 179 221 264
#     4  10  18  30  47  66  87 110 138 174 217 260
#     4  10  20  33  47  63  84 110 142 179 221 264
#     4  11  21  35  49  61  78 103 137 179 225 266
#
# _framework density 13.539524999999999
#
# number of rings (size 3 to 8) (size 9 to 14) (size 15 to 20)
#    0.000    1.846    2.308    3.000    0.000    4.615 
#    0.000    0.000    0.000    0.000    0.000    0.000 
#    0.000    0.000    0.000    0.000    0.000    0.769 
#
# Total GULP energy -289621.352209 kJ/mol
# GULP energy per Si atom -5569.641389 kJ/mol
# Density = 1.350871 g / cm^3
# Si number density = 13.539525 Si / 1000 Ang^3
#
#
#
# Elastic Constant Matrix: (Units=GPa)
#
#
# Indices 1 2 3 4 5 6 
#
# 1 59.4359 51.5592 42.1238 0.0000 0.0000 0.0000
# 2 51.5592 104.3777 48.6575 0.0000 0.0000 0.0000
# 3 42.1238 48.6575 59.6429 0.0000 0.0000 0.0000
# 4 0.0000 0.0000 0.0000 20.4872 0.0000 0.0000
# 5 0.0000 0.0000 0.0000 0.0000 14.1278 0.0000
# 6 0.0000 0.0000 0.0000 0.0000 0.0000 24.0543
#
#
#
# Elastic Compliance Matrix: (Units=1/GPa)
#
#
# Indices 1 2 3 4 5 6 
#
# 1 0.039817 -0.010584 -0.019487 0.000000 0.000000 0.000000
# 2 -0.010584 0.018274 -0.007433 0.000000 0.000000 0.000000
# 3 -0.019487 -0.007433 0.036593 0.000000 0.000000 0.000000
# 4 0.000000 0.000000 0.000000 0.048811 0.000000 0.000000
# 5 0.000000 0.000000 0.000000 0.000000 0.070783 0.000000
# 6 0.000000 0.000000 0.000000 0.000000 0.000000 0.041573
#
#
# Mechanical properties :
#
#
# Convention : Reuss Voigt Hill
#
# Bulk Modulus (GPa) = 50.82197 56.45972 53.64085
# Shear Modulus (GPa) = 14.81848 17.14158 15.98003
#
# Velocity S-wave (km/s) = 3.31185 3.56201 3.43920
# Velocity P-wave (km/s) = 7.22786 7.66209 7.44814
#
# Compressibility (1/GPa) = 0.01967653
#
# Stress axis : x y z
#
# Youngs Moduli (GPa) = 25.11472 54.72330 27.32764
#
# Poissons Ratio (x) = 0.57921 0.53253
# Poissons Ratio (y) = 0.26582 0.20312
# Poissons Ratio (z) = 0.48941 0.40674
#
# Static dielectric constant tensor:
#      x y z
#    x 2.075260 0.000000 0.000000 
#    y 0.000000 1.455340 0.000000 
#    z 0.000000 0.000000 1.442630 
# 
# From -- ./inp_files/62654.got.cif
#   From: 2010.05.17/outbox.cif.g08.bks.cpg/sg74_32_cif.got.tgz:62654.got - 2010.06.03 17:57:02.
