data_PCOD9534553
_publ_section_title
;
Structure prediction by ZEFSAII (Michael W. Deem and Ramdas Pophale) SiO2 
 PCOD9534553
Probable space group: I M M A
;
_chemical_formula_sum "Si O2"
_cell_formula_units_Z 100
_cell_length_a 35.653047
_cell_length_b 7.983528
_cell_length_c 20.514663
_cell_angle_alpha 90.000000
_cell_angle_beta 90.000000
_cell_angle_gamma 90.000000
_cell_volume 5839.234163
_symmetry_space_group_name_H-M "I M M A"
_symmetry_group_IT_number 74
_symmetry_cell_setting 'orthorhombic'
loop_
_space_group_symop_operation_xyz
x,y,z
-x,1/2-y,z
x,-y,-z
-x,1/2+y,-z
-x,-y,-z
x,1/2+y,-z
-x,y,z
x,1/2-y,z
1/2+x,1/2+y,1/2+z
1/2-x,-y,1/2+z
1/2+x,1/2-y,1/2-z
1/2-x,y,1/2-z
1/2-x,1/2-y,1/2-z
1/2+x,y,1/2-z
1/2-x,1/2+y,1/2+z
1/2+x,-y,1/2+z
loop_
_atom_site_type_symbol
_atom_site_label
_atom_site_fract_x
_atom_site_fract_y
_atom_site_fract_z
Si Si1 0.643635 0.447609 0.209814
Si Si2 0.500000 0.750000 0.236210
Si Si3 0.045634 0.057960 0.571562
Si Si4 0.327732 0.949094 0.070929
Si Si5 0.714929 0.449957 0.708038
Si Si6 0.758637 0.951696 0.071001
Si Si7 0.940877 0.445017 0.288242
O O1 0.647482 0.250000 0.213844
O O2 0.649928 0.495945 0.134445
O O3 0.676379 0.521100 0.254474
O O4 0.601572 0.488388 0.231726
O O5 0.532176 0.597477 0.232908
O O6 0.057376 0.250000 0.582233
O O7 0.000000 0.055451 0.572575
O O8 0.057556 0.000000 0.500000
O O9 0.058278 0.949593 0.632556
O O10 0.326090 0.750000 0.072391
O O11 0.284621 0.013726 0.076063
O O12 0.342816 0.000000 0.000000
O O13 0.719992 0.250000 0.704448
O O14 0.750000 0.517728 0.750000
O O15 0.718518 0.512934 0.633866
O O16 0.757302 0.750000 0.072628
O O17 0.773432 0.000000 0.000000
O O18 0.949969 0.250000 0.268958
#
# Coordination Sequence:
#
# PCOD9534553 Si02
#       7
#    16   4  16  16  16  16  16
#     4  11  24  36  51  78 107 137 179 228 280 321
#     4  12  22  40  62  74  92 140 170 204 294 324
#     4  10  18  30  48  70  92 124 165 211 269 325
#     4  10  19  33  51  70 102 138 179 229 275 321
#     4  10  19  35  55  76 106 147 186 224 269 320
#     4   9  18  32  51  76 101 141 186 225 266 315
#     4  11  23  38  54  77 101 126 174 223 266 333
#
# _framework density 17.125533000000001
#
# number of rings (size 3 to 8) (size 9 to 14) (size 15 to 20)
#    0.000    1.760    3.200    1.680    2.240    2.880 
#    0.000    0.000    0.000    0.000    0.000    0.000 
#    0.000    0.000    0.000    0.720    4.800    1.760 
#
# Total GULP energy -278365.554085 kJ/mol
# GULP energy per Si atom -5567.311082 kJ/mol
# Density = 1.708655 g / cm^3
# Si number density = 17.125533 Si / 1000 Ang^3
#
#
#
# Elastic Constant Matrix: (Units=GPa)
#
#
# Indices 1 2 3 4 5 6 
#
# 1 76.3647 32.8255 42.0774 0.0000 0.0000 0.0000
# 2 32.8255 55.8086 21.6336 0.0000 0.0000 0.0000
# 3 42.0774 21.6336 80.5753 0.0000 0.0000 0.0000
# 4 0.0000 0.0000 0.0000 20.6579 0.0000 0.0000
# 5 0.0000 0.0000 0.0000 0.0000 -230.0432 0.0000
# 6 0.0000 0.0000 0.0000 0.0000 0.0000 50.1613
#
#
#
# Elastic Compliance Matrix: (Units=1/GPa)
#
#
# Indices 1 2 3 4 5 6 
#
# 1 0.022162 -0.009542 -0.009011 0.000000 0.000000 0.000000
# 2 -0.009542 0.024108 -0.001490 0.000000 0.000000 0.000000
# 3 -0.009011 -0.001490 0.017517 0.000000 0.000000 0.000000
# 4 0.000000 0.000000 0.000000 0.048408 0.000000 0.000000
# 5 0.000000 0.000000 0.000000 0.000000 -0.004347 0.000000
# 6 0.000000 0.000000 0.000000 0.000000 0.000000 0.019936
#
#
# Mechanical properties :
#
#
# Convention : Reuss Voigt Hill
#
# Bulk Modulus (GPa) = 42.19329 45.09129 43.64229
# Shear Modulus (GPa) = 28.44622 -24.09735 2.17443
#
# Velocity S-wave (km/s) = 4.08001 -3.75520 1.12803
# Velocity P-wave (km/s) = 6.84737 2.75408 5.21878
#
# Compressibility (1/GPa) = 0.02370045
#
# Stress axis : x y z
#
# Youngs Moduli (GPa) = 45.12212 41.47930 57.08868
#
# Poissons Ratio (x) = 0.39580 0.51445
# Poissons Ratio (y) = 0.43056 0.08505
# Poissons Ratio (z) = 0.40661 0.06180
#
# Static dielectric constant tensor:
#      x y z
#    x 1.625040 0.000000 0.000000 
#    y 0.000000 1.612450 0.000000 
#    z 0.000000 0.000000 1.567190 
# 
# From -- ./inp_files/55674.got.cif
#   From: 2010.05.17/outbox.cif.g08.bks.cpg/sg74_28_cif.got.tgz:55674.got - 2010.06.03 17:57:02.
