data_PCOD9534910
_publ_section_title
;
Structure prediction by ZEFSAII (Michael W. Deem and Ramdas Pophale) SiO2 
 PCOD9534910
Probable space group: I M M A
;
_chemical_formula_sum "Si O2"
_cell_formula_units_Z 96
_cell_length_a 18.882622
_cell_length_b 29.042749
_cell_length_c 10.051931
_cell_angle_alpha 90.000000
_cell_angle_beta 90.000000
_cell_angle_gamma 90.000000
_cell_volume 5512.511641
_symmetry_space_group_name_H-M "I M M A"
_symmetry_group_IT_number 74
_symmetry_cell_setting 'orthorhombic'
loop_
_space_group_symop_operation_xyz
x,y,z
-x,1/2-y,z
x,-y,-z
-x,1/2+y,-z
-x,-y,-z
x,1/2+y,-z
-x,y,z
x,1/2-y,z
1/2+x,1/2+y,1/2+z
1/2-x,-y,1/2+z
1/2+x,1/2-y,1/2-z
1/2-x,y,1/2-z
1/2-x,1/2-y,1/2-z
1/2+x,y,1/2-z
1/2-x,1/2+y,1/2+z
1/2+x,-y,1/2+z
loop_
_atom_site_type_symbol
_atom_site_label
_atom_site_fract_x
_atom_site_fract_y
_atom_site_fract_z
Si Si1 0.803464 0.996510 0.854865
Si Si2 0.582617 0.419899 0.407365
Si Si3 0.664795 0.849211 0.775759
Si Si4 0.191662 0.352761 0.570873
Si Si5 0.838602 0.898837 0.162722
Si Si6 0.257153 0.250000 0.909909
Si Si7 0.825785 0.750000 0.823467
O O1 0.750000 0.974339 0.750000
O O2 0.873005 0.966472 0.881502
O O3 0.821793 0.047788 0.805731
O O4 0.767628 0.000000 0.000000
O O5 0.500000 0.426033 0.385565
O O6 0.619232 0.383508 0.311133
O O7 0.599019 0.401743 0.556250
O O8 0.750000 0.852210 0.750000
O O9 0.641851 0.797666 0.729876
O O10 0.656783 0.862937 0.929931
O O11 0.151165 0.369982 0.702604
O O12 0.269322 0.376486 0.590309
O O13 0.203457 0.297938 0.564312
O O14 0.250000 0.250000 0.750000
O O15 0.191697 0.250000 0.017201
O O16 0.750000 0.750000 0.750000
#
# Coordination Sequence:
#
# PCOD9534910 Si02
#       7
#    16  16  16  16  16   8   8
#     4  10  21  35  58  83 111 147 189 243 287 340
#     4  11  24  39  56  81 115 157 197 236 289 350
#     4  11  19  35  60  85 117 149 193 242 286 341
#     4  11  19  32  55  90 114 146 184 237 289 336
#     4  10  20  34  54  83 114 144 189 236 286 342
#     4  12  18  26  50  89 132 142 174 234 301 345
#     4  10  18  32  53  89 123 150 181 241 301 335
#
# _framework density 17.414929999999998
#
# number of rings (size 3 to 8) (size 9 to 14) (size 15 to 20)
#    0.000    1.333    8.333    0.500    2.333    3.000 
#    0.000    1.250    0.000    3.500    0.000    1.167 
#    0.000    0.000    0.000    0.000    0.000    0.000 
#
# Total GULP energy -267385.669769 kJ/mol
# GULP energy per Si atom -5570.534787 kJ/mol
# Density = 1.737529 g / cm^3
# Si number density = 17.414930 Si / 1000 Ang^3
#
#
#
# Elastic Constant Matrix: (Units=GPa)
#
#
# Indices 1 2 3 4 5 6 
#
# 1 73.5554 28.9824 41.8647 0.0000 0.0000 0.0000
# 2 28.9824 116.5606 34.9920 0.0000 0.0000 0.0000
# 3 41.8647 34.9920 135.1927 0.0000 0.0000 0.0000
# 4 0.0000 0.0000 0.0000 26.0835 0.0000 0.0001
# 5 0.0000 0.0000 0.0000 0.0000 14.8030 0.0000
# 6 0.0000 0.0000 0.0000 0.0001 0.0000 -14.7279
#
#
#
# Elastic Compliance Matrix: (Units=1/GPa)
#
#
# Indices 1 2 3 4 5 6 
#
# 1 0.017383 -0.002934 -0.004623 0.000000 0.000000 0.000000
# 2 -0.002934 0.009797 -0.001627 0.000000 0.000000 0.000000
# 3 -0.004623 -0.001627 0.009250 0.000000 0.000000 0.000000
# 4 0.000000 0.000000 0.000000 0.038338 0.000000 0.000000
# 5 0.000000 0.000000 0.000000 0.000000 0.067554 0.000000
# 6 0.000000 0.000000 0.000000 0.000000 0.000000 -0.067898
#
#
# Mechanical properties :
#
#
# Convention : Reuss Voigt Hill
#
# Bulk Modulus (GPa) = 55.37045 59.66520 57.51782
# Shear Modulus (GPa) = 50.60037 19.86302 35.23169
#
# Velocity S-wave (km/s) = 5.39619 3.38090 4.50274
# Velocity P-wave (km/s) = 8.40767 7.04102 7.75451
#
# Compressibility (1/GPa) = 0.01806018
#
# Stress axis : x y z
#
# Youngs Moduli (GPa) = 57.52812 102.06885 108.11119
#
# Poissons Ratio (x) = 0.29949 0.49984
# Poissons Ratio (y) = 0.16880 0.17592
# Poissons Ratio (z) = 0.26598 0.16609
#
# Static dielectric constant tensor:
#      x y z
#    x 1.565170 0.000000 0.000000 
#    y 0.000000 1.649280 0.000000 
#    z 0.000000 0.000000 1.661560 
# 
# From -- ./inp_files/22718.got.cif
#   From: 2010.05.17/outbox.cif.g08.bks.cpg/sg74_12_cif.got.tgz:22718.got - 2010.06.03 17:57:02.
