data_PCOD9534246
_publ_section_title
;
Structure prediction by ZEFSAII (Michael W. Deem and Ramdas Pophale) SiO2 
 PCOD9534246
Probable space group: I M M A
;
_chemical_formula_sum "Si O2"
_cell_formula_units_Z 104
_cell_length_a 9.058029
_cell_length_b 23.701781
_cell_length_c 37.770293
_cell_angle_alpha 90.000000
_cell_angle_beta 90.000000
_cell_angle_gamma 90.000000
_cell_volume 8108.957825
_symmetry_space_group_name_H-M "I M M A"
_symmetry_group_IT_number 74
_symmetry_cell_setting 'orthorhombic'
loop_
_space_group_symop_operation_xyz
x,y,z
-x,1/2-y,z
x,-y,-z
-x,1/2+y,-z
-x,-y,-z
x,1/2+y,-z
-x,y,z
x,1/2-y,z
1/2+x,1/2+y,1/2+z
1/2-x,-y,1/2+z
1/2+x,1/2-y,1/2-z
1/2-x,y,1/2-z
1/2-x,1/2-y,1/2-z
1/2+x,y,1/2-z
1/2-x,1/2+y,1/2+z
1/2+x,-y,1/2+z
loop_
_atom_site_type_symbol
_atom_site_label
_atom_site_fract_x
_atom_site_fract_y
_atom_site_fract_z
Si Si1 0.677739 0.686849 0.905459
Si Si2 0.175907 0.421774 0.358991
Si Si3 0.829559 0.621879 0.965736
Si Si4 0.170107 0.009170 0.083580
Si Si5 0.321358 0.750000 0.710628
Si Si6 0.822446 0.135046 0.288387
Si Si7 0.829772 0.443593 0.524703
O O1 0.500000 0.686643 0.907325
O O2 0.726080 0.750000 0.895348
O O3 0.719461 0.637236 0.878199
O O4 0.743406 0.668682 0.943295
O O5 0.257231 0.471532 0.379680
O O6 0.203950 0.413353 0.317399
O O7 0.000000 0.428264 0.364092
O O8 0.755578 0.603881 0.002548
O O9 0.000000 0.637229 0.970405
O O10 0.824215 0.565338 0.941242
O O11 0.000000 0.993740 0.088134
O O12 0.255621 0.961687 0.061490
O O13 0.500000 0.750000 0.711070
O O14 0.250000 0.750000 0.750000
O O15 0.253639 0.691971 0.696266
O O16 0.750000 0.124115 0.250000
O O17 0.000000 0.143842 0.284923
O O18 0.825569 0.500000 0.500000
O O19 0.000000 0.428343 0.529497
#
# Coordination Sequence:
#
# PCOD9534246 Si02
#       7
#    16  16  16  16   8  16  16
#     4   9  17  28  40  51  65  88 116 142 170 207
#     4   9  18  29  41  53  67  88 112 138 171 213
#     4   9  16  25  36  51  70  88 108 134 165 198
#     4   9  16  25  37  53  72  88 104 131 166 201
#     4  10  18  28  40  52  64  78 100 132 168 206
#     4  10  19  30  43  54  67  84 108 139 174 212
#     4   9  15  23  37  53  69  88 110 131 155 193
#
# _framework density 12.825322
#
# number of rings (size 3 to 8) (size 9 to 14) (size 15 to 20)
#    0.000    2.769    0.000    3.462    1.077    7.077 
#    0.000    0.000    0.000    0.000    0.000    0.000 
#    0.000    0.000    0.000    0.000    0.000    0.000 
#
# Total GULP energy -289484.108460 kJ/mol
# GULP energy per Si atom -5567.002086 kJ/mol
# Density = 1.279613 g / cm^3
# Si number density = 12.825322 Si / 1000 Ang^3
#
#
#
# Elastic Constant Matrix: (Units=GPa)
#
#
# Indices 1 2 3 4 5 6 
#
# 1 52.9751 7.2418 37.0282 0.0000 0.0000 0.0000
# 2 7.2418 9.4945 18.6294 0.0000 0.0000 0.0000
# 3 37.0282 18.6294 76.0995 0.0000 0.0000 0.0000
# 4 0.0000 0.0000 0.0000 21.4087 0.0000 0.0000
# 5 0.0000 0.0000 0.0000 0.0000 16.0933 0.0000
# 6 0.0000 0.0000 0.0000 0.0000 0.0000 11.3748
#
#
#
# Elastic Compliance Matrix: (Units=1/GPa)
#
#
# Indices 1 2 3 4 5 6 
#
# 1 0.029168 0.010776 -0.016830 0.000000 0.000000 0.000000
# 2 0.010776 0.206657 -0.055834 0.000000 0.000000 0.000000
# 3 -0.016830 -0.055834 0.034998 0.000000 0.000000 0.000000
# 4 0.000000 0.000000 0.000000 0.046710 0.000000 0.000000
# 5 0.000000 0.000000 0.000000 0.000000 0.062138 0.000000
# 6 0.000000 0.000000 0.000000 0.000000 0.000000 0.087913
#
#
# Mechanical properties :
#
#
# Convention : Reuss Voigt Hill
#
# Bulk Modulus (GPa) = 6.80056 29.37422 18.08739
# Shear Modulus (GPa) = 7.80791 14.82000 11.31396
#
# Velocity S-wave (km/s) = 2.47004 3.40299 2.97334
# Velocity P-wave (km/s) = 3.66726 6.19625 5.09128
#
# Compressibility (1/GPa) = 0.14704675
#
# Stress axis : x y z
#
# Youngs Moduli (GPa) = 34.28461 4.83893 28.57292
#
# Poissons Ratio (x) = -0.05214 0.48089
# Poissons Ratio (y) = -0.36944 1.59533
# Poissons Ratio (z) = 0.57702 0.27018
#
# Static dielectric constant tensor:
#      x y z
#    x 1.428590 0.000000 0.000000 
#    y 0.000000 1.401320 0.000000 
#    z 0.000000 0.000000 1.432150 
# 
# From -- ./inp_files/71004.got.cif
#   From: 2010.05.17/outbox.cif.g08.bks.cpg/sg74_36_cif.got.tgz:71004.got - 2010.06.03 17:57:02.
