data_PCOD9534738
_publ_section_title
;
Structure prediction by ZEFSAII (Michael W. Deem and Ramdas Pophale) SiO2 
 PCOD9534738
Probable space group: I M M A
;
_chemical_formula_sum "Si O2"
_cell_formula_units_Z 104
_cell_length_a 28.402860
_cell_length_b 7.431389
_cell_length_c 22.364315
_cell_angle_alpha 90.000000
_cell_angle_beta 90.000000
_cell_angle_gamma 90.000000
_cell_volume 4720.496381
_symmetry_space_group_name_H-M "I M M A"
_symmetry_group_IT_number 74
_symmetry_cell_setting 'orthorhombic'
loop_
_space_group_symop_operation_xyz
x,y,z
-x,1/2-y,z
x,-y,-z
-x,1/2+y,-z
-x,-y,-z
x,1/2+y,-z
-x,y,z
x,1/2-y,z
1/2+x,1/2+y,1/2+z
1/2-x,-y,1/2+z
1/2+x,1/2-y,1/2-z
1/2-x,y,1/2-z
1/2-x,1/2-y,1/2-z
1/2+x,y,1/2-z
1/2-x,1/2+y,1/2+z
1/2+x,-y,1/2+z
loop_
_atom_site_type_symbol
_atom_site_label
_atom_site_fract_x
_atom_site_fract_y
_atom_site_fract_z
Si Si1 0.052277 0.959265 0.899954
Si Si2 0.406248 0.546607 0.862941
Si Si3 0.204507 0.030642 0.178946
Si Si4 0.500000 0.465806 0.071020
Si Si5 0.350831 0.034787 0.435979
Si Si6 0.813035 0.969735 0.688481
Si Si7 0.555823 0.962291 0.263808
O O1 0.048317 0.750000 0.916363
O O2 0.096043 0.040575 0.934751
O O3 0.000000 0.039716 0.906595
O O4 0.066590 0.967592 0.829901
O O5 0.401036 0.750000 0.886657
O O6 0.451294 0.465780 0.898148
O O7 0.353788 0.465137 0.856593
O O8 0.420535 0.551432 0.793065
O O9 0.204192 0.250000 0.180054
O O10 0.177142 0.966084 0.121040
O O11 0.181327 0.974397 0.241911
O O12 0.259309 0.978216 0.174864
O O13 0.500000 0.250000 0.081592
O O14 0.500000 0.500000 0.000000
O O15 0.353966 0.250000 0.428667
O O16 0.328329 0.000000 0.500000
O O17 0.815207 0.750000 0.686999
O O18 0.500000 0.989165 0.256332
O O19 0.565634 0.750000 0.262055
#
# Coordination Sequence:
#
# PCOD9534738 Si02
#       7
#    16  16  16   8  16  16  16
#     4   9  18  32  49  69  95 128 167 207 241 279
#     4  10  18  31  51  74  96 126 167 204 242 295
#     4   8  14  27  47  74 100 122 153 199 250 292
#     4  10  22  36  50  68  96 134 171 206 247 294
#     4  10  20  33  49  69  96 132 169 203 243 289
#     4   8  14  26  50  77  97 117 153 205 250 291
#     4  10  19  29  45  73 104 130 154 191 245 295
#
# _framework density 22.031580999999999
#
# number of rings (size 3 to 8) (size 9 to 14) (size 15 to 20)
#    0.000    2.769    0.769    2.308    0.000    4.615 
#    0.000    0.769    0.000    0.923    0.000    3.231 
#    0.000    0.000    0.000    0.000    0.000    0.000 
#
# Total GULP energy -290067.343043 kJ/mol
# GULP energy per Si atom -5578.218135 kJ/mol
# Density = 2.198144 g / cm^3
# Si number density = 22.031581 Si / 1000 Ang^3
#
#
#
# Elastic Constant Matrix: (Units=GPa)
#
#
# Indices 1 2 3 4 5 6 
#
# 1 138.2104 0.6680 82.1086 0.0000 0.0000 0.0000
# 2 0.6680 58.2558 -10.1555 0.0000 0.0000 0.0000
# 3 82.1086 -10.1555 99.1373 0.0000 0.0000 0.0000
# 4 0.0000 0.0000 0.0000 5.5122 0.0000 0.0000
# 5 0.0000 0.0000 0.0000 0.0000 20.5275 0.0000
# 6 0.0000 0.0000 0.0000 0.0000 0.0000 -11.4480
#
#
#
# Elastic Compliance Matrix: (Units=1/GPa)
#
#
# Indices 1 2 3 4 5 6 
#
# 1 0.014542 -0.002308 -0.012281 0.000000 0.000000 0.000000
# 2 -0.002308 0.017844 0.003739 0.000000 0.000000 0.000000
# 3 -0.012281 0.003739 0.020641 0.000000 0.000000 0.000000
# 4 0.000000 0.000000 0.000000 0.181415 0.000000 0.000000
# 5 0.000000 0.000000 0.000000 0.000000 0.048715 0.000000
# 6 0.000000 0.000000 0.000000 0.000000 0.000000 -0.087352
#
#
# Mechanical properties :
#
#
# Convention : Reuss Voigt Hill
#
# Bulk Modulus (GPa) = 31.91914 48.98286 40.45100
# Shear Modulus (GPa) = 21.93484 17.78383 19.85933
#
# Velocity S-wave (km/s) = 3.15875 2.84420 3.00559
# Velocity P-wave (km/s) = 5.27475 5.75042 5.51771
#
# Compressibility (1/GPa) = 0.03132916
#
# Stress axis : x y z
#
# Youngs Moduli (GPa) = 68.76469 56.04135 48.44627
#
# Poissons Ratio (x) = 0.12932 0.59496
# Poissons Ratio (y) = 0.15868 -0.18115
# Poissons Ratio (z) = 0.84449 -0.20955
#
# Static dielectric constant tensor:
#      x y z
#    x 1.859660 0.000000 0.000000 
#    y 0.000000 1.844860 0.000000 
#    z 0.000000 0.000000 1.767900 
# 
# From -- ./inp_files/55672.got.cif
#   From: 2010.05.17/outbox.cif.g08.bks.cpg/sg74_28_cif.got.tgz:55672.got - 2010.06.03 17:57:02.
