data_PCOD9534841
_publ_section_title
;
Structure prediction by ZEFSAII (Michael W. Deem and Ramdas Pophale) SiO2 
 PCOD9534841
Probable space group: I M M A
;
_chemical_formula_sum "Si O2"
_cell_formula_units_Z 88
_cell_length_a 9.584778
_cell_length_b 20.772461
_cell_length_c 25.852818
_cell_angle_alpha 90.000000
_cell_angle_beta 90.000000
_cell_angle_gamma 90.000000
_cell_volume 5147.281255
_symmetry_space_group_name_H-M "I M M A"
_symmetry_group_IT_number 74
_symmetry_cell_setting 'orthorhombic'
loop_
_space_group_symop_operation_xyz
x,y,z
-x,1/2-y,z
x,-y,-z
-x,1/2+y,-z
-x,-y,-z
x,1/2+y,-z
-x,y,z
x,1/2-y,z
1/2+x,1/2+y,1/2+z
1/2-x,-y,1/2+z
1/2+x,1/2-y,1/2-z
1/2-x,y,1/2-z
1/2-x,1/2-y,1/2-z
1/2+x,y,1/2-z
1/2-x,1/2+y,1/2+z
1/2+x,-y,1/2+z
loop_
_atom_site_type_symbol
_atom_site_label
_atom_site_fract_x
_atom_site_fract_y
_atom_site_fract_z
Si Si1 0.336436 0.543348 0.610999
Si Si2 0.832406 0.178935 0.076658
Si Si3 0.764143 0.000000 0.500000
Si Si4 0.332573 0.442957 0.696951
Si Si5 0.337560 0.824983 0.376418
Si Si6 0.158429 0.142887 0.523060
O O1 0.500000 0.546610 0.621351
O O2 0.284624 0.617078 0.609783
O O3 0.317955 0.515639 0.552983
O O4 0.280400 0.495305 0.654524
O O5 0.807823 0.250000 0.099094
O O6 0.000000 0.172741 0.067615
O O7 0.750995 0.173053 0.022676
O O8 0.843231 0.066046 0.512624
O O9 0.500000 0.450302 0.704928
O O10 0.250000 0.449402 0.750000
O O11 0.310912 0.373236 0.670750
O O12 0.500000 0.835283 0.392644
O O13 0.321403 0.750000 0.362947
O O14 0.236407 0.842517 0.423533
O O15 0.000000 0.166823 0.522992
#
# Coordination Sequence:
#
# PCOD9534841 Si02
#       6
#    16  16   8  16  16  16
#     4   9  17  31  55  80 102 132 174 215 256 305
#     4   9  18  32  51  76 105 138 173 209 252 305
#     4  10  18  32  50  76 107 138 173 212 261 306
#     4  10  21  38  56  78 102 134 175 219 262 306
#     4  10  21  37  55  74 100 136 178 220 259 302
#     4  11  21  31  47  75 111 143 172 210 258 310
#
# _framework density 17.096404
#
# number of rings (size 3 to 8) (size 9 to 14) (size 15 to 20)
#    0.000    2.182    1.818    1.636    0.000    5.455 
#    0.000    0.909    0.000    0.545    0.000    0.000 
#    0.000    0.000    0.000    0.000    0.000    0.000 
#
# Total GULP energy -245149.868857 kJ/mol
# GULP energy per Si atom -5571.587929 kJ/mol
# Density = 1.705749 g / cm^3
# Si number density = 17.096404 Si / 1000 Ang^3
#
#
#
# Elastic Constant Matrix: (Units=GPa)
#
#
# Indices 1 2 3 4 5 6 
#
# 1 36.6270 35.4071 37.0315 0.0000 0.0000 0.0000
# 2 35.4071 142.0223 62.8970 0.0000 0.0000 0.0000
# 3 37.0315 62.8970 113.2791 0.0000 0.0000 0.0000
# 4 0.0000 0.0000 0.0000 12.7475 0.0000 0.0000
# 5 0.0000 0.0000 0.0000 0.0000 9.7983 0.0000
# 6 0.0000 0.0000 0.0000 0.0000 0.0000 -10.1141
#
#
#
# Elastic Compliance Matrix: (Units=1/GPa)
#
#
# Indices 1 2 3 4 5 6 
#
# 1 0.044517 -0.006171 -0.011127 0.000000 0.000000 0.000000
# 2 -0.006171 0.010192 -0.003642 0.000000 0.000000 0.000000
# 3 -0.011127 -0.003642 0.014487 0.000000 0.000000 0.000000
# 4 0.000000 0.000000 0.000000 0.078447 0.000000 0.000000
# 5 0.000000 0.000000 0.000000 0.000000 0.102059 0.000000
# 6 0.000000 0.000000 0.000000 0.000000 0.000000 -0.098872
#
#
# Mechanical properties :
#
#
# Convention : Reuss Voigt Hill
#
# Bulk Modulus (GPa) = 36.60592 62.51107 49.55849
# Shear Modulus (GPa) = 24.77524 12.92587 18.85055
#
# Velocity S-wave (km/s) = 3.81090 2.75263 3.32415
# Velocity P-wave (km/s) = 6.38920 6.83710 6.61694
#
# Compressibility (1/GPa) = 0.02731799
#
# Stress axis : x y z
#
# Youngs Moduli (GPa) = 22.46340 98.11138 69.02621
#
# Poissons Ratio (x) = 0.60543 0.76802
# Poissons Ratio (y) = 0.13862 0.25139
# Poissons Ratio (z) = 0.24994 0.35732
#
# Static dielectric constant tensor:
#      x y z
#    x 1.574670 0.000000 0.000000 
#    y 0.000000 1.639530 0.000000 
#    z 0.000000 0.000000 1.538410 
# 
# From -- ./inp_files/56988.got.cif
#   From: 2010.05.17/outbox.cif.g08.bks.cpg/sg74_29_cif.got.tgz:56988.got - 2010.06.03 17:57:02.
