data_PCOD9534502
_publ_section_title
;
Structure prediction by ZEFSAII (Michael W. Deem and Ramdas Pophale) SiO2 
 PCOD9534502
Probable space group: I M M A
;
_chemical_formula_sum "Si O2"
_cell_formula_units_Z 80
_cell_length_a 7.814270
_cell_length_b 26.676835
_cell_length_c 29.165721
_cell_angle_alpha 90.000000
_cell_angle_beta 90.000000
_cell_angle_gamma 90.000000
_cell_volume 6079.885950
_symmetry_space_group_name_H-M "I M M A"
_symmetry_group_IT_number 74
_symmetry_cell_setting 'orthorhombic'
loop_
_space_group_symop_operation_xyz
x,y,z
-x,1/2-y,z
x,-y,-z
-x,1/2+y,-z
-x,-y,-z
x,1/2+y,-z
-x,y,z
x,1/2-y,z
1/2+x,1/2+y,1/2+z
1/2-x,-y,1/2+z
1/2+x,1/2-y,1/2-z
1/2-x,y,1/2-z
1/2-x,1/2-y,1/2-z
1/2+x,y,1/2-z
1/2-x,1/2+y,1/2+z
1/2+x,-y,1/2+z
loop_
_atom_site_type_symbol
_atom_site_label
_atom_site_fract_x
_atom_site_fract_y
_atom_site_fract_z
Si Si1 0.500000 0.581844 0.515510
Si Si2 0.796580 0.250000 0.947052
Si Si3 0.205236 0.643696 0.302057
Si Si4 0.500000 0.011843 0.575646
Si Si5 0.806986 0.640638 0.476752
Si Si6 0.701342 0.073741 0.885082
Si Si7 0.292700 0.750000 0.160408
O O1 0.500000 0.545379 0.559068
O O2 0.500000 0.545473 0.470819
O O3 0.666832 0.616273 0.509806
O O4 0.722610 0.300642 0.968721
O O5 0.755840 0.250000 0.892887
O O6 0.000000 0.250000 0.952916
O O7 0.250000 0.631590 0.250000
O O8 0.260306 0.602796 0.339424
O O9 0.270769 0.699096 0.315669
O O10 0.000000 0.645621 0.306160
O O11 0.670007 0.028946 0.602659
O O12 0.787435 0.613546 0.427096
O O13 0.000000 0.631027 0.492523
O O14 0.500000 0.059479 0.881310
O O15 0.500000 0.750000 0.162802
#
# Coordination Sequence:
#
# PCOD9534502 Si02
#       7
#     8   8  16   8  16  16   8
#     4   9  18  31  42  68  78  97 134 169 216 264
#     4  12  20  27  43  63  82 110 145 175 202 263
#     4  10  20  30  41  56  79 104 140 183 221 267
#     4   9  18  30  48  58  84  98 124 178 218 265
#     4  10  18  30  45  59  84 108 133 169 210 248
#     4   9  18  30  44  61  76 105 138 168 217 267
#     4  10  19  31  41  54  76 107 143 178 223 264
#
# _framework density 13.158141000000001
#
# number of rings (size 3 to 8) (size 9 to 14) (size 15 to 20)
#    0.000    2.200    3.000    1.200    1.400    1.600 
#    0.000    4.000    0.000    0.000    0.000    0.000 
#    0.000    0.000    0.000    0.000    0.000    0.000 
#
# Total GULP energy -223028.034789 kJ/mol
# GULP energy per Si atom -5575.700870 kJ/mol
# Density = 1.312819 g / cm^3
# Si number density = 13.158141 Si / 1000 Ang^3
#
#
#
# Elastic Constant Matrix: (Units=GPa)
#
#
# Indices 1 2 3 4 5 6 
#
# 1 77.3795 43.7220 34.4942 0.0000 0.0000 0.0000
# 2 43.7220 74.5586 48.7269 0.0000 0.0000 0.0000
# 3 34.4942 48.7269 57.2758 0.0000 0.0000 0.0000
# 4 0.0000 0.0000 0.0000 9.2161 0.0000 0.0000
# 5 0.0000 0.0000 0.0000 0.0000 15.0509 0.0000
# 6 0.0000 0.0000 0.0000 0.0000 0.0000 11.3486
#
#
#
# Elastic Compliance Matrix: (Units=1/GPa)
#
#
# Indices 1 2 3 4 5 6 
#
# 1 0.019856 -0.008623 -0.004622 0.000000 0.000000 0.000000
# 2 -0.008623 0.033952 -0.023691 0.000000 0.000000 0.000000
# 3 -0.004622 -0.023691 0.040398 0.000000 0.000000 0.000000
# 4 0.000000 0.000000 0.000000 0.108506 0.000000 0.000000
# 5 0.000000 0.000000 0.000000 0.000000 0.066441 0.000000
# 6 0.000000 0.000000 0.000000 0.000000 0.000000 0.088117
#
#
# Mechanical properties :
#
#
# Convention : Reuss Voigt Hill
#
# Bulk Modulus (GPa) = 49.18039 51.45554 50.31797
# Shear Modulus (GPa) = 11.41758 12.60784 12.01271
#
# Velocity S-wave (km/s) = 2.94890 3.09880 3.02478
# Velocity P-wave (km/s) = 7.00373 7.21067 7.10796
#
# Compressibility (1/GPa) = 0.02033331
#
# Stress axis : x y z
#
# Youngs Moduli (GPa) = 50.36224 29.45336 24.75353
#
# Poissons Ratio (x) = 0.25398 0.11442
# Poissons Ratio (y) = 0.43427 0.58644
# Poissons Ratio (z) = 0.23279 0.69779
#
# Static dielectric constant tensor:
#      x y z
#    x 1.465970 0.000000 0.000000 
#    y 0.000000 1.418250 0.000000 
#    z 0.000000 0.000000 1.404640 
# 
# From -- ./inp_files/61374.got.cif
#   From: 2010.05.17/outbox.cif.g08.bks.cpg/sg74_31_cif.got.tgz:61374.got - 2010.06.03 17:57:02.
