data_PCOD9534439
_publ_section_title
;
Structure prediction by ZEFSAII (Michael W. Deem and Ramdas Pophale) SiO2 
 PCOD9534439
Probable space group: I M M A
;
_chemical_formula_sum "Si O2"
_cell_formula_units_Z 96
_cell_length_a 21.513270
_cell_length_b 13.783026
_cell_length_c 17.470148
_cell_angle_alpha 90.000000
_cell_angle_beta 90.000000
_cell_angle_gamma 90.000000
_cell_volume 5180.212642
_symmetry_space_group_name_H-M "I M M A"
_symmetry_group_IT_number 74
_symmetry_cell_setting 'orthorhombic'
loop_
_space_group_symop_operation_xyz
x,y,z
-x,1/2-y,z
x,-y,-z
-x,1/2+y,-z
-x,-y,-z
x,1/2+y,-z
-x,y,z
x,1/2-y,z
1/2+x,1/2+y,1/2+z
1/2-x,-y,1/2+z
1/2+x,1/2-y,1/2-z
1/2-x,y,1/2-z
1/2-x,1/2-y,1/2-z
1/2+x,y,1/2-z
1/2-x,1/2+y,1/2+z
1/2+x,-y,1/2+z
loop_
_atom_site_type_symbol
_atom_site_label
_atom_site_fract_x
_atom_site_fract_y
_atom_site_fract_z
Si Si1 0.281943 0.005334 0.821423
Si Si2 0.203734 0.134802 0.935996
Si Si3 0.932242 0.867448 0.101714
Si Si4 0.067249 0.632973 0.441031
Si Si5 0.317000 0.364254 0.049034
Si Si6 0.894043 0.633281 0.273097
O O1 0.250000 0.952736 0.750000
O O2 0.233661 0.066481 0.872069
O O3 0.327954 0.083654 0.784511
O O4 0.316895 0.930826 0.876658
O O5 0.206777 0.250000 0.914420
O O6 0.131113 0.107660 0.943287
O O7 0.249818 0.123806 0.008046
O O8 0.934610 0.750000 0.099926
O O9 0.922859 0.894806 0.191394
O O10 0.000000 0.903300 0.075146
O O11 0.068211 0.750000 0.440812
O O12 0.128201 0.606884 0.489788
O O13 0.071444 0.604619 0.351762
O O14 0.000000 0.603112 0.472844
O O15 0.324791 0.250000 0.066166
O O16 0.889006 0.750000 0.272605
#
# Coordination Sequence:
#
# PCOD9534439 Si02
#       6
#    16  16  16  16  16  16
#     4  12  22  33  53  77 104 139 180 217 259 306
#     4  10  19  33  55  80 107 136 167 212 265 313
#     4   9  17  29  48  78 113 141 165 200 257 324
#     4   9  17  31  52  76 105 140 173 209 255 307
#     4  10  22  38  54  74 103 138 182 225 258 299
#     4  10  18  29  48  79 114 141 164 200 255 320
#
# _framework density 18.532057999999999
#
# number of rings (size 3 to 8) (size 9 to 14) (size 15 to 20)
#    0.000    2.000    3.333    1.500    0.000    3.000 
#    0.000    2.500    0.000    2.000    0.000    0.000 
#    0.000    0.000    0.000    0.000    0.000    0.000 
#
# Total GULP energy -267525.517157 kJ/mol
# GULP energy per Si atom -5573.448274 kJ/mol
# Density = 1.848988 g / cm^3
# Si number density = 18.532058 Si / 1000 Ang^3
#
#
#
# Elastic Constant Matrix: (Units=GPa)
#
#
# Indices 1 2 3 4 5 6 
#
# 1 118.8129 1.5381 5.7973 0.0000 0.0000 0.0000
# 2 1.5381 44.6420 9.5326 0.0000 0.0000 0.0000
# 3 5.7973 9.5326 43.4688 0.0000 0.0000 0.0000
# 4 0.0000 0.0000 0.0000 20.7676 0.0000 0.0000
# 5 0.0000 0.0000 0.0000 0.0000 2.9416 0.0000
# 6 0.0000 0.0000 0.0000 0.0000 0.0000 -13.5921
#
#
#
# Elastic Compliance Matrix: (Units=1/GPa)
#
#
# Indices 1 2 3 4 5 6 
#
# 1 0.008472 -0.000053 -0.001118 0.000000 0.000000 0.000000
# 2 -0.000053 0.023501 -0.005147 0.000000 0.000000 0.000000
# 3 -0.001118 -0.005147 0.024283 0.000000 0.000000 0.000000
# 4 0.000000 0.000000 0.000000 0.048152 0.000000 0.000000
# 5 0.000000 0.000000 0.000000 0.000000 0.339957 0.000000
# 6 0.000000 0.000000 0.000000 0.000000 0.000000 -0.073572
#
#
# Mechanical properties :
#
#
# Convention : Reuss Voigt Hill
#
# Bulk Modulus (GPa) = 22.92533 26.73998 24.83266
# Shear Modulus (GPa) = 12.56381 14.69378 13.62880
#
# Velocity S-wave (km/s) = 2.60657 2.81888 2.71480
# Velocity P-wave (km/s) = 4.63211 5.00551 4.82242
#
# Compressibility (1/GPa) = 0.04361987
#
# Stress axis : x y z
#
# Youngs Moduli (GPa) = 118.03808 42.55095 41.18140
#
# Poissons Ratio (x) = 0.00226 0.04605
# Poissons Ratio (y) = 0.00627 0.21195
# Poissons Ratio (z) = 0.13199 0.21900
#
# Static dielectric constant tensor:
#      x y z
#    x 1.705520 0.000000 0.000000 
#    y 0.000000 1.626190 0.000000 
#    z 0.000000 0.000000 1.644670 
# 
# From -- ./inp_files/35303.got.cif
#   From: 2010.05.17/outbox.cif.g08.bks.cpg/sg74_18_cif.got.tgz:35303.got - 2010.06.03 17:57:02.
