data_PCOD9534797
_publ_section_title
;
Structure prediction by ZEFSAII (Michael W. Deem and Ramdas Pophale) SiO2 
 PCOD9534797
Probable space group: I M M A
;
_chemical_formula_sum "Si O2"
_cell_formula_units_Z 100
_cell_length_a 7.632729
_cell_length_b 19.190541
_cell_length_c 34.081969
_cell_angle_alpha 90.000000
_cell_angle_beta 90.000000
_cell_angle_gamma 90.000000
_cell_volume 4992.197267
_symmetry_space_group_name_H-M "I M M A"
_symmetry_group_IT_number 74
_symmetry_cell_setting 'orthorhombic'
loop_
_space_group_symop_operation_xyz
x,y,z
-x,1/2-y,z
x,-y,-z
-x,1/2+y,-z
-x,-y,-z
x,1/2+y,-z
-x,y,z
x,1/2-y,z
1/2+x,1/2+y,1/2+z
1/2-x,-y,1/2+z
1/2+x,1/2-y,1/2-z
1/2-x,y,1/2-z
1/2-x,1/2-y,1/2-z
1/2+x,y,1/2-z
1/2-x,1/2+y,1/2+z
1/2+x,-y,1/2+z
loop_
_atom_site_type_symbol
_atom_site_label
_atom_site_fract_x
_atom_site_fract_y
_atom_site_fract_z
Si Si1 0.208286 0.553215 0.376965
Si Si2 0.791716 0.523963 0.292516
Si Si3 0.202806 0.635338 0.692739
Si Si4 0.000000 0.750000 0.789102
Si Si5 0.287903 0.332037 0.473833
Si Si6 0.703215 0.102636 0.393790
Si Si7 0.288910 0.329555 0.560517
O O1 0.272454 0.561692 0.331973
O O2 0.288062 0.480935 0.392285
O O3 0.242692 0.617632 0.405195
O O4 0.000000 0.541787 0.376124
O O5 0.750000 0.553843 0.250000
O O6 0.738176 0.442710 0.295014
O O7 0.000000 0.522289 0.295015
O O8 0.344039 0.689774 0.707761
O O9 0.206508 0.632817 0.645082
O O10 0.000000 0.649019 0.704966
O O11 0.500000 0.340204 0.473903
O O12 0.250669 0.250000 0.470030
O O13 0.223166 0.371156 0.435241
O O14 0.226259 0.353749 0.517250
O O15 0.500000 0.125031 0.390867
O O16 0.500000 0.326865 0.558553
O O17 0.227465 0.250000 0.567064
#
# Coordination Sequence:
#
# PCOD9534797 Si02
#       7
#    16  16  16   4  16  16  16
#     4  10  21  36  53  80 111 142 178 224 276 333
#     4   9  20  37  60  81 107 138 177 232 278 332
#     4  10  22  37  53  82 113 144 195 247 283 336
#     4  12  22  36  58  78 106 166 196 222 308 336
#     4   8  16  29  49  76 107 143 190 235 274 326
#     4  10  18  31  54  79 106 147 194 235 286 328
#     4   9  18  35  56  80 108 141 180 226 274 333
#
# _framework density 20.031258999999999
#
# number of rings (size 3 to 8) (size 9 to 14) (size 15 to 20)
#    0.000    2.560    0.800    3.120    2.240    2.240 
#    0.000    5.200    0.000    2.400    0.000    0.000 
#    0.000    0.000    0.000    0.000    0.000    0.000 
#
# Total GULP energy -278491.980215 kJ/mol
# GULP energy per Si atom -5569.839604 kJ/mol
# Density = 1.998567 g / cm^3
# Si number density = 20.031259 Si / 1000 Ang^3
#
#
#
# Elastic Constant Matrix: (Units=GPa)
#
#
# Indices 1 2 3 4 5 6 
#
# 1 70.6580 12.0508 10.2007 0.0000 0.0000 0.0000
# 2 12.0508 41.0115 63.6715 0.0000 0.0000 0.0000
# 3 10.2007 63.6715 193.0371 0.0000 0.0000 0.0000
# 4 0.0000 0.0000 0.0000 -187.0905 0.0000 0.0000
# 5 0.0000 0.0000 0.0000 0.0000 21.2332 0.0000
# 6 0.0000 0.0000 0.0000 0.0000 0.0000 -31.6980
#
#
#
# Elastic Compliance Matrix: (Units=1/GPa)
#
#
# Indices 1 2 3 4 5 6 
#
# 1 0.015072 -0.006543 0.001362 0.000000 0.000000 0.000000
# 2 -0.006543 0.052815 -0.017075 0.000000 0.000000 0.000000
# 3 0.001362 -0.017075 0.010740 0.000000 0.000000 0.000000
# 4 0.000000 0.000000 0.000000 -0.005345 0.000000 0.000000
# 5 0.000000 0.000000 0.000000 0.000000 0.047096 0.000000
# 6 0.000000 0.000000 0.000000 0.000000 0.000000 -0.031548
#
#
# Mechanical properties :
#
#
# Convention : Reuss Voigt Hill
#
# Bulk Modulus (GPa) = 29.31212 52.95030 41.13121
# Shear Modulus (GPa) = 34.55091 -24.92549 4.81271
#
# Velocity S-wave (km/s) = 4.15764 -3.53133 1.55171
# Velocity P-wave (km/s) = 6.14108 3.14072 4.87735
#
# Compressibility (1/GPa) = 0.03411558
#
# Stress axis : x y z
#
# Youngs Moduli (GPa) = 66.34838 18.93406 93.10684
#
# Poissons Ratio (x) = 0.12388 -0.12677
# Poissons Ratio (y) = 0.43409 1.58978
# Poissons Ratio (z) = -0.09034 0.32329
#
# Static dielectric constant tensor:
#      x y z
#    x 1.758940 0.000000 0.000000 
#    y 0.000000 1.660450 0.000000 
#    z 0.000000 0.000000 1.805780 
# 
# From -- ./inp_files/64469.got.cif
#   From: 2010.05.17/outbox.cif.g08.bks.cpg/sg74_33_cif.got.tgz:64469.got - 2010.06.03 17:57:02.
