data_PCOD9534598
_publ_section_title
;
Structure prediction by ZEFSAII (Michael W. Deem and Ramdas Pophale) SiO2 
 PCOD9534598
Probable space group: I M M A
;
_chemical_formula_sum "Si O2"
_cell_formula_units_Z 104
_cell_length_a 7.686651
_cell_length_b 31.843274
_cell_length_c 19.979541
_cell_angle_alpha 90.000000
_cell_angle_beta 90.000000
_cell_angle_gamma 90.000000
_cell_volume 4890.354967
_symmetry_space_group_name_H-M "I M M A"
_symmetry_group_IT_number 74
_symmetry_cell_setting 'orthorhombic'
loop_
_space_group_symop_operation_xyz
x,y,z
-x,1/2-y,z
x,-y,-z
-x,1/2+y,-z
-x,-y,-z
x,1/2+y,-z
-x,y,z
x,1/2-y,z
1/2+x,1/2+y,1/2+z
1/2-x,-y,1/2+z
1/2+x,1/2-y,1/2-z
1/2-x,y,1/2-z
1/2-x,1/2-y,1/2-z
1/2+x,y,1/2-z
1/2-x,1/2+y,1/2+z
1/2+x,-y,1/2+z
loop_
_atom_site_type_symbol
_atom_site_label
_atom_site_fract_x
_atom_site_fract_y
_atom_site_fract_z
Si Si1 0.291190 0.250000 0.329219
Si Si2 0.200467 0.821266 0.174825
Si Si3 0.202237 0.961889 0.457284
Si Si4 0.708959 0.657878 0.672373
Si Si5 0.708082 0.580621 0.175116
Si Si6 0.288843 0.381242 0.458412
Si Si7 0.786764 0.704355 0.032247
O O1 0.500000 0.250000 0.340707
O O2 0.250000 0.250000 0.250000
O O3 0.225153 0.204181 0.350373
O O4 0.250000 0.809008 0.250000
O O5 0.222774 0.871711 0.168825
O O6 0.279376 0.800586 0.108688
O O7 0.000000 0.810834 0.170013
O O8 0.276350 0.948507 0.384923
O O9 0.212456 0.920400 0.502574
O O10 0.000000 0.973067 0.444805
O O11 0.281601 0.000000 0.500000
O O12 0.500000 0.659957 0.667757
O O13 0.750000 0.650545 0.750000
O O14 0.765619 0.623298 0.618976
O O15 0.500000 0.583929 0.168844
O O16 0.750000 0.565606 0.250000
O O17 0.500000 0.384680 0.462428
O O18 0.235965 0.337547 0.493365
O O19 0.733986 0.750000 0.005077
O O20 0.000000 0.704032 0.030901
#
# Coordination Sequence:
#
# PCOD9534598 Si02
#       7
#     8  16  16  16  16  16  16
#     4   8  14  26  44  70 100 134 175 216 253 302
#     4  10  18  30  50  75 105 142 181 220 262 305
#     4  10  22  40  60  82 109 142 175 215 274 331
#     4   9  18  31  50  75 104 139 179 218 263 312
#     4  10  19  33  56  81 107 138 176 217 263 316
#     4  10  20  35  56  81 107 139 180 224 266 315
#     4   9  18  31  49  75 108 144 181 219 263 313
#
# _framework density 21.266351
#
# number of rings (size 3 to 8) (size 9 to 14) (size 15 to 20)
#    0.000    2.462    1.538    1.846    1.077    1.846 
#    0.000    0.769    0.000    7.385    0.000    0.000 
#    0.000    0.000    0.000    0.000    0.000    0.000 
#
# Total GULP energy -290033.220965 kJ/mol
# GULP energy per Si atom -5577.561942 kJ/mol
# Density = 2.121795 g / cm^3
# Si number density = 21.266351 Si / 1000 Ang^3
#
#
#
# Elastic Constant Matrix: (Units=GPa)
#
#
# Indices 1 2 3 4 5 6 
#
# 1 27.8628 -16.0493 -12.6973 0.0000 0.0000 0.0000
# 2 -16.0493 95.3900 53.0552 0.0000 0.0000 0.0000
# 3 -12.6973 53.0552 124.3605 -0.0001 0.0000 0.0001
# 4 0.0000 0.0000 -0.0001 31.5447 0.0000 0.0000
# 5 0.0000 0.0000 0.0000 0.0000 0.5941 0.0000
# 6 0.0000 0.0000 0.0001 0.0000 0.0000 -19.1565
#
#
#
# Elastic Compliance Matrix: (Units=1/GPa)
#
#
# Indices 1 2 3 4 5 6 
#
# 1 0.039980 0.005843 0.001589 0.000000 0.000000 0.000000
# 2 0.005843 0.014599 -0.005632 0.000000 0.000000 0.000000
# 3 0.001589 -0.005632 0.010606 0.000000 0.000000 0.000000
# 4 0.000000 0.000000 0.000000 0.031701 0.000000 0.000000
# 5 0.000000 0.000000 0.000000 0.000000 1.683168 0.000000
# 6 0.000000 0.000000 0.000000 0.000000 0.000000 -0.052202
#
#
# Mechanical properties :
#
#
# Convention : Reuss Voigt Hill
#
# Bulk Modulus (GPa) = 14.53800 32.91449 23.72625
# Shear Modulus (GPa) = 2.86175 17.48344 10.17260
#
# Velocity S-wave (km/s) = 1.16129 2.87037 2.18948
# Velocity P-wave (km/s) = 2.94094 5.14745 4.19198
#
# Compressibility (1/GPa) = 0.06878525
#
# Stress axis : x y z
#
# Youngs Moduli (GPa) = 25.01256 68.50011 94.28650
#
# Poissons Ratio (x) = -0.40022 -0.14986
# Poissons Ratio (y) = -0.14614 0.53098
# Poissons Ratio (z) = -0.03976 0.38576
#
# Static dielectric constant tensor:
#      x y z
#    x 0.816460 0.000000 0.000000 
#    y 0.000000 1.745700 0.000000 
#    z 0.000000 0.000000 1.762090 
# 
# From -- ./inp_files/49589.got.cif
#   From: 2010.05.17/outbox.cif.g08.bks.cpg/sg74_25_cif.got.tgz:49589.got - 2010.06.03 17:57:02.
