data_PCOD9534817
_publ_section_title
;
Structure prediction by ZEFSAII (Michael W. Deem and Ramdas Pophale) SiO2 
 PCOD9534817
Probable space group: I M M A
;
_chemical_formula_sum "Si O2"
_cell_formula_units_Z 92
_cell_length_a 13.033044
_cell_length_b 16.882541
_cell_length_c 19.990155
_cell_angle_alpha 90.000000
_cell_angle_beta 90.000000
_cell_angle_gamma 90.000000
_cell_volume 4398.451789
_symmetry_space_group_name_H-M "I M M A"
_symmetry_group_IT_number 74
_symmetry_cell_setting 'orthorhombic'
loop_
_space_group_symop_operation_xyz
x,y,z
-x,1/2-y,z
x,-y,-z
-x,1/2+y,-z
-x,-y,-z
x,1/2+y,-z
-x,y,z
x,1/2-y,z
1/2+x,1/2+y,1/2+z
1/2-x,-y,1/2+z
1/2+x,1/2-y,1/2-z
1/2-x,y,1/2-z
1/2-x,1/2-y,1/2-z
1/2+x,y,1/2-z
1/2-x,1/2+y,1/2+z
1/2+x,-y,1/2+z
loop_
_atom_site_type_symbol
_atom_site_label
_atom_site_fract_x
_atom_site_fract_y
_atom_site_fract_z
Si Si1 0.500000 0.250000 0.012003
Si Si2 0.500000 0.535180 0.928035
Si Si3 0.000000 0.138315 0.617798
Si Si4 0.383078 0.658333 0.411778
Si Si5 0.116826 0.250000 0.351018
Si Si6 0.382517 0.921844 0.545241
Si Si7 0.304067 0.915989 0.857358
Si Si8 0.794257 0.904301 0.320944
O O1 0.500000 0.321650 0.956383
O O2 0.594678 0.250000 0.066407
O O3 0.500000 0.455982 0.885549
O O4 0.603300 0.579854 0.911325
O O5 0.500000 0.500000 0.000000
O O6 0.107525 0.148777 0.656696
O O7 0.500000 0.630937 0.396148
O O8 0.374383 0.750000 0.392826
O O9 0.370603 0.648181 0.491373
O O10 0.295158 0.609533 0.375137
O O11 0.173767 0.170311 0.327102
O O12 0.000000 0.250000 0.324628
O O13 0.500000 0.924945 0.568394
O O14 0.303321 0.915869 0.604756
O O15 0.363321 0.000000 0.500000
O O16 0.313382 0.999803 0.818367
O O17 0.750000 0.878726 0.250000
#
# Coordination Sequence:
#
# PCOD9534817 Si02
#       8
#     4   8   8  16   8  16  16  16
#     4  10  22  38  60 100 140 162 184 258 336 400
#     4  10  18  31  55  86 122 153 194 246 316 392
#     4  10  24  38  57  91 123 160 210 255 312 374
#     4  10  23  41  62  90 126 164 207 254 314 370
#     4  10  22  36  62  98 134 158 186 248 343 409
#     4  10  20  35  57  89 121 159 200 250 305 376
#     4  11  21  37  60  89 122 162 204 255 320 385
#     4  11  26  43  62  85 121 171 222 268 299 361
#
# _framework density 20.916450999999999
#
# number of rings (size 3 to 8) (size 9 to 14) (size 15 to 20)
#    0.261    1.391    2.609    1.565    8.522    0.348 
#    0.000    0.435    0.000    0.000    0.000    0.000 
#    0.000    0.000    0.000    0.000    0.000    0.000 
#
# Total GULP energy -256244.170415 kJ/mol
# GULP energy per Si atom -5570.525444 kJ/mol
# Density = 2.086884 g / cm^3
# Si number density = 20.916451 Si / 1000 Ang^3
#
#
#
# Elastic Constant Matrix: (Units=GPa)
#
#
# Indices 1 2 3 4 5 6 
#
# 1 87.3405 11.7097 17.7812 0.0000 0.0000 0.0000
# 2 11.7097 96.8765 -14.8419 0.0000 0.0000 0.0000
# 3 17.7812 -14.8419 31.0689 0.0000 0.0000 0.0000
# 4 0.0000 0.0000 0.0000 10.6515 0.0000 0.0000
# 5 0.0000 0.0000 0.0000 0.0000 24.8048 0.0000
# 6 0.0000 0.0000 0.0000 0.0000 0.0000 31.1970
#
#
#
# Elastic Compliance Matrix: (Units=1/GPa)
#
#
# Indices 1 2 3 4 5 6 
#
# 1 0.013771 -0.003099 -0.009362 0.000000 0.000000 0.000000
# 2 -0.003099 0.011835 0.007427 0.000000 0.000000 0.000000
# 3 -0.009362 0.007427 0.041092 0.000000 0.000000 0.000000
# 4 0.000000 0.000000 0.000000 0.093883 0.000000 0.000000
# 5 0.000000 0.000000 0.000000 0.000000 0.040315 0.000000
# 6 0.000000 0.000000 0.000000 0.000000 0.000000 0.032054
#
#
# Mechanical properties :
#
#
# Convention : Reuss Voigt Hill
#
# Bulk Modulus (GPa) = 17.65801 27.17600 22.41700
# Shear Modulus (GPa) = 19.09169 26.70645 22.89907
#
# Velocity S-wave (km/s) = 3.02447 3.57713 3.31235
# Velocity P-wave (km/s) = 4.54500 5.48471 5.03682
#
# Compressibility (1/GPa) = 0.05663153
#
# Stress axis : x y z
#
# Youngs Moduli (GPa) = 72.61770 84.49633 24.33546
#
# Poissons Ratio (x) = 0.26183 0.22782
# Poissons Ratio (y) = 0.22502 -0.18074
# Poissons Ratio (z) = 0.67981 -0.62756
#
# Static dielectric constant tensor:
#      x y z
#    x 1.719530 0.000000 0.000000 
#    y 0.000000 1.903210 0.000000 
#    z 0.000000 0.000000 1.740830 
# 
# From -- ./inp_files/58922.got.cif
#   From: 2010.05.17/outbox.cif.g08.bks.cpg/sg74_30_cif.got.tgz:58922.got - 2010.06.03 17:57:02.
