data_PCOD9534905
_publ_section_title
;
Structure prediction by ZEFSAII (Michael W. Deem and Ramdas Pophale) SiO2 
 PCOD9534905
Probable space group: I M M A
;
_chemical_formula_sum "Si O2"
_cell_formula_units_Z 72
_cell_length_a 33.773746
_cell_length_b 8.262167
_cell_length_c 13.921647
_cell_angle_alpha 90.000000
_cell_angle_beta 90.000000
_cell_angle_gamma 90.000000
_cell_volume 3884.756655
_symmetry_space_group_name_H-M "I M M A"
_symmetry_group_IT_number 74
_symmetry_cell_setting 'orthorhombic'
loop_
_space_group_symop_operation_xyz
x,y,z
-x,1/2-y,z
x,-y,-z
-x,1/2+y,-z
-x,-y,-z
x,1/2+y,-z
-x,y,z
x,1/2-y,z
1/2+x,1/2+y,1/2+z
1/2-x,-y,1/2+z
1/2+x,1/2-y,1/2-z
1/2-x,y,1/2-z
1/2-x,1/2-y,1/2-z
1/2+x,y,1/2-z
1/2-x,1/2+y,1/2+z
1/2+x,-y,1/2+z
loop_
_atom_site_type_symbol
_atom_site_label
_atom_site_fract_x
_atom_site_fract_y
_atom_site_fract_z
Si Si1 0.841390 0.940018 0.394191
Si Si2 0.500000 0.947425 0.111974
Si Si3 0.866865 0.057064 0.891775
Si Si4 0.292676 0.436413 0.277890
Si Si5 0.420580 0.442198 0.784144
O O1 0.831451 0.750000 0.381173
O O2 0.887218 0.958517 0.365837
O O3 0.833693 0.000000 0.500000
O O4 0.817133 0.046595 0.319866
O O5 0.500000 0.750000 0.110958
O O6 0.538583 0.005435 0.171670
O O7 0.500000 0.000000 0.000000
O O8 0.869193 0.250000 0.888867
O O9 0.899293 0.993608 0.813443
O O10 0.822552 0.011551 0.855980
O O11 0.873921 0.000000 0.000000
O O12 0.286210 0.250000 0.305891
O O13 0.250000 0.510197 0.250000
O O14 0.426760 0.250000 0.767278
#
# Coordination Sequence:
#
# PCOD9534905 Si02
#       5
#    16   8  16  16  16
#     4  10  19  32  50  73 101 134 169 204 249 302
#     4  10  18  32  53  78 108 138 169 208 257 308
#     4  10  20  36  56  77 102 137 178 216 260 309
#     4  10  21  36  53  75 101 130 168 213 259 307
#     4   8  17  32  51  75 103 135 170 209 252 302
#
# _framework density 18.533978999999999
#
# number of rings (size 3 to 8) (size 9 to 14) (size 15 to 20)
#    0.000    2.444    0.000    4.000    0.000    2.667 
#    0.000    6.111    0.000    0.000    0.000    0.000 
#    0.000    0.000    0.000    0.000    0.000    0.000 
#
# Total GULP energy -200499.758758 kJ/mol
# GULP energy per Si atom -5569.437743 kJ/mol
# Density = 1.849179 g / cm^3
# Si number density = 18.533979 Si / 1000 Ang^3
#
#
#
# Elastic Constant Matrix: (Units=GPa)
#
#
# Indices 1 2 3 4 5 6 
#
# 1 121.6691 11.6105 35.2518 0.0000 0.0000 0.0000
# 2 11.6105 20.8854 -0.5554 0.0000 0.0000 0.0000
# 3 35.2518 -0.5554 98.2896 0.0000 0.0000 0.0000
# 4 0.0000 0.0000 0.0000 25.1991 0.0000 0.0000
# 5 0.0000 0.0000 0.0000 0.0000 7.9665 0.0000
# 6 0.0000 0.0000 0.0000 0.0000 0.0000 -24.4232
#
#
#
# Elastic Compliance Matrix: (Units=1/GPa)
#
#
# Indices 1 2 3 4 5 6 
#
# 1 0.009771 -0.005526 -0.003535 0.000000 0.000000 0.000000
# 2 -0.005526 0.051013 0.002270 0.000000 0.000000 0.000000
# 3 -0.003535 0.002270 0.011455 0.000000 0.000000 0.000000
# 4 0.000000 0.000000 0.000000 0.039684 0.000000 0.000000
# 5 0.000000 0.000000 0.000000 0.000000 0.125526 0.000000
# 6 0.000000 0.000000 0.000000 0.000000 0.000000 -0.040945
#
#
# Mechanical properties :
#
#
# Convention : Reuss Voigt Hill
#
# Bulk Modulus (GPa) = 17.04862 37.05089 27.04975
# Shear Modulus (GPa) = 21.77347 14.71763 18.24555
#
# Velocity S-wave (km/s) = 3.43123 2.82102 3.14098
# Velocity P-wave (km/s) = 4.99163 5.53579 5.27074
#
# Compressibility (1/GPa) = 0.05865578
#
# Stress axis : x y z
#
# Youngs Moduli (GPa) = 102.34709 19.60302 87.29925
#
# Poissons Ratio (x) = 0.10832 0.30865
# Poissons Ratio (y) = 0.56554 -0.19817
# Poissons Ratio (z) = 0.36185 -0.04450
#
# Static dielectric constant tensor:
#      x y z
#    x 1.674340 0.000000 0.000000 
#    y 0.000000 1.669730 0.000000 
#    z 0.000000 0.000000 1.629780 
# 
# From -- ./inp_files/29402.got.cif
#   From: 2010.05.17/outbox.cif.g08.bks.cpg/sg74_15_cif.got.tgz:29402.got - 2010.06.03 17:57:02.
