data_PCOD9534106
_publ_section_title
;
Structure prediction by ZEFSAII (Michael W. Deem and Ramdas Pophale) SiO2 
 PCOD9534106
Probable space group: I M M A
;
_chemical_formula_sum "Si O2"
_cell_formula_units_Z 120
_cell_length_a 27.873792
_cell_length_b 20.405870
_cell_length_c 12.437896
_cell_angle_alpha 90.000000
_cell_angle_beta 90.000000
_cell_angle_gamma 90.000000
_cell_volume 7074.538129
_symmetry_space_group_name_H-M "I M M A"
_symmetry_group_IT_number 74
_symmetry_cell_setting 'orthorhombic'
loop_
_space_group_symop_operation_xyz
x,y,z
-x,1/2-y,z
x,-y,-z
-x,1/2+y,-z
-x,-y,-z
x,1/2+y,-z
-x,y,z
x,1/2-y,z
1/2+x,1/2+y,1/2+z
1/2-x,-y,1/2+z
1/2+x,1/2-y,1/2-z
1/2-x,y,1/2-z
1/2-x,1/2-y,1/2-z
1/2+x,y,1/2-z
1/2-x,1/2+y,1/2+z
1/2+x,-y,1/2+z
loop_
_atom_site_type_symbol
_atom_site_label
_atom_site_fract_x
_atom_site_fract_y
_atom_site_fract_z
Si Si1 0.778750 0.078386 0.988785
Si Si2 0.394955 0.500000 0.000000
Si Si3 0.640979 0.676089 0.859553
Si Si4 0.195623 0.568379 0.775867
Si Si5 0.055549 0.082211 0.316127
Si Si6 0.555934 0.016126 0.624406
Si Si7 0.328155 0.379763 0.930398
Si Si8 0.350273 0.073926 0.705075
O O1 0.727777 0.109316 0.957660
O O2 0.817065 0.090759 0.895962
O O3 0.801720 0.096500 0.103495
O O4 0.770710 0.000000 0.000000
O O5 0.426972 0.528473 0.903562
O O6 0.359711 0.442921 0.962652
O O7 0.646283 0.750000 0.819916
O O8 0.676957 0.623930 0.804235
O O9 0.589331 0.644834 0.832716
O O10 0.651675 0.673744 0.987084
O O11 0.250000 0.549098 0.750000
O O12 0.165239 0.501587 0.766421
O O13 0.000000 0.097535 0.333422
O O14 0.060745 0.048525 0.199188
O O15 0.500000 0.036783 0.630991
O O16 0.594291 0.067827 0.670639
O O17 0.567300 0.000000 0.500000
O O18 0.337851 0.377957 0.803222
#
# Coordination Sequence:
#
# PCOD9534106 Si02
#       8
#    16   8  16  16  16  16  16  16
#     4  10  19  28  50  80 110 134 162 205 267 325
#     4  10  17  30  52  78 112 130 163 206 268 324
#     4  11  24  38  53  71 102 146 189 225 255 300
#     4  11  19  33  51  77 108 133 171 214 267 326
#     4  10  20  34  55  80 109 139 170 216 269 321
#     4  10  19  32  50  79 115 141 162 200 264 331
#     4  11  18  33  48  75 106 139 169 214 261 314
#     4  11  19  30  53  81 108 134 166 213 270 332
#
# _framework density 16.962239
#
# number of rings (size 3 to 8) (size 9 to 14) (size 15 to 20)
#    0.000    1.467    4.667    4.200    0.000    0.533 
#    0.000    0.000    0.000    2.400    0.000    0.000 
#    0.000    0.000    0.000    0.000    0.000    0.000 
#
# Total GULP energy -334581.351187 kJ/mol
# GULP energy per Si atom -5576.355853 kJ/mol
# Density = 1.692363 g / cm^3
# Si number density = 16.962239 Si / 1000 Ang^3
#
#
#
# Elastic Constant Matrix: (Units=GPa)
#
#
# Indices 1 2 3 4 5 6 
#
# 1 103.4203 8.8033 28.0224 0.0000 0.0000 0.0000
# 2 8.8033 21.9836 13.5073 0.0000 0.0000 0.0000
# 3 28.0224 13.5073 125.4703 0.0000 0.0000 0.0000
# 4 0.0000 0.0000 0.0000 8.5076 0.0000 0.0000
# 5 0.0000 0.0000 0.0000 0.0000 28.5769 0.0000
# 6 0.0000 0.0000 0.0000 0.0000 0.0000 0.2080
#
#
#
# Elastic Compliance Matrix: (Units=1/GPa)
#
#
# Indices 1 2 3 4 5 6 
#
# 1 0.010468 -0.002951 -0.002020 0.000000 0.000000 0.000000
# 2 -0.002951 0.049542 -0.004674 0.000000 0.000000 0.000000
# 3 -0.002020 -0.004674 0.008924 0.000000 0.000000 0.000000
# 4 0.000000 0.000000 0.000000 0.117542 0.000000 0.000000
# 5 0.000000 0.000000 0.000000 0.000000 0.034993 0.000000
# 6 0.000000 0.000000 0.000000 0.000000 0.000000 4.807508
#
#
# Mechanical properties :
#
#
# Convention : Reuss Voigt Hill
#
# Bulk Modulus (GPa) = 20.14340 39.06002 29.60171
# Shear Modulus (GPa) = 0.98720 20.82791 10.90756
#
# Velocity S-wave (km/s) = 0.76372 3.50794 2.53859
# Velocity P-wave (km/s) = 3.56074 6.28372 5.10706
#
# Compressibility (1/GPa) = 0.04964404
#
# Stress axis : x y z
#
# Youngs Moduli (GPa) = 95.53073 20.18481 112.05198
#
# Poissons Ratio (x) = 0.05956 0.22637
# Poissons Ratio (y) = 0.28187 0.52378
# Poissons Ratio (z) = 0.19299 0.09435
#
# Static dielectric constant tensor:
#      x y z
#    x 1.582400 0.000000 0.000000 
#    y 0.000000 1.538510 0.000000 
#    z 0.000000 0.000000 1.662710 
# 
# From -- ./inp_files/26518.got.cif
#   From: 2010.05.17/outbox.cif.g08.bks.cpg/sg74_14_cif.got.tgz:26518.got - 2010.06.03 17:57:02.
