data_PCOD9534865
_publ_section_title
;
Structure prediction by ZEFSAII (Michael W. Deem and Ramdas Pophale) SiO2 
 PCOD9534865
Probable space group: I M M A
;
_chemical_formula_sum "Si O2"
_cell_formula_units_Z 88
_cell_length_a 20.622974
_cell_length_b 8.509482
_cell_length_c 30.789064
_cell_angle_alpha 90.000000
_cell_angle_beta 90.000000
_cell_angle_gamma 90.000000
_cell_volume 5403.198274
_symmetry_space_group_name_H-M "I M M A"
_symmetry_group_IT_number 74
_symmetry_cell_setting 'orthorhombic'
loop_
_space_group_symop_operation_xyz
x,y,z
-x,1/2-y,z
x,-y,-z
-x,1/2+y,-z
-x,-y,-z
x,1/2+y,-z
-x,y,z
x,1/2-y,z
1/2+x,1/2+y,1/2+z
1/2-x,-y,1/2+z
1/2+x,1/2-y,1/2-z
1/2-x,y,1/2-z
1/2-x,1/2-y,1/2-z
1/2+x,y,1/2-z
1/2-x,1/2+y,1/2+z
1/2+x,-y,1/2+z
loop_
_atom_site_type_symbol
_atom_site_label
_atom_site_fract_x
_atom_site_fract_y
_atom_site_fract_z
Si Si1 0.211951 0.063009 0.293996
Si Si2 0.639278 0.437001 0.451033
Si Si3 0.569498 0.561732 0.328904
Si Si4 0.298118 0.061213 0.629424
Si Si5 0.928236 0.437146 0.725013
Si Si6 0.000000 0.437594 0.950469
O O1 0.220126 0.250000 0.295429
O O2 0.250000 0.005809 0.250000
O O3 0.242558 0.990708 0.337516
O O4 0.136160 0.020307 0.291681
O O5 0.647999 0.500000 0.500000
O O6 0.635118 0.250000 0.452091
O O7 0.696208 0.493773 0.419045
O O8 0.569820 0.503930 0.433849
O O9 0.500000 0.497904 0.344317
O O10 0.568834 0.750000 0.337179
O O11 0.635370 0.498943 0.348509
O O12 0.572078 0.541932 0.277116
O O13 0.298722 0.250000 0.627239
O O14 0.923141 0.250000 0.716744
O O15 0.000000 0.489656 0.709504
O O16 0.000000 0.250000 0.948877
O O17 0.000000 0.500000 0.000000
#
# Coordination Sequence:
#
# PCOD9534865 Si02
#       6
#    16  16  16  16  16   8
#     4  11  22  34  48  71 106 139 169 209 254 303
#     4  11  22  37  52  71  98 128 167 214 263 309
#     4   8  15  27  44  68  94 124 166 211 251 295
#     4  11  21  33  53  74  96 132 173 214 259 306
#     4   9  17  32  53  73  94 128 172 214 252 298
#     4  10  18  32  52  72  94 128 170 212 260 304
#
# _framework density 16.286650000000002
#
# number of rings (size 3 to 8) (size 9 to 14) (size 15 to 20)
#    0.000    2.000    1.818    5.727    1.273    1.091 
#    0.000    0.000    0.000    0.000    0.000    0.000 
#    0.000    0.727    0.000    2.727    0.000    4.182 
#
# Total GULP energy -245377.942419 kJ/mol
# GULP energy per Si atom -5576.771419 kJ/mol
# Density = 1.624958 g / cm^3
# Si number density = 16.286650 Si / 1000 Ang^3
#
#
#
# Elastic Constant Matrix: (Units=GPa)
#
#
# Indices 1 2 3 4 5 6 
#
# 1 91.7516 27.1789 44.2922 0.0000 0.0000 0.0000
# 2 27.1789 81.5414 35.9329 0.0000 0.0000 0.0000
# 3 44.2922 35.9329 75.6243 0.0000 0.0000 0.0000
# 4 0.0000 0.0000 0.0000 17.7129 0.0000 0.0000
# 5 0.0000 0.0000 0.0000 0.0000 8.3499 0.0000
# 6 0.0000 0.0000 0.0000 0.0000 0.0000 21.8870
#
#
#
# Elastic Compliance Matrix: (Units=1/GPa)
#
#
# Indices 1 2 3 4 5 6 
#
# 1 0.015331 -0.001459 -0.008286 0.000000 0.000000 0.000000
# 2 -0.001459 0.015650 -0.006582 0.000000 0.000000 0.000000
# 3 -0.008286 -0.006582 0.021204 0.000000 0.000000 0.000000
# 4 0.000000 0.000000 0.000000 0.056456 0.000000 0.000000
# 5 0.000000 0.000000 0.000000 0.000000 0.119761 0.000000
# 6 0.000000 0.000000 0.000000 0.000000 0.000000 0.045689
#
#
# Mechanical properties :
#
#
# Convention : Reuss Voigt Hill
#
# Bulk Modulus (GPa) = 51.19871 51.52505 51.36188
# Shear Modulus (GPa) = 15.96138 19.02418 17.49278
#
# Velocity S-wave (km/s) = 3.13394 3.42143 3.28084
# Velocity P-wave (km/s) = 6.67830 6.87847 6.77912
#
# Compressibility (1/GPa) = 0.01953174
#
# Stress axis : x y z
#
# Youngs Moduli (GPa) = 65.22665 63.89620 47.16128
#
# Poissons Ratio (x) = 0.09320 0.39079
# Poissons Ratio (y) = 0.09514 0.31042
# Poissons Ratio (z) = 0.54048 0.42056
#
# Static dielectric constant tensor:
#      x y z
#    x 1.562350 0.000000 0.000000 
#    y 0.000000 1.548190 0.000000 
#    z 0.000000 0.000000 1.568600 
# 
# From -- ./inp_files/73285.got.cif
#   From: 2010.05.17/outbox.cif.g08.bks.cpg/sg74_37_cif.got.tgz:73285.got - 2010.06.03 17:57:02.
