data_PCOD9534883
_publ_section_title
;
Structure prediction by ZEFSAII (Michael W. Deem and Ramdas Pophale) SiO2 
 PCOD9534883
Probable space group: I M M A
;
_chemical_formula_sum "Si O2"
_cell_formula_units_Z 80
_cell_length_a 16.198905
_cell_length_b 25.111008
_cell_length_c 9.465396
_cell_angle_alpha 90.000000
_cell_angle_beta 90.000000
_cell_angle_gamma 90.000000
_cell_volume 3850.247016
_symmetry_space_group_name_H-M "I M M A"
_symmetry_group_IT_number 74
_symmetry_cell_setting 'orthorhombic'
loop_
_space_group_symop_operation_xyz
x,y,z
-x,1/2-y,z
x,-y,-z
-x,1/2+y,-z
-x,-y,-z
x,1/2+y,-z
-x,y,z
x,1/2-y,z
1/2+x,1/2+y,1/2+z
1/2-x,-y,1/2+z
1/2+x,1/2-y,1/2-z
1/2-x,y,1/2-z
1/2-x,1/2-y,1/2-z
1/2+x,y,1/2-z
1/2-x,1/2+y,1/2+z
1/2+x,-y,1/2+z
loop_
_atom_site_type_symbol
_atom_site_label
_atom_site_fract_x
_atom_site_fract_y
_atom_site_fract_z
Si Si1 0.340220 0.750000 0.327121
Si Si2 0.662296 0.014209 0.665804
Si Si3 0.590346 0.448491 0.098860
Si Si4 0.769107 0.750000 0.584924
Si Si5 0.838154 0.867156 0.168627
Si Si6 0.726747 0.135934 0.086457
O O1 0.250000 0.750000 0.250000
O O2 0.314196 0.750000 0.492192
O O3 0.378066 0.690993 0.299451
O O4 0.750000 0.012648 0.750000
O O5 0.625366 0.073859 0.690888
O O6 0.672831 0.000000 0.500000
O O7 0.607740 0.970046 0.743885
O O8 0.500000 0.423510 0.089679
O O9 0.662061 0.409250 0.051573
O O10 0.592829 0.500000 0.000000
O O11 0.750000 0.750000 0.750000
O O12 0.811405 0.805968 0.553324
O O13 0.750000 0.866635 0.250000
O O14 0.808937 0.868356 0.005686
O O15 0.750000 0.132348 0.250000
#
# Coordination Sequence:
#
# PCOD9534883 Si02
#       6
#     8  16  16   8  16  16
#     4   8  14  24  38  65  95 117 143 187 241 288
#     4  11  20  32  52  76  99 128 166 206 250 302
#     4  11  23  36  49  69 101 138 174 212 252 292
#     4   8  16  28  47  73  98 121 152 199 248 294
#     4   9  16  26  45  69  94 119 151 194 241 290
#     4  10  18  32  52  74  98 126 161 202 249 299
#
# _framework density 20.777887
#
# number of rings (size 3 to 8) (size 9 to 14) (size 15 to 20)
#    0.000    2.200    0.000    6.000    0.000    0.400 
#    0.000    0.500    0.000    0.000    0.000    2.100 
#    0.000    0.000    0.000    5.600    0.000    0.000 
#
# Total GULP energy -222841.006002 kJ/mol
# GULP energy per Si atom -5571.025150 kJ/mol
# Density = 2.073060 g / cm^3
# Si number density = 20.777887 Si / 1000 Ang^3
#
#
#
# Elastic Constant Matrix: (Units=GPa)
#
#
# Indices 1 2 3 4 5 6 
#
# 1 25.6635 14.6682 -14.0032 0.0000 0.0000 0.0000
# 2 14.6682 149.6243 -26.1962 0.0000 0.0000 0.0000
# 3 -14.0032 -26.1962 87.4409 0.0003 0.0000 -0.0006
# 4 0.0000 0.0000 0.0003 23.6758 0.0000 -0.0001
# 5 0.0000 0.0000 0.0000 0.0000 6.9994 0.0000
# 6 0.0000 0.0000 -0.0006 -0.0001 0.0000 -12.7548
#
#
#
# Elastic Compliance Matrix: (Units=1/GPa)
#
#
# Indices 1 2 3 4 5 6 
#
# 1 0.044155 -0.003262 0.006094 0.000000 0.000000 0.000000
# 2 -0.003262 0.007294 0.001663 0.000000 0.000000 0.000000
# 3 0.006094 0.001663 0.012910 0.000000 0.000000 -0.000001
# 4 0.000000 0.000000 0.000000 0.042237 0.000000 0.000000
# 5 0.000000 0.000000 0.000000 0.000000 0.142868 0.000000
# 6 0.000000 0.000000 -0.000001 0.000000 0.000000 -0.078402
#
#
# Mechanical properties :
#
#
# Convention : Reuss Voigt Hill
#
# Bulk Modulus (GPa) = 13.63317 23.51849 18.57583
# Shear Modulus (GPa) = 26.80623 22.80140 24.80381
#
# Velocity S-wave (km/s) = 3.59574 3.31628 3.45883
# Velocity P-wave (km/s) = 4.88003 5.09972 4.99109
#
# Compressibility (1/GPa) = 0.07335049
#
# Stress axis : x y z
#
# Youngs Moduli (GPa) = 22.64733 137.09309 77.45679
#
# Poissons Ratio (x) = 0.44717 -0.47203
# Poissons Ratio (y) = 0.07387 -0.12881
# Poissons Ratio (z) = -0.13801 -0.22798
#
# Static dielectric constant tensor:
#      x y z
#    x 1.709710 0.000000 0.000000 
#    y 0.000000 1.855090 0.000000 
#    z 0.000000 0.000000 1.823820 
# 
# From -- ./inp_files/11015.got.cif
#   From: 2010.05.17/outbox.cif.g08.bks.cpg/sg74_6_cif.got.tgz:11015.got - 2010.06.03 17:57:02.
