data_PCOD9534991
_publ_section_title
;
Structure prediction by ZEFSAII (Michael W. Deem and Ramdas Pophale) SiO2 
 PCOD9534991
Probable space group: I M M A
;
_chemical_formula_sum "Si O2"
_cell_formula_units_Z 104
_cell_length_a 25.551202
_cell_length_b 21.378294
_cell_length_c 8.368357
_cell_angle_alpha 90.000000
_cell_angle_beta 90.000000
_cell_angle_gamma 90.000000
_cell_volume 4571.140603
_symmetry_space_group_name_H-M "I M M A"
_symmetry_group_IT_number 74
_symmetry_cell_setting 'orthorhombic'
loop_
_space_group_symop_operation_xyz
x,y,z
-x,1/2-y,z
x,-y,-z
-x,1/2+y,-z
-x,-y,-z
x,1/2+y,-z
-x,y,z
x,1/2-y,z
1/2+x,1/2+y,1/2+z
1/2-x,-y,1/2+z
1/2+x,1/2-y,1/2-z
1/2-x,y,1/2-z
1/2-x,1/2-y,1/2-z
1/2+x,y,1/2-z
1/2-x,1/2+y,1/2+z
1/2+x,-y,1/2+z
loop_
_atom_site_type_symbol
_atom_site_label
_atom_site_fract_x
_atom_site_fract_y
_atom_site_fract_z
Si Si1 0.673444 0.628951 0.881461
Si Si2 0.763037 0.822925 0.071954
Si Si3 0.095270 0.473254 0.320294
Si Si4 0.126394 0.181245 0.069876
Si Si5 0.439844 0.087906 0.619646
Si Si6 0.084158 0.322065 0.588700
Si Si7 0.500000 0.876978 0.860827
O O1 0.650736 0.562702 0.822144
O O2 0.654664 0.674533 0.740269
O O3 0.732681 0.637149 0.938101
O O4 0.639465 0.649265 0.035634
O O5 0.746144 0.750000 0.053009
O O6 0.750000 0.844071 0.250000
O O7 0.825145 0.823871 0.051097
O O8 0.089621 0.500000 0.500000
O O9 0.089183 0.526683 0.187092
O O10 0.046230 0.426688 0.309748
O O11 0.101328 0.250000 0.058196
O O12 0.087560 0.125785 0.022852
O O13 0.500000 0.073255 0.582514
O O14 0.438560 0.136507 0.768170
O O15 0.088976 0.250000 0.633427
O O16 0.045708 0.331325 0.438832
#
# Coordination Sequence:
#
# PCOD9534991 Si02
#       7
#    16  16  16  16  16  16   8
#     4  11  23  40  67  95 134 174 218 281 351 425
#     4  10  21  41  72 102 127 166 221 279 346 422
#     4  11  20  39  65  93 127 175 234 283 329 403
#     4  11  25  43  65  98 139 176 221 284 356 427
#     4  12  23  41  67  92 134 188 239 289 334 409
#     4  11  20  33  60  94 125 164 222 283 345 409
#     4  10  18  32  58  91 120 163 216 283 333 386
#
# _framework density 22.751434
#
# number of rings (size 3 to 8) (size 9 to 14) (size 15 to 20)
#    0.000    1.077    4.615    3.692    0.000    4.000 
#    5.538    0.769    6.769    0.000    0.000    0.000 
#    0.000    0.000    0.000    0.000    0.000    0.000 
#
# Total GULP energy -289813.250553 kJ/mol
# GULP energy per Si atom -5573.331741 kJ/mol
# Density = 2.269965 g / cm^3
# Si number density = 22.751434 Si / 1000 Ang^3
#
#
#
# Elastic Constant Matrix: (Units=GPa)
#
#
# Indices 1 2 3 4 5 6 
#
# 1 39.5616 36.6325 -5.7580 0.0000 0.0000 0.0000
# 2 36.6325 114.7530 34.3144 0.0000 0.0000 0.0000
# 3 -5.7580 34.3144 73.2358 0.0000 0.0000 0.0000
# 4 0.0000 0.0000 0.0000 7.0125 0.0000 0.0000
# 5 0.0000 0.0000 0.0000 0.0000 29.2341 0.0000
# 6 0.0000 0.0000 0.0000 0.0000 0.0000 5.5392
#
#
#
# Elastic Compliance Matrix: (Units=1/GPa)
#
#
# Indices 1 2 3 4 5 6 
#
# 1 0.042676 -0.017010 0.011325 0.000000 0.000000 0.000000
# 2 -0.017010 0.016914 -0.009262 0.000000 0.000000 0.000000
# 3 0.011325 -0.009262 0.018885 0.000000 0.000000 0.000000
# 4 0.000000 0.000000 0.000000 0.142602 0.000000 0.000000
# 5 0.000000 0.000000 0.000000 0.000000 0.034207 0.000000
# 6 0.000000 0.000000 0.000000 0.000000 0.000000 0.180532
#
#
# Mechanical properties :
#
#
# Convention : Reuss Voigt Hill
#
# Bulk Modulus (GPa) = 20.58430 39.76977 30.17704
# Shear Modulus (GPa) = 10.37552 19.18127 14.77840
#
# Velocity S-wave (km/s) = 2.13782 2.90673 2.55141
# Velocity P-wave (km/s) = 3.89369 5.36503 4.68745
#
# Compressibility (1/GPa) = 0.04858070
#
# Stress axis : x y z
#
# Youngs Moduli (GPa) = 23.43240 59.12201 52.95249
#
# Poissons Ratio (x) = 1.00566 -0.59970
# Poissons Ratio (y) = 0.39858 0.49047
# Poissons Ratio (z) = -0.26538 0.54762
#
# Static dielectric constant tensor:
#      x y z
#    x 1.792750 0.000000 0.000000 
#    y 0.000000 1.858340 0.000000 
#    z 0.000000 0.000000 1.916900 
# 
# From -- ./inp_files/15223.got.cif
#   From: 2010.05.17/outbox.cif.g08.bks.cpg/sg74_8_cif.got.tgz:15223.got - 2010.06.03 17:57:02.
