data_PCOD9534996
_publ_section_title
;
Structure prediction by ZEFSAII (Michael W. Deem and Ramdas Pophale) SiO2 
 PCOD9534996
Probable space group: I M M A
;
_chemical_formula_sum "Si O2"
_cell_formula_units_Z 104
_cell_length_a 28.822944
_cell_length_b 22.851263
_cell_length_c 8.575414
_cell_angle_alpha 90.000000
_cell_angle_beta 90.000000
_cell_angle_gamma 90.000000
_cell_volume 5648.116455
_symmetry_space_group_name_H-M "I M M A"
_symmetry_group_IT_number 74
_symmetry_cell_setting 'orthorhombic'
loop_
_space_group_symop_operation_xyz
x,y,z
-x,1/2-y,z
x,-y,-z
-x,1/2+y,-z
-x,-y,-z
x,1/2+y,-z
-x,y,z
x,1/2-y,z
1/2+x,1/2+y,1/2+z
1/2-x,-y,1/2+z
1/2+x,1/2-y,1/2-z
1/2-x,y,1/2-z
1/2-x,1/2-y,1/2-z
1/2+x,y,1/2-z
1/2-x,1/2+y,1/2+z
1/2+x,-y,1/2+z
loop_
_atom_site_type_symbol
_atom_site_label
_atom_site_fract_x
_atom_site_fract_y
_atom_site_fract_z
Si Si1 0.301226 0.986267 0.815936
Si Si2 0.949022 0.647909 0.191779
Si Si3 0.947401 0.250000 0.059640
Si Si4 0.312411 0.361114 0.083437
Si Si5 0.867566 0.750000 0.689615
Si Si6 0.722660 0.817445 0.416290
Si Si7 0.850458 0.601839 0.241255
Si Si8 0.550722 0.750000 0.055479
O O1 0.250000 0.993860 0.750000
O O2 0.315608 0.918750 0.810667
O O3 0.333081 0.035148 0.736946
O O4 0.300018 0.000000 0.000000
O O5 0.904631 0.607289 0.207073
O O6 0.947771 0.692744 0.336834
O O7 0.000000 0.619403 0.187948
O O8 0.945087 0.691892 0.046098
O O9 0.902104 0.250000 0.165473
O O10 0.000000 0.250000 0.128145
O O11 0.335744 0.306739 0.168974
O O12 0.259317 0.345413 0.036753
O O13 0.337795 0.374228 0.916283
O O14 0.904381 0.750000 0.548925
O O15 0.711151 0.750000 0.457378
O O16 0.750000 0.815626 0.250000
O O17 0.678548 0.857832 0.379302
O O18 0.500000 0.750000 0.976961
#
# Coordination Sequence:
#
# PCOD9534996 Si02
#       8
#    16  16   8  16   8  16  16   8
#     4  10  21  40  57  76 110 151 194 224 266 334
#     4   9  18  34  55  83 109 134 184 239 274 322
#     4   9  21  37  52  78 117 152 182 226 283 342
#     4  10  20  34  53  83 119 143 182 232 271 337
#     4  12  19  34  54  82 117 151 173 220 293 337
#     4   9  17  28  50  82 113 141 175 225 278 320
#     4  10  18  32  60  82 104 148 190 230 277 324
#     4   9  17  29  54  82 105 139 181 222 267 331
#
# _framework density 18.413219000000002
#
# number of rings (size 3 to 8) (size 9 to 14) (size 15 to 20)
#    0.000    2.308    2.308    3.462    3.231    0.000 
#    5.538    0.385    0.000    6.000    0.000    2.154 
#    0.000    0.000    0.000    0.000    0.000    0.000 
#
# Total GULP energy -290162.803860 kJ/mol
# GULP energy per Si atom -5580.053920 kJ/mol
# Density = 1.837131 g / cm^3
# Si number density = 18.413219 Si / 1000 Ang^3
#
#
#
# Elastic Constant Matrix: (Units=GPa)
#
#
# Indices 1 2 3 4 5 6 
#
# 1 172.6399 87.9629 34.5611 0.0000 0.0000 0.0000
# 2 87.9629 152.2765 25.6992 0.0000 0.0000 0.0000
# 3 34.5611 25.6992 32.5312 0.0000 0.0000 0.0000
# 4 0.0000 0.0000 0.0000 6.2393 0.0000 0.0000
# 5 0.0000 0.0000 0.0000 0.0000 23.5219 0.0000
# 6 0.0000 0.0000 0.0000 0.0000 0.0000 6.1951
#
#
#
# Elastic Compliance Matrix: (Units=1/GPa)
#
#
# Indices 1 2 3 4 5 6 
#
# 1 0.009256 -0.004254 -0.006472 0.000000 0.000000 0.000000
# 2 -0.004254 0.009533 -0.003011 0.000000 0.000000 0.000000
# 3 -0.006472 -0.003011 0.039995 0.000000 0.000000 0.000000
# 4 0.000000 0.000000 0.000000 0.160275 0.000000 0.000000
# 5 0.000000 0.000000 0.000000 0.000000 0.042514 0.000000
# 6 0.000000 0.000000 0.000000 0.000000 0.000000 0.161419
#
#
# Mechanical properties :
#
#
# Convention : Reuss Voigt Hill
#
# Bulk Modulus (GPa) = 31.94105 72.65489 52.29797
# Shear Modulus (GPa) = 10.84829 21.13953 15.99391
#
# Velocity S-wave (km/s) = 2.42989 3.39198 2.95042
# Velocity P-wave (km/s) = 5.02563 7.40840 6.33014
#
# Compressibility (1/GPa) = 0.03130767
#
# Stress axis : x y z
#
# Youngs Moduli (GPa) = 108.04078 104.90275 25.00336
#
# Poissons Ratio (x) = 0.44629 0.16183
# Poissons Ratio (y) = 0.45964 0.07528
# Poissons Ratio (z) = 0.69929 0.31585
#
# Static dielectric constant tensor:
#      x y z
#    x 1.620110 0.000000 0.000000 
#    y 0.000000 1.622500 0.000000 
#    z 0.000000 0.000000 1.663090 
# 
# From -- ./inp_files/16228.got.cif
#   From: 2010.05.17/outbox.cif.g08.bks.cpg/sg74_9_cif.got.tgz:16228.got - 2010.06.03 17:57:02.
