data_PCOD9534847
_publ_section_title
;
Structure prediction by ZEFSAII (Michael W. Deem and Ramdas Pophale) SiO2 
 PCOD9534847
Probable space group: I M M A
;
_chemical_formula_sum "Si O2"
_cell_formula_units_Z 112
_cell_length_a 15.263866
_cell_length_b 14.719581
_cell_length_c 26.340339
_cell_angle_alpha 90.000000
_cell_angle_beta 90.000000
_cell_angle_gamma 90.000000
_cell_volume 5918.087099
_symmetry_space_group_name_H-M "I M M A"
_symmetry_group_IT_number 74
_symmetry_cell_setting 'orthorhombic'
loop_
_space_group_symop_operation_xyz
x,y,z
-x,1/2-y,z
x,-y,-z
-x,1/2+y,-z
-x,-y,-z
x,1/2+y,-z
-x,y,z
x,1/2-y,z
1/2+x,1/2+y,1/2+z
1/2-x,-y,1/2+z
1/2+x,1/2-y,1/2-z
1/2-x,y,1/2-z
1/2-x,1/2-y,1/2-z
1/2+x,y,1/2-z
1/2-x,1/2+y,1/2+z
1/2+x,-y,1/2+z
loop_
_atom_site_type_symbol
_atom_site_label
_atom_site_fract_x
_atom_site_fract_y
_atom_site_fract_z
Si Si1 0.399843 0.602432 0.877283
Si Si2 0.262584 0.351905 0.926891
Si Si3 0.898660 0.140482 0.865183
Si Si4 0.100468 0.358888 0.492442
Si Si5 0.349130 0.152248 0.230742
Si Si6 0.144899 0.952522 0.241604
Si Si7 0.404265 0.609341 0.151364
O O1 0.500000 0.635563 0.872736
O O2 0.372588 0.623514 0.934404
O O3 0.348169 0.644059 0.830329
O O4 0.400236 0.495042 0.867278
O O5 0.241844 0.250000 0.945417
O O6 0.171401 0.392639 0.907315
O O7 0.323853 0.345845 0.877081
O O8 0.326714 0.395798 0.968747
O O9 0.886008 0.250000 0.858780
O O10 0.878595 0.090247 0.812227
O O11 0.000000 0.125618 0.879049
O O12 0.096409 0.250000 0.500275
O O13 0.000000 0.392739 0.500469
O O14 0.390232 0.250000 0.244365
O O15 0.250000 0.153991 0.250000
O O16 0.387491 0.057123 0.251617
O O17 0.250000 0.953350 0.250000
O O18 0.106297 0.894370 0.288172
O O19 0.500000 0.645672 0.137170
#
# Coordination Sequence:
#
# PCOD9534847 Si02
#       7
#    16  16  16  16  16  16  16
#     4   9  18  31  49  74 105 139 169 199 246 309
#     4  10  20  33  49  70  98 132 171 212 258 307
#     4  10  21  36  53  73  99 135 180 224 264 307
#     4   9  17  30  49  75 106 136 167 205 251 308
#     4   9  18  31  50  77 107 138 172 208 249 302
#     4  10  18  32  51  71 103 138 174 213 260 308
#     4  10  19  30  46  71 102 133 167 205 249 304
#
# _framework density 18.925035000000001
#
# number of rings (size 3 to 8) (size 9 to 14) (size 15 to 20)
#    0.000    2.429    1.429    1.286    0.000    3.714 
#    0.000    2.143    0.000    0.000    0.000    3.000 
#    0.000    4.571    0.000    0.000    0.000    0.000 
#
# Total GULP energy -312168.761554 kJ/mol
# GULP energy per Si atom -5574.442171 kJ/mol
# Density = 1.888196 g / cm^3
# Si number density = 18.925035 Si / 1000 Ang^3
#
#
#
# Elastic Constant Matrix: (Units=GPa)
#
#
# Indices 1 2 3 4 5 6 
#
# 1 118.9558 16.4687 63.2641 0.0000 0.0000 0.0000
# 2 16.4687 58.9301 16.7943 0.0000 0.0000 0.0000
# 3 63.2641 16.7943 128.0421 0.0000 0.0000 0.0000
# 4 0.0000 0.0000 0.0000 5.6361 0.0000 0.0000
# 5 0.0000 0.0000 0.0000 0.0000 31.7034 0.0000
# 6 0.0000 0.0000 0.0000 0.0000 0.0000 -1.2743
#
#
#
# Elastic Compliance Matrix: (Units=1/GPa)
#
#
# Indices 1 2 3 4 5 6 
#
# 1 0.011558 -0.001665 -0.005492 0.000000 0.000000 0.000000
# 2 -0.001665 0.017868 -0.001521 0.000000 0.000000 0.000000
# 3 -0.005492 -0.001521 0.010723 0.000000 0.000000 0.000000
# 4 0.000000 0.000000 0.000000 0.177429 0.000000 0.000000
# 5 0.000000 0.000000 0.000000 0.000000 0.031542 0.000000
# 6 0.000000 0.000000 0.000000 0.000000 0.000000 -0.784760
#
#
# Mechanical properties :
#
#
# Convention : Reuss Voigt Hill
#
# Bulk Modulus (GPa) = 43.87354 55.44247 49.65800
# Shear Modulus (GPa) = -9.79075 21.17311 5.69118
#
# Velocity S-wave (km/s) = -2.27699 3.34846 1.73602
# Velocity P-wave (km/s) = 4.03983 6.65650 5.50587
#
# Compressibility (1/GPa) = 0.02279278
#
# Stress axis : x y z
#
# Youngs Moduli (GPa) = 86.52087 55.96606 93.25662
#
# Poissons Ratio (x) = 0.09317 0.51219
# Poissons Ratio (y) = 0.14404 0.14185
# Poissons Ratio (z) = 0.47520 0.08513
#
# Static dielectric constant tensor:
#      x y z
#    x 1.678490 0.000000 0.000000 
#    y 0.000000 1.736100 0.000000 
#    z 0.000000 0.000000 1.649710 
# 
# From -- ./inp_files/67246.got.cif
#   From: 2010.05.17/outbox.cif.g08.bks.cpg/sg74_34_cif.got.tgz:67246.got - 2010.06.03 17:57:02.
