data_PCOD9534538
_publ_section_title
;
Structure prediction by ZEFSAII (Michael W. Deem and Ramdas Pophale) SiO2 
 PCOD9534538
Probable space group: I M M A
;
_chemical_formula_sum "Si O2"
_cell_formula_units_Z 96
_cell_length_a 18.439601
_cell_length_b 18.334250
_cell_length_c 16.704241
_cell_angle_alpha 90.000000
_cell_angle_beta 90.000000
_cell_angle_gamma 90.000000
_cell_volume 5647.307234
_symmetry_space_group_name_H-M "I M M A"
_symmetry_group_IT_number 74
_symmetry_cell_setting 'orthorhombic'
loop_
_space_group_symop_operation_xyz
x,y,z
-x,1/2-y,z
x,-y,-z
-x,1/2+y,-z
-x,-y,-z
x,1/2+y,-z
-x,y,z
x,1/2-y,z
1/2+x,1/2+y,1/2+z
1/2-x,-y,1/2+z
1/2+x,1/2-y,1/2-z
1/2-x,y,1/2-z
1/2-x,1/2-y,1/2-z
1/2+x,y,1/2-z
1/2-x,1/2+y,1/2+z
1/2+x,-y,1/2+z
loop_
_atom_site_type_symbol
_atom_site_label
_atom_site_fract_x
_atom_site_fract_y
_atom_site_fract_z
Si Si1 0.274620 0.662884 0.999241
Si Si2 0.140298 0.086757 0.076698
Si Si3 0.706640 0.163353 0.672090
Si Si4 0.912545 0.833687 0.765560
Si Si5 0.417990 0.338596 0.087769
Si Si6 0.084810 0.576760 0.092390
O O1 0.263308 0.750000 0.982124
O O2 0.220259 0.613460 0.947302
O O3 0.356799 0.643746 0.976504
O O4 0.254168 0.651613 0.091844
O O5 0.117125 0.123964 0.158769
O O6 0.125514 0.001055 0.088145
O O7 0.093251 0.108669 0.997919
O O8 0.695196 0.250000 0.680997
O O9 0.750000 0.136825 0.750000
O O10 0.629885 0.125455 0.654160
O O11 0.887380 0.750000 0.770653
O O12 0.894250 0.862985 0.676940
O O13 0.000000 0.833898 0.768866
O O14 0.500000 0.364022 0.070860
O O15 0.421422 0.250000 0.092325
O O16 0.000000 0.567513 0.110740
#
# Coordination Sequence:
#
# PCOD9534538 Si02
#       6
#    16  16  16  16  16  16
#     4   9  17  30  50  74 100 134 171 206 248 297
#     4  10  18  30  47  71 103 134 165 199 244 299
#     4   9  19  37  56  73  96 124 160 213 265 306
#     4   9  16  26  42  66 100 136 164 195 233 277
#     4   8  15  28  44  66  99 134 167 202 237 277
#     4  10  20  34  52  73  99 129 161 203 252 305
#
# _framework density 16.999253
#
# number of rings (size 3 to 8) (size 9 to 14) (size 15 to 20)
#    0.000    2.833    0.000    3.500    0.000    1.667 
#    3.000    3.333    0.000    3.000    0.000    9.333 
#    0.000    0.000    0.000    0.000    0.000    0.000 
#
# Total GULP energy -267261.195807 kJ/mol
# GULP energy per Si atom -5567.941579 kJ/mol
# Density = 1.696056 g / cm^3
# Si number density = 16.999253 Si / 1000 Ang^3
#
#
#
# Elastic Constant Matrix: (Units=GPa)
#
#
# Indices 1 2 3 4 5 6 
#
# 1 107.1874 40.7667 54.2248 0.0000 0.0000 0.0000
# 2 40.7667 31.5802 30.4950 0.0000 0.0000 0.0000
# 3 54.2248 30.4950 65.2504 0.0000 0.0000 0.0000
# 4 0.0000 0.0000 0.0000 9.6056 0.0000 0.0000
# 5 0.0000 0.0000 0.0000 0.0000 20.1610 0.0000
# 6 0.0000 0.0000 0.0000 0.0000 0.0000 8.7302
#
#
#
# Elastic Compliance Matrix: (Units=1/GPa)
#
#
# Indices 1 2 3 4 5 6 
#
# 1 0.020663 -0.018393 -0.008576 0.000000 0.000000 0.000000
# 2 -0.018393 0.074082 -0.019337 0.000000 0.000000 0.000000
# 3 -0.008576 -0.019337 0.031489 0.000000 0.000000 0.000000
# 4 0.000000 0.000000 0.000000 0.104105 0.000000 0.000000
# 5 0.000000 0.000000 0.000000 0.000000 0.049601 0.000000
# 6 0.000000 0.000000 0.000000 0.000000 0.000000 0.114546
#
#
# Mechanical properties :
#
#
# Convention : Reuss Voigt Hill
#
# Bulk Modulus (GPa) = 29.74191 50.55454 40.14823
# Shear Modulus (GPa) = 10.03401 12.93480 11.48440
#
# Velocity S-wave (km/s) = 2.43217 2.76144 2.60202
# Velocity P-wave (km/s) = 5.04195 6.32228 5.71806
#
# Compressibility (1/GPa) = 0.03362258
#
# Stress axis : x y z
#
# Youngs Moduli (GPa) = 48.39515 13.49860 31.75672
#
# Poissons Ratio (x) = 0.24828 0.27233
# Poissons Ratio (y) = 0.89014 0.61408
# Poissons Ratio (z) = 0.41502 0.26102
#
# Static dielectric constant tensor:
#      x y z
#    x 1.571190 0.000000 0.000000 
#    y 0.000000 1.592950 0.000000 
#    z 0.000000 0.000000 1.583130 
# 
# From -- ./inp_files/44133.got.cif
#   From: 2010.05.17/outbox.cif.g08.bks.cpg/sg74_23_cif.got.tgz:44133.got - 2010.06.03 17:57:02.
