data_PCOD9534102
_publ_section_title
;
Structure prediction by ZEFSAII (Michael W. Deem and Ramdas Pophale) SiO2 
 PCOD9534102
Probable space group: I M M A
;
_chemical_formula_sum "Si O2"
_cell_formula_units_Z 80
_cell_length_a 27.740773
_cell_length_b 18.365858
_cell_length_c 8.385720
_cell_angle_alpha 90.000000
_cell_angle_beta 90.000000
_cell_angle_gamma 90.000000
_cell_volume 4272.382602
_symmetry_space_group_name_H-M "I M M A"
_symmetry_group_IT_number 74
_symmetry_cell_setting 'orthorhombic'
loop_
_space_group_symop_operation_xyz
x,y,z
-x,1/2-y,z
x,-y,-z
-x,1/2+y,-z
-x,-y,-z
x,1/2+y,-z
-x,y,z
x,1/2-y,z
1/2+x,1/2+y,1/2+z
1/2-x,-y,1/2+z
1/2+x,1/2-y,1/2-z
1/2-x,y,1/2-z
1/2-x,1/2-y,1/2-z
1/2+x,y,1/2-z
1/2-x,1/2+y,1/2+z
1/2+x,-y,1/2+z
loop_
_atom_site_type_symbol
_atom_site_label
_atom_site_fract_x
_atom_site_fract_y
_atom_site_fract_z
Si Si1 0.646976 0.531462 0.170697
Si Si2 0.286559 0.435338 0.389355
Si Si3 0.843680 0.165009 0.869942
Si Si4 0.054936 0.480883 0.186855
Si Si5 0.444450 0.833006 0.553146
O O1 0.670232 0.478229 0.302216
O O2 0.662326 0.613188 0.215798
O O3 0.590329 0.523593 0.200302
O O4 0.659048 0.500000 0.000000
O O5 0.264641 0.500000 0.500000
O O6 0.250000 0.412177 0.250000
O O7 0.308938 0.371325 0.496374
O O8 0.833283 0.250000 0.844809
O O9 0.899409 0.158983 0.931958
O O10 0.000000 0.497832 0.222597
O O11 0.063730 0.500000 0.000000
O O12 0.062250 0.393790 0.188444
O O13 0.500000 0.844469 0.490459
O O14 0.442334 0.750000 0.611311
#
# Coordination Sequence:
#
# PCOD9534102 Si02
#       5
#    16  16  16  16  16
#     4  11  21  35  53  79 114 150 184 223 277 335
#     4  10  20  37  60  83 107 142 186 227 280 334
#     4  10  20  36  57  83 113 144 188 235 275 325
#     4  10  17  30  51  76 106 142 191 235 268 321
#     4   9  16  28  51  79 107 142 183 228 274 318
#
# _framework density 18.724913999999998
#
# number of rings (size 3 to 8) (size 9 to 14) (size 15 to 20)
#    0.000    2.000    4.000    1.200    0.000    0.800 
#    0.000    2.000    0.000   20.400    0.000    0.000 
#    0.000    0.000    0.000    0.000    0.000    0.000 
#
# Total GULP energy -222874.568504 kJ/mol
# GULP energy per Si atom -5571.864213 kJ/mol
# Density = 1.868230 g / cm^3
# Si number density = 18.724914 Si / 1000 Ang^3
#
#
#
# Elastic Constant Matrix: (Units=GPa)
#
#
# Indices 1 2 3 4 5 6 
#
# 1 76.2933 33.1740 34.3914 0.0000 0.0000 0.0000
# 2 33.1740 164.2070 53.1593 0.0000 0.0000 0.0000
# 3 34.3914 53.1593 83.9678 0.0000 0.0000 0.0000
# 4 0.0000 0.0000 0.0000 19.1913 0.0000 0.0000
# 5 0.0000 0.0000 0.0000 0.0000 8.1991 0.0000
# 6 0.0000 0.0000 0.0000 0.0000 0.0000 6.8673
#
#
#
# Elastic Compliance Matrix: (Units=1/GPa)
#
#
# Indices 1 2 3 4 5 6 
#
# 1 0.016337 -0.001427 -0.005788 0.000000 0.000000 0.000000
# 2 -0.001427 0.007784 -0.004344 0.000000 0.000000 0.000000
# 3 -0.005788 -0.004344 0.017030 0.000000 0.000000 0.000000
# 4 0.000000 0.000000 0.000000 0.052107 0.000000 0.000000
# 5 0.000000 0.000000 0.000000 0.000000 0.121965 0.000000
# 6 0.000000 0.000000 0.000000 0.000000 0.000000 0.145618
#
#
# Mechanical properties :
#
#
# Convention : Reuss Voigt Hill
#
# Bulk Modulus (GPa) = 55.45052 62.87974 59.16513
# Shear Modulus (GPa) = 12.82151 20.43441 16.62796
#
# Velocity S-wave (km/s) = 2.61957 3.30706 2.98319
# Velocity P-wave (km/s) = 6.23114 6.94521 6.59784
#
# Compressibility (1/GPa) = 0.01803410
#
# Stress axis : x y z
#
# Youngs Moduli (GPa) = 61.21162 128.46272 58.71977
#
# Poissons Ratio (x) = 0.18328 0.33987
# Poissons Ratio (y) = 0.08733 0.25507
# Poissons Ratio (z) = 0.35429 0.55803
#
# Static dielectric constant tensor:
#      x y z
#    x 1.703700 0.000000 0.000000 
#    y 0.000000 1.672300 0.000000 
#    z 0.000000 0.000000 1.646560 
# 
# From -- ./inp_files/16029.got.cif
#   From: 2010.05.17/outbox.cif.g08.bks.cpg/sg74_9_cif.got.tgz:16029.got - 2010.06.03 17:57:02.
