data_PCOD9534655
_publ_section_title
;
Structure prediction by ZEFSAII (Michael W. Deem and Ramdas Pophale) SiO2 
 PCOD9534655
Probable space group: I M M A
;
_chemical_formula_sum "Si O2"
_cell_formula_units_Z 80
_cell_length_a 14.820679
_cell_length_b 21.839384
_cell_length_c 14.181746
_cell_angle_alpha 90.000000
_cell_angle_beta 90.000000
_cell_angle_gamma 90.000000
_cell_volume 4590.269543
_symmetry_space_group_name_H-M "I M M A"
_symmetry_group_IT_number 74
_symmetry_cell_setting 'orthorhombic'
loop_
_space_group_symop_operation_xyz
x,y,z
-x,1/2-y,z
x,-y,-z
-x,1/2+y,-z
-x,-y,-z
x,1/2+y,-z
-x,y,z
x,1/2-y,z
1/2+x,1/2+y,1/2+z
1/2-x,-y,1/2+z
1/2+x,1/2-y,1/2-z
1/2-x,y,1/2-z
1/2-x,1/2-y,1/2-z
1/2+x,y,1/2-z
1/2-x,1/2+y,1/2+z
1/2+x,-y,1/2+z
loop_
_atom_site_type_symbol
_atom_site_label
_atom_site_fract_x
_atom_site_fract_y
_atom_site_fract_z
Si Si1 0.857725 0.516111 0.743749
Si Si2 0.148272 0.654461 0.713396
Si Si3 0.000000 0.961026 0.904544
Si Si4 0.108863 0.314987 0.498159
Si Si5 0.500000 0.817979 0.634021
Si Si6 0.894670 0.444851 0.562715
O O1 0.750000 0.510255 0.750000
O O2 0.876383 0.582972 0.699600
O O3 0.912881 0.519580 0.841252
O O4 0.889968 0.464965 0.671036
O O5 0.250000 0.659062 0.750000
O O6 0.132483 0.683615 0.612315
O O7 0.085024 0.679677 0.795455
O O8 0.000000 0.885908 0.916148
O O9 0.000000 0.000000 0.000000
O O10 0.141865 0.250000 0.538525
O O11 0.144919 0.377800 0.543200
O O12 0.000000 0.315086 0.506695
O O13 0.500000 0.750000 0.585837
O O14 0.853403 0.500000 0.500000
O O15 0.000000 0.441044 0.535042
#
# Coordination Sequence:
#
# PCOD9534655 Si02
#       6
#    16  16   8  16   8  16
#     4  10  20  35  56  81 107 140 180 225 269 318
#     4  10  19  31  49  77 108 140 169 206 267 333
#     4  10  22  40  58  78 111 147 186 224 272 323
#     4  10  19  30  48  76 110 138 166 212 269 321
#     4  10  20  34  53  73 104 136 171 217 262 321
#     4  10  18  30  54  78 103 134 173 213 263 315
#
# _framework density 17.428170999999999
#
# number of rings (size 3 to 8) (size 9 to 14) (size 15 to 20)
#    0.000    2.000    4.000    0.600    0.000    2.400 
#    3.600    0.000    0.000    1.800    0.000    0.000 
#    0.000    0.000    0.000    0.000    0.000    0.000 
#
# Total GULP energy -222745.901928 kJ/mol
# GULP energy per Si atom -5568.647548 kJ/mol
# Density = 1.738850 g / cm^3
# Si number density = 17.428171 Si / 1000 Ang^3
#
#
#
# Elastic Constant Matrix: (Units=GPa)
#
#
# Indices 1 2 3 4 5 6 
#
# 1 57.2241 16.8788 8.8324 0.0000 0.0000 0.0000
# 2 16.8788 179.4875 62.3387 0.0001 0.0000 0.0000
# 3 8.8324 62.3387 62.3625 0.0002 0.0000 0.0000
# 4 0.0000 0.0001 0.0002 25.5347 0.0000 0.0000
# 5 0.0000 0.0000 0.0000 0.0000 2.8212 0.0000
# 6 0.0000 0.0000 0.0000 0.0000 0.0000 11.6193
#
#
#
# Elastic Compliance Matrix: (Units=1/GPa)
#
#
# Indices 1 2 3 4 5 6 
#
# 1 0.018044 -0.001240 -0.001316 0.000000 0.000000 0.000000
# 2 -0.001240 0.008620 -0.008441 0.000000 0.000000 0.000000
# 3 -0.001316 -0.008441 0.024659 0.000000 0.000000 0.000000
# 4 0.000000 0.000000 0.000000 0.039162 0.000000 0.000000
# 5 0.000000 0.000000 0.000000 0.000000 0.354455 0.000000
# 6 0.000000 0.000000 0.000000 0.000000 0.000000 0.086063
#
#
# Mechanical properties :
#
#
# Convention : Reuss Voigt Hill
#
# Bulk Modulus (GPa) = 34.09564 52.79710 43.44637
# Shear Modulus (GPa) = 8.88456 22.06334 15.47395
#
# Velocity S-wave (km/s) = 2.26028 3.56189 2.98295
# Velocity P-wave (km/s) = 5.13983 6.87575 6.07017
#
# Compressibility (1/GPa) = 0.02932926
#
# Stress axis : x y z
#
# Youngs Moduli (GPa) = 55.42020 116.01479 40.55275
#
# Poissons Ratio (x) = 0.14382 0.05338
# Poissons Ratio (y) = 0.06870 0.34230
# Poissons Ratio (z) = 0.07295 0.97925
#
# Static dielectric constant tensor:
#      x y z
#    x 1.548920 0.000000 0.000000 
#    y 0.000000 1.679820 0.000000 
#    z 0.000000 0.000000 1.562780 
# 
# From -- ./inp_files/22104.got.cif
#   From: 2010.05.17/outbox.cif.g08.bks.cpg/sg74_12_cif.got.tgz:22104.got - 2010.06.03 17:57:02.
