data_PCOD9534230
_publ_section_title
;
Structure prediction by ZEFSAII (Michael W. Deem and Ramdas Pophale) SiO2 
 PCOD9534230
Probable space group: I M M A
;
_chemical_formula_sum "Si O2"
_cell_formula_units_Z 96
_cell_length_a 10.471371
_cell_length_b 25.761212
_cell_length_c 25.707430
_cell_angle_alpha 90.000000
_cell_angle_beta 90.000000
_cell_angle_gamma 90.000000
_cell_volume 6934.713134
_symmetry_space_group_name_H-M "I M M A"
_symmetry_group_IT_number 74
_symmetry_cell_setting 'orthorhombic'
loop_
_space_group_symop_operation_xyz
x,y,z
-x,1/2-y,z
x,-y,-z
-x,1/2+y,-z
-x,-y,-z
x,1/2+y,-z
-x,y,z
x,1/2-y,z
1/2+x,1/2+y,1/2+z
1/2-x,-y,1/2+z
1/2+x,1/2-y,1/2-z
1/2-x,y,1/2-z
1/2-x,1/2-y,1/2-z
1/2+x,y,1/2-z
1/2-x,1/2+y,1/2+z
1/2+x,-y,1/2+z
loop_
_atom_site_type_symbol
_atom_site_label
_atom_site_fract_x
_atom_site_fract_y
_atom_site_fract_z
Si Si1 0.846241 0.500854 0.914316
Si Si2 0.752889 0.033703 0.191518
Si Si3 0.258779 0.191452 0.466878
Si Si4 0.346347 0.414626 0.499692
Si Si5 0.500000 0.308620 0.098972
Si Si6 0.000000 0.807640 0.889832
Si Si7 0.000000 0.607165 0.801795
Si Si8 0.500000 0.896753 0.814370
O O1 0.777328 0.498427 0.858899
O O2 0.816203 0.453097 0.952652
O O3 0.000000 0.501506 0.906907
O O4 0.813711 0.553520 0.946677
O O5 0.750000 0.009991 0.250000
O O6 0.874207 0.072231 0.192018
O O7 0.624783 0.066862 0.182913
O O8 0.265399 0.250000 0.489982
O O9 0.279456 0.141071 0.502496
O O10 0.125803 0.186844 0.436489
O O11 0.375226 0.187553 0.425809
O O12 0.500000 0.407594 0.499137
O O13 0.500000 0.250000 0.121540
O O14 0.500000 0.352972 0.142087
O O15 0.000000 0.849930 0.845595
O O16 0.000000 0.750000 0.866778
O O17 0.000000 0.628260 0.743128
#
# Coordination Sequence:
#
# PCOD9534230 Si02
#       8
#    16  16  16  16   8   8   8   8
#     4   9  16  27  45  66  87 110 138 176 217 259
#     4  10  19  30  44  61  83 112 144 177 215 255
#     4  10  19  30  44  62  85 112 141 174 212 257
#     4   9  16  26  45  69  86 106 139 179 219 254
#     4  10  20  31  41  55  81 117 146 172 214 256
#     4  10  18  27  43  61  77 105 144 186 220 242
#     4  10  18  29  43  57  77 109 146 182 218 250
#     4  10  20  29  41  59  79 109 146 186 216 240
#
# _framework density 13.843399
#
# number of rings (size 3 to 8) (size 9 to 14) (size 15 to 20)
#    0.000    2.333    1.667    4.000    0.000    0.333 
#    0.000    0.833    0.000    9.000    0.000    0.000 
#    0.000    0.667    0.000    0.000    0.000    0.000 
#
# Total GULP energy -267389.215848 kJ/mol
# GULP energy per Si atom -5570.608664 kJ/mol
# Density = 1.381189 g / cm^3
# Si number density = 13.843399 Si / 1000 Ang^3
#
#
#
# Elastic Constant Matrix: (Units=GPa)
#
#
# Indices 1 2 3 4 5 6 
#
# 1 79.4790 17.8724 17.6111 0.0000 0.0000 0.0000
# 2 17.8724 78.6555 38.8950 0.0000 0.0000 0.0000
# 3 17.6111 38.8950 78.0120 0.0000 0.0000 0.0000
# 4 0.0000 0.0000 0.0000 25.7788 0.0000 0.0000
# 5 0.0000 0.0000 0.0000 0.0000 12.5585 0.0000
# 6 0.0000 0.0000 0.0000 0.0000 0.0000 14.2219
#
#
#
# Elastic Compliance Matrix: (Units=1/GPa)
#
#
# Indices 1 2 3 4 5 6 
#
# 1 0.013494 -0.002070 -0.002014 0.000000 0.000000 0.000000
# 2 -0.002070 0.017191 -0.008104 0.000000 0.000000 0.000000
# 3 -0.002014 -0.008104 0.017314 0.000000 0.000000 0.000000
# 4 0.000000 0.000000 0.000000 0.038792 0.000000 0.000000
# 5 0.000000 0.000000 0.000000 0.000000 0.079628 0.000000
# 6 0.000000 0.000000 0.000000 0.000000 0.000000 0.070314
#
#
# Mechanical properties :
#
#
# Convention : Reuss Voigt Hill
#
# Bulk Modulus (GPa) = 42.33243 42.76704 42.54973
# Shear Modulus (GPa) = 18.58857 21.29636 19.94247
#
# Velocity S-wave (km/s) = 3.66836 3.92647 3.79961
# Velocity P-wave (km/s) = 6.97054 7.17752 7.07479
#
# Compressibility (1/GPa) = 0.02362255
#
# Stress axis : x y z
#
# Youngs Moduli (GPa) = 74.10854 58.16851 57.75793
#
# Poissons Ratio (x) = 0.12042 0.11633
# Poissons Ratio (y) = 0.15342 0.46807
# Poissons Ratio (z) = 0.14926 0.47139
#
# Static dielectric constant tensor:
#      x y z
#    x 1.453840 0.000000 0.000000 
#    y 0.000000 1.463430 0.000000 
#    z 0.000000 0.000000 1.463370 
# 
# From -- ./inp_files/51110.got.cif
#   From: 2010.05.17/outbox.cif.g08.bks.cpg/sg74_26_cif.got.tgz:51110.got - 2010.06.03 17:57:02.
