data_PCOD9534358
_publ_section_title
;
Structure prediction by ZEFSAII (Michael W. Deem and Ramdas Pophale) SiO2 
 PCOD9534358
Probable space group: I M M A
;
_chemical_formula_sum "Si O2"
_cell_formula_units_Z 80
_cell_length_a 7.963442
_cell_length_b 26.482556
_cell_length_c 29.073115
_cell_angle_alpha 90.000000
_cell_angle_beta 90.000000
_cell_angle_gamma 90.000000
_cell_volume 6131.296053
_symmetry_space_group_name_H-M "I M M A"
_symmetry_group_IT_number 74
_symmetry_cell_setting 'orthorhombic'
loop_
_space_group_symop_operation_xyz
x,y,z
-x,1/2-y,z
x,-y,-z
-x,1/2+y,-z
-x,-y,-z
x,1/2+y,-z
-x,y,z
x,1/2-y,z
1/2+x,1/2+y,1/2+z
1/2-x,-y,1/2+z
1/2+x,1/2-y,1/2-z
1/2-x,y,1/2-z
1/2-x,1/2-y,1/2-z
1/2+x,y,1/2-z
1/2-x,1/2+y,1/2+z
1/2+x,-y,1/2+z
loop_
_atom_site_type_symbol
_atom_site_label
_atom_site_fract_x
_atom_site_fract_y
_atom_site_fract_z
Si Si1 0.298960 0.750000 0.938232
Si Si2 0.000000 0.011952 0.076023
Si Si3 0.196957 0.140043 0.301746
Si Si4 0.693237 0.250000 0.333309
Si Si5 0.302119 0.927995 0.885857
Si Si6 0.000000 0.082657 0.984631
Si Si7 0.194646 0.358736 0.477432
O O1 0.500000 0.750000 0.929514
O O2 0.214807 0.750000 0.888321
O O3 0.260171 0.699008 0.965679
O O4 0.830189 0.027955 0.102627
O O5 0.000000 0.046594 0.029863
O O6 0.000000 0.954498 0.058795
O O7 0.250000 0.128504 0.250000
O O8 0.233283 0.198264 0.313650
O O9 0.263277 0.102981 0.341475
O O10 0.000000 0.133574 0.304584
O O11 0.500000 0.250000 0.320451
O O12 0.500000 0.943193 0.880720
O O13 0.298645 0.889300 0.929082
O O14 0.168011 0.116105 0.989526
O O15 0.000000 0.361265 0.493418
#
# Coordination Sequence:
#
# PCOD9534358 Si02
#       7
#     8   8  16   8  16   8  16
#     4  10  18  29  43  60  82 112 139 173 203 253
#     4   9  18  30  46  58  82  96 130 170 214 269
#     4  11  22  34  44  57  80 104 137 181 219 262
#     4  12  23  29  44  60  75 108 142 176 220 259
#     4   9  18  30  45  60  76 104 133 169 215 257
#     4   9  18  29  42  64  78 101 126 173 214 252
#     4   9  17  28  43  60  82 105 134 165 206 247
#
# _framework density 13.047810999999999
#
# number of rings (size 3 to 8) (size 9 to 14) (size 15 to 20)
#    0.000    2.200    2.000    1.800    4.200    0.800 
#    0.000    4.000    0.000    0.000    0.000    0.000 
#    0.000    0.000    0.000    0.000    0.000    0.000 
#
# Total GULP energy -222881.277959 kJ/mol
# GULP energy per Si atom -5572.031949 kJ/mol
# Density = 1.301811 g / cm^3
# Si number density = 13.047811 Si / 1000 Ang^3
#
#
#
# Elastic Constant Matrix: (Units=GPa)
#
#
# Indices 1 2 3 4 5 6 
#
# 1 66.7670 42.8402 33.4283 0.0000 0.0000 0.0000
# 2 42.8402 59.8847 39.7306 0.0000 0.0000 0.0000
# 3 33.4283 39.7306 51.6530 0.0000 0.0000 0.0000
# 4 0.0000 0.0000 0.0000 4.9913 0.0000 0.0000
# 5 0.0000 0.0000 0.0000 0.0000 16.4163 0.0000
# 6 0.0000 0.0000 0.0000 0.0000 0.0000 18.8269
#
#
#
# Elastic Compliance Matrix: (Units=1/GPa)
#
#
# Indices 1 2 3 4 5 6 
#
# 1 0.028466 -0.016626 -0.005634 0.000000 0.000000 0.000000
# 2 -0.016626 0.043812 -0.022939 0.000000 0.000000 0.000000
# 3 -0.005634 -0.022939 0.040650 0.000000 0.000000 0.000000
# 4 0.000000 0.000000 0.000000 0.200350 0.000000 0.000000
# 5 0.000000 0.000000 0.000000 0.000000 0.060915 0.000000
# 6 0.000000 0.000000 0.000000 0.000000 0.000000 0.053115
#
#
# Mechanical properties :
#
#
# Convention : Reuss Voigt Hill
#
# Bulk Modulus (GPa) = 44.38574 45.58922 44.98748
# Shear Modulus (GPa) = 9.51986 12.20061 10.86023
#
# Velocity S-wave (km/s) = 2.70407 3.06121 2.88816
# Velocity P-wave (km/s) = 6.62125 6.89280 6.75839
#
# Compressibility (1/GPa) = 0.02252976
#
# Stress axis : x y z
#
# Youngs Moduli (GPa) = 35.12940 22.82485 24.59996
#
# Poissons Ratio (x) = 0.37949 0.13859
# Poissons Ratio (y) = 0.58407 0.56431
# Poissons Ratio (z) = 0.19791 0.52359
#
# Static dielectric constant tensor:
#      x y z
#    x 1.456620 0.000000 0.000000 
#    y 0.000000 1.390060 0.000000 
#    z 0.000000 0.000000 0.348640 
# 
# From -- ./inp_files/56908.got.cif
#   From: 2010.05.17/outbox.cif.g08.bks.cpg/sg74_29_cif.got.tgz:56908.got - 2010.06.03 17:57:02.
