data_PCOD9534979
_publ_section_title
;
Structure prediction by ZEFSAII (Michael W. Deem and Ramdas Pophale) SiO2 
 PCOD9534979
Probable space group: I M M A
;
_chemical_formula_sum "Si O2"
_cell_formula_units_Z 88
_cell_length_a 21.108256
_cell_length_b 17.107244
_cell_length_c 13.346617
_cell_angle_alpha 90.000000
_cell_angle_beta 90.000000
_cell_angle_gamma 90.000000
_cell_volume 4819.517930
_symmetry_space_group_name_H-M "I M M A"
_symmetry_group_IT_number 74
_symmetry_cell_setting 'orthorhombic'
loop_
_space_group_symop_operation_xyz
x,y,z
-x,1/2-y,z
x,-y,-z
-x,1/2+y,-z
-x,-y,-z
x,1/2+y,-z
-x,y,z
x,1/2-y,z
1/2+x,1/2+y,1/2+z
1/2-x,-y,1/2+z
1/2+x,1/2-y,1/2-z
1/2-x,y,1/2-z
1/2-x,1/2-y,1/2-z
1/2+x,y,1/2-z
1/2-x,1/2+y,1/2+z
1/2+x,-y,1/2+z
loop_
_atom_site_type_symbol
_atom_site_label
_atom_site_fract_x
_atom_site_fract_y
_atom_site_fract_z
Si Si1 0.876727 0.157211 0.752230
Si Si2 0.250000 0.560645 0.750000
Si Si3 0.639508 0.842340 0.642784
Si Si4 0.500000 0.154276 0.391092
Si Si5 0.000000 0.844858 0.121664
Si Si6 0.821709 0.048369 0.590181
Si Si7 0.289977 0.839950 0.439995
O O1 0.880648 0.250000 0.728672
O O2 0.866076 0.104341 0.655745
O O3 0.818554 0.146920 0.829819
O O4 0.938248 0.133320 0.815443
O O5 0.306019 0.612116 0.701333
O O6 0.215650 0.507880 0.666642
O O7 0.642996 0.750000 0.666900
O O8 0.566949 0.869644 0.657593
O O9 0.656385 0.849931 0.524516
O O10 0.500000 0.250000 0.391844
O O11 0.500000 0.127431 0.507149
O O12 0.000000 0.750000 0.115508
O O13 0.767706 0.102908 0.541388
O O14 0.852635 0.000000 0.500000
O O15 0.268734 0.750000 0.445411
#
# Coordination Sequence:
#
# PCOD9534979 Si02
#       7
#    16   8  16   8   8  16  16
#     4  10  19  34  57  85 111 140 183 235 293 344
#     4  12  23  36  55  78 120 158 190 224 279 340
#     4  10  20  35  57  87 117 149 185 228 280 342
#     4   9  16  32  59  87 116 142 179 236 289 333
#     4   9  16  30  58  89 111 136 178 238 295 335
#     4  12  23  36  52  76 112 152 189 231 282 331
#     4  10  18  32  57  85 111 139 179 230 286 338
#
# _framework density 18.259086
#
# number of rings (size 3 to 8) (size 9 to 14) (size 15 to 20)
#    0.000    1.636    5.455    0.818    0.000    1.455 
#    0.000    1.364    0.000    2.182    0.000    3.818 
#    0.000    0.000    0.000    0.000    0.000    0.000 
#
# Total GULP energy -245523.475421 kJ/mol
# GULP energy per Si atom -5580.078987 kJ/mol
# Density = 1.821753 g / cm^3
# Si number density = 18.259086 Si / 1000 Ang^3
#
#
#
# Elastic Constant Matrix: (Units=GPa)
#
#
# Indices 1 2 3 4 5 6 
#
# 1 92.7709 34.5845 27.2700 0.0000 0.0000 0.0000
# 2 34.5845 46.7057 38.3118 0.0000 0.0000 0.0000
# 3 27.2700 38.3118 71.3704 0.0000 0.0000 0.0000
# 4 0.0000 0.0000 0.0000 143.5465 0.0000 0.0000
# 5 0.0000 0.0000 0.0000 0.0000 26.4172 0.0000
# 6 0.0000 0.0000 0.0000 0.0000 0.0000 0.9821
#
#
#
# Elastic Compliance Matrix: (Units=1/GPa)
#
#
# Indices 1 2 3 4 5 6 
#
# 1 0.014896 -0.011366 0.000410 0.000000 0.000000 0.000000
# 2 -0.011366 0.046929 -0.020848 0.000000 0.000000 0.000000
# 3 0.000410 -0.020848 0.025046 0.000000 0.000000 0.000000
# 4 0.000000 0.000000 0.000000 0.006966 0.000000 0.000000
# 5 0.000000 0.000000 0.000000 0.000000 0.037854 0.000000
# 6 0.000000 0.000000 0.000000 0.000000 0.000000 1.018252
#
#
# Mechanical properties :
#
#
# Convention : Reuss Voigt Hill
#
# Bulk Modulus (GPa) = 42.99012 45.68661 44.33837
# Shear Modulus (GPa) = 4.09397 41.56789 22.83093
#
# Velocity S-wave (km/s) = 1.49901 4.77651 3.53992
# Velocity P-wave (km/s) = 5.15671 7.44954 6.40653
#
# Compressibility (1/GPa) = 0.02326116
#
# Stress axis : x y z
#
# Youngs Moduli (GPa) = 67.13169 21.30890 39.92606
#
# Poissons Ratio (x) = 0.24220 -0.01636
# Poissons Ratio (y) = 0.76304 0.83240
# Poissons Ratio (z) = -0.02751 0.44426
#
# Static dielectric constant tensor:
#      x y z
#    x 1.629570 0.000000 0.000000 
#    y 0.000000 1.639310 0.000000 
#    z 0.000000 0.000000 1.622950 
# 
# From -- ./inp_files/23720.got.cif
#   From: 2010.05.17/outbox.cif.g08.bks.cpg/sg74_12_cif.got.tgz:23720.got - 2010.06.03 17:57:02.
