data_PCOD9534628
_publ_section_title
;
Structure prediction by ZEFSAII (Michael W. Deem and Ramdas Pophale) SiO2 
 PCOD9534628
Probable space group: I M M A
;
_chemical_formula_sum "Si O2"
_cell_formula_units_Z 80
_cell_length_a 25.529667
_cell_length_b 8.575959
_cell_length_c 21.056548
_cell_angle_alpha 90.000000
_cell_angle_beta 90.000000
_cell_angle_gamma 90.000000
_cell_volume 4610.149624
_symmetry_space_group_name_H-M "I M M A"
_symmetry_group_IT_number 74
_symmetry_cell_setting 'orthorhombic'
loop_
_space_group_symop_operation_xyz
x,y,z
-x,1/2-y,z
x,-y,-z
-x,1/2+y,-z
-x,-y,-z
x,1/2+y,-z
-x,y,z
x,1/2-y,z
1/2+x,1/2+y,1/2+z
1/2-x,-y,1/2+z
1/2+x,1/2-y,1/2-z
1/2-x,y,1/2-z
1/2-x,1/2-y,1/2-z
1/2+x,y,1/2-z
1/2-x,1/2+y,1/2+z
1/2+x,-y,1/2+z
loop_
_atom_site_type_symbol
_atom_site_label
_atom_site_fract_x
_atom_site_fract_y
_atom_site_fract_z
Si Si1 0.000000 0.067032 0.101958
Si Si2 0.722534 0.565312 0.434197
Si Si3 0.000000 0.434470 0.758632
Si Si4 0.613548 0.438154 0.388156
Si Si5 0.717726 0.564319 0.813098
Si Si6 0.384802 0.935137 0.243824
O O1 0.057506 0.004577 0.083357
O O2 0.000000 0.250000 0.086577
O O3 0.000000 0.039433 0.178150
O O4 0.744693 0.500000 0.500000
O O5 0.718261 0.750000 0.436957
O O6 0.664606 0.494102 0.424672
O O7 0.757348 0.515584 0.374274
O O8 0.054807 0.461901 0.723815
O O9 0.000000 0.250000 0.778330
O O10 0.612601 0.250000 0.385760
O O11 0.618929 0.501955 0.316134
O O12 0.723001 0.750000 0.820055
O O13 0.750000 0.516803 0.750000
O O14 0.658076 0.517787 0.799295
O O15 0.374825 0.750000 0.244482
#
# Coordination Sequence:
#
# PCOD9534628 Si02
#       6
#     8  16   8  16  16  16
#     4   8  16  28  47  71 100 137 176 219 264 309
#     4  12  25  40  57  77 105 141 180 223 273 325
#     4   8  16  28  44  73 110 139 170 215 263 313
#     4  10  18  32  51  75 105 139 179 222 267 314
#     4  11  22  36  56  81 110 141 180 225 268 316
#     4  10  18  30  51  79 109 142 178 218 266 314
#
# _framework density 17.353014999999999
#
# number of rings (size 3 to 8) (size 9 to 14) (size 15 to 20)
#    0.000    1.800    2.000    3.600    0.000    2.400 
#    0.000    0.500    0.000    0.000    0.000    0.700 
#    0.000    0.000    0.000    0.000    0.000    0.000 
#
# Total GULP energy -223201.624782 kJ/mol
# GULP energy per Si atom -5580.040620 kJ/mol
# Density = 1.731352 g / cm^3
# Si number density = 17.353015 Si / 1000 Ang^3
#
#
#
# Elastic Constant Matrix: (Units=GPa)
#
#
# Indices 1 2 3 4 5 6 
#
# 1 80.3053 1.4509 29.6742 0.0000 0.0000 0.0000
# 2 1.4509 36.8612 14.0879 0.0000 0.0000 0.0000
# 3 29.6742 14.0879 75.0921 0.0000 0.0000 0.0000
# 4 0.0000 0.0000 0.0000 21.4227 0.0000 0.0000
# 5 0.0000 0.0000 0.0000 0.0000 8.4236 0.0000
# 6 0.0000 0.0000 0.0000 0.0000 0.0000 18.0600
#
#
#
# Elastic Compliance Matrix: (Units=1/GPa)
#
#
# Indices 1 2 3 4 5 6 
#
# 1 0.014688 0.001767 -0.006136 0.000000 0.000000 0.000000
# 2 0.001767 0.029437 -0.006221 0.000000 0.000000 0.000000
# 3 -0.006136 -0.006221 0.016909 0.000000 0.000000 0.000000
# 4 0.000000 0.000000 0.000000 0.046680 0.000000 0.000000
# 5 0.000000 0.000000 0.000000 0.000000 0.118714 0.000000
# 6 0.000000 0.000000 0.000000 0.000000 0.000000 0.055371
#
#
# Mechanical properties :
#
#
# Convention : Reuss Voigt Hill
#
# Bulk Modulus (GPa) = 25.09155 31.40940 28.25048
# Shear Modulus (GPa) = 15.80969 19.38429 17.59699
#
# Velocity S-wave (km/s) = 3.02166 3.34586 3.18788
# Velocity P-wave (km/s) = 5.16379 5.75030 5.46492
#
# Compressibility (1/GPa) = 0.03985406
#
# Stress axis : x y z
#
# Youngs Moduli (GPa) = 68.08378 33.97112 59.14122
#
# Poissons Ratio (x) = -0.06002 0.36287
# Poissons Ratio (y) = -0.12029 0.36790
# Poissons Ratio (z) = 0.41774 0.21133
#
# Static dielectric constant tensor:
#      x y z
#    x 1.632130 0.000000 0.000000 
#    y 0.000000 1.591800 0.000000 
#    z 0.000000 0.000000 1.570380 
# 
# From -- ./inp_files/39798.got.cif
#   From: 2010.05.17/outbox.cif.g08.bks.cpg/sg74_20_cif.got.tgz:39798.got - 2010.06.03 17:57:02.
