data_PCOD9534543
_publ_section_title
;
Structure prediction by ZEFSAII (Michael W. Deem and Ramdas Pophale) SiO2 
 PCOD9534543
Probable space group: I M M A
;
_chemical_formula_sum "Si O2"
_cell_formula_units_Z 104
_cell_length_a 18.140956
_cell_length_b 16.135556
_cell_length_c 24.956833
_cell_angle_alpha 90.000000
_cell_angle_beta 90.000000
_cell_angle_gamma 90.000000
_cell_volume 7305.224683
_symmetry_space_group_name_H-M "I M M A"
_symmetry_group_IT_number 74
_symmetry_cell_setting 'orthorhombic'
loop_
_space_group_symop_operation_xyz
x,y,z
-x,1/2-y,z
x,-y,-z
-x,1/2+y,-z
-x,-y,-z
x,1/2+y,-z
-x,y,z
x,1/2-y,z
1/2+x,1/2+y,1/2+z
1/2-x,-y,1/2+z
1/2+x,1/2-y,1/2-z
1/2-x,y,1/2-z
1/2-x,1/2-y,1/2-z
1/2+x,y,1/2-z
1/2-x,1/2+y,1/2+z
1/2+x,-y,1/2+z
loop_
_atom_site_type_symbol
_atom_site_label
_atom_site_fract_x
_atom_site_fract_y
_atom_site_fract_z
Si Si1 0.203986 0.377133 0.694457
Si Si2 0.410168 0.250000 0.762140
Si Si3 0.412580 0.411807 0.471896
Si Si4 0.704535 0.066152 0.193575
Si Si5 0.916450 0.151064 0.242318
Si Si6 0.815977 0.250000 0.848511
Si Si7 0.669297 0.849257 0.632009
Si Si8 0.413600 0.750000 0.454060
O O1 0.250000 0.377401 0.750000
O O2 0.128332 0.328189 0.707465
O O3 0.193011 0.471255 0.677434
O O4 0.259583 0.327182 0.656194
O O5 0.500000 0.250000 0.761222
O O6 0.372772 0.250000 0.702431
O O7 0.396265 0.500000 0.500000
O O8 0.500000 0.412165 0.457821
O O9 0.364615 0.394846 0.419149
O O10 0.400977 0.333156 0.511116
O O11 0.750000 0.067089 0.250000
O O12 0.629389 0.109437 0.210575
O O13 0.751462 0.116226 0.150082
O O14 0.913073 0.250000 0.248952
O O15 0.881609 0.133785 0.184066
O O16 0.000000 0.122725 0.242677
O O17 0.862609 0.250000 0.902190
O O18 0.670662 0.750000 0.623248
O O19 0.500000 0.750000 0.438474
#
# Coordination Sequence:
#
# PCOD9534543 Si02
#       8
#    16   8  16  16  16   8  16   8
#     4   8  16  29  42  61  88 118 144 184 226 265
#     4   9  16  28  45  64  89 120 154 184 216 265
#     4  10  21  34  46  65  93 122 156 196 229 260
#     4   9  17  28  43  64  89 113 149 185 221 267
#     4   9  17  28  44  66  91 118 147 181 224 272
#     4   9  17  29  46  62  87 121 158 182 222 261
#     4  10  18  30  48  64  87 123 155 184 224 268
#     4  10  20  33  48  66  91 121 155 196 229 256
#
# _framework density 14.236387000000001
#
# number of rings (size 3 to 8) (size 9 to 14) (size 15 to 20)
#    0.000    2.769    0.769    2.077    2.154    3.077 
#    0.000    0.000    0.000    0.000    0.000    0.000 
#    0.000    5.538    0.000    0.000    0.000    0.000 
#
# Total GULP energy -289480.763161 kJ/mol
# GULP energy per Si atom -5566.937753 kJ/mol
# Density = 1.420398 g / cm^3
# Si number density = 14.236387 Si / 1000 Ang^3
#
#
#
# Elastic Constant Matrix: (Units=GPa)
#
#
# Indices 1 2 3 4 5 6 
#
# 1 105.9224 51.2210 49.8232 0.0000 0.0000 0.0000
# 2 51.2210 85.0516 53.3399 0.0000 0.0000 0.0000
# 3 49.8232 53.3399 79.3130 0.0000 0.0000 0.0000
# 4 0.0000 0.0000 0.0000 9.6247 0.0000 0.0000
# 5 0.0000 0.0000 0.0000 0.0000 27.3137 0.0000
# 6 0.0000 0.0000 0.0000 0.0000 0.0000 13.1901
#
#
#
# Elastic Compliance Matrix: (Units=1/GPa)
#
#
# Indices 1 2 3 4 5 6 
#
# 1 0.014653 -0.005278 -0.005655 0.000000 0.000000 0.000000
# 2 -0.005278 0.022235 -0.011638 0.000000 0.000000 0.000000
# 3 -0.005655 -0.011638 0.023988 0.000000 0.000000 0.000000
# 4 0.000000 0.000000 0.000000 0.103899 0.000000 0.000000
# 5 0.000000 0.000000 0.000000 0.000000 0.036612 0.000000
# 6 0.000000 0.000000 0.000000 0.000000 0.000000 0.075814
#
#
# Mechanical properties :
#
#
# Convention : Reuss Voigt Hill
#
# Bulk Modulus (GPa) = 63.55976 64.33949 63.94962
# Shear Modulus (GPa) = 15.26308 17.75256 16.50782
#
# Velocity S-wave (km/s) = 3.27787 3.53510 3.40891
# Velocity P-wave (km/s) = 7.68563 7.87111 7.77892
#
# Compressibility (1/GPa) = 0.01573322
#
# Stress axis : x y z
#
# Youngs Moduli (GPa) = 68.24399 44.97453 41.68795
#
# Poissons Ratio (x) = 0.23737 0.23576
# Poissons Ratio (y) = 0.36019 0.48516
# Poissons Ratio (z) = 0.38595 0.52341
#
# Static dielectric constant tensor:
#      x y z
#    x 1.459640 0.000000 0.000000 
#    y 0.000000 1.488680 0.000000 
#    z 0.000000 0.000000 1.440270 
# 
# From -- ./inp_files/61009.got.cif
#   From: 2010.05.17/outbox.cif.g08.bks.cpg/sg74_31_cif.got.tgz:61009.got - 2010.06.03 17:57:02.
