data_PCOD9534205
_publ_section_title
;
Structure prediction by ZEFSAII (Michael W. Deem and Ramdas Pophale) SiO2 
 PCOD9534205
Probable space group: I M M A
;
_chemical_formula_sum "Si O2"
_cell_formula_units_Z 80
_cell_length_a 18.696868
_cell_length_b 10.658658
_cell_length_c 20.791405
_cell_angle_alpha 90.000000
_cell_angle_beta 90.000000
_cell_angle_gamma 90.000000
_cell_volume 4143.384409
_symmetry_space_group_name_H-M "I M M A"
_symmetry_group_IT_number 74
_symmetry_cell_setting 'orthorhombic'
loop_
_space_group_symop_operation_xyz
x,y,z
-x,1/2-y,z
x,-y,-z
-x,1/2+y,-z
-x,-y,-z
x,1/2+y,-z
-x,y,z
x,1/2-y,z
1/2+x,1/2+y,1/2+z
1/2-x,-y,1/2+z
1/2+x,1/2-y,1/2-z
1/2-x,y,1/2-z
1/2-x,1/2-y,1/2-z
1/2+x,y,1/2-z
1/2-x,1/2+y,1/2+z
1/2+x,-y,1/2+z
loop_
_atom_site_type_symbol
_atom_site_label
_atom_site_fract_x
_atom_site_fract_y
_atom_site_fract_z
Si Si1 0.334328 0.250000 0.762992
Si Si2 0.232224 0.895416 0.553284
Si Si3 0.290604 0.106605 0.311421
Si Si4 0.081244 0.750000 0.390796
Si Si5 0.417122 0.998496 0.749516
Si Si6 0.419978 0.031573 0.095679
O O1 0.250000 0.250000 0.750000
O O2 0.355685 0.250000 0.838568
O O3 0.375083 0.127739 0.737161
O O4 0.252899 0.750000 0.538577
O O5 0.269578 0.943434 0.619245
O O6 0.247555 0.000000 0.500000
O O7 0.147256 0.897692 0.567433
O O8 0.265144 0.250000 0.315260
O O9 0.250000 0.048052 0.250000
O O10 0.373219 0.099858 0.292653
O O11 0.085033 0.884237 0.424857
O O12 0.000000 0.750000 0.359794
O O13 0.500000 0.007531 0.733399
O O14 0.412979 0.968852 0.826130
O O15 0.500000 0.076818 0.079761
#
# Coordination Sequence:
#
# PCOD9534205 Si02
#       6
#     8  16  16   8  16  16
#     4  10  18  26  46  82 126 162 188 228 291 354
#     4  11  25  42  59  84 123 162 203 252 299 363
#     4  10  20  38  61  87 117 149 196 252 309 358
#     4   8  16  30  48  76 116 158 195 238 284 342
#     4  10  19  33  55  89 124 153 196 249 304 363
#     4   9  18  33  56  83 119 160 200 244 296 358
#
# _framework density 19.307887999999998
#
# number of rings (size 3 to 8) (size 9 to 14) (size 15 to 20)
#    0.000    2.200    2.000    2.700    4.200    1.200 
#    1.800    2.000    0.000    0.600    0.000    0.000 
#    0.000    0.000    0.000    0.000    0.000    0.000 
#
# Total GULP energy -223084.376625 kJ/mol
# GULP energy per Si atom -5577.109416 kJ/mol
# Density = 1.926394 g / cm^3
# Si number density = 19.307888 Si / 1000 Ang^3
#
#
#
# Elastic Constant Matrix: (Units=GPa)
#
#
# Indices 1 2 3 4 5 6 
#
# 1 115.1584 11.7101 54.6008 0.0000 0.0000 0.0000
# 2 11.7101 64.2472 36.3836 0.0000 0.0000 0.0000
# 3 54.6008 36.3836 112.5157 0.0000 0.0000 0.0000
# 4 0.0000 0.0000 0.0000 16.0769 0.0000 0.0000
# 5 0.0000 0.0000 0.0000 0.0000 21.8726 0.0000
# 6 0.0000 0.0000 0.0000 0.0000 0.0000 22.3282
#
#
#
# Elastic Compliance Matrix: (Units=1/GPa)
#
#
# Indices 1 2 3 4 5 6 
#
# 1 0.011365 0.001288 -0.005932 0.000000 0.000000 0.000000
# 2 0.001288 0.019200 -0.006833 0.000000 0.000000 0.000000
# 3 -0.005932 -0.006833 0.013976 0.000000 0.000000 0.000000
# 4 0.000000 0.000000 0.000000 0.062201 0.000000 0.000000
# 5 0.000000 0.000000 0.000000 0.000000 0.045719 0.000000
# 6 0.000000 0.000000 0.000000 0.000000 0.000000 0.044786
#
#
# Mechanical properties :
#
#
# Convention : Reuss Voigt Hill
#
# Bulk Modulus (GPa) = 46.32606 55.25669 50.79137
# Shear Modulus (GPa) = 21.98788 24.67065 23.32926
#
# Velocity S-wave (km/s) = 3.37828 3.57844 3.47980
# Velocity P-wave (km/s) = 6.26597 6.76421 6.51985
#
# Compressibility (1/GPa) = 0.02158612
#
# Stress axis : x y z
#
# Youngs Moduli (GPa) = 87.98838 52.08324 71.55234
#
# Poissons Ratio (x) = -0.06706 0.42442
# Poissons Ratio (y) = -0.11329 0.48895
# Poissons Ratio (z) = 0.52191 0.35591
#
# Static dielectric constant tensor:
#      x y z
#    x 1.673450 0.000000 0.000000 
#    y 0.000000 1.742800 0.000000 
#    z 0.000000 0.000000 1.710520 
# 
# From -- ./inp_files/52800.got.cif
#   From: 2010.05.17/outbox.cif.g08.bks.cpg/sg74_27_cif.got.tgz:52800.got - 2010.06.03 17:57:02.
