data_PCOD9534490
_publ_section_title
;
Structure prediction by ZEFSAII (Michael W. Deem and Ramdas Pophale) SiO2 
 PCOD9534490
Probable space group: I M M A
;
_chemical_formula_sum "Si O2"
_cell_formula_units_Z 72
_cell_length_a 16.700062
_cell_length_b 8.658432
_cell_length_c 29.014757
_cell_angle_alpha 90.000000
_cell_angle_beta 90.000000
_cell_angle_gamma 90.000000
_cell_volume 4195.427994
_symmetry_space_group_name_H-M "I M M A"
_symmetry_group_IT_number 74
_symmetry_cell_setting 'orthorhombic'
loop_
_space_group_symop_operation_xyz
x,y,z
-x,1/2-y,z
x,-y,-z
-x,1/2+y,-z
-x,-y,-z
x,1/2+y,-z
-x,y,z
x,1/2-y,z
1/2+x,1/2+y,1/2+z
1/2-x,-y,1/2+z
1/2+x,1/2-y,1/2-z
1/2-x,y,1/2-z
1/2-x,1/2-y,1/2-z
1/2+x,y,1/2-z
1/2-x,1/2+y,1/2+z
1/2+x,-y,1/2+z
loop_
_atom_site_type_symbol
_atom_site_label
_atom_site_fract_x
_atom_site_fract_y
_atom_site_fract_z
Si Si1 0.759019 0.065545 0.137253
Si Si2 0.164366 0.428779 0.276659
Si Si3 0.000000 0.935059 0.947817
Si Si4 0.910005 0.066970 0.808500
Si Si5 0.331295 0.433502 0.551391
O O1 0.756455 0.250000 0.132196
O O2 0.686891 0.019527 0.171700
O O3 0.840824 0.019805 0.163716
O O4 0.764439 0.985928 0.087698
O O5 0.137383 0.250000 0.277312
O O6 0.250000 0.430778 0.250000
O O7 0.106170 0.529746 0.245360
O O8 0.000000 0.750000 0.947077
O O9 0.916109 0.999779 0.929644
O O10 0.000000 0.000000 0.000000
O O11 0.902100 0.250000 0.816682
O O12 0.000000 0.018288 0.820997
O O13 0.318895 0.500000 0.500000
O O14 0.337529 0.250000 0.548734
#
# Coordination Sequence:
#
# PCOD9534490 Si02
#       5
#    16  16   8  16  16
#     4  10  20  33  48  66  89 120 156 191 229 272
#     4   8  16  31  48  65  87 116 150 186 227 273
#     4  10  18  30  44  58  80 112 146 184 226 260
#     4  10  20  31  45  68  95 120 151 189 227 271
#     4  11  21  33  47  64  88 117 152 191 228 268
#
# _framework density 17.161539000000001
#
# number of rings (size 3 to 8) (size 9 to 14) (size 15 to 20)
#    0.000    2.222    0.000    7.000    1.556    6.667 
#    0.000    0.000    0.000    0.000    0.000    0.000 
#    0.000    0.889    0.000    2.889    0.000    4.222 
#
# Total GULP energy -200742.065304 kJ/mol
# GULP energy per Si atom -5576.168481 kJ/mol
# Density = 1.712248 g / cm^3
# Si number density = 17.161539 Si / 1000 Ang^3
#
#
#
# Elastic Constant Matrix: (Units=GPa)
#
#
# Indices 1 2 3 4 5 6 
#
# 1 10.8659 0.8825 6.3740 0.0000 0.0000 0.0000
# 2 0.8825 78.9843 20.3970 0.0000 0.0000 0.0000
# 3 6.3740 20.3970 95.5635 0.0000 0.0000 0.0000
# 4 0.0000 0.0000 0.0000 27.4547 0.0000 0.0000
# 5 0.0000 0.0000 0.0000 0.0000 25.6138 0.0000
# 6 0.0000 0.0000 0.0000 0.0000 0.0000 66.1926
#
#
#
# Elastic Compliance Matrix: (Units=1/GPa)
#
#
# Indices 1 2 3 4 5 6 
#
# 1 0.095806 0.000614 -0.006521 0.000000 0.000000 0.000000
# 2 0.000614 0.013403 -0.002902 0.000000 0.000000 0.000000
# 3 -0.006521 -0.002902 0.011519 0.000000 0.000000 0.000000
# 4 0.000000 0.000000 0.000000 0.036424 0.000000 0.000000
# 5 0.000000 0.000000 0.000000 0.000000 0.039041 0.000000
# 6 0.000000 0.000000 0.000000 0.000000 0.000000 0.015107
#
#
# Mechanical properties :
#
#
# Convention : Reuss Voigt Hill
#
# Bulk Modulus (GPa) = 9.69844 26.74675 18.22260
# Shear Modulus (GPa) = 18.99056 34.36957 26.68006
#
# Velocity S-wave (km/s) = 3.33013 4.48002 3.94717
# Velocity P-wave (km/s) = 4.52216 6.50998 5.60490
#
# Compressibility (1/GPa) = 0.10310935
#
# Stress axis : x y z
#
# Youngs Moduli (GPa) = 10.43774 74.60893 86.81657
#
# Poissons Ratio (x) = -0.04578 0.56614
# Poissons Ratio (y) = -0.00640 0.25192
# Poissons Ratio (z) = 0.06807 0.21649
#
# Static dielectric constant tensor:
#      x y z
#    x 1.582520 0.000000 0.000000 
#    y 0.000000 1.571500 0.000000 
#    z 0.000000 0.000000 1.628860 
# 
# From -- ./inp_files/67448.got.cif
#   From: 2010.05.17/outbox.cif.g08.bks.cpg/sg74_34_cif.got.tgz:67448.got - 2010.06.03 17:57:02.
