data_PCOD9534608
_publ_section_title
;
Structure prediction by ZEFSAII (Michael W. Deem and Ramdas Pophale) SiO2 
 PCOD9534608
Probable space group: I M M A
;
_chemical_formula_sum "Si O2"
_cell_formula_units_Z 80
_cell_length_a 15.254799
_cell_length_b 18.060158
_cell_length_c 14.313528
_cell_angle_alpha 90.000000
_cell_angle_beta 90.000000
_cell_angle_gamma 90.000000
_cell_volume 3943.435366
_symmetry_space_group_name_H-M "I M M A"
_symmetry_group_IT_number 74
_symmetry_cell_setting 'orthorhombic'
loop_
_space_group_symop_operation_xyz
x,y,z
-x,1/2-y,z
x,-y,-z
-x,1/2+y,-z
-x,-y,-z
x,1/2+y,-z
-x,y,z
x,1/2-y,z
1/2+x,1/2+y,1/2+z
1/2-x,-y,1/2+z
1/2+x,1/2-y,1/2-z
1/2-x,y,1/2-z
1/2-x,1/2-y,1/2-z
1/2+x,y,1/2-z
1/2-x,1/2+y,1/2+z
1/2+x,-y,1/2+z
loop_
_atom_site_type_symbol
_atom_site_label
_atom_site_fract_x
_atom_site_fract_y
_atom_site_fract_z
Si Si1 0.904860 0.605855 0.370065
Si Si2 0.157312 0.669115 0.195172
Si Si3 0.895870 0.164894 0.425760
Si Si4 0.282067 0.473456 0.109975
Si Si5 0.598798 0.481286 0.609449
O O1 0.907154 0.659304 0.282252
O O2 0.881885 0.650920 0.463062
O O3 0.837721 0.540414 0.346609
O O4 0.000000 0.571201 0.387833
O O5 0.152054 0.750000 0.150713
O O6 0.250000 0.663911 0.250000
O O7 0.133594 0.602432 0.126104
O O8 0.875122 0.250000 0.402719
O O9 0.834652 0.102607 0.380465
O O10 0.000000 0.152940 0.407534
O O11 0.181750 0.470439 0.144121
O O12 0.280451 0.500000 0.000000
O O13 0.591354 0.500000 0.500000
O O14 0.500000 0.489682 0.649906
#
# Coordination Sequence:
#
# PCOD9534608 Si02
#       5
#    16  16  16  16  16
#     4  10  18  30  50  78 112 145 173 214 281 354
#     4  11  22  36  56  85 117 145 179 230 294 349
#     4   9  17  29  49  79 112 144 179 221 275 341
#     4   9  17  31  48  72 105 146 188 228 271 325
#     4  10  21  38  55  73 105 155 206 238 267 324
#
# _framework density 20.28688
#
# number of rings (size 3 to 8) (size 9 to 14) (size 15 to 20)
#    0.000    2.200    2.000    1.800    0.000    4.800 
#    0.000    0.000    0.000    1.800    0.000    4.200 
#    0.000    6.400    0.000    0.000    0.000    0.000 
#
# Total GULP energy -222907.387201 kJ/mol
# GULP energy per Si atom -5572.684680 kJ/mol
# Density = 2.024071 g / cm^3
# Si number density = 20.286880 Si / 1000 Ang^3
#
#
#
# Elastic Constant Matrix: (Units=GPa)
#
#
# Indices 1 2 3 4 5 6 
#
# 1 150.7101 84.9974 -1.8943 0.0000 0.0000 0.0000
# 2 84.9974 156.6682 21.8196 0.0000 0.0000 0.0000
# 3 -1.8943 21.8196 32.8378 0.0000 0.0000 0.0000
# 4 0.0000 0.0000 0.0000 27.8917 0.0000 0.0000
# 5 0.0000 0.0000 0.0000 0.0000 9.3550 0.0000
# 6 0.0000 0.0000 0.0000 0.0000 0.0000 14.8625
#
#
#
# Elastic Compliance Matrix: (Units=1/GPa)
#
#
# Indices 1 2 3 4 5 6 
#
# 1 0.010176 -0.006174 0.004689 0.000000 0.000000 0.000000
# 2 -0.006174 0.010780 -0.007519 0.000000 0.000000 0.000000
# 3 0.004689 -0.007519 0.035719 0.000000 0.000000 0.000000
# 4 0.000000 0.000000 0.000000 0.035853 0.000000 0.000000
# 5 0.000000 0.000000 0.000000 0.000000 0.106894 0.000000
# 6 0.000000 0.000000 0.000000 0.000000 0.000000 0.067283
#
#
# Mechanical properties :
#
#
# Convention : Reuss Voigt Hill
#
# Bulk Modulus (GPa) = 25.86097 61.11795 43.48946
# Shear Modulus (GPa) = 16.80095 26.10808 21.45452
#
# Velocity S-wave (km/s) = 2.88091 3.59129 3.25554
# Velocity P-wave (km/s) = 4.88278 6.88395 5.96784
#
# Compressibility (1/GPa) = 0.03866831
#
# Stress axis : x y z
#
# Youngs Moduli (GPa) = 98.26815 92.76684 27.99604
#
# Poissons Ratio (x) = 0.57275 -0.13129
# Poissons Ratio (y) = 0.60671 0.21050
# Poissons Ratio (z) = -0.46083 0.69751
#
# Static dielectric constant tensor:
#      x y z
#    x 1.877250 0.000000 0.000000 
#    y 0.000000 1.713980 0.000000 
#    z 0.000000 0.000000 1.756800 
# 
# From -- ./inp_files/42671.got.cif
#   From: 2010.05.17/outbox.cif.g08.bks.cpg/sg74_22_cif.got.tgz:42671.got - 2010.06.03 17:57:02.
