data_PCOD9534972
_publ_section_title
;
Structure prediction by ZEFSAII (Michael W. Deem and Ramdas Pophale) SiO2 
 PCOD9534972
Probable space group: I M M A
;
_chemical_formula_sum "Si O2"
_cell_formula_units_Z 104
_cell_length_a 15.361669
_cell_length_b 16.633808
_cell_length_c 18.870180
_cell_angle_alpha 90.000000
_cell_angle_beta 90.000000
_cell_angle_gamma 90.000000
_cell_volume 4821.765999
_symmetry_space_group_name_H-M "I M M A"
_symmetry_group_IT_number 74
_symmetry_cell_setting 'orthorhombic'
loop_
_space_group_symop_operation_xyz
x,y,z
-x,1/2-y,z
x,-y,-z
-x,1/2+y,-z
-x,-y,-z
x,1/2+y,-z
-x,y,z
x,1/2-y,z
1/2+x,1/2+y,1/2+z
1/2-x,-y,1/2+z
1/2+x,1/2-y,1/2-z
1/2-x,y,1/2-z
1/2-x,1/2-y,1/2-z
1/2+x,y,1/2-z
1/2-x,1/2+y,1/2+z
1/2+x,-y,1/2+z
loop_
_atom_site_type_symbol
_atom_site_label
_atom_site_fract_x
_atom_site_fract_y
_atom_site_fract_z
Si Si1 0.500000 0.449685 0.926686
Si Si2 0.146659 0.099350 0.909462
Si Si3 0.676793 0.094377 0.979619
Si Si4 0.000000 0.492741 0.270915
Si Si5 0.908785 0.839797 0.951991
Si Si6 0.500000 0.838489 0.308018
Si Si7 0.727133 0.661103 0.874454
Si Si8 0.684947 0.472623 0.295429
O O1 0.410510 0.401241 0.933842
O O2 0.500000 0.504067 0.856339
O O3 0.500000 0.500000 0.000000
O O4 0.242474 0.127490 0.934133
O O5 0.085268 0.150410 0.857682
O O6 0.159857 0.016011 0.868883
O O7 0.099638 0.097412 0.985136
O O8 0.672111 0.137677 0.056070
O O9 0.693973 0.000000 0.000000
O O10 0.909407 0.456525 0.240247
O O11 0.000000 0.586036 0.245141
O O12 0.909459 0.750000 0.985677
O O13 0.826498 0.838285 0.902324
O O14 0.000000 0.850630 0.913019
O O15 0.500000 0.750000 0.275689
O O16 0.703169 0.750000 0.848324
O O17 0.739538 0.592573 0.816618
O O18 0.750000 0.530618 0.250000
#
# Coordination Sequence:
#
# PCOD9534972 Si02
#       8
#     8  16  16   8  16   8  16  16
#     4  10  22  40  72  91 118 158 218 279 326 355
#     4  10  18  32  56  88 119 159 204 243 298 369
#     4  10  19  37  63  93 120 160 214 267 314 367
#     4  10  24  40  62 103 116 166 224 256 319 386
#     4   9  17  30  53  85 124 156 188 230 287 363
#     4  10  20  36  58  89 136 171 191 236 311 394
#     4  10  22  38  58  90 125 165 204 250 317 378
#     4  11  23  39  60  82 128 162 206 266 308 381
#
# _framework density 21.568860999999998
#
# number of rings (size 3 to 8) (size 9 to 14) (size 15 to 20)
#    0.000    2.000    2.308    1.385    3.231    0.923 
#    0.000    2.308    0.000   25.385    0.000    0.000 
#    0.000    0.000    0.000    0.000    0.000    0.000 
#
# Total GULP energy -289541.738076 kJ/mol
# GULP energy per Si atom -5568.110348 kJ/mol
# Density = 2.151977 g / cm^3
# Si number density = 21.568861 Si / 1000 Ang^3
#
#
#
# Elastic Constant Matrix: (Units=GPa)
#
#
# Indices 1 2 3 4 5 6 
#
# 1 121.6178 1.0319 17.2116 0.0000 0.0000 0.0000
# 2 1.0319 68.5922 -4.6336 0.0000 0.0000 0.0000
# 3 17.2116 -4.6336 63.3893 0.0000 0.0000 0.0000
# 4 0.0000 0.0000 0.0000 11.0950 0.0000 0.0000
# 5 0.0000 0.0000 0.0000 0.0000 10.2285 0.0000
# 6 0.0000 0.0000 0.0000 0.0000 0.0000 41.3251
#
#
#
# Elastic Compliance Matrix: (Units=1/GPa)
#
#
# Indices 1 2 3 4 5 6 
#
# 1 0.008557 -0.000287 -0.002344 0.000000 0.000000 0.000000
# 2 -0.000287 0.014661 0.001150 0.000000 0.000000 0.000000
# 3 -0.002344 0.001150 0.016496 0.000000 0.000000 0.000000
# 4 0.000000 0.000000 0.000000 0.090131 0.000000 0.000000
# 5 0.000000 0.000000 0.000000 0.000000 0.097766 0.000000
# 6 0.000000 0.000000 0.000000 0.000000 0.000000 0.024198
#
#
# Mechanical properties :
#
#
# Convention : Reuss Voigt Hill
#
# Bulk Modulus (GPa) = 27.21077 31.20210 29.20644
# Shear Modulus (GPa) = 18.72499 28.52901 23.62700
#
# Velocity S-wave (km/s) = 2.94963 3.64083 3.31331
# Velocity P-wave (km/s) = 4.92378 5.67203 5.31110
#
# Compressibility (1/GPa) = 0.03675015
#
# Stress axis : x y z
#
# Youngs Moduli (GPa) = 116.86762 68.20861 60.62041
#
# Poissons Ratio (x) = 0.01958 0.14211
# Poissons Ratio (y) = 0.03355 -0.06969
# Poissons Ratio (z) = 0.27397 -0.07842
#
# Static dielectric constant tensor:
#      x y z
#    x 1.853590 0.000000 0.000000 
#    y 0.000000 1.886220 0.000000 
#    z 0.000000 0.000000 1.842800 
# 
# From -- ./inp_files/44237.got.cif
#   From: 2010.05.17/outbox.cif.g08.bks.cpg/sg74_23_cif.got.tgz:44237.got - 2010.06.03 17:57:02.
