data_PCOD9534814
_publ_section_title
;
Structure prediction by ZEFSAII (Michael W. Deem and Ramdas Pophale) SiO2 
 PCOD9534814
Probable space group: I M M A
;
_chemical_formula_sum "Si O2"
_cell_formula_units_Z 96
_cell_length_a 17.534007
_cell_length_b 29.228141
_cell_length_c 10.512929
_cell_angle_alpha 90.000000
_cell_angle_beta 90.000000
_cell_angle_gamma 90.000000
_cell_volume 5387.733440
_symmetry_space_group_name_H-M "I M M A"
_symmetry_group_IT_number 74
_symmetry_cell_setting 'orthorhombic'
loop_
_space_group_symop_operation_xyz
x,y,z
-x,1/2-y,z
x,-y,-z
-x,1/2+y,-z
-x,-y,-z
x,1/2+y,-z
-x,y,z
x,1/2-y,z
1/2+x,1/2+y,1/2+z
1/2-x,-y,1/2+z
1/2+x,1/2-y,1/2-z
1/2-x,y,1/2-z
1/2-x,1/2-y,1/2-z
1/2+x,y,1/2-z
1/2-x,1/2+y,1/2+z
1/2+x,-y,1/2+z
loop_
_atom_site_type_symbol
_atom_site_label
_atom_site_fract_x
_atom_site_fract_y
_atom_site_fract_z
Si Si1 0.798740 0.865038 0.374315
Si Si2 0.161911 0.196450 0.204571
Si Si3 0.345068 0.889185 0.531218
Si Si4 0.414238 0.304321 0.025618
Si Si5 0.589387 0.571501 0.271569
Si Si6 0.412097 0.475043 0.362125
O O1 0.750000 0.849894 0.250000
O O2 0.739826 0.885674 0.475523
O O3 0.849742 0.826183 0.437732
O O4 0.856961 0.903151 0.326309
O O5 0.154878 0.250000 0.165545
O O6 0.250000 0.189702 0.250000
O O7 0.109467 0.188304 0.327811
O O8 0.140653 0.159794 0.096564
O O9 0.395769 0.903759 0.408582
O O10 0.360215 0.930311 0.630088
O O11 0.500000 0.321854 0.000686
O O12 0.414430 0.250000 0.005507
O O13 0.500000 0.574795 0.243932
O O14 0.610522 0.517755 0.275047
O O15 0.411695 0.500000 0.500000
O O16 0.500000 0.461666 0.335987
#
# Coordination Sequence:
#
# PCOD9534814 Si02
#       6
#    16  16  16  16  16  16
#     4  10  20  33  54  80 113 143 183 220 270 319
#     4  10  20  36  56  78 106 141 179 222 276 328
#     4  10  18  31  55  83 106 136 183 228 268 320
#     4  10  21  37  57  80 108 145 184 222 268 325
#     4   9  18  34  55  79 111 148 180 221 270 320
#     4   8  15  30  52  76 103 138 177 215 263 318
#
# _framework density 17.818252999999999
#
# number of rings (size 3 to 8) (size 9 to 14) (size 15 to 20)
#    0.000    2.500    1.667    2.000    0.000    1.667 
#    0.000    8.333    0.000    1.000    0.000    3.500 
#    0.000    0.000    0.000    0.000    0.000    0.000 
#
# Total GULP energy -267387.726576 kJ/mol
# GULP energy per Si atom -5570.577637 kJ/mol
# Density = 1.777770 g / cm^3
# Si number density = 17.818253 Si / 1000 Ang^3
#
#
#
# Elastic Constant Matrix: (Units=GPa)
#
#
# Indices 1 2 3 4 5 6 
#
# 1 99.2008 53.6363 36.8081 -0.0001 0.0000 -0.0004
# 2 53.6363 112.4277 58.1185 -0.0001 -0.0001 0.0002
# 3 36.8081 58.1185 49.0710 -0.0002 -0.0003 0.0029
# 4 -0.0001 -0.0001 -0.0002 21.6068 -0.0002 0.0007
# 5 0.0000 -0.0001 -0.0003 -0.0002 13.2516 -0.0001
# 6 -0.0004 0.0002 0.0029 0.0007 -0.0001 119.6634
#
#
#
# Elastic Compliance Matrix: (Units=1/GPa)
#
#
# Indices 1 2 3 4 5 6 
#
# 1 0.014435 -0.003325 -0.006889 0.000000 0.000000 0.000000
# 2 -0.003325 0.023705 -0.025582 0.000000 0.000000 0.000001
# 3 -0.006889 -0.025582 0.055845 0.000000 0.000001 -0.000001
# 4 0.000000 0.000000 0.000000 0.046282 0.000001 0.000000
# 5 0.000000 0.000000 0.000001 0.000001 0.075462 0.000000
# 6 0.000000 0.000001 -0.000001 0.000000 0.000000 0.008357
#
#
# Mechanical properties :
#
#
# Convention : Reuss Voigt Hill
#
# Bulk Modulus (GPa) = 44.65813 61.98058 53.31935
# Shear Modulus (GPa) = 16.49397 38.38014 27.43705
#
# Velocity S-wave (km/s) = 3.04580 4.64613 3.92832
# Velocity P-wave (km/s) = 6.12264 7.97762 7.11088
#
# Compressibility (1/GPa) = 0.02239234
#
# Stress axis : x y z
#
# Youngs Moduli (GPa) = 69.27802 42.18503 17.90682
#
# Poissons Ratio (x) = 0.14026 0.12337
# Poissons Ratio (y) = 0.23035 0.45809
# Poissons Ratio (z) = 0.47728 1.07916
#
# Static dielectric constant tensor:
#      x y z
#    x 1.610050 0.000000 0.000000 
#    y 0.000000 1.607430 0.000000 
#    z 0.000000 0.000000 1.620350 
# 
# From -- ./inp_files/22653.got.cif
#   From: 2010.05.17/outbox.cif.g08.bks.cpg/sg74_12_cif.got.tgz:22653.got - 2010.06.03 17:57:02.
