data_PCOD9534854
_publ_section_title
;
Structure prediction by ZEFSAII (Michael W. Deem and Ramdas Pophale) SiO2 
 PCOD9534854
Probable space group: I M M A
;
_chemical_formula_sum "Si O2"
_cell_formula_units_Z 56
_cell_length_a 16.250532
_cell_length_b 27.783794
_cell_length_c 5.498536
_cell_angle_alpha 90.000000
_cell_angle_beta 90.000000
_cell_angle_gamma 90.000000
_cell_volume 2482.596886
_symmetry_space_group_name_H-M "I M M A"
_symmetry_group_IT_number 74
_symmetry_cell_setting 'orthorhombic'
loop_
_space_group_symop_operation_xyz
x,y,z
-x,1/2-y,z
x,-y,-z
-x,1/2+y,-z
-x,-y,-z
x,1/2+y,-z
-x,y,z
x,1/2-y,z
1/2+x,1/2+y,1/2+z
1/2-x,-y,1/2+z
1/2+x,1/2-y,1/2-z
1/2-x,y,1/2-z
1/2-x,1/2-y,1/2-z
1/2+x,y,1/2-z
1/2-x,1/2+y,1/2+z
1/2+x,-y,1/2+z
loop_
_atom_site_type_symbol
_atom_site_label
_atom_site_fract_x
_atom_site_fract_y
_atom_site_fract_z
Si Si1 0.842508 0.844378 0.954465
Si Si2 0.330060 0.554767 0.405924
Si Si3 0.000000 0.030198 0.744270
Si Si4 0.154668 0.806937 0.459986
O O1 0.838475 0.901635 0.905516
O O2 0.880168 0.832654 0.219443
O O3 0.883530 0.819712 0.722017
O O4 0.749503 0.824224 0.996399
O O5 0.321222 0.500000 0.500000
O O6 0.250000 0.565821 0.250000
O O7 0.413665 0.557079 0.252318
O O8 0.000000 0.000000 0.500000
O O9 0.000000 0.000000 0.000000
O O10 0.153970 0.750000 0.419602
#
# Coordination Sequence:
#
# PCOD9534854 Si02
#       4
#    16  16   8  16
#     4  10  19  31  51  83 114 147 203 235 293 362
#     4  11  23  38  63  91 126 164 202 255 303 365
#     4  10  24  44  60  86 121 166 209 244 306 364
#     4  10  18  32  51  82 120 149 193 252 295 358
#
# _framework density 22.557026
#
# number of rings (size 3 to 8) (size 9 to 14) (size 15 to 20)
#    0.000    1.714    2.857    5.143    4.000    4.571 
#    0.000    0.000    0.000    0.000    0.000   11.000 
#    0.000    0.000    0.000    0.000    0.000    0.000 
#
# Total GULP energy -156149.648838 kJ/mol
# GULP energy per Si atom -5576.773173 kJ/mol
# Density = 2.250569 g / cm^3
# Si number density = 22.557026 Si / 1000 Ang^3
#
#
#
# Elastic Constant Matrix: (Units=GPa)
#
#
# Indices 1 2 3 4 5 6 
#
# 1 92.1656 -11.6272 3.8064 0.0016 -0.0004 0.0007
# 2 -11.6272 170.2498 33.2327 0.0091 0.0002 0.0047
# 3 3.8064 33.2327 166.0036 0.0526 0.0020 0.0124
# 4 0.0016 0.0091 0.0526 26.8807 0.0026 0.0005
# 5 -0.0004 0.0002 0.0020 0.0026 8.0409 0.0003
# 6 0.0007 0.0047 0.0124 0.0005 0.0003 -11.0792
#
#
#
# Elastic Compliance Matrix: (Units=1/GPa)
#
#
# Indices 1 2 3 4 5 6 
#
# 1 0.010972 0.000831 -0.000418 0.000000 0.000001 0.000001
# 2 0.000831 0.006176 -0.001255 0.000000 0.000000 0.000001
# 3 -0.000418 -0.001255 0.006285 -0.000012 -0.000002 0.000006
# 4 0.000000 0.000000 -0.000012 0.037201 -0.000012 0.000002
# 5 0.000001 0.000000 -0.000002 -0.000012 0.124364 0.000003
# 6 0.000001 0.000001 0.000006 0.000002 0.000003 -0.090259
#
#
# Mechanical properties :
#
#
# Convention : Reuss Voigt Hill
#
# Bulk Modulus (GPa) = 45.98172 53.24923 49.61547
# Shear Modulus (GPa) = 48.22864 31.63561 39.93212
#
# Velocity S-wave (km/s) = 4.62895 3.74902 4.21203
# Velocity P-wave (km/s) = 6.99989 6.51137 6.76005
#
# Compressibility (1/GPa) = 0.02174777
#
# Stress axis : x y z
#
# Youngs Moduli (GPa) = 91.14009 161.92992 159.11243
#
# Poissons Ratio (x) = -0.13455 0.06650
# Poissons Ratio (y) = -0.07573 0.19974
# Poissons Ratio (z) = 0.03809 0.20328
#
# Static dielectric constant tensor:
#      x y z
#    x 1.822070 0.000000 0.000010 
#    y 0.000000 1.839650 -0.000040 
#    z 0.000010 -0.000040 1.785210 
# 
# From -- ./inp_files/2163.got.cif
#   From: 2010.05.17/outbox.cif.g08.bks.cpg/sg74_2_cif.got.tgz:2163.got - 2010.06.03 17:57:02.
