data_PCOD9534836
_publ_section_title
;
Structure prediction by ZEFSAII (Michael W. Deem and Ramdas Pophale) SiO2 
 PCOD9534836
Probable space group: I M M A
;
_chemical_formula_sum "Si O2"
_cell_formula_units_Z 96
_cell_length_a 17.794552
_cell_length_b 15.897549
_cell_length_c 19.909474
_cell_angle_alpha 90.000000
_cell_angle_beta 90.000000
_cell_angle_gamma 90.000000
_cell_volume 5632.186368
_symmetry_space_group_name_H-M "I M M A"
_symmetry_group_IT_number 74
_symmetry_cell_setting 'orthorhombic'
loop_
_space_group_symop_operation_xyz
x,y,z
-x,1/2-y,z
x,-y,-z
-x,1/2+y,-z
-x,-y,-z
x,1/2+y,-z
-x,y,z
x,1/2-y,z
1/2+x,1/2+y,1/2+z
1/2-x,-y,1/2+z
1/2+x,1/2-y,1/2-z
1/2-x,y,1/2-z
1/2-x,1/2-y,1/2-z
1/2+x,y,1/2-z
1/2-x,1/2+y,1/2+z
1/2+x,-y,1/2+z
loop_
_atom_site_type_symbol
_atom_site_label
_atom_site_fract_x
_atom_site_fract_y
_atom_site_fract_z
Si Si1 0.088572 0.346507 0.235333
Si Si2 0.334710 0.658260 0.221443
Si Si3 0.811042 0.474645 0.311676
Si Si4 0.326420 0.073211 0.384476
Si Si5 0.914765 0.847075 0.997729
Si Si6 0.086695 0.597240 0.147247
O O1 0.098324 0.250000 0.257685
O O2 0.122757 0.413371 0.287713
O O3 0.135762 0.360741 0.167041
O O4 0.000000 0.638956 0.776711
O O5 0.350196 0.750000 0.189696
O O6 0.250000 0.661215 0.250000
O O7 0.337874 0.571074 0.179854
O O8 0.387015 0.645585 0.286661
O O9 0.750000 0.474849 0.250000
O O10 0.762152 0.437144 0.372489
O O11 0.354756 0.098092 0.457850
O O12 0.362820 0.984852 0.362393
O O13 0.909111 0.750000 0.977063
O O14 0.905828 0.852338 0.077825
O O15 0.000000 0.877221 0.981882
O O16 0.000000 0.572376 0.154511
#
# Coordination Sequence:
#
# PCOD9534836 Si02
#       6
#    16  16  16  16  16  16
#     4  10  19  30  47  70  96 128 164 205 252 296
#     4  10  18  32  50  67  92 127 163 206 252 292
#     4   9  18  32  46  68  93 125 167 207 245 294
#     4  11  19  31  47  67  95 135 170 200 245 293
#     4  10  21  33  45  68 101 136 173 206 240 289
#     4  11  20  32  49  71  99 132 169 208 244 291
#
# _framework density 17.044889999999999
#
# number of rings (size 3 to 8) (size 9 to 14) (size 15 to 20)
#    0.000    1.833    5.000    3.000    0.000    7.333 
#    0.000    0.000    0.000    0.000    0.000    0.000 
#    0.000    4.000    0.000    2.500    0.000    0.000 
#
# Total GULP energy -267571.660766 kJ/mol
# GULP energy per Si atom -5574.409599 kJ/mol
# Density = 1.700609 g / cm^3
# Si number density = 17.044890 Si / 1000 Ang^3
#
#
#
# Elastic Constant Matrix: (Units=GPa)
#
#
# Indices 1 2 3 4 5 6 
#
# 1 48.1654 27.8254 27.8500 0.0000 0.0000 0.0000
# 2 27.8254 106.2967 9.1432 0.0000 0.0000 0.0000
# 3 27.8500 9.1432 35.1411 0.0000 0.0000 0.0000
# 4 0.0000 0.0000 0.0000 19.1789 0.0000 0.0000
# 5 0.0000 0.0000 0.0000 0.0000 21.1566 0.0000
# 6 0.0000 0.0000 0.0000 0.0000 0.0000 -8.8568
#
#
#
# Elastic Compliance Matrix: (Units=1/GPa)
#
#
# Indices 1 2 3 4 5 6 
#
# 1 0.045417 -0.008994 -0.033653 0.000000 0.000000 0.000000
# 2 -0.008994 0.011404 0.004161 0.000000 0.000000 0.000000
# 3 -0.033653 0.004161 0.054045 0.000000 0.000000 0.000000
# 4 0.000000 0.000000 0.000000 0.052141 0.000000 0.000000
# 5 0.000000 0.000000 0.000000 0.000000 0.047267 0.000000
# 6 0.000000 0.000000 0.000000 0.000000 0.000000 -0.112907
#
#
# Mechanical properties :
#
#
# Convention : Reuss Voigt Hill
#
# Bulk Modulus (GPa) = 29.50512 35.47117 32.48814
# Shear Modulus (GPa) = 26.93430 14.61469 20.77450
#
# Velocity S-wave (km/s) = 3.97948 2.93136 3.49493
# Velocity P-wave (km/s) = 6.20184 5.68443 5.94877
#
# Compressibility (1/GPa) = 0.03389242
#
# Stress axis : x y z
#
# Youngs Moduli (GPa) = 22.01837 87.68758 18.50309
#
# Poissons Ratio (x) = 0.78867 0.62269
# Poissons Ratio (y) = 0.19803 -0.07699
# Poissons Ratio (z) = 0.74099 -0.36485
#
# Static dielectric constant tensor:
#      x y z
#    x 1.589970 0.000000 0.000000 
#    y 0.000000 1.632380 0.000000 
#    z 0.000000 0.000000 1.594640 
# 
# From -- ./inp_files/51918.got.cif
#   From: 2010.05.17/outbox.cif.g08.bks.cpg/sg74_26_cif.got.tgz:51918.got - 2010.06.03 17:57:02.
