data_PCOD9534218
_publ_section_title
;
Structure prediction by ZEFSAII (Michael W. Deem and Ramdas Pophale) SiO2 
 PCOD9534218
Probable space group: I M M A
;
_chemical_formula_sum "Si O2"
_cell_formula_units_Z 80
_cell_length_a 7.827977
_cell_length_b 26.794553
_cell_length_c 28.778242
_cell_angle_alpha 90.000000
_cell_angle_beta 90.000000
_cell_angle_gamma 90.000000
_cell_volume 6036.154086
_symmetry_space_group_name_H-M "I M M A"
_symmetry_group_IT_number 74
_symmetry_cell_setting 'orthorhombic'
loop_
_space_group_symop_operation_xyz
x,y,z
-x,1/2-y,z
x,-y,-z
-x,1/2+y,-z
-x,-y,-z
x,1/2+y,-z
-x,y,z
x,1/2-y,z
1/2+x,1/2+y,1/2+z
1/2-x,-y,1/2+z
1/2+x,1/2-y,1/2-z
1/2-x,y,1/2-z
1/2-x,1/2-y,1/2-z
1/2+x,y,1/2-z
1/2-x,1/2+y,1/2+z
1/2+x,-y,1/2+z
loop_
_atom_site_type_symbol
_atom_site_label
_atom_site_fract_x
_atom_site_fract_y
_atom_site_fract_z
Si Si1 0.000000 0.418827 0.517403
Si Si2 0.200670 0.750000 0.665589
Si Si3 0.807956 0.426504 0.112864
Si Si4 0.699593 0.142432 0.478653
Si Si5 0.500000 0.486344 0.076507
Si Si6 0.295021 0.642316 0.802780
Si Si7 0.705776 0.250000 0.441818
O O1 0.169100 0.385035 0.512718
O O2 0.000000 0.456428 0.560626
O O3 0.000000 0.453808 0.471202
O O4 0.271865 0.698247 0.685673
O O5 0.220017 0.750000 0.610024
O O6 0.000000 0.750000 0.677297
O O7 0.789165 0.386489 0.070809
O O8 0.666557 0.468522 0.104359
O O9 0.779378 0.396438 0.160273
O O10 0.000000 0.446552 0.110620
O O11 0.500000 0.140520 0.493103
O O12 0.751603 0.199420 0.468581
O O13 0.500000 0.642121 0.808886
O O14 0.250000 0.629971 0.750000
O O15 0.500000 0.250000 0.436494
#
# Coordination Sequence:
#
# PCOD9534218 Si02
#       7
#     8   8  16  16   8  16   8
#     4   9  18  29  46  60  80 105 126 177 218 256
#     4  10  21  29  43  58  76 110 144 179 223 261
#     4  10  18  30  46  61  78 105 135 173 219 262
#     4   9  18  28  42  63  83 106 138 167 209 254
#     4   9  18  32  44  62  80  98 134 170 222 271
#     4  11  21  32  42  59  82 107 143 183 223 267
#     4  10  18  27  41  60  83 110 140 177 205 258
#
# _framework density 13.253472
#
# number of rings (size 3 to 8) (size 9 to 14) (size 15 to 20)
#    0.000    2.200    3.000    0.900    1.400    1.600 
#    0.000    4.000    0.000    0.000    0.000    0.000 
#    0.000    0.000    0.000    0.000    0.000    0.000 
#
# Total GULP energy -223047.736990 kJ/mol
# GULP energy per Si atom -5576.193425 kJ/mol
# Density = 1.322331 g / cm^3
# Si number density = 13.253472 Si / 1000 Ang^3
#
#
#
# Elastic Constant Matrix: (Units=GPa)
#
#
# Indices 1 2 3 4 5 6 
#
# 1 79.7258 45.4374 31.3682 0.0000 0.0000 0.0000
# 2 45.4374 66.7692 42.1255 0.0000 0.0000 0.0000
# 3 31.3682 42.1255 48.7013 0.0000 0.0000 0.0000
# 4 0.0000 0.0000 0.0000 7.2892 0.0000 0.0000
# 5 0.0000 0.0000 0.0000 0.0000 13.4057 0.0000
# 6 0.0000 0.0000 0.0000 0.0000 0.0000 6.5252
#
#
#
# Elastic Compliance Matrix: (Units=1/GPa)
#
#
# Indices 1 2 3 4 5 6 
#
# 1 0.020629 -0.012449 -0.002519 0.000000 0.000000 0.000000
# 2 -0.012449 0.040482 -0.026997 0.000000 0.000000 0.000000
# 3 -0.002519 -0.026997 0.045508 0.000000 0.000000 0.000000
# 4 0.000000 0.000000 0.000000 0.137189 0.000000 0.000000
# 5 0.000000 0.000000 0.000000 0.000000 0.074595 0.000000
# 6 0.000000 0.000000 0.000000 0.000000 0.000000 0.153251
#
#
# Mechanical properties :
#
#
# Convention : Reuss Voigt Hill
#
# Bulk Modulus (GPa) = 44.07631 48.11760 46.09695
# Shear Modulus (GPa) = 8.87868 10.52838 9.70353
#
# Velocity S-wave (km/s) = 2.59108 2.82154 2.70876
# Velocity P-wave (km/s) = 6.50232 6.85560 6.68130
#
# Compressibility (1/GPa) = 0.02268793
#
# Stress axis : x y z
#
# Youngs Moduli (GPa) = 48.47520 24.70242 21.97433
#
# Poissons Ratio (x) = 0.30753 0.05535
# Poissons Ratio (y) = 0.60348 0.59325
# Poissons Ratio (z) = 0.12209 0.66690
#
# Static dielectric constant tensor:
#      x y z
#    x 1.468930 0.000000 0.000000 
#    y 0.000000 1.425290 0.000000 
#    z 0.000000 0.000000 1.394630 
# 
# From -- ./inp_files/49020.got.cif
#   From: 2010.05.17/outbox.cif.g08.bks.cpg/sg74_25_cif.got.tgz:49020.got - 2010.06.03 17:57:02.
