data_PCOD9534393
_publ_section_title
;
Structure prediction by ZEFSAII (Michael W. Deem and Ramdas Pophale) SiO2 
 PCOD9534393
Probable space group: I M M A
;
_chemical_formula_sum "Si O2"
_cell_formula_units_Z 128
_cell_length_a 16.589168
_cell_length_b 19.209137
_cell_length_c 23.724282
_cell_angle_alpha 90.000000
_cell_angle_beta 90.000000
_cell_angle_gamma 90.000000
_cell_volume 7560.065129
_symmetry_space_group_name_H-M "I M M A"
_symmetry_group_IT_number 74
_symmetry_cell_setting 'orthorhombic'
loop_
_space_group_symop_operation_xyz
x,y,z
-x,1/2-y,z
x,-y,-z
-x,1/2+y,-z
-x,-y,-z
x,1/2+y,-z
-x,y,z
x,1/2-y,z
1/2+x,1/2+y,1/2+z
1/2-x,-y,1/2+z
1/2+x,1/2-y,1/2-z
1/2-x,y,1/2-z
1/2-x,1/2-y,1/2-z
1/2+x,y,1/2-z
1/2-x,1/2+y,1/2+z
1/2+x,-y,1/2+z
loop_
_atom_site_type_symbol
_atom_site_label
_atom_site_fract_x
_atom_site_fract_y
_atom_site_fract_z
Si Si1 0.200908 0.943673 0.828525
Si Si2 0.305361 0.931959 0.135712
Si Si3 0.406890 0.421966 0.976839
Si Si4 0.096256 0.172083 0.421506
Si Si5 0.594861 0.327744 0.324777
Si Si6 0.596151 0.451135 0.748447
Si Si7 0.309826 0.829292 0.303921
Si Si8 0.664244 0.168460 0.199828
O O1 0.137077 0.891357 0.856526
O O2 0.264747 0.887394 0.804893
O O3 0.250764 0.998420 0.865333
O O4 0.150770 0.990208 0.783141
O O5 0.354653 0.918808 0.079354
O O6 0.366541 0.942687 0.188815
O O7 0.244167 0.869057 0.149861
O O8 0.500000 0.401262 0.964252
O O9 0.408906 0.500000 0.000000
O O10 0.373420 0.376698 0.028750
O O11 0.127134 0.250000 0.430501
O O12 0.114509 0.153698 0.356926
O O13 0.000000 0.171950 0.426530
O O14 0.500000 0.330536 0.331960
O O15 0.623201 0.250000 0.340528
O O16 0.614649 0.337293 0.257824
O O17 0.500000 0.465613 0.748835
O O18 0.617205 0.379670 0.714991
O O19 0.332136 0.750000 0.318075
O O20 0.250000 0.827130 0.250000
O O21 0.690934 0.250000 0.197612
#
# Coordination Sequence:
#
# PCOD9534393 Si02
#       8
#    16  16  16  16  16  16  16  16
#     4  11  20  30  43  63  91 123 158 191 222 261
#     4  10  19  31  47  65  90 125 158 186 222 267
#     4  10  20  32  46  66  93 124 158 194 225 255
#     4   9  18  32  48  67  92 121 154 191 226 260
#     4  10  19  29  43  65  93 124 156 188 221 261
#     4  10  19  30  46  67  92 123 155 186 221 266
#     4   8  16  31  48  67  91 117 146 183 227 274
#     4  10  18  29  46  65  90 126 160 186 218 262
#
# _framework density 16.931070999999999
#
# number of rings (size 3 to 8) (size 9 to 14) (size 15 to 20)
#    0.000    2.250    0.000    5.250    0.000    3.250 
#    0.000    3.750    0.000    2.250    0.000    0.000 
#    0.000   61.500    0.000   16.250    0.000    0.000 
#
# Total GULP energy -356514.354074 kJ/mol
# GULP energy per Si atom -5570.536782 kJ/mol
# Density = 1.689254 g / cm^3
# Si number density = 16.931071 Si / 1000 Ang^3
#
#
#
# Elastic Constant Matrix: (Units=GPa)
#
#
# Indices 1 2 3 4 5 6 
#
# 1 61.5087 24.9582 15.8789 0.0000 0.0000 0.0000
# 2 24.9582 101.8189 17.6984 0.0000 0.0000 0.0000
# 3 15.8789 17.6984 58.2936 0.0000 0.0000 0.0000
# 4 0.0000 0.0000 0.0000 16.2354 0.0000 0.0000
# 5 0.0000 0.0000 0.0000 0.0000 28.4556 0.0000
# 6 0.0000 0.0000 0.0000 0.0000 0.0000 14.7596
#
#
#
# Elastic Compliance Matrix: (Units=1/GPa)
#
#
# Indices 1 2 3 4 5 6 
#
# 1 0.018875 -0.003941 -0.003945 0.000000 0.000000 0.000000
# 2 -0.003941 0.011191 -0.002324 0.000000 0.000000 0.000000
# 3 -0.003945 -0.002324 0.018935 0.000000 0.000000 0.000000
# 4 0.000000 0.000000 0.000000 0.061594 0.000000 0.000000
# 5 0.000000 0.000000 0.000000 0.000000 0.035143 0.000000
# 6 0.000000 0.000000 0.000000 0.000000 0.000000 0.067752
#
#
# Mechanical properties :
#
#
# Convention : Reuss Voigt Hill
#
# Bulk Modulus (GPa) = 34.98839 37.63247 36.31043
# Shear Modulus (GPa) = 20.53909 22.76249 21.65079
#
# Velocity S-wave (km/s) = 3.48674 3.67061 3.57986
# Velocity P-wave (km/s) = 6.07617 6.34347 6.21126
#
# Compressibility (1/GPa) = 0.02858091
#
# Stress axis : x y z
#
# Youngs Moduli (GPa) = 52.97884 89.35419 52.81279
#
# Poissons Ratio (x) = 0.35215 0.20835
# Poissons Ratio (y) = 0.20879 0.12275
# Poissons Ratio (z) = 0.20900 0.20768
#
# Static dielectric constant tensor:
#      x y z
#    x 1.598250 0.000000 0.000000 
#    y 0.000000 1.632510 0.000000 
#    z 0.000000 0.000000 1.558220 
# 
# From -- ./inp_files/61141.got.cif
#   From: 2010.05.17/outbox.cif.g08.bks.cpg/sg74_31_cif.got.tgz:61141.got - 2010.06.03 17:57:02.
