data_PCOD9534466
_publ_section_title
;
Structure prediction by ZEFSAII (Michael W. Deem and Ramdas Pophale) SiO2 
 PCOD9534466
Probable space group: I M M A
;
_chemical_formula_sum "Si O2"
_cell_formula_units_Z 96
_cell_length_a 27.531091
_cell_length_b 8.361115
_cell_length_c 21.042924
_cell_angle_alpha 90.000000
_cell_angle_beta 90.000000
_cell_angle_gamma 90.000000
_cell_volume 4843.883679
_symmetry_space_group_name_H-M "I M M A"
_symmetry_group_IT_number 74
_symmetry_cell_setting 'orthorhombic'
loop_
_space_group_symop_operation_xyz
x,y,z
-x,1/2-y,z
x,-y,-z
-x,1/2+y,-z
-x,-y,-z
x,1/2+y,-z
-x,y,z
x,1/2-y,z
1/2+x,1/2+y,1/2+z
1/2-x,-y,1/2+z
1/2+x,1/2-y,1/2-z
1/2-x,y,1/2-z
1/2-x,1/2-y,1/2-z
1/2+x,y,1/2-z
1/2-x,1/2+y,1/2+z
1/2+x,-y,1/2+z
loop_
_atom_site_type_symbol
_atom_site_label
_atom_site_fract_x
_atom_site_fract_y
_atom_site_fract_z
Si Si1 0.298127 0.075059 0.709892
Si Si2 0.167607 0.941146 0.568828
Si Si3 0.613763 0.062771 0.806896
Si Si4 0.615745 0.442363 0.433933
Si Si5 0.555621 0.556240 0.311176
Si Si6 0.277734 0.931017 0.585770
O O1 0.305980 0.250000 0.678054
O O2 0.250000 0.087640 0.750000
O O3 0.341254 0.048781 0.758375
O O4 0.288278 0.936141 0.660568
O O5 0.170513 0.750000 0.569573
O O6 0.223920 0.003917 0.576207
O O7 0.150209 0.000000 0.500000
O O8 0.132521 0.990198 0.626884
O O9 0.604225 0.250000 0.819672
O O10 0.571342 0.999947 0.759935
O O11 0.591859 0.500000 0.500000
O O12 0.617411 0.250000 0.432930
O O13 0.589494 0.497678 0.369175
O O14 0.671440 0.507571 0.436015
O O15 0.500000 0.510983 0.323897
O O16 0.559299 0.750000 0.310135
O O17 0.275562 0.750000 0.560778
#
# Coordination Sequence:
#
# PCOD9534466 Si02
#       6
#    16  16  16  16  16  16
#     4  10  18  29  50  79 108 144 185 224 269 324
#     4  11  23  37  55  82 117 155 191 229 274 330
#     4  10  20  36  58  83 112 146 185 231 283 338
#     4  11  23  38  57  82 115 154 193 234 278 326
#     4  10  22  41  64  87 110 141 185 236 289 342
#     4  10  21  34  51  79 114 152 191 228 266 316
#
# _framework density 19.818808000000001
#
# number of rings (size 3 to 8) (size 9 to 14) (size 15 to 20)
#    0.000    1.667    3.333    1.500    0.000    3.667 
#    0.000    0.000    0.000    0.500    0.000    0.000 
#    0.000    0.000    0.000    0.000    0.000    0.000 
#
# Total GULP energy -267301.103844 kJ/mol
# GULP energy per Si atom -5568.772997 kJ/mol
# Density = 1.977370 g / cm^3
# Si number density = 19.818808 Si / 1000 Ang^3
#
#
#
# Elastic Constant Matrix: (Units=GPa)
#
#
# Indices 1 2 3 4 5 6 
#
# 1 72.8901 11.8221 55.4385 0.0000 0.0000 0.0000
# 2 11.8221 33.5139 40.3918 0.0000 0.0000 0.0000
# 3 55.4385 40.3918 148.1663 0.0000 0.0000 0.0000
# 4 0.0000 0.0000 0.0000 30.1454 0.0000 0.0000
# 5 0.0000 0.0000 0.0000 0.0000 1.8601 0.0000
# 6 0.0000 0.0000 0.0000 0.0000 0.0000 15.0495
#
#
#
# Elastic Compliance Matrix: (Units=1/GPa)
#
#
# Indices 1 2 3 4 5 6 
#
# 1 0.019355 0.002831 -0.008014 0.000000 0.000000 0.000000
# 2 0.002831 0.044853 -0.013287 0.000000 0.000000 0.000000
# 3 -0.008014 -0.013287 0.013370 0.000000 0.000000 0.000000
# 4 0.000000 0.000000 0.000000 0.033173 0.000000 0.000000
# 5 0.000000 0.000000 0.000000 0.000000 0.537612 0.000000
# 6 0.000000 0.000000 0.000000 0.000000 0.000000 0.066448
#
#
# Mechanical properties :
#
#
# Convention : Reuss Voigt Hill
#
# Bulk Modulus (GPa) = 24.60702 52.20834 38.40768
# Shear Modulus (GPa) = 6.53342 19.20552 12.86947
#
# Velocity S-wave (km/s) = 1.81762 3.11634 2.55101
# Velocity P-wave (km/s) = 4.10462 6.27286 5.30079
#
# Compressibility (1/GPa) = 0.04063881
#
# Stress axis : x y z
#
# Youngs Moduli (GPa) = 51.66572 22.29499 74.79607
#
# Poissons Ratio (x) = -0.06311 0.59939
# Poissons Ratio (y) = -0.14625 0.99379
# Poissons Ratio (z) = 0.41403 0.29622
#
# Static dielectric constant tensor:
#      x y z
#    x 1.751160 0.000000 0.000000 
#    y 0.000000 1.845410 0.000000 
#    z 0.000000 0.000000 1.725430 
# 
# From -- ./inp_files/55050.got.cif
#   From: 2010.05.17/outbox.cif.g08.bks.cpg/sg74_28_cif.got.tgz:55050.got - 2010.06.03 17:57:02.
