data_PCOD9534186
_publ_section_title
;
Structure prediction by ZEFSAII (Michael W. Deem and Ramdas Pophale) SiO2 
 PCOD9534186
Probable space group: I M M A
;
_chemical_formula_sum "Si O2"
_cell_formula_units_Z 68
_cell_length_a 21.487502
_cell_length_b 7.327663
_cell_length_c 21.496167
_cell_angle_alpha 90.000000
_cell_angle_beta 90.000000
_cell_angle_gamma 90.000000
_cell_volume 3384.639709
_symmetry_space_group_name_H-M "I M M A"
_symmetry_group_IT_number 74
_symmetry_cell_setting 'orthorhombic'
loop_
_space_group_symop_operation_xyz
x,y,z
-x,1/2-y,z
x,-y,-z
-x,1/2+y,-z
-x,-y,-z
x,1/2+y,-z
-x,y,z
x,1/2-y,z
1/2+x,1/2+y,1/2+z
1/2-x,-y,1/2+z
1/2+x,1/2-y,1/2-z
1/2-x,y,1/2-z
1/2-x,1/2-y,1/2-z
1/2+x,y,1/2-z
1/2-x,1/2+y,1/2+z
1/2+x,-y,1/2+z
loop_
_atom_site_type_symbol
_atom_site_label
_atom_site_fract_x
_atom_site_fract_y
_atom_site_fract_z
Si Si1 0.500000 0.000000 0.000000
Si Si2 0.255620 0.532691 0.070453
Si Si3 0.197646 0.027178 0.801084
Si Si4 0.929723 0.027893 0.739694
Si Si5 0.894885 0.027401 0.599064
O O1 0.553889 0.038348 0.051686
O O2 0.258727 0.750000 0.077535
O O3 0.216180 0.466833 0.129554
O O4 0.326323 0.465925 0.079415
O O5 0.233641 0.500000 0.000000
O O6 0.197935 0.250000 0.799886
O O7 0.250000 0.972389 0.750000
O O8 0.128410 0.968873 0.781704
O O9 0.930586 0.250000 0.741305
O O10 0.912040 0.976364 0.669208
O O11 0.000000 0.967705 0.755168
O O12 0.897690 0.250000 0.596167
#
# Coordination Sequence:
#
# PCOD9534186 Si02
#       5
#     4  16  16  16  16
#     4  12  18  24  36  58  92 128 146 156 216 284
#     4  10  19  31  46  67  93 121 154 187 227 271
#     4   9  15  25  44  66  87 115 153 194 229 265
#     4   9  15  24  39  62  89 112 141 190 238 263
#     4  10  18  26  38  60  90 121 150 181 216 262
#
# _framework density 20.090765000000001
#
# number of rings (size 3 to 8) (size 9 to 14) (size 15 to 20)
#    0.000    2.353    4.706    0.353    0.000    0.000 
#    0.000    0.000    0.000    1.412    0.000    0.000 
#    0.000    0.000    0.000    0.000    0.000    0.000 
#
# Total GULP energy -189346.195347 kJ/mol
# GULP energy per Si atom -5569.005746 kJ/mol
# Density = 2.004504 g / cm^3
# Si number density = 20.090765 Si / 1000 Ang^3
#
#
#
# Elastic Constant Matrix: (Units=GPa)
#
#
# Indices 1 2 3 4 5 6 
#
# 1 163.2942 5.7170 128.9447 0.0000 0.0000 0.0000
# 2 5.7170 75.9114 4.6112 0.0000 0.0000 0.0000
# 3 128.9447 4.6112 196.2032 0.0000 0.0000 0.0000
# 4 0.0000 0.0000 0.0000 -28.8597 0.0000 0.0000
# 5 0.0000 0.0000 0.0000 0.0000 48.6477 0.0000
# 6 0.0000 0.0000 0.0000 0.0000 0.0000 7.9544
#
#
#
# Elastic Compliance Matrix: (Units=1/GPa)
#
#
# Indices 1 2 3 4 5 6 
#
# 1 0.012746 -0.000452 -0.008366 0.000000 0.000000 0.000000
# 2 -0.000452 0.013208 -0.000014 0.000000 0.000000 0.000000
# 3 -0.008366 -0.000014 0.010595 0.000000 0.000000 0.000000
# 4 0.000000 0.000000 0.000000 -0.034650 0.000000 0.000000
# 5 0.000000 0.000000 0.000000 0.000000 0.020556 0.000000
# 6 0.000000 0.000000 0.000000 0.000000 0.000000 0.125717
#
#
# Mechanical properties :
#
#
# Convention : Reuss Voigt Hill
#
# Bulk Modulus (GPa) = 52.94736 79.32828 66.13782
# Shear Modulus (GPa) = 29.04789 25.29087 27.16938
#
# Velocity S-wave (km/s) = 3.80654 3.55185 3.68140
# Velocity P-wave (km/s) = 6.76246 7.50943 7.14571
#
# Compressibility (1/GPa) = 0.01888668
#
# Stress axis : x y z
#
# Youngs Moduli (GPa) = 78.45660 75.71112 94.38242
#
# Poissons Ratio (x) = 0.03420 0.78960
# Poissons Ratio (y) = 0.03544 0.00128
# Poissons Ratio (z) = 0.65637 0.00102
#
# Static dielectric constant tensor:
#      x y z
#    x 1.679670 0.000000 0.000000 
#    y 0.000000 1.830400 0.000000 
#    z 0.000000 0.000000 1.689860 
# 
# From -- ./inp_files/34939.got.cif
#   From: 2010.05.17/outbox.cif.g08.bks.cpg/sg74_18_cif.got.tgz:34939.got - 2010.06.03 17:57:02.
