data_PCOD9534924
_publ_section_title
;
Structure prediction by ZEFSAII (Michael W. Deem and Ramdas Pophale) SiO2 
 PCOD9534924
Probable space group: I M M A
;
_chemical_formula_sum "Si O2"
_cell_formula_units_Z 56
_cell_length_a 18.340103
_cell_length_b 8.825671
_cell_length_c 18.259949
_cell_angle_alpha 90.000000
_cell_angle_beta 90.000000
_cell_angle_gamma 90.000000
_cell_volume 2955.623184
_symmetry_space_group_name_H-M "I M M A"
_symmetry_group_IT_number 74
_symmetry_cell_setting 'orthorhombic'
loop_
_space_group_symop_operation_xyz
x,y,z
-x,1/2-y,z
x,-y,-z
-x,1/2+y,-z
-x,-y,-z
x,1/2+y,-z
-x,y,z
x,1/2-y,z
1/2+x,1/2+y,1/2+z
1/2-x,-y,1/2+z
1/2+x,1/2-y,1/2-z
1/2-x,y,1/2-z
1/2-x,1/2-y,1/2-z
1/2+x,y,1/2-z
1/2-x,1/2+y,1/2+z
1/2+x,-y,1/2+z
loop_
_atom_site_type_symbol
_atom_site_label
_atom_site_fract_x
_atom_site_fract_y
_atom_site_fract_z
Si Si1 0.416750 0.432192 0.579822
Si Si2 0.726457 0.928104 0.334314
Si Si3 0.855126 0.071960 0.419823
Si Si4 0.500000 0.430546 0.917414
O O1 0.397136 0.500000 0.500000
O O2 0.500000 0.481470 0.597291
O O3 0.417613 0.250000 0.572951
O O4 0.355826 0.468711 0.640907
O O5 0.737194 0.750000 0.354610
O O6 0.750000 0.941798 0.250000
O O7 0.781946 0.032652 0.378052
O O8 0.868327 0.250000 0.425665
O O9 0.847701 0.000000 0.500000
O O10 0.925485 0.992373 0.383159
O O11 0.500000 0.250000 0.920628
O O12 0.500000 0.500000 0.000000
#
# Coordination Sequence:
#
# PCOD9534924 Si02
#       4
#    16  16  16   8
#     4   9  18  34  57  82 108 140 185 237 284 332
#     4  10  21  37  54  79 114 149 188 231 283 344
#     4  11  21  35  56  81 111 145 187 232 280 332
#     4  10  18  32  54  80 108 138 177 222 271 322
#
# _framework density 18.946933999999999
#
# number of rings (size 3 to 8) (size 9 to 14) (size 15 to 20)
#    0.000    2.000    0.000    6.429    0.000    4.000 
#    2.571    0.000    0.000    0.000    0.000    0.000 
#    0.000    0.000    0.000    0.000    0.000    0.000 
#
# Total GULP energy -156162.967588 kJ/mol
# GULP energy per Si atom -5577.248842 kJ/mol
# Density = 1.890381 g / cm^3
# Si number density = 18.946934 Si / 1000 Ang^3
#
#
#
# Elastic Constant Matrix: (Units=GPa)
#
#
# Indices 1 2 3 4 5 6 
#
# 1 136.9299 50.4870 48.1943 0.0000 0.0000 0.0000
# 2 50.4870 108.8396 29.7024 0.0000 0.0000 0.0000
# 3 48.1943 29.7024 48.2430 0.0000 0.0000 0.0000
# 4 0.0000 0.0000 0.0000 20.3603 0.0000 0.0000
# 5 0.0000 0.0000 0.0000 0.0000 3.6710 0.0000
# 6 0.0000 0.0000 0.0000 0.0000 0.0000 31.4853
#
#
#
# Elastic Compliance Matrix: (Units=1/GPa)
#
#
# Indices 1 2 3 4 5 6 
#
# 1 0.011905 -0.002736 -0.010208 0.000000 0.000000 0.000000
# 2 -0.002736 0.011672 -0.004453 0.000000 0.000000 0.000000
# 3 -0.010208 -0.004453 0.033668 0.000000 0.000000 0.000000
# 4 0.000000 0.000000 0.000000 0.049115 0.000000 0.000000
# 5 0.000000 0.000000 0.000000 0.000000 0.272406 0.000000
# 6 0.000000 0.000000 0.000000 0.000000 0.000000 0.031761
#
#
# Mechanical properties :
#
#
# Convention : Reuss Voigt Hill
#
# Bulk Modulus (GPa) = 44.54285 61.19776 52.87031
# Shear Modulus (GPa) = 11.04228 22.14524 16.59376
#
# Velocity S-wave (km/s) = 2.41674 3.42249 2.96261
# Velocity P-wave (km/s) = 5.59891 6.92731 6.29823
#
# Compressibility (1/GPa) = 0.02245029
#
# Stress axis : x y z
#
# Youngs Moduli (GPa) = 83.99985 85.67250 29.70215
#
# Poissons Ratio (x) = 0.23444 0.30320
# Poissons Ratio (y) = 0.22986 0.13226
# Poissons Ratio (z) = 0.85747 0.38148
#
# Static dielectric constant tensor:
#      x y z
#    x 1.733310 0.000000 0.000000 
#    y 0.000000 1.639710 0.000000 
#    z 0.000000 0.000000 1.721120 
# 
# From -- ./inp_files/28525.got.cif
#   From: 2010.05.17/outbox.cif.g08.bks.cpg/sg74_15_cif.got.tgz:28525.got - 2010.06.03 17:57:02.
