data_PCOD9534620
_publ_section_title
;
Structure prediction by ZEFSAII (Michael W. Deem and Ramdas Pophale) SiO2 
 PCOD9534620
Probable space group: I M M A
;
_chemical_formula_sum "Si O2"
_cell_formula_units_Z 80
_cell_length_a 20.603497
_cell_length_b 10.237287
_cell_length_c 24.373522
_cell_angle_alpha 90.000000
_cell_angle_beta 90.000000
_cell_angle_gamma 90.000000
_cell_volume 5140.958609
_symmetry_space_group_name_H-M "I M M A"
_symmetry_group_IT_number 74
_symmetry_cell_setting 'orthorhombic'
loop_
_space_group_symop_operation_xyz
x,y,z
-x,1/2-y,z
x,-y,-z
-x,1/2+y,-z
-x,-y,-z
x,1/2+y,-z
-x,y,z
x,1/2-y,z
1/2+x,1/2+y,1/2+z
1/2-x,-y,1/2+z
1/2+x,1/2-y,1/2-z
1/2-x,y,1/2-z
1/2-x,1/2-y,1/2-z
1/2+x,y,1/2-z
1/2-x,1/2+y,1/2+z
1/2+x,-y,1/2+z
loop_
_atom_site_type_symbol
_atom_site_label
_atom_site_fract_x
_atom_site_fract_y
_atom_site_fract_z
Si Si1 0.578642 0.750000 0.815774
Si Si2 0.424542 0.250000 0.837864
Si Si3 0.256604 0.492043 0.938324
Si Si4 0.285175 0.592276 0.327428
Si Si5 0.352965 0.486531 0.778801
Si Si6 0.145190 0.750000 0.449253
Si Si7 0.657074 0.250000 0.072748
O O1 0.500000 0.750000 0.813439
O O2 0.610870 0.877352 0.787933
O O3 0.605409 0.750000 0.878411
O O4 0.500000 0.250000 0.828929
O O5 0.393384 0.375636 0.809510
O O6 0.408328 0.250000 0.902402
O O7 0.207499 0.454755 0.889864
O O8 0.309555 0.376024 0.940078
O O9 0.296025 0.623962 0.925108
O O10 0.228827 0.500000 0.000000
O O11 0.277081 0.750000 0.324674
O O12 0.340163 0.549367 0.284668
O O13 0.218392 0.524599 0.306589
O O14 0.124068 0.750000 0.512568
#
# Coordination Sequence:
#
# PCOD9534620 Si02
#       7
#     8   8  16  16  16   8   8
#     4  12  24  37  48  69 110 142 176 218 252 299
#     4  12  20  33  52  73 100 136 188 224 244 289
#     4  10  18  30  51  75 103 133 165 208 256 301
#     4  11  18  34  59  75 103 127 171 224 255 316
#     4  11  21  34  51  77  97 135 176 211 273 299
#     4  10  18  32  47  68 100 138 180 219 243 282
#     4  10  20  32  47  68 100 140 184 207 245 296
#
# _framework density 15.561301
#
# number of rings (size 3 to 8) (size 9 to 14) (size 15 to 20)
#    0.000    1.200    7.000    1.200    0.000    2.800 
#    0.000    0.000    0.000    6.000    0.000    0.000 
#    0.000    4.800    0.000    0.000    0.000    0.000 
#
# Total GULP energy -223090.052451 kJ/mol
# GULP energy per Si atom -5577.251311 kJ/mol
# Density = 1.552588 g / cm^3
# Si number density = 15.561301 Si / 1000 Ang^3
#
#
#
# Elastic Constant Matrix: (Units=GPa)
#
#
# Indices 1 2 3 4 5 6 
#
# 1 51.2995 31.5884 49.5596 0.0000 0.0000 0.0000
# 2 31.5884 133.4217 38.0532 0.0000 0.0000 0.0000
# 3 49.5596 38.0532 135.0991 0.0000 0.0000 0.0000
# 4 0.0000 0.0000 0.0000 24.8536 0.0000 0.0000
# 5 0.0000 0.0000 0.0000 0.0000 14.5499 0.0000
# 6 0.0000 0.0000 0.0000 0.0000 0.0000 27.5388
#
#
#
# Elastic Compliance Matrix: (Units=1/GPa)
#
#
# Indices 1 2 3 4 5 6 
#
# 1 0.032694 -0.004697 -0.010670 0.000000 0.000000 0.000000
# 2 -0.004697 0.008825 -0.000762 0.000000 0.000000 0.000000
# 3 -0.010670 -0.000762 0.011531 0.000000 0.000000 0.000000
# 4 0.000000 0.000000 0.000000 0.040236 0.000000 0.000000
# 5 0.000000 0.000000 0.000000 0.000000 0.068729 0.000000
# 6 0.000000 0.000000 0.000000 0.000000 0.000000 0.036312
#
#
# Mechanical properties :
#
#
# Convention : Reuss Voigt Hill
#
# Bulk Modulus (GPa) = 48.10096 62.02472 55.06284
# Shear Modulus (GPa) = 21.05110 26.76308 23.90709
#
# Velocity S-wave (km/s) = 3.68201 4.15160 3.92384
# Velocity P-wave (km/s) = 7.00386 7.93259 7.48265
#
# Compressibility (1/GPa) = 0.02078960
#
# Stress axis : x y z
#
# Youngs Moduli (GPa) = 30.58635 113.31953 86.72210
#
# Poissons Ratio (x) = 0.53229 0.92537
# Poissons Ratio (y) = 0.14367 0.06612
# Poissons Ratio (z) = 0.32637 0.08640
#
# Static dielectric constant tensor:
#      x y z
#    x 1.466360 0.000000 0.000000 
#    y 0.000000 1.526470 0.000000 
#    z 0.000000 0.000000 1.574050 
# 
# From -- ./inp_files/61389.got.cif
#   From: 2010.05.17/outbox.cif.g08.bks.cpg/sg74_31_cif.got.tgz:61389.got - 2010.06.03 17:57:02.
