data_PCOD9534765
_publ_section_title
;
Structure prediction by ZEFSAII (Michael W. Deem and Ramdas Pophale) SiO2 
 PCOD9534765
Probable space group: I M M A
;
_chemical_formula_sum "Si O2"
_cell_formula_units_Z 116
_cell_length_a 26.272654
_cell_length_b 7.501633
_cell_length_c 28.864273
_cell_angle_alpha 90.000000
_cell_angle_beta 90.000000
_cell_angle_gamma 90.000000
_cell_volume 5688.796302
_symmetry_space_group_name_H-M "I M M A"
_symmetry_group_IT_number 74
_symmetry_cell_setting 'orthorhombic'
loop_
_space_group_symop_operation_xyz
x,y,z
-x,1/2-y,z
x,-y,-z
-x,1/2+y,-z
-x,-y,-z
x,1/2+y,-z
-x,y,z
x,1/2-y,z
1/2+x,1/2+y,1/2+z
1/2-x,-y,1/2+z
1/2+x,1/2-y,1/2-z
1/2-x,y,1/2-z
1/2-x,1/2-y,1/2-z
1/2+x,y,1/2-z
1/2-x,1/2+y,1/2+z
1/2+x,-y,1/2+z
loop_
_atom_site_type_symbol
_atom_site_label
_atom_site_fract_x
_atom_site_fract_y
_atom_site_fract_z
Si Si1 0.055299 0.463074 0.681738
Si Si2 0.162270 0.035042 0.169137
Si Si3 0.500000 0.250000 0.272414
Si Si4 0.336485 0.457797 0.225456
Si Si5 0.053622 0.052332 0.822860
Si Si6 0.334435 0.036734 0.050502
Si Si7 0.770819 0.968703 0.639149
Si Si8 0.444971 0.537679 0.928099
O O1 0.053239 0.250000 0.686730
O O2 0.106895 0.527840 0.704767
O O3 0.058143 0.508424 0.627255
O O4 0.000000 0.543140 0.697512
O O5 0.162416 0.250000 0.169726
O O6 0.166296 0.969112 0.222551
O O7 0.211987 0.977068 0.141374
O O8 0.106583 0.978316 0.151891
O O9 0.544134 0.404553 0.284080
O O10 0.322944 0.250000 0.230014
O O11 0.298895 0.530802 0.186071
O O12 0.055356 0.250000 0.802181
O O13 0.000000 0.039675 0.850776
O O14 0.338079 0.250000 0.056133
O O15 0.301560 0.970935 0.093880
O O16 0.392362 0.964065 0.051980
O O17 0.312125 0.000000 0.000000
O O18 0.772432 0.750000 0.639197
O O19 0.500000 0.464296 0.943619
O O20 0.445979 0.750000 0.936471
#
# Coordination Sequence:
#
# PCOD9534765 Si02
#       8
#    16  16   4  16  16  16  16  16
#     4  10  20  32  46  68  99 134 170 213 265 314
#     4  10  18  31  52  75 102 138 178 219 263 314
#     4   8  14  32  52  70 106 140 176 216 258 310
#     4  10  19  32  51  72  95 131 178 216 261 319
#     4   9  17  30  50  75 105 138 175 219 257 304
#     4  10  20  35  54  76 101 130 168 214 273 329
#     4   9  18  34  53  74  99 132 174 218 262 315
#     4   9  17  32  54  73  94 124 167 218 269 323
#
# _framework density 20.390957
#
# number of rings (size 3 to 8) (size 9 to 14) (size 15 to 20)
#    0.414    2.069    2.069    0.828    0.000    4.414 
#    0.000    4.138    0.000    1.655    0.000    0.000 
#    0.000    0.552    0.000    2.345    0.000    4.414 
#
# Total GULP energy -323078.069383 kJ/mol
# GULP energy per Si atom -5570.311541 kJ/mol
# Density = 2.034455 g / cm^3
# Si number density = 20.390957 Si / 1000 Ang^3
#
#
#
# Elastic Constant Matrix: (Units=GPa)
#
#
# Indices 1 2 3 4 5 6 
#
# 1 174.7272 14.8840 44.2925 0.0000 0.0000 0.0000
# 2 14.8840 66.7296 -0.4421 0.0000 0.0000 0.0000
# 3 44.2925 -0.4421 53.2032 0.0000 0.0000 0.0000
# 4 0.0000 0.0000 0.0000 -0.1906 0.0000 0.0000
# 5 0.0000 0.0000 0.0000 0.0000 6.7289 0.0000
# 6 0.0000 0.0000 0.0000 0.0000 0.0000 -22.1346
#
#
#
# Elastic Compliance Matrix: (Units=1/GPa)
#
#
# Indices 1 2 3 4 5 6 
#
# 1 0.007442 -0.001701 -0.006210 0.000000 0.000000 0.000000
# 2 -0.001701 0.015376 0.001544 0.000000 0.000000 0.000000
# 3 -0.006210 0.001544 0.023979 0.000000 0.000000 0.000000
# 4 0.000000 0.000000 0.000000 -5.246941 0.000000 0.000000
# 5 0.000000 0.000000 0.000000 0.000000 0.148612 0.000000
# 6 0.000000 0.000000 0.000000 0.000000 0.000000 -0.045178
#
#
# Mechanical properties :
#
#
# Convention : Reuss Voigt Hill
#
# Bulk Modulus (GPa) = 29.35805 45.79209 37.57507
# Shear Modulus (GPa) = -0.98568 12.60911 5.81171
#
# Velocity S-wave (km/s) = -0.69602 2.48940 1.69007
# Velocity P-wave (km/s) = 3.71254 5.54695 4.71972
#
# Compressibility (1/GPa) = 0.03406220
#
# Stress axis : x y z
#
# Youngs Moduli (GPa) = 134.36664 65.03844 41.70379
#
# Poissons Ratio (x) = 0.11064 0.25898
# Poissons Ratio (y) = 0.22858 -0.06439
# Poissons Ratio (z) = 0.83442 -0.10042
#
# Static dielectric constant tensor:
#      x y z
#    x 1.790000 0.000000 0.000000 
#    y 0.000000 1.765980 0.000000 
#    z 0.000000 0.000000 1.702900 
# 
# From -- ./inp_files/73974.got.cif
#   From: 2010.05.17/outbox.cif.g08.bks.cpg/sg74_37_cif.got.tgz:73974.got - 2010.06.03 17:57:02.
