data_PCOD9534004
_publ_section_title
;
Structure prediction by ZEFSAII (Michael W. Deem and Ramdas Pophale) SiO2 
 PCOD9534004
Probable space group: I M M A
;
_chemical_formula_sum "Si O2"
_cell_formula_units_Z 96
_cell_length_a 8.741143
_cell_length_b 22.330099
_cell_length_c 22.400684
_cell_angle_alpha 90.000000
_cell_angle_beta 90.000000
_cell_angle_gamma 90.000000
_cell_volume 4372.402694
_symmetry_space_group_name_H-M "I M M A"
_symmetry_group_IT_number 74
_symmetry_cell_setting 'orthorhombic'
loop_
_space_group_symop_operation_xyz
x,y,z
-x,1/2-y,z
x,-y,-z
-x,1/2+y,-z
-x,-y,-z
x,1/2+y,-z
-x,y,z
x,1/2-y,z
1/2+x,1/2+y,1/2+z
1/2-x,-y,1/2+z
1/2+x,1/2-y,1/2-z
1/2-x,y,1/2-z
1/2-x,1/2-y,1/2-z
1/2+x,y,1/2-z
1/2-x,1/2+y,1/2+z
1/2+x,-y,1/2+z
loop_
_atom_site_type_symbol
_atom_site_label
_atom_site_fract_x
_atom_site_fract_y
_atom_site_fract_z
Si Si1 0.171931 0.653121 0.067312
Si Si2 0.685488 0.484982 0.689794
Si Si3 0.174444 0.009436 0.936426
Si Si4 0.683122 0.821647 0.811916
Si Si5 0.818025 0.849403 0.310738
Si Si6 0.826137 0.821895 0.558744
O O1 0.165776 0.580919 0.070595
O O2 0.266671 0.675320 0.124756
O O3 0.000000 0.676173 0.072377
O O4 0.237314 0.665743 0.001956
O O5 0.500000 0.482595 0.690821
O O6 0.750000 0.513601 0.750000
O O7 0.737559 0.513018 0.626721
O O8 0.752922 0.417497 0.689539
O O9 0.000000 0.984979 0.941276
O O10 0.253989 0.000000 0.000000
O O11 0.500000 0.829180 0.811612
O O12 0.714701 0.750000 0.811063
O O13 0.750000 0.846070 0.750000
O O14 0.739577 0.843266 0.877234
O O15 0.750000 0.821396 0.250000
O O16 0.000000 0.849975 0.306688
O O17 0.834824 0.750000 0.563636
O O18 0.000000 0.844990 0.552402
#
# Coordination Sequence:
#
# PCOD9534004 Si02
#       6
#    16  16  16  16  16  16
#     4  10  19  30  47  71  94 119 155 193 229 271
#     4   9  15  24  41  64  88 113 146 188 229 268
#     4   8  15  28  45  65  89 118 150 184 223 267
#     4   8  14  25  42  64  88 114 147 186 225 264
#     4  10  17  27  44  65  91 119 149 187 229 271
#     4   9  18  32  48  67  94 126 154 184 229 279
#
# _framework density 21.955891000000001
#
# number of rings (size 3 to 8) (size 9 to 14) (size 15 to 20)
#    0.000    3.000    0.000    5.500    0.000    1.000 
#    0.000    1.667    0.000   19.500    0.000    4.667 
#    0.000    0.000    0.000    0.000    0.000    0.000 
#
# Total GULP energy -267350.254033 kJ/mol
# GULP energy per Si atom -5569.796959 kJ/mol
# Density = 2.190592 g / cm^3
# Si number density = 21.955891 Si / 1000 Ang^3
#
#
#
# Elastic Constant Matrix: (Units=GPa)
#
#
# Indices 1 2 3 4 5 6 
#
# 1 81.0336 8.8730 73.1507 0.0000 0.0000 0.0000
# 2 8.8730 45.5553 13.3386 0.0000 0.0000 0.0000
# 3 73.1507 13.3386 297.1299 0.0000 0.0000 0.0000
# 4 0.0000 0.0000 0.0000 15.7061 0.0000 0.0000
# 5 0.0000 0.0000 0.0000 0.0000 37.0851 0.0000
# 6 0.0000 0.0000 0.0000 0.0000 0.0000 4.9167
#
#
#
# Elastic Compliance Matrix: (Units=1/GPa)
#
#
# Indices 1 2 3 4 5 6 
#
# 1 0.016044 -0.001995 -0.003860 0.000000 0.000000 0.000000
# 2 -0.001995 0.022492 -0.000519 0.000000 0.000000 0.000000
# 3 -0.003860 -0.000519 0.004339 0.000000 0.000000 0.000000
# 4 0.000000 0.000000 0.000000 0.063670 0.000000 0.000000
# 5 0.000000 0.000000 0.000000 0.000000 0.026965 0.000000
# 6 0.000000 0.000000 0.000000 0.000000 0.000000 0.203389
#
#
# Mechanical properties :
#
#
# Convention : Reuss Voigt Hill
#
# Bulk Modulus (GPa) = 33.19224 68.27149 50.73186
# Shear Modulus (GPa) = 13.90095 33.43201 23.66648
#
# Velocity S-wave (km/s) = 2.51894 3.90640 3.28672
# Velocity P-wave (km/s) = 4.85907 7.17697 6.12860
#
# Compressibility (1/GPa) = 0.03012753
#
# Stress axis : x y z
#
# Youngs Moduli (GPa) = 62.32973 44.46090 230.45834
#
# Poissons Ratio (x) = 0.08868 0.88963
# Poissons Ratio (y) = 0.12432 0.11952
# Poissons Ratio (z) = 0.24061 0.02306
#
# Static dielectric constant tensor:
#      x y z
#    x 1.770730 0.000000 0.000000 
#    y 0.000000 1.873300 0.000000 
#    z 0.000000 0.000000 1.918170 
# 
# From -- ./inp_files/49142.got.cif
#   From: 2010.05.17/outbox.cif.g08.bks.cpg/sg74_25_cif.got.tgz:49142.got - 2010.06.03 17:57:02.
