data_PCOD9534471
_publ_section_title
;
Structure prediction by ZEFSAII (Michael W. Deem and Ramdas Pophale) SiO2 
 PCOD9534471
Probable space group: I M M A
;
_chemical_formula_sum "Si O2"
_cell_formula_units_Z 80
_cell_length_a 11.605734
_cell_length_b 16.667709
_cell_length_c 23.841505
_cell_angle_alpha 90.000000
_cell_angle_beta 90.000000
_cell_angle_gamma 90.000000
_cell_volume 4611.924498
_symmetry_space_group_name_H-M "I M M A"
_symmetry_group_IT_number 74
_symmetry_cell_setting 'orthorhombic'
loop_
_space_group_symop_operation_xyz
x,y,z
-x,1/2-y,z
x,-y,-z
-x,1/2+y,-z
-x,-y,-z
x,1/2+y,-z
-x,y,z
x,1/2-y,z
1/2+x,1/2+y,1/2+z
1/2-x,-y,1/2+z
1/2+x,1/2-y,1/2-z
1/2-x,y,1/2-z
1/2-x,1/2-y,1/2-z
1/2+x,y,1/2-z
1/2-x,1/2+y,1/2+z
1/2+x,-y,1/2+z
loop_
_atom_site_type_symbol
_atom_site_label
_atom_site_fract_x
_atom_site_fract_y
_atom_site_fract_z
Si Si1 0.254802 0.340189 0.067391
Si Si2 0.750000 0.074052 0.750000
Si Si3 0.245640 0.499281 0.369856
Si Si4 0.130717 0.915081 0.033458
Si Si5 0.500000 0.154883 0.780965
Si Si6 0.000000 0.936542 0.395702
Si Si7 0.000000 0.841879 0.511516
O O1 0.236860 0.250000 0.088551
O O2 0.218355 0.410671 0.109808
O O3 0.189572 0.353127 0.008394
O O4 0.387447 0.351501 0.049496
O O5 0.736047 0.020019 0.694582
O O6 0.625334 0.120854 0.757930
O O7 0.307888 0.566074 0.408302
O O8 0.112349 0.510974 0.385013
O O9 0.000000 0.892322 0.043425
O O10 0.134921 0.000000 0.000000
O O11 0.500000 0.250000 0.772808
O O12 0.500000 0.131146 0.847075
O O13 0.000000 0.900608 0.458245
O O14 0.000000 0.750000 0.490010
#
# Coordination Sequence:
#
# PCOD9534471 Si02
#       7
#    16   8  16  16   8   8   8
#     4  10  20  33  52  80 111 140 174 222 272 317
#     4  10  23  38  59  84 108 150 190 224 263 324
#     4  10  20  35  55  78 106 142 184 220 262 320
#     4   9  18  32  52  74 101 137 175 218 267 321
#     4  10  21  39  59  83 113 142 180 230 275 315
#     4  10  18  32  56  81 106 142 172 210 268 327
#     4  10  18  29  50  84 112 132 167 214 270 326
#
# _framework density 17.346337999999999
#
# number of rings (size 3 to 8) (size 9 to 14) (size 15 to 20)
#    0.000    2.200    2.000    1.200    1.400    1.200 
#    0.000    1.500    0.000    0.000    0.000    1.400 
#    0.000    0.000    0.000    0.000    0.000    0.000 
#
# Total GULP energy -222824.924953 kJ/mol
# GULP energy per Si atom -5570.623124 kJ/mol
# Density = 1.730686 g / cm^3
# Si number density = 17.346338 Si / 1000 Ang^3
#
#
#
# Elastic Constant Matrix: (Units=GPa)
#
#
# Indices 1 2 3 4 5 6 
#
# 1 94.2974 20.3283 17.4873 0.0000 0.0000 0.0000
# 2 20.3283 100.4704 58.4419 0.0000 0.0000 0.0000
# 3 17.4873 58.4419 100.0039 0.0000 0.0000 0.0000
# 4 0.0000 0.0000 0.0000 11.9010 0.0000 0.0000
# 5 0.0000 0.0000 0.0000 0.0000 102.0195 0.0000
# 6 0.0000 0.0000 0.0000 0.0000 0.0000 46.9324
#
#
#
# Elastic Compliance Matrix: (Units=1/GPa)
#
#
# Indices 1 2 3 4 5 6 
#
# 1 0.011148 -0.001699 -0.000956 0.000000 0.000000 0.000000
# 2 -0.001699 0.015338 -0.008666 0.000000 0.000000 0.000000
# 3 -0.000956 -0.008666 0.015231 0.000000 0.000000 0.000000
# 4 0.000000 0.000000 0.000000 0.084026 0.000000 0.000000
# 5 0.000000 0.000000 0.000000 0.000000 0.009802 0.000000
# 6 0.000000 0.000000 0.000000 0.000000 0.000000 0.021307
#
#
# Mechanical properties :
#
#
# Convention : Reuss Voigt Hill
#
# Bulk Modulus (GPa) = 52.42805 54.14296 53.28551
# Shear Modulus (GPa) = 26.90258 45.40487 36.15373
#
# Velocity S-wave (km/s) = 3.94243 5.12175 4.57029
# Velocity P-wave (km/s) = 7.14238 8.13984 7.65737
#
# Compressibility (1/GPa) = 0.01907376
#
# Stress axis : x y z
#
# Youngs Moduli (GPa) = 89.69860 65.19718 65.65365
#
# Poissons Ratio (x) = 0.11079 0.06279
# Poissons Ratio (y) = 0.15243 0.56898
# Poissons Ratio (z) = 0.08579 0.56502
#
# Static dielectric constant tensor:
#      x y z
#    x -0.806410 0.000000 0.000000 
#    y 0.000000 1.602970 0.000000 
#    z 0.000000 0.000000 1.568100 
# 
# From -- ./inp_files/50481.got.cif
#   From: 2010.05.17/outbox.cif.g08.bks.cpg/sg74_26_cif.got.tgz:50481.got - 2010.06.03 17:57:02.
