data_PCOD9534495
_publ_section_title
;
Structure prediction by ZEFSAII (Michael W. Deem and Ramdas Pophale) SiO2 
 PCOD9534495
Probable space group: I M M A
;
_chemical_formula_sum "Si O2"
_cell_formula_units_Z 112
_cell_length_a 29.588445
_cell_length_b 13.895960
_cell_length_c 15.915408
_cell_angle_alpha 90.000000
_cell_angle_beta 90.000000
_cell_angle_gamma 90.000000
_cell_volume 6543.776737
_symmetry_space_group_name_H-M "I M M A"
_symmetry_group_IT_number 74
_symmetry_cell_setting 'orthorhombic'
loop_
_space_group_symop_operation_xyz
x,y,z
-x,1/2-y,z
x,-y,-z
-x,1/2+y,-z
-x,-y,-z
x,1/2+y,-z
-x,y,z
x,1/2-y,z
1/2+x,1/2+y,1/2+z
1/2-x,-y,1/2+z
1/2+x,1/2-y,1/2-z
1/2-x,y,1/2-z
1/2-x,1/2-y,1/2-z
1/2+x,y,1/2-z
1/2-x,1/2+y,1/2+z
1/2+x,-y,1/2+z
loop_
_atom_site_type_symbol
_atom_site_label
_atom_site_fract_x
_atom_site_fract_y
_atom_site_fract_z
Si Si1 0.329098 0.136757 0.396556
Si Si2 0.950509 0.556282 0.134821
Si Si3 0.801747 0.357213 0.281074
Si Si4 0.642176 0.365007 0.696762
Si Si5 0.783355 0.133604 0.943297
Si Si6 0.068556 0.139047 0.049331
Si Si7 0.711491 0.445234 0.824032
O O1 0.318932 0.250000 0.385181
O O2 0.328190 0.102647 0.301078
O O3 0.292754 0.097875 0.462179
O O4 0.377404 0.129554 0.440227
O O5 0.906427 0.584947 0.187466
O O6 0.949810 0.443218 0.110748
O O7 0.000000 0.580646 0.170321
O O8 0.945051 0.611267 0.045197
O O9 0.816804 0.250000 0.306628
O O10 0.750000 0.348184 0.250000
O O11 0.802348 0.445264 0.344717
O O12 0.635995 0.250000 0.690667
O O13 0.674876 0.394614 0.618320
O O14 0.669805 0.390137 0.781153
O O15 0.784660 0.250000 0.945829
O O16 0.736731 0.103097 0.901410
O O17 0.056489 0.250000 0.067345
O O18 0.750000 0.447202 0.750000
#
# Coordination Sequence:
#
# PCOD9534495 Si02
#       7
#    16  16  16  16  16  16  16
#     4   9  16  28  47  64  80 110 151 194 229 264
#     4  11  22  31  42  61  82 113 154 187 222 269
#     4   9  17  29  41  57  85 116 148 179 215 268
#     4  10  18  30  44  60  84 109 135 180 231 273
#     4   9  16  28  46  67  83 103 143 191 233 268
#     4  10  19  32  45  59  80 108 147 195 236 263
#     4   9  17  28  42  64  84 107 141 178 225 270
#
# _framework density 17.115497999999999
#
# number of rings (size 3 to 8) (size 9 to 14) (size 15 to 20)
#    0.000    2.429    1.429    2.571    0.000    3.714 
#    0.000    0.000    0.000    0.000    0.000    1.000 
#    0.000    0.000    0.000    0.000    0.000   47.143 
#
# Total GULP energy -312298.558682 kJ/mol
# GULP energy per Si atom -5576.759976 kJ/mol
# Density = 1.707654 g / cm^3
# Si number density = 17.115498 Si / 1000 Ang^3
#
#
#
# Elastic Constant Matrix: (Units=GPa)
#
#
# Indices 1 2 3 4 5 6 
#
# 1 106.0100 27.2159 29.5031 0.0000 0.0000 0.0000
# 2 27.2159 82.2943 6.1266 0.0000 0.0000 0.0000
# 3 29.5031 6.1266 18.3897 0.0000 0.0000 0.0000
# 4 0.0000 0.0000 0.0000 12.3449 0.0000 0.0000
# 5 0.0000 0.0000 0.0000 0.0000 16.6948 0.0000
# 6 0.0000 0.0000 0.0000 0.0000 0.0000 9.8556
#
#
#
# Elastic Compliance Matrix: (Units=1/GPa)
#
#
# Indices 1 2 3 4 5 6 
#
# 1 0.018211 -0.003945 -0.027903 0.000000 0.000000 0.000000
# 2 -0.003945 0.013315 0.001894 0.000000 0.000000 0.000000
# 3 -0.027903 0.001894 0.098512 0.000000 0.000000 0.000000
# 4 0.000000 0.000000 0.000000 0.081005 0.000000 0.000000
# 5 0.000000 0.000000 0.000000 0.000000 0.059899 0.000000
# 6 0.000000 0.000000 0.000000 0.000000 0.000000 0.101466
#
#
# Mechanical properties :
#
#
# Convention : Reuss Voigt Hill
#
# Bulk Modulus (GPa) = 14.25917 36.93168 25.59543
# Shear Modulus (GPa) = 10.97228 17.36894 14.17061
#
# Velocity S-wave (km/s) = 2.53469 3.18906 2.88052
# Velocity P-wave (km/s) = 4.11284 5.93169 5.10394
#
# Compressibility (1/GPa) = 0.07013031
#
# Stress axis : x y z
#
# Youngs Moduli (GPa) = 54.91069 75.10131 10.15104
#
# Poissons Ratio (x) = 0.29631 0.28324
# Poissons Ratio (y) = 0.21665 -0.01922
# Poissons Ratio (z) = 1.53215 -0.14222
#
# Static dielectric constant tensor:
#      x y z
#    x 1.590320 0.000000 0.000000 
#    y 0.000000 1.666720 0.000000 
#    z 0.000000 0.000000 1.599120 
# 
# From -- ./inp_files/37975.got.cif
#   From: 2010.05.17/outbox.cif.g08.bks.cpg/sg74_19_cif.got.tgz:37975.got - 2010.06.03 17:57:02.
