data_PCOD9534758
_publ_section_title
;
Structure prediction by ZEFSAII (Michael W. Deem and Ramdas Pophale) SiO2 
 PCOD9534758
Probable space group: I M M A
;
_chemical_formula_sum "Si O2"
_cell_formula_units_Z 96
_cell_length_a 26.981838
_cell_length_b 14.827030
_cell_length_c 12.342177
_cell_angle_alpha 90.000000
_cell_angle_beta 90.000000
_cell_angle_gamma 90.000000
_cell_volume 4937.617767
_symmetry_space_group_name_H-M "I M M A"
_symmetry_group_IT_number 74
_symmetry_cell_setting 'orthorhombic'
loop_
_space_group_symop_operation_xyz
x,y,z
-x,1/2-y,z
x,-y,-z
-x,1/2+y,-z
-x,-y,-z
x,1/2+y,-z
-x,y,z
x,1/2-y,z
1/2+x,1/2+y,1/2+z
1/2-x,-y,1/2+z
1/2+x,1/2-y,1/2-z
1/2-x,y,1/2-z
1/2-x,1/2-y,1/2-z
1/2+x,y,1/2-z
1/2-x,1/2+y,1/2+z
1/2+x,-y,1/2+z
loop_
_atom_site_type_symbol
_atom_site_label
_atom_site_fract_x
_atom_site_fract_y
_atom_site_fract_z
Si Si1 0.807604 0.140273 0.726057
Si Si2 0.865350 0.139728 0.265593
Si Si3 0.642448 0.405748 0.558127
Si Si4 0.056017 0.641503 0.913076
Si Si5 0.218449 0.148557 0.108368
Si Si6 0.321207 0.360470 0.018768
O O1 0.810314 0.250000 0.732385
O O2 0.750000 0.116291 0.750000
O O3 0.843649 0.100670 0.817460
O O4 0.823876 0.111211 0.605730
O O5 0.865423 0.250000 0.260393
O O6 0.910824 0.109422 0.189626
O O7 0.814542 0.109814 0.205521
O O8 0.862264 0.114668 0.391607
O O9 0.652844 0.500000 0.500000
O O10 0.587115 0.381170 0.521001
O O11 0.681427 0.344486 0.493321
O O12 0.054080 0.750000 0.905812
O O13 0.000000 0.606677 0.912764
O O14 0.231800 0.250000 0.140896
O O15 0.268850 0.105422 0.067194
O O16 0.319676 0.250000 0.015334
#
# Coordination Sequence:
#
# PCOD9534758 Si02
#       6
#    16  16  16  16  16  16
#     4  10  18  31  52  73 101 139 177 207 237 292
#     4   8  14  24  43  74  99 114 150 204 253 291
#     4  11  21  32  47  71 103 135 167 209 252 303
#     4   9  18  34  56  75  91 119 166 221 264 298
#     4   9  15  27  47  68  94 130 168 201 233 281
#     4   9  15  24  46  74  97 126 160 197 238 284
#
# _framework density 19.442575000000001
#
# number of rings (size 3 to 8) (size 9 to 14) (size 15 to 20)
#    0.000    2.667    1.667    3.000    0.000    2.333 
#    0.000    3.333    0.000    1.000    0.000    5.833 
#    0.000    0.000    0.000    0.000    0.000    0.000 
#
# Total GULP energy -267615.904765 kJ/mol
# GULP energy per Si atom -5575.331349 kJ/mol
# Density = 1.939832 g / cm^3
# Si number density = 19.442575 Si / 1000 Ang^3
#
#
#
# Elastic Constant Matrix: (Units=GPa)
#
#
# Indices 1 2 3 4 5 6 
#
# 1 122.9374 13.1138 92.7864 0.0000 0.0000 0.0000
# 2 13.1138 41.2782 9.2200 0.0000 0.0000 0.0000
# 3 92.7864 9.2200 205.3565 0.0000 0.0000 0.0000
# 4 0.0000 0.0000 0.0000 119.3806 0.0000 0.0000
# 5 0.0000 0.0000 0.0000 0.0000 7.5857 0.0000
# 6 0.0000 0.0000 0.0000 0.0000 0.0000 1.0391
#
#
#
# Elastic Compliance Matrix: (Units=1/GPa)
#
#
# Indices 1 2 3 4 5 6 
#
# 1 0.012650 -0.002770 -0.005591 0.000000 0.000000 0.000000
# 2 -0.002770 0.025078 0.000126 0.000000 0.000000 0.000000
# 3 -0.005591 0.000126 0.007390 0.000000 0.000000 0.000000
# 4 0.000000 0.000000 0.000000 0.008377 0.000000 0.000000
# 5 0.000000 0.000000 0.000000 0.000000 0.131827 0.000000
# 6 0.000000 0.000000 0.000000 0.000000 0.000000 0.962377
#
#
# Mechanical properties :
#
#
# Convention : Reuss Voigt Hill
#
# Bulk Modulus (GPa) = 34.90794 66.64583 50.77688
# Shear Modulus (GPa) = 4.25997 42.56453 23.41225
#
# Velocity S-wave (km/s) = 1.48183 4.68401 3.47389
# Velocity P-wave (km/s) = 4.57396 7.97534 6.50104
#
# Compressibility (1/GPa) = 0.02864678
#
# Stress axis : x y z
#
# Youngs Moduli (GPa) = 79.05435 39.87592 135.31494
#
# Poissons Ratio (x) = 0.11045 0.75656
# Poissons Ratio (y) = 0.21897 -0.01699
# Poissons Ratio (z) = 0.44200 -0.00501
#
# Static dielectric constant tensor:
#      x y z
#    x 1.678390 0.000000 0.000000 
#    y 0.000000 1.779360 0.000000 
#    z 0.000000 0.000000 1.721110 
# 
# From -- ./inp_files/26278.got.cif
#   From: 2010.05.17/outbox.cif.g08.bks.cpg/sg74_14_cif.got.tgz:26278.got - 2010.06.03 17:57:02.
