data_PCOD9534537
_publ_section_title
;
Structure prediction by ZEFSAII (Michael W. Deem and Ramdas Pophale) SiO2 
 PCOD9534537
Probable space group: I M M A
;
_chemical_formula_sum "Si O2"
_cell_formula_units_Z 80
_cell_length_a 8.486474
_cell_length_b 27.004379
_cell_length_c 19.784447
_cell_angle_alpha 90.000000
_cell_angle_beta 90.000000
_cell_angle_gamma 90.000000
_cell_volume 4534.040502
_symmetry_space_group_name_H-M "I M M A"
_symmetry_group_IT_number 74
_symmetry_cell_setting 'orthorhombic'
loop_
_space_group_symop_operation_xyz
x,y,z
-x,1/2-y,z
x,-y,-z
-x,1/2+y,-z
-x,-y,-z
x,1/2+y,-z
-x,y,z
x,1/2-y,z
1/2+x,1/2+y,1/2+z
1/2-x,-y,1/2+z
1/2+x,1/2-y,1/2-z
1/2-x,y,1/2-z
1/2-x,1/2-y,1/2-z
1/2+x,y,1/2-z
1/2-x,1/2+y,1/2+z
1/2+x,-y,1/2+z
loop_
_atom_site_type_symbol
_atom_site_label
_atom_site_fract_x
_atom_site_fract_y
_atom_site_fract_z
Si Si1 0.691832 0.443895 0.422257
Si Si2 0.690225 0.555612 0.422002
Si Si3 0.811202 0.142050 0.673226
Si Si4 0.310585 0.854514 0.673115
Si Si5 0.812170 0.750000 0.672728
Si Si6 0.190007 0.250000 0.672958
O O1 0.500000 0.443598 0.421358
O O2 0.741157 0.499685 0.402898
O O3 0.739277 0.435455 0.500137
O O4 0.744298 0.400636 0.372250
O O5 0.500000 0.556326 0.420496
O O6 0.752181 0.597505 0.372669
O O7 0.750000 0.137177 0.750000
O O8 0.758835 0.196397 0.645340
O O9 0.000000 0.141348 0.675116
O O10 0.500000 0.853359 0.674685
O O11 0.250000 0.859659 0.750000
O O12 0.250644 0.801887 0.644159
O O13 0.750000 0.750000 0.750000
O O14 0.000000 0.750000 0.672740
O O15 0.250000 0.250000 0.750000
O O16 0.000000 0.250000 0.672532
#
# Coordination Sequence:
#
# PCOD9534537 Si02
#       6
#    16  16  16  16   8   8
#     4   8  17  33  53  71  95 130 164 196 240 289
#     4   9  17  34  54  72  95 128 164 200 240 287
#     4  10  19  32  50  74  99 128 162 201 242 285
#     4  10  18  31  50  73  97 126 161 199 238 286
#     4  10  18  30  47  70  97 127 157 195 243 288
#     4   8  16  30  47  66  95 127 157 191 235 282
#
# _framework density 17.644307000000001
#
# number of rings (size 3 to 8) (size 9 to 14) (size 15 to 20)
#    0.000    2.800    0.000    4.500    0.000    1.600 
#    0.000    9.000    0.000    3.600    0.000    0.000 
#    0.000    0.000    0.000    0.000    0.000    0.000 
#
# Total GULP energy -222812.415296 kJ/mol
# GULP energy per Si atom -5570.310382 kJ/mol
# Density = 1.760415 g / cm^3
# Si number density = 17.644307 Si / 1000 Ang^3
#
#
#
# Elastic Constant Matrix: (Units=GPa)
#
#
# Indices 1 2 3 4 5 6 
#
# 1 41.6812 37.5990 19.4160 0.0000 0.0000 0.0000
# 2 37.5990 222.9035 98.9382 0.0000 0.0000 0.0000
# 3 19.4160 98.9382 67.1583 0.0000 0.0000 0.0000
# 4 0.0000 0.0000 0.0000 -31.7469 0.0000 0.0000
# 5 0.0000 0.0000 0.0000 0.0000 19.3179 0.0000
# 6 0.0000 0.0000 0.0000 0.0000 0.0000 24.5593
#
#
#
# Elastic Compliance Matrix: (Units=1/GPa)
#
#
# Indices 1 2 3 4 5 6 
#
# 1 0.028556 -0.003330 -0.003351 0.000000 0.000000 0.000000
# 2 -0.003330 0.013351 -0.018705 0.000000 0.000000 0.000000
# 3 -0.003351 -0.018705 0.043416 0.000000 0.000000 0.000000
# 4 0.000000 0.000000 0.000000 -0.031499 0.000000 0.000000
# 5 0.000000 0.000000 0.000000 0.000000 0.051765 0.000000
# 6 0.000000 0.000000 0.000000 0.000000 0.000000 0.040718
#
#
# Mechanical properties :
#
#
# Convention : Reuss Voigt Hill
#
# Bulk Modulus (GPa) = 28.94265 71.51660 50.22963
# Shear Modulus (GPa) = 23.96992 14.14538 19.05765
#
# Velocity S-wave (km/s) = 3.68979 2.83450 3.29006
# Velocity P-wave (km/s) = 5.88148 7.16470 6.55456
#
# Compressibility (1/GPa) = 0.03455108
#
# Stress axis : x y z
#
# Youngs Moduli (GPa) = 35.01907 74.90347 23.03298
#
# Poissons Ratio (x) = 0.24940 0.07717
# Poissons Ratio (y) = 0.11660 0.43084
# Poissons Ratio (z) = 0.11733 1.40111
#
# Static dielectric constant tensor:
#      x y z
#    x 1.612200 0.000000 0.000000 
#    y 0.000000 1.644250 0.000000 
#    z 0.000000 0.000000 1.563550 
# 
# From -- ./inp_files/39821.got.cif
#   From: 2010.05.17/outbox.cif.g08.bks.cpg/sg74_20_cif.got.tgz:39821.got - 2010.06.03 17:57:02.
