data_PCOD9534311
_publ_section_title
;
Structure prediction by ZEFSAII (Michael W. Deem and Ramdas Pophale) SiO2 
 PCOD9534311
Probable space group: I M M A
;
_chemical_formula_sum "Si O2"
_cell_formula_units_Z 64
_cell_length_a 21.477457
_cell_length_b 14.250178
_cell_length_c 9.771846
_cell_angle_alpha 90.000000
_cell_angle_beta 90.000000
_cell_angle_gamma 90.000000
_cell_volume 2990.747590
_symmetry_space_group_name_H-M "I M M A"
_symmetry_group_IT_number 74
_symmetry_cell_setting 'orthorhombic'
loop_
_space_group_symop_operation_xyz
x,y,z
-x,1/2-y,z
x,-y,-z
-x,1/2+y,-z
-x,-y,-z
x,1/2+y,-z
-x,y,z
x,1/2-y,z
1/2+x,1/2+y,1/2+z
1/2-x,-y,1/2+z
1/2+x,1/2-y,1/2-z
1/2-x,y,1/2-z
1/2-x,1/2-y,1/2-z
1/2+x,y,1/2-z
1/2-x,1/2+y,1/2+z
1/2+x,-y,1/2+z
loop_
_atom_site_type_symbol
_atom_site_label
_atom_site_fract_x
_atom_site_fract_y
_atom_site_fract_z
Si Si1 0.000000 0.593917 0.913927
Si Si2 0.252875 0.364805 0.594866
Si Si3 0.000000 0.863981 0.600887
Si Si4 0.639093 0.858349 0.603368
Si Si5 0.364099 0.135838 0.086002
O O1 0.000000 0.587528 0.749234
O O2 0.067113 0.639702 0.943110
O O3 0.000000 0.500000 0.000000
O O4 0.253594 0.250000 0.600926
O O5 0.250000 0.399320 0.750000
O O6 0.313811 0.395308 0.510572
O O7 0.191572 0.393039 0.511372
O O8 0.933857 0.887211 0.534021
O O9 0.000000 0.750000 0.626569
O O10 0.657452 0.750000 0.620783
O O11 0.643620 0.899168 0.757254
O O12 0.362125 0.250000 0.091085
#
# Coordination Sequence:
#
# PCOD9534311 Si02
#       5
#     8  16   8  16  16
#     4  10  18  28  45  68  90 112 146 196 236 264
#     4   9  16  25  40  66  96 120 146 185 227 263
#     4   8  14  26  45  68  93 120 154 190 224 272
#     4   9  16  28  46  66  89 119 152 183 221 272
#     4   8  13  23  41  65  91 119 150 183 218 259
#
# _framework density 21.399332999999999
#
# number of rings (size 3 to 8) (size 9 to 14) (size 15 to 20)
#    0.000    3.250    0.000    3.375    0.000    3.000 
#    0.000    1.250    0.000   12.000    0.000    7.000 
#    0.000    0.000    0.000    0.000    0.000    0.000 
#
# Total GULP energy -178342.247001 kJ/mol
# GULP energy per Si atom -5573.195219 kJ/mol
# Density = 2.135063 g / cm^3
# Si number density = 21.399333 Si / 1000 Ang^3
#
#
#
# Elastic Constant Matrix: (Units=GPa)
#
#
# Indices 1 2 3 4 5 6 
#
# 1 228.5561 -9.2506 117.7601 0.0000 0.0000 0.0000
# 2 -9.2506 52.4633 12.0575 0.0000 0.0000 0.0000
# 3 117.7601 12.0575 121.8042 0.0000 0.0000 0.0000
# 4 0.0000 0.0000 0.0000 4.2345 0.0000 0.0000
# 5 0.0000 0.0000 0.0000 0.0000 -48.1921 0.0000
# 6 0.0000 0.0000 0.0000 0.0000 0.0000 -28.0292
#
#
#
# Elastic Compliance Matrix: (Units=1/GPa)
#
#
# Indices 1 2 3 4 5 6 
#
# 1 0.009418 0.003841 -0.009485 0.000000 0.000000 0.000000
# 2 0.003841 0.021071 -0.005799 0.000000 0.000000 0.000000
# 3 -0.009485 -0.005799 0.017954 0.000000 0.000000 0.000000
# 4 0.000000 0.000000 0.000000 0.236157 0.000000 0.000000
# 5 0.000000 0.000000 0.000000 0.000000 -0.020750 0.000000
# 6 0.000000 0.000000 0.000000 0.000000 0.000000 -0.035677
#
#
# Mechanical properties :
#
#
# Convention : Reuss Voigt Hill
#
# Bulk Modulus (GPa) = 39.13004 71.55084 55.34044
# Shear Modulus (GPa) = 19.26196 4.41974 11.84085
#
# Velocity S-wave (km/s) = 3.00345 1.43870 2.35484
# Velocity P-wave (km/s) = 5.50935 6.02232 5.77154
#
# Compressibility (1/GPa) = 0.02555581
#
# Stress axis : x y z
#
# Youngs Moduli (GPa) = 106.17968 47.45879 55.69635
#
# Poissons Ratio (x) = -0.18227 0.52831
# Poissons Ratio (y) = -0.40780 0.32298
# Poissons Ratio (z) = 1.00717 0.27521
#
# Static dielectric constant tensor:
#      x y z
#    x 1.789630 0.000000 0.000000 
#    y 0.000000 1.841750 0.000000 
#    z 0.000000 0.000000 1.741320 
# 
# From -- ./inp_files/10292.got.cif
#   From: 2010.05.17/outbox.cif.g08.bks.cpg/sg74_6_cif.got.tgz:10292.got - 2010.06.03 17:57:02.
