data_PCOD9534627
_publ_section_title
;
Structure prediction by ZEFSAII (Michael W. Deem and Ramdas Pophale) SiO2 
 PCOD9534627
Probable space group: I M M A
;
_chemical_formula_sum "Si O2"
_cell_formula_units_Z 64
_cell_length_a 8.584931
_cell_length_b 21.704893
_cell_length_c 18.754533
_cell_angle_alpha 90.000000
_cell_angle_beta 90.000000
_cell_angle_gamma 90.000000
_cell_volume 3494.626071
_symmetry_space_group_name_H-M "I M M A"
_symmetry_group_IT_number 74
_symmetry_cell_setting 'orthorhombic'
loop_
_space_group_symop_operation_xyz
x,y,z
-x,1/2-y,z
x,-y,-z
-x,1/2+y,-z
-x,-y,-z
x,1/2+y,-z
-x,y,z
x,1/2-y,z
1/2+x,1/2+y,1/2+z
1/2-x,-y,1/2+z
1/2+x,1/2-y,1/2-z
1/2-x,y,1/2-z
1/2-x,1/2-y,1/2-z
1/2+x,y,1/2-z
1/2-x,1/2+y,1/2+z
1/2+x,-y,1/2+z
loop_
_atom_site_type_symbol
_atom_site_label
_atom_site_fract_x
_atom_site_fract_y
_atom_site_fract_z
Si Si1 0.687181 0.878853 0.830752
Si Si2 0.312382 0.250000 0.669234
Si Si3 0.685852 0.750000 0.668823
Si Si4 0.812934 0.115560 0.830825
Si Si5 0.311882 0.000109 0.918011
O O1 0.500000 0.875457 0.827886
O O2 0.750000 0.886037 0.750000
O O3 0.751597 0.814373 0.861667
O O4 0.735352 0.937707 0.877156
O O5 0.500000 0.250000 0.670575
O O6 0.250000 0.250000 0.750000
O O7 0.264124 0.316701 0.639403
O O8 0.500000 0.750000 0.669616
O O9 0.750000 0.750000 0.750000
O O10 0.750000 0.110216 0.750000
O O11 0.750233 0.059689 0.877234
O O12 0.000000 0.113129 0.828466
O O13 0.500000 0.002043 0.916801
O O14 0.260147 0.000000 0.000000
#
# Coordination Sequence:
#
# PCOD9534627 Si02
#       5
#    16   8   8  16  16
#     4  10  19  33  54  77 103 133 168 210 256 306
#     4   8  16  30  49  76 105 131 163 207 255 302
#     4  10  18  30  51  78 105 129 163 209 255 304
#     4  10  19  33  55  80 106 136 172 213 257 306
#     4  10  22  38  53  73 104 140 177 216 257 304
#
# _framework density 18.313834
#
# number of rings (size 3 to 8) (size 9 to 14) (size 15 to 20)
#    0.000    2.250    0.000    4.875    0.000    5.500 
#    0.000    1.250    0.000    4.500    0.000    0.000 
#    0.000    0.000    0.000    0.000    0.000    0.000 
#
# Total GULP energy -178453.299349 kJ/mol
# GULP energy per Si atom -5576.665605 kJ/mol
# Density = 1.827215 g / cm^3
# Si number density = 18.313834 Si / 1000 Ang^3
#
#
#
# Elastic Constant Matrix: (Units=GPa)
#
#
# Indices 1 2 3 4 5 6 
#
# 1 41.9243 47.1052 22.0235 0.0000 0.0000 0.0000
# 2 47.1052 243.2520 87.9827 0.0000 0.0000 0.0000
# 3 22.0235 87.9827 81.0845 0.0000 0.0000 0.0000
# 4 0.0000 0.0000 0.0000 -6.3443 0.0000 0.0000
# 5 0.0000 0.0000 0.0000 0.0000 17.9568 0.0000
# 6 0.0000 0.0000 0.0000 0.0000 0.0000 21.6058
#
#
#
# Elastic Compliance Matrix: (Units=1/GPa)
#
#
# Indices 1 2 3 4 5 6 
#
# 1 0.030962 -0.004862 -0.003134 0.000000 0.000000 0.000000
# 2 -0.004862 0.007530 -0.006850 0.000000 0.000000 0.000000
# 3 -0.003134 -0.006850 0.020617 0.000000 0.000000 0.000000
# 4 0.000000 0.000000 0.000000 -0.157623 0.000000 0.000000
# 5 0.000000 0.000000 0.000000 0.000000 0.055689 0.000000
# 6 0.000000 0.000000 0.000000 0.000000 0.000000 0.046284
#
#
# Mechanical properties :
#
#
# Convention : Reuss Voigt Hill
#
# Bulk Modulus (GPa) = 33.99435 75.60930 54.80183
# Shear Modulus (GPa) = 116.39589 20.58695 68.49142
#
# Velocity S-wave (km/s) = 7.98087 3.35643 6.12209
# Velocity P-wave (km/s) = 10.17487 7.50971 8.94214
#
# Compressibility (1/GPa) = 0.02941665
#
# Stress axis : x y z
#
# Youngs Moduli (GPa) = 32.29789 132.79884 48.50386
#
# Poissons Ratio (x) = 0.64570 0.15200
# Poissons Ratio (y) = 0.15704 0.33226
# Poissons Ratio (z) = 0.10121 0.90969
#
# Static dielectric constant tensor:
#      x y z
#    x 1.624070 0.000000 0.000000 
#    y 0.000000 1.675560 0.000000 
#    z 0.000000 0.000000 1.595590 
# 
# From -- ./inp_files/39124.got.cif
#   From: 2010.05.17/outbox.cif.g08.bks.cpg/sg74_20_cif.got.tgz:39124.got - 2010.06.03 17:57:02.
