data_PCOD9534267
_publ_section_title
;
Structure prediction by ZEFSAII (Michael W. Deem and Ramdas Pophale) SiO2 
 PCOD9534267
Probable space group: I M M A
;
_chemical_formula_sum "Si O2"
_cell_formula_units_Z 96
_cell_length_a 26.983610
_cell_length_b 9.168407
_cell_length_c 28.898133
_cell_angle_alpha 90.000000
_cell_angle_beta 90.000000
_cell_angle_gamma 90.000000
_cell_volume 7149.303284
_symmetry_space_group_name_H-M "I M M A"
_symmetry_group_IT_number 74
_symmetry_cell_setting 'orthorhombic'
loop_
_space_group_symop_operation_xyz
x,y,z
-x,1/2-y,z
x,-y,-z
-x,1/2+y,-z
-x,-y,-z
x,1/2+y,-z
-x,y,z
x,1/2-y,z
1/2+x,1/2+y,1/2+z
1/2-x,-y,1/2+z
1/2+x,1/2-y,1/2-z
1/2-x,y,1/2-z
1/2-x,1/2-y,1/2-z
1/2+x,y,1/2-z
1/2-x,1/2+y,1/2+z
1/2+x,-y,1/2+z
loop_
_atom_site_type_symbol
_atom_site_label
_atom_site_fract_x
_atom_site_fract_y
_atom_site_fract_z
Si Si1 0.590305 0.577821 0.952908
Si Si2 0.299487 0.418277 0.282060
Si Si3 0.943110 0.924814 0.648229
Si Si4 0.758419 0.077531 0.640350
Si Si5 0.209169 0.576798 0.547898
Si Si6 0.356484 0.577834 0.203980
O O1 0.581323 0.750000 0.958067
O O2 0.565253 0.528816 0.905219
O O3 0.649575 0.555356 0.947329
O O4 0.574152 0.500000 0.000000
O O5 0.312106 0.250000 0.291526
O O6 0.250000 0.418556 0.250000
O O7 0.283797 0.504709 0.327966
O O8 0.340686 0.498351 0.251302
O O9 0.933592 0.750000 0.649988
O O10 0.000000 0.950819 0.661291
O O11 0.904233 0.006205 0.680600
O O12 0.750092 0.250000 0.634640
O O13 0.810161 0.059343 0.668562
O O14 0.764949 0.997218 0.591674
O O15 0.223924 0.500000 0.500000
O O16 0.218157 0.750000 0.546549
O O17 0.363019 0.750000 0.211447
#
# Coordination Sequence:
#
# PCOD9534267 Si02
#       6
#    16  16  16  16  16  16
#     4   9  18  30  43  57  74  98 132 173 216 257
#     4   9  17  28  44  63  82 104 129 158 199 246
#     4  10  20  33  46  59  77 104 137 173 215 260
#     4  10  18  28  43  63  84 105 132 166 204 245
#     4  10  18  28  42  59  81 108 138 171 209 250
#     4  10  19  30  44  61  82 103 129 168 209 249
#
# _framework density 13.427882
#
# number of rings (size 3 to 8) (size 9 to 14) (size 15 to 20)
#    0.000    2.333    1.667    2.000    0.000    5.333 
#    0.000    0.000    0.000    0.000    0.000    0.000 
#    0.000    0.000    0.000    0.000    0.000    0.833 
#
# Total GULP energy -267676.254551 kJ/mol
# GULP energy per Si atom -5576.588636 kJ/mol
# Density = 1.339732 g / cm^3
# Si number density = 13.427882 Si / 1000 Ang^3
#
#
#
# Elastic Constant Matrix: (Units=GPa)
#
#
# Indices 1 2 3 4 5 6 
#
# 1 55.3496 48.4956 46.0182 0.0000 0.0000 0.0000
# 2 48.4956 90.8357 70.7259 0.0000 0.0000 0.0000
# 3 46.0182 70.7259 87.4894 0.0000 0.0000 0.0000
# 4 0.0000 0.0000 0.0000 27.4886 0.0000 0.0000
# 5 0.0000 0.0000 0.0000 0.0000 14.7264 0.0000
# 6 0.0000 0.0000 0.0000 0.0000 0.0000 14.7424
#
#
#
# Elastic Compliance Matrix: (Units=1/GPa)
#
#
# Indices 1 2 3 4 5 6 
#
# 1 0.036557 -0.012266 -0.009312 0.000000 0.000000 0.000000
# 2 -0.012266 0.033823 -0.020891 0.000000 0.000000 0.000000
# 3 -0.009312 -0.020891 0.033216 0.000000 0.000000 0.000000
# 4 0.000000 0.000000 0.000000 0.036379 0.000000 0.000000
# 5 0.000000 0.000000 0.000000 0.000000 0.067905 0.000000
# 6 0.000000 0.000000 0.000000 0.000000 0.000000 0.067832
#
#
# Mechanical properties :
#
#
# Convention : Reuss Voigt Hill
#
# Bulk Modulus (GPa) = 53.59790 62.68379 58.14084
# Shear Modulus (GPa) = 13.62882 15.95382 14.79132
#
# Velocity S-wave (km/s) = 3.18931 3.45064 3.32254
# Velocity P-wave (km/s) = 7.31876 7.91575 7.62310
#
# Compressibility (1/GPa) = 0.01865745
#
# Stress axis : x y z
#
# Youngs Moduli (GPa) = 27.35484 29.56530 30.10586
#
# Poissons Ratio (x) = 0.36265 0.28036
# Poissons Ratio (y) = 0.33554 0.62894
# Poissons Ratio (z) = 0.25474 0.61764
#
# Static dielectric constant tensor:
#      x y z
#    x 1.413970 0.000000 0.000000 
#    y 0.000000 1.446830 0.000000 
#    z 0.000000 0.000000 1.425760 
# 
# From -- ./inp_files/57247.got.cif
#   From: 2010.05.17/outbox.cif.g08.bks.cpg/sg74_29_cif.got.tgz:57247.got - 2010.06.03 17:57:02.
