data_PCOD9534245
_publ_section_title
;
Structure prediction by ZEFSAII (Michael W. Deem and Ramdas Pophale) SiO2 
 PCOD9534245
Probable space group: I M M A
;
_chemical_formula_sum "Si O2"
_cell_formula_units_Z 104
_cell_length_a 7.535450
_cell_length_b 22.972795
_cell_length_c 34.839557
_cell_angle_alpha 90.000000
_cell_angle_beta 90.000000
_cell_angle_gamma 90.000000
_cell_volume 6031.087839
_symmetry_space_group_name_H-M "I M M A"
_symmetry_group_IT_number 74
_symmetry_cell_setting 'orthorhombic'
loop_
_space_group_symop_operation_xyz
x,y,z
-x,1/2-y,z
x,-y,-z
-x,1/2+y,-z
-x,-y,-z
x,1/2+y,-z
-x,y,z
x,1/2-y,z
1/2+x,1/2+y,1/2+z
1/2-x,-y,1/2+z
1/2+x,1/2-y,1/2-z
1/2-x,y,1/2-z
1/2-x,1/2-y,1/2-z
1/2+x,y,1/2-z
1/2-x,1/2+y,1/2+z
1/2+x,-y,1/2+z
loop_
_atom_site_type_symbol
_atom_site_label
_atom_site_fract_x
_atom_site_fract_y
_atom_site_fract_z
Si Si1 0.282876 0.862347 0.842412
Si Si2 0.000000 0.820581 0.073977
Si Si3 0.000000 0.820637 0.986770
Si Si4 0.210669 0.819141 0.364443
Si Si5 0.787508 0.750000 0.704936
Si Si6 0.712654 0.470442 0.206328
Si Si7 0.708793 0.819793 0.925582
Si Si8 0.787688 0.897553 0.293460
O O1 0.500000 0.862208 0.841774
O O2 0.222393 0.808089 0.816341
O O3 0.221574 0.922592 0.823611
O O4 0.233096 0.851134 0.886409
O O5 0.172635 0.836805 0.098877
O O6 0.000000 0.750000 0.071959
O O7 0.000000 0.842533 0.030373
O O8 0.171757 0.836949 0.961707
O O9 0.000000 0.750000 0.988641
O O10 0.235895 0.750000 0.358068
O O11 0.272035 0.854702 0.327024
O O12 0.000000 0.828744 0.370640
O O13 0.750000 0.750000 0.750000
O O14 0.000000 0.750000 0.700371
O O15 0.500000 0.473199 0.202140
O O16 0.750000 0.451380 0.250000
O O17 0.782217 0.536349 0.201969
O O18 0.500000 0.830622 0.932121
O O19 0.729039 0.750000 0.919316
O O20 0.750000 0.877963 0.250000
O O21 0.000000 0.900229 0.296755
#
# Coordination Sequence:
#
# PCOD9534245 Si02
#       8
#    16   8   8  16   8  16  16  16
#     4   9  16  28  44  58  86 124 156 197 245 287
#     4   9  18  32  50  73 103 131 153 191 241 289
#     4   9  18  30  46  73  99 119 157 196 238 300
#     4   9  18  32  49  72 101 129 159 190 230 283
#     4  10  18  28  38  58  86 118 160 194 238 296
#     4   9  17  30  44  61  88 120 160 204 238 275
#     4   9  16  29  46  65  91 123 154 195 247 289
#     4   9  18  30  46  68  93 124 161 197 232 273
#
# _framework density 17.243986
#
# number of rings (size 3 to 8) (size 9 to 14) (size 15 to 20)
#    0.000    2.923    0.769    0.462    1.077    0.923 
#    2.769    3.077    0.000    0.000    0.000    2.154 
#    0.000    6.154    0.000    0.000    0.000    0.000 
#
# Total GULP energy -289846.117240 kJ/mol
# GULP energy per Si atom -5573.963793 kJ/mol
# Density = 1.720474 g / cm^3
# Si number density = 17.243986 Si / 1000 Ang^3
#
#
#
# Elastic Constant Matrix: (Units=GPa)
#
#
# Indices 1 2 3 4 5 6 
#
# 1 62.4051 27.3247 51.8249 0.0000 0.0000 0.0000
# 2 27.3247 46.7011 66.6219 0.0000 0.0000 0.0000
# 3 51.8249 66.6219 190.0125 0.0000 0.0000 0.0000
# 4 0.0000 0.0000 0.0000 9.4265 0.0000 0.0000
# 5 0.0000 0.0000 0.0000 0.0000 26.3524 0.0000
# 6 0.0000 0.0000 0.0000 0.0000 0.0000 -0.1615
#
#
#
# Elastic Compliance Matrix: (Units=1/GPa)
#
#
# Indices 1 2 3 4 5 6 
#
# 1 0.022381 -0.008777 -0.003027 0.000000 0.000000 0.000000
# 2 -0.008777 0.046283 -0.013834 0.000000 0.000000 0.000000
# 3 -0.003027 -0.013834 0.010939 0.000000 0.000000 0.000000
# 4 0.000000 0.000000 0.000000 0.106084 0.000000 0.000000
# 5 0.000000 0.000000 0.000000 0.000000 0.037947 0.000000
# 6 0.000000 0.000000 0.000000 0.000000 0.000000 -6.190260
#
#
# Mechanical properties :
#
#
# Convention : Reuss Voigt Hill
#
# Bulk Modulus (GPa) = 35.30154 65.62909 50.46531
# Shear Modulus (GPa) = -0.84661 17.34659 8.24999
#
# Velocity S-wave (km/s) = -0.70145 3.17511 2.18967
# Velocity P-wave (km/s) = 4.45648 7.18217 5.97678
#
# Compressibility (1/GPa) = 0.02832737
#
# Stress axis : x y z
#
# Youngs Moduli (GPa) = 44.68035 21.60621 91.41780
#
# Poissons Ratio (x) = 0.18964 0.27672
# Poissons Ratio (y) = 0.39216 1.26465
# Poissons Ratio (z) = 0.13525 0.29890
#
# Static dielectric constant tensor:
#      x y z
#    x 1.630970 0.000000 0.000000 
#    y 0.000000 1.582950 0.000000 
#    z 0.000000 0.000000 1.563200 
# 
# From -- ./inp_files/70847.got.cif
#   From: 2010.05.17/outbox.cif.g08.bks.cpg/sg74_36_cif.got.tgz:70847.got - 2010.06.03 17:57:02.
