data_PCOD9534480
_publ_section_title
;
Structure prediction by ZEFSAII (Michael W. Deem and Ramdas Pophale) SiO2 
 PCOD9534480
Probable space group: I M M A
;
_chemical_formula_sum "Si O2"
_cell_formula_units_Z 60
_cell_length_a 14.904371
_cell_length_b 5.440597
_cell_length_c 37.875949
_cell_angle_alpha 90.000000
_cell_angle_beta 90.000000
_cell_angle_gamma 90.000000
_cell_volume 3071.310562
_symmetry_space_group_name_H-M "I M M A"
_symmetry_group_IT_number 74
_symmetry_cell_setting 'orthorhombic'
loop_
_space_group_symop_operation_xyz
x,y,z
-x,1/2-y,z
x,-y,-z
-x,1/2+y,-z
-x,-y,-z
x,1/2+y,-z
-x,y,z
x,1/2-y,z
1/2+x,1/2+y,1/2+z
1/2-x,-y,1/2+z
1/2+x,1/2-y,1/2-z
1/2-x,y,1/2-z
1/2-x,1/2-y,1/2-z
1/2+x,y,1/2-z
1/2-x,1/2+y,1/2+z
1/2+x,-y,1/2+z
loop_
_atom_site_type_symbol
_atom_site_label
_atom_site_fract_x
_atom_site_fract_y
_atom_site_fract_z
Si Si1 0.193492 0.250000 0.443164
Si Si2 0.665135 0.250000 0.300211
Si Si3 0.347882 0.250000 0.505766
Si Si4 0.873237 0.750000 0.722005
Si Si5 0.000000 0.250000 0.477585
Si Si6 0.096019 0.250000 0.680679
Si Si7 0.694781 0.750000 0.340587
Si Si8 0.235596 0.250000 0.917437
O O1 0.261915 0.250000 0.477722
O O2 0.092258 0.250000 0.456279
O O3 0.210261 0.494955 0.420402
O O4 0.767476 0.250000 0.286513
O O5 0.609712 0.250000 0.263863
O O6 0.657320 0.502606 0.322280
O O7 0.398023 0.500000 0.500000
O O8 0.317415 0.250000 0.545973
O O9 0.904921 0.497329 0.704163
O O10 0.000000 0.500000 0.500000
O O11 0.194725 0.250000 0.662358
O O12 0.000000 0.250000 0.660075
O O13 0.677480 0.750000 0.382226
#
# Coordination Sequence:
#
# PCOD9534480 Si02
#       8
#     8   8   8   8   4   8   8   8
#     4  10  19  30  41  55  69  95 132 175 208 243
#     4   9  17  30  47  67  78 102 137 173 209 231
#     4   8  14  25  39  51  65  89 122 164 200 231
#     4   9  17  30  49  64  82 103 138 172 197 242
#     4  12  20  30  44  56  68  88 128 186 228 248
#     4  10  19  31  44  64  87 114 133 160 208 259
#     4  10  19  30  45  61  87 109 132 171 211 266
#     4  10  18  30  42  55  77  99 127 159 216 256
#
# _framework density 19.535636
#
# number of rings (size 3 to 8) (size 9 to 14) (size 15 to 20)
#    0.000    2.400    0.000    5.200    0.000    3.200 
#    2.400    0.000    0.000    0.000    0.000    0.000 
#    0.000    0.000    0.000    0.000    0.000    0.000 
#
# Total GULP energy -167003.193112 kJ/mol
# GULP energy per Si atom -5566.773104 kJ/mol
# Density = 1.949117 g / cm^3
# Si number density = 19.535636 Si / 1000 Ang^3
#
#
#
# Elastic Constant Matrix: (Units=GPa)
#
#
# Indices 1 2 3 4 5 6 
#
# 1 30.5327 -2.6795 -20.0446 0.0000 0.0000 0.0000
# 2 -2.6795 201.3192 36.7759 0.0000 0.0000 0.0000
# 3 -20.0446 36.7759 53.8972 0.0000 0.0000 0.0000
# 4 0.0000 0.0000 0.0000 22.5899 0.0000 0.0000
# 5 0.0000 0.0000 0.0000 0.0000 5.8353 0.0000
# 6 0.0000 0.0000 0.0000 0.0000 0.0000 2.5999
#
#
#
# Elastic Compliance Matrix: (Units=1/GPa)
#
#
# Indices 1 2 3 4 5 6 
#
# 1 0.044659 -0.002787 0.018511 0.000000 0.000000 0.000000
# 2 -0.002787 0.005848 -0.005027 0.000000 0.000000 0.000000
# 3 0.018511 -0.005027 0.028868 0.000000 0.000000 0.000000
# 4 0.000000 0.000000 0.000000 0.044268 0.000000 0.000000
# 5 0.000000 0.000000 0.000000 0.000000 0.171371 0.000000
# 6 0.000000 0.000000 0.000000 0.000000 0.000000 0.384633
#
#
# Mechanical properties :
#
#
# Convention : Reuss Voigt Hill
#
# Bulk Modulus (GPa) = 9.92370 34.87251 22.39811
# Shear Modulus (GPa) = 7.22707 24.31817 15.77262
#
# Velocity S-wave (km/s) = 1.92548 3.53202 2.84452
# Velocity P-wave (km/s) = 3.16766 5.87563 4.72001
#
# Compressibility (1/GPa) = 0.10076889
#
# Stress axis : x y z
#
# Youngs Moduli (GPa) = 22.39178 170.98503 34.64022
#
# Poissons Ratio (x) = 0.47654 -0.64121
# Poissons Ratio (y) = 0.06241 0.17414
# Poissons Ratio (z) = -0.41449 0.85956
#
# Static dielectric constant tensor:
#      x y z
#    x 1.699400 0.000000 0.000000 
#    y 0.000000 1.751550 0.000000 
#    z 0.000000 0.000000 1.678400 
# 
# From -- ./inp_files/72813.got.cif
#   From: 2010.05.17/outbox.cif.g08.bks.cpg/sg74_37_cif.got.tgz:72813.got - 2010.06.03 17:57:02.
