data_PCOD9534923
_publ_section_title
;
Structure prediction by ZEFSAII (Michael W. Deem and Ramdas Pophale) SiO2 
 PCOD9534923
Probable space group: I M M A
;
_chemical_formula_sum "Si O2"
_cell_formula_units_Z 96
_cell_length_a 7.921638
_cell_length_b 21.005081
_cell_length_c 30.083441
_cell_angle_alpha 90.000000
_cell_angle_beta 90.000000
_cell_angle_gamma 90.000000
_cell_volume 5005.723571
_symmetry_space_group_name_H-M "I M M A"
_symmetry_group_IT_number 74
_symmetry_cell_setting 'orthorhombic'
loop_
_space_group_symop_operation_xyz
x,y,z
-x,1/2-y,z
x,-y,-z
-x,1/2+y,-z
-x,-y,-z
x,1/2+y,-z
-x,y,z
x,1/2-y,z
1/2+x,1/2+y,1/2+z
1/2-x,-y,1/2+z
1/2+x,1/2-y,1/2-z
1/2-x,y,1/2-z
1/2-x,1/2-y,1/2-z
1/2+x,y,1/2-z
1/2-x,1/2+y,1/2+z
1/2+x,-y,1/2+z
loop_
_atom_site_type_symbol
_atom_site_label
_atom_site_fract_x
_atom_site_fract_y
_atom_site_fract_z
Si Si1 0.297666 0.677449 0.381059
Si Si2 0.204926 0.052816 0.156750
Si Si3 0.203244 0.182502 0.198673
Si Si4 0.198691 0.083299 0.698263
Si Si5 0.794823 0.095597 0.965150
Si Si6 0.794824 0.051202 0.056355
O O1 0.500000 0.680925 0.385916
O O2 0.233344 0.750000 0.377016
O O3 0.267338 0.634882 0.337166
O O4 0.232770 0.641945 0.425956
O O5 0.268574 0.115873 0.180879
O O6 0.264488 0.060839 0.106187
O O7 0.000000 0.052265 0.156414
O O8 0.254889 0.987015 0.180152
O O9 0.262508 0.250000 0.178349
O O10 0.250000 0.184372 0.250000
O O11 0.000000 0.181263 0.194040
O O12 0.250000 0.091130 0.750000
O O13 0.000000 0.089625 0.696822
O O14 0.000000 0.101087 0.965203
O O15 0.754050 0.022558 0.953235
O O16 0.737266 0.098133 0.016731
O O17 0.000000 0.054991 0.056269
#
# Coordination Sequence:
#
# PCOD9534923 Si02
#       6
#    16  16  16  16  16  16
#     4  10  20  36  58  81 108 142 182 227 273 323
#     4  10  18  32  54  79 108 141 177 220 264 311
#     4   9  18  31  47  69  98 134 172 209 254 307
#     4  12  25  39  56  78 106 138 179 230 278 330
#     4   8  13  25  47  77 105 132 168 204 249 305
#     4   8  13  23  47  77 105 134 165 206 251 300
#
# _framework density 19.178046999999999
#
# number of rings (size 3 to 8) (size 9 to 14) (size 15 to 20)
#    0.000    2.500    1.667    3.000    0.000    2.667 
#    0.000    0.833    0.000    7.000    0.000    0.000 
#    0.000    2.667    0.000    0.000    0.000    0.000 
#
# Total GULP energy -267272.012207 kJ/mol
# GULP energy per Si atom -5568.166921 kJ/mol
# Density = 1.913440 g / cm^3
# Si number density = 19.178047 Si / 1000 Ang^3
#
#
#
# Elastic Constant Matrix: (Units=GPa)
#
#
# Indices 1 2 3 4 5 6 
#
# 1 22.7059 7.0826 2.2868 0.0000 0.0000 0.0000
# 2 7.0826 163.1853 96.1544 0.0000 0.0000 0.0000
# 3 2.2868 96.1544 157.3754 0.0000 0.0000 0.0000
# 4 0.0000 0.0000 0.0000 23.5115 0.0000 0.0000
# 5 0.0000 0.0000 0.0000 0.0000 12.6046 0.0000
# 6 0.0000 0.0000 0.0000 0.0000 0.0000 28.7424
#
#
#
# Elastic Compliance Matrix: (Units=1/GPa)
#
#
# Indices 1 2 3 4 5 6 
#
# 1 0.044716 -0.002434 0.000838 0.000000 0.000000 0.000000
# 2 -0.002434 0.009708 -0.005896 0.000000 0.000000 0.000000
# 3 0.000838 -0.005896 0.009944 0.000000 0.000000 0.000000
# 4 0.000000 0.000000 0.000000 0.042532 0.000000 0.000000
# 5 0.000000 0.000000 0.000000 0.000000 0.079336 0.000000
# 6 0.000000 0.000000 0.000000 0.000000 0.000000 0.034792
#
#
# Mechanical properties :
#
#
# Convention : Reuss Voigt Hill
#
# Bulk Modulus (GPa) = 20.24984 61.59049 40.92016
# Shear Modulus (GPa) = 19.80394 28.82123 24.31259
#
# Velocity S-wave (km/s) = 3.21695 3.88083 3.56438
# Velocity P-wave (km/s) = 4.93763 7.22952 6.19056
#
# Compressibility (1/GPa) = 0.04938311
#
# Stress axis : x y z
#
# Youngs Moduli (GPa) = 22.36320 103.01048 100.55902
#
# Poissons Ratio (x) = 0.25076 -0.08423
# Poissons Ratio (y) = 0.05444 0.59289
# Poissons Ratio (z) = -0.01873 0.60734
#
# Static dielectric constant tensor:
#      x y z
#    x 1.710640 0.000000 0.000000 
#    y 0.000000 1.681650 0.000000 
#    z 0.000000 0.000000 1.747530 
# 
# From -- ./inp_files/64271.got.cif
#   From: 2010.05.17/outbox.cif.g08.bks.cpg/sg74_33_cif.got.tgz:64271.got - 2010.06.03 17:57:02.
