data_PCOD9534091
_publ_section_title
;
Structure prediction by ZEFSAII (Michael W. Deem and Ramdas Pophale) SiO2 
 PCOD9534091
Probable space group: I M M A
;
_chemical_formula_sum "Si O2"
_cell_formula_units_Z 112
_cell_length_a 21.900929
_cell_length_b 20.872118
_cell_length_c 12.305176
_cell_angle_alpha 90.000000
_cell_angle_beta 90.000000
_cell_angle_gamma 90.000000
_cell_volume 5624.926972
_symmetry_space_group_name_H-M "I M M A"
_symmetry_group_IT_number 74
_symmetry_cell_setting 'orthorhombic'
loop_
_space_group_symop_operation_xyz
x,y,z
-x,1/2-y,z
x,-y,-z
-x,1/2+y,-z
-x,-y,-z
x,1/2+y,-z
-x,y,z
x,1/2-y,z
1/2+x,1/2+y,1/2+z
1/2-x,-y,1/2+z
1/2+x,1/2-y,1/2-z
1/2-x,y,1/2-z
1/2-x,1/2-y,1/2-z
1/2+x,y,1/2-z
1/2-x,1/2+y,1/2+z
1/2+x,-y,1/2+z
loop_
_atom_site_type_symbol
_atom_site_label
_atom_site_fract_x
_atom_site_fract_y
_atom_site_fract_z
Si Si1 0.928935 0.086766 0.544375
Si Si2 0.259543 0.056699 0.084105
Si Si3 0.887505 0.557147 0.917682
Si Si4 0.126043 0.674376 0.300088
Si Si5 0.115841 0.824576 0.066493
Si Si6 0.118986 0.967369 0.675783
Si Si7 0.237132 0.676330 0.438597
O O1 0.913879 0.154602 0.596984
O O2 0.906081 0.077098 0.421889
O O3 0.000000 0.072447 0.547102
O O4 0.895884 0.037410 0.627376
O O5 0.186590 0.055401 0.091937
O O6 0.307864 0.043581 0.178956
O O7 0.275773 0.125422 0.032360
O O8 0.274719 0.000000 0.000000
O O9 0.908849 0.545869 0.794064
O O10 0.905438 0.500000 0.000000
O O11 0.903058 0.625360 0.973493
O O12 0.126890 0.750000 0.283021
O O13 0.098839 0.649370 0.186474
O O14 0.195318 0.656863 0.335749
O O15 0.097280 0.750000 0.047947
O O16 0.190038 0.825071 0.076617
O O17 0.220969 0.750000 0.465186
#
# Coordination Sequence:
#
# PCOD9534091 Si02
#       7
#    16  16  16  16  16  16  16
#     4  11  23  38  58  79  99 134 181 231 283 316
#     4  10  17  30  49  76 109 143 174 212 259 316
#     4  10  21  31  51  81 111 143 178 210 255 319
#     4  10  18  32  56  80 108 141 175 223 268 310
#     4   9  18  32  51  80 116 149 177 205 254 324
#     4  11  19  36  54  72 105 139 174 221 267 315
#     4   9  16  28  48  79 113 145 177 209 254 318
#
# _framework density 19.911370000000002
#
# number of rings (size 3 to 8) (size 9 to 14) (size 15 to 20)
#    0.000    2.000    2.857    2.571    0.000    2.000 
#    0.000    7.143    0.000   11.143    0.000    0.000 
#    0.000    0.000    0.000    0.000    0.000    0.000 
#
# Total GULP energy -311954.576269 kJ/mol
# GULP energy per Si atom -5570.617433 kJ/mol
# Density = 1.986605 g / cm^3
# Si number density = 19.911370 Si / 1000 Ang^3
#
#
#
# Elastic Constant Matrix: (Units=GPa)
#
#
# Indices 1 2 3 4 5 6 
#
# 1 24.8820 4.5267 -7.1286 0.0000 0.0000 0.0000
# 2 4.5267 53.1043 40.1648 0.0000 0.0000 0.0000
# 3 -7.1286 40.1648 135.2114 0.0000 0.0000 0.0000
# 4 0.0000 0.0000 0.0000 14.1558 0.0000 0.0000
# 5 0.0000 0.0000 0.0000 0.0000 6.8533 0.0000
# 6 0.0000 0.0000 0.0000 0.0000 0.0000 -9.0018
#
#
#
# Elastic Compliance Matrix: (Units=1/GPa)
#
#
# Indices 1 2 3 4 5 6 
#
# 1 0.042673 -0.006886 0.004295 0.000000 0.000000 0.000000
# 2 -0.006886 0.025399 -0.007908 0.000000 0.000000 0.000000
# 3 0.004295 -0.007908 0.009971 0.000000 0.000000 0.000000
# 4 0.000000 0.000000 0.000000 0.070642 0.000000 0.000000
# 5 0.000000 0.000000 0.000000 0.000000 0.145914 0.000000
# 6 0.000000 0.000000 0.000000 0.000000 0.000000 -0.111089
#
#
# Mechanical properties :
#
#
# Convention : Reuss Voigt Hill
#
# Bulk Modulus (GPa) = 17.52975 32.03594 24.78284
# Shear Modulus (GPa) = 22.36896 14.11046 18.23971
#
# Velocity S-wave (km/s) = 3.35539 2.66496 3.02991
# Velocity P-wave (km/s) = 4.88206 5.05901 4.97132
#
# Compressibility (1/GPa) = 0.05704588
#
# Stress axis : x y z
#
# Youngs Moduli (GPa) = 23.43395 39.37192 100.28769
#
# Poissons Ratio (x) = 0.27113 -0.43077
# Poissons Ratio (y) = 0.16137 0.79306
# Poissons Ratio (z) = -0.10066 0.31135
#
# Static dielectric constant tensor:
#      x y z
#    x 1.736010 0.000000 0.000000 
#    y 0.000000 1.713140 0.000000 
#    z 0.000000 0.000000 1.750570 
# 
# From -- ./inp_files/24206.got.cif
#   From: 2010.05.17/outbox.cif.g08.bks.cpg/sg74_13_cif.got.tgz:24206.got - 2010.06.03 17:57:02.
