data_PCOD9534050
_publ_section_title
;
Structure prediction by ZEFSAII (Michael W. Deem and Ramdas Pophale) SiO2 
 PCOD9534050
Probable space group: I M M A
;
_chemical_formula_sum "Si O2"
_cell_formula_units_Z 104
_cell_length_a 23.880377
_cell_length_b 11.402183
_cell_length_c 28.572377
_cell_angle_alpha 90.000000
_cell_angle_beta 90.000000
_cell_angle_gamma 90.000000
_cell_volume 7779.927636
_symmetry_space_group_name_H-M "I M M A"
_symmetry_group_IT_number 74
_symmetry_cell_setting 'orthorhombic'
loop_
_space_group_symop_operation_xyz
x,y,z
-x,1/2-y,z
x,-y,-z
-x,1/2+y,-z
-x,-y,-z
x,1/2+y,-z
-x,y,z
x,1/2-y,z
1/2+x,1/2+y,1/2+z
1/2-x,-y,1/2+z
1/2+x,1/2-y,1/2-z
1/2-x,y,1/2-z
1/2-x,1/2-y,1/2-z
1/2+x,y,1/2-z
1/2-x,1/2+y,1/2+z
1/2+x,-y,1/2+z
loop_
_atom_site_type_symbol
_atom_site_label
_atom_site_fract_x
_atom_site_fract_y
_atom_site_fract_z
Si Si1 0.434602 0.750000 0.403232
Si Si2 0.064340 0.012229 0.227123
Si Si3 0.732663 0.511612 0.677425
Si Si4 0.670067 0.110083 0.229958
Si Si5 0.567299 0.495035 0.555230
Si Si6 0.721671 0.750000 0.300701
Si Si7 0.088222 0.250000 0.793171
Si Si8 0.127020 0.386874 0.136346
O O1 0.500000 0.750000 0.415999
O O2 0.411979 0.870085 0.424525
O O3 0.429623 0.750000 0.347508
O O4 0.105948 0.069582 0.265148
O O5 0.089257 0.049414 0.176187
O O6 0.000000 0.049643 0.230891
O O7 0.067872 0.871052 0.229328
O O8 0.699347 0.546659 0.725403
O O9 0.793511 0.568738 0.685446
O O10 0.737152 0.371669 0.674470
O O11 0.690029 0.562068 0.639096
O O12 0.674836 0.250000 0.235089
O O13 0.577455 0.500000 0.500000
O O14 0.500000 0.505653 0.562582
O O15 0.598520 0.590724 0.586524
O O16 0.750000 0.750000 0.250000
O O17 0.655234 0.750000 0.293216
O O18 0.128915 0.250000 0.148139
#
# Coordination Sequence:
#
# PCOD9534050 Si02
#       8
#     8  16  16  16  16   8   8  16
#     4  10  18  32  46  54  70  98 128 161 203 249
#     4  11  20  29  41  59  80 106 138 169 204 243
#     4  10  17  29  43  61  77  98 131 165 205 242
#     4  10  18  28  41  56  80 106 127 161 202 240
#     4  10  21  33  45  60  77 101 131 167 212 256
#     4  12  16  26  44  60  78 100 129 171 206 243
#     4  12  18  30  42  58  78 101 134 172 210 241
#     4  11  21  31  44  60  79 103 134 173 209 248
#
# _framework density 13.367732999999999
#
# number of rings (size 3 to 8) (size 9 to 14) (size 15 to 20)
#    0.000    1.385    6.154    4.385    1.077    2.154 
#    0.000    0.000    0.000    0.000    0.000    0.000 
#    0.000    0.000    0.000    0.000    0.000    0.769 
#
# Total GULP energy -289810.468393 kJ/mol
# GULP energy per Si atom -5573.278238 kJ/mol
# Density = 1.333731 g / cm^3
# Si number density = 13.367733 Si / 1000 Ang^3
#
#
#
# Elastic Constant Matrix: (Units=GPa)
#
#
# Indices 1 2 3 4 5 6 
#
# 1 73.6018 20.5321 25.7147 0.0000 0.0000 0.0000
# 2 20.5321 101.4800 10.3294 0.0000 0.0000 0.0000
# 3 25.7147 10.3294 28.7981 0.0000 0.0000 0.0000
# 4 0.0000 0.0000 0.0000 5.9451 0.0000 0.0000
# 5 0.0000 0.0000 0.0000 0.0000 11.4912 0.0000
# 6 0.0000 0.0000 0.0000 0.0000 0.0000 11.8625
#
#
#
# Elastic Compliance Matrix: (Units=1/GPa)
#
#
# Indices 1 2 3 4 5 6 
#
# 1 0.020271 -0.002344 -0.017259 0.000000 0.000000 0.000000
# 2 -0.002344 0.010499 -0.001672 0.000000 0.000000 0.000000
# 3 -0.017259 -0.001672 0.050736 0.000000 0.000000 0.000000
# 4 0.000000 0.000000 0.000000 0.168205 0.000000 0.000000
# 5 0.000000 0.000000 0.000000 0.000000 0.087023 0.000000
# 6 0.000000 0.000000 0.000000 0.000000 0.000000 0.084299
#
#
# Mechanical properties :
#
#
# Convention : Reuss Voigt Hill
#
# Bulk Modulus (GPa) = 25.67202 35.22581 30.44892
# Shear Modulus (GPa) = 10.49167 15.68002 13.08585
#
# Velocity S-wave (km/s) = 2.80456 3.42859 3.13215
# Velocity P-wave (km/s) = 5.45285 6.48708 5.99232
#
# Compressibility (1/GPa) = 0.03895291
#
# Stress axis : x y z
#
# Youngs Moduli (GPa) = 49.33242 95.24958 19.70998
#
# Poissons Ratio (x) = 0.22331 0.34018
# Poissons Ratio (y) = 0.11566 0.03296
# Poissons Ratio (z) = 0.85144 0.15928
#
# Static dielectric constant tensor:
#      x y z
#    x 1.484040 0.000000 0.000000 
#    y 0.000000 1.486370 0.000000 
#    z 0.000000 0.000000 1.416140 
# 
# From -- ./inp_files/73818.got.cif
#   From: 2010.05.17/outbox.cif.g08.bks.cpg/sg74_37_cif.got.tgz:73818.got - 2010.06.03 17:57:02.
