data_PCOD9534812
_publ_section_title
;
Structure prediction by ZEFSAII (Michael W. Deem and Ramdas Pophale) SiO2 
 PCOD9534812
Probable space group: I M M A
;
_chemical_formula_sum "Si O2"
_cell_formula_units_Z 80
_cell_length_a 14.261579
_cell_length_b 27.401099
_cell_length_c 10.371570
_cell_angle_alpha 90.000000
_cell_angle_beta 90.000000
_cell_angle_gamma 90.000000
_cell_volume 4053.032597
_symmetry_space_group_name_H-M "I M M A"
_symmetry_group_IT_number 74
_symmetry_cell_setting 'orthorhombic'
loop_
_space_group_symop_operation_xyz
x,y,z
-x,1/2-y,z
x,-y,-z
-x,1/2+y,-z
-x,-y,-z
x,1/2+y,-z
-x,y,z
x,1/2-y,z
1/2+x,1/2+y,1/2+z
1/2-x,-y,1/2+z
1/2+x,1/2-y,1/2-z
1/2-x,y,1/2-z
1/2-x,1/2-y,1/2-z
1/2+x,y,1/2-z
1/2-x,1/2+y,1/2+z
1/2+x,-y,1/2+z
loop_
_atom_site_type_symbol
_atom_site_label
_atom_site_fract_x
_atom_site_fract_y
_atom_site_fract_z
Si Si1 0.255346 0.192679 0.969290
Si Si2 0.603057 0.808163 0.251754
Si Si3 0.888905 0.953490 0.705087
Si Si4 0.774105 0.405861 0.067014
Si Si5 0.606749 0.540073 0.383556
O O1 0.266612 0.250000 0.005282
O O2 0.337827 0.175919 0.872001
O O3 0.162088 0.188312 0.882147
O O4 0.248866 0.151221 0.076081
O O5 0.500000 0.829854 0.259302
O O6 0.595442 0.750000 0.231725
O O7 0.850124 0.920511 0.823968
O O8 0.818825 0.938056 0.591921
O O9 0.000000 0.946754 0.683336
O O10 0.873705 0.008879 0.755285
O O11 0.819489 0.420025 0.929614
O O12 0.608909 0.500000 0.500000
O O13 0.500000 0.558601 0.377973
#
# Coordination Sequence:
#
# PCOD9534812 Si02
#       5
#    16  16  16  16  16
#     4   9  18  31  48  75 106 135 171 207 246 301
#     4   8  15  30  49  68  96 131 166 210 254 287
#     4   9  19  35  53  74 100 129 166 213 256 300
#     4  10  18  31  55  76  98 135 168 206 258 305
#     4   8  15  31  54  74  93 124 165 206 250 299
#
# _framework density 19.738306999999999
#
# number of rings (size 3 to 8) (size 9 to 14) (size 15 to 20)
#    0.000    3.200    0.000    3.000    0.000    2.400 
#    0.000   14.000    0.000   17.400    0.000    0.000 
#    0.000    0.000    0.000    0.000    0.000    0.000 
#
# Total GULP energy -222732.880414 kJ/mol
# GULP energy per Si atom -5568.322010 kJ/mol
# Density = 1.969338 g / cm^3
# Si number density = 19.738307 Si / 1000 Ang^3
#
#
#
# Elastic Constant Matrix: (Units=GPa)
#
#
# Indices 1 2 3 4 5 6 
#
# 1 131.4261 29.1629 19.6865 -0.0001 0.0001 0.0000
# 2 29.1629 86.5230 25.0600 -0.0001 0.0001 0.0000
# 3 19.6865 25.0600 26.0622 0.0003 0.0006 0.0001
# 4 -0.0001 -0.0001 0.0003 18.3849 0.0001 0.0000
# 5 0.0001 0.0001 0.0006 0.0001 -9.0708 0.0000
# 6 0.0000 0.0000 0.0001 0.0000 0.0000 9.5386
#
#
#
# Elastic Compliance Matrix: (Units=1/GPa)
#
#
# Indices 1 2 3 4 5 6 
#
# 1 0.008705 -0.001427 -0.005203 0.000000 0.000000 0.000000
# 2 -0.001427 0.016253 -0.014550 0.000000 -0.000001 0.000000
# 3 -0.005203 -0.014550 0.056290 -0.000001 0.000004 -0.000001
# 4 0.000000 0.000000 -0.000001 0.054392 0.000000 0.000000
# 5 0.000000 -0.000001 0.000004 0.000000 -0.110244 0.000000
# 6 0.000000 0.000000 -0.000001 0.000000 0.000000 0.104838
#
#
# Mechanical properties :
#
#
# Convention : Reuss Voigt Hill
#
# Bulk Modulus (GPa) = 25.71494 43.53668 34.62581
# Shear Modulus (GPa) = 26.94593 15.11068 21.02830
#
# Velocity S-wave (km/s) = 3.69881 2.76986 3.26752
# Velocity P-wave (km/s) = 5.59445 5.68633 5.64058
#
# Compressibility (1/GPa) = 0.03888790
#
# Stress axis : x y z
#
# Youngs Moduli (GPa) = 114.87805 61.52828 17.76499
#
# Poissons Ratio (x) = 0.08780 0.09244
# Poissons Ratio (y) = 0.16393 0.25848
# Poissons Ratio (z) = 0.59775 0.89523
#
# Static dielectric constant tensor:
#      x y z
#    x 1.736690 0.000000 0.000000 
#    y 0.000000 1.730240 0.000000 
#    z 0.000000 0.000000 1.729060 
# 
# From -- ./inp_files/20807.got.cif
#   From: 2010.05.17/outbox.cif.g08.bks.cpg/sg74_11_cif.got.tgz:20807.got - 2010.06.03 17:57:02.
