data_PCOD9534965
_publ_section_title
;
Structure prediction by ZEFSAII (Michael W. Deem and Ramdas Pophale) SiO2 
 PCOD9534965
Probable space group: I M M A
;
_chemical_formula_sum "Si O2"
_cell_formula_units_Z 116
_cell_length_a 7.628900
_cell_length_b 32.020129
_cell_length_c 21.836439
_cell_angle_alpha 90.000000
_cell_angle_beta 90.000000
_cell_angle_gamma 90.000000
_cell_volume 5334.169554
_symmetry_space_group_name_H-M "I M M A"
_symmetry_group_IT_number 74
_symmetry_cell_setting 'orthorhombic'
loop_
_space_group_symop_operation_xyz
x,y,z
-x,1/2-y,z
x,-y,-z
-x,1/2+y,-z
-x,-y,-z
x,1/2+y,-z
-x,y,z
x,1/2-y,z
1/2+x,1/2+y,1/2+z
1/2-x,-y,1/2+z
1/2+x,1/2-y,1/2-z
1/2-x,y,1/2-z
1/2-x,1/2-y,1/2-z
1/2+x,y,1/2-z
1/2-x,1/2+y,1/2+z
1/2+x,-y,1/2+z
loop_
_atom_site_type_symbol
_atom_site_label
_atom_site_fract_x
_atom_site_fract_y
_atom_site_fract_z
Si Si1 0.211142 0.544441 0.102028
Si Si2 0.800679 0.884694 0.856739
Si Si3 0.789476 0.295404 0.177616
Si Si4 0.789221 0.029596 0.183172
Si Si5 0.799112 0.820583 0.430776
Si Si6 0.000000 0.250000 0.945571
Si Si7 0.203791 0.096574 0.489547
Si Si8 0.290872 0.625239 0.321541
O O1 0.276096 0.500972 0.129877
O O2 0.260876 0.557411 0.033532
O O3 0.271306 0.582097 0.146803
O O4 0.000000 0.543643 0.104287
O O5 0.721246 0.838379 0.851696
O O6 0.715870 0.923439 0.821282
O O7 0.000000 0.880040 0.833228
O O8 0.805217 0.900072 0.926485
O O9 0.721489 0.250000 0.155641
O O10 0.750000 0.297852 0.250000
O O11 0.000000 0.294046 0.168384
O O12 0.750000 0.011520 0.250000
O O13 0.000000 0.032377 0.176858
O O14 0.654538 0.786237 0.443903
O O15 0.758052 0.862074 0.470540
O O16 0.787089 0.836649 0.360563
O O17 0.000000 0.807873 0.443780
O O18 0.000000 0.097085 0.473405
O O19 0.500000 0.627158 0.329432
O O20 0.250000 0.626325 0.250000
#
# Coordination Sequence:
#
# PCOD9534965 Si02
#       8
#    16  16  16  16  16   4  16  16
#     4   9  19  35  57  81 112 152 194 239 291 352
#     4  10  21  36  56  80 117 156 192 238 295 356
#     4   9  18  34  55  81 109 146 192 238 288 346
#     4  10  21  36  55  86 119 154 194 237 292 353
#     4  10  22  40  60  86 117 150 198 250 297 370
#     4  12  22  40  66  86 114 158 194 236 334 352
#     4  10  22  39  59  84 113 148 195 244 293 344
#     4  10  18  32  56  82 110 151 196 243 301 356
#
# _framework density 21.746589
#
# number of rings (size 3 to 8) (size 9 to 14) (size 15 to 20)
#    0.000    2.207    0.690    1.862    1.931    2.759 
#    1.241    3.103    0.000    0.000    0.000    0.000 
#    0.000    0.000    0.000    0.000    0.000    0.000 
#
# Total GULP energy -323281.907457 kJ/mol
# GULP energy per Si atom -5573.825991 kJ/mol
# Density = 2.169709 g / cm^3
# Si number density = 21.746589 Si / 1000 Ang^3
#
#
#
# Elastic Constant Matrix: (Units=GPa)
#
#
# Indices 1 2 3 4 5 6 
#
# 1 69.1134 31.3849 -7.7587 0.0001 0.0000 0.0000
# 2 31.3849 137.8538 18.5287 0.0000 0.0000 0.0000
# 3 -7.7587 18.5287 62.1459 0.0002 0.0000 0.0000
# 4 0.0001 0.0000 0.0002 -95.6418 0.0000 -0.0001
# 5 0.0000 0.0000 0.0000 0.0000 19.6064 0.0000
# 6 0.0000 0.0000 0.0000 -0.0001 0.0000 14.4904
#
#
#
# Elastic Compliance Matrix: (Units=1/GPa)
#
#
# Indices 1 2 3 4 5 6 
#
# 1 0.016789 -0.004275 0.003371 0.000000 0.000000 0.000000
# 2 -0.004275 0.008646 -0.003111 0.000000 0.000000 0.000000
# 3 0.003371 -0.003111 0.017440 0.000000 0.000000 0.000000
# 4 0.000000 0.000000 0.000000 -0.010456 0.000000 0.000000
# 5 0.000000 0.000000 0.000000 0.000000 0.051004 0.000000
# 6 0.000000 0.000000 0.000000 0.000000 0.000000 0.069011
#
#
# Mechanical properties :
#
#
# Convention : Reuss Voigt Hill
#
# Bulk Modulus (GPa) = 28.70101 39.26922 33.98511
# Shear Modulus (GPa) = 29.05635 2.82155 15.93895
#
# Velocity S-wave (km/s) = 3.65928 1.14030 2.71022
# Velocity P-wave (km/s) = 5.57498 4.45315 5.04534
#
# Compressibility (1/GPa) = 0.03484197
#
# Stress axis : x y z
#
# Youngs Moduli (GPa) = 59.56342 115.66547 57.34060
#
# Poissons Ratio (x) = 0.49451 -0.19328
# Poissons Ratio (y) = 0.25465 0.17841
# Poissons Ratio (z) = -0.20077 0.35989
#
# Static dielectric constant tensor:
#      x y z
#    x 1.784220 0.000000 0.000000 
#    y 0.000000 1.822520 0.000000 
#    z 0.000000 0.000000 1.783020 
# 
# From -- ./inp_files/57925.got.cif
#   From: 2010.05.17/outbox.cif.g08.bks.cpg/sg74_29_cif.got.tgz:57925.got - 2010.06.03 17:57:02.
