data_PCOD9534214
_publ_section_title
;
Structure prediction by ZEFSAII (Michael W. Deem and Ramdas Pophale) SiO2 
 PCOD9534214
Probable space group: I M M A
;
_chemical_formula_sum "Si O2"
_cell_formula_units_Z 112
_cell_length_a 27.340942
_cell_length_b 23.698707
_cell_length_c 7.282944
_cell_angle_alpha 90.000000
_cell_angle_beta 90.000000
_cell_angle_gamma 90.000000
_cell_volume 4718.946958
_symmetry_space_group_name_H-M "I M M A"
_symmetry_group_IT_number 74
_symmetry_cell_setting 'orthorhombic'
loop_
_space_group_symop_operation_xyz
x,y,z
-x,1/2-y,z
x,-y,-z
-x,1/2+y,-z
-x,-y,-z
x,1/2+y,-z
-x,y,z
x,1/2-y,z
1/2+x,1/2+y,1/2+z
1/2-x,-y,1/2+z
1/2+x,1/2-y,1/2-z
1/2-x,y,1/2-z
1/2-x,1/2-y,1/2-z
1/2+x,y,1/2-z
1/2-x,1/2+y,1/2+z
1/2+x,-y,1/2+z
loop_
_atom_site_type_symbol
_atom_site_label
_atom_site_fract_x
_atom_site_fract_y
_atom_site_fract_z
Si Si1 0.160161 0.605270 0.893016
Si Si2 0.695784 0.488700 0.783765
Si Si3 0.654235 0.684994 0.963442
Si Si4 0.946504 0.917344 0.859305
Si Si5 0.552715 0.858048 0.042362
Si Si6 0.410644 0.968597 0.196992
Si Si7 0.259962 0.186238 0.473566
O O1 0.185344 0.546177 0.832511
O O2 0.154582 0.640447 0.702343
O O3 0.103877 0.600494 0.955893
O O4 0.198350 0.641025 0.010173
O O5 0.750000 0.466050 0.750000
O O6 0.645581 0.455392 0.748256
O O7 0.696153 0.500000 0.000000
O O8 0.656010 0.750000 0.896919
O O9 0.602794 0.676510 0.064983
O O10 0.706596 0.675534 0.060658
O O11 0.947712 0.882930 0.666266
O O12 0.000000 0.909469 0.943777
O O13 0.936725 0.983053 0.813621
O O14 0.500000 0.829931 0.073526
O O15 0.558348 0.913233 0.166973
O O16 0.406310 0.000000 0.000000
O O17 0.275484 0.250000 0.516928
O O18 0.250000 0.184013 0.250000
#
# Coordination Sequence:
#
# PCOD9534214 Si02
#       7
#    16  16  16  16  16  16  16
#     4   9  15  23  36  51  71 102 135 167 205 250
#     4  10  18  27  40  59  83 108 136 175 215 255
#     4   9  15  21  30  46  69  99 133 164 196 236
#     4   8  13  20  30  46  67  91 122 161 201 239
#     4   9  15  22  32  46  69 100 130 160 198 247
#     4   8  14  23  35  50  69  97 130 161 195 240
#     4   8  13  21  32  45  64  94 133 169 195 231
#
# _framework density 23.734109
#
# number of rings (size 3 to 8) (size 9 to 14) (size 15 to 20)
#    0.000    3.286    0.000    5.571    0.000    2.000 
#    0.000    0.000    0.000    1.286    0.000    0.000 
#    0.000   28.571    0.000    2.143    0.000    3.429 
#
# Total GULP energy -312587.312014 kJ/mol
# GULP energy per Si atom -5581.916286 kJ/mol
# Density = 2.368009 g / cm^3
# Si number density = 23.734109 Si / 1000 Ang^3
#
#
#
# Elastic Constant Matrix: (Units=GPa)
#
#
# Indices 1 2 3 4 5 6 
#
# 1 256.9492 62.8291 24.3932 0.0000 0.0000 0.0000
# 2 62.8291 53.5441 22.6490 0.0000 0.0000 0.0000
# 3 24.3932 22.6490 46.2273 0.0000 0.0000 0.0000
# 4 0.0000 0.0000 0.0000 0.4876 0.0000 0.0000
# 5 0.0000 0.0000 0.0000 0.0000 15.7780 0.0000
# 6 0.0000 0.0000 0.0000 0.0000 0.0000 26.0307
#
#
#
# Elastic Compliance Matrix: (Units=1/GPa)
#
#
# Indices 1 2 3 4 5 6 
#
# 1 0.005462 -0.006546 0.000325 0.000000 0.000000 0.000000
# 2 -0.006546 0.031405 -0.011933 0.000000 0.000000 0.000000
# 3 0.000325 -0.011933 0.027307 0.000000 0.000000 0.000000
# 4 0.000000 0.000000 0.000000 2.050818 0.000000 0.000000
# 5 0.000000 0.000000 0.000000 0.000000 0.063379 0.000000
# 6 0.000000 0.000000 0.000000 0.000000 0.000000 0.038416
#
#
# Mechanical properties :
#
#
# Convention : Reuss Voigt Hill
#
# Bulk Modulus (GPa) = 35.88518 64.05147 49.96832
# Shear Modulus (GPa) = 2.21006 24.91588 13.56297
#
# Velocity S-wave (km/s) = 0.96602 3.24356 2.39311
# Velocity P-wave (km/s) = 4.04929 6.40885 5.36051
#
# Compressibility (1/GPa) = 0.02786666
#
# Stress axis : x y z
#
# Youngs Moduli (GPa) = 183.09502 31.84185 36.62078
#
# Poissons Ratio (x) = 0.20845 -0.01192
# Poissons Ratio (y) = 1.19861 0.43698
# Poissons Ratio (z) = -0.05958 0.37995
#
# Static dielectric constant tensor:
#      x y z
#    x 1.930660 0.000000 0.000000 
#    y 0.000000 1.851200 0.000000 
#    z 0.000000 0.000000 2.649690 
# 
# From -- ./inp_files/25522.got.cif
#   From: 2010.05.17/outbox.cif.g08.bks.cpg/sg74_13_cif.got.tgz:25522.got - 2010.06.03 17:57:02.
