data_PCOD9534718
_publ_section_title
;
Structure prediction by ZEFSAII (Michael W. Deem and Ramdas Pophale) SiO2 
 PCOD9534718
Probable space group: I M M A
;
_chemical_formula_sum "Si O2"
_cell_formula_units_Z 104
_cell_length_a 18.097303
_cell_length_b 13.549524
_cell_length_c 27.795995
_cell_angle_alpha 90.000000
_cell_angle_beta 90.000000
_cell_angle_gamma 90.000000
_cell_volume 6815.851524
_symmetry_space_group_name_H-M "I M M A"
_symmetry_group_IT_number 74
_symmetry_cell_setting 'orthorhombic'
loop_
_space_group_symop_operation_xyz
x,y,z
-x,1/2-y,z
x,-y,-z
-x,1/2+y,-z
-x,-y,-z
x,1/2+y,-z
-x,y,z
x,1/2-y,z
1/2+x,1/2+y,1/2+z
1/2-x,-y,1/2+z
1/2+x,1/2-y,1/2-z
1/2-x,y,1/2-z
1/2-x,1/2-y,1/2-z
1/2+x,y,1/2-z
1/2-x,1/2+y,1/2+z
1/2+x,-y,1/2+z
loop_
_atom_site_type_symbol
_atom_site_label
_atom_site_fract_x
_atom_site_fract_y
_atom_site_fract_z
Si Si1 0.835920 0.133988 0.735044
Si Si2 0.500000 0.386839 0.014792
Si Si3 0.155417 0.363566 0.432765
Si Si4 0.850378 0.955985 0.367763
Si Si5 0.083756 0.369567 0.833203
Si Si6 0.702883 0.867940 0.414271
Si Si7 0.000000 0.858169 0.404342
Si Si8 0.757859 0.000000 0.000000
O O1 0.851826 0.250000 0.723640
O O2 0.750000 0.129370 0.750000
O O3 0.849547 0.067353 0.688603
O O4 0.884021 0.102841 0.781094
O O5 0.426946 0.363437 0.044949
O O6 0.500000 0.500000 0.000000
O O7 0.500000 0.344127 0.961433
O O8 0.178710 0.250000 0.426324
O O9 0.157257 0.430814 0.384850
O O10 0.206308 0.423539 0.470512
O O11 0.782403 0.895040 0.391169
O O12 0.926794 0.916098 0.389456
O O13 0.082632 0.250000 0.833165
O O14 0.140257 0.396531 0.875573
O O15 0.000000 0.404726 0.840289
O O16 0.699430 0.750000 0.423245
O O17 0.697217 0.933896 0.462077
O O18 0.000000 0.750000 0.380767
#
# Coordination Sequence:
#
# PCOD9534718 Si02
#       8
#    16   8  16  16  16  16   8   8
#     4  10  18  31  50  73 100 130 159 197 250 300
#     4  12  18  35  45  64  95 135 176 203 241 284
#     4  11  21  33  49  67  97 133 170 211 247 292
#     4  11  21  32  46  71 102 131 170 201 248 298
#     4   9  18  31  49  73  99 128 161 196 246 303
#     4  10  18  32  50  70  99 130 158 196 248 301
#     4  12  22  29  46  73 104 135 169 209 241 286
#     4  10  20  31  49  74  94 120 166 202 248 295
#
# _framework density 15.258547999999999
#
# number of rings (size 3 to 8) (size 9 to 14) (size 15 to 20)
#    0.000    1.538    3.846    3.462    1.077    0.000 
#    0.000    0.385    0.000    0.462    0.000    0.000 
#    0.000   11.692    0.000    0.000    0.000    0.000 
#
# Total GULP energy -289954.009163 kJ/mol
# GULP energy per Si atom -5576.038638 kJ/mol
# Density = 1.522382 g / cm^3
# Si number density = 15.258548 Si / 1000 Ang^3
#
#
#
# Elastic Constant Matrix: (Units=GPa)
#
#
# Indices 1 2 3 4 5 6 
#
# 1 85.7538 26.9063 51.3341 0.0000 0.0000 0.0000
# 2 26.9063 116.0319 56.5133 0.0000 0.0000 0.0000
# 3 51.3341 56.5133 136.0954 0.0000 0.0000 0.0000
# 4 0.0000 0.0000 0.0000 43.6512 0.0000 0.0000
# 5 0.0000 0.0000 0.0000 0.0000 15.1987 0.0000
# 6 0.0000 0.0000 0.0000 0.0000 0.0000 9.1769
#
#
#
# Elastic Compliance Matrix: (Units=1/GPa)
#
#
# Indices 1 2 3 4 5 6 
#
# 1 0.015139 -0.000914 -0.005331 0.000000 0.000000 0.000000
# 2 -0.000914 0.010858 -0.004164 0.000000 0.000000 0.000000
# 3 -0.005331 -0.004164 0.011088 0.000000 0.000000 0.000000
# 4 0.000000 0.000000 0.000000 0.022909 0.000000 0.000000
# 5 0.000000 0.000000 0.000000 0.000000 0.065795 0.000000
# 6 0.000000 0.000000 0.000000 0.000000 0.000000 0.108969
#
#
# Mechanical properties :
#
#
# Convention : Reuss Voigt Hill
#
# Bulk Modulus (GPa) = 61.47370 67.48761 64.48065
# Shear Modulus (GPa) = 19.15714 27.14718 23.15216
#
# Velocity S-wave (km/s) = 3.54715 4.22257 3.89951
# Velocity P-wave (km/s) = 7.55989 8.25220 7.91362
#
# Compressibility (1/GPa) = 0.01626712
#
# Stress axis : x y z
#
# Youngs Moduli (GPa) = 66.05341 92.09427 90.19060
#
# Poissons Ratio (x) = 0.08420 0.48078
# Poissons Ratio (y) = 0.06039 0.37556
# Poissons Ratio (z) = 0.35211 0.38349
#
# Static dielectric constant tensor:
#      x y z
#    x 1.504660 0.000000 0.000000 
#    y 0.000000 1.472560 0.000000 
#    z 0.000000 0.000000 1.512350 
# 
# From -- ./inp_files/67901.got.cif
#   From: 2010.05.17/outbox.cif.g08.bks.cpg/sg74_34_cif.got.tgz:67901.got - 2010.06.03 17:57:02.
