data_PCOD9534450
_publ_section_title
;
Structure prediction by ZEFSAII (Michael W. Deem and Ramdas Pophale) SiO2 
 PCOD9534450
Probable space group: I M M A
;
_chemical_formula_sum "Si O2"
_cell_formula_units_Z 80
_cell_length_a 17.936886
_cell_length_b 14.603195
_cell_length_c 16.041019
_cell_angle_alpha 90.000000
_cell_angle_beta 90.000000
_cell_angle_gamma 90.000000
_cell_volume 4201.717850
_symmetry_space_group_name_H-M "I M M A"
_symmetry_group_IT_number 74
_symmetry_cell_setting 'orthorhombic'
loop_
_space_group_symop_operation_xyz
x,y,z
-x,1/2-y,z
x,-y,-z
-x,1/2+y,-z
-x,-y,-z
x,1/2+y,-z
-x,y,z
x,1/2-y,z
1/2+x,1/2+y,1/2+z
1/2-x,-y,1/2+z
1/2+x,1/2-y,1/2-z
1/2-x,y,1/2-z
1/2-x,1/2-y,1/2-z
1/2+x,y,1/2-z
1/2-x,1/2+y,1/2+z
1/2+x,-y,1/2+z
loop_
_atom_site_type_symbol
_atom_site_label
_atom_site_fract_x
_atom_site_fract_y
_atom_site_fract_z
Si Si1 0.413849 0.043492 0.285620
Si Si2 0.277226 0.143612 0.346635
Si Si3 0.837557 0.851523 0.262034
Si Si4 0.879170 0.586280 0.602698
Si Si5 0.916771 0.876545 0.426905
O O1 0.500000 0.042386 0.310373
O O2 0.356092 0.092569 0.347663
O O3 0.406986 0.099756 0.197394
O O4 0.383907 0.939531 0.270221
O O5 0.282045 0.250000 0.371540
O O6 0.250000 0.141248 0.250000
O O7 0.210436 0.093395 0.394934
O O8 0.854120 0.750000 0.225407
O O9 0.750000 0.870667 0.250000
O O10 0.857039 0.844210 0.359968
O O11 0.909127 0.485660 0.582992
O O12 0.905132 0.645572 0.523980
O O13 0.000000 0.850289 0.400828
#
# Coordination Sequence:
#
# PCOD9534450 Si02
#       5
#    16  16  16  16  16
#     4  10  18  30  50  72  97 130 166 206 248 288
#     4   9  18  31  46  66  95 132 172 207 240 287
#     4  10  20  33  48  69  99 133 166 198 240 300
#     4   9  16  29  47  69 101 134 162 193 241 295
#     4  10  18  29  49  76 103 131 164 202 243 290
#
# _framework density 19.039832000000001
#
# number of rings (size 3 to 8) (size 9 to 14) (size 15 to 20)
#    0.000    2.400    0.000    7.200    0.000    2.800 
#    0.000    0.000    0.000    6.600    0.000   12.600 
#    0.000   12.800    0.000    0.000    0.000    0.000 
#
# Total GULP energy -222669.540037 kJ/mol
# GULP energy per Si atom -5566.738501 kJ/mol
# Density = 1.899650 g / cm^3
# Si number density = 19.039832 Si / 1000 Ang^3
#
#
#
# Elastic Constant Matrix: (Units=GPa)
#
#
# Indices 1 2 3 4 5 6 
#
# 1 176.6312 47.7106 30.7546 0.0000 0.0000 0.0000
# 2 47.7106 88.4917 3.7708 0.0000 0.0000 0.0000
# 3 30.7546 3.7708 28.3459 0.0000 0.0000 0.0000
# 4 0.0000 0.0000 0.0000 -3.8351 0.0000 0.0000
# 5 0.0000 0.0000 0.0000 0.0000 17.9295 0.0000
# 6 0.0000 0.0000 0.0000 0.0000 0.0000 760.3934
#
#
#
# Elastic Compliance Matrix: (Units=1/GPa)
#
#
# Indices 1 2 3 4 5 6 
#
# 1 0.008221 -0.004075 -0.008377 0.000000 0.000000 0.000000
# 2 -0.004075 0.013385 0.002641 0.000000 0.000000 0.000000
# 3 -0.008377 0.002641 0.044016 0.000000 0.000000 0.000000
# 4 0.000000 0.000000 0.000000 -0.260750 0.000000 0.000000
# 5 0.000000 0.000000 0.000000 0.000000 0.055774 0.000000
# 6 0.000000 0.000000 0.000000 0.000000 0.000000 0.001315
#
#
# Mechanical properties :
#
#
# Convention : Reuss Voigt Hill
#
# Bulk Modulus (GPa) = 21.73952 50.88234 36.31093
# Shear Modulus (GPa) = -48.50517 168.97973 60.23728
#
# Velocity S-wave (km/s) = -5.05281 9.43098 5.63082
# Velocity P-wave (km/s) = 4.75379 12.05708 7.83501
#
# Compressibility (1/GPa) = 0.04599917
#
# Stress axis : x y z
#
# Youngs Moduli (GPa) = 121.63967 74.70931 22.71876
#
# Poissons Ratio (x) = 0.30447 0.19033
# Poissons Ratio (y) = 0.49573 -0.06000
# Poissons Ratio (z) = 1.01903 -0.19731
#
# Static dielectric constant tensor:
#      x y z
#    x 1.652040 0.000000 0.000000 
#    y 0.000000 1.740370 0.000000 
#    z 0.000000 0.000000 1.693030 
# 
# From -- ./inp_files/42692.got.cif
#   From: 2010.05.17/outbox.cif.g08.bks.cpg/sg74_22_cif.got.tgz:42692.got - 2010.06.03 17:57:02.
