data_PCOD9534094
_publ_section_title
;
Structure prediction by ZEFSAII (Michael W. Deem and Ramdas Pophale) SiO2 
 PCOD9534094
Probable space group: I M M A
;
_chemical_formula_sum "Si O2"
_cell_formula_units_Z 96
_cell_length_a 26.601874
_cell_length_b 8.561815
_cell_length_c 23.476842
_cell_angle_alpha 90.000000
_cell_angle_beta 90.000000
_cell_angle_gamma 90.000000
_cell_volume 5347.093137
_symmetry_space_group_name_H-M "I M M A"
_symmetry_group_IT_number 74
_symmetry_cell_setting 'orthorhombic'
loop_
_space_group_symop_operation_xyz
x,y,z
-x,1/2-y,z
x,-y,-z
-x,1/2+y,-z
-x,-y,-z
x,1/2+y,-z
-x,y,z
x,1/2-y,z
1/2+x,1/2+y,1/2+z
1/2-x,-y,1/2+z
1/2+x,1/2-y,1/2-z
1/2-x,y,1/2-z
1/2-x,1/2-y,1/2-z
1/2+x,y,1/2-z
1/2-x,1/2+y,1/2+z
1/2+x,-y,1/2+z
loop_
_atom_site_type_symbol
_atom_site_label
_atom_site_fract_x
_atom_site_fract_y
_atom_site_fract_z
Si Si1 0.346372 0.928347 0.359200
Si Si2 0.242985 0.562217 0.936581
Si Si3 0.309540 0.421435 0.251629
Si Si4 0.943020 0.437936 0.191738
Si Si5 0.655136 0.068368 0.121767
Si Si6 0.557432 0.940799 0.824444
O O1 0.349835 0.750000 0.377085
O O2 0.303940 0.010662 0.397519
O O3 0.326699 0.947041 0.294533
O O4 0.401804 0.001446 0.352652
O O5 0.244762 0.750000 0.935289
O O6 0.297595 0.502413 0.913452
O O7 0.235584 0.500000 0.000000
O O8 0.327022 0.250000 0.273883
O O9 0.250000 0.419582 0.250000
O O10 0.327192 0.433817 0.187337
O O11 0.943105 0.250000 0.190799
O O12 0.931607 0.483865 0.258072
O O13 0.000000 0.491373 0.179631
O O14 0.649869 0.250000 0.103521
O O15 0.598832 0.001214 0.129964
O O16 0.500000 0.986904 0.836748
O O17 0.559492 0.750000 0.825397
#
# Coordination Sequence:
#
# PCOD9534094 Si02
#       6
#    16  16  16  16  16  16
#     4  12  23  33  50  79 113 144 172 214 267 324
#     4  11  23  40  57  75  99 136 182 229 274 320
#     4  10  17  30  50  74 104 141 177 213 262 320
#     4   9  17  31  53  79 108 144 182 214 248 305
#     4   9  16  28  51  76 103 137 174 217 266 312
#     4   8  13  23  45  78 108 134 171 213 250 300
#
# _framework density 17.953681
#
# number of rings (size 3 to 8) (size 9 to 14) (size 15 to 20)
#    0.000    2.167    3.333    3.000    0.000    0.667 
#    0.000    0.000    0.000    1.000    0.000    0.000 
#    0.000    0.000    0.000    0.000    0.000    0.167 
#
# Total GULP energy -267243.411345 kJ/mol
# GULP energy per Si atom -5567.571070 kJ/mol
# Density = 1.791282 g / cm^3
# Si number density = 17.953681 Si / 1000 Ang^3
#
#
#
# Elastic Constant Matrix: (Units=GPa)
#
#
# Indices 1 2 3 4 5 6 
#
# 1 138.3243 19.9595 30.5236 0.0000 0.0000 0.0000
# 2 19.9595 33.0334 12.2624 0.0000 0.0000 0.0000
# 3 30.5236 12.2624 43.8635 0.0000 0.0000 0.0000
# 4 0.0000 0.0000 0.0000 16.2755 0.0000 0.0000
# 5 0.0000 0.0000 0.0000 0.0000 9.1371 0.0000
# 6 0.0000 0.0000 0.0000 0.0000 0.0000 7.4912
#
#
#
# Elastic Compliance Matrix: (Units=1/GPa)
#
#
# Indices 1 2 3 4 5 6 
#
# 1 0.008875 -0.003425 -0.005218 0.000000 0.000000 0.000000
# 2 -0.003425 0.035100 -0.007429 0.000000 0.000000 0.000000
# 3 -0.005218 -0.007429 0.028506 0.000000 0.000000 0.000000
# 4 0.000000 0.000000 0.000000 0.061442 0.000000 0.000000
# 5 0.000000 0.000000 0.000000 0.000000 0.109444 0.000000
# 6 0.000000 0.000000 0.000000 0.000000 0.000000 0.133490
#
#
# Mechanical properties :
#
#
# Convention : Reuss Voigt Hill
#
# Bulk Modulus (GPa) = 24.79181 37.85691 31.32436
# Shear Modulus (GPa) = 11.83580 16.74580 14.29080
#
# Velocity S-wave (km/s) = 2.57035 3.05736 2.82438
# Velocity P-wave (km/s) = 4.75896 5.79612 5.30295
#
# Compressibility (1/GPa) = 0.04033591
#
# Stress axis : x y z
#
# Youngs Moduli (GPa) = 112.67358 28.49019 35.08014
#
# Poissons Ratio (x) = 0.09759 0.18306
# Poissons Ratio (y) = 0.38596 0.26060
# Poissons Ratio (z) = 0.58798 0.21165
#
# Static dielectric constant tensor:
#      x y z
#    x 1.717220 0.000000 0.000000 
#    y 0.000000 1.638940 0.000000 
#    z 0.000000 0.000000 1.581060 
# 
# From -- ./inp_files/55066.got.cif
#   From: 2010.05.17/outbox.cif.g08.bks.cpg/sg74_28_cif.got.tgz:55066.got - 2010.06.03 17:57:02.
