data_PCOD9534272
_publ_section_title
;
Structure prediction by ZEFSAII (Michael W. Deem and Ramdas Pophale) SiO2 
 PCOD9534272
Probable space group: I M M A
;
_chemical_formula_sum "Si O2"
_cell_formula_units_Z 72
_cell_length_a 16.941278
_cell_length_b 7.357561
_cell_length_c 28.310356
_cell_angle_alpha 90.000000
_cell_angle_beta 90.000000
_cell_angle_gamma 90.000000
_cell_volume 3528.786401
_symmetry_space_group_name_H-M "I M M A"
_symmetry_group_IT_number 74
_symmetry_cell_setting 'orthorhombic'
loop_
_space_group_symop_operation_xyz
x,y,z
-x,1/2-y,z
x,-y,-z
-x,1/2+y,-z
-x,-y,-z
x,1/2+y,-z
-x,y,z
x,1/2-y,z
1/2+x,1/2+y,1/2+z
1/2-x,-y,1/2+z
1/2+x,1/2-y,1/2-z
1/2-x,y,1/2-z
1/2-x,1/2-y,1/2-z
1/2+x,y,1/2-z
1/2-x,1/2+y,1/2+z
1/2+x,-y,1/2+z
loop_
_atom_site_type_symbol
_atom_site_label
_atom_site_fract_x
_atom_site_fract_y
_atom_site_fract_z
Si Si1 0.586925 0.528491 0.142999
Si Si2 0.500000 0.032594 0.556539
Si Si3 0.662256 0.471925 0.604717
Si Si4 0.755038 0.028648 0.696118
Si Si5 0.821184 0.965897 0.445665
O O1 0.500000 0.465396 0.156367
O O2 0.585235 0.750000 0.144261
O O3 0.660100 0.473445 0.175398
O O4 0.611764 0.469847 0.090299
O O5 0.500000 0.250000 0.561806
O O6 0.420533 0.965812 0.582703
O O7 0.500000 0.000000 0.500000
O O8 0.660276 0.250000 0.604520
O O9 0.687930 0.526191 0.658009
O O10 0.735336 0.532066 0.571609
O O11 0.752946 0.250000 0.696480
O O12 0.750000 0.967165 0.750000
O O13 0.817823 0.750000 0.439236
O O14 0.836247 0.000000 0.500000
#
# Coordination Sequence:
#
# PCOD9534272 Si02
#       5
#    16   8  16  16  16
#     4   8  14  24  36  52  75 102 129 159 196 236
#     4  10  18  28  42  60  86 114 140 170 207 246
#     4   8  15  26  38  55  80 109 135 165 204 242
#     4   8  13  23  37  53  77 107 134 161 200 246
#     4   9  16  26  40  56  78 107 135 161 194 232
#
# _framework density 20.403616
#
# number of rings (size 3 to 8) (size 9 to 14) (size 15 to 20)
#    0.000    3.556    0.000    3.333    0.000    0.444 
#    2.000    0.000    0.000    0.000    0.000    0.000 
#    0.000   22.222    0.000    0.000    0.000    0.000 
#
# Total GULP energy -200640.999523 kJ/mol
# GULP energy per Si atom -5573.361098 kJ/mol
# Density = 2.035718 g / cm^3
# Si number density = 20.403616 Si / 1000 Ang^3
#
#
#
# Elastic Constant Matrix: (Units=GPa)
#
#
# Indices 1 2 3 4 5 6 
#
# 1 157.4520 5.3643 88.8646 0.0000 0.0000 0.0000
# 2 5.3643 71.9289 -3.1916 0.0000 0.0000 0.0000
# 3 88.8646 -3.1916 191.8258 0.0000 0.0000 0.0000
# 4 0.0000 0.0000 0.0000 11.1052 0.0000 0.0000
# 5 0.0000 0.0000 0.0000 0.0000 14.5127 0.0000
# 6 0.0000 0.0000 0.0000 0.0000 0.0000 272.8998
#
#
#
# Elastic Compliance Matrix: (Units=1/GPa)
#
#
# Indices 1 2 3 4 5 6 
#
# 1 0.008648 -0.000823 -0.004020 0.000000 0.000000 0.000000
# 2 -0.000823 0.013991 0.000614 0.000000 0.000000 0.000000
# 3 -0.004020 0.000614 0.007086 0.000000 0.000000 0.000000
# 4 0.000000 0.000000 0.000000 0.090048 0.000000 0.000000
# 5 0.000000 0.000000 0.000000 0.000000 0.068905 0.000000
# 6 0.000000 0.000000 0.000000 0.000000 0.000000 0.003664
#
#
# Mechanical properties :
#
#
# Convention : Reuss Voigt Hill
#
# Bulk Modulus (GPa) = 47.02191 67.03128 57.02659
# Shear Modulus (GPa) = 24.05132 81.71485 52.88308
#
# Velocity S-wave (km/s) = 3.43706 6.33531 5.09654
# Velocity P-wave (km/s) = 6.23274 9.29725 7.91473
#
# Compressibility (1/GPa) = 0.02126668
#
# Stress axis : x y z
#
# Youngs Moduli (GPa) = 115.63340 71.47313 141.13229
#
# Poissons Ratio (x) = 0.05885 0.56735
# Poissons Ratio (y) = 0.09520 -0.08668
# Poissons Ratio (z) = 0.46484 -0.04390
#
# Static dielectric constant tensor:
#      x y z
#    x 1.706340 0.000000 0.000000 
#    y 0.000000 1.839200 0.000000 
#    z 0.000000 0.000000 1.716720 
# 
# From -- ./inp_files/50363.got.cif
#   From: 2010.05.17/outbox.cif.g08.bks.cpg/sg74_26_cif.got.tgz:50363.got - 2010.06.03 17:57:02.
