data_PCOD9534355
_publ_section_title
;
Structure prediction by ZEFSAII (Michael W. Deem and Ramdas Pophale) SiO2 
 PCOD9534355
Probable space group: I M M A
;
_chemical_formula_sum "Si O2"
_cell_formula_units_Z 40
_cell_length_a 25.934120
_cell_length_b 5.530078
_cell_length_c 11.714458
_cell_angle_alpha 90.000000
_cell_angle_beta 90.000000
_cell_angle_gamma 90.000000
_cell_volume 1680.060699
_symmetry_space_group_name_H-M "I M M A"
_symmetry_group_IT_number 74
_symmetry_cell_setting 'orthorhombic'
loop_
_space_group_symop_operation_xyz
x,y,z
-x,1/2-y,z
x,-y,-z
-x,1/2+y,-z
-x,-y,-z
x,1/2+y,-z
-x,y,z
x,1/2-y,z
1/2+x,1/2+y,1/2+z
1/2-x,-y,1/2+z
1/2+x,1/2-y,1/2-z
1/2-x,y,1/2-z
1/2-x,1/2-y,1/2-z
1/2+x,y,1/2-z
1/2-x,1/2+y,1/2+z
1/2+x,-y,1/2+z
loop_
_atom_site_type_symbol
_atom_site_label
_atom_site_fract_x
_atom_site_fract_y
_atom_site_fract_z
Si Si1 0.805945 0.750000 0.692001
Si Si2 0.600395 0.750000 0.620720
Si Si3 0.441541 0.250000 0.707481
Si Si4 0.164933 0.250000 0.683197
Si Si5 0.692237 0.750000 0.451716
O O1 0.750000 0.750000 0.750000
O O2 0.852683 0.750000 0.786103
O O3 0.815047 0.496794 0.630957
O O4 0.567824 0.505777 0.641445
O O5 0.634364 0.750000 0.505793
O O6 0.500000 0.250000 0.749407
O O7 0.396594 0.250000 0.802702
O O8 0.187521 0.250000 0.815118
O O9 0.714522 0.500000 0.500000
#
# Coordination Sequence:
#
# PCOD9534355 Si02
#       5
#     8   8   8   8   8
#     4  10  18  29  43  58  74  94 125 168 205 233
#     4  10  19  30  42  57  76 101 133 166 198 229
#     4  10  18  29  41  54  76 102 131 166 201 233
#     4  10  19  30  42  57  76 101 131 164 198 227
#     4  12  16  30  45  52  78 104 128 166 199 230
#
# _framework density 23.808662000000002
#
# number of rings (size 3 to 8) (size 9 to 14) (size 15 to 20)
#    0.000    1.600    8.000    1.200    0.000    0.000 
#    0.000    4.000    0.000    0.000    0.000    0.000 
#    0.000    0.000    0.000    0.000    0.000    0.000 
#
# Total GULP energy -111731.375999 kJ/mol
# GULP energy per Si atom -5586.568800 kJ/mol
# Density = 2.375447 g / cm^3
# Si number density = 23.808662 Si / 1000 Ang^3
#
#
#
# Elastic Constant Matrix: (Units=GPa)
#
#
# Indices 1 2 3 4 5 6 
#
# 1 179.4613 64.2047 25.1173 0.0000 0.0000 0.0000
# 2 64.2047 288.0901 20.2071 0.0000 0.0000 0.0000
# 3 25.1173 20.2071 69.4002 0.0000 0.0000 0.0000
# 4 0.0000 0.0000 0.0000 -26.5422 0.0000 0.0000
# 5 0.0000 0.0000 0.0000 0.0000 19.0385 0.0000
# 6 0.0000 0.0000 0.0000 0.0000 0.0000 -65.2968
#
#
#
# Elastic Compliance Matrix: (Units=1/GPa)
#
#
# Indices 1 2 3 4 5 6 
#
# 1 0.006293 -0.001269 -0.001908 0.000000 0.000000 0.000000
# 2 -0.001269 0.003799 -0.000647 0.000000 0.000000 0.000000
# 3 -0.001908 -0.000647 0.015288 0.000000 0.000000 0.000000
# 4 0.000000 0.000000 0.000000 -0.037676 0.000000 0.000000
# 5 0.000000 0.000000 0.000000 0.000000 0.052525 0.000000
# 6 0.000000 0.000000 0.000000 0.000000 0.000000 -0.015315
#
#
# Mechanical properties :
#
#
# Convention : Reuss Voigt Hill
#
# Bulk Modulus (GPa) = 56.39293 84.00108 70.19700
# Shear Modulus (GPa) = 129.95728 13.93473 71.94601
#
# Velocity S-wave (km/s) = 7.39612 2.42188 5.50309
# Velocity P-wave (km/s) = 9.83229 6.57107 8.36221
#
# Compressibility (1/GPa) = 0.01773272
#
# Stress axis : x y z
#
# Youngs Moduli (GPa) = 158.90187 263.20892 65.40991
#
# Poissons Ratio (x) = 0.33393 0.12482
# Poissons Ratio (y) = 0.20159 0.04232
# Poissons Ratio (z) = 0.30322 0.17031
#
# Static dielectric constant tensor:
#      x y z
#    x 1.877030 0.000000 0.000000 
#    y 0.000000 2.086130 0.000000 
#    z 0.000000 0.000000 1.913380 
# 
# From -- ./inp_files/46353.got.cif
#   From: 2010.05.17/outbox.cif.g08.bks.cpg/sg74_24_cif.got.tgz:46353.got - 2010.06.03 17:57:02.
