data_PCOD9534285
_publ_section_title
;
Structure prediction by ZEFSAII (Michael W. Deem and Ramdas Pophale) SiO2 
 PCOD9534285
Probable space group: I M M A
;
_chemical_formula_sum "Si O2"
_cell_formula_units_Z 80
_cell_length_a 16.470101
_cell_length_b 13.367711
_cell_length_c 24.163040
_cell_angle_alpha 90.000000
_cell_angle_beta 90.000000
_cell_angle_gamma 90.000000
_cell_volume 5319.917325
_symmetry_space_group_name_H-M "I M M A"
_symmetry_group_IT_number 74
_symmetry_cell_setting 'orthorhombic'
loop_
_space_group_symop_operation_xyz
x,y,z
-x,1/2-y,z
x,-y,-z
-x,1/2+y,-z
-x,-y,-z
x,1/2+y,-z
-x,y,z
x,1/2-y,z
1/2+x,1/2+y,1/2+z
1/2-x,-y,1/2+z
1/2+x,1/2-y,1/2-z
1/2-x,y,1/2-z
1/2-x,1/2-y,1/2-z
1/2+x,y,1/2-z
1/2-x,1/2+y,1/2+z
1/2+x,-y,1/2+z
loop_
_atom_site_type_symbol
_atom_site_label
_atom_site_fract_x
_atom_site_fract_y
_atom_site_fract_z
Si Si1 0.500000 0.750000 0.463423
Si Si2 0.593587 0.250000 0.428964
Si Si3 0.500000 0.083137 0.629287
Si Si4 0.703254 0.969104 0.190420
Si Si5 0.000000 0.250000 0.777044
Si Si6 0.351960 0.068450 0.360148
Si Si7 0.330220 0.750000 0.210297
Si Si8 0.097031 0.362224 0.261252
O O1 0.576115 0.750000 0.505619
O O2 0.500000 0.845850 0.424071
O O3 0.500000 0.250000 0.404973
O O4 0.638640 0.347565 0.406690
O O5 0.500000 0.153282 0.683333
O O6 0.421375 0.013598 0.630595
O O7 0.750000 0.964807 0.250000
O O8 0.675246 0.855959 0.178675
O O9 0.766476 0.013018 0.146462
O O10 0.632918 0.049819 0.201042
O O11 0.084179 0.250000 0.743073
O O12 0.370087 0.120547 0.300901
O O13 0.250000 0.750000 0.250000
O O14 0.121015 0.250000 0.279397
O O15 0.000000 0.368136 0.259327
#
# Coordination Sequence:
#
# PCOD9534285 Si02
#       8
#     4   8   8  16   4  16   8  16
#     4   9  24  34  46  72  94 124 158 218 242 283
#     4  10  19  34  47  67  93 114 161 202 249 289
#     4  11  19  32  47  69  90 124 174 189 248 294
#     4   9  20  29  43  64  92 122 163 207 235 271
#     4  11  20  28  54  64  88 146 176 192 238 287
#     4  11  19  29  49  65  88 129 162 202 235 293
#     4  10  19  33  40  65  97 122 175 219 228 274
#     4  10  18  28  43  67  95 123 163 205 238 275
#
# _framework density 15.037827
#
# number of rings (size 3 to 8) (size 9 to 14) (size 15 to 20)
#    0.300    1.600    3.000    3.600    2.800    3.600 
#    0.000    0.000    0.000    0.000    0.000    0.000 
#    0.000    0.000    0.000    5.400   10.000    0.400 
#
# Total GULP energy -222890.584236 kJ/mol
# GULP energy per Si atom -5572.264606 kJ/mol
# Density = 1.500360 g / cm^3
# Si number density = 15.037827 Si / 1000 Ang^3
#
#
#
# Elastic Constant Matrix: (Units=GPa)
#
#
# Indices 1 2 3 4 5 6 
#
# 1 65.8806 44.7449 24.0794 0.0000 0.0000 0.0000
# 2 44.7449 144.9975 27.6518 0.0000 0.0000 0.0000
# 3 24.0794 27.6518 34.4580 0.0000 0.0000 0.0000
# 4 0.0000 0.0000 0.0000 1.9727 0.0000 0.0000
# 5 0.0000 0.0000 0.0000 0.0000 4.5807 0.0000
# 6 0.0000 0.0000 0.0000 0.0000 0.0000 -36.4964
#
#
#
# Elastic Compliance Matrix: (Units=1/GPa)
#
#
# Indices 1 2 3 4 5 6 
#
# 1 0.022836 -0.004727 -0.012164 0.000000 0.000000 0.000000
# 2 -0.004727 0.009121 -0.004016 0.000000 0.000000 0.000000
# 3 -0.012164 -0.004016 0.040744 0.000000 0.000000 0.000000
# 4 0.000000 0.000000 0.000000 0.506909 0.000000 0.000000
# 5 0.000000 0.000000 0.000000 0.000000 0.218306 0.000000
# 6 0.000000 0.000000 0.000000 0.000000 0.000000 -0.027400
#
#
# Mechanical properties :
#
#
# Convention : Reuss Voigt Hill
#
# Bulk Modulus (GPa) = 32.37727 48.69870 40.53799
# Shear Modulus (GPa) = 6.07809 3.93541 5.00675
#
# Velocity S-wave (km/s) = 2.01262 1.61947 1.82665
# Velocity P-wave (km/s) = 5.19405 5.99594 5.60935
#
# Compressibility (1/GPa) = 0.03088586
#
# Stress axis : x y z
#
# Youngs Moduli (GPa) = 43.79141 109.63299 24.54332
#
# Poissons Ratio (x) = 0.51824 0.29855
# Poissons Ratio (y) = 0.20700 0.09858
# Poissons Ratio (z) = 0.53269 0.44033
#
# Static dielectric constant tensor:
#      x y z
#    x 1.556270 0.000000 0.000000 
#    y 0.000000 1.531680 0.000000 
#    z 0.000000 0.000000 1.464070 
# 
# From -- ./inp_files/67677.got.cif
#   From: 2010.05.17/outbox.cif.g08.bks.cpg/sg74_34_cif.got.tgz:67677.got - 2010.06.03 17:57:02.
