data_PCOD9534803
_publ_section_title
;
Structure prediction by ZEFSAII (Michael W. Deem and Ramdas Pophale) SiO2 
 PCOD9534803
Probable space group: I M M A
;
_chemical_formula_sum "Si O2"
_cell_formula_units_Z 112
_cell_length_a 19.055238
_cell_length_b 28.139448
_cell_length_c 11.588555
_cell_angle_alpha 90.000000
_cell_angle_beta 90.000000
_cell_angle_gamma 90.000000
_cell_volume 6213.828141
_symmetry_space_group_name_H-M "I M M A"
_symmetry_group_IT_number 74
_symmetry_cell_setting 'orthorhombic'
loop_
_space_group_symop_operation_xyz
x,y,z
-x,1/2-y,z
x,-y,-z
-x,1/2+y,-z
-x,-y,-z
x,1/2+y,-z
-x,y,z
x,1/2-y,z
1/2+x,1/2+y,1/2+z
1/2-x,-y,1/2+z
1/2+x,1/2-y,1/2-z
1/2-x,y,1/2-z
1/2-x,1/2-y,1/2-z
1/2+x,y,1/2-z
1/2-x,1/2+y,1/2+z
1/2+x,-y,1/2+z
loop_
_atom_site_type_symbol
_atom_site_label
_atom_site_fract_x
_atom_site_fract_y
_atom_site_fract_z
Si Si1 0.665999 0.804006 0.469485
Si Si2 0.082907 0.305488 0.729380
Si Si3 0.210194 0.364024 0.631200
Si Si4 0.144878 0.952785 0.784278
Si Si5 0.419535 0.882606 0.554917
Si Si6 0.080135 0.464061 0.889804
Si Si7 0.218388 0.447517 0.445959
O O1 0.671385 0.750000 0.507728
O O2 0.612432 0.806399 0.360507
O O3 0.740164 0.823736 0.425629
O O4 0.632806 0.838983 0.563528
O O5 0.090827 0.250000 0.691200
O O6 0.134491 0.341034 0.660465
O O7 0.000000 0.317503 0.725157
O O8 0.250000 0.377444 0.750000
O O9 0.210100 0.408343 0.544545
O O10 0.086046 0.918850 0.838454
O O11 0.159899 0.942178 0.652484
O O12 0.210481 0.943030 0.869823
O O13 0.126851 0.008565 0.798374
O O14 0.500000 0.868002 0.540251
O O15 0.397880 0.913672 0.441536
O O16 0.000000 0.460144 0.850124
O O17 0.080885 0.500000 0.000000
O O18 0.218456 0.500000 0.500000
#
# Coordination Sequence:
#
# PCOD9534803 Si02
#       7
#    16  16  16  16  16  16  16
#     4  10  19  32  53  84 115 140 178 236 287 324
#     4   9  18  34  56  82 111 145 184 227 275 328
#     4  10  21  36  57  81 113 147 183 225 278 332
#     4  10  20  34  54  74 113 139 182 228 271 326
#     4  10  18  31  54  81 110 148 185 225 280 331
#     4   8  15  29  51  77 103 138 180 221 265 318
#     4  11  23  35  53  81 106 145 185 224 275 321
#
# _framework density 18.024315999999999
#
# number of rings (size 3 to 8) (size 9 to 14) (size 15 to 20)
#    0.000    2.286    1.429    3.429    2.000    3.714 
#    0.000    1.429    0.000    5.571    0.000    0.000 
#    0.000    0.000    0.000    0.000    0.000    0.000 
#
# Total GULP energy -312266.954222 kJ/mol
# GULP energy per Si atom -5576.195611 kJ/mol
# Density = 1.798329 g / cm^3
# Si number density = 18.024316 Si / 1000 Ang^3
#
#
#
# Elastic Constant Matrix: (Units=GPa)
#
#
# Indices 1 2 3 4 5 6 
#
# 1 80.9351 30.3726 21.7812 0.0000 0.0000 0.0000
# 2 30.3726 109.4893 36.6671 0.0000 0.0000 0.0000
# 3 21.7812 36.6671 58.3947 0.0000 0.0000 0.0000
# 4 0.0000 0.0000 0.0000 18.1281 0.0000 0.0000
# 5 0.0000 0.0000 0.0000 0.0000 15.1843 0.0000
# 6 0.0000 0.0000 0.0000 0.0000 0.0000 21.2651
#
#
#
# Elastic Compliance Matrix: (Units=1/GPa)
#
#
# Indices 1 2 3 4 5 6 
#
# 1 0.014371 -0.002775 -0.003618 0.000000 0.000000 0.000000
# 2 -0.002775 0.012101 -0.006563 0.000000 0.000000 0.000000
# 3 -0.003618 -0.006563 0.022596 0.000000 0.000000 0.000000
# 4 0.000000 0.000000 0.000000 0.055163 0.000000 0.000000
# 5 0.000000 0.000000 0.000000 0.000000 0.065857 0.000000
# 6 0.000000 0.000000 0.000000 0.000000 0.000000 0.047026
#
#
# Mechanical properties :
#
#
# Convention : Reuss Voigt Hill
#
# Bulk Modulus (GPa) = 43.18732 47.38453 45.28593
# Shear Modulus (GPa) = 19.94067 21.58205 20.76136
#
# Velocity S-wave (km/s) = 3.32975 3.46408 3.39758
# Velocity P-wave (km/s) = 6.22861 6.50739 6.36952
#
# Compressibility (1/GPa) = 0.02315494
#
# Stress axis : x y z
#
# Youngs Moduli (GPa) = 69.58692 82.63701 44.25636
#
# Poissons Ratio (x) = 0.22930 0.16011
# Poissons Ratio (y) = 0.19309 0.29048
# Poissons Ratio (z) = 0.25175 0.54239
#
# Static dielectric constant tensor:
#      x y z
#    x 1.678620 0.000000 0.000000 
#    y 0.000000 1.647040 0.000000 
#    z 0.000000 0.000000 1.613430 
# 
# From -- ./inp_files/24326.got.cif
#   From: 2010.05.17/outbox.cif.g08.bks.cpg/sg74_13_cif.got.tgz:24326.got - 2010.06.03 17:57:02.
