data_PCOD9534337
_publ_section_title
;
Structure prediction by ZEFSAII (Michael W. Deem and Ramdas Pophale) SiO2 
 PCOD9534337
Probable space group: I M M A
;
_chemical_formula_sum "Si O2"
_cell_formula_units_Z 112
_cell_length_a 13.615377
_cell_length_b 15.863952
_cell_length_c 27.504408
_cell_angle_alpha 90.000000
_cell_angle_beta 90.000000
_cell_angle_gamma 90.000000
_cell_volume 5940.778498
_symmetry_space_group_name_H-M "I M M A"
_symmetry_group_IT_number 74
_symmetry_cell_setting 'orthorhombic'
loop_
_space_group_symop_operation_xyz
x,y,z
-x,1/2-y,z
x,-y,-z
-x,1/2+y,-z
-x,-y,-z
x,1/2+y,-z
-x,y,z
x,1/2-y,z
1/2+x,1/2+y,1/2+z
1/2-x,-y,1/2+z
1/2+x,1/2-y,1/2-z
1/2-x,y,1/2-z
1/2-x,1/2-y,1/2-z
1/2+x,y,1/2-z
1/2-x,1/2+y,1/2+z
1/2+x,-y,1/2+z
loop_
_atom_site_type_symbol
_atom_site_label
_atom_site_fract_x
_atom_site_fract_y
_atom_site_fract_z
Si Si1 0.380487 0.343289 0.227382
Si Si2 0.818151 0.925253 0.143973
Si Si3 0.888932 0.649725 0.939334
Si Si4 0.110524 0.977684 0.317730
Si Si5 0.635970 0.158011 0.737388
Si Si6 0.381050 0.849013 0.455542
Si Si7 0.884100 0.890216 0.834637
O O1 0.500000 0.344530 0.229209
O O2 0.352272 0.250000 0.209406
O O3 0.357563 0.427385 0.196902
O O4 0.345940 0.354998 0.283406
O O5 0.701000 0.936969 0.152629
O O6 0.865839 0.856094 0.179744
O O7 0.841508 0.903948 0.088693
O O8 0.869057 0.010246 0.163069
O O9 0.898012 0.750000 0.945523
O O10 0.840460 0.637579 0.886738
O O11 0.000000 0.613067 0.936091
O O12 0.845806 0.620852 0.990898
O O13 0.100965 0.921046 0.268934
O O14 0.000000 0.979398 0.339646
O O15 0.597935 0.250000 0.751143
O O16 0.750000 0.159081 0.750000
O O17 0.500000 0.853414 0.456106
O O18 0.354643 0.750000 0.448333
O O19 0.000000 0.866890 0.835562
#
# Coordination Sequence:
#
# PCOD9534337 Si02
#       7
#    16  16  16  16  16  16  16
#     4   9  17  31  51  72  98 135 172 208 253 301
#     4  11  20  31  48  70 101 132 172 213 248 293
#     4   8  15  29  47  70 103 135 162 198 248 309
#     4  10  21  36  50  69  99 134 177 220 258 298
#     4   9  18  32  49  66  91 125 161 204 254 299
#     4   9  18  32  50  73 102 136 169 202 250 312
#     4  10  18  28  47  74 102 130 161 202 250 305
#
# _framework density 18.852747999999998
#
# number of rings (size 3 to 8) (size 9 to 14) (size 15 to 20)
#    0.000    2.571    1.429    2.143    0.000    3.714 
#    0.000    4.286    0.000    0.000    0.000    2.000 
#    0.000    1.143    0.000    0.000    0.000    0.000 
#
# Total GULP energy -311865.281739 kJ/mol
# GULP energy per Si atom -5569.022888 kJ/mol
# Density = 1.880984 g / cm^3
# Si number density = 18.852748 Si / 1000 Ang^3
#
#
#
# Elastic Constant Matrix: (Units=GPa)
#
#
# Indices 1 2 3 4 5 6 
#
# 1 59.1830 3.1791 0.8137 0.0000 0.0000 0.0000
# 2 3.1791 74.4161 1.6469 0.0000 0.0000 0.0000
# 3 0.8137 1.6469 72.6235 0.0000 0.0000 0.0000
# 4 0.0000 0.0000 0.0000 21.8804 0.0000 0.0000
# 5 0.0000 0.0000 0.0000 0.0000 11.3414 0.0000
# 6 0.0000 0.0000 0.0000 0.0000 0.0000 31.8976
#
#
#
# Elastic Compliance Matrix: (Units=1/GPa)
#
#
# Indices 1 2 3 4 5 6 
#
# 1 0.016938 -0.000720 -0.000173 0.000000 0.000000 0.000000
# 2 -0.000720 0.013475 -0.000298 0.000000 0.000000 0.000000
# 3 -0.000173 -0.000298 0.013778 0.000000 0.000000 0.000000
# 4 0.000000 0.000000 0.000000 0.045703 0.000000 0.000000
# 5 0.000000 0.000000 0.000000 0.000000 0.088173 0.000000
# 6 0.000000 0.000000 0.000000 0.000000 0.000000 0.031350
#
#
# Mechanical properties :
#
#
# Convention : Reuss Voigt Hill
#
# Bulk Modulus (GPa) = 23.91774 24.16688 24.04231
# Shear Modulus (GPa) = 22.14980 26.39605 24.27293
#
# Velocity S-wave (km/s) = 3.43138 3.74587 3.59207
# Velocity P-wave (km/s) = 5.33041 5.61741 5.47579
#
# Compressibility (1/GPa) = 0.04180997
#
# Stress axis : x y z
#
# Youngs Moduli (GPa) = 59.03956 74.20992 72.57767
#
# Poissons Ratio (x) = 0.05341 0.01259
# Poissons Ratio (y) = 0.04249 0.02159
# Poissons Ratio (z) = 0.01024 0.02208
#
# Static dielectric constant tensor:
#      x y z
#    x 1.707360 0.000000 0.000000 
#    y 0.000000 1.699860 0.000000 
#    z 0.000000 0.000000 1.687720 
# 
# From -- ./inp_files/67215.got.cif
#   From: 2010.05.17/outbox.cif.g08.bks.cpg/sg74_34_cif.got.tgz:67215.got - 2010.06.03 17:57:02.
