data_PCOD9534400
_publ_section_title
;
Structure prediction by ZEFSAII (Michael W. Deem and Ramdas Pophale) SiO2 
 PCOD9534400
Probable space group: I M M A
;
_chemical_formula_sum "Si O2"
_cell_formula_units_Z 80
_cell_length_a 19.255291
_cell_length_b 8.409440
_cell_length_c 22.119026
_cell_angle_alpha 90.000000
_cell_angle_beta 90.000000
_cell_angle_gamma 90.000000
_cell_volume 3581.650145
_symmetry_space_group_name_H-M "I M M A"
_symmetry_group_IT_number 74
_symmetry_cell_setting 'orthorhombic'
loop_
_space_group_symop_operation_xyz
x,y,z
-x,1/2-y,z
x,-y,-z
-x,1/2+y,-z
-x,-y,-z
x,1/2+y,-z
-x,y,z
x,1/2-y,z
1/2+x,1/2+y,1/2+z
1/2-x,-y,1/2+z
1/2+x,1/2-y,1/2-z
1/2-x,y,1/2-z
1/2-x,1/2-y,1/2-z
1/2+x,y,1/2-z
1/2-x,1/2+y,1/2+z
1/2+x,-y,1/2+z
loop_
_atom_site_type_symbol
_atom_site_label
_atom_site_fract_x
_atom_site_fract_y
_atom_site_fract_z
Si Si1 0.573717 0.942267 0.430511
Si Si2 0.166933 0.750000 0.242636
Si Si3 0.666678 0.083443 0.262653
Si Si4 0.921371 0.250000 0.635398
Si Si5 0.134988 0.073794 0.376601
Si Si6 0.727350 0.056767 0.569088
O O1 0.500000 0.993469 0.401438
O O2 0.575261 0.750000 0.429608
O O3 0.650322 0.995854 0.411763
O O4 0.570536 0.000000 0.500000
O O5 0.250000 0.750000 0.250000
O O6 0.146774 0.587001 0.210872
O O7 0.132676 0.750000 0.308819
O O8 0.649517 0.250000 0.293434
O O9 0.750000 0.082254 0.250000
O O10 0.631209 0.083910 0.196226
O O11 0.907316 0.417870 0.602225
O O12 0.000000 0.250000 0.657972
O O13 0.116987 0.250000 0.400546
O O14 0.214251 0.030092 0.392140
O O15 0.734327 0.250000 0.573609
O O16 0.737495 0.000000 0.500000
#
# Coordination Sequence:
#
# PCOD9534400 Si02
#       6
#    16   8  16   8  16  16
#     4   8  14  24  39  61  91 124 158 200 246 291
#     4   8  14  26  46  72  98 124 154 188 236 287
#     4   8  14  25  43  68  96 121 150 190 237 285
#     4  10  20  34  52  76 104 132 168 214 261 309
#     4  10  19  32  50  74 101 131 169 214 262 310
#     4  10  18  29  46  70  98 131 173 217 263 308
#
# _framework density 22.336072999999999
#
# number of rings (size 3 to 8) (size 9 to 14) (size 15 to 20)
#    0.000    3.000    1.000    0.600    0.000    1.200 
#    0.000    0.000    0.000    0.600    0.000   22.400 
#    0.000   40.000    0.000    0.000    0.000    0.000 
#
# Total GULP energy -222766.939324 kJ/mol
# GULP energy per Si atom -5569.173483 kJ/mol
# Density = 2.228524 g / cm^3
# Si number density = 22.336073 Si / 1000 Ang^3
#
#
#
# Elastic Constant Matrix: (Units=GPa)
#
#
# Indices 1 2 3 4 5 6 
#
# 1 83.2231 20.7514 8.1689 0.0000 0.0000 0.0000
# 2 20.7514 223.3184 10.7245 0.0000 0.0000 0.0000
# 3 8.1689 10.7245 49.0899 0.0000 0.0000 0.0000
# 4 0.0000 0.0000 0.0000 15.5229 0.0000 0.0000
# 5 0.0000 0.0000 0.0000 0.0000 15.5035 0.0000
# 6 0.0000 0.0000 0.0000 0.0000 0.0000 7.2104
#
#
#
# Elastic Compliance Matrix: (Units=1/GPa)
#
#
# Indices 1 2 3 4 5 6 
#
# 1 0.012463 -0.001070 -0.001840 0.000000 0.000000 0.000000
# 2 -0.001070 0.004617 -0.000831 0.000000 0.000000 0.000000
# 3 -0.001840 -0.000831 0.020858 0.000000 0.000000 0.000000
# 4 0.000000 0.000000 0.000000 0.064421 0.000000 0.000000
# 5 0.000000 0.000000 0.000000 0.000000 0.064502 0.000000
# 6 0.000000 0.000000 0.000000 0.000000 0.000000 0.138689
#
#
# Mechanical properties :
#
#
# Convention : Reuss Voigt Hill
#
# Bulk Modulus (GPa) = 32.83257 48.32454 40.57856
# Shear Modulus (GPa) = 15.47104 28.71313 22.09208
#
# Velocity S-wave (km/s) = 2.63468 3.58928 3.14837
# Velocity P-wave (km/s) = 4.89761 6.23373 5.60562
#
# Compressibility (1/GPa) = 0.03045756
#
# Stress axis : x y z
#
# Youngs Moduli (GPa) = 80.23574 216.58114 47.94212
#
# Poissons Ratio (x) = 0.23169 0.08823
# Poissons Ratio (y) = 0.08583 0.03982
# Poissons Ratio (z) = 0.14766 0.17991
#
# Static dielectric constant tensor:
#      x y z
#    x 1.825780 0.000000 0.000000 
#    y 0.000000 1.922290 0.000000 
#    z 0.000000 0.000000 1.849710 
# 
# From -- ./inp_files/72900.got.cif
#   From: 2010.05.17/outbox.cif.g08.bks.cpg/sg74_37_cif.got.tgz:72900.got - 2010.06.03 17:57:02.
