data_PCOD9534331
_publ_section_title
;
Structure prediction by ZEFSAII (Michael W. Deem and Ramdas Pophale) SiO2 
 PCOD9534331
Probable space group: I M M A
;
_chemical_formula_sum "Si O2"
_cell_formula_units_Z 88
_cell_length_a 15.283750
_cell_length_b 13.551849
_cell_length_c 22.223576
_cell_angle_alpha 90.000000
_cell_angle_beta 90.000000
_cell_angle_gamma 90.000000
_cell_volume 4603.015335
_symmetry_space_group_name_H-M "I M M A"
_symmetry_group_IT_number 74
_symmetry_cell_setting 'orthorhombic'
loop_
_space_group_symop_operation_xyz
x,y,z
-x,1/2-y,z
x,-y,-z
-x,1/2+y,-z
-x,-y,-z
x,1/2+y,-z
-x,y,z
x,1/2-y,z
1/2+x,1/2+y,1/2+z
1/2-x,-y,1/2+z
1/2+x,1/2-y,1/2-z
1/2-x,y,1/2-z
1/2-x,1/2-y,1/2-z
1/2+x,y,1/2-z
1/2-x,1/2+y,1/2+z
1/2+x,-y,1/2+z
loop_
_atom_site_type_symbol
_atom_site_label
_atom_site_fract_x
_atom_site_fract_y
_atom_site_fract_z
Si Si1 0.606538 0.363634 0.043552
Si Si2 0.836192 0.424506 0.587757
Si Si3 0.672680 0.352923 0.297960
Si Si4 0.000000 0.360057 0.800494
Si Si5 0.500000 0.577737 0.165636
Si Si6 0.801580 0.432016 0.816234
Si Si7 0.000000 0.360048 0.283234
O O1 0.500000 0.378378 0.039762
O O2 0.621220 0.250000 0.064636
O O3 0.649104 0.377550 0.977520
O O4 0.648588 0.455834 0.079932
O O5 0.916409 0.392912 0.628748
O O6 0.753122 0.392004 0.627363
O O7 0.667774 0.250000 0.332780
O O8 0.750000 0.345859 0.250000
O O9 0.693139 0.452031 0.331356
O O10 0.584453 0.364842 0.259412
O O11 0.096834 0.401466 0.815449
O O12 0.000000 0.250000 0.823719
O O13 0.000000 0.370079 0.728964
O O14 0.500000 0.458373 0.177064
O O15 0.750000 0.419387 0.750000
O O16 0.000000 0.250000 0.312494
#
# Coordination Sequence:
#
# PCOD9534331 Si02
#       7
#    16  16  16   8   8  16   8
#     4  10  21  39  61  88 119 153 199 253 301 348
#     4  11  21  36  61  86 119 159 198 241 301 355
#     4   9  16  28  46  70 102 140 182 224 272 334
#     4  12  26  40  53  81 125 166 207 242 282 352
#     4  12  18  35  54  84 123 154 197 239 288 347
#     4  11  21  37  58  84 121 161 196 244 296 360
#     4  10  18  28  47  70 106 153 190 222 274 340
#
# _framework density 19.117902000000001
#
# number of rings (size 3 to 8) (size 9 to 14) (size 15 to 20)
#    0.000    1.455    5.455    1.636    0.000    3.273 
#    0.000    0.000    0.000    2.182    0.000    1.273 
#    0.000    0.000    0.000    0.000    0.000    0.000 
#
# Total GULP energy -244971.060230 kJ/mol
# GULP energy per Si atom -5567.524096 kJ/mol
# Density = 1.907439 g / cm^3
# Si number density = 19.117902 Si / 1000 Ang^3
#
#
#
# Elastic Constant Matrix: (Units=GPa)
#
#
# Indices 1 2 3 4 5 6 
#
# 1 142.3071 3.5201 39.5995 0.0000 0.0000 0.0000
# 2 3.5201 54.4126 -11.8800 0.0000 0.0000 0.0000
# 3 39.5995 -11.8800 58.1219 0.0000 0.0000 0.0000
# 4 0.0000 0.0000 0.0000 -81.9371 0.0000 0.0000
# 5 0.0000 0.0000 0.0000 0.0000 32.9770 0.0000
# 6 0.0000 0.0000 0.0000 0.0000 0.0000 12.7472
#
#
#
# Elastic Compliance Matrix: (Units=1/GPa)
#
#
# Indices 1 2 3 4 5 6 
#
# 1 0.008871 -0.001982 -0.006449 0.000000 0.000000 0.000000
# 2 -0.001982 0.019679 0.005373 0.000000 0.000000 0.000000
# 3 -0.006449 0.005373 0.022697 0.000000 0.000000 0.000000
# 4 0.000000 0.000000 0.000000 -0.012204 0.000000 0.000000
# 5 0.000000 0.000000 0.000000 0.000000 0.030324 0.000000
# 6 0.000000 0.000000 0.000000 0.000000 0.000000 0.078449
#
#
# Mechanical properties :
#
#
# Convention : Reuss Voigt Hill
#
# Bulk Modulus (GPa) = 22.15764 35.25786 28.70775
# Shear Modulus (GPa) = 29.59018 7.66422 18.62720
#
# Velocity S-wave (km/s) = 3.93844 2.00440 3.12482
# Velocity P-wave (km/s) = 5.68304 4.88254 5.29793
#
# Compressibility (1/GPa) = 0.04513115
#
# Stress axis : x y z
#
# Youngs Moduli (GPa) = 112.73246 50.81469 44.05860
#
# Poissons Ratio (x) = 0.10071 0.28412
# Poissons Ratio (y) = 0.22342 -0.23671
# Poissons Ratio (z) = 0.72698 -0.27301
#
# Static dielectric constant tensor:
#      x y z
#    x 1.712280 0.000000 0.000000 
#    y 0.000000 1.806250 0.000000 
#    z 0.000000 0.000000 1.640360 
# 
# From -- ./inp_files/51785.got.cif
#   From: 2010.05.17/outbox.cif.g08.bks.cpg/sg74_26_cif.got.tgz:51785.got - 2010.06.03 17:57:02.
