data_PCOD9534296
_publ_section_title
;
Structure prediction by ZEFSAII (Michael W. Deem and Ramdas Pophale) SiO2 
 PCOD9534296
Probable space group: I M M A
;
_chemical_formula_sum "Si O2"
_cell_formula_units_Z 72
_cell_length_a 7.922654
_cell_length_b 20.110386
_cell_length_c 29.009954
_cell_angle_alpha 90.000000
_cell_angle_beta 90.000000
_cell_angle_gamma 90.000000
_cell_volume 4622.087220
_symmetry_space_group_name_H-M "I M M A"
_symmetry_group_IT_number 74
_symmetry_cell_setting 'orthorhombic'
loop_
_space_group_symop_operation_xyz
x,y,z
-x,1/2-y,z
x,-y,-z
-x,1/2+y,-z
-x,-y,-z
x,1/2+y,-z
-x,y,z
x,1/2-y,z
1/2+x,1/2+y,1/2+z
1/2-x,-y,1/2+z
1/2+x,1/2-y,1/2-z
1/2-x,y,1/2-z
1/2-x,1/2-y,1/2-z
1/2+x,y,1/2-z
1/2-x,1/2+y,1/2+z
1/2+x,-y,1/2+z
loop_
_atom_site_type_symbol
_atom_site_label
_atom_site_fract_x
_atom_site_fract_y
_atom_site_fract_z
Si Si1 0.801152 0.103392 0.696681
Si Si2 0.800994 0.750000 0.196175
Si Si3 0.200082 0.459968 0.606397
Si Si4 0.000000 0.469923 0.052248
Si Si5 0.000000 0.324149 0.020371
Si Si6 0.692015 0.676486 0.050995
O O1 0.750000 0.095586 0.750000
O O2 0.761185 0.178390 0.679834
O O3 0.738569 0.050480 0.659129
O O4 0.000000 0.097275 0.695558
O O5 0.750000 0.750000 0.250000
O O6 0.000000 0.750000 0.191745
O O7 0.331378 0.504265 0.577941
O O8 0.208875 0.386211 0.584174
O O9 0.000000 0.480147 0.604352
O O10 0.000000 0.390061 0.050750
O O11 0.000000 0.500000 0.000000
O O12 0.165137 0.328292 0.987770
O O13 0.000000 0.250000 0.041905
O O14 0.500000 0.674054 0.032261
O O15 0.712407 0.750000 0.073255
#
# Coordination Sequence:
#
# PCOD9534296 Si02
#       6
#    16   8  16   8   8  16
#     4  10  20  33  47  66  96 135 174 223 259 302
#     4  10  18  28  44  66  92 134 178 222 262 292
#     4  10  22  34  50  74 101 137 177 213 260 302
#     4  12  22  36  54  78 104 136 170 212 257 306
#     4  10  20  36  52  74 100 132 168 208 250 302
#     4   9  17  30  47  69  98 134 175 210 247 292
#
# _framework density 15.577377
#
# number of rings (size 3 to 8) (size 9 to 14) (size 15 to 20)
#    0.000    2.000    2.222    3.000    4.667    1.333 
#    0.000    0.000    0.000    0.000    0.000    0.000 
#    0.000    0.889    0.000    0.000    0.000    0.000 
#
# Total GULP energy -200517.500825 kJ/mol
# GULP energy per Si atom -5569.930578 kJ/mol
# Density = 1.554192 g / cm^3
# Si number density = 15.577377 Si / 1000 Ang^3
#
#
#
# Elastic Constant Matrix: (Units=GPa)
#
#
# Indices 1 2 3 4 5 6 
#
# 1 72.9015 41.7924 43.3277 0.0000 0.0000 0.0000
# 2 41.7924 88.2691 45.1195 0.0000 0.0000 0.0000
# 3 43.3277 45.1195 77.9680 0.0000 0.0000 0.0000
# 4 0.0000 0.0000 0.0000 26.8846 0.0000 0.0000
# 5 0.0000 0.0000 0.0000 0.0000 17.7913 0.0000
# 6 0.0000 0.0000 0.0000 0.0000 0.0000 18.9010
#
#
#
# Elastic Compliance Matrix: (Units=1/GPa)
#
#
# Indices 1 2 3 4 5 6 
#
# 1 0.022560 -0.006068 -0.009025 0.000000 0.000000 0.000000
# 2 -0.006068 0.017720 -0.006882 0.000000 0.000000 0.000000
# 3 -0.009025 -0.006882 0.021824 0.000000 0.000000 0.000000
# 4 0.000000 0.000000 0.000000 0.037196 0.000000 0.000000
# 5 0.000000 0.000000 0.000000 0.000000 0.056207 0.000000
# 6 0.000000 0.000000 0.000000 0.000000 0.000000 0.052907
#
#
# Mechanical properties :
#
#
# Convention : Reuss Voigt Hill
#
# Bulk Modulus (GPa) = 55.08866 55.51309 55.30088
# Shear Modulus (GPa) = 19.34866 19.97533 19.66199
#
# Velocity S-wave (km/s) = 3.52817 3.58485 3.55662
# Velocity P-wave (km/s) = 7.21378 7.26975 7.24182
#
# Compressibility (1/GPa) = 0.01815256
#
# Stress axis : x y z
#
# Youngs Moduli (GPa) = 44.32692 56.43359 45.82124
#
# Poissons Ratio (x) = 0.34243 0.41354
# Poissons Ratio (y) = 0.26897 0.31536
# Poissons Ratio (z) = 0.40006 0.38840
#
# Static dielectric constant tensor:
#      x y z
#    x 1.530590 0.000000 0.000000 
#    y 0.000000 1.509790 0.000000 
#    z 0.000000 0.000000 1.592200 
# 
# From -- ./inp_files/56717.got.cif
#   From: 2010.05.17/outbox.cif.g08.bks.cpg/sg74_29_cif.got.tgz:56717.got - 2010.06.03 17:57:02.
