data_PCOD9534750
_publ_section_title
;
Structure prediction by ZEFSAII (Michael W. Deem and Ramdas Pophale) SiO2 
 PCOD9534750
Probable space group: I M M A
;
_chemical_formula_sum "Si O2"
_cell_formula_units_Z 128
_cell_length_a 23.442308
_cell_length_b 26.915920
_cell_length_c 11.914454
_cell_angle_alpha 90.000000
_cell_angle_beta 90.000000
_cell_angle_gamma 90.000000
_cell_volume 7517.678371
_symmetry_space_group_name_H-M "I M M A"
_symmetry_group_IT_number 74
_symmetry_cell_setting 'orthorhombic'
loop_
_space_group_symop_operation_xyz
x,y,z
-x,1/2-y,z
x,-y,-z
-x,1/2+y,-z
-x,-y,-z
x,1/2+y,-z
-x,y,z
x,1/2-y,z
1/2+x,1/2+y,1/2+z
1/2-x,-y,1/2+z
1/2+x,1/2-y,1/2-z
1/2-x,y,1/2-z
1/2-x,1/2-y,1/2-z
1/2+x,y,1/2-z
1/2-x,1/2+y,1/2+z
1/2+x,-y,1/2+z
loop_
_atom_site_type_symbol
_atom_site_label
_atom_site_fract_x
_atom_site_fract_y
_atom_site_fract_z
Si Si1 0.314060 0.192878 0.996145
Si Si2 0.391389 0.194896 0.222637
Si Si3 0.436127 0.410263 0.230077
Si Si4 0.704536 0.947551 0.379118
Si Si5 0.564438 0.441627 0.977893
Si Si6 0.329123 0.058449 0.373488
Si Si7 0.173891 0.095594 0.645984
Si Si8 0.212897 0.168209 0.145133
O O1 0.321003 0.250000 0.959977
O O2 0.354430 0.186000 0.107306
O O3 0.249077 0.183681 0.037743
O O4 0.326245 0.151417 0.902659
O O5 0.415893 0.250000 0.214719
O O6 0.433022 0.149123 0.240801
O O7 0.348270 0.191239 0.328556
O O8 0.500000 0.429019 0.251521
O O9 0.421935 0.419390 0.099865
O O10 0.388723 0.435097 0.308821
O O11 0.667690 0.941392 0.491332
O O12 0.770311 0.932924 0.404376
O O13 0.683187 0.912561 0.278493
O O14 0.699011 0.005430 0.343841
O O15 0.500000 0.425884 0.944253
O O16 0.563412 0.500000 0.000000
O O17 0.614452 0.428127 0.892889
O O18 0.294067 0.108597 0.347273
O O19 0.250000 0.186027 0.250000
#
# Coordination Sequence:
#
# PCOD9534750 Si02
#       8
#    16  16  16  16  16  16  16  16
#     4  10  18  31  51  77 108 146 182 223 282 331
#     4   9  17  30  49  77 109 142 179 222 273 331
#     4  10  20  35  55  80 110 141 182 229 270 326
#     4  10  23  35  53  79 108 142 187 223 276 326
#     4  10  21  35  54  80 109 143 177 216 273 329
#     4  10  20  36  51  77 109 143 180 222 275 335
#     4  11  21  36  53  78 112 142 180 237 263 330
#     4   9  17  27  48  74 108 141 178 214 271 336
#
# _framework density 17.026533000000001
#
# number of rings (size 3 to 8) (size 9 to 14) (size 15 to 20)
#    0.000    2.125    2.500    1.125    3.500    1.750 
#    0.000    3.125    0.000    0.375    0.000    0.000 
#    0.000    0.000    0.000    0.000    0.000    0.000 
#
# Total GULP energy -356459.878811 kJ/mol
# GULP energy per Si atom -5569.685606 kJ/mol
# Density = 1.698778 g / cm^3
# Si number density = 17.026533 Si / 1000 Ang^3
#
#
#
# Elastic Constant Matrix: (Units=GPa)
#
#
# Indices 1 2 3 4 5 6 
#
# 1 77.8058 15.1820 33.5927 0.0000 0.0000 0.0000
# 2 15.1820 94.0296 10.8199 0.0000 0.0000 0.0000
# 3 33.5927 10.8199 56.4869 0.0000 0.0000 0.0000
# 4 0.0000 0.0000 0.0000 24.5505 0.0000 0.0000
# 5 0.0000 0.0000 0.0000 0.0000 36.4094 0.0000
# 6 0.0000 0.0000 0.0000 0.0000 0.0000 7.7344
#
#
#
# Elastic Compliance Matrix: (Units=1/GPa)
#
#
# Indices 1 2 3 4 5 6 
#
# 1 0.017545 -0.001669 -0.010114 0.000000 0.000000 0.000000
# 2 -0.001669 0.011033 -0.001121 0.000000 0.000000 0.000000
# 3 -0.010114 -0.001121 0.023933 0.000000 0.000000 0.000000
# 4 0.000000 0.000000 0.000000 0.040732 0.000000 0.000000
# 5 0.000000 0.000000 0.000000 0.000000 0.027465 0.000000
# 6 0.000000 0.000000 0.000000 0.000000 0.000000 0.129293
#
#
# Mechanical properties :
#
#
# Convention : Reuss Voigt Hill
#
# Bulk Modulus (GPa) = 37.44901 38.61239 38.03070
# Shear Modulus (GPa) = 17.56165 24.98736 21.27451
#
# Velocity S-wave (km/s) = 3.21507 3.83502 3.53865
# Velocity P-wave (km/s) = 5.98536 6.50668 6.25145
#
# Compressibility (1/GPa) = 0.02670297
#
# Stress axis : x y z
#
# Youngs Moduli (GPa) = 56.99616 90.63388 41.78350
#
# Poissons Ratio (x) = 0.15127 0.42261
# Poissons Ratio (y) = 0.09513 0.04683
# Poissons Ratio (z) = 0.57648 0.10159
#
# Static dielectric constant tensor:
#      x y z
#    x 1.584280 0.000000 0.000000 
#    y 0.000000 1.630910 0.000000 
#    z 0.000000 0.000000 1.587670 
# 
# From -- ./inp_files/25654.got.cif
#   From: 2010.05.17/outbox.cif.g08.bks.cpg/sg74_13_cif.got.tgz:25654.got - 2010.06.03 17:57:02.
