data_PCOD9534402
_publ_section_title
;
Structure prediction by ZEFSAII (Michael W. Deem and Ramdas Pophale) SiO2 
 PCOD9534402
Probable space group: I M M A
;
_chemical_formula_sum "Si O2"
_cell_formula_units_Z 80
_cell_length_a 7.959844
_cell_length_b 16.155692
_cell_length_c 35.437462
_cell_angle_alpha 90.000000
_cell_angle_beta 90.000000
_cell_angle_gamma 90.000000
_cell_volume 4557.143789
_symmetry_space_group_name_H-M "I M M A"
_symmetry_group_IT_number 74
_symmetry_cell_setting 'orthorhombic'
loop_
_space_group_symop_operation_xyz
x,y,z
-x,1/2-y,z
x,-y,-z
-x,1/2+y,-z
-x,-y,-z
x,1/2+y,-z
-x,y,z
x,1/2-y,z
1/2+x,1/2+y,1/2+z
1/2-x,-y,1/2+z
1/2+x,1/2-y,1/2-z
1/2-x,y,1/2-z
1/2-x,1/2-y,1/2-z
1/2+x,y,1/2-z
1/2-x,1/2+y,1/2+z
1/2+x,-y,1/2+z
loop_
_atom_site_type_symbol
_atom_site_label
_atom_site_fract_x
_atom_site_fract_y
_atom_site_fract_z
Si Si1 0.185218 0.897250 0.636318
Si Si2 0.701198 0.506664 0.706737
Si Si3 0.687300 0.069986 0.910369
Si Si4 0.000000 0.160372 0.091581
Si Si5 0.296672 0.341953 0.663330
Si Si6 0.500000 0.510421 0.455407
O O1 0.336651 0.846891 0.618189
O O2 0.000000 0.859970 0.632658
O O3 0.220992 0.924654 0.679164
O O4 0.186266 0.983771 0.613029
O O5 0.500000 0.510916 0.702586
O O6 0.750000 0.516444 0.750000
O O7 0.756786 0.416339 0.690976
O O8 0.500000 0.083206 0.925974
O O9 0.730117 0.137512 0.878473
O O10 0.835319 0.058826 0.940452
O O11 0.000000 0.250000 0.072190
O O12 0.000000 0.080751 0.064139
O O13 0.500000 0.344307 0.661638
O O14 0.244550 0.250000 0.675362
O O15 0.500000 0.500000 0.500000
#
# Coordination Sequence:
#
# PCOD9534402 Si02
#       6
#    16  16  16   8  16   8
#     4   9  17  32  53  76  99 131 174 215 254 306
#     4  10  18  29  46  72 102 137 180 221 263 312
#     4   9  17  31  52  74  98 134 180 215 250 305
#     4  10  20  36  58  82 106 132 170 214 258 310
#     4   9  17  30  47  68 100 140 181 224 264 304
#     4  10  20  36  56  80 110 138 168 210 258 310
#
# _framework density 17.554855
#
# number of rings (size 3 to 8) (size 9 to 14) (size 15 to 20)
#    0.000    2.600    2.000    0.600    0.000    2.400 
#    0.000    1.000    0.000    0.600    0.000    0.000 
#    0.000    0.000    0.000    0.000    0.000    0.000 
#
# Total GULP energy -222933.839089 kJ/mol
# GULP energy per Si atom -5573.345977 kJ/mol
# Density = 1.751490 g / cm^3
# Si number density = 17.554855 Si / 1000 Ang^3
#
#
#
# Elastic Constant Matrix: (Units=GPa)
#
#
# Indices 1 2 3 4 5 6 
#
# 1 102.0766 8.0523 38.1136 0.0000 0.0000 0.0000
# 2 8.0523 41.0886 0.0598 0.0000 0.0000 0.0000
# 3 38.1136 0.0598 102.4933 0.0000 0.0000 0.0000
# 4 0.0000 0.0000 0.0000 12.7587 0.0000 0.0000
# 5 0.0000 0.0000 0.0000 0.0000 9.3443 0.0000
# 6 0.0000 0.0000 0.0000 0.0000 0.0000 -18.1822
#
#
#
# Elastic Compliance Matrix: (Units=1/GPa)
#
#
# Indices 1 2 3 4 5 6 
#
# 1 0.011583 -0.002264 -0.004306 0.000000 0.000000 0.000000
# 2 -0.002264 0.024780 0.000827 0.000000 0.000000 0.000000
# 3 -0.004306 0.000827 0.011357 0.000000 0.000000 0.000000
# 4 0.000000 0.000000 0.000000 0.078378 0.000000 0.000000
# 5 0.000000 0.000000 0.000000 0.000000 0.107017 0.000000
# 6 0.000000 0.000000 0.000000 0.000000 0.000000 -0.054999
#
#
# Mechanical properties :
#
#
# Convention : Reuss Voigt Hill
#
# Bulk Modulus (GPa) = 27.59696 37.56776 32.58236
# Shear Modulus (GPa) = 24.79177 14.07968 19.43572
#
# Velocity S-wave (km/s) = 3.76206 2.83510 3.33098
# Velocity P-wave (km/s) = 5.88433 5.67131 5.77880
#
# Compressibility (1/GPa) = 0.03623587
#
# Stress axis : x y z
#
# Youngs Moduli (GPa) = 86.33413 40.35496 88.04771
#
# Poissons Ratio (x) = 0.09135 0.37913
# Poissons Ratio (y) = 0.19543 -0.07284
# Poissons Ratio (z) = 0.37175 -0.03339
#
# Static dielectric constant tensor:
#      x y z
#    x 1.629570 0.000000 0.000000 
#    y 0.000000 1.598020 0.000000 
#    z 0.000000 0.000000 1.555780 
# 
# From -- ./inp_files/70146.got.cif
#   From: 2010.05.17/outbox.cif.g08.bks.cpg/sg74_36_cif.got.tgz:70146.got - 2010.06.03 17:57:02.
