data_PCOD9534041
_publ_section_title
;
Structure prediction by ZEFSAII (Michael W. Deem and Ramdas Pophale) SiO2 
 PCOD9534041
Probable space group: I M M A
;
_chemical_formula_sum "Si O2"
_cell_formula_units_Z 96
_cell_length_a 18.192553
_cell_length_b 13.155796
_cell_length_c 25.025909
_cell_angle_alpha 90.000000
_cell_angle_beta 90.000000
_cell_angle_gamma 90.000000
_cell_volume 5989.638895
_symmetry_space_group_name_H-M "I M M A"
_symmetry_group_IT_number 74
_symmetry_cell_setting 'orthorhombic'
loop_
_space_group_symop_operation_xyz
x,y,z
-x,1/2-y,z
x,-y,-z
-x,1/2+y,-z
-x,-y,-z
x,1/2+y,-z
-x,y,z
x,1/2-y,z
1/2+x,1/2+y,1/2+z
1/2-x,-y,1/2+z
1/2+x,1/2-y,1/2-z
1/2-x,y,1/2-z
1/2-x,1/2-y,1/2-z
1/2+x,y,1/2-z
1/2-x,1/2+y,1/2+z
1/2+x,-y,1/2+z
loop_
_atom_site_type_symbol
_atom_site_label
_atom_site_fract_x
_atom_site_fract_y
_atom_site_fract_z
Si Si1 0.166185 0.127262 0.253536
Si Si2 0.582878 0.628348 0.859147
Si Si3 0.080364 0.547521 0.059136
Si Si4 0.279170 0.919095 0.924302
Si Si5 0.236012 0.137303 0.954499
Si Si6 0.634062 0.866808 0.634055
O O1 0.171043 0.250000 0.258835
O O2 0.250000 0.088539 0.250000
O O3 0.121399 0.089002 0.304739
O O4 0.127442 0.109548 0.196710
O O5 0.500000 0.589044 0.866304
O O6 0.577851 0.750000 0.853612
O O7 0.639020 0.608850 0.907427
O O8 0.149522 0.622725 0.058169
O O9 0.095327 0.452800 0.098753
O O10 0.000000 0.592375 0.069992
O O11 0.080074 0.500000 0.000000
O O12 0.220424 0.874587 0.882188
O O13 0.272734 0.041078 0.925972
O O14 0.252790 0.879139 0.982305
O O15 0.260166 0.250000 0.939256
O O16 0.610095 0.750000 0.623817
#
# Coordination Sequence:
#
# PCOD9534041 Si02
#       6
#    16  16  16  16  16  16
#     4   9  16  26  44  70  99 131 163 191 227 280
#     4  10  19  30  47  73 103 130 157 192 237 287
#     4  10  20  31  42  67  98 126 165 199 232 282
#     4  10  18  31  49  71  94 124 163 196 232 287
#     4  10  19  33  51  69  91 123 163 204 241 282
#     4  10  17  28  47  68  97 135 163 191 231 280
#
# _framework density 16.027677000000001
#
# number of rings (size 3 to 8) (size 9 to 14) (size 15 to 20)
#    0.000    2.167    5.000    1.500    0.000    1.333 
#    0.000    5.000    0.000    1.500    0.000    9.333 
#    0.000    0.000    0.000    0.000    0.000    0.000 
#
# Total GULP energy -267322.074414 kJ/mol
# GULP energy per Si atom -5569.209884 kJ/mol
# Density = 1.599120 g / cm^3
# Si number density = 16.027677 Si / 1000 Ang^3
#
#
#
# Elastic Constant Matrix: (Units=GPa)
#
#
# Indices 1 2 3 4 5 6 
#
# 1 103.2727 6.9502 29.5162 0.0000 0.0000 0.0000
# 2 6.9502 62.1368 14.4043 0.0000 0.0000 0.0000
# 3 29.5162 14.4043 56.9399 0.0000 0.0000 0.0000
# 4 0.0000 0.0000 0.0000 15.1918 0.0000 0.0000
# 5 0.0000 0.0000 0.0000 0.0000 8.9622 0.0000
# 6 0.0000 0.0000 0.0000 0.0000 0.0000 7.6298
#
#
#
# Elastic Compliance Matrix: (Units=1/GPa)
#
#
# Indices 1 2 3 4 5 6 
#
# 1 0.011368 0.000100 -0.005918 0.000000 0.000000 0.000000
# 2 0.000100 0.017097 -0.004377 0.000000 0.000000 0.000000
# 3 -0.005918 -0.004377 0.021738 0.000000 0.000000 0.000000
# 4 0.000000 0.000000 0.000000 0.065825 0.000000 0.000000
# 5 0.000000 0.000000 0.000000 0.000000 0.111580 0.000000
# 6 0.000000 0.000000 0.000000 0.000000 0.000000 0.131064
#
#
# Mechanical properties :
#
#
# Convention : Reuss Voigt Hill
#
# Bulk Modulus (GPa) = 33.54301 36.01010 34.77656
# Shear Modulus (GPa) = 12.85350 17.78867 15.32109
#
# Velocity S-wave (km/s) = 2.83496 3.33509 3.09514
# Velocity P-wave (km/s) = 5.62935 6.11119 5.87521
#
# Compressibility (1/GPa) = 0.02981247
#
# Stress axis : x y z
#
# Youngs Moduli (GPa) = 87.96766 58.48981 46.00341
#
# Poissons Ratio (x) = -0.00587 0.27226
# Poissons Ratio (y) = -0.00883 0.20136
# Poissons Ratio (z) = 0.52061 0.25602
#
# Static dielectric constant tensor:
#      x y z
#    x 1.575630 0.000000 0.000000 
#    y 0.000000 1.518390 0.000000 
#    z 0.000000 0.000000 1.546730 
# 
# From -- ./inp_files/60799.got.cif
#   From: 2010.05.17/outbox.cif.g08.bks.cpg/sg74_31_cif.got.tgz:60799.got - 2010.06.03 17:57:02.
