data_PCOD9534100
_publ_section_title
;
Structure prediction by ZEFSAII (Michael W. Deem and Ramdas Pophale) SiO2 
 PCOD9534100
Probable space group: I M M A
;
_chemical_formula_sum "Si O2"
_cell_formula_units_Z 80
_cell_length_a 7.832979
_cell_length_b 17.381879
_cell_length_c 29.369170
_cell_angle_alpha 90.000000
_cell_angle_beta 90.000000
_cell_angle_gamma 90.000000
_cell_volume 3998.668097
_symmetry_space_group_name_H-M "I M M A"
_symmetry_group_IT_number 74
_symmetry_cell_setting 'orthorhombic'
loop_
_space_group_symop_operation_xyz
x,y,z
-x,1/2-y,z
x,-y,-z
-x,1/2+y,-z
-x,-y,-z
x,1/2+y,-z
-x,y,z
x,1/2-y,z
1/2+x,1/2+y,1/2+z
1/2-x,-y,1/2+z
1/2+x,1/2-y,1/2-z
1/2-x,y,1/2-z
1/2-x,1/2-y,1/2-z
1/2+x,y,1/2-z
1/2-x,1/2+y,1/2+z
1/2+x,-y,1/2+z
loop_
_atom_site_type_symbol
_atom_site_label
_atom_site_fract_x
_atom_site_fract_y
_atom_site_fract_z
Si Si1 0.807486 0.250000 0.313443
Si Si2 0.801073 0.923844 0.799931
Si Si3 0.290523 0.509180 0.390321
Si Si4 0.802845 0.400796 0.030243
Si Si5 0.291262 0.838300 0.433586
Si Si6 0.196283 0.750000 0.578143
O O1 0.729197 0.168040 0.300716
O O2 0.808480 0.250000 0.367886
O O3 0.000000 0.250000 0.295148
O O4 0.750000 0.952997 0.750000
O O5 0.000000 0.936696 0.803727
O O6 0.725916 0.965732 0.844903
O O7 0.500000 0.503915 0.391192
O O8 0.229620 0.466123 0.436546
O O9 0.246002 0.599074 0.395197
O O10 0.791488 0.324521 0.060442
O O11 0.000000 0.421303 0.021677
O O12 0.730321 0.374842 0.981609
O O13 0.500000 0.835377 0.435697
O O14 0.233351 0.750000 0.428254
O O15 0.000000 0.750000 0.561493
#
# Coordination Sequence:
#
# PCOD9534100 Si02
#       6
#     8  16  16  16  16   8
#     4  11  22  36  53  75 104 138 174 207 245 291
#     4  11  22  36  54  75 102 133 169 209 254 302
#     4   9  18  30  48  75 104 131 164 209 254 297
#     4  10  17  30  51  75 102 135 172 204 244 293
#     4   9  16  27  49  80 105 126 162 214 257 289
#     4  11  21  30  46  73 109 142 169 201 242 291
#
# _framework density 20.006663
#
# number of rings (size 3 to 8) (size 9 to 14) (size 15 to 20)
#    0.000    2.000    3.000    2.100    0.000    3.200 
#    0.000    0.000    0.000    5.400    0.000    0.000 
#    0.000    0.000    0.000    0.000    0.000    0.200 
#
# Total GULP energy -223038.092949 kJ/mol
# GULP energy per Si atom -5575.952324 kJ/mol
# Density = 1.996113 g / cm^3
# Si number density = 20.006663 Si / 1000 Ang^3
#
#
#
# Elastic Constant Matrix: (Units=GPa)
#
#
# Indices 1 2 3 4 5 6 
#
# 1 27.1042 1.9274 3.6964 0.0000 0.0000 0.0000
# 2 1.9274 164.9885 77.7561 0.0000 0.0000 0.0000
# 3 3.6964 77.7561 97.1611 0.0000 0.0000 0.0000
# 4 0.0000 0.0000 0.0000 24.1405 0.0000 0.0000
# 5 0.0000 0.0000 0.0000 0.0000 8.9051 0.0000
# 6 0.0000 0.0000 0.0000 0.0000 0.0000 -12.4226
#
#
#
# Elastic Compliance Matrix: (Units=1/GPa)
#
#
# Indices 1 2 3 4 5 6 
#
# 1 0.037101 0.000372 -0.001709 0.000000 0.000000 0.000000
# 2 0.000372 0.009735 -0.007805 0.000000 0.000000 0.000000
# 3 -0.001709 -0.007805 0.016603 0.000000 0.000000 0.000000
# 4 0.000000 0.000000 0.000000 0.041424 0.000000 0.000000
# 5 0.000000 0.000000 0.000000 0.000000 0.112296 0.000000
# 6 0.000000 0.000000 0.000000 0.000000 0.000000 -0.080499
#
#
# Mechanical properties :
#
#
# Convention : Reuss Voigt Hill
#
# Bulk Modulus (GPa) = 22.14565 50.66816 36.40691
# Shear Modulus (GPa) = 29.41236 17.84952 23.63094
#
# Velocity S-wave (km/s) = 3.83839 2.99018 3.44052
# Velocity P-wave (km/s) = 5.54414 6.10755 5.83265
#
# Compressibility (1/GPa) = 0.04515559
#
# Stress axis : x y z
#
# Youngs Moduli (GPa) = 26.95320 102.72248 60.22903
#
# Poissons Ratio (x) = -0.03823 0.10295
# Poissons Ratio (y) = -0.01003 0.47008
# Poissons Ratio (z) = 0.04607 0.80173
#
# Static dielectric constant tensor:
#      x y z
#    x 1.764910 0.000000 0.000000 
#    y 0.000000 1.662220 0.000000 
#    z 0.000000 0.000000 1.734980 
# 
# From -- ./inp_files/64052.got.cif
#   From: 2010.05.17/outbox.cif.g08.bks.cpg/sg74_33_cif.got.tgz:64052.got - 2010.06.03 17:57:02.
