data_PCOD9534642
_publ_section_title
;
Structure prediction by ZEFSAII (Michael W. Deem and Ramdas Pophale) SiO2 
 PCOD9534642
Probable space group: I M M A
;
_chemical_formula_sum "Si O2"
_cell_formula_units_Z 72
_cell_length_a 7.975275
_cell_length_b 24.375645
_cell_length_c 18.168150
_cell_angle_alpha 90.000000
_cell_angle_beta 90.000000
_cell_angle_gamma 90.000000
_cell_volume 3531.933275
_symmetry_space_group_name_H-M "I M M A"
_symmetry_group_IT_number 74
_symmetry_cell_setting 'orthorhombic'
loop_
_space_group_symop_operation_xyz
x,y,z
-x,1/2-y,z
x,-y,-z
-x,1/2+y,-z
-x,-y,-z
x,1/2+y,-z
-x,y,z
x,1/2-y,z
1/2+x,1/2+y,1/2+z
1/2-x,-y,1/2+z
1/2+x,1/2-y,1/2-z
1/2-x,y,1/2-z
1/2-x,1/2-y,1/2-z
1/2+x,y,1/2-z
1/2-x,1/2+y,1/2+z
1/2+x,-y,1/2+z
loop_
_atom_site_type_symbol
_atom_site_label
_atom_site_fract_x
_atom_site_fract_y
_atom_site_fract_z
Si Si1 0.698305 0.250000 0.164133
Si Si2 0.195295 0.472364 0.072636
Si Si3 0.198700 0.370176 0.163823
Si Si4 0.298386 0.926794 0.164761
Si Si5 0.702072 0.308587 0.836535
O O1 0.500000 0.250000 0.159036
O O2 0.750000 0.250000 0.250000
O O3 0.760730 0.191203 0.135833
O O4 0.269478 0.417921 0.110855
O O5 0.207956 0.521415 0.130593
O O6 0.000000 0.459966 0.055192
O O7 0.274406 0.500000 0.000000
O O8 0.250000 0.375724 0.250000
O O9 0.000000 0.376462 0.164476
O O10 0.500000 0.932299 0.156938
O O11 0.250000 0.925127 0.250000
O O12 0.243198 0.867427 0.132180
O O13 0.500000 0.308679 0.840518
O O14 0.763135 0.250000 0.867612
O O15 0.750000 0.308440 0.750000
#
# Coordination Sequence:
#
# PCOD9534642 Si02
#       5
#     8  16  16  16  16
#     4  10  18  30  52  82 112 136 167 214 267 320
#     4  10  22  38  54  73 103 142 179 219 264 313
#     4  10  19  33  55  81 108 139 175 218 267 320
#     4  10  19  31  51  77 102 133 171 216 261 308
#     4   8  14  25  42  66  95 125 157 197 244 289
#
# _framework density 20.385435999999999
#
# number of rings (size 3 to 8) (size 9 to 14) (size 15 to 20)
#    0.000    2.444    0.000    4.333    0.000    4.889 
#    0.000    0.000    2.444    0.000    0.000    0.000 
#    0.000    0.000    0.000    0.000    0.000    0.000 
#
# Total GULP energy -200464.327997 kJ/mol
# GULP energy per Si atom -5568.453555 kJ/mol
# Density = 2.033904 g / cm^3
# Si number density = 20.385436 Si / 1000 Ang^3
#
#
#
# Elastic Constant Matrix: (Units=GPa)
#
#
# Indices 1 2 3 4 5 6 
#
# 1 35.4203 -5.2584 1.9174 0.0000 0.0000 0.0000
# 2 -5.2584 197.3558 52.8196 0.0000 0.0000 0.0000
# 3 1.9174 52.8196 48.3848 0.0000 0.0000 0.0000
# 4 0.0000 0.0000 0.0000 6.7188 0.0000 0.0000
# 5 0.0000 0.0000 0.0000 0.0000 8.6314 0.0000
# 6 0.0000 0.0000 0.0000 0.0000 0.0000 -49.8134
#
#
#
# Elastic Compliance Matrix: (Units=1/GPa)
#
#
# Indices 1 2 3 4 5 6 
#
# 1 0.028606 0.001505 -0.002777 0.000000 0.000000 0.000000
# 2 0.001505 0.007238 -0.007961 0.000000 0.000000 0.000000
# 3 -0.002777 -0.007961 0.029468 0.000000 0.000000 0.000000
# 4 0.000000 0.000000 0.000000 0.148835 0.000000 0.000000
# 5 0.000000 0.000000 0.000000 0.000000 0.115856 0.000000
# 6 0.000000 0.000000 0.000000 0.000000 0.000000 -0.020075
#
#
# Mechanical properties :
#
#
# Convention : Reuss Voigt Hill
#
# Bulk Modulus (GPa) = 21.34595 42.23535 31.79065
# Shear Modulus (GPa) = 14.53451 8.55286 11.54369
#
# Velocity S-wave (km/s) = 2.67307 2.05053 2.38223
# Velocity P-wave (km/s) = 4.47448 5.13514 4.81615
#
# Compressibility (1/GPa) = 0.04684729
#
# Stress axis : x y z
#
# Youngs Moduli (GPa) = 34.95744 138.16583 33.93503
#
# Poissons Ratio (x) = -0.20800 0.09424
# Poissons Ratio (y) = -0.05263 0.27015
# Poissons Ratio (z) = 0.09708 1.09990
#
# Static dielectric constant tensor:
#      x y z
#    x 1.782940 0.000000 0.000000 
#    y 0.000000 1.856410 0.000000 
#    z 0.000000 0.000000 1.733570 
# 
# From -- ./inp_files/39420.got.cif
#   From: 2010.05.17/outbox.cif.g08.bks.cpg/sg74_20_cif.got.tgz:39420.got - 2010.06.03 17:57:02.
