data_PCOD9534658
_publ_section_title
;
Structure prediction by ZEFSAII (Michael W. Deem and Ramdas Pophale) SiO2 
 PCOD9534658
Probable space group: I M M A
;
_chemical_formula_sum "Si O2"
_cell_formula_units_Z 68
_cell_length_a 14.355303
_cell_length_b 14.970421
_cell_length_c 12.230174
_cell_angle_alpha 90.000000
_cell_angle_beta 90.000000
_cell_angle_gamma 90.000000
_cell_volume 2628.324681
_symmetry_space_group_name_H-M "I M M A"
_symmetry_group_IT_number 74
_symmetry_cell_setting 'orthorhombic'
loop_
_space_group_symop_operation_xyz
x,y,z
-x,1/2-y,z
x,-y,-z
-x,1/2+y,-z
-x,-y,-z
x,1/2+y,-z
-x,y,z
x,1/2-y,z
1/2+x,1/2+y,1/2+z
1/2-x,-y,1/2+z
1/2+x,1/2-y,1/2-z
1/2-x,y,1/2-z
1/2-x,1/2-y,1/2-z
1/2+x,y,1/2-z
1/2-x,1/2+y,1/2+z
1/2+x,-y,1/2+z
loop_
_atom_site_type_symbol
_atom_site_label
_atom_site_fract_x
_atom_site_fract_y
_atom_site_fract_z
Si Si1 0.866671 0.103503 0.969633
Si Si2 0.500000 0.750000 0.567342
Si Si3 0.638440 0.347854 0.223728
Si Si4 0.351410 0.851382 0.031819
Si Si5 0.136408 0.953591 0.256960
O O1 0.758062 0.126989 0.976938
O O2 0.894435 0.109257 0.841993
O O3 0.920700 0.171304 0.044431
O O4 0.878708 0.000000 0.000000
O O5 0.598541 0.250000 0.257214
O O6 0.750000 0.343968 0.250000
O O7 0.606780 0.444558 0.263987
O O8 0.617928 0.354843 0.093790
O O9 0.365152 0.750000 0.071150
O O10 0.389626 0.918351 0.123300
O O11 0.250000 0.954192 0.250000
#
# Coordination Sequence:
#
# PCOD9534658 Si02
#       5
#    16   4  16  16  16
#     4  11  22  38  55  75 108 147 185 231 279 324
#     4  12  26  40  54  74 104 150 202 234 264 336
#     4   9  16  27  45  78 119 141 169 203 264 346
#     4  10  18  30  54  84 115 147 171 214 283 342
#     4   9  18  30  51  77 109 136 175 219 275 340
#
# _framework density 25.871991999999999
#
# number of rings (size 3 to 8) (size 9 to 14) (size 15 to 20)
#    0.000    2.118    1.176    5.294    1.647    1.412 
#    2.118    0.000    0.000    0.000    0.000    3.294 
#    0.000    0.235    0.000    0.000    0.000    0.000 
#
# Total GULP energy -189778.751790 kJ/mol
# GULP energy per Si atom -5581.727994 kJ/mol
# Density = 2.581311 g / cm^3
# Si number density = 25.871992 Si / 1000 Ang^3
#
#
#
# Elastic Constant Matrix: (Units=GPa)
#
#
# Indices 1 2 3 4 5 6 
#
# 1 99.9811 -5.6951 -20.8366 0.0000 0.0000 0.0000
# 2 -5.6951 189.1786 49.8874 0.0000 0.0000 0.0000
# 3 -20.8366 49.8874 157.8929 0.0000 0.0000 0.0000
# 4 0.0000 0.0000 0.0000 56.3863 0.0000 0.0000
# 5 0.0000 0.0000 0.0000 0.0000 -87.4016 0.0000
# 6 0.0000 0.0000 0.0000 0.0000 0.0000 133.4873
#
#
#
# Elastic Compliance Matrix: (Units=1/GPa)
#
#
# Indices 1 2 3 4 5 6 
#
# 1 0.010285 -0.000053 0.001374 0.000000 0.000000 0.000000
# 2 -0.000053 0.005767 -0.001829 0.000000 0.000000 0.000000
# 3 0.001374 -0.001829 0.007093 0.000000 0.000000 0.000000
# 4 0.000000 0.000000 0.000000 0.017735 0.000000 0.000000
# 5 0.000000 0.000000 0.000000 0.000000 -0.011441 0.000000
# 6 0.000000 0.000000 0.000000 0.000000 0.000000 0.007491
#
#
# Mechanical properties :
#
#
# Convention : Reuss Voigt Hill
#
# Bulk Modulus (GPa) = 45.18934 54.86267 50.02600
# Shear Modulus (GPa) = 110.32386 48.74088 79.53237
#
# Velocity S-wave (km/s) = 6.53718 4.34513 5.55045
# Velocity P-wave (km/s) = 8.63042 6.81359 7.77525
#
# Compressibility (1/GPa) = 0.02212911
#
# Stress axis : x y z
#
# Youngs Moduli (GPa) = 97.22684 173.40823 140.99187
#
# Poissons Ratio (x) = 0.00914 -0.19372
# Poissons Ratio (y) = 0.00512 0.25787
# Poissons Ratio (z) = -0.13359 0.31716
#
# Static dielectric constant tensor:
#      x y z
#    x 2.139070 0.000000 0.000000 
#    y 0.000000 1.935210 0.000000 
#    z 0.000000 0.000000 2.112020 
# 
# From -- ./inp_files/20392.got.cif
#   From: 2010.05.17/outbox.cif.g08.bks.cpg/sg74_11_cif.got.tgz:20392.got - 2010.06.03 17:57:02.
