data_PCOD9534764
_publ_section_title
;
Structure prediction by ZEFSAII (Michael W. Deem and Ramdas Pophale) SiO2 
 PCOD9534764
Probable space group: I M M A
;
_chemical_formula_sum "Si O2"
_cell_formula_units_Z 88
_cell_length_a 22.887515
_cell_length_b 8.792161
_cell_length_c 25.515585
_cell_angle_alpha 90.000000
_cell_angle_beta 90.000000
_cell_angle_gamma 90.000000
_cell_volume 5134.519458
_symmetry_space_group_name_H-M "I M M A"
_symmetry_group_IT_number 74
_symmetry_cell_setting 'orthorhombic'
loop_
_space_group_symop_operation_xyz
x,y,z
-x,1/2-y,z
x,-y,-z
-x,1/2+y,-z
-x,-y,-z
x,1/2+y,-z
-x,y,z
x,1/2-y,z
1/2+x,1/2+y,1/2+z
1/2-x,-y,1/2+z
1/2+x,1/2-y,1/2-z
1/2-x,y,1/2-z
1/2-x,1/2-y,1/2-z
1/2+x,y,1/2-z
1/2-x,1/2+y,1/2+z
1/2+x,-y,1/2+z
loop_
_atom_site_type_symbol
_atom_site_label
_atom_site_fract_x
_atom_site_fract_y
_atom_site_fract_z
Si Si1 0.067675 0.935026 0.235494
Si Si2 0.385113 0.065963 0.625231
Si Si3 0.500000 0.066656 0.558310
Si Si4 0.851640 0.568317 0.556439
Si Si5 0.931078 0.933056 0.352833
Si Si6 0.715952 0.931932 0.556552
O O1 0.067888 0.750000 0.235566
O O2 0.104383 0.983892 0.185209
O O3 0.086436 0.982438 0.293780
O O4 0.000000 0.980527 0.227967
O O5 0.381541 0.250000 0.624262
O O6 0.441999 0.022409 0.590724
O O7 0.327682 0.996865 0.599590
O O8 0.500000 0.250000 0.554915
O O9 0.500000 0.000000 0.500000
O O10 0.868403 0.500000 0.500000
O O11 0.855106 0.750000 0.553650
O O12 0.892463 0.507318 0.602385
O O13 0.783695 0.525738 0.566233
O O14 0.925319 0.750000 0.355759
O O15 0.000000 0.968205 0.359128
O O16 0.711851 0.750000 0.554391
O O17 0.699250 0.000000 0.500000
#
# Coordination Sequence:
#
# PCOD9534764 Si02
#       6
#    16  16   8  16  16  16
#     4   8  14  29  52  76 103 135 171 209 250 297
#     4  10  18  31  52  75 100 135 174 212 255 300
#     4  10  20  30  44  70 102 132 167 212 257 298
#     4  10  21  37  56  76 102 135 169 208 254 306
#     4   9  18  33  56  83 107 132 165 207 252 301
#     4  10  21  36  52  72  99 134 174 214 257 304
#
# _framework density 17.138898000000001
#
# number of rings (size 3 to 8) (size 9 to 14) (size 15 to 20)
#    0.000    2.545    0.909    2.727    0.000    5.091 
#    0.000    1.818    0.000    6.545    0.000    0.000 
#    0.000    0.000    0.000    0.000    0.000    0.000 
#
# Total GULP energy -245401.223469 kJ/mol
# GULP energy per Si atom -5577.300533 kJ/mol
# Density = 1.709989 g / cm^3
# Si number density = 17.138898 Si / 1000 Ang^3
#
#
#
# Elastic Constant Matrix: (Units=GPa)
#
#
# Indices 1 2 3 4 5 6 
#
# 1 77.2190 32.0318 99.8398 0.0000 0.0000 0.0000
# 2 32.0318 19.6323 44.6846 0.0000 0.0000 0.0000
# 3 99.8398 44.6846 199.3481 0.0000 0.0000 0.0000
# 4 0.0000 0.0000 0.0000 27.2731 0.0000 0.0000
# 5 0.0000 0.0000 0.0000 0.0000 27.2564 0.0000
# 6 0.0000 0.0000 0.0000 0.0000 0.0000 28.1891
#
#
#
# Elastic Compliance Matrix: (Units=1/GPa)
#
#
# Indices 1 2 3 4 5 6 
#
# 1 0.057054 -0.057269 -0.015737 0.000000 0.000000 0.000000
# 2 -0.057269 0.161478 -0.007514 0.000000 0.000000 0.000000
# 3 -0.015737 -0.007514 0.014582 0.000000 0.000000 0.000000
# 4 0.000000 0.000000 0.000000 0.036666 0.000000 0.000000
# 5 0.000000 0.000000 0.000000 0.000000 0.036689 0.000000
# 6 0.000000 0.000000 0.000000 0.000000 0.000000 0.035475
#
#
# Mechanical properties :
#
#
# Convention : Reuss Voigt Hill
#
# Bulk Modulus (GPa) = 13.87467 72.14576 43.01022
# Shear Modulus (GPa) = 9.48752 24.51993 17.00373
#
# Velocity S-wave (km/s) = 2.35535 3.78651 3.15320
# Velocity P-wave (km/s) = 3.93826 7.82962 6.19729
#
# Compressibility (1/GPa) = 0.07207378
#
# Stress axis : x y z
#
# Youngs Moduli (GPa) = 17.52729 6.19280 68.57624
#
# Poissons Ratio (x) = 0.35466 1.07921
# Poissons Ratio (y) = 1.00377 0.51526
# Poissons Ratio (z) = 0.27583 0.04653
#
# Static dielectric constant tensor:
#      x y z
#    x 1.563630 0.000000 0.000000 
#    y 0.000000 1.579810 0.000000 
#    z 0.000000 0.000000 1.572420 
# 
# From -- ./inp_files/48759.got.cif
#   From: 2010.05.17/outbox.cif.g08.bks.cpg/sg74_25_cif.got.tgz:48759.got - 2010.06.03 17:57:02.
