data_PCOD9534659
_publ_section_title
;
Structure prediction by ZEFSAII (Michael W. Deem and Ramdas Pophale) SiO2 
 PCOD9534659
Probable space group: I M M A
;
_chemical_formula_sum "Si O2"
_cell_formula_units_Z 112
_cell_length_a 13.805829
_cell_length_b 13.965490
_cell_length_c 27.135775
_cell_angle_alpha 90.000000
_cell_angle_beta 90.000000
_cell_angle_gamma 90.000000
_cell_volume 5231.917626
_symmetry_space_group_name_H-M "I M M A"
_symmetry_group_IT_number 74
_symmetry_cell_setting 'orthorhombic'
loop_
_space_group_symop_operation_xyz
x,y,z
-x,1/2-y,z
x,-y,-z
-x,1/2+y,-z
-x,-y,-z
x,1/2+y,-z
-x,y,z
x,1/2-y,z
1/2+x,1/2+y,1/2+z
1/2-x,-y,1/2+z
1/2+x,1/2-y,1/2-z
1/2-x,y,1/2-z
1/2-x,1/2-y,1/2-z
1/2+x,y,1/2-z
1/2-x,1/2+y,1/2+z
1/2+x,-y,1/2+z
loop_
_atom_site_type_symbol
_atom_site_label
_atom_site_fract_x
_atom_site_fract_y
_atom_site_fract_z
Si Si1 0.306258 0.858061 0.476794
Si Si2 0.388724 0.633663 0.576002
Si Si3 0.754600 0.988773 0.199057
Si Si4 0.384894 0.642212 0.686523
Si Si5 0.883115 0.635713 0.636887
Si Si6 0.386571 0.866027 0.372974
Si Si7 0.109150 0.608419 0.519007
O O1 0.346886 0.750000 0.477968
O O2 0.335203 0.904593 0.528520
O O3 0.352858 0.897880 0.427628
O O4 0.191011 0.850806 0.482765
O O5 0.500000 0.606004 0.571850
O O6 0.384005 0.750000 0.576090
O O7 0.355556 0.612129 0.630987
O O8 0.750000 0.929029 0.250000
O O9 0.832203 0.067209 0.219430
O O10 0.672913 0.054205 0.169856
O O11 0.810632 0.918122 0.162152
O O12 0.500000 0.638305 0.689310
O O13 0.355079 0.750000 0.696547
O O14 0.858765 0.750000 0.647198
O O15 0.865057 0.620140 0.577514
O O16 0.000000 0.626278 0.644209
O O17 0.500000 0.891689 0.364397
O O18 0.379205 0.750000 0.369508
O O19 0.105854 0.500000 0.500000
O O20 0.000000 0.646544 0.514043
#
# Coordination Sequence:
#
# PCOD9534659 Si02
#       7
#    16  16  16  16  16  16  16
#     4  10  18  30  54  85 115 148 186 228 280 348
#     4   8  14  26  47  78 116 154 186 217 264 336
#     4  12  25  40  62  86 113 153 208 267 322 374
#     4   9  18  33  54  84 123 160 192 233 290 357
#     4  10  22  40  61  89 129 174 216 258 305 359
#     4  10  23  44  67  91 120 152 191 248 318 387
#     4  10  20  34  54  82 120 165 208 247 286 337
#
# _framework density 21.407063999999998
#
# number of rings (size 3 to 8) (size 9 to 14) (size 15 to 20)
#    0.000    2.143    0.000    4.286    0.000    6.286 
#    0.000    1.429    0.000    5.571    0.000    0.000 
#    0.000    0.000    0.000    0.000    0.000    0.000 
#
# Total GULP energy -311881.216295 kJ/mol
# GULP energy per Si atom -5569.307434 kJ/mol
# Density = 2.135834 g / cm^3
# Si number density = 21.407064 Si / 1000 Ang^3
#
#
#
# Elastic Constant Matrix: (Units=GPa)
#
#
# Indices 1 2 3 4 5 6 
#
# 1 80.4210 21.2444 35.2121 0.0000 0.0000 0.0000
# 2 21.2444 88.9895 19.6216 0.0000 0.0000 0.0000
# 3 35.2121 19.6216 74.0429 0.0000 0.0000 0.0000
# 4 0.0000 0.0000 0.0000 46.9931 0.0000 0.0000
# 5 0.0000 0.0000 0.0000 0.0000 16.6745 0.0000
# 6 0.0000 0.0000 0.0000 0.0000 0.0000 22.2942
#
#
#
# Elastic Compliance Matrix: (Units=1/GPa)
#
#
# Indices 1 2 3 4 5 6 
#
# 1 0.016134 -0.002294 -0.007065 0.000000 0.000000 0.000000
# 2 -0.002294 0.012261 -0.002158 0.000000 0.000000 0.000000
# 3 -0.007065 -0.002158 0.017437 0.000000 0.000000 0.000000
# 4 0.000000 0.000000 0.000000 0.021280 0.000000 0.000000
# 5 0.000000 0.000000 0.000000 0.000000 0.059972 0.000000
# 6 0.000000 0.000000 0.000000 0.000000 0.000000 0.044855
#
#
# Mechanical properties :
#
#
# Convention : Reuss Voigt Hill
#
# Bulk Modulus (GPa) = 43.86320 43.95662 43.90991
# Shear Modulus (GPa) = 24.68265 28.35072 26.51668
#
# Velocity S-wave (km/s) = 3.39929 3.64313 3.52332
# Velocity P-wave (km/s) = 5.99512 6.18666 6.09164
#
# Compressibility (1/GPa) = 0.02279816
#
# Stress axis : x y z
#
# Youngs Moduli (GPa) = 61.98164 81.56094 57.34812
#
# Poissons Ratio (x) = 0.18709 0.40515
# Poissons Ratio (y) = 0.14218 0.12377
# Poissons Ratio (z) = 0.43789 0.17603
#
# Static dielectric constant tensor:
#      x y z
#    x 1.870540 0.000000 0.000000 
#    y 0.000000 1.874980 0.000000 
#    z 0.000000 0.000000 1.842180 
# 
# From -- ./inp_files/67242.got.cif
#   From: 2010.05.17/outbox.cif.g08.bks.cpg/sg74_34_cif.got.tgz:67242.got - 2010.06.03 17:57:02.
