data_PCOD9534728
_publ_section_title
;
Structure prediction by ZEFSAII (Michael W. Deem and Ramdas Pophale) SiO2 
 PCOD9534728
Probable space group: I M M A
;
_chemical_formula_sum "Si O2"
_cell_formula_units_Z 112
_cell_length_a 18.467266
_cell_length_b 18.888524
_cell_length_c 17.742710
_cell_angle_alpha 90.000000
_cell_angle_beta 90.000000
_cell_angle_gamma 90.000000
_cell_volume 6189.001404
_symmetry_space_group_name_H-M "I M M A"
_symmetry_group_IT_number 74
_symmetry_cell_setting 'orthorhombic'
loop_
_space_group_symop_operation_xyz
x,y,z
-x,1/2-y,z
x,-y,-z
-x,1/2+y,-z
-x,-y,-z
x,1/2+y,-z
-x,y,z
x,1/2-y,z
1/2+x,1/2+y,1/2+z
1/2-x,-y,1/2+z
1/2+x,1/2-y,1/2-z
1/2-x,y,1/2-z
1/2-x,1/2-y,1/2-z
1/2+x,y,1/2-z
1/2-x,1/2+y,1/2+z
1/2+x,-y,1/2+z
loop_
_atom_site_type_symbol
_atom_site_label
_atom_site_fract_x
_atom_site_fract_y
_atom_site_fract_z
Si Si1 0.914819 0.669732 0.331719
Si Si2 0.837880 0.078815 0.239475
Si Si3 0.355480 0.330864 0.117703
Si Si4 0.831109 0.080132 0.783617
Si Si5 0.370049 0.421423 0.974420
Si Si6 0.304706 0.426101 0.539749
Si Si7 0.319822 0.169478 0.403738
O O1 0.889987 0.750000 0.351734
O O2 0.875554 0.641169 0.257286
O O3 0.900158 0.614030 0.398944
O O4 0.000000 0.672107 0.318798
O O5 0.750000 0.077719 0.250000
O O6 0.870113 0.122823 0.308474
O O7 0.851067 0.118947 0.161093
O O8 0.861174 0.997471 0.238518
O O9 0.379534 0.250000 0.125281
O O10 0.267628 0.330214 0.108443
O O11 0.385176 0.368846 0.043711
O O12 0.750000 0.084351 0.750000
O O13 0.828231 0.081751 0.874070
O O14 0.283087 0.425754 0.961896
O O15 0.394145 0.500000 0.000000
O O16 0.326620 0.500000 0.500000
O O17 0.331797 0.363580 0.485707
O O18 0.345018 0.250000 0.396307
#
# Coordination Sequence:
#
# PCOD9534728 Si02
#       7
#    16  16  16  16  16  16  16
#     4  11  25  42  56  77 113 152 191 238 284 326
#     4   9  16  26  45  71 103 136 171 213 268 323
#     4   9  16  25  41  67 102 139 173 211 261 324
#     4  11  20  35  57  80 106 144 184 227 277 335
#     4  10  19  33  54  78 108 144 185 225 272 329
#     4  10  18  31  50  81 113 141 175 226 280 329
#     4   9  16  25  40  68 105 139 168 212 274 328
#
# _framework density 18.096620000000001
#
# number of rings (size 3 to 8) (size 9 to 14) (size 15 to 20)
#    0.000    2.143    2.857    1.714    4.000    3.429 
#    0.000    0.000    0.000    0.429    0.000    0.000 
#    0.000    1.714    0.000    0.286    0.000    0.000 
#
# Total GULP energy -312325.438588 kJ/mol
# GULP energy per Si atom -5577.239975 kJ/mol
# Density = 1.805543 g / cm^3
# Si number density = 18.096620 Si / 1000 Ang^3
#
#
#
# Elastic Constant Matrix: (Units=GPa)
#
#
# Indices 1 2 3 4 5 6 
#
# 1 11.0389 16.5540 15.6527 0.0000 0.0000 0.0000
# 2 16.5540 112.6060 45.9090 0.0000 0.0000 0.0000
# 3 15.6527 45.9090 143.6363 0.0000 0.0000 0.0000
# 4 0.0000 0.0000 0.0000 27.3020 0.0000 0.0000
# 5 0.0000 0.0000 0.0000 0.0000 6.9957 0.0000
# 6 0.0000 0.0000 0.0000 0.0000 0.0000 9.5474
#
#
#
# Elastic Compliance Matrix: (Units=1/GPa)
#
#
# Indices 1 2 3 4 5 6 
#
# 1 0.125459 -0.014798 -0.008942 0.000000 0.000000 0.000000
# 2 -0.014798 0.011957 -0.002209 0.000000 0.000000 0.000000
# 3 -0.008942 -0.002209 0.008643 0.000000 0.000000 0.000000
# 4 0.000000 0.000000 0.000000 0.036627 0.000000 0.000000
# 5 0.000000 0.000000 0.000000 0.000000 0.142944 0.000000
# 6 0.000000 0.000000 0.000000 0.000000 0.000000 0.104740
#
#
# Mechanical properties :
#
#
# Convention : Reuss Voigt Hill
#
# Bulk Modulus (GPa) = 10.62016 47.05696 28.83856
# Shear Modulus (GPa) = 9.73416 21.38006 15.55711
#
# Velocity S-wave (km/s) = 2.32178 3.44094 2.93519
# Velocity P-wave (km/s) = 3.61509 6.46888 5.24000
#
# Compressibility (1/GPa) = 0.09416050
#
# Stress axis : x y z
#
# Youngs Moduli (GPa) = 7.97070 83.63645 115.70702
#
# Poissons Ratio (x) = 1.23764 1.03467
# Poissons Ratio (y) = 0.11795 0.25559
# Poissons Ratio (z) = 0.07128 0.18475
#
# Static dielectric constant tensor:
#      x y z
#    x 1.601520 0.000000 0.000000 
#    y 0.000000 1.636190 0.000000 
#    z 0.000000 0.000000 1.609620 
# 
# From -- ./inp_files/45437.got.cif
#   From: 2010.05.17/outbox.cif.g08.bks.cpg/sg74_23_cif.got.tgz:45437.got - 2010.06.03 17:57:02.
