data_PCOD9534287
_publ_section_title
;
Structure prediction by ZEFSAII (Michael W. Deem and Ramdas Pophale) SiO2 
 PCOD9534287
Probable space group: I M M A
;
_chemical_formula_sum "Si O2"
_cell_formula_units_Z 96
_cell_length_a 27.072961
_cell_length_b 8.721926
_cell_length_c 29.621918
_cell_angle_alpha 90.000000
_cell_angle_beta 90.000000
_cell_angle_gamma 90.000000
_cell_volume 6994.574990
_symmetry_space_group_name_H-M "I M M A"
_symmetry_group_IT_number 74
_symmetry_cell_setting 'orthorhombic'
loop_
_space_group_symop_operation_xyz
x,y,z
-x,1/2-y,z
x,-y,-z
-x,1/2+y,-z
-x,-y,-z
x,1/2+y,-z
-x,y,z
x,1/2-y,z
1/2+x,1/2+y,1/2+z
1/2-x,-y,1/2+z
1/2+x,1/2-y,1/2-z
1/2-x,y,1/2-z
1/2-x,1/2-y,1/2-z
1/2+x,y,1/2-z
1/2-x,1/2+y,1/2+z
1/2+x,-y,1/2+z
loop_
_atom_site_type_symbol
_atom_site_label
_atom_site_fract_x
_atom_site_fract_y
_atom_site_fract_z
Si Si1 0.055855 0.934283 0.136659
Si Si2 0.286611 0.566803 0.452123
Si Si3 0.897337 0.433068 0.047683
Si Si4 0.197347 0.072022 0.276306
Si Si5 0.244131 0.065671 0.139418
Si Si6 0.650849 0.067818 0.693178
O O1 0.058616 0.750000 0.129986
O O2 0.097502 0.974940 0.173381
O O3 0.000000 0.973117 0.150075
O O4 0.070035 0.014211 0.089717
O O5 0.269078 0.500000 0.500000
O O6 0.288722 0.750000 0.453659
O O7 0.342291 0.501924 0.445648
O O8 0.255245 0.509203 0.409640
O O9 0.894053 0.250000 0.045158
O O10 0.915803 0.500000 0.000000
O O11 0.182200 0.250000 0.277696
O O12 0.250000 0.066264 0.250000
O O13 0.211668 0.019010 0.326567
O O14 0.160100 0.978828 0.245001
O O15 0.244261 0.250000 0.136303
O O16 0.193011 0.014230 0.163322
O O17 0.657545 0.250000 0.688164
#
# Coordination Sequence:
#
# PCOD9534287 Si02
#       6
#    16  16  16  16  16  16
#     4  10  21  35  47  60  80 105 134 171 214 255
#     4  11  20  30  44  62  83 108 136 167 204 245
#     4  11  21  33  48  61  76 100 132 172 214 256
#     4   8  16  28  42  60  83 106 127 156 201 244
#     4  10  18  29  44  62  83 107 131 163 202 242
#     4  10  18  28  44  62  80 103 132 168 205 244
#
# _framework density 13.724923
#
# number of rings (size 3 to 8) (size 9 to 14) (size 15 to 20)
#    0.000    2.000    1.667    6.000    0.000    5.000 
#    0.000    0.000    0.000    0.000    0.000    0.000 
#    0.000    0.000    0.000    0.000    0.000    0.833 
#
# Total GULP energy -267680.641910 kJ/mol
# GULP energy per Si atom -5576.680040 kJ/mol
# Density = 1.369368 g / cm^3
# Si number density = 13.724923 Si / 1000 Ang^3
#
#
#
# Elastic Constant Matrix: (Units=GPa)
#
#
# Indices 1 2 3 4 5 6 
#
# 1 49.5876 29.8950 50.7298 0.0000 0.0000 0.0000
# 2 29.8950 66.6368 42.0221 0.0000 0.0000 0.0000
# 3 50.7298 42.0221 108.1473 0.0000 0.0000 0.0000
# 4 0.0000 0.0000 0.0000 24.5075 0.0000 0.0000
# 5 0.0000 0.0000 0.0000 0.0000 17.2672 0.0000
# 6 0.0000 0.0000 0.0000 0.0000 0.0000 7.5423
#
#
#
# Elastic Compliance Matrix: (Units=1/GPa)
#
#
# Indices 1 2 3 4 5 6 
#
# 1 0.042141 -0.008530 -0.016453 0.000000 0.000000 0.000000
# 2 -0.008530 0.021604 -0.004393 0.000000 0.000000 0.000000
# 3 -0.016453 -0.004393 0.018672 0.000000 0.000000 0.000000
# 4 0.000000 0.000000 0.000000 0.040804 0.000000 0.000000
# 5 0.000000 0.000000 0.000000 0.000000 0.057913 0.000000
# 6 0.000000 0.000000 0.000000 0.000000 0.000000 0.132585
#
#
# Mechanical properties :
#
#
# Convention : Reuss Voigt Hill
#
# Bulk Modulus (GPa) = 42.25865 52.18506 47.22185
# Shear Modulus (GPa) = 13.14548 16.64505 14.89527
#
# Velocity S-wave (km/s) = 3.09816 3.48625 3.29792
# Velocity P-wave (km/s) = 6.60717 7.36953 6.99874
#
# Compressibility (1/GPa) = 0.02366380
#
# Stress axis : x y z
#
# Youngs Moduli (GPa) = 23.72991 46.28785 53.55747
#
# Poissons Ratio (x) = 0.39483 0.88118
# Poissons Ratio (y) = 0.20242 0.23529
# Poissons Ratio (z) = 0.39043 0.20335
#
# Static dielectric constant tensor:
#      x y z
#    x 1.429290 0.000000 0.000000 
#    y 0.000000 1.460320 0.000000 
#    z 0.000000 0.000000 1.476680 
# 
# From -- ./inp_files/68881.got.cif
#   From: 2010.05.17/outbox.cif.g08.bks.cpg/sg74_35_cif.got.tgz:68881.got - 2010.06.03 17:57:02.
