data_PCOD9534818
_publ_section_title
;
Structure prediction by ZEFSAII (Michael W. Deem and Ramdas Pophale) SiO2 
 PCOD9534818
Probable space group: I M M A
;
_chemical_formula_sum "Si O2"
_cell_formula_units_Z 96
_cell_length_a 13.901932
_cell_length_b 15.496524
_cell_length_c 19.167224
_cell_angle_alpha 90.000000
_cell_angle_beta 90.000000
_cell_angle_gamma 90.000000
_cell_volume 4129.226173
_symmetry_space_group_name_H-M "I M M A"
_symmetry_group_IT_number 74
_symmetry_cell_setting 'orthorhombic'
loop_
_space_group_symop_operation_xyz
x,y,z
-x,1/2-y,z
x,-y,-z
-x,1/2+y,-z
-x,-y,-z
x,1/2+y,-z
-x,y,z
x,1/2-y,z
1/2+x,1/2+y,1/2+z
1/2-x,-y,1/2+z
1/2+x,1/2-y,1/2-z
1/2-x,y,1/2-z
1/2-x,1/2-y,1/2-z
1/2+x,y,1/2-z
1/2-x,1/2+y,1/2+z
1/2+x,-y,1/2+z
loop_
_atom_site_type_symbol
_atom_site_label
_atom_site_fract_x
_atom_site_fract_y
_atom_site_fract_z
Si Si1 0.616039 0.465112 0.204439
Si Si2 0.116686 0.846185 0.829228
Si Si3 0.615019 0.656052 0.207135
Si Si4 0.609809 0.585671 0.952647
Si Si5 0.763135 0.843611 0.430202
Si Si6 0.607987 0.511395 0.417388
O O1 0.500000 0.467437 0.204540
O O2 0.645065 0.388917 0.255944
O O3 0.645685 0.560340 0.232242
O O4 0.641111 0.442567 0.124783
O O5 0.155344 0.750000 0.840790
O O6 0.000000 0.839716 0.829286
O O7 0.138045 0.920003 0.885316
O O8 0.500000 0.656245 0.208470
O O9 0.645077 0.750000 0.238470
O O10 0.652995 0.655923 0.127745
O O11 0.500000 0.621660 0.949351
O O12 0.605003 0.500000 0.000000
O O13 0.686341 0.641666 0.995234
O O14 0.715463 0.750000 0.429615
O O15 0.686091 0.914663 0.407753
O O16 0.601504 0.500000 0.500000
O O17 0.500000 0.532996 0.390209
#
# Coordination Sequence:
#
# PCOD9534818 Si02
#       6
#    16  16  16  16  16  16
#     4   9  17  31  58  93 130 170 203 243 307 382
#     4   9  19  39  67  95 122 155 200 260 330 391
#     4   9  17  31  54  87 125 166 207 242 290 360
#     4  10  18  31  55  91 134 177 213 245 291 361
#     4  11  22  35  57  87 122 164 208 260 312 359
#     4  10  23  43  66  87 111 153 209 269 329 380
#
# _framework density 23.248906999999999
#
# number of rings (size 3 to 8) (size 9 to 14) (size 15 to 20)
#    0.000    2.333    1.667    1.000    0.000    2.667 
#    0.000    5.000    0.000    6.000    0.000    0.000 
#    0.000    0.000    0.000    0.000    0.000    0.000 
#
# Total GULP energy -268087.989452 kJ/mol
# GULP energy per Si atom -5585.166447 kJ/mol
# Density = 2.319599 g / cm^3
# Si number density = 23.248907 Si / 1000 Ang^3
#
#
#
# Elastic Constant Matrix: (Units=GPa)
#
#
# Indices 1 2 3 4 5 6 
#
# 1 121.1459 49.9362 16.8111 0.0000 0.0000 0.0000
# 2 49.9362 215.9792 55.5319 0.0000 0.0000 0.0000
# 3 16.8111 55.5319 95.6310 0.0000 0.0000 0.0000
# 4 0.0000 0.0000 0.0000 16.8442 0.0000 0.0000
# 5 0.0000 0.0000 0.0000 0.0000 46.5967 0.0000
# 6 0.0000 0.0000 0.0000 0.0000 0.0000 21.6207
#
#
#
# Elastic Compliance Matrix: (Units=1/GPa)
#
#
# Indices 1 2 3 4 5 6 
#
# 1 0.009140 -0.001999 -0.000446 0.000000 0.000000 0.000000
# 2 -0.001999 0.005880 -0.003063 0.000000 0.000000 0.000000
# 3 -0.000446 -0.003063 0.012314 0.000000 0.000000 0.000000
# 4 0.000000 0.000000 0.000000 0.059368 0.000000 0.000000
# 5 0.000000 0.000000 0.000000 0.000000 0.021461 0.000000
# 6 0.000000 0.000000 0.000000 0.000000 0.000000 0.046252
#
#
# Mechanical properties :
#
#
# Convention : Reuss Voigt Hill
#
# Bulk Modulus (GPa) = 61.28061 75.25716 68.26888
# Shear Modulus (GPa) = 29.26214 37.71079 33.48647
#
# Velocity S-wave (km/s) = 3.55159 4.03183 3.79931
# Velocity P-wave (km/s) = 6.57526 7.35627 6.97670
#
# Compressibility (1/GPa) = 0.01631838
#
# Stress axis : x y z
#
# Youngs Moduli (GPa) = 109.40639 170.07689 81.20889
#
# Poissons Ratio (x) = 0.33991 0.03624
# Poissons Ratio (y) = 0.21866 0.24874
# Poissons Ratio (z) = 0.04882 0.52094
#
# Static dielectric constant tensor:
#      x y z
#    x 1.916450 0.000000 0.000000 
#    y 0.000000 1.883170 0.000000 
#    z 0.000000 0.000000 1.868130 
# 
# From -- ./inp_files/51915.got.cif
#   From: 2010.05.17/outbox.cif.g08.bks.cpg/sg74_26_cif.got.tgz:51915.got - 2010.06.03 17:57:02.
