data_PCOD9534669
_publ_section_title
;
Structure prediction by ZEFSAII (Michael W. Deem and Ramdas Pophale) SiO2 
 PCOD9534669
Probable space group: I M M A
;
_chemical_formula_sum "Si O2"
_cell_formula_units_Z 72
_cell_length_a 20.850454
_cell_length_b 20.581660
_cell_length_c 9.058931
_cell_angle_alpha 90.000000
_cell_angle_beta 90.000000
_cell_angle_gamma 90.000000
_cell_volume 3887.522066
_symmetry_space_group_name_H-M "I M M A"
_symmetry_group_IT_number 74
_symmetry_cell_setting 'orthorhombic'
loop_
_space_group_symop_operation_xyz
x,y,z
-x,1/2-y,z
x,-y,-z
-x,1/2+y,-z
-x,-y,-z
x,1/2+y,-z
-x,y,z
x,1/2-y,z
1/2+x,1/2+y,1/2+z
1/2-x,-y,1/2+z
1/2+x,1/2-y,1/2-z
1/2-x,y,1/2-z
1/2-x,1/2-y,1/2-z
1/2+x,y,1/2-z
1/2-x,1/2+y,1/2+z
1/2+x,-y,1/2+z
loop_
_atom_site_type_symbol
_atom_site_label
_atom_site_fract_x
_atom_site_fract_y
_atom_site_fract_z
Si Si1 0.125397 0.942154 0.609249
Si Si2 0.071647 0.428538 0.073139
Si Si3 0.311837 0.625514 0.403385
Si Si4 0.250000 0.504380 0.250000
Si Si5 0.674729 0.324367 0.927421
O O1 0.081446 0.935591 0.752090
O O2 0.133902 0.875936 0.519262
O O3 0.104790 0.000000 0.500000
O O4 0.195582 0.962859 0.671244
O O5 0.000000 0.404708 0.039057
O O6 0.078113 0.500000 0.000000
O O7 0.127823 0.383553 0.008310
O O8 0.284956 0.553736 0.362532
O O9 0.330285 0.657467 0.246340
O O10 0.250268 0.663983 0.463889
O O11 0.657408 0.250000 0.952589
#
# Coordination Sequence:
#
# PCOD9534669 Si02
#       5
#    16  16  16   8  16
#     4  12  20  34  58  87 120 154 187 235 296 348
#     4  11  23  37  55  84 119 156 201 239 275 335
#     4  10  18  36  60  83 118 148 188 236 288 342
#     4  10  18  30  56  90 110 146 182 230 296 348
#     4  10  21  36  61  92 118 144 184 245 302 351
#
# _framework density 18.520795
#
# number of rings (size 3 to 8) (size 9 to 14) (size 15 to 20)
#    0.000    1.556    6.667    2.667    0.000    0.444 
#    0.000    7.222    0.000    7.333    0.000    0.000 
#    0.000    0.000    0.000    0.000    0.000    0.000 
#
# Total GULP energy -201071.864950 kJ/mol
# GULP energy per Si atom -5585.329582 kJ/mol
# Density = 1.847864 g / cm^3
# Si number density = 18.520795 Si / 1000 Ang^3
#
#
#
# Elastic Constant Matrix: (Units=GPa)
#
#
# Indices 1 2 3 4 5 6 
#
# 1 65.1564 11.0051 32.7977 0.0000 0.0000 0.0000
# 2 11.0051 116.1693 33.0958 0.0000 0.0000 0.0000
# 3 32.7977 33.0958 61.7071 0.0000 0.0000 0.0000
# 4 0.0000 0.0000 0.0000 12.2282 0.0000 0.0000
# 5 0.0000 0.0000 0.0000 0.0000 14.9071 0.0000
# 6 0.0000 0.0000 0.0000 0.0000 0.0000 8.6601
#
#
#
# Elastic Compliance Matrix: (Units=1/GPa)
#
#
# Indices 1 2 3 4 5 6 
#
# 1 0.021149 0.001415 -0.012000 0.000000 0.000000 0.000000
# 2 0.001415 0.010255 -0.006252 0.000000 0.000000 0.000000
# 3 -0.012000 -0.006252 0.025937 0.000000 0.000000 0.000000
# 4 0.000000 0.000000 0.000000 0.081778 0.000000 0.000000
# 5 0.000000 0.000000 0.000000 0.000000 0.067082 0.000000
# 6 0.000000 0.000000 0.000000 0.000000 0.000000 0.115472
#
#
# Mechanical properties :
#
#
# Convention : Reuss Voigt Hill
#
# Bulk Modulus (GPa) = 42.25284 44.09222 43.17253
# Shear Modulus (GPa) = 13.76512 18.23470 15.99991
#
# Velocity S-wave (km/s) = 2.72917 3.14116 2.94239
# Velocity P-wave (km/s) = 5.72664 6.08395 5.90800
#
# Compressibility (1/GPa) = 0.02366705
#
# Stress axis : x y z
#
# Youngs Moduli (GPa) = 47.28359 97.51003 38.55499
#
# Poissons Ratio (x) = -0.13799 0.46265
# Poissons Ratio (y) = -0.06691 0.24106
# Poissons Ratio (z) = 0.56739 0.60968
#
# Static dielectric constant tensor:
#      x y z
#    x 1.632380 0.000000 0.000000 
#    y 0.000000 1.625840 0.000000 
#    z 0.000000 0.000000 1.670600 
# 
# From -- ./inp_files/12165.got.cif
#   From: 2010.05.17/outbox.cif.g08.bks.cpg/sg74_7_cif.got.tgz:12165.got - 2010.06.03 17:57:02.
