data_PCOD9534251
_publ_section_title
;
Structure prediction by ZEFSAII (Michael W. Deem and Ramdas Pophale) SiO2 
 PCOD9534251
Probable space group: I M M A
;
_chemical_formula_sum "Si O2"
_cell_formula_units_Z 56
_cell_length_a 8.059457
_cell_length_b 14.487268
_cell_length_c 25.165914
_cell_angle_alpha 90.000000
_cell_angle_beta 90.000000
_cell_angle_gamma 90.000000
_cell_volume 2938.359875
_symmetry_space_group_name_H-M "I M M A"
_symmetry_group_IT_number 74
_symmetry_cell_setting 'orthorhombic'
loop_
_space_group_symop_operation_xyz
x,y,z
-x,1/2-y,z
x,-y,-z
-x,1/2+y,-z
-x,-y,-z
x,1/2+y,-z
-x,y,z
x,1/2-y,z
1/2+x,1/2+y,1/2+z
1/2-x,-y,1/2+z
1/2+x,1/2-y,1/2-z
1/2-x,y,1/2-z
1/2-x,1/2-y,1/2-z
1/2+x,y,1/2-z
1/2-x,1/2+y,1/2+z
1/2+x,-y,1/2+z
loop_
_atom_site_type_symbol
_atom_site_label
_atom_site_fract_x
_atom_site_fract_y
_atom_site_fract_z
Si Si1 0.696029 0.951403 0.311075
Si Si2 0.202750 0.028669 0.083503
Si Si3 0.702439 0.852974 0.486644
Si Si4 0.696835 0.250000 0.811767
O O1 0.500000 0.959789 0.309877
O O2 0.750000 0.962162 0.250000
O O3 0.762207 0.021369 0.355830
O O4 0.736026 0.847632 0.331629
O O5 0.000000 0.029665 0.084120
O O6 0.252720 0.113024 0.045656
O O7 0.253285 0.934446 0.053183
O O8 0.500000 0.851487 0.485244
O O9 0.761330 0.750000 0.473936
O O10 0.500000 0.250000 0.815670
O O11 0.750000 0.250000 0.750000
#
# Coordination Sequence:
#
# PCOD9534251 Si02
#       4
#    16  16  16   8
#     4  10  18  28  42  61  89 117 145 176 213 257
#     4   8  15  24  37  62  88 111 141 175 217 264
#     4   8  13  23  39  59  86 113 138 177 225 260
#     4  10  18  28  40  58  84 114 148 176 207 252
#
# _framework density 19.058250999999998
#
# number of rings (size 3 to 8) (size 9 to 14) (size 15 to 20)
#    0.000    3.143    0.000    5.571    2.000    0.000 
#    0.000    0.000    0.000    0.857    0.000   16.000 
#    0.000    0.000    0.000    0.000    0.000    1.143 
#
# Total GULP energy -155885.971014 kJ/mol
# GULP energy per Si atom -5567.356108 kJ/mol
# Density = 1.901487 g / cm^3
# Si number density = 19.058251 Si / 1000 Ang^3
#
#
#
# Elastic Constant Matrix: (Units=GPa)
#
#
# Indices 1 2 3 4 5 6 
#
# 1 17.7926 -1.9172 10.2321 0.0000 0.0000 0.0000
# 2 -1.9172 40.6293 -2.1621 0.0000 0.0000 0.0000
# 3 10.2321 -2.1621 78.9338 0.0000 0.0000 0.0000
# 4 0.0000 0.0000 0.0000 28.9818 0.0000 0.0000
# 5 0.0000 0.0000 0.0000 0.0000 7.8248 0.0000
# 6 0.0000 0.0000 0.0000 0.0000 0.0000 4.5702
#
#
#
# Elastic Compliance Matrix: (Units=1/GPa)
#
#
# Indices 1 2 3 4 5 6 
#
# 1 0.060975 0.002460 -0.007837 0.000000 0.000000 0.000000
# 2 0.002460 0.024748 0.000359 0.000000 0.000000 0.000000
# 3 -0.007837 0.000359 0.013695 0.000000 0.000000 0.000000
# 4 0.000000 0.000000 0.000000 0.034504 0.000000 0.000000
# 5 0.000000 0.000000 0.000000 0.000000 0.127799 0.000000
# 6 0.000000 0.000000 0.000000 0.000000 0.000000 0.218810
#
#
# Mechanical properties :
#
#
# Convention : Reuss Voigt Hill
#
# Bulk Modulus (GPa) = 11.18787 16.62904 13.90845
# Shear Modulus (GPa) = 9.60873 17.02221 13.31547
#
# Velocity S-wave (km/s) = 2.24782 2.99183 2.64611
# Velocity P-wave (km/s) = 3.55247 4.54742 4.08039
#
# Compressibility (1/GPa) = 0.08938252
#
# Stress axis : x y z
#
# Youngs Moduli (GPa) = 16.40012 40.40733 73.02174
#
# Poissons Ratio (x) = -0.09941 0.57226
# Poissons Ratio (y) = -0.04035 -0.02621
# Poissons Ratio (z) = 0.12852 -0.01450
#
# Static dielectric constant tensor:
#      x y z
#    x 1.680170 0.000000 0.000000 
#    y 0.000000 1.483560 0.000000 
#    z 0.000000 0.000000 1.724980 
# 
# From -- ./inp_files/59433.got.cif
#   From: 2010.05.17/outbox.cif.g08.bks.cpg/sg74_30_cif.got.tgz:59433.got - 2010.06.03 17:57:02.
