data_PCOD9534371
_publ_section_title
;
Structure prediction by ZEFSAII (Michael W. Deem and Ramdas Pophale) SiO2 
 PCOD9534371
Probable space group: I M M A
;
_chemical_formula_sum "Si O2"
_cell_formula_units_Z 112
_cell_length_a 27.739406
_cell_length_b 14.591659
_cell_length_c 15.284509
_cell_angle_alpha 90.000000
_cell_angle_beta 90.000000
_cell_angle_gamma 90.000000
_cell_volume 6186.618286
_symmetry_space_group_name_H-M "I M M A"
_symmetry_group_IT_number 74
_symmetry_cell_setting 'orthorhombic'
loop_
_space_group_symop_operation_xyz
x,y,z
-x,1/2-y,z
x,-y,-z
-x,1/2+y,-z
-x,-y,-z
x,1/2+y,-z
-x,y,z
x,1/2-y,z
1/2+x,1/2+y,1/2+z
1/2-x,-y,1/2+z
1/2+x,1/2-y,1/2-z
1/2-x,y,1/2-z
1/2-x,1/2-y,1/2-z
1/2+x,y,1/2-z
1/2-x,1/2+y,1/2+z
1/2+x,-y,1/2+z
loop_
_atom_site_type_symbol
_atom_site_label
_atom_site_fract_x
_atom_site_fract_y
_atom_site_fract_z
Si Si1 0.924148 0.644236 0.945794
Si Si2 0.184627 0.455689 0.819481
Si Si3 0.051807 0.640296 0.312686
Si Si4 0.256967 0.102454 0.964732
Si Si5 0.925972 0.550608 0.128246
Si Si6 0.813399 0.347603 0.115493
Si Si7 0.842569 0.645220 0.353080
O O1 0.939734 0.750000 0.928341
O O2 0.940295 0.555892 0.887995
O O3 0.865952 0.644143 0.930964
O O4 0.937820 0.612630 0.043910
O O5 0.223212 0.402730 0.878592
O O6 0.132104 0.444638 0.863372
O O7 0.194807 0.563950 0.824761
O O8 0.179978 0.418301 0.722112
O O9 0.052197 0.750000 0.298756
O O10 0.054961 0.591236 0.218606
O O11 0.101295 0.618660 0.363725
O O12 0.000000 0.616569 0.353966
O O13 0.308704 0.139788 0.937187
O O14 0.226693 0.150999 0.040103
O O15 0.263144 0.000000 0.000000
O O16 0.812593 0.250000 0.162722
O O17 0.841546 0.750000 0.320296
#
# Coordination Sequence:
#
# PCOD9534371 Si02
#       7
#    16  16  16  16  16  16  16
#     4   9  15  23  38  61  90 123 155 186 216 257
#     4   9  17  28  41  66  98 124 153 188 221 264
#     4   9  18  32  48  65  86 113 146 188 240 286
#     4  10  18  29  44  66  99 126 151 184 227 267
#     4   9  15  26  41  60  88 121 156 185 221 270
#     4   9  16  26  43  63  91 131 163 183 212 261
#     4  10  20  31  48  72  94 120 154 192 231 272
#
# _framework density 18.103590000000001
#
# number of rings (size 3 to 8) (size 9 to 14) (size 15 to 20)
#    0.000    2.714    1.429    1.286    0.000    2.286 
#    0.000    1.429    0.000    9.429    0.000    0.000 
#    0.000    0.000    0.000    0.000    0.000    0.000 
#
# Total GULP energy -311889.757615 kJ/mol
# GULP energy per Si atom -5569.459957 kJ/mol
# Density = 1.806239 g / cm^3
# Si number density = 18.103590 Si / 1000 Ang^3
#
#
#
# Elastic Constant Matrix: (Units=GPa)
#
#
# Indices 1 2 3 4 5 6 
#
# 1 114.2109 16.7962 22.3333 0.0000 0.0000 0.0000
# 2 16.7962 72.4182 5.7430 0.0000 0.0000 0.0000
# 3 22.3333 5.7430 13.5796 0.0000 0.0000 0.0000
# 4 0.0000 0.0000 0.0000 -5.0832 0.0000 0.0000
# 5 0.0000 0.0000 0.0000 0.0000 -2.6546 0.0000
# 6 0.0000 0.0000 0.0000 0.0000 0.0000 11.7601
#
#
#
# Elastic Compliance Matrix: (Units=1/GPa)
#
#
# Indices 1 2 3 4 5 6 
#
# 1 0.013036 -0.001369 -0.020861 0.000000 0.000000 0.000000
# 2 -0.001369 0.014432 -0.003852 0.000000 0.000000 0.000000
# 3 -0.020861 -0.003852 0.109576 0.000000 0.000000 0.000000
# 4 0.000000 0.000000 0.000000 -0.196725 0.000000 0.000000
# 5 0.000000 0.000000 0.000000 0.000000 -0.376701 0.000000
# 6 0.000000 0.000000 0.000000 0.000000 0.000000 0.085034
#
#
# Mechanical properties :
#
#
# Convention : Reuss Voigt Hill
#
# Bulk Modulus (GPa) = 11.78114 32.21709 21.99912
# Shear Modulus (GPa) = -18.45761 11.16019 -3.64871
#
# Velocity S-wave (km/s) = -3.19651 2.48556 -1.42121
# Velocity P-wave (km/s) = 2.66493 5.10607 3.07978
#
# Compressibility (1/GPa) = 0.08488144
#
# Stress axis : x y z
#
# Youngs Moduli (GPa) = 76.70905 69.29194 9.12606
#
# Poissons Ratio (x) = 0.09488 0.19038
# Poissons Ratio (y) = 0.10503 0.03515
# Poissons Ratio (z) = 1.60020 0.26688
#
# Static dielectric constant tensor:
#      x y z
#    x 1.678310 0.000000 0.000000 
#    y 0.000000 1.652190 0.000000 
#    z 0.000000 0.000000 1.579290 
# 
# From -- ./inp_files/37405.got.cif
#   From: 2010.05.17/outbox.cif.g08.bks.cpg/sg74_19_cif.got.tgz:37405.got - 2010.06.03 17:57:02.
