data_PCOD9534232
_publ_section_title
;
Structure prediction by ZEFSAII (Michael W. Deem and Ramdas Pophale) SiO2 
 PCOD9534232
Probable space group: I M M A
;
_chemical_formula_sum "Si O2"
_cell_formula_units_Z 96
_cell_length_a 14.197070
_cell_length_b 20.642347
_cell_length_c 23.093303
_cell_angle_alpha 90.000000
_cell_angle_beta 90.000000
_cell_angle_gamma 90.000000
_cell_volume 6767.742898
_symmetry_space_group_name_H-M "I M M A"
_symmetry_group_IT_number 74
_symmetry_cell_setting 'orthorhombic'
loop_
_space_group_symop_operation_xyz
x,y,z
-x,1/2-y,z
x,-y,-z
-x,1/2+y,-z
-x,-y,-z
x,1/2+y,-z
-x,y,z
x,1/2-y,z
1/2+x,1/2+y,1/2+z
1/2-x,-y,1/2+z
1/2+x,1/2-y,1/2-z
1/2-x,y,1/2-z
1/2-x,1/2-y,1/2-z
1/2+x,y,1/2-z
1/2-x,1/2+y,1/2+z
1/2+x,-y,1/2+z
loop_
_atom_site_type_symbol
_atom_site_label
_atom_site_fract_x
_atom_site_fract_y
_atom_site_fract_z
Si Si1 0.610412 0.176705 0.960817
Si Si2 0.105688 0.510752 0.777861
Si Si3 0.207646 0.512690 0.658941
Si Si4 0.610968 0.060024 0.044037
Si Si5 0.292523 0.644393 0.158304
Si Si6 0.605990 0.353334 0.722804
O O1 0.500000 0.163501 0.946399
O O2 0.617281 0.250000 0.982727
O O3 0.669869 0.170294 0.902169
O O4 0.638445 0.124249 0.008753
O O5 0.141576 0.529190 0.713842
O O6 0.186067 0.530939 0.823049
O O7 0.104904 0.432058 0.778438
O O8 0.000000 0.533504 0.789423
O O9 0.170539 0.545285 0.601010
O O10 0.204773 0.434202 0.653660
O O11 0.500000 0.064553 0.059474
O O12 0.621109 0.000000 0.000000
O O13 0.358751 0.663827 0.212565
O O14 0.187506 0.665364 0.177518
O O15 0.500000 0.330444 0.711612
#
# Coordination Sequence:
#
# PCOD9534232 Si02
#       6
#    16  16  16  16  16  16
#     4  10  20  31  42  59  84 112 139 170 211 253
#     4   8  14  23  38  62  91 113 131 166 214 251
#     4   9  15  24  41  65  87 109 138 171 205 247
#     4  10  18  27  43  64  84 108 140 176 207 241
#     4   9  15  25  41  59  82 112 142 171 206 244
#     4   8  14  23  38  60  84 110 140 175 207 237
#
# _framework density 14.184937
#
# number of rings (size 3 to 8) (size 9 to 14) (size 15 to 20)
#    0.000    3.000    1.667    3.000    0.000    1.333 
#    0.000    1.667    0.000    3.000    0.000    2.333 
#    0.000    1.333    0.000    0.000    0.000    0.000 
#
# Total GULP energy -267331.828241 kJ/mol
# GULP energy per Si atom -5569.413088 kJ/mol
# Density = 1.415265 g / cm^3
# Si number density = 14.184937 Si / 1000 Ang^3
#
#
#
# Elastic Constant Matrix: (Units=GPa)
#
#
# Indices 1 2 3 4 5 6 
#
# 1 106.3849 28.1441 57.0526 0.0000 0.0000 0.0000
# 2 28.1441 50.3195 39.0461 0.0000 0.0000 0.0000
# 3 57.0526 39.0461 94.1576 0.0000 0.0000 0.0000
# 4 0.0000 0.0000 0.0000 5.8202 0.0000 0.0000
# 5 0.0000 0.0000 0.0000 0.0000 18.3401 0.0000
# 6 0.0000 0.0000 0.0000 0.0000 0.0000 6.2488
#
#
#
# Elastic Compliance Matrix: (Units=1/GPa)
#
#
# Indices 1 2 3 4 5 6 
#
# 1 0.014040 -0.001845 -0.007742 0.000000 0.000000 0.000000
# 2 -0.001845 0.029544 -0.011134 0.000000 0.000000 0.000000
# 3 -0.007742 -0.011134 0.019929 0.000000 0.000000 0.000000
# 4 0.000000 0.000000 0.000000 0.171815 0.000000 0.000000
# 5 0.000000 0.000000 0.000000 0.000000 0.054525 0.000000
# 6 0.000000 0.000000 0.000000 0.000000 0.000000 0.160032
#
#
# Mechanical properties :
#
#
# Convention : Reuss Voigt Hill
#
# Bulk Modulus (GPa) = 45.30794 55.48307 50.39551
# Shear Modulus (GPa) = 10.02639 14.52308 12.27474
#
# Velocity S-wave (km/s) = 2.66152 3.20322 2.94485
# Velocity P-wave (km/s) = 6.43857 7.27185 6.86786
#
# Compressibility (1/GPa) = 0.02207119
#
# Stress axis : x y z
#
# Youngs Moduli (GPa) = 71.22571 33.84747 50.17920
#
# Poissons Ratio (x) = 0.06245 0.38849
# Poissons Ratio (y) = 0.13142 0.55868
# Poissons Ratio (z) = 0.55143 0.37685
#
# Static dielectric constant tensor:
#      x y z
#    x 1.484100 0.000000 0.000000 
#    y 0.000000 1.471080 0.000000 
#    z 0.000000 0.000000 1.436370 
# 
# From -- ./inp_files/52228.got.cif
#   From: 2010.05.17/outbox.cif.g08.bks.cpg/sg74_27_cif.got.tgz:52228.got - 2010.06.03 17:57:02.
