data_PCOD9534039
_publ_section_title
;
Structure prediction by ZEFSAII (Michael W. Deem and Ramdas Pophale) SiO2 
 PCOD9534039
Probable space group: I M M A
;
_chemical_formula_sum "Si O2"
_cell_formula_units_Z 80
_cell_length_a 14.350588
_cell_length_b 17.972731
_cell_length_c 19.093739
_cell_angle_alpha 90.000000
_cell_angle_beta 90.000000
_cell_angle_gamma 90.000000
_cell_volume 4924.642992
_symmetry_space_group_name_H-M "I M M A"
_symmetry_group_IT_number 74
_symmetry_cell_setting 'orthorhombic'
loop_
_space_group_symop_operation_xyz
x,y,z
-x,1/2-y,z
x,-y,-z
-x,1/2+y,-z
-x,-y,-z
x,1/2+y,-z
-x,y,z
x,1/2-y,z
1/2+x,1/2+y,1/2+z
1/2-x,-y,1/2+z
1/2+x,1/2-y,1/2-z
1/2-x,y,1/2-z
1/2-x,1/2-y,1/2-z
1/2+x,y,1/2-z
1/2-x,1/2+y,1/2+z
1/2+x,-y,1/2+z
loop_
_atom_site_type_symbol
_atom_site_label
_atom_site_fract_x
_atom_site_fract_y
_atom_site_fract_z
Si Si1 0.605840 0.494730 0.714164
Si Si2 0.105992 0.393846 0.586951
Si Si3 0.608633 0.664211 0.933193
Si Si4 0.208647 0.469061 0.360629
Si Si5 0.360993 0.167516 0.759833
O O1 0.500000 0.521202 0.704590
O O2 0.682996 0.522522 0.659153
O O3 0.648433 0.518738 0.789415
O O4 0.604158 0.404493 0.717869
O O5 0.118907 0.347050 0.516738
O O6 0.176353 0.462679 0.590636
O O7 0.117192 0.347111 0.658342
O O8 0.000000 0.423796 0.586370
O O9 0.500000 0.645995 0.916513
O O10 0.625002 0.750000 0.914924
O O11 0.677081 0.607845 0.894469
O O12 0.393616 0.250000 0.739500
O O13 0.250000 0.165823 0.750000
#
# Coordination Sequence:
#
# PCOD9534039 Si02
#       5
#    16  16  16  16  16
#     4  10  19  32  50  72  97 130 172 206 236 286
#     4  10  18  30  49  74 101 129 159 192 238 300
#     4  10  20  32  50  76 101 125 157 202 253 298
#     4  10  18  33  50  73  99 130 161 199 247 290
#     4  10  17  28  46  72 104 133 158 190 238 291
#
# _framework density 16.244833
#
# number of rings (size 3 to 8) (size 9 to 14) (size 15 to 20)
#    0.000    2.000    4.000    4.800    0.000    4.000 
#    0.000    2.000    0.000    4.200    0.000    0.000 
#    0.000    0.000    0.000    0.000    0.000    0.000 
#
# Total GULP energy -222995.006065 kJ/mol
# GULP energy per Si atom -5574.875152 kJ/mol
# Density = 1.620786 g / cm^3
# Si number density = 16.244833 Si / 1000 Ang^3
#
#
#
# Elastic Constant Matrix: (Units=GPa)
#
#
# Indices 1 2 3 4 5 6 
#
# 1 131.9564 40.4371 29.8474 0.0000 0.0000 0.0000
# 2 40.4371 82.8464 29.6920 0.0000 0.0000 0.0000
# 3 29.8474 29.6920 36.0115 0.0000 0.0000 0.0000
# 4 0.0000 0.0000 0.0000 13.0043 0.0000 0.0000
# 5 0.0000 0.0000 0.0000 0.0000 24.5551 0.0000
# 6 0.0000 0.0000 0.0000 0.0000 0.0000 -157.1322
#
#
#
# Elastic Compliance Matrix: (Units=1/GPa)
#
#
# Indices 1 2 3 4 5 6 
#
# 1 0.009716 -0.002635 -0.005880 0.000000 0.000000 0.000000
# 2 -0.002635 0.017848 -0.012532 0.000000 0.000000 0.000000
# 3 -0.005880 -0.012532 0.042976 0.000000 0.000000 0.000000
# 4 0.000000 0.000000 0.000000 0.076897 0.000000 0.000000
# 5 0.000000 0.000000 0.000000 0.000000 0.040725 0.000000
# 6 0.000000 0.000000 0.000000 0.000000 0.000000 -0.006364
#
#
# Mechanical properties :
#
#
# Convention : Reuss Voigt Hill
#
# Bulk Modulus (GPa) = 35.15565 50.08524 42.62044
# Shear Modulus (GPa) = 21.42485 -13.85869 3.78308
#
# Velocity S-wave (km/s) = 3.63557 -2.92398 1.52769
# Velocity P-wave (km/s) = 6.26987 4.41575 5.42264
#
# Compressibility (1/GPa) = 0.02844493
#
# Stress axis : x y z
#
# Youngs Moduli (GPa) = 102.92589 56.02847 23.26895
#
# Poissons Ratio (x) = 0.14762 0.13683
# Poissons Ratio (y) = 0.27118 0.29161
# Poissons Ratio (z) = 0.60524 0.70216
#
# Static dielectric constant tensor:
#      x y z
#    x 1.559230 0.000000 0.000000 
#    y 0.000000 1.557920 0.000000 
#    z 0.000000 0.000000 1.545330 
# 
# From -- ./inp_files/42663.got.cif
#   From: 2010.05.17/outbox.cif.g08.bks.cpg/sg74_22_cif.got.tgz:42663.got - 2010.06.03 17:57:02.
