data_PCOD9534219
_publ_section_title
;
Structure prediction by ZEFSAII (Michael W. Deem and Ramdas Pophale) SiO2 
 PCOD9534219
Probable space group: I M M A
;
_chemical_formula_sum "Si O2"
_cell_formula_units_Z 96
_cell_length_a 14.074573
_cell_length_b 20.225344
_cell_length_c 13.784076
_cell_angle_alpha 90.000000
_cell_angle_beta 90.000000
_cell_angle_gamma 90.000000
_cell_volume 3923.817537
_symmetry_space_group_name_H-M "I M M A"
_symmetry_group_IT_number 74
_symmetry_cell_setting 'orthorhombic'
loop_
_space_group_symop_operation_xyz
x,y,z
-x,1/2-y,z
x,-y,-z
-x,1/2+y,-z
-x,-y,-z
x,1/2+y,-z
-x,y,z
x,1/2-y,z
1/2+x,1/2+y,1/2+z
1/2-x,-y,1/2+z
1/2+x,1/2-y,1/2-z
1/2-x,y,1/2-z
1/2-x,1/2-y,1/2-z
1/2+x,y,1/2-z
1/2-x,1/2+y,1/2+z
1/2+x,-y,1/2+z
loop_
_atom_site_type_symbol
_atom_site_label
_atom_site_fract_x
_atom_site_fract_y
_atom_site_fract_z
Si Si1 0.100174 0.171266 0.878004
Si Si2 0.390613 0.929335 0.749246
Si Si3 0.894243 0.178915 0.415558
Si Si4 0.809588 0.173116 0.616388
Si Si5 0.610779 0.824002 0.608165
Si Si6 0.612525 0.030981 0.895212
O O1 0.095739 0.250000 0.862451
O O2 0.103772 0.162534 0.993978
O O3 0.000000 0.142372 0.841115
O O4 0.205281 0.153788 0.845036
O O5 0.500000 0.946033 0.719222
O O6 0.392540 0.877927 0.838343
O O7 0.344436 0.886263 0.663591
O O8 0.347577 0.992572 0.801743
O O9 0.888434 0.250000 0.365384
O O10 0.815196 0.176827 0.498253
O O11 0.000000 0.176093 0.463475
O O12 0.833209 0.250000 0.646233
O O13 0.873634 0.108429 0.627109
O O14 0.500000 0.820983 0.642588
O O15 0.650457 0.750000 0.624088
O O16 0.500000 0.017470 0.898084
O O17 0.648132 0.000000 0.000000
#
# Coordination Sequence:
#
# PCOD9534219 Si02
#       6
#    16  16  16  16  16  16
#     4   8  15  28  44  61  83 112 147 185 219 249
#     4   9  15  23  37  56  79 111 145 175 213 256
#     4   9  15  22  34  54  78 104 138 173 202 244
#     4  10  18  27  41  60  83 114 146 175 212 256
#     4   8  13  23  40  61  85 114 147 181 214 250
#     4  10  18  28  40  57  82 114 148 179 213 256
#
# _framework density 24.465971
#
# number of rings (size 3 to 8) (size 9 to 14) (size 15 to 20)
#    0.000    3.000    1.667    2.000    0.000    3.000 
#    0.000    0.833    0.000    4.500    0.000    0.000 
#    0.000    2.667    0.000    7.000    0.000   23.500 
#
# Total GULP energy -267406.237850 kJ/mol
# GULP energy per Si atom -5570.963289 kJ/mol
# Density = 2.441028 g / cm^3
# Si number density = 24.465971 Si / 1000 Ang^3
#
#
#
# Elastic Constant Matrix: (Units=GPa)
#
#
# Indices 1 2 3 4 5 6 
#
# 1 93.8785 -3.6050 25.7078 0.0000 0.0000 0.0000
# 2 -3.6050 94.7412 25.8426 -0.0002 0.0000 0.0000
# 3 25.7078 25.8426 82.6142 -0.0002 0.0000 0.0000
# 4 0.0000 -0.0002 -0.0002 -13.9688 0.0000 0.0000
# 5 0.0000 0.0000 0.0000 0.0000 20.2627 0.0000
# 6 0.0000 0.0000 0.0000 0.0000 0.0000 12.6132
#
#
#
# Elastic Compliance Matrix: (Units=1/GPa)
#
#
# Indices 1 2 3 4 5 6 
#
# 1 0.011860 0.001594 -0.004189 0.000000 0.000000 0.000000
# 2 0.001594 0.011754 -0.004173 0.000000 0.000000 0.000000
# 3 -0.004189 -0.004173 0.014713 0.000000 0.000000 0.000000
# 4 0.000000 0.000000 0.000000 -0.071588 0.000000 0.000000
# 5 0.000000 0.000000 0.000000 0.000000 0.049352 0.000000
# 6 0.000000 0.000000 0.000000 0.000000 0.000000 0.079282
#
#
# Mechanical properties :
#
#
# Convention : Reuss Voigt Hill
#
# Bulk Modulus (GPa) = 40.33625 40.79163 40.56394
# Shear Modulus (GPa) = 42.67178 18.66733 30.66955
#
# Velocity S-wave (km/s) = 4.18081 2.76523 3.54441
# Velocity P-wave (km/s) = 6.31094 5.18694 5.77634
#
# Compressibility (1/GPa) = 0.02479160
#
# Stress axis : x y z
#
# Youngs Moduli (GPa) = 84.31349 85.07788 67.96533
#
# Poissons Ratio (x) = -0.13562 0.28473
# Poissons Ratio (y) = -0.13440 0.28360
# Poissons Ratio (z) = 0.35322 0.35501
#
# Static dielectric constant tensor:
#      x y z
#    x 1.983100 0.000000 0.000000 
#    y 0.000000 1.948160 0.000000 
#    z 0.000000 0.000000 1.990600 
# 
# From -- ./inp_files/52262.got.cif
#   From: 2010.05.17/outbox.cif.g08.bks.cpg/sg74_27_cif.got.tgz:52262.got - 2010.06.03 17:57:02.
