data_PCOD9534951
_publ_section_title
;
Structure prediction by ZEFSAII (Michael W. Deem and Ramdas Pophale) SiO2 
 PCOD9534951
Probable space group: I M M A
;
_chemical_formula_sum "Si O2"
_cell_formula_units_Z 88
_cell_length_a 13.685676
_cell_length_b 15.309471
_cell_length_c 23.038714
_cell_angle_alpha 90.000000
_cell_angle_beta 90.000000
_cell_angle_gamma 90.000000
_cell_volume 4827.081951
_symmetry_space_group_name_H-M "I M M A"
_symmetry_group_IT_number 74
_symmetry_cell_setting 'orthorhombic'
loop_
_space_group_symop_operation_xyz
x,y,z
-x,1/2-y,z
x,-y,-z
-x,1/2+y,-z
-x,-y,-z
x,1/2+y,-z
-x,y,z
x,1/2-y,z
1/2+x,1/2+y,1/2+z
1/2-x,-y,1/2+z
1/2+x,1/2-y,1/2-z
1/2-x,y,1/2-z
1/2-x,1/2-y,1/2-z
1/2+x,y,1/2-z
1/2-x,1/2+y,1/2+z
1/2+x,-y,1/2+z
loop_
_atom_site_type_symbol
_atom_site_label
_atom_site_fract_x
_atom_site_fract_y
_atom_site_fract_z
Si Si1 0.383961 0.250000 0.530632
Si Si2 0.615540 0.351576 0.838062
Si Si3 0.385124 0.060923 0.551037
Si Si4 0.750000 0.039222 0.750000
Si Si5 0.115086 0.750000 0.890895
Si Si6 0.613404 0.499574 0.069857
Si Si7 0.202865 0.934712 0.861338
O O1 0.500000 0.250000 0.545328
O O2 0.342600 0.158232 0.553279
O O3 0.374720 0.250000 0.461026
O O4 0.500000 0.354722 0.823729
O O5 0.644105 0.250000 0.843878
O O6 0.676676 0.399829 0.787440
O O7 0.626724 0.406437 0.898026
O O8 0.500000 0.071659 0.538955
O O9 0.344245 0.000000 0.500000
O O10 0.367996 0.003339 0.606758
O O11 0.793000 0.973226 0.797387
O O12 0.163006 0.837630 0.866773
O O13 0.000000 0.750000 0.878492
O O14 0.500000 0.473116 0.080253
O O15 0.693610 0.441978 0.104062
O O16 0.626630 0.500000 0.000000
#
# Coordination Sequence:
#
# PCOD9534951 Si02
#       7
#     8  16  16   8   8  16  16
#     4   9  18  32  51  83 121 149 172 215 269 347
#     4   9  18  36  60  84 113 150 188 234 289 338
#     4  10  18  32  55  84 119 148 179 221 281 353
#     4  10  23  39  56  78 114 148 198 246 274 336
#     4  11  22  37  60  88 117 146 187 231 288 365
#     4   9  19  37  57  81 113 148 191 242 290 336
#     4  11  22  38  57  82 111 156 192 237 292 336
#
# _framework density 18.230474999999998
#
# number of rings (size 3 to 8) (size 9 to 14) (size 15 to 20)
#    0.000    2.182    1.818    1.364    0.000    1.818 
#    9.818    0.455    0.000    0.000    0.000    0.000 
#    0.000    0.000    0.000    0.000    0.000    0.000 
#
# Total GULP energy -245166.823830 kJ/mol
# GULP energy per Si atom -5571.973269 kJ/mol
# Density = 1.818898 g / cm^3
# Si number density = 18.230475 Si / 1000 Ang^3
#
#
#
# Elastic Constant Matrix: (Units=GPa)
#
#
# Indices 1 2 3 4 5 6 
#
# 1 76.9490 52.9270 10.2618 0.0000 0.0000 0.0000
# 2 52.9270 207.9965 67.8465 0.0000 0.0000 0.0000
# 3 10.2618 67.8465 94.4405 0.0000 0.0000 0.0000
# 4 0.0000 0.0000 0.0000 72.2496 0.0000 0.0000
# 5 0.0000 0.0000 0.0000 0.0000 10.7945 0.0000
# 6 0.0000 0.0000 0.0000 0.0000 0.0000 30.2517
#
#
#
# Elastic Compliance Matrix: (Units=1/GPa)
#
#
# Indices 1 2 3 4 5 6 
#
# 1 0.015923 -0.004555 0.001542 0.000000 0.000000 0.000000
# 2 -0.004555 0.007582 -0.004952 0.000000 0.000000 0.000000
# 3 0.001542 -0.004952 0.013979 0.000000 0.000000 0.000000
# 4 0.000000 0.000000 0.000000 0.013841 0.000000 0.000000
# 5 0.000000 0.000000 0.000000 0.000000 0.092640 0.000000
# 6 0.000000 0.000000 0.000000 0.000000 0.000000 0.033056
#
#
# Mechanical properties :
#
#
# Convention : Reuss Voigt Hill
#
# Bulk Modulus (GPa) = 46.39520 71.27295 58.83407
# Shear Modulus (GPa) = 24.98313 39.21585 32.09949
#
# Velocity S-wave (km/s) = 3.70591 4.64304 4.20069
# Velocity P-wave (km/s) = 6.61938 8.24161 7.47464
#
# Compressibility (1/GPa) = 0.02155396
#
# Stress axis : x y z
#
# Youngs Moduli (GPa) = 62.80302 131.88954 71.53714
#
# Poissons Ratio (x) = 0.60072 -0.11031
# Poissons Ratio (y) = 0.28605 0.35426
# Poissons Ratio (z) = -0.09684 0.65313
#
# Static dielectric constant tensor:
#      x y z
#    x 1.668660 0.000000 0.000000 
#    y 0.000000 1.623520 0.000000 
#    z 0.000000 0.000000 1.567260 
# 
# From -- ./inp_files/51783.got.cif
#   From: 2010.05.17/outbox.cif.g08.bks.cpg/sg74_26_cif.got.tgz:51783.got - 2010.06.03 17:57:02.
