data_PCOD9534908
_publ_section_title
;
Structure prediction by ZEFSAII (Michael W. Deem and Ramdas Pophale) SiO2 
 PCOD9534908
Probable space group: I M M A
;
_chemical_formula_sum "Si O2"
_cell_formula_units_Z 104
_cell_length_a 8.585562
_cell_length_b 32.050236
_cell_length_c 19.729616
_cell_angle_alpha 90.000000
_cell_angle_beta 90.000000
_cell_angle_gamma 90.000000
_cell_volume 5428.984393
_symmetry_space_group_name_H-M "I M M A"
_symmetry_group_IT_number 74
_symmetry_cell_setting 'orthorhombic'
loop_
_space_group_symop_operation_xyz
x,y,z
-x,1/2-y,z
x,-y,-z
-x,1/2+y,-z
-x,-y,-z
x,1/2+y,-z
-x,y,z
x,1/2-y,z
1/2+x,1/2+y,1/2+z
1/2-x,-y,1/2+z
1/2+x,1/2-y,1/2-z
1/2-x,y,1/2-z
1/2-x,1/2-y,1/2-z
1/2+x,y,1/2-z
1/2-x,1/2+y,1/2+z
1/2+x,-y,1/2+z
loop_
_atom_site_type_symbol
_atom_site_label
_atom_site_fract_x
_atom_site_fract_y
_atom_site_fract_z
Si Si1 0.314079 0.250000 0.326937
Si Si2 0.186602 0.831334 0.177987
Si Si3 0.311963 0.958050 0.460658
Si Si4 0.815104 0.662086 0.674121
Si Si5 0.685399 0.574539 0.177366
Si Si6 0.311690 0.377040 0.451897
Si Si7 0.810414 0.704237 0.034981
O O1 0.500000 0.250000 0.328602
O O2 0.250000 0.250000 0.250000
O O3 0.253216 0.206038 0.354220
O O4 0.250000 0.816061 0.250000
O O5 0.248454 0.878474 0.167615
O O6 0.231394 0.803785 0.113391
O O7 0.000000 0.833306 0.180823
O O8 0.500000 0.957785 0.453540
O O9 0.239901 0.952599 0.386405
O O10 0.268153 0.917996 0.506114
O O11 0.266677 0.000000 0.500000
O O12 0.750000 0.656134 0.750000
O O13 0.760052 0.626630 0.622575
O O14 0.000000 0.665278 0.677549
O O15 0.500000 0.576645 0.180496
O O16 0.750000 0.559621 0.250000
O O17 0.500000 0.376097 0.446658
O O18 0.258335 0.335976 0.493055
O O19 0.756442 0.750000 0.012231
O O20 0.000000 0.704325 0.031060
#
# Coordination Sequence:
#
# PCOD9534908 Si02
#       7
#     8  16  16  16  16  16  16
#     4  10  18  32  54  80 110 148 191 236 283 336
#     4  10  18  32  53  79 112 152 197 239 284 332
#     4  10  21  40  65  91 118 150 190 236 292 352
#     4  11  22  37  56  82 114 150 193 239 287 343
#     4  11  21  35  59  87 118 153 195 239 287 340
#     4  10  20  37  59  83 113 150 189 233 288 347
#     4   9  18  32  52  79 112 152 193 230 278 340
#
# _framework density 19.156437
#
# number of rings (size 3 to 8) (size 9 to 14) (size 15 to 20)
#    0.000    1.846    1.538    5.769    1.077    1.231 
#    0.000    0.769    0.000    3.231    0.000    0.000 
#    0.000    0.000    0.000    0.000    0.000    0.000 
#
# Total GULP energy -290420.739843 kJ/mol
# GULP energy per Si atom -5585.014228 kJ/mol
# Density = 1.911284 g / cm^3
# Si number density = 19.156437 Si / 1000 Ang^3
#
#
#
# Elastic Constant Matrix: (Units=GPa)
#
#
# Indices 1 2 3 4 5 6 
#
# 1 80.3977 31.9916 40.6170 0.0000 0.0000 0.0000
# 2 31.9916 109.6331 71.2859 0.0000 0.0000 0.0000
# 3 40.6170 71.2859 133.5361 0.0000 0.0000 0.0000
# 4 0.0000 0.0000 0.0000 38.3790 0.0000 0.0000
# 5 0.0000 0.0000 0.0000 0.0000 29.9119 0.0000
# 6 0.0000 0.0000 0.0000 0.0000 0.0000 10.7219
#
#
#
# Elastic Compliance Matrix: (Units=1/GPa)
#
#
# Indices 1 2 3 4 5 6 
#
# 1 0.015024 -0.002164 -0.003415 0.000000 0.000000 0.000000
# 2 -0.002164 0.014282 -0.006966 0.000000 0.000000 0.000000
# 3 -0.003415 -0.006966 0.012246 0.000000 0.000000 0.000000
# 4 0.000000 0.000000 0.000000 0.026056 0.000000 0.000000
# 5 0.000000 0.000000 0.000000 0.000000 0.033431 0.000000
# 6 0.000000 0.000000 0.000000 0.000000 0.000000 0.093267
#
#
# Mechanical properties :
#
#
# Convention : Reuss Voigt Hill
#
# Bulk Modulus (GPa) = 60.74182 67.92842 64.33512
# Shear Modulus (GPa) = 22.23365 27.78074 25.00720
#
# Velocity S-wave (km/s) = 3.41051 3.81229 3.61698
# Velocity P-wave (km/s) = 6.87647 7.41046 7.14845
#
# Compressibility (1/GPa) = 0.01646312
#
# Stress axis : x y z
#
# Youngs Moduli (GPa) = 66.55871 70.01655 81.65899
#
# Poissons Ratio (x) = 0.15150 0.27884
# Poissons Ratio (y) = 0.14402 0.56885
# Poissons Ratio (z) = 0.22728 0.48775
#
# Static dielectric constant tensor:
#      x y z
#    x 1.638070 0.000000 0.000000 
#    y 0.000000 1.666660 0.000000 
#    z 0.000000 0.000000 1.676900 
# 
# From -- ./inp_files/49587.got.cif
#   From: 2010.05.17/outbox.cif.g08.bks.cpg/sg74_25_cif.got.tgz:49587.got - 2010.06.03 17:57:02.
