data_PCOD9534022
_publ_section_title
;
Structure prediction by ZEFSAII (Michael W. Deem and Ramdas Pophale) SiO2 
 PCOD9534022
Probable space group: I M M A
;
_chemical_formula_sum "Si O2"
_cell_formula_units_Z 120
_cell_length_a 15.307909
_cell_length_b 14.192505
_cell_length_c 31.804119
_cell_angle_alpha 90.000000
_cell_angle_beta 90.000000
_cell_angle_gamma 90.000000
_cell_volume 6909.685770
_symmetry_space_group_name_H-M "I M M A"
_symmetry_group_IT_number 74
_symmetry_cell_setting 'orthorhombic'
loop_
_space_group_symop_operation_xyz
x,y,z
-x,1/2-y,z
x,-y,-z
-x,1/2+y,-z
-x,-y,-z
x,1/2+y,-z
-x,y,z
x,1/2-y,z
1/2+x,1/2+y,1/2+z
1/2-x,-y,1/2+z
1/2+x,1/2-y,1/2-z
1/2-x,y,1/2-z
1/2-x,1/2-y,1/2-z
1/2+x,y,1/2-z
1/2-x,1/2+y,1/2+z
1/2+x,-y,1/2+z
loop_
_atom_site_type_symbol
_atom_site_label
_atom_site_fract_x
_atom_site_fract_y
_atom_site_fract_z
Si Si1 0.792580 0.641866 0.795089
Si Si2 0.905084 0.959719 0.407385
Si Si3 0.674312 0.145698 0.123107
Si Si4 0.097803 0.502695 0.847958
Si Si5 0.802866 0.637730 0.008655
Si Si6 0.360618 0.359272 0.421691
Si Si7 0.146738 0.500000 0.500000
Si Si8 0.718785 0.862249 0.396089
O O1 0.827354 0.750000 0.795299
O O2 0.750000 0.623125 0.750000
O O3 0.717947 0.639252 0.830952
O O4 0.863216 0.565704 0.810190
O O5 0.903420 0.984129 0.456956
O O6 0.819727 0.896480 0.397677
O O7 0.000000 0.919033 0.396440
O O8 0.888986 0.059251 0.384608
O O9 0.636177 0.250000 0.117378
O O10 0.757851 0.136767 0.091747
O O11 0.095759 0.572948 0.888171
O O12 0.164436 0.420480 0.861781
O O13 0.000000 0.468587 0.839385
O O14 0.793938 0.750000 0.006626
O O15 0.711979 0.588528 0.997378
O O16 0.820601 0.613878 0.057343
O O17 0.867656 0.611836 0.970551
O O18 0.387698 0.250000 0.416893
O O19 0.714028 0.750000 0.390244
#
# Coordination Sequence:
#
# PCOD9534022 Si02
#       8
#    16  16  16  16  16  16   8  16
#     4   9  18  35  60  86 116 144 164 197 254 324
#     4  11  20  31  49  74 104 141 185 228 274 325
#     4   9  16  30  50  75 107 140 170 205 258 323
#     4  11  21  35  57  84 108 140 183 222 266 317
#     4   9  16  28  49  69  97 145 188 224 273 321
#     4   9  15  28  50  74 106 143 179 218 265 321
#     4  10  17  28  42  68 103 134 179 234 276 314
#     4  10  21  37  53  72 103 144 190 238 278 310
#
# _framework density 17.366924999999998
#
# number of rings (size 3 to 8) (size 9 to 14) (size 15 to 20)
#    0.000    2.267    4.000    2.200    0.000    1.867 
#    0.000    2.000    0.000    7.600    0.000    0.000 
#    0.000    0.000    0.000    0.000    0.000    0.000 
#
# Total GULP energy -334272.194672 kJ/mol
# GULP energy per Si atom -5571.203245 kJ/mol
# Density = 1.732740 g / cm^3
# Si number density = 17.366925 Si / 1000 Ang^3
#
#
#
# Elastic Constant Matrix: (Units=GPa)
#
#
# Indices 1 2 3 4 5 6 
#
# 1 74.9702 33.3084 28.1682 0.0000 0.0000 0.0000
# 2 33.3084 72.1959 28.2854 0.0000 0.0000 0.0000
# 3 28.1682 28.2854 80.2291 0.0000 0.0000 0.0000
# 4 0.0000 0.0000 0.0000 21.9093 0.0000 0.0000
# 5 0.0000 0.0000 0.0000 0.0000 5.3985 0.0000
# 6 0.0000 0.0000 0.0000 0.0000 0.0000 5.1197
#
#
#
# Elastic Compliance Matrix: (Units=1/GPa)
#
#
# Indices 1 2 3 4 5 6 
#
# 1 0.017763 -0.006673 -0.003884 0.000000 0.000000 0.000000
# 2 -0.006673 0.018578 -0.004207 0.000000 0.000000 0.000000
# 3 -0.003884 -0.004207 0.015311 0.000000 0.000000 0.000000
# 4 0.000000 0.000000 0.000000 0.045643 0.000000 0.000000
# 5 0.000000 0.000000 0.000000 0.000000 0.185237 0.000000
# 6 0.000000 0.000000 0.000000 0.000000 0.000000 0.195325
#
#
# Mechanical properties :
#
#
# Convention : Reuss Voigt Hill
#
# Bulk Modulus (GPa) = 45.19976 45.21325 45.20651
# Shear Modulus (GPa) = 9.71327 15.66104 12.68716
#
# Velocity S-wave (km/s) = 2.36751 3.00621 2.70577
# Velocity P-wave (km/s) = 5.79278 6.17579 5.98735
#
# Compressibility (1/GPa) = 0.02212401
#
# Stress axis : x y z
#
# Youngs Moduli (GPa) = 56.29750 53.82626 65.31244
#
# Poissons Ratio (x) = 0.35921 0.25365
# Poissons Ratio (y) = 0.37570 0.27476
# Poissons Ratio (z) = 0.21864 0.22644
#
# Static dielectric constant tensor:
#      x y z
#    x 1.615100 0.000000 0.000000 
#    y 0.000000 1.599830 0.000000 
#    z 0.000000 0.000000 1.601170 
# 
# From -- ./inp_files/72749.got.cif
#   From: 2010.05.17/outbox.cif.g08.bks.cpg/sg74_37_cif.got.tgz:72749.got - 2010.06.03 17:57:02.
