data_PCOD9534290
_publ_section_title
;
Structure prediction by ZEFSAII (Michael W. Deem and Ramdas Pophale) SiO2 
 PCOD9534290
Probable space group: I M M A
;
_chemical_formula_sum "Si O2"
_cell_formula_units_Z 80
_cell_length_a 8.746062
_cell_length_b 24.275182
_cell_length_c 26.730167
_cell_angle_alpha 90.000000
_cell_angle_beta 90.000000
_cell_angle_gamma 90.000000
_cell_volume 5675.141814
_symmetry_space_group_name_H-M "I M M A"
_symmetry_group_IT_number 74
_symmetry_cell_setting 'orthorhombic'
loop_
_space_group_symop_operation_xyz
x,y,z
-x,1/2-y,z
x,-y,-z
-x,1/2+y,-z
-x,-y,-z
x,1/2+y,-z
-x,y,z
x,1/2-y,z
1/2+x,1/2+y,1/2+z
1/2-x,-y,1/2+z
1/2+x,1/2-y,1/2-z
1/2-x,y,1/2-z
1/2-x,1/2-y,1/2-z
1/2+x,y,1/2-z
1/2-x,1/2+y,1/2+z
1/2+x,-y,1/2+z
loop_
_atom_site_type_symbol
_atom_site_label
_atom_site_fract_x
_atom_site_fract_y
_atom_site_fract_z
Si Si1 0.177542 0.961975 0.050002
Si Si2 0.684094 0.566357 0.607422
Si Si3 0.182881 0.750000 0.538077
Si Si4 0.682985 0.362341 0.195045
Si Si5 0.318812 0.871148 0.988351
Si Si6 0.317214 0.250000 0.350936
O O1 0.000000 0.947942 0.058073
O O2 0.229718 0.003609 0.093439
O O3 0.269297 0.907473 0.035831
O O4 0.184627 0.000000 0.000000
O O5 0.500000 0.568251 0.611133
O O6 0.760608 0.591135 0.656465
O O7 0.734777 0.604123 0.560448
O O8 0.217601 0.806449 0.509160
O O9 0.269467 0.750000 0.590912
O O10 0.000000 0.750000 0.548898
O O11 0.500000 0.360023 0.196224
O O12 0.750000 0.371970 0.250000
O O13 0.748161 0.304364 0.174590
O O14 0.500000 0.877415 0.980537
O O15 0.500000 0.250000 0.345994
#
# Coordination Sequence:
#
# PCOD9534290 Si02
#       6
#    16  16   8  16  16   8
#     4   8  16  29  44  62  86 110 139 179 219 263
#     4  10  19  32  47  64  85 111 144 183 226 266
#     4  10  20  31  43  64  92 120 148 187 224 257
#     4  12  24  37  50  65  86 112 148 191 229 269
#     4  10  18  28  44  64  88 115 147 181 219 264
#     4  12  23  35  50  64  83 116 152 189 229 267
#
# _framework density 14.096564000000001
#
# number of rings (size 3 to 8) (size 9 to 14) (size 15 to 20)
#    0.000    1.800    2.000    5.400    0.000    5.200 
#    0.000    0.000    0.000    0.000    0.000    0.000 
#    0.000    0.000    0.000    0.900    0.000   11.600 
#
# Total GULP energy -223119.527901 kJ/mol
# GULP energy per Si atom -5577.988198 kJ/mol
# Density = 1.406448 g / cm^3
# Si number density = 14.096564 Si / 1000 Ang^3
#
#
#
# Elastic Constant Matrix: (Units=GPa)
#
#
# Indices 1 2 3 4 5 6 
#
# 1 83.6890 55.7079 39.3459 0.0000 0.0000 0.0000
# 2 55.7079 112.3781 64.4671 0.0000 0.0000 0.0000
# 3 39.3459 64.4671 71.7002 0.0000 0.0000 0.0000
# 4 0.0000 0.0000 0.0000 9.2540 0.0000 0.0000
# 5 0.0000 0.0000 0.0000 0.0000 20.8686 0.0000
# 6 0.0000 0.0000 0.0000 0.0000 0.0000 24.5835
#
#
#
# Elastic Compliance Matrix: (Units=1/GPa)
#
#
# Indices 1 2 3 4 5 6 
#
# 1 0.018348 -0.006856 -0.003905 0.000000 0.000000 0.000000
# 2 -0.006856 0.020939 -0.015065 0.000000 0.000000 0.000000
# 3 -0.003905 -0.015065 0.029635 0.000000 0.000000 0.000000
# 4 0.000000 0.000000 0.000000 0.108061 0.000000 0.000000
# 5 0.000000 0.000000 0.000000 0.000000 0.047919 0.000000
# 6 0.000000 0.000000 0.000000 0.000000 0.000000 0.040678
#
#
# Mechanical properties :
#
#
# Convention : Reuss Voigt Hill
#
# Bulk Modulus (GPa) = 57.89725 65.20104 61.54914
# Shear Modulus (GPa) = 15.48053 18.15764 16.81908
#
# Velocity S-wave (km/s) = 3.31747 3.59289 3.45792
# Velocity P-wave (km/s) = 7.47230 7.97279 7.72660
#
# Compressibility (1/GPa) = 0.01727198
#
# Stress axis : x y z
#
# Youngs Moduli (GPa) = 54.50126 47.75789 33.74435
#
# Poissons Ratio (x) = 0.32741 0.13176
# Poissons Ratio (y) = 0.37364 0.50835
# Poissons Ratio (z) = 0.21281 0.71945
#
# Static dielectric constant tensor:
#      x y z
#    x 1.474730 0.000000 0.000000 
#    y 0.000000 1.479260 0.000000 
#    z 0.000000 0.000000 1.443430 
# 
# From -- ./inp_files/48600.got.cif
#   From: 2010.05.17/outbox.cif.g08.bks.cpg/sg74_25_cif.got.tgz:48600.got - 2010.06.03 17:57:02.
