data_PCOD9534840
_publ_section_title
;
Structure prediction by ZEFSAII (Michael W. Deem and Ramdas Pophale) SiO2 
 PCOD9534840
Probable space group: I M M A
;
_chemical_formula_sum "Si O2"
_cell_formula_units_Z 112
_cell_length_a 11.411210
_cell_length_b 23.573907
_cell_length_c 17.834560
_cell_angle_alpha 90.000000
_cell_angle_beta 90.000000
_cell_angle_gamma 90.000000
_cell_volume 4797.617974
_symmetry_space_group_name_H-M "I M M A"
_symmetry_group_IT_number 74
_symmetry_cell_setting 'orthorhombic'
loop_
_space_group_symop_operation_xyz
x,y,z
-x,1/2-y,z
x,-y,-z
-x,1/2+y,-z
-x,-y,-z
x,1/2+y,-z
-x,y,z
x,1/2-y,z
1/2+x,1/2+y,1/2+z
1/2-x,-y,1/2+z
1/2+x,1/2-y,1/2-z
1/2-x,y,1/2-z
1/2-x,1/2-y,1/2-z
1/2+x,y,1/2-z
1/2-x,1/2+y,1/2+z
1/2+x,-y,1/2+z
loop_
_atom_site_type_symbol
_atom_site_label
_atom_site_fract_x
_atom_site_fract_y
_atom_site_fract_z
Si Si1 0.866617 0.879362 0.891906
Si Si2 0.367563 0.684590 0.859540
Si Si3 0.376199 0.837799 0.271358
Si Si4 0.736173 0.002700 0.586275
Si Si5 0.874275 0.530502 0.280356
Si Si6 0.662493 0.378181 0.568684
Si Si7 0.869516 0.811181 0.459371
O O1 0.757971 0.847552 0.849886
O O2 0.829549 0.945232 0.891595
O O3 0.000000 0.869675 0.863883
O O4 0.870597 0.865011 0.982528
O O5 0.500000 0.663518 0.835632
O O6 0.357596 0.750000 0.833490
O O7 0.373926 0.686001 0.950495
O O8 0.500000 0.812753 0.245611
O O9 0.250000 0.813085 0.250000
O O10 0.381594 0.842207 0.361666
O O11 0.374059 0.902660 0.239251
O O12 0.851713 0.015737 0.633546
O O13 0.769124 0.000000 0.500000
O O14 0.647916 0.056328 0.590276
O O15 0.750000 0.507598 0.250000
O O16 0.000000 0.507469 0.254907
O O17 0.799755 0.364255 0.569537
O O18 0.814046 0.750000 0.440095
O O19 0.000000 0.811916 0.430703
#
# Coordination Sequence:
#
# PCOD9534840 Si02
#       7
#    16  16  16  16  16  16  16
#     4  10  21  32  49  79 113 146 180 223 279 330
#     4   8  15  31  52  72 101 144 185 222 269 324
#     4  10  19  32  51  72  94 126 177 225 263 316
#     4  10  21  34  49  79 115 149 178 225 280 338
#     4  10  20  36  54  75 101 141 188 230 272 324
#     4  10  18  32  50  75 103 142 182 227 273 333
#     4   8  15  28  48  73 101 134 177 229 282 333
#
# _framework density 23.344919000000001
#
# number of rings (size 3 to 8) (size 9 to 14) (size 15 to 20)
#    0.000    2.571    2.857    1.286    0.000    6.000 
#    0.000    2.857    0.000    1.714    0.000    0.000 
#    0.000    0.571    0.000    1.143    0.000    1.429 
#
# Total GULP energy -311770.235123 kJ/mol
# GULP energy per Si atom -5567.325627 kJ/mol
# Density = 2.329179 g / cm^3
# Si number density = 23.344919 Si / 1000 Ang^3
#
#
#
# Elastic Constant Matrix: (Units=GPa)
#
#
# Indices 1 2 3 4 5 6 
#
# 1 214.8701 43.3722 19.2451 0.0000 0.0000 -0.0002
# 2 43.3722 52.8415 8.5780 0.0000 0.0000 0.0001
# 3 19.2451 8.5780 42.1350 0.0000 0.0000 0.0002
# 4 0.0000 0.0000 0.0000 -0.7099 0.0000 0.0004
# 5 0.0000 0.0000 0.0000 0.0000 -13.1140 0.0005
# 6 -0.0002 0.0001 0.0002 0.0004 0.0005-4680.8238
#
#
#
# Elastic Compliance Matrix: (Units=1/GPa)
#
#
# Indices 1 2 3 4 5 6 
#
# 1 0.005694 -0.004397 -0.001706 0.000000 0.000000 0.000000
# 2 -0.004397 0.022967 -0.002667 0.000000 0.000000 0.000000
# 3 -0.001706 -0.002667 0.025055 0.000000 0.000000 0.000000
# 4 0.000000 0.000000 0.000000 -1.408565 0.000000 0.000000
# 5 0.000000 0.000000 0.000000 0.000000 -0.076254 0.000000
# 6 0.000000 0.000000 0.000000 0.000000 0.000000 -0.000214
#
#
# Mechanical properties :
#
#
# Convention : Reuss Voigt Hill
#
# Bulk Modulus (GPa) = 27.64247 50.24857 38.94552
# Shear Modulus (GPa) = -3.56705 -923.01946 -463.29326
#
# Velocity S-wave (km/s) = -1.23746 -19.90582 -14.10271
# Velocity P-wave (km/s) = 3.13447 22.51114 15.76271
#
# Compressibility (1/GPa) = 0.03617621
#
# Stress axis : x y z
#
# Youngs Moduli (GPa) = 175.61453 43.54163 39.91164
#
# Poissons Ratio (x) = 0.19145 0.06808
# Poissons Ratio (y) = 0.77217 0.10646
# Poissons Ratio (z) = 0.29955 0.11614
#
# Static dielectric constant tensor:
#      x y z
#    x 1.944270 0.000000 0.000000 
#    y 0.000000 1.906990 0.000000 
#    z 0.000000 0.000000 1.961960 
# 
# From -- ./inp_files/50980.got.cif
#   From: 2010.05.17/outbox.cif.g08.bks.cpg/sg74_26_cif.got.tgz:50980.got - 2010.06.03 17:57:02.
