data_PCOD9534377
_publ_section_title
;
Structure prediction by ZEFSAII (Michael W. Deem and Ramdas Pophale) SiO2 
 PCOD9534377
Probable space group: I M M A
;
_chemical_formula_sum "Si O2"
_cell_formula_units_Z 80
_cell_length_a 24.280216
_cell_length_b 8.816215
_cell_length_c 26.945986
_cell_angle_alpha 90.000000
_cell_angle_beta 90.000000
_cell_angle_gamma 90.000000
_cell_volume 5768.047106
_symmetry_space_group_name_H-M "I M M A"
_symmetry_group_IT_number 74
_symmetry_cell_setting 'orthorhombic'
loop_
_space_group_symop_operation_xyz
x,y,z
-x,1/2-y,z
x,-y,-z
-x,1/2+y,-z
-x,-y,-z
x,1/2+y,-z
-x,y,z
x,1/2-y,z
1/2+x,1/2+y,1/2+z
1/2-x,-y,1/2+z
1/2+x,1/2-y,1/2-z
1/2-x,y,1/2-z
1/2-x,1/2-y,1/2-z
1/2+x,y,1/2-z
1/2-x,1/2+y,1/2+z
1/2+x,-y,1/2+z
loop_
_atom_site_type_symbol
_atom_site_label
_atom_site_fract_x
_atom_site_fract_y
_atom_site_fract_z
Si Si1 0.717028 0.574703 0.697514
Si Si2 0.683082 0.569268 0.149189
Si Si3 0.500000 0.067553 0.780873
Si Si4 0.615758 0.932679 0.758637
Si Si5 0.885073 0.067173 0.553938
Si Si6 0.000000 0.065742 0.603027
O O1 0.715218 0.750000 0.681318
O O2 0.750000 0.571450 0.750000
O O3 0.754348 0.479453 0.660184
O O4 0.656095 0.522473 0.713109
O O5 0.677176 0.750000 0.154782
O O6 0.644825 0.491597 0.190969
O O7 0.660227 0.525755 0.095260
O O8 0.500000 0.250000 0.779054
O O9 0.500000 0.020467 0.839229
O O10 0.555283 0.002215 0.756761
O O11 0.614113 0.750000 0.759940
O O12 0.886323 0.250000 0.550595
O O13 0.944616 0.016115 0.575173
O O14 0.874965 0.000000 0.500000
O O15 0.000000 0.250000 0.603007
#
# Coordination Sequence:
#
# PCOD9534377 Si02
#       6
#    16  16   8  16  16   8
#     4   8  16  29  43  60  83 106 132 170 209 252
#     4  10  18  29  45  62  81 106 139 178 216 253
#     4  11  19  30  46  62  85 112 141 181 215 246
#     4  10  19  30  43  62  85 109 139 171 209 256
#     4  10  20  32  44  59  80 108 142 184 222 254
#     4   9  17  32  44  54  79 107 139 182 220 246
#
# _framework density 13.869512
#
# number of rings (size 3 to 8) (size 9 to 14) (size 15 to 20)
#    0.000    2.400    2.000    3.000    0.000    6.000 
#    0.000    0.000    0.000    0.000    0.000    0.000 
#    0.000    0.000    0.000    0.900    0.000   11.800 
#
# Total GULP energy -222912.971196 kJ/mol
# GULP energy per Si atom -5572.824280 kJ/mol
# Density = 1.383794 g / cm^3
# Si number density = 13.869512 Si / 1000 Ang^3
#
#
#
# Elastic Constant Matrix: (Units=GPa)
#
#
# Indices 1 2 3 4 5 6 
#
# 1 124.1447 38.8689 62.7088 0.0000 0.0000 0.0000
# 2 38.8689 36.4066 28.1678 0.0000 0.0000 0.0000
# 3 62.7088 28.1678 68.2064 0.0000 0.0000 0.0000
# 4 0.0000 0.0000 0.0000 18.9696 0.0000 0.0000
# 5 0.0000 0.0000 0.0000 0.0000 14.6805 0.0000
# 6 0.0000 0.0000 0.0000 0.0000 0.0000 23.4749
#
#
#
# Elastic Compliance Matrix: (Units=1/GPa)
#
#
# Indices 1 2 3 4 5 6 
#
# 1 0.016751 -0.008771 -0.011779 0.000000 0.000000 0.000000
# 2 -0.008771 0.044957 -0.010503 0.000000 0.000000 0.000000
# 3 -0.011779 -0.010503 0.029828 0.000000 0.000000 0.000000
# 4 0.000000 0.000000 0.000000 0.052716 0.000000 0.000000
# 5 0.000000 0.000000 0.000000 0.000000 0.068117 0.000000
# 6 0.000000 0.000000 0.000000 0.000000 0.000000 0.042599
#
#
# Mechanical properties :
#
#
# Convention : Reuss Voigt Hill
#
# Bulk Modulus (GPa) = 33.97637 54.24987 44.11312
# Shear Modulus (GPa) = 15.29601 18.02582 16.66091
#
# Velocity S-wave (km/s) = 3.32452 3.60901 3.46968
# Velocity P-wave (km/s) = 6.26793 7.52104 6.92289
#
# Compressibility (1/GPa) = 0.02943222
#
# Stress axis : x y z
#
# Youngs Moduli (GPa) = 59.69862 22.24334 33.52561
#
# Poissons Ratio (x) = 0.19509 0.39488
# Poissons Ratio (y) = 0.52359 0.35211
# Poissons Ratio (z) = 0.70316 0.23362
#
# Static dielectric constant tensor:
#      x y z
#    x 1.476090 0.000000 0.000000 
#    y 0.000000 1.467540 0.000000 
#    z 0.000000 0.000000 1.429520 
# 
# From -- ./inp_files/48620.got.cif
#   From: 2010.05.17/outbox.cif.g08.bks.cpg/sg74_25_cif.got.tgz:48620.got - 2010.06.03 17:57:02.
