data_PCOD9534464
_publ_section_title
;
Structure prediction by ZEFSAII (Michael W. Deem and Ramdas Pophale) SiO2 
 PCOD9534464
Probable space group: I M M A
;
_chemical_formula_sum "Si O2"
_cell_formula_units_Z 112
_cell_length_a 13.711589
_cell_length_b 14.445783
_cell_length_c 30.418629
_cell_angle_alpha 90.000000
_cell_angle_beta 90.000000
_cell_angle_gamma 90.000000
_cell_volume 6025.158967
_symmetry_space_group_name_H-M "I M M A"
_symmetry_group_IT_number 74
_symmetry_cell_setting 'orthorhombic'
loop_
_space_group_symop_operation_xyz
x,y,z
-x,1/2-y,z
x,-y,-z
-x,1/2+y,-z
-x,-y,-z
x,1/2+y,-z
-x,y,z
x,1/2-y,z
1/2+x,1/2+y,1/2+z
1/2-x,-y,1/2+z
1/2+x,1/2-y,1/2-z
1/2-x,y,1/2-z
1/2-x,1/2-y,1/2-z
1/2+x,y,1/2-z
1/2-x,1/2+y,1/2+z
1/2+x,-y,1/2+z
loop_
_atom_site_type_symbol
_atom_site_label
_atom_site_fract_x
_atom_site_fract_y
_atom_site_fract_z
Si Si1 0.880982 0.852852 0.512276
Si Si2 0.115362 0.639350 0.030552
Si Si3 0.119026 0.642560 0.931293
Si Si4 0.384790 0.848470 0.135717
Si Si5 0.881578 0.512104 0.433183
Si Si6 0.381622 0.038437 0.620807
Si Si7 0.722007 0.856399 0.298175
O O1 0.843351 0.750000 0.509204
O O2 0.852477 0.917548 0.471826
O O3 0.000000 0.848568 0.511087
O O4 0.852418 0.908455 0.555863
O O5 0.126180 0.750000 0.033441
O O6 0.149179 0.595571 0.076628
O O7 0.000000 0.617046 0.029702
O O8 0.150763 0.612814 0.981201
O O9 0.148725 0.750000 0.923737
O O10 0.144518 0.567097 0.893931
O O11 0.000000 0.643201 0.932865
O O12 0.500000 0.852938 0.141035
O O13 0.364549 0.750000 0.111407
O O14 0.350793 0.939529 0.110840
O O15 0.327779 0.845937 0.180166
O O16 0.000000 0.512783 0.433804
O O17 0.500000 0.043667 0.624472
O O18 0.338425 0.082779 0.665967
O O19 0.681099 0.750000 0.294689
O O20 0.750000 0.893820 0.250000
#
# Coordination Sequence:
#
# PCOD9534464 Si02
#       7
#    16  16  16  16  16  16  16
#     4   8  12  18  32  58  90 118 145 181 223 263
#     4   8  13  22  40  70 106 139 167 194 233 292
#     4   8  14  25  44  73 107 140 171 201 236 287
#     4   9  17  31  51  69  86 116 156 194 236 286
#     4   8  13  21  37  61  84 112 151 186 218 263
#     4  10  18  29  50  77 104 136 169 202 247 301
#     4  10  22  37  51  71  98 125 159 206 254 300
#
# _framework density 18.588721
#
# number of rings (size 3 to 8) (size 9 to 14) (size 15 to 20)
#    0.000    3.286    0.000    3.000    0.000    4.857 
#    0.000    1.429    6.286    1.286    0.000    0.000 
#    0.000    4.571    0.000    0.000    0.000    0.000 
#
# Total GULP energy -311857.022228 kJ/mol
# GULP energy per Si atom -5568.875397 kJ/mol
# Density = 1.854641 g / cm^3
# Si number density = 18.588721 Si / 1000 Ang^3
#
#
#
# Elastic Constant Matrix: (Units=GPa)
#
#
# Indices 1 2 3 4 5 6 
#
# 1 53.0613 9.3138 26.5041 0.0000 0.0000 0.0000
# 2 9.3138 79.3050 57.6396 0.0000 0.0000 0.0000
# 3 26.5041 57.6396 115.9672 0.0000 0.0000 0.0000
# 4 0.0000 0.0000 0.0000 23.1898 0.0000 0.0000
# 5 0.0000 0.0000 0.0000 0.0000 25.7382 0.0000
# 6 0.0000 0.0000 0.0000 0.0000 0.0000 12.4786
#
#
#
# Elastic Compliance Matrix: (Units=1/GPa)
#
#
# Indices 1 2 3 4 5 6 
#
# 1 0.021409 0.001631 -0.005704 0.000000 0.000000 0.000000
# 2 0.001631 0.019865 -0.010246 0.000000 0.000000 0.000000
# 3 -0.005704 -0.010246 0.015020 0.000000 0.000000 0.000000
# 4 0.000000 0.000000 0.000000 0.043122 0.000000 0.000000
# 5 0.000000 0.000000 0.000000 0.000000 0.038853 0.000000
# 6 0.000000 0.000000 0.000000 0.000000 0.000000 0.080137
#
#
# Mechanical properties :
#
#
# Convention : Reuss Voigt Hill
#
# Bulk Modulus (GPa) = 36.15907 48.36092 42.26000
# Shear Modulus (GPa) = 19.51126 22.60640 21.05883
#
# Velocity S-wave (km/s) = 3.24331 3.49110 3.36948
# Velocity P-wave (km/s) = 5.78963 6.50562 6.15804
#
# Compressibility (1/GPa) = 0.02765558
#
# Stress axis : x y z
#
# Youngs Moduli (GPa) = 46.70982 50.33927 66.57999
#
# Poissons Ratio (x) = -0.08211 0.37975
# Poissons Ratio (y) = -0.07619 0.68221
# Poissons Ratio (z) = 0.26642 0.51580
#
# Static dielectric constant tensor:
#      x y z
#    x 1.735700 0.000000 0.000000 
#    y 0.000000 1.695490 0.000000 
#    z 0.000000 0.000000 1.616930 
# 
# From -- ./inp_files/67227.got.cif
#   From: 2010.05.17/outbox.cif.g08.bks.cpg/sg74_34_cif.got.tgz:67227.got - 2010.06.03 17:57:02.
