data_PCOD9534992
_publ_section_title
;
Structure prediction by ZEFSAII (Michael W. Deem and Ramdas Pophale) SiO2 
 PCOD9534992
Probable space group: I M M A
;
_chemical_formula_sum "Si O2"
_cell_formula_units_Z 80
_cell_length_a 15.048874
_cell_length_b 23.016997
_cell_length_c 12.543471
_cell_angle_alpha 90.000000
_cell_angle_beta 90.000000
_cell_angle_gamma 90.000000
_cell_volume 4344.806076
_symmetry_space_group_name_H-M "I M M A"
_symmetry_group_IT_number 74
_symmetry_cell_setting 'orthorhombic'
loop_
_space_group_symop_operation_xyz
x,y,z
-x,1/2-y,z
x,-y,-z
-x,1/2+y,-z
-x,-y,-z
x,1/2+y,-z
-x,y,z
x,1/2-y,z
1/2+x,1/2+y,1/2+z
1/2-x,-y,1/2+z
1/2+x,1/2-y,1/2-z
1/2-x,y,1/2-z
1/2-x,1/2-y,1/2-z
1/2+x,y,1/2-z
1/2-x,1/2+y,1/2+z
1/2+x,-y,1/2+z
loop_
_atom_site_type_symbol
_atom_site_label
_atom_site_fract_x
_atom_site_fract_y
_atom_site_fract_z
Si Si1 0.687692 0.866306 0.343773
Si Si2 0.500000 0.319031 0.570236
Si Si3 0.101646 0.527837 0.266291
Si Si4 0.000000 0.679819 0.819617
Si Si5 0.311727 0.564010 0.016988
Si Si6 0.649558 0.601973 0.783564
O O1 0.750000 0.838405 0.250000
O O2 0.593272 0.838043 0.374457
O O3 0.662303 0.929418 0.299439
O O4 0.748496 0.883867 0.443598
O O5 0.500000 0.250000 0.571526
O O6 0.500000 0.337143 0.445295
O O7 0.120114 0.546483 0.388904
O O8 0.124616 0.461729 0.239314
O O9 0.000000 0.538450 0.240832
O O10 0.084262 0.650559 0.761399
O O11 0.000000 0.750000 0.811878
O O12 0.266498 0.500000 0.000000
O O13 0.355602 0.588618 0.909850
O O14 0.750000 0.615266 0.750000
#
# Coordination Sequence:
#
# PCOD9534992 Si02
#       6
#    16   8  16   8  16  16
#     4  10  20  38  60  88 118 147 183 234 289 348
#     4  11  24  41  60  81 110 151 197 239 286 333
#     4  10  18  32  58  92 120 146 179 228 291 353
#     4  11  26  43  59  81 111 153 204 245 278 323
#     4   9  19  32  56  85 122 151 180 223 288 348
#     4  11  21  37  59  84 117 155 192 231 282 342
#
# _framework density 18.412790000000001
#
# number of rings (size 3 to 8) (size 9 to 14) (size 15 to 20)
#    0.000    1.800    2.000    4.200    1.400    2.000 
#    0.000    2.500    0.000    6.000    0.000    0.000 
#    0.000    0.000    0.000    0.000    0.000    0.000 
#
# Total GULP energy -222784.145822 kJ/mol
# GULP energy per Si atom -5569.603646 kJ/mol
# Density = 1.837088 g / cm^3
# Si number density = 18.412790 Si / 1000 Ang^3
#
#
#
# Elastic Constant Matrix: (Units=GPa)
#
#
# Indices 1 2 3 4 5 6 
#
# 1 109.2007 29.9402 16.2492 0.0000 0.0000 0.0001
# 2 29.9402 66.7280 32.7014 -0.0002 0.0001 0.0000
# 3 16.2492 32.7014 71.4547 -0.0007 0.0003 -0.0001
# 4 0.0000 -0.0002 -0.0007 9.1559 0.0001 0.0000
# 5 0.0000 0.0001 0.0003 0.0001 9.7746 -0.0001
# 6 0.0001 0.0000 -0.0001 0.0000 -0.0001 29.2676
#
#
#
# Elastic Compliance Matrix: (Units=1/GPa)
#
#
# Indices 1 2 3 4 5 6 
#
# 1 0.010447 -0.004542 -0.000297 0.000000 0.000000 0.000000
# 2 -0.004542 0.021294 -0.008712 0.000000 0.000000 0.000000
# 3 -0.000297 -0.008712 0.018050 0.000001 -0.000001 0.000000
# 4 0.000000 0.000000 0.000001 0.109219 -0.000002 0.000000
# 5 0.000000 0.000000 -0.000001 -0.000002 0.102306 0.000000
# 6 0.000000 0.000000 0.000000 0.000000 0.000000 0.034167
#
#
# Mechanical properties :
#
#
# Convention : Reuss Voigt Hill
#
# Bulk Modulus (GPa) = 44.07646 45.01832 44.54739
# Shear Modulus (GPa) = 15.14473 20.87247 18.00860
#
# Velocity S-wave (km/s) = 2.87106 3.37053 3.13077
# Velocity P-wave (km/s) = 5.91444 6.29681 6.10862
#
# Compressibility (1/GPa) = 0.02268785
#
# Stress axis : x y z
#
# Youngs Moduli (GPa) = 95.72204 46.96230 55.40278
#
# Poissons Ratio (x) = 0.21329 0.01646
# Poissons Ratio (y) = 0.43475 0.48268
# Poissons Ratio (z) = 0.02844 0.40915
#
# Static dielectric constant tensor:
#      x y z
#    x 1.659860 0.000000 0.000000 
#    y 0.000000 1.615070 0.000000 
#    z 0.000000 0.000000 1.691280 
# 
# From -- ./inp_files/20568.got.cif
#   From: 2010.05.17/outbox.cif.g08.bks.cpg/sg74_11_cif.got.tgz:20568.got - 2010.06.03 17:57:02.
