data_PCOD9534856
_publ_section_title
;
Structure prediction by ZEFSAII (Michael W. Deem and Ramdas Pophale) SiO2 
 PCOD9534856
Probable space group: I M M A
;
_chemical_formula_sum "Si O2"
_cell_formula_units_Z 64
_cell_length_a 10.291257
_cell_length_b 39.723618
_cell_length_c 8.999444
_cell_angle_alpha 90.000000
_cell_angle_beta 90.000000
_cell_angle_gamma 90.000000
_cell_volume 3679.026360
_symmetry_space_group_name_H-M "I M M A"
_symmetry_group_IT_number 74
_symmetry_cell_setting 'orthorhombic'
loop_
_space_group_symop_operation_xyz
x,y,z
-x,1/2-y,z
x,-y,-z
-x,1/2+y,-z
-x,-y,-z
x,1/2+y,-z
-x,y,z
x,1/2-y,z
1/2+x,1/2+y,1/2+z
1/2-x,-y,1/2+z
1/2+x,1/2-y,1/2-z
1/2-x,y,1/2-z
1/2-x,1/2-y,1/2-z
1/2+x,y,1/2-z
1/2-x,1/2+y,1/2+z
1/2+x,-y,1/2+z
loop_
_atom_site_type_symbol
_atom_site_label
_atom_site_fract_x
_atom_site_fract_y
_atom_site_fract_z
Si Si1 0.851613 0.788453 0.381082
Si Si2 0.500000 0.037869 0.435264
Si Si3 0.754318 0.579444 0.569287
Si Si4 0.345065 0.349192 0.109154
Si Si5 0.000000 0.964181 0.575441
O O1 0.832765 0.750000 0.436167
O O2 0.750000 0.794344 0.250000
O O3 0.837712 0.816247 0.507875
O O4 0.000000 0.790701 0.324266
O O5 0.375746 0.060464 0.479145
O O6 0.500000 0.033998 0.255401
O O7 0.500000 0.000000 0.500000
O O8 0.750000 0.580707 0.750000
O O9 0.787695 0.617723 0.526315
O O10 0.873969 0.556189 0.526757
O O11 0.500000 0.355241 0.146225
O O12 0.250000 0.344459 0.250000
O O13 0.000000 0.000000 0.500000
#
# Coordination Sequence:
#
# PCOD9534856 Si02
#       5
#    16   8  16  16   8
#     4   9  19  37  57  79 111 147 179 214 262 317
#     4  10  20  34  50  74  99 128 169 215 258 311
#     4   9  18  32  51  72  99 132 168 210 258 314
#     4  10  20  34  55  82 108 139 180 224 266 313
#     4  10  18  32  52  70  95 132 165 203 258 313
#
# _framework density 17.395907000000001
#
# number of rings (size 3 to 8) (size 9 to 14) (size 15 to 20)
#    0.000    2.500    1.250    0.750    5.250    1.500 
#    0.000    2.500    0.000    0.000    0.000    0.000 
#    0.000    0.000    0.000    0.000    0.000    0.000 
#
# Total GULP energy -178228.483232 kJ/mol
# GULP energy per Si atom -5569.640101 kJ/mol
# Density = 1.735631 g / cm^3
# Si number density = 17.395907 Si / 1000 Ang^3
#
#
#
# Elastic Constant Matrix: (Units=GPa)
#
#
# Indices 1 2 3 4 5 6 
#
# 1 170.7145 95.3043 43.6610 0.0007 -0.0001 0.0000
# 2 95.3043 151.9410 47.1665 0.0002 0.0002 0.0001
# 3 43.6610 47.1665 25.9900 0.0020 0.0007 0.0004
# 4 0.0007 0.0002 0.0020 28.5869 0.0003 0.0003
# 5 -0.0001 0.0002 0.0007 0.0003 17.1431 0.0002
# 6 0.0000 0.0001 0.0004 0.0003 0.0002 33.1261
#
#
#
# Elastic Compliance Matrix: (Units=1/GPa)
#
#
# Indices 1 2 3 4 5 6 
#
# 1 0.010698 -0.002591 -0.013269 0.000001 0.000001 0.000000
# 2 -0.002591 0.015701 -0.024141 0.000002 0.000001 0.000000
# 3 -0.013269 -0.024141 0.104578 -0.000007 -0.000004 -0.000001
# 4 0.000001 0.000002 -0.000007 0.034981 -0.000001 0.000000
# 5 0.000001 0.000001 -0.000004 -0.000001 0.058332 0.000000
# 6 0.000000 0.000000 -0.000001 0.000000 0.000000 0.030188
#
#
# Mechanical properties :
#
#
# Convention : Reuss Voigt Hill
#
# Bulk Modulus (GPa) = 19.61775 80.10102 49.85938
# Shear Modulus (GPa) = 14.22595 26.60547 20.41571
#
# Velocity S-wave (km/s) = 2.86278 3.91501 3.42949
# Velocity P-wave (km/s) = 4.71477 8.15980 6.66376
#
# Compressibility (1/GPa) = 0.05097426
#
# Stress axis : x y z
#
# Youngs Moduli (GPa) = 93.47599 63.69176 9.56228
#
# Poissons Ratio (x) = 0.16503 0.12688
# Poissons Ratio (y) = 0.24221 0.23084
# Poissons Ratio (z) = 1.24036 1.53755
#
# Static dielectric constant tensor:
#      x y z
#    x 1.571380 0.000000 0.000000 
#    y 0.000000 1.598990 0.000000 
#    z 0.000000 0.000000 1.568980 
# 
# From -- ./inp_files/17624.got.cif
#   From: 2010.05.17/outbox.cif.g08.bks.cpg/sg74_9_cif.got.tgz:17624.got - 2010.06.03 17:57:02.
