data_PCOD9534665
_publ_section_title
;
Structure prediction by ZEFSAII (Michael W. Deem and Ramdas Pophale) SiO2 
 PCOD9534665
Probable space group: I M M A
;
_chemical_formula_sum "Si O2"
_cell_formula_units_Z 64
_cell_length_a 21.295402
_cell_length_b 18.114325
_cell_length_c 8.755555
_cell_angle_alpha 90.000000
_cell_angle_beta 90.000000
_cell_angle_gamma 90.000000
_cell_volume 3377.471389
_symmetry_space_group_name_H-M "I M M A"
_symmetry_group_IT_number 74
_symmetry_cell_setting 'orthorhombic'
loop_
_space_group_symop_operation_xyz
x,y,z
-x,1/2-y,z
x,-y,-z
-x,1/2+y,-z
-x,-y,-z
x,1/2+y,-z
-x,y,z
x,1/2-y,z
1/2+x,1/2+y,1/2+z
1/2-x,-y,1/2+z
1/2+x,1/2-y,1/2-z
1/2-x,y,1/2-z
1/2-x,1/2-y,1/2-z
1/2+x,y,1/2-z
1/2-x,1/2+y,1/2+z
1/2+x,-y,1/2+z
loop_
_atom_site_type_symbol
_atom_site_label
_atom_site_fract_x
_atom_site_fract_y
_atom_site_fract_z
Si Si1 0.000000 0.584763 0.947333
Si Si2 0.252779 0.419683 0.569345
Si Si3 0.000000 0.662055 0.621022
Si Si4 0.627863 0.836629 0.554663
Si Si5 0.362203 0.164105 0.078672
O O1 0.000000 0.606821 0.765952
O O2 0.934825 0.621771 0.999959
O O3 0.000000 0.500000 0.000000
O O4 0.264548 0.500000 0.500000
O O5 0.250000 0.425213 0.750000
O O6 0.310120 0.367102 0.523692
O O7 0.188313 0.387168 0.501203
O O8 0.934881 0.651530 0.532448
O O9 0.000000 0.750000 0.673694
O O10 0.619869 0.750000 0.528331
O O11 0.637292 0.847073 0.737691
O O12 0.346368 0.250000 0.049815
#
# Coordination Sequence:
#
# PCOD9534665 Si02
#       5
#     8  16   8  16  16
#     4  10  18  30  55  88 119 151 189 231 275 328
#     4  12  25  39  56  81 114 150 191 239 289 341
#     4   8  16  34  60  86 113 147 188 229 275 338
#     4  10  20  37  60  85 115 152 192 232 281 339
#     4   9  18  36  62  87 112 147 188 230 278 337
#
# _framework density 18.949086000000001
#
# number of rings (size 3 to 8) (size 9 to 14) (size 15 to 20)
#    0.000    2.000    0.000    6.375    0.000    6.000 
#    0.000    1.875    0.000    3.000    0.000    0.000 
#    0.000    0.000    0.000    0.000    0.000    0.000 
#
# Total GULP energy -178616.496372 kJ/mol
# GULP energy per Si atom -5581.765512 kJ/mol
# Density = 1.890596 g / cm^3
# Si number density = 18.949086 Si / 1000 Ang^3
#
#
#
# Elastic Constant Matrix: (Units=GPa)
#
#
# Indices 1 2 3 4 5 6 
#
# 1 148.1435 71.6348 50.9068 0.0000 0.0000 0.0000
# 2 71.6348 121.5135 55.9777 0.0000 0.0000 0.0000
# 3 50.9068 55.9777 49.2665 0.0000 0.0000 0.0000
# 4 0.0000 0.0000 0.0000 17.0458 0.0000 0.0000
# 5 0.0000 0.0000 0.0000 0.0000 -16.4499 0.0000
# 6 0.0000 0.0000 0.0000 0.0000 0.0000 -4.1529
#
#
#
# Elastic Compliance Matrix: (Units=1/GPa)
#
#
# Indices 1 2 3 4 5 6 
#
# 1 0.010839 -0.002582 -0.008267 0.000000 0.000000 0.000000
# 2 -0.002582 0.017883 -0.017651 0.000000 0.000000 0.000000
# 3 -0.008267 -0.017651 0.048896 0.000000 0.000000 0.000000
# 4 0.000000 0.000000 0.000000 0.058665 0.000000 0.000000
# 5 0.000000 0.000000 0.000000 0.000000 -0.060791 0.000000
# 6 0.000000 0.000000 0.000000 0.000000 0.000000 -0.240793
#
#
# Mechanical properties :
#
#
# Convention : Reuss Voigt Hill
#
# Bulk Modulus (GPa) = 48.50075 75.10690 61.80382
# Shear Modulus (GPa) = -49.29633 8.64887 -20.32373
#
# Velocity S-wave (km/s) = -5.10604 2.13873 -3.27852
# Velocity P-wave (km/s) = 3.01849 6.76913 4.28426
#
# Compressibility (1/GPa) = 0.02061824
#
# Stress axis : x y z
#
# Youngs Moduli (GPa) = 92.25642 55.91892 20.45166
#
# Poissons Ratio (x) = 0.14437 0.16907
# Poissons Ratio (y) = 0.23818 0.36100
# Poissons Ratio (z) = 0.76266 0.98705
#
# Static dielectric constant tensor:
#      x y z
#    x 1.673870 0.000000 0.000000 
#    y 0.000000 1.632120 0.000000 
#    z 0.000000 0.000000 1.642010 
# 
# From -- ./inp_files/11818.got.cif
#   From: 2010.05.17/outbox.cif.g08.bks.cpg/sg74_6_cif.got.tgz:11818.got - 2010.06.03 17:57:02.
