data_PCOD9534494
_publ_section_title
;
Structure prediction by ZEFSAII (Michael W. Deem and Ramdas Pophale) SiO2 
 PCOD9534494
Probable space group: I M M A
;
_chemical_formula_sum "Si O2"
_cell_formula_units_Z 72
_cell_length_a 8.733760
_cell_length_b 17.234877
_cell_length_c 28.711005
_cell_angle_alpha 90.000000
_cell_angle_beta 90.000000
_cell_angle_gamma 90.000000
_cell_volume 4321.732048
_symmetry_space_group_name_H-M "I M M A"
_symmetry_group_IT_number 74
_symmetry_cell_setting 'orthorhombic'
loop_
_space_group_symop_operation_xyz
x,y,z
-x,1/2-y,z
x,-y,-z
-x,1/2+y,-z
-x,-y,-z
x,1/2+y,-z
-x,y,z
x,1/2-y,z
1/2+x,1/2+y,1/2+z
1/2-x,-y,1/2+z
1/2+x,1/2-y,1/2-z
1/2-x,y,1/2-z
1/2-x,1/2-y,1/2-z
1/2+x,y,1/2-z
1/2-x,1/2+y,1/2+z
1/2+x,-y,1/2+z
loop_
_atom_site_type_symbol
_atom_site_label
_atom_site_fract_x
_atom_site_fract_y
_atom_site_fract_z
Si Si1 0.323544 0.925419 0.965299
Si Si2 0.816329 0.250000 0.802516
Si Si3 0.815025 0.662001 0.446000
Si Si4 0.179855 0.519583 0.112465
Si Si5 0.818107 0.587823 0.301648
O O1 0.500000 0.916058 0.950686
O O2 0.224014 0.947823 0.920833
O O3 0.279603 0.855442 0.999573
O O4 0.318309 0.000000 0.000000
O O5 0.750000 0.250000 0.750000
O O6 0.750995 0.330817 0.821163
O O7 0.000000 0.250000 0.802962
O O8 0.774543 0.750000 0.433383
O O9 0.732782 0.596221 0.416033
O O10 0.000000 0.652399 0.440631
O O11 0.268534 0.523258 0.161335
O O12 0.000000 0.522324 0.120893
O O13 0.750000 0.575324 0.250000
O O14 0.000000 0.595269 0.298421
#
# Coordination Sequence:
#
# PCOD9534494 Si02
#       5
#    16   8  16  16  16
#     4   8  15  30  48  65  87 117 150 185 227 274
#     4  10  18  30  44  60  82 110 144 182 224 262
#     4   9  18  32  49  68  91 119 153 190 229 273
#     4  11  21  31  45  66  92 122 155 190 227 271
#     4  11  21  34  48  63  86 117 152 191 229 267
#
# _framework density 16.659987999999998
#
# number of rings (size 3 to 8) (size 9 to 14) (size 15 to 20)
#    0.000    2.222    0.000    7.667    1.556    4.444 
#    0.000    0.000    0.000    0.000    0.000    0.000 
#    0.000    0.889    0.000    2.444    0.000    3.556 
#
# Total GULP energy -200734.128658 kJ/mol
# GULP energy per Si atom -5575.948018 kJ/mol
# Density = 1.662207 g / cm^3
# Si number density = 16.659988 Si / 1000 Ang^3
#
#
#
# Elastic Constant Matrix: (Units=GPa)
#
#
# Indices 1 2 3 4 5 6 
#
# 1 111.5225 5.0422 38.4102 0.0000 0.0000 0.0000
# 2 5.0422 14.6171 8.8469 0.0000 0.0000 0.0000
# 3 38.4102 8.8469 79.2892 0.0000 0.0000 0.0000
# 4 0.0000 0.0000 0.0000 24.1853 0.0000 0.0000
# 5 0.0000 0.0000 0.0000 0.0000 25.6986 0.0000
# 6 0.0000 0.0000 0.0000 0.0000 0.0000 14.2379
#
#
#
# Elastic Compliance Matrix: (Units=1/GPa)
#
#
# Indices 1 2 3 4 5 6 
#
# 1 0.010767 -0.000598 -0.005149 0.000000 0.000000 0.000000
# 2 -0.000598 0.073401 -0.007900 0.000000 0.000000 0.000000
# 3 -0.005149 -0.007900 0.015988 0.000000 0.000000 0.000000
# 4 0.000000 0.000000 0.000000 0.041347 0.000000 0.000000
# 5 0.000000 0.000000 0.000000 0.000000 0.038913 0.000000
# 6 0.000000 0.000000 0.000000 0.000000 0.000000 0.070235
#
#
# Mechanical properties :
#
#
# Convention : Reuss Voigt Hill
#
# Bulk Modulus (GPa) = 13.72465 34.44749 24.08607
# Shear Modulus (GPa) = 16.54351 23.03299 19.78825
#
# Velocity S-wave (km/s) = 3.15462 3.72228 3.45014
# Velocity P-wave (km/s) = 4.63949 6.26063 5.51000
#
# Compressibility (1/GPa) = 0.07286161
#
# Stress axis : x y z
#
# Youngs Moduli (GPa) = 92.87333 13.62381 62.54658
#
# Poissons Ratio (x) = 0.00814 0.32208
# Poissons Ratio (y) = 0.05550 0.49414
# Poissons Ratio (z) = 0.47824 0.10763
#
# Static dielectric constant tensor:
#      x y z
#    x 1.561350 0.000000 0.000000 
#    y 0.000000 1.578750 0.000000 
#    z 0.000000 0.000000 1.530470 
# 
# From -- ./inp_files/56815.got.cif
#   From: 2010.05.17/outbox.cif.g08.bks.cpg/sg74_29_cif.got.tgz:56815.got - 2010.06.03 17:57:02.
