data_PCOD9534921
_publ_section_title
;
Structure prediction by ZEFSAII (Michael W. Deem and Ramdas Pophale) SiO2 
 PCOD9534921
Probable space group: I M M A
;
_chemical_formula_sum "Si O2"
_cell_formula_units_Z 104
_cell_length_a 25.089631
_cell_length_b 8.188290
_cell_length_c 25.273319
_cell_angle_alpha 90.000000
_cell_angle_beta 90.000000
_cell_angle_gamma 90.000000
_cell_volume 5192.180342
_symmetry_space_group_name_H-M "I M M A"
_symmetry_group_IT_number 74
_symmetry_cell_setting 'orthorhombic'
loop_
_space_group_symop_operation_xyz
x,y,z
-x,1/2-y,z
x,-y,-z
-x,1/2+y,-z
-x,-y,-z
x,1/2+y,-z
-x,y,z
x,1/2-y,z
1/2+x,1/2+y,1/2+z
1/2-x,-y,1/2+z
1/2+x,1/2-y,1/2-z
1/2-x,y,1/2-z
1/2-x,1/2-y,1/2-z
1/2+x,y,1/2-z
1/2-x,1/2+y,1/2+z
1/2+x,-y,1/2+z
loop_
_atom_site_type_symbol
_atom_site_label
_atom_site_fract_x
_atom_site_fract_y
_atom_site_fract_z
Si Si1 0.561896 0.554363 0.441337
Si Si2 0.939781 0.056182 0.724122
Si Si3 0.227566 0.560815 0.190436
Si Si4 0.109163 0.559329 0.830676
Si Si5 0.112411 0.558923 0.560226
Si Si6 0.837559 0.439727 0.658367
Si Si7 0.500000 0.554009 0.061416
O O1 0.580639 0.500000 0.500000
O O2 0.500000 0.498601 0.436225
O O3 0.562685 0.750000 0.439950
O O4 0.594188 0.491458 0.390446
O O5 0.941606 0.250000 0.711898
O O6 0.887755 0.990572 0.691883
O O7 0.000000 0.992253 0.713102
O O8 0.925539 0.032803 0.785966
O O9 0.218959 0.750000 0.173842
O O10 0.250000 0.562408 0.250000
O O11 0.171272 0.475206 0.182125
O O12 0.279179 0.483119 0.162842
O O13 0.098111 0.750000 0.824308
O O14 0.114101 0.500000 0.500000
O O15 0.123852 0.750000 0.563390
O O16 0.149003 0.451886 0.597137
O O17 0.053497 0.522439 0.582931
O O18 0.832301 0.250000 0.675475
O O19 0.500000 0.750000 0.065567
O O20 0.500000 0.500000 0.000000
#
# Coordination Sequence:
#
# PCOD9534921 Si02
#       7
#    16  16  16  16  16  16   8
#     4  10  21  39  64  93 127 166 207 251 303 366
#     4  10  21  38  60  87 119 157 198 240 294 357
#     4  10  20  40  65  85 112 155 205 250 295 354
#     4  12  24  37  59  90 126 161 201 250 300 356
#     4  11  22  37  56  81 113 148 188 234 288 345
#     4  10  21  38  61  87 114 150 195 243 296 351
#     4  10  18  32  54  78 106 142 188 230 275 330
#
# _framework density 20.030121999999999
#
# number of rings (size 3 to 8) (size 9 to 14) (size 15 to 20)
#    0.000    1.538    1.538    5.308    1.077    4.615 
#    0.000    0.769    0.000    3.692    0.000    0.000 
#    0.000    0.000    0.000    0.000    0.000    0.000 
#
# Total GULP energy -290031.583072 kJ/mol
# GULP energy per Si atom -5577.530444 kJ/mol
# Density = 1.998453 g / cm^3
# Si number density = 20.030122 Si / 1000 Ang^3
#
#
#
# Elastic Constant Matrix: (Units=GPa)
#
#
# Indices 1 2 3 4 5 6 
#
# 1 99.1141 0.6163 29.1340 0.0000 0.0000 0.0000
# 2 0.6163 36.9636 -7.1356 0.0000 0.0000 0.0000
# 3 29.1340 -7.1356 80.2661 0.0000 0.0000 0.0000
# 4 0.0000 0.0000 0.0000 21.6861 0.0000 0.0000
# 5 0.0000 0.0000 0.0000 0.0000 -47.7943 0.0000
# 6 0.0000 0.0000 0.0000 0.0000 0.0000 9.1724
#
#
#
# Elastic Compliance Matrix: (Units=1/GPa)
#
#
# Indices 1 2 3 4 5 6 
#
# 1 0.011331 -0.001000 -0.004202 0.000000 0.000000 0.000000
# 2 -0.001000 0.027614 0.002818 0.000000 0.000000 0.000000
# 3 -0.004202 0.002818 0.014234 0.000000 0.000000 0.000000
# 4 0.000000 0.000000 0.000000 0.046112 0.000000 0.000000
# 5 0.000000 0.000000 0.000000 0.000000 -0.020923 0.000000
# 6 0.000000 0.000000 0.000000 0.000000 0.000000 0.109022
#
#
# Mechanical properties :
#
#
# Convention : Reuss Voigt Hill
#
# Bulk Modulus (GPa) = 20.65620 29.06370 24.85995
# Shear Modulus (GPa) = 24.00438 9.52813 16.76626
#
# Velocity S-wave (km/s) = 3.46557 2.18340 2.89632
# Velocity P-wave (km/s) = 5.13308 4.57141 4.86037
#
# Compressibility (1/GPa) = 0.04841162
#
# Stress axis : x y z
#
# Youngs Moduli (GPa) = 88.25640 36.21314 70.25382
#
# Poissons Ratio (x) = 0.03621 0.29518
# Poissons Ratio (y) = 0.08826 -0.19797
# Poissons Ratio (z) = 0.37081 -0.10204
#
# Static dielectric constant tensor:
#      x y z
#    x 1.759280 0.000000 0.000000 
#    y 0.000000 1.709720 0.000000 
#    z 0.000000 0.000000 1.701280 
# 
# From -- ./inp_files/68635.got.cif
#   From: 2010.05.17/outbox.cif.g08.bks.cpg/sg74_35_cif.got.tgz:68635.got - 2010.06.03 17:57:02.
