data_PCOD9534896
_publ_section_title
;
Structure prediction by ZEFSAII (Michael W. Deem and Ramdas Pophale) SiO2 
 PCOD9534896
Probable space group: I M M A
;
_chemical_formula_sum "Si O2"
_cell_formula_units_Z 64
_cell_length_a 8.386015
_cell_length_b 19.656548
_cell_length_c 23.878520
_cell_angle_alpha 90.000000
_cell_angle_beta 90.000000
_cell_angle_gamma 90.000000
_cell_volume 3936.137777
_symmetry_space_group_name_H-M "I M M A"
_symmetry_group_IT_number 74
_symmetry_cell_setting 'orthorhombic'
loop_
_space_group_symop_operation_xyz
x,y,z
-x,1/2-y,z
x,-y,-z
-x,1/2+y,-z
-x,-y,-z
x,1/2+y,-z
-x,y,z
x,1/2-y,z
1/2+x,1/2+y,1/2+z
1/2-x,-y,1/2+z
1/2+x,1/2-y,1/2-z
1/2-x,y,1/2-z
1/2-x,1/2-y,1/2-z
1/2+x,y,1/2-z
1/2-x,1/2+y,1/2+z
1/2+x,-y,1/2+z
loop_
_atom_site_type_symbol
_atom_site_label
_atom_site_fract_x
_atom_site_fract_y
_atom_site_fract_z
Si Si1 0.308520 0.107062 0.187089
Si Si2 0.811000 0.601886 0.473841
Si Si3 0.305972 0.250000 0.133149
Si Si4 0.312905 0.972149 0.582951
Si Si5 0.305217 0.750000 0.996596
O O1 0.500000 0.105302 0.185442
O O2 0.250000 0.096854 0.250000
O O3 0.254907 0.181423 0.164541
O O4 0.241635 0.051928 0.143700
O O5 0.779459 0.572214 0.536146
O O6 0.725900 0.550227 0.431740
O O7 0.755369 0.679893 0.474315
O O8 0.000000 0.599561 0.463296
O O9 0.500000 0.250000 0.132630
O O10 0.253195 0.250000 0.068438
O O11 0.500000 0.960058 0.575401
O O12 0.500000 0.750000 0.995679
#
# Coordination Sequence:
#
# PCOD9534896 Si02
#       5
#    16  16   8  16   8
#     4  11  21  35  52  71  98 134 173 210 249 291
#     4  10  18  32  53  73  97 130 165 206 253 297
#     4   9  17  31  49  71 100 133 171 207 240 289
#     4  11  21  33  47  71 101 131 168 208 247 294
#     4   9  16  29  51  77  99 128 167 204 246 299
#
# _framework density 16.259592999999999
#
# number of rings (size 3 to 8) (size 9 to 14) (size 15 to 20)
#    0.000    1.750    2.500    5.625    0.000    0.000 
#    0.000    5.625    0.000    0.000    0.000    0.875 
#    0.000    0.000    0.000    0.000    0.000    0.000 
#
# Total GULP energy -178644.276785 kJ/mol
# GULP energy per Si atom -5582.633650 kJ/mol
# Density = 1.622259 g / cm^3
# Si number density = 16.259593 Si / 1000 Ang^3
#
#
#
# Elastic Constant Matrix: (Units=GPa)
#
#
# Indices 1 2 3 4 5 6 
#
# 1 26.0316 -0.1372 3.5412 0.0000 0.0000 0.0000
# 2 -0.1372 123.8193 55.9117 0.0000 0.0000 0.0000
# 3 3.5412 55.9117 91.0082 0.0000 0.0000 0.0000
# 4 0.0000 0.0000 0.0000 20.5211 0.0000 0.0000
# 5 0.0000 0.0000 0.0000 0.0000 23.9534 0.0000
# 6 0.0000 0.0000 0.0000 0.0000 0.0000 -8.6099
#
#
#
# Elastic Compliance Matrix: (Units=1/GPa)
#
#
# Indices 1 2 3 4 5 6 
#
# 1 0.038709 0.001001 -0.002121 0.000000 0.000000 0.000000
# 2 0.001001 0.011203 -0.006922 0.000000 0.000000 0.000000
# 3 -0.002121 -0.006922 0.015323 0.000000 0.000000 0.000000
# 4 0.000000 0.000000 0.000000 0.048730 0.000000 0.000000
# 5 0.000000 0.000000 0.000000 0.000000 0.041748 0.000000
# 6 0.000000 0.000000 0.000000 0.000000 0.000000 -0.116146
#
#
# Mechanical properties :
#
#
# Convention : Reuss Voigt Hill
#
# Bulk Modulus (GPa) = 20.34558 39.94338 30.14448
# Shear Modulus (GPa) = 69.41175 19.27581 44.34378
#
# Velocity S-wave (km/s) = 6.54083 3.44685 5.22796
# Velocity P-wave (km/s) = 8.34166 6.36085 7.41767
#
# Compressibility (1/GPa) = 0.04915073
#
# Stress axis : x y z
#
# Youngs Moduli (GPa) = 25.83401 89.26286 65.26201
#
# Poissons Ratio (x) = -0.08932 0.13842
# Poissons Ratio (y) = -0.02585 0.45171
# Poissons Ratio (z) = 0.05479 0.61783
#
# Static dielectric constant tensor:
#      x y z
#    x 1.546790 0.000000 0.000000 
#    y 0.000000 1.562330 0.000000 
#    z 0.000000 0.000000 1.511080 
# 
# From -- ./inp_files/48288.got.cif
#   From: 2010.05.17/outbox.cif.g08.bks.cpg/sg74_25_cif.got.tgz:48288.got - 2010.06.03 17:57:02.
