data_PCOD9534541
_publ_section_title
;
Structure prediction by ZEFSAII (Michael W. Deem and Ramdas Pophale) SiO2 
 PCOD9534541
Probable space group: I M M A
;
_chemical_formula_sum "Si O2"
_cell_formula_units_Z 112
_cell_length_a 23.286372
_cell_length_b 23.711962
_cell_length_c 12.787858
_cell_angle_alpha 90.000000
_cell_angle_beta 90.000000
_cell_angle_gamma 90.000000
_cell_volume 7061.014876
_symmetry_space_group_name_H-M "I M M A"
_symmetry_group_IT_number 74
_symmetry_cell_setting 'orthorhombic'
loop_
_space_group_symop_operation_xyz
x,y,z
-x,1/2-y,z
x,-y,-z
-x,1/2+y,-z
-x,-y,-z
x,1/2+y,-z
-x,y,z
x,1/2-y,z
1/2+x,1/2+y,1/2+z
1/2-x,-y,1/2+z
1/2+x,1/2-y,1/2-z
1/2-x,y,1/2-z
1/2-x,1/2-y,1/2-z
1/2+x,y,1/2-z
1/2-x,1/2+y,1/2+z
1/2+x,-y,1/2+z
loop_
_atom_site_type_symbol
_atom_site_label
_atom_site_fract_x
_atom_site_fract_y
_atom_site_fract_z
Si Si1 0.771690 0.128648 0.402783
Si Si2 0.322851 0.993369 0.879411
Si Si3 0.936368 0.007009 0.241022
Si Si4 0.876272 0.941981 0.063544
Si Si5 0.935134 0.374879 0.118277
Si Si6 0.332524 0.183985 0.278567
Si Si7 0.753706 0.396680 0.863349
O O1 0.785481 0.063762 0.373110
O O2 0.712121 0.148979 0.351011
O O3 0.819610 0.164471 0.340281
O O4 0.768029 0.132840 0.528833
O O5 0.381460 0.991653 0.815525
O O6 0.285062 0.047322 0.850099
O O7 0.338503 0.000000 0.000000
O O8 0.921150 0.961661 0.151433
O O9 0.000000 0.996108 0.286016
O O10 0.937811 0.068107 0.186843
O O11 0.818221 0.917005 0.111552
O O12 0.904622 0.896282 0.987313
O O13 0.861894 0.000000 0.000000
O O14 0.895256 0.331451 0.180141
O O15 0.000000 0.355037 0.099909
O O16 0.320579 0.250000 0.288924
O O17 0.750000 0.366553 0.750000
#
# Coordination Sequence:
#
# PCOD9534541 Si02
#       7
#    16  16  16  16  16  16  16
#     4  10  20  34  49  74 107 134 166 218 262 307
#     4  10  20  29  47  74 101 139 175 204 254 304
#     4  10  19  31  47  69 105 143 174 205 250 317
#     4  10  18  30  47  74 105 142 172 205 255 315
#     4  10  20  34  52  75 104 136 170 213 263 310
#     4  11  22  35  57  77  99 135 172 216 266 314
#     4  11  20  29  51  80 105 137 175 210 251 313
#
# _framework density 15.861743000000001
#
# number of rings (size 3 to 8) (size 9 to 14) (size 15 to 20)
#    0.000    1.714    4.286    2.571    4.000    2.286 
#    0.000    0.000    0.000    1.714    0.000    0.000 
#    0.000    0.000    0.000    0.000    0.000    0.000 
#
# Total GULP energy -312119.249922 kJ/mol
# GULP energy per Si atom -5573.558034 kJ/mol
# Density = 1.582564 g / cm^3
# Si number density = 15.861743 Si / 1000 Ang^3
#
#
#
# Elastic Constant Matrix: (Units=GPa)
#
#
# Indices 1 2 3 4 5 6 
#
# 1 108.2267 26.0002 43.5956 0.0000 0.0000 0.0000
# 2 26.0002 49.3823 30.2889 0.0000 0.0000 0.0000
# 3 43.5956 30.2889 111.0280 0.0000 0.0000 0.0000
# 4 0.0000 0.0000 0.0000 11.7182 0.0000 0.0000
# 5 0.0000 0.0000 0.0000 0.0000 8.4187 0.0000
# 6 0.0000 0.0000 0.0000 0.0000 0.0000 7.4377
#
#
#
# Elastic Compliance Matrix: (Units=1/GPa)
#
#
# Indices 1 2 3 4 5 6 
#
# 1 0.011592 -0.003977 -0.003467 0.000000 0.000000 0.000000
# 2 -0.003977 0.025684 -0.005445 0.000000 0.000000 0.000000
# 3 -0.003467 -0.005445 0.011853 0.000000 0.000000 0.000000
# 4 0.000000 0.000000 0.000000 0.085337 0.000000 0.000000
# 5 0.000000 0.000000 0.000000 0.000000 0.118783 0.000000
# 6 0.000000 0.000000 0.000000 0.000000 0.000000 0.134451
#
#
# Mechanical properties :
#
#
# Convention : Reuss Voigt Hill
#
# Bulk Modulus (GPa) = 42.82347 52.04514 47.43430
# Shear Modulus (GPa) = 11.86914 16.76508 14.31711
#
# Velocity S-wave (km/s) = 2.73845 3.25460 3.00762
# Velocity P-wave (km/s) = 6.08731 6.85611 6.48312
#
# Compressibility (1/GPa) = 0.02335168
#
# Stress axis : x y z
#
# Youngs Moduli (GPa) = 86.26894 38.93505 84.36416
#
# Poissons Ratio (x) = 0.15484 0.29246
# Poissons Ratio (y) = 0.34308 0.45937
# Poissons Ratio (z) = 0.29906 0.21201
#
# Static dielectric constant tensor:
#      x y z
#    x 1.542840 0.000000 0.000000 
#    y 0.000000 1.505750 0.000000 
#    z 0.000000 0.000000 1.567450 
# 
# From -- ./inp_files/25365.got.cif
#   From: 2010.05.17/outbox.cif.g08.bks.cpg/sg74_13_cif.got.tgz:25365.got - 2010.06.03 17:57:02.
