data_PCOD9534898
_publ_section_title
;
Structure prediction by ZEFSAII (Michael W. Deem and Ramdas Pophale) SiO2 
 PCOD9534898
Probable space group: I M M A
;
_chemical_formula_sum "Si O2"
_cell_formula_units_Z 80
_cell_length_a 9.123181
_cell_length_b 17.537483
_cell_length_c 22.997938
_cell_angle_alpha 90.000000
_cell_angle_beta 90.000000
_cell_angle_gamma 90.000000
_cell_volume 3679.615614
_symmetry_space_group_name_H-M "I M M A"
_symmetry_group_IT_number 74
_symmetry_cell_setting 'orthorhombic'
loop_
_space_group_symop_operation_xyz
x,y,z
-x,1/2-y,z
x,-y,-z
-x,1/2+y,-z
-x,-y,-z
x,1/2+y,-z
-x,y,z
x,1/2-y,z
1/2+x,1/2+y,1/2+z
1/2-x,-y,1/2+z
1/2+x,1/2-y,1/2-z
1/2-x,y,1/2-z
1/2-x,1/2-y,1/2-z
1/2+x,y,1/2-z
1/2-x,1/2+y,1/2+z
1/2+x,-y,1/2+z
loop_
_atom_site_type_symbol
_atom_site_label
_atom_site_fract_x
_atom_site_fract_y
_atom_site_fract_z
Si Si1 0.829331 0.132862 0.692466
Si Si2 0.667209 0.900424 0.419544
Si Si3 0.828872 0.663240 0.522737
Si Si4 0.170588 0.337608 0.337661
Si Si5 0.667858 0.985429 0.674188
O O1 0.750000 0.164479 0.750000
O O2 0.796200 0.041734 0.696012
O O3 0.000000 0.150279 0.692221
O O4 0.753024 0.148434 0.630277
O O5 0.500000 0.874878 0.420993
O O6 0.739154 0.892266 0.481770
O O7 0.668669 0.986351 0.393393
O O8 0.783008 0.750000 0.508432
O O9 0.817499 0.655856 0.592075
O O10 0.000000 0.654859 0.508209
O O11 0.202204 0.250000 0.321775
O O12 0.284051 0.399812 0.315046
O O13 0.000000 0.353825 0.322649
O O14 0.500000 0.001891 0.693628
#
# Coordination Sequence:
#
# PCOD9534898 Si02
#       5
#    16  16  16  16  16
#     4  10  18  32  53  74  97 124 156 197 245 291
#     4   9  19  32  47  73 100 126 162 201 240 285
#     4   9  18  32  49  70  98 133 169 201 238 286
#     4   9  18  32  49  70  98 133 169 201 238 286
#     4   9  19  32  47  73 100 126 162 201 240 285
#
# _framework density 21.741402000000001
#
# number of rings (size 3 to 8) (size 9 to 14) (size 15 to 20)
#    1.200    1.600    0.000    3.600    0.000    2.400 
#    0.000    6.000    0.000    1.200    0.000    0.000 
#    0.000    0.000    0.000    0.000    0.000    0.000 
#
# Total GULP energy -222717.717562 kJ/mol
# GULP energy per Si atom -5567.942939 kJ/mol
# Density = 2.169192 g / cm^3
# Si number density = 21.741402 Si / 1000 Ang^3
#
#
#
# Elastic Constant Matrix: (Units=GPa)
#
#
# Indices 1 2 3 4 5 6 
#
# 1 86.6615 30.9936 21.0929 0.0000 0.0000 0.0000
# 2 30.9936 62.6484 -0.8750 0.0000 0.0000 0.0000
# 3 21.0929 -0.8750 49.4806 0.0000 0.0000 0.0000
# 4 0.0000 0.0000 0.0000 10.1448 0.0000 0.0000
# 5 0.0000 0.0000 0.0000 0.0000 28.7964 0.0000
# 6 0.0000 0.0000 0.0000 0.0000 0.0000 4.1063
#
#
#
# Elastic Compliance Matrix: (Units=1/GPa)
#
#
# Indices 1 2 3 4 5 6 
#
# 1 0.016139 -0.008082 -0.007023 0.000000 0.000000 0.000000
# 2 -0.008082 0.020014 0.003799 0.000000 0.000000 0.000000
# 3 -0.007023 0.003799 0.023271 0.000000 0.000000 0.000000
# 4 0.000000 0.000000 0.000000 0.098573 0.000000 0.000000
# 5 0.000000 0.000000 0.000000 0.000000 0.034727 0.000000
# 6 0.000000 0.000000 0.000000 0.000000 0.000000 0.243530
#
#
# Mechanical properties :
#
#
# Convention : Reuss Voigt Hill
#
# Bulk Modulus (GPa) = 27.16514 33.46816 30.31665
# Shear Modulus (GPa) = 10.61265 18.44809 14.53037
#
# Velocity S-wave (km/s) = 2.21177 2.91610 2.58801
# Velocity P-wave (km/s) = 4.36398 5.17353 4.78590
#
# Compressibility (1/GPa) = 0.03681189
#
# Stress axis : x y z
#
# Youngs Moduli (GPa) = 61.96147 49.96566 42.97219
#
# Poissons Ratio (x) = 0.40384 0.30178
# Poissons Ratio (y) = 0.50080 -0.16327
# Poissons Ratio (z) = 0.43514 -0.18984
#
# Static dielectric constant tensor:
#      x y z
#    x 1.736920 0.000000 0.000000 
#    y 0.000000 1.828530 0.000000 
#    z 0.000000 0.000000 1.873050 
# 
# From -- ./inp_files/70132.got.cif
#   From: 2010.05.17/outbox.cif.g08.bks.cpg/sg74_36_cif.got.tgz:70132.got - 2010.06.03 17:57:02.
