data_PCOD9534594
_publ_section_title
;
Structure prediction by ZEFSAII (Michael W. Deem and Ramdas Pophale) SiO2 
 PCOD9534594
Probable space group: I M M A
;
_chemical_formula_sum "Si O2"
_cell_formula_units_Z 104
_cell_length_a 8.913546
_cell_length_b 24.901253
_cell_length_c 25.318975
_cell_angle_alpha 90.000000
_cell_angle_beta 90.000000
_cell_angle_gamma 90.000000
_cell_volume 5619.760803
_symmetry_space_group_name_H-M "I M M A"
_symmetry_group_IT_number 74
_symmetry_cell_setting 'orthorhombic'
loop_
_space_group_symop_operation_xyz
x,y,z
-x,1/2-y,z
x,-y,-z
-x,1/2+y,-z
-x,-y,-z
x,1/2+y,-z
-x,y,z
x,1/2-y,z
1/2+x,1/2+y,1/2+z
1/2-x,-y,1/2+z
1/2+x,1/2-y,1/2-z
1/2-x,y,1/2-z
1/2-x,1/2-y,1/2-z
1/2+x,y,1/2-z
1/2-x,1/2+y,1/2+z
1/2+x,-y,1/2+z
loop_
_atom_site_type_symbol
_atom_site_label
_atom_site_fract_x
_atom_site_fract_y
_atom_site_fract_z
Si Si1 0.179367 0.686056 0.306929
Si Si2 0.179621 0.365244 0.911967
Si Si3 0.325653 0.020976 0.939936
Si Si4 0.669861 0.647316 0.804365
Si Si5 0.823310 0.750000 0.808671
Si Si6 0.673688 0.091335 0.089822
Si Si7 0.819493 0.811643 0.976966
O O1 0.209532 0.750000 0.313771
O O2 0.250000 0.670363 0.250000
O O3 0.247436 0.655110 0.357358
O O4 0.000000 0.678358 0.305164
O O5 0.239444 0.424129 0.928762
O O6 0.214312 0.325995 0.961684
O O7 0.000000 0.366578 0.906013
O O8 0.500000 0.029154 0.923775
O O9 0.257039 0.967737 0.913710
O O10 0.325744 0.000000 0.000000
O O11 0.500000 0.664768 0.792301
O O12 0.750000 0.632834 0.750000
O O13 0.758378 0.696068 0.831868
O O14 0.668182 0.602863 0.848227
O O15 0.750000 0.750000 0.750000
O O16 0.000000 0.750000 0.808052
O O17 0.500000 0.088834 0.070419
O O18 0.750149 0.139885 0.057753
O O19 0.770342 0.750000 0.964675
O O20 0.000000 0.813173 0.970247
#
# Coordination Sequence:
#
# PCOD9534594 Si02
#       7
#    16  16  16  16   8  16  16
#     4  10  21  38  62  92 126 164 204 246 297 357
#     4  11  22  37  60  88 121 157 197 243 293 351
#     4  10  20  38  61  82 111 151 197 244 293 346
#     4  10  20  35  53  75 104 136 177 222 273 327
#     4  10  18  30  50  74 100 134 174 212 259 314
#     4  10  22  38  57  81 108 144 188 238 287 338
#     4  10  22  37  54  82 118 151 184 230 287 346
#
# _framework density 18.506125999999998
#
# number of rings (size 3 to 8) (size 9 to 14) (size 15 to 20)
#    0.000    1.846    1.538    3.462    1.077    4.615 
#    0.000    0.769    0.000    1.846    0.000    0.000 
#    0.000    0.000    0.000    0.000    0.000    0.000 
#
# Total GULP energy -289843.816350 kJ/mol
# GULP energy per Si atom -5573.919545 kJ/mol
# Density = 1.846401 g / cm^3
# Si number density = 18.506126 Si / 1000 Ang^3
#
#
#
# Elastic Constant Matrix: (Units=GPa)
#
#
# Indices 1 2 3 4 5 6 
#
# 1 80.4579 34.8050 36.1083 0.0000 0.0000 0.0000
# 2 34.8050 106.2099 36.8285 0.0000 0.0000 0.0000
# 3 36.1083 36.8285 94.0418 0.0000 0.0000 0.0000
# 4 0.0000 0.0000 0.0000 32.1589 0.0000 0.0000
# 5 0.0000 0.0000 0.0000 0.0000 28.5390 0.0000
# 6 0.0000 0.0000 0.0000 0.0000 0.0000 25.0603
#
#
#
# Elastic Compliance Matrix: (Units=1/GPa)
#
#
# Indices 1 2 3 4 5 6 
#
# 1 0.016144 -0.003635 -0.004775 0.000000 0.000000 0.000000
# 2 -0.003635 0.011713 -0.003191 0.000000 0.000000 0.000000
# 3 -0.004775 -0.003191 0.013717 0.000000 0.000000 0.000000
# 4 0.000000 0.000000 0.000000 0.031096 0.000000 0.000000
# 5 0.000000 0.000000 0.000000 0.000000 0.035040 0.000000
# 6 0.000000 0.000000 0.000000 0.000000 0.000000 0.039904
#
#
# Mechanical properties :
#
#
# Convention : Reuss Voigt Hill
#
# Bulk Modulus (GPa) = 54.43270 55.13259 54.78265
# Shear Modulus (GPa) = 28.25815 28.68282 28.47048
#
# Velocity S-wave (km/s) = 3.91187 3.94116 3.92654
# Velocity P-wave (km/s) = 7.06264 7.11101 7.08687
#
# Compressibility (1/GPa) = 0.01837131
#
# Stress axis : x y z
#
# Youngs Moduli (GPa) = 61.94156 85.37500 72.90243
#
# Poissons Ratio (x) = 0.31030 0.34814
# Poissons Ratio (y) = 0.22513 0.23267
# Poissons Ratio (z) = 0.29579 0.27247
#
# Static dielectric constant tensor:
#      x y z
#    x 1.651770 0.000000 0.000000 
#    y 0.000000 1.698940 0.000000 
#    z 0.000000 0.000000 1.654210 
# 
# From -- ./inp_files/64806.got.cif
#   From: 2010.05.17/outbox.cif.g08.bks.cpg/sg74_33_cif.got.tgz:64806.got - 2010.06.03 17:57:02.
