data_PCOD9534275
_publ_section_title
;
Structure prediction by ZEFSAII (Michael W. Deem and Ramdas Pophale) SiO2 
 PCOD9534275
Probable space group: I M M A
;
_chemical_formula_sum "Si O2"
_cell_formula_units_Z 104
_cell_length_a 33.093987
_cell_length_b 8.127768
_cell_length_c 21.454397
_cell_angle_alpha 90.000000
_cell_angle_beta 90.000000
_cell_angle_gamma 90.000000
_cell_volume 5770.809037
_symmetry_space_group_name_H-M "I M M A"
_symmetry_group_IT_number 74
_symmetry_cell_setting 'orthorhombic'
loop_
_space_group_symop_operation_xyz
x,y,z
-x,1/2-y,z
x,-y,-z
-x,1/2+y,-z
-x,-y,-z
x,1/2+y,-z
-x,y,z
x,1/2-y,z
1/2+x,1/2+y,1/2+z
1/2-x,-y,1/2+z
1/2+x,1/2-y,1/2-z
1/2-x,y,1/2-z
1/2-x,1/2-y,1/2-z
1/2+x,y,1/2-z
1/2-x,1/2+y,1/2+z
1/2+x,-y,1/2+z
loop_
_atom_site_type_symbol
_atom_site_label
_atom_site_fract_x
_atom_site_fract_y
_atom_site_fract_z
Si Si1 0.690670 0.446610 0.931690
Si Si2 0.364699 0.447778 0.182316
Si Si3 0.568163 0.449869 0.340645
Si Si4 0.283089 0.053859 0.568928
Si Si5 0.842055 0.448718 0.179302
Si Si6 0.955369 0.549992 0.700630
Si Si7 0.500000 0.051565 0.430024
O O1 0.691779 0.250000 0.929473
O O2 0.662470 0.507265 0.876227
O O3 0.736886 0.509935 0.925121
O O4 0.675972 0.500000 0.000000
O O5 0.367234 0.250000 0.187310
O O6 0.343885 0.503973 0.247796
O O7 0.411516 0.506444 0.174705
O O8 0.569180 0.250000 0.342022
O O9 0.614135 0.504662 0.345426
O O10 0.549138 0.491175 0.273805
O O11 0.539483 0.510647 0.394622
O O12 0.281857 0.250000 0.567783
O O13 0.298457 0.000000 0.500000
O O14 0.308658 0.003418 0.629631
O O15 0.840470 0.250000 0.180520
O O16 0.955935 0.750000 0.695065
O O17 0.000000 0.492393 0.678341
O O18 0.500000 0.250000 0.425357
O O19 0.500000 0.000000 0.500000
#
# Coordination Sequence:
#
# PCOD9534275 Si02
#       7
#    16  16  16  16  16  16   8
#     4  10  21  37  56  75  99 131 167 206 251 305
#     4   9  18  31  51  81 109 132 165 206 250 297
#     4   8  14  26  44  65  90 123 161 200 241 283
#     4  10  21  36  53  72  95 131 174 212 254 304
#     4   9  18  32  50  75 104 132 166 208 251 297
#     4   8  12  23  47  75  98 124 161 200 236 283
#     4  10  18  28  42  60  86 122 163 204 241 282
#
# _framework density 18.021737999999999
#
# number of rings (size 3 to 8) (size 9 to 14) (size 15 to 20)
#    0.000    2.923    0.769    2.769    0.000    3.692 
#    0.000    5.385    0.000    1.846    0.000    0.000 
#    0.000    0.000    0.000    0.000    0.000    0.000 
#
# Total GULP energy -289469.964921 kJ/mol
# GULP energy per Si atom -5566.730095 kJ/mol
# Density = 1.798072 g / cm^3
# Si number density = 18.021738 Si / 1000 Ang^3
#
#
#
# Elastic Constant Matrix: (Units=GPa)
#
#
# Indices 1 2 3 4 5 6 
#
# 1 122.1705 11.9363 95.4034 0.0000 0.0000 0.0000
# 2 11.9363 14.3323 12.5941 0.0000 0.0000 0.0000
# 3 95.4034 12.5941 139.2110 0.0000 0.0000 0.0000
# 4 0.0000 0.0000 0.0000 27.6214 0.0000 0.0000
# 5 0.0000 0.0000 0.0000 0.0000 17.0193 0.0000
# 6 0.0000 0.0000 0.0000 0.0000 0.0000 4.4125
#
#
#
# Elastic Compliance Matrix: (Units=1/GPa)
#
#
# Indices 1 2 3 4 5 6 
#
# 1 0.017870 -0.004477 -0.011841 0.000000 0.000000 0.000000
# 2 -0.004477 0.076920 -0.003891 0.000000 0.000000 0.000000
# 3 -0.011841 -0.003891 0.015650 0.000000 0.000000 0.000000
# 4 0.000000 0.000000 0.000000 0.036204 0.000000 0.000000
# 5 0.000000 0.000000 0.000000 0.000000 0.058757 0.000000
# 6 0.000000 0.000000 0.000000 0.000000 0.000000 0.226631
#
#
# Mechanical properties :
#
#
# Convention : Reuss Voigt Hill
#
# Bulk Modulus (GPa) = 14.28120 57.28681 35.78400
# Shear Modulus (GPa) = 10.08492 20.19598 15.14045
#
# Velocity S-wave (km/s) = 2.36815 3.35124 2.90163
# Velocity P-wave (km/s) = 3.92672 6.84332 5.57898
#
# Compressibility (1/GPa) = 0.07002215
#
# Stress axis : x y z
#
# Youngs Moduli (GPa) = 55.96102 13.00051 63.89654
#
# Poissons Ratio (x) = 0.05820 0.75662
# Poissons Ratio (y) = 0.25054 0.24859
# Poissons Ratio (z) = 0.66265 0.05058
#
# Static dielectric constant tensor:
#      x y z
#    x 1.654200 0.000000 0.000000 
#    y 0.000000 1.646050 0.000000 
#    z 0.000000 0.000000 1.592220 
# 
# From -- ./inp_files/55642.got.cif
#   From: 2010.05.17/outbox.cif.g08.bks.cpg/sg74_28_cif.got.tgz:55642.got - 2010.06.03 17:57:02.
