data_PCOD9534746
_publ_section_title
;
Structure prediction by ZEFSAII (Michael W. Deem and Ramdas Pophale) SiO2 
 PCOD9534746
Probable space group: I M M A
;
_chemical_formula_sum "Si O2"
_cell_formula_units_Z 112
_cell_length_a 28.343063
_cell_length_b 13.751636
_cell_length_c 14.457310
_cell_angle_alpha 90.000000
_cell_angle_beta 90.000000
_cell_angle_gamma 90.000000
_cell_volume 5634.931537
_symmetry_space_group_name_H-M "I M M A"
_symmetry_group_IT_number 74
_symmetry_cell_setting 'orthorhombic'
loop_
_space_group_symop_operation_xyz
x,y,z
-x,1/2-y,z
x,-y,-z
-x,1/2+y,-z
-x,-y,-z
x,1/2+y,-z
-x,y,z
x,1/2-y,z
1/2+x,1/2+y,1/2+z
1/2-x,-y,1/2+z
1/2+x,1/2-y,1/2-z
1/2-x,y,1/2-z
1/2-x,1/2-y,1/2-z
1/2+x,y,1/2-z
1/2-x,1/2+y,1/2+z
1/2+x,-y,1/2+z
loop_
_atom_site_type_symbol
_atom_site_label
_atom_site_fract_x
_atom_site_fract_y
_atom_site_fract_z
Si Si1 0.735225 0.866576 0.348900
Si Si2 0.444781 0.483758 0.606353
Si Si3 0.221304 0.868931 0.538033
Si Si4 0.554541 0.635721 0.766971
Si Si5 0.366925 0.635470 0.288806
Si Si6 0.143602 0.461528 0.331748
Si Si7 0.704657 0.141371 0.317501
O O1 0.741873 0.750000 0.344701
O O2 0.750000 0.910256 0.250000
O O3 0.768167 0.897045 0.432853
O O4 0.679323 0.881770 0.352931
O O5 0.430653 0.500000 0.500000
O O6 0.500000 0.454756 0.606945
O O7 0.440781 0.581419 0.668154
O O8 0.412034 0.405863 0.657795
O O9 0.216076 0.750000 0.546506
O O10 0.177208 0.920165 0.587795
O O11 0.270444 0.894719 0.590042
O O12 0.500000 0.623552 0.796071
O O13 0.564659 0.750000 0.759619
O O14 0.591669 0.584753 0.835335
O O15 0.369592 0.750000 0.270761
O O16 0.360492 0.575327 0.193009
O O17 0.166325 0.419544 0.236406
O O18 0.686029 0.250000 0.332728
O O19 0.750000 0.147853 0.250000
#
# Coordination Sequence:
#
# PCOD9534746 Si02
#       7
#    16  16  16  16  16  16  16
#     4   9  19  36  54  75 110 150 186 231 284 341
#     4   9  19  35  54  78 105 137 188 246 292 344
#     4   9  17  31  55  83 105 135 182 230 284 343
#     4   9  17  29  47  74 109 144 175 222 294 354
#     4  10  22  37  51  72 108 153 192 230 282 338
#     4  10  18  31  51  76 107 144 187 231 273 334
#     4   8  14  25  43  71 103 130 168 228 285 330
#
# _framework density 19.876017000000001
#
# number of rings (size 3 to 8) (size 9 to 14) (size 15 to 20)
#    0.000    2.857    0.000    2.143    0.000    4.857 
#    0.000    5.000    0.000    0.000    0.000    6.000 
#    0.000    8.571    0.000    0.429    0.000    1.571 
#
# Total GULP energy -312472.515429 kJ/mol
# GULP energy per Si atom -5579.866347 kJ/mol
# Density = 1.983078 g / cm^3
# Si number density = 19.876017 Si / 1000 Ang^3
#
#
#
# Elastic Constant Matrix: (Units=GPa)
#
#
# Indices 1 2 3 4 5 6 
#
# 1 99.6308 56.4594 46.4343 0.0000 0.0000 0.0000
# 2 56.4594 130.5407 34.8481 0.0000 0.0000 0.0000
# 3 46.4343 34.8481 105.9072 0.0000 0.0000 0.0000
# 4 0.0000 0.0000 0.0000 15.6417 0.0000 0.0000
# 5 0.0000 0.0000 0.0000 0.0000 25.6822 0.0000
# 6 0.0000 0.0000 0.0000 0.0000 0.0000 28.0407
#
#
#
# Elastic Compliance Matrix: (Units=1/GPa)
#
#
# Indices 1 2 3 4 5 6 
#
# 1 0.015377 -0.005318 -0.004992 0.000000 0.000000 0.000000
# 2 -0.005318 0.010237 -0.001037 0.000000 0.000000 0.000000
# 3 -0.004992 -0.001037 0.011972 0.000000 0.000000 0.000000
# 4 0.000000 0.000000 0.000000 0.063932 0.000000 0.000000
# 5 0.000000 0.000000 0.000000 0.000000 0.038937 0.000000
# 6 0.000000 0.000000 0.000000 0.000000 0.000000 0.035662
#
#
# Mechanical properties :
#
#
# Convention : Reuss Voigt Hill
#
# Bulk Modulus (GPa) = 67.14746 67.95136 67.54941
# Shear Modulus (GPa) = 24.53661 27.09539 25.81600
#
# Velocity S-wave (km/s) = 3.51733 3.69619 3.60787
# Velocity P-wave (km/s) = 7.09591 7.24414 7.17041
#
# Compressibility (1/GPa) = 0.01489260
#
# Stress axis : x y z
#
# Youngs Moduli (GPa) = 65.03018 97.68153 83.52678
#
# Poissons Ratio (x) = 0.51948 0.41699
# Poissons Ratio (y) = 0.34584 0.08660
# Poissons Ratio (z) = 0.32465 0.10128
#
# Static dielectric constant tensor:
#      x y z
#    x 1.716220 0.000000 0.000000 
#    y 0.000000 1.750910 0.000000 
#    z 0.000000 0.000000 1.746530 
# 
# From -- ./inp_files/37381.got.cif
#   From: 2010.05.17/outbox.cif.g08.bks.cpg/sg74_19_cif.got.tgz:37381.got - 2010.06.03 17:57:02.
