data_PCOD9534210
_publ_section_title
;
Structure prediction by ZEFSAII (Michael W. Deem and Ramdas Pophale) SiO2 
 PCOD9534210
Probable space group: I M M A
;
_chemical_formula_sum "Si O2"
_cell_formula_units_Z 80
_cell_length_a 9.358792
_cell_length_b 18.589275
_cell_length_c 37.638543
_cell_angle_alpha 90.000000
_cell_angle_beta 90.000000
_cell_angle_gamma 90.000000
_cell_volume 6548.096194
_symmetry_space_group_name_H-M "I M M A"
_symmetry_group_IT_number 74
_symmetry_cell_setting 'orthorhombic'
loop_
_space_group_symop_operation_xyz
x,y,z
-x,1/2-y,z
x,-y,-z
-x,1/2+y,-z
-x,-y,-z
x,1/2+y,-z
-x,y,z
x,1/2-y,z
1/2+x,1/2+y,1/2+z
1/2-x,-y,1/2+z
1/2+x,1/2-y,1/2-z
1/2-x,y,1/2-z
1/2-x,1/2-y,1/2-z
1/2+x,y,1/2-z
1/2-x,1/2+y,1/2+z
1/2+x,-y,1/2+z
loop_
_atom_site_type_symbol
_atom_site_label
_atom_site_fract_x
_atom_site_fract_y
_atom_site_fract_z
Si Si1 0.835229 0.662541 0.284382
Si Si2 0.169237 0.665754 0.998266
Si Si3 0.829906 0.083819 0.927315
Si Si4 0.335638 0.042494 0.037704
Si Si5 0.328050 0.164355 0.864018
O O1 0.831477 0.750000 0.284074
O O2 0.750000 0.636860 0.250000
O O3 0.784354 0.642274 0.323884
O O4 0.000000 0.641077 0.281109
O O5 0.204209 0.750000 0.997119
O O6 0.260468 0.617866 0.971167
O O7 0.000000 0.656733 0.990925
O O8 0.193362 0.634292 0.037912
O O9 0.755711 0.120913 0.893784
O O10 0.000000 0.076138 0.922589
O O11 0.755854 0.007781 0.936247
O O12 0.500000 0.050216 0.049171
O O13 0.336085 0.000000 0.000000
O O14 0.500000 0.154373 0.867119
O O15 0.301229 0.250000 0.868037
#
# Coordination Sequence:
#
# PCOD9534210 Si02
#       5
#    16  16  16  16  16
#     4   8  14  24  36  49  66  89 116 146 179 212
#     4   9  17  28  40  54  72  92 116 149 185 217
#     4  10  18  27  39  54  72  94 120 149 182 218
#     4   9  17  28  40  53  69  91 118 146 179 218
#     4   9  17  27  37  51  72  95 119 150 186 218
#
# _framework density 12.217290999999999
#
# number of rings (size 3 to 8) (size 9 to 14) (size 15 to 20)
#    0.000    3.000    0.000    3.000    0.000    5.600 
#    0.000    2.000    0.000    0.000    0.000    0.000 
#    0.000    0.000    0.000    0.000    0.000    1.000 
#
# Total GULP energy -222681.285661 kJ/mol
# GULP energy per Si atom -5567.032142 kJ/mol
# Density = 1.218948 g / cm^3
# Si number density = 12.217291 Si / 1000 Ang^3
#
#
#
# Elastic Constant Matrix: (Units=GPa)
#
#
# Indices 1 2 3 4 5 6 
#
# 1 69.6995 49.0765 59.8636 0.0000 0.0000 0.0000
# 2 49.0765 72.2039 42.5447 0.0000 0.0000 0.0000
# 3 59.8636 42.5447 91.6654 0.0000 0.0000 0.0000
# 4 0.0000 0.0000 0.0000 13.2290 0.0000 0.0000
# 5 0.0000 0.0000 0.0000 0.0000 22.4933 0.0000
# 6 0.0000 0.0000 0.0000 0.0000 0.0000 18.7796
#
#
#
# Elastic Compliance Matrix: (Units=1/GPa)
#
#
# Indices 1 2 3 4 5 6 
#
# 1 0.045532 -0.018481 -0.021158 0.000000 0.000000 0.000000
# 2 -0.018481 0.026564 -0.000260 0.000000 0.000000 0.000000
# 3 -0.021158 -0.000260 0.024847 0.000000 0.000000 0.000000
# 4 0.000000 0.000000 0.000000 0.075591 0.000000 0.000000
# 5 0.000000 0.000000 0.000000 0.000000 0.044458 0.000000
# 6 0.000000 0.000000 0.000000 0.000000 0.000000 0.053249
#
#
# Mechanical properties :
#
#
# Convention : Reuss Voigt Hill
#
# Bulk Modulus (GPa) = 58.32241 59.61537 58.96889
# Shear Modulus (GPa) = 14.05460 16.37266 15.21363
#
# Velocity S-wave (km/s) = 3.39541 3.66474 3.53264
# Velocity P-wave (km/s) = 7.95066 8.17367 8.06294
#
# Compressibility (1/GPa) = 0.01714607
#
# Stress axis : x y z
#
# Youngs Moduli (GPa) = 21.96243 37.64463 40.24558
#
# Poissons Ratio (x) = 0.69571 0.85152
# Poissons Ratio (y) = 0.40589 0.01046
# Poissons Ratio (z) = 0.46468 0.00978
#
# Static dielectric constant tensor:
#      x y z
#    x 1.408920 0.000000 0.000000 
#    y 0.000000 1.374060 0.000000 
#    z 0.000000 0.000000 1.388740 
# 
# From -- ./inp_files/70131.got.cif
#   From: 2010.05.17/outbox.cif.g08.bks.cpg/sg74_36_cif.got.tgz:70131.got - 2010.06.03 17:57:02.
