data_PCOD9534911
_publ_section_title
;
Structure prediction by ZEFSAII (Michael W. Deem and Ramdas Pophale) SiO2 
 PCOD9534911
Probable space group: I M M A
;
_chemical_formula_sum "Si O2"
_cell_formula_units_Z 104
_cell_length_a 27.189886
_cell_length_b 8.770333
_cell_length_c 24.529049
_cell_angle_alpha 90.000000
_cell_angle_beta 90.000000
_cell_angle_gamma 90.000000
_cell_volume 5849.303835
_symmetry_space_group_name_H-M "I M M A"
_symmetry_group_IT_number 74
_symmetry_cell_setting 'orthorhombic'
loop_
_space_group_symop_operation_xyz
x,y,z
-x,1/2-y,z
x,-y,-z
-x,1/2+y,-z
-x,-y,-z
x,1/2+y,-z
-x,y,z
x,1/2-y,z
1/2+x,1/2+y,1/2+z
1/2-x,-y,1/2+z
1/2+x,1/2-y,1/2-z
1/2-x,y,1/2-z
1/2-x,1/2-y,1/2-z
1/2+x,y,1/2-z
1/2-x,1/2+y,1/2+z
1/2+x,-y,1/2+z
loop_
_atom_site_type_symbol
_atom_site_label
_atom_site_fract_x
_atom_site_fract_y
_atom_site_fract_z
Si Si1 0.637765 0.432182 0.764547
Si Si2 0.211671 0.933996 0.647853
Si Si3 0.500000 0.067938 0.561477
Si Si4 0.175126 0.433069 0.153509
Si Si5 0.057052 0.565648 0.350802
Si Si6 0.630812 0.067341 0.060491
Si Si7 0.899850 0.067802 0.060231
O O1 0.639065 0.250000 0.762338
O O2 0.681778 0.492981 0.802575
O O3 0.646744 0.497956 0.704893
O O4 0.587724 0.477648 0.796398
O O5 0.210273 0.750000 0.653435
O O6 0.268235 0.983880 0.649353
O O7 0.181203 0.972510 0.593051
O O8 0.500000 0.250000 0.559923
O O9 0.500000 0.000000 0.500000
O O10 0.550547 0.004251 0.585503
O O11 0.175472 0.250000 0.159893
O O12 0.145868 0.468796 0.098518
O O13 0.058852 0.750000 0.355180
O O14 0.086663 0.496279 0.401864
O O15 0.000000 0.519205 0.349213
O O16 0.627260 0.250000 0.057908
O O17 0.629859 0.000000 0.000000
O O18 0.905961 0.250000 0.056245
O O19 0.893115 0.000000 0.000000
#
# Coordination Sequence:
#
# PCOD9534911 Si02
#       7
#    16  16   8  16  16  16  16
#     4  10  20  34  54  80 106 134 175 222 266 312
#     4   9  19  36  55  74 103 143 179 212 260 316
#     4  10  18  32  54  74  96 130 166 202 249 300
#     4  10  21  36  54  77 106 140 175 214 261 316
#     4   9  19  37  57  76 105 142 177 219 269 315
#     4  10  20  34  54  80 109 141 180 220 262 315
#     4  10  20  35  54  76 104 135 172 213 258 308
#
# _framework density 17.779893999999999
#
# number of rings (size 3 to 8) (size 9 to 14) (size 15 to 20)
#    0.000    2.308    0.000    3.462    0.000    6.154 
#    1.385    0.000    0.000    0.000    0.000    0.000 
#    0.000    0.000    0.000    0.000    0.000    0.000 
#
# Total GULP energy -290098.763578 kJ/mol
# GULP energy per Si atom -5578.822377 kJ/mol
# Density = 1.773943 g / cm^3
# Si number density = 17.779894 Si / 1000 Ang^3
#
#
#
# Elastic Constant Matrix: (Units=GPa)
#
#
# Indices 1 2 3 4 5 6 
#
# 1 78.1048 36.5850 73.0281 0.0000 0.0000 0.0000
# 2 36.5850 35.8612 39.6941 0.0000 0.0000 0.0000
# 3 73.0281 39.6941 125.7618 0.0000 0.0000 0.0000
# 4 0.0000 0.0000 0.0000 30.9087 0.0000 0.0000
# 5 0.0000 0.0000 0.0000 0.0000 9.5284 0.0000
# 6 0.0000 0.0000 0.0000 0.0000 0.0000 22.3633
#
#
#
# Elastic Compliance Matrix: (Units=1/GPa)
#
#
# Indices 1 2 3 4 5 6 
#
# 1 0.035911 -0.020832 -0.014278 0.000000 0.000000 0.000000
# 2 -0.020832 0.054943 -0.005245 0.000000 0.000000 0.000000
# 3 -0.014278 -0.005245 0.017898 0.000000 0.000000 0.000000
# 4 0.000000 0.000000 0.000000 0.032353 0.000000 0.000000
# 5 0.000000 0.000000 0.000000 0.000000 0.104950 0.000000
# 6 0.000000 0.000000 0.000000 0.000000 0.000000 0.044716
#
#
# Mechanical properties :
#
#
# Convention : Reuss Voigt Hill
#
# Bulk Modulus (GPa) = 35.65977 59.81580 47.73778
# Shear Modulus (GPa) = 13.12928 18.58813 15.85871
#
# Velocity S-wave (km/s) = 2.72036 3.23686 2.98979
# Velocity P-wave (km/s) = 5.47421 6.90544 6.23105
#
# Compressibility (1/GPa) = 0.02804281
#
# Stress axis : x y z
#
# Youngs Moduli (GPa) = 27.84659 18.20059 55.87247
#
# Poissons Ratio (x) = 0.37916 0.79774
# Poissons Ratio (y) = 0.58010 0.29304
# Poissons Ratio (z) = 0.39759 0.09546
#
# Static dielectric constant tensor:
#      x y z
#    x 1.621760 0.000000 0.000000 
#    y 0.000000 1.601430 0.000000 
#    z 0.000000 0.000000 1.585690 
# 
# From -- ./inp_files/62323.got.cif
#   From: 2010.05.17/outbox.cif.g08.bks.cpg/sg74_32_cif.got.tgz:62323.got - 2010.06.03 17:57:02.
