data_PCOD9534121
_publ_section_title
;
Structure prediction by ZEFSAII (Michael W. Deem and Ramdas Pophale) SiO2 
 PCOD9534121
Probable space group: I M M A
;
_chemical_formula_sum "Si O2"
_cell_formula_units_Z 80
_cell_length_a 20.551903
_cell_length_b 17.954839
_cell_length_c 13.065196
_cell_angle_alpha 90.000000
_cell_angle_beta 90.000000
_cell_angle_gamma 90.000000
_cell_volume 4821.137146
_symmetry_space_group_name_H-M "I M M A"
_symmetry_group_IT_number 74
_symmetry_cell_setting 'orthorhombic'
loop_
_space_group_symop_operation_xyz
x,y,z
-x,1/2-y,z
x,-y,-z
-x,1/2+y,-z
-x,-y,-z
x,1/2+y,-z
-x,y,z
x,1/2-y,z
1/2+x,1/2+y,1/2+z
1/2-x,-y,1/2+z
1/2+x,1/2-y,1/2-z
1/2-x,y,1/2-z
1/2-x,1/2-y,1/2-z
1/2+x,y,1/2-z
1/2-x,1/2+y,1/2+z
1/2+x,-y,1/2+z
loop_
_atom_site_type_symbol
_atom_site_label
_atom_site_fract_x
_atom_site_fract_y
_atom_site_fract_z
Si Si1 0.154556 0.160416 0.567093
Si Si2 0.672688 0.580165 0.270278
Si Si3 0.706442 0.589702 0.490086
Si Si4 0.824995 0.904794 0.783247
Si Si5 0.572903 0.160750 0.127654
O O1 0.157970 0.250000 0.574133
O O2 0.140415 0.125445 0.678426
O O3 0.224034 0.129067 0.526932
O O4 0.101812 0.137626 0.482316
O O5 0.750000 0.589068 0.250000
O O6 0.664145 0.604122 0.388120
O O7 0.659959 0.492194 0.265390
O O8 0.717892 0.500000 0.500000
O O9 0.673520 0.612852 0.596164
O O10 0.750000 0.892043 0.750000
O O11 0.875895 0.861304 0.714510
O O12 0.500000 0.131581 0.145161
O O13 0.569904 0.250000 0.125341
#
# Coordination Sequence:
#
# PCOD9534121 Si02
#       5
#    16  16  16  16  16
#     4  10  19  31  49  71 102 135 167 206 254 306
#     4   8  17  29  48  74 103 130 160 208 257 294
#     4   9  17  30  50  77 103 130 159 213 261 293
#     4  10  17  31  54  74  99 133 172 209 247 305
#     4  10  22  36  49  71 105 138 167 210 261 300
#
# _framework density 16.593595000000001
#
# number of rings (size 3 to 8) (size 9 to 14) (size 15 to 20)
#    0.000    2.600    2.000    1.200    0.000    4.800 
#    0.000    2.000    0.000    6.600    0.000    2.800 
#    0.000    0.000    0.000    0.000    0.000    0.000 
#
# Total GULP energy -222789.877667 kJ/mol
# GULP energy per Si atom -5569.746942 kJ/mol
# Density = 1.655583 g / cm^3
# Si number density = 16.593595 Si / 1000 Ang^3
#
#
#
# Elastic Constant Matrix: (Units=GPa)
#
#
# Indices 1 2 3 4 5 6 
#
# 1 72.9037 26.1861 51.1099 0.0000 0.0000 0.0000
# 2 26.1861 19.5869 41.4737 0.0000 0.0000 0.0000
# 3 51.1099 41.4737 169.4203 0.0000 0.0000 0.0000
# 4 0.0000 0.0000 0.0000 27.2634 0.0000 0.0000
# 5 0.0000 0.0000 0.0000 0.0000 4.4204 0.0000
# 6 0.0000 0.0000 0.0000 0.0000 0.0000 6.0724
#
#
#
# Elastic Compliance Matrix: (Units=1/GPa)
#
#
# Indices 1 2 3 4 5 6 
#
# 1 0.026550 -0.038483 0.001411 0.000000 0.000000 0.000000
# 2 -0.038483 0.161776 -0.027993 0.000000 0.000000 0.000000
# 3 0.001411 -0.027993 0.012329 0.000000 0.000000 0.000000
# 4 0.000000 0.000000 0.000000 0.036679 0.000000 0.000000
# 5 0.000000 0.000000 0.000000 0.000000 0.226222 0.000000
# 6 0.000000 0.000000 0.000000 0.000000 0.000000 0.164680
#
#
# Mechanical properties :
#
#
# Convention : Reuss Voigt Hill
#
# Bulk Modulus (GPa) = 14.17925 55.49446 34.83686
# Shear Modulus (GPa) = 6.39487 17.09399 11.74443
#
# Velocity S-wave (km/s) = 1.96524 3.21309 2.66328
# Velocity P-wave (km/s) = 3.70313 6.87613 5.52242
#
# Compressibility (1/GPa) = 0.07052558
#
# Stress axis : x y z
#
# Youngs Moduli (GPa) = 37.66461 6.18138 81.10678
#
# Poissons Ratio (x) = 0.23788 -0.11445
# Poissons Ratio (y) = 1.44945 2.27042
# Poissons Ratio (z) = -0.05315 0.17304
#
# Static dielectric constant tensor:
#      x y z
#    x 1.534590 0.000000 0.000000 
#    y 0.000000 1.566930 0.000000 
#    z 0.000000 0.000000 1.600350 
# 
# From -- ./inp_files/33970.got.cif
#   From: 2010.05.17/outbox.cif.g08.bks.cpg/sg74_17_cif.got.tgz:33970.got - 2010.06.03 17:57:02.
