data_PCOD9534513
_publ_section_title
;
Structure prediction by ZEFSAII (Michael W. Deem and Ramdas Pophale) SiO2 
 PCOD9534513
Probable space group: I M M A
;
_chemical_formula_sum "Si O2"
_cell_formula_units_Z 88
_cell_length_a 8.777446
_cell_length_b 21.200482
_cell_length_c 25.864485
_cell_angle_alpha 90.000000
_cell_angle_beta 90.000000
_cell_angle_gamma 90.000000
_cell_volume 4813.020778
_symmetry_space_group_name_H-M "I M M A"
_symmetry_group_IT_number 74
_symmetry_cell_setting 'orthorhombic'
loop_
_space_group_symop_operation_xyz
x,y,z
-x,1/2-y,z
x,-y,-z
-x,1/2+y,-z
-x,-y,-z
x,1/2+y,-z
-x,y,z
x,1/2-y,z
1/2+x,1/2+y,1/2+z
1/2-x,-y,1/2+z
1/2+x,1/2-y,1/2-z
1/2-x,y,1/2-z
1/2-x,1/2-y,1/2-z
1/2+x,y,1/2-z
1/2-x,1/2+y,1/2+z
1/2+x,-y,1/2+z
loop_
_atom_site_type_symbol
_atom_site_label
_atom_site_fract_x
_atom_site_fract_y
_atom_site_fract_z
Si Si1 0.318895 0.750000 0.691551
Si Si2 0.681231 0.136910 0.695308
Si Si3 0.182371 0.954574 0.451297
Si Si4 0.820861 0.624417 0.693021
Si Si5 0.322103 0.500257 0.346291
Si Si6 0.817115 0.680105 0.414160
O O1 0.500000 0.750000 0.694291
O O2 0.250000 0.750000 0.750000
O O3 0.257001 0.814498 0.667354
O O4 0.500000 0.146698 0.695415
O O5 0.750000 0.158620 0.750000
O O6 0.710918 0.061710 0.688599
O O7 0.749879 0.167254 0.643176
O O8 0.282885 0.979223 0.404119
O O9 0.218111 0.879249 0.451824
O O10 0.000000 0.959626 0.439859
O O11 0.210797 0.000000 0.500000
O O12 0.750000 0.618479 0.750000
O O13 0.781071 0.559319 0.666078
O O14 0.000000 0.635040 0.696669
O O15 0.500000 0.484032 0.339853
O O16 0.767900 0.750000 0.431766
O O17 0.000000 0.680612 0.408974
#
# Coordination Sequence:
#
# PCOD9534513 Si02
#       6
#     8  16  16  16  16  16
#     4  10  18  30  46  66  94 130 170 208 248 298
#     4  10  20  32  48  72 104 139 175 211 251 299
#     4   9  18  34  56  78 100 129 167 213 265 317
#     4  11  20  31  48  71 100 134 172 210 254 306
#     4  10  20  33  50  74 100 131 170 213 260 307
#     4   9  18  33  53  76 102 134 172 211 255 308
#
# _framework density 18.283733999999999
#
# number of rings (size 3 to 8) (size 9 to 14) (size 15 to 20)
#    0.000    2.182    0.000    5.182    0.000    4.727 
#    0.000    0.000    2.000    0.000    0.000    0.000 
#    0.000    0.000    0.000    0.000    0.000    0.000 
#
# Total GULP energy -245279.570131 kJ/mol
# GULP energy per Si atom -5574.535685 kJ/mol
# Density = 1.824212 g / cm^3
# Si number density = 18.283734 Si / 1000 Ang^3
#
#
#
# Elastic Constant Matrix: (Units=GPa)
#
#
# Indices 1 2 3 4 5 6 
#
# 1 71.2578 41.0431 8.5506 0.0000 0.0000 0.0000
# 2 41.0431 130.1589 28.1285 0.0000 0.0000 0.0000
# 3 8.5506 28.1285 47.6714 0.0000 0.0000 0.0000
# 4 0.0000 0.0000 0.0000 13.6780 0.0000 0.0000
# 5 0.0000 0.0000 0.0000 0.0000 21.1290 0.0000
# 6 0.0000 0.0000 0.0000 0.0000 0.0000 7.2511
#
#
#
# Elastic Compliance Matrix: (Units=1/GPa)
#
#
# Indices 1 2 3 4 5 6 
#
# 1 0.017149 -0.005436 0.000132 0.000000 0.000000 0.000000
# 2 -0.005436 0.010529 -0.005238 0.000000 0.000000 0.000000
# 3 0.000132 -0.005238 0.024044 0.000000 0.000000 0.000000
# 4 0.000000 0.000000 0.000000 0.073110 0.000000 0.000000
# 5 0.000000 0.000000 0.000000 0.000000 0.047328 0.000000
# 6 0.000000 0.000000 0.000000 0.000000 0.000000 0.137910
#
#
# Mechanical properties :
#
#
# Convention : Reuss Voigt Hill
#
# Bulk Modulus (GPa) = 32.63966 44.94807 38.79386
# Shear Modulus (GPa) = 14.64702 19.83600 17.24151
#
# Velocity S-wave (km/s) = 2.83343 3.29735 3.07416
# Velocity P-wave (km/s) = 5.34743 6.25570 5.81931
#
# Compressibility (1/GPa) = 0.03063758
#
# Stress axis : x y z
#
# Youngs Moduli (GPa) = 58.31313 94.97625 41.59084
#
# Poissons Ratio (x) = 0.51629 -0.00547
# Poissons Ratio (y) = 0.31699 0.21784
# Poissons Ratio (z) = -0.00767 0.49745
#
# Static dielectric constant tensor:
#      x y z
#    x 1.611480 0.000000 0.000000 
#    y 0.000000 1.717410 0.000000 
#    z 0.000000 0.000000 1.607600 
# 
# From -- ./inp_files/56959.got.cif
#   From: 2010.05.17/outbox.cif.g08.bks.cpg/sg74_29_cif.got.tgz:56959.got - 2010.06.03 17:57:02.
