data_PCOD9534729
_publ_section_title
;
Structure prediction by ZEFSAII (Michael W. Deem and Ramdas Pophale) SiO2 
 PCOD9534729
Probable space group: I M M A
;
_chemical_formula_sum "Si O2"
_cell_formula_units_Z 128
_cell_length_a 17.513199
_cell_length_b 18.099838
_cell_length_c 23.844902
_cell_angle_alpha 90.000000
_cell_angle_beta 90.000000
_cell_angle_gamma 90.000000
_cell_volume 7558.501650
_symmetry_space_group_name_H-M "I M M A"
_symmetry_group_IT_number 74
_symmetry_cell_setting 'orthorhombic'
loop_
_space_group_symop_operation_xyz
x,y,z
-x,1/2-y,z
x,-y,-z
-x,1/2+y,-z
-x,-y,-z
x,1/2+y,-z
-x,y,z
x,1/2-y,z
1/2+x,1/2+y,1/2+z
1/2-x,-y,1/2+z
1/2+x,1/2-y,1/2-z
1/2-x,y,1/2-z
1/2-x,1/2-y,1/2-z
1/2+x,y,1/2-z
1/2-x,1/2+y,1/2+z
1/2+x,-y,1/2+z
loop_
_atom_site_type_symbol
_atom_site_label
_atom_site_fract_x
_atom_site_fract_y
_atom_site_fract_z
Si Si1 0.258640 0.665728 0.880532
Si Si2 0.672204 0.411394 0.286816
Si Si3 0.171303 0.449738 0.446979
Si Si4 0.163233 0.591420 0.376887
Si Si5 0.588727 0.334481 0.982172
Si Si6 0.694385 0.423516 0.695325
Si Si7 0.914409 0.336740 0.309196
Si Si8 0.590465 0.834638 0.230408
O O1 0.252492 0.750000 0.899156
O O2 0.193794 0.645718 0.835628
O O3 0.260805 0.603587 0.927798
O O4 0.342713 0.655459 0.851410
O O5 0.750000 0.413404 0.250000
O O6 0.661651 0.493866 0.309869
O O7 0.606294 0.384800 0.245265
O O8 0.192419 0.500000 0.500000
O O9 0.149154 0.507418 0.398078
O O10 0.106510 0.394001 0.469660
O O11 0.139622 0.643410 0.428601
O O12 0.251058 0.595662 0.356669
O O13 0.114736 0.615469 0.322753
O O14 0.500000 0.339877 0.965762
O O15 0.603390 0.250000 0.000263
O O16 0.750000 0.424496 0.750000
O O17 0.630472 0.365863 0.713882
O O18 0.913633 0.250000 0.293542
O O19 0.000000 0.353787 0.330767
O O20 0.500000 0.836054 0.235829
O O21 0.615516 0.750000 0.219744
#
# Coordination Sequence:
#
# PCOD9534729 Si02
#       8
#    16  16  16  16  16  16  16  16
#     4  10  18  31  51  69  93 134 169 197 239 287
#     4   9  16  29  47  68  95 125 160 197 233 285
#     4  10  21  34  48  67  94 124 165 214 250 279
#     4  10  19  33  52  70  96 131 169 205 243 290
#     4  10  21  35  50  70  98 130 167 209 249 291
#     4   9  18  31  48  70  97 125 161 204 241 286
#     4   9  18  29  43  69 101 129 159 194 231 281
#     4  10  21  34  49  73 102 131 165 202 242 292
#
# _framework density 16.934573
#
# number of rings (size 3 to 8) (size 9 to 14) (size 15 to 20)
#    0.000    2.375    1.250    1.500    1.750    9.000 
#    0.000    1.250    0.000    0.000    0.000    0.000 
#    0.000    9.000    0.000   13.000    0.000    0.000 
#
# Total GULP energy -356556.359344 kJ/mol
# GULP energy per Si atom -5571.193115 kJ/mol
# Density = 1.689603 g / cm^3
# Si number density = 16.934573 Si / 1000 Ang^3
#
#
#
# Elastic Constant Matrix: (Units=GPa)
#
#
# Indices 1 2 3 4 5 6 
#
# 1 34.3555 24.5295 24.6769 0.0000 0.0000 0.0000
# 2 24.5295 115.0169 44.6321 0.0000 0.0000 0.0000
# 3 24.6769 44.6321 55.2791 0.0000 0.0000 0.0000
# 4 0.0000 0.0000 0.0000 16.2151 0.0000 0.0000
# 5 0.0000 0.0000 0.0000 0.0000 21.2336 0.0000
# 6 0.0000 0.0000 0.0000 0.0000 0.0000 10.2687
#
#
#
# Elastic Compliance Matrix: (Units=1/GPa)
#
#
# Indices 1 2 3 4 5 6 
#
# 1 0.043344 -0.002527 -0.017308 0.000000 0.000000 0.000000
# 2 -0.002527 0.012809 -0.009213 0.000000 0.000000 0.000000
# 3 -0.017308 -0.009213 0.033255 0.000000 0.000000 0.000000
# 4 0.000000 0.000000 0.000000 0.061671 0.000000 0.000000
# 5 0.000000 0.000000 0.000000 0.000000 0.047095 0.000000
# 6 0.000000 0.000000 0.000000 0.000000 0.000000 0.097383
#
#
# Mechanical properties :
#
#
# Convention : Reuss Voigt Hill
#
# Bulk Modulus (GPa) = 31.93887 43.59205 37.76546
# Shear Modulus (GPa) = 13.73277 16.93102 15.33189
#
# Velocity S-wave (km/s) = 2.85077 3.16538 3.01219
# Velocity P-wave (km/s) = 5.45316 6.25754 5.86915
#
# Compressibility (1/GPa) = 0.03130982
#
# Stress axis : x y z
#
# Youngs Moduli (GPa) = 23.07109 78.07229 30.07028
#
# Poissons Ratio (x) = 0.19732 0.52047
# Poissons Ratio (y) = 0.05831 0.27705
# Poissons Ratio (z) = 0.39932 0.71931
#
# Static dielectric constant tensor:
#      x y z
#    x 1.562320 0.000000 0.000000 
#    y 0.000000 1.610640 0.000000 
#    z 0.000000 0.000000 1.606260 
# 
# From -- ./inp_files/61117.got.cif
#   From: 2010.05.17/outbox.cif.g08.bks.cpg/sg74_31_cif.got.tgz:61117.got - 2010.06.03 17:57:02.
