data_PCOD9534183
_publ_section_title
;
Structure prediction by ZEFSAII (Michael W. Deem and Ramdas Pophale) SiO2 
 PCOD9534183
Probable space group: I M M A
;
_chemical_formula_sum "Si O2"
_cell_formula_units_Z 112
_cell_length_a 23.748283
_cell_length_b 7.298961
_cell_length_c 27.599786
_cell_angle_alpha 90.000000
_cell_angle_beta 90.000000
_cell_angle_gamma 90.000000
_cell_volume 4784.085949
_symmetry_space_group_name_H-M "I M M A"
_symmetry_group_IT_number 74
_symmetry_cell_setting 'orthorhombic'
loop_
_space_group_symop_operation_xyz
x,y,z
-x,1/2-y,z
x,-y,-z
-x,1/2+y,-z
-x,-y,-z
x,1/2+y,-z
-x,y,z
x,1/2-y,z
1/2+x,1/2+y,1/2+z
1/2-x,-y,1/2+z
1/2+x,1/2-y,1/2-z
1/2-x,y,1/2-z
1/2-x,1/2-y,1/2-z
1/2+x,y,1/2-z
1/2-x,1/2+y,1/2+z
1/2+x,-y,1/2+z
loop_
_atom_site_type_symbol
_atom_site_label
_atom_site_fract_x
_atom_site_fract_y
_atom_site_fract_z
Si Si1 0.060686 0.472414 0.755373
Si Si2 0.410653 0.472092 0.637695
Si Si3 0.500000 0.531037 0.441578
Si Si4 0.881672 0.471682 0.591742
Si Si5 0.169558 0.470884 0.697225
Si Si6 0.000000 0.968654 0.442753
Si Si7 0.782619 0.026022 0.847955
Si Si8 0.729602 0.967109 0.051685
O O1 0.062029 0.250000 0.750551
O O2 0.058828 0.516151 0.812122
O O3 0.120975 0.536112 0.734029
O O4 0.000000 0.530735 0.733190
O O5 0.408056 0.250000 0.633830
O O6 0.445184 0.533695 0.589863
O O7 0.347045 0.533688 0.649304
O O8 0.500000 0.750000 0.436953
O O9 0.500000 0.500000 0.500000
O O10 0.884341 0.250000 0.588627
O O11 0.858180 0.510478 0.644938
O O12 0.834301 0.537311 0.554271
O O13 0.943073 0.542485 0.580449
O O14 0.173127 0.250000 0.703937
O O15 0.235024 0.532195 0.691356
O O16 0.000000 0.750000 0.434782
O O17 0.000000 0.000000 0.500000
O O18 0.783344 0.250000 0.844664
O O19 0.759872 0.966776 0.900466
O O20 0.727351 0.750000 0.057551
O O21 0.756828 0.000000 0.000000
#
# Coordination Sequence:
#
# PCOD9534183 Si02
#       8
#    16  16   8  16  16   8  16  16
#     4   9  15  22  36  58  86 119 150 178 216 271
#     4   9  16  28  43  61  88 119 148 181 226 270
#     4  10  20  34  51  71  97 127 158 194 233 276
#     4   8  15  25  36  52  77 106 135 172 215 254
#     4   8  14  23  35  56  83 112 146 179 214 263
#     4  10  18  26  37  53  73 103 138 170 209 252
#     4   8  15  26  39  56  82 115 148 183 223 269
#     4   9  16  27  41  57  79 109 144 179 216 256
#
# _framework density 23.410948999999999
#
# number of rings (size 3 to 8) (size 9 to 14) (size 15 to 20)
#    0.000    3.286    0.714    2.143    1.000    1.143 
#    0.000    2.857    0.000    0.000    0.000    0.000 
#    0.000    6.857    0.000    6.429    0.000    7.143 
#
# Total GULP energy -311971.315082 kJ/mol
# GULP energy per Si atom -5570.916341 kJ/mol
# Density = 2.335766 g / cm^3
# Si number density = 23.410949 Si / 1000 Ang^3
#
#
#
# Elastic Constant Matrix: (Units=GPa)
#
#
# Indices 1 2 3 4 5 6 
#
# 1 229.8602 8.0159 73.8841 0.0000 0.0000 0.0000
# 2 8.0159 93.4838 -1.3814 0.0000 0.0000 0.0000
# 3 73.8841 -1.3814 113.8106 0.0000 0.0000 0.0000
# 4 0.0000 0.0000 0.0000 4.3030 0.0000 0.0000
# 5 0.0000 0.0000 0.0000 0.0000 18.1243 0.0000
# 6 0.0000 0.0000 0.0000 0.0000 0.0000 -18.4960
#
#
#
# Elastic Compliance Matrix: (Units=1/GPa)
#
#
# Indices 1 2 3 4 5 6 
#
# 1 0.005523 -0.000527 -0.003592 0.000000 0.000000 0.000000
# 2 -0.000527 0.010749 0.000472 0.000000 0.000000 0.000000
# 3 -0.003592 0.000472 0.011124 0.000000 0.000000 0.000000
# 4 0.000000 0.000000 0.000000 0.232398 0.000000 0.000000
# 5 0.000000 0.000000 0.000000 0.000000 0.055175 0.000000
# 6 0.000000 0.000000 0.000000 0.000000 0.000000 -0.054066
#
#
# Mechanical properties :
#
#
# Convention : Reuss Voigt Hill
#
# Bulk Modulus (GPa) = 49.74141 66.46575 58.10358
# Shear Modulus (GPa) = 18.18854 24.56198 21.37526
#
# Velocity S-wave (km/s) = 2.79036 3.24260 3.02494
# Velocity P-wave (km/s) = 5.62803 6.51704 6.08878
#
# Compressibility (1/GPa) = 0.02010397
#
# Stress axis : x y z
#
# Youngs Moduli (GPa) = 181.04598 93.03036 89.89395
#
# Poissons Ratio (x) = 0.04900 0.32291
# Poissons Ratio (y) = 0.09536 -0.04246
# Poissons Ratio (z) = 0.65034 -0.04395
#
# Static dielectric constant tensor:
#      x y z
#    x 1.970730 0.000000 0.000000 
#    y 0.000000 1.934300 0.000000 
#    z 0.000000 0.000000 1.859430 
# 
# From -- ./inp_files/62082.got.cif
#   From: 2010.05.17/outbox.cif.g08.bks.cpg/sg74_32_cif.got.tgz:62082.got - 2010.06.03 17:57:02.
