data_PCOD9534632
_publ_section_title
;
Structure prediction by ZEFSAII (Michael W. Deem and Ramdas Pophale) SiO2 
 PCOD9534632
Probable space group: I M M A
;
_chemical_formula_sum "Si O2"
_cell_formula_units_Z 64
_cell_length_a 22.671947
_cell_length_b 8.143347
_cell_length_c 21.041358
_cell_angle_alpha 90.000000
_cell_angle_beta 90.000000
_cell_angle_gamma 90.000000
_cell_volume 3884.771906
_symmetry_space_group_name_H-M "I M M A"
_symmetry_group_IT_number 74
_symmetry_cell_setting 'orthorhombic'
loop_
_space_group_symop_operation_xyz
x,y,z
-x,1/2-y,z
x,-y,-z
-x,1/2+y,-z
-x,-y,-z
x,1/2+y,-z
-x,y,z
x,1/2-y,z
1/2+x,1/2+y,1/2+z
1/2-x,-y,1/2+z
1/2+x,1/2-y,1/2-z
1/2-x,y,1/2-z
1/2-x,1/2-y,1/2-z
1/2+x,y,1/2-z
1/2-x,1/2+y,1/2+z
1/2+x,-y,1/2+z
loop_
_atom_site_type_symbol
_atom_site_label
_atom_site_fract_x
_atom_site_fract_y
_atom_site_fract_z
Si Si1 0.434805 0.062872 0.613523
Si Si2 0.685092 0.250000 0.213357
Si Si3 0.814922 0.052765 0.067151
Si Si4 0.270551 0.929828 0.176116
Si Si5 0.065581 0.750000 0.793208
O O1 0.500000 0.054063 0.583508
O O2 0.428399 0.250000 0.638921
O O3 0.380057 0.024649 0.568860
O O4 0.432760 0.916556 0.664946
O O5 0.750000 0.250000 0.250000
O O6 0.685707 0.416896 0.173522
O O7 0.626996 0.250000 0.255744
O O8 0.816765 0.250000 0.072834
O O9 0.781816 0.976985 0.128064
O O10 0.786908 0.000000 0.000000
O O11 0.293848 0.750000 0.159433
O O12 0.250000 0.920743 0.250000
O O13 0.000000 0.750000 0.761438
#
# Coordination Sequence:
#
# PCOD9534632 Si02
#       5
#    16   8  16  16   8
#     4  10  20  34  50  70 101 143 189 229 266 310
#     4  10  18  30  52  76 102 140 180 217 267 329
#     4  12  23  36  53  75 107 142 184 233 277 323
#     4  10  20  34  53  76 102 135 174 220 271 328
#     4  10  20  34  54  80 112 144 184 231 274 319
#
# _framework density 16.474582999999999
#
# number of rings (size 3 to 8) (size 9 to 14) (size 15 to 20)
#    0.000    1.500    2.500    5.250    0.000    3.500 
#    0.000    0.000    0.000    0.000    0.000    0.000 
#    0.000    1.000    0.000    0.000    0.000    0.000 
#
# Total GULP energy -178147.966196 kJ/mol
# GULP energy per Si atom -5567.123944 kJ/mol
# Density = 1.643709 g / cm^3
# Si number density = 16.474583 Si / 1000 Ang^3
#
#
#
# Elastic Constant Matrix: (Units=GPa)
#
#
# Indices 1 2 3 4 5 6 
#
# 1 75.6739 27.6624 44.5202 0.0000 0.0000 0.0000
# 2 27.6624 179.0924 26.7496 0.0000 0.0000 0.0000
# 3 44.5202 26.7496 77.2907 0.0000 0.0000 0.0000
# 4 0.0000 0.0000 0.0000 14.2615 0.0000 0.0000
# 5 0.0000 0.0000 0.0000 0.0000 10.2615 0.0000
# 6 0.0000 0.0000 0.0000 0.0000 0.0000 -29.0693
#
#
#
# Elastic Compliance Matrix: (Units=1/GPa)
#
#
# Indices 1 2 3 4 5 6 
#
# 1 0.020348 -0.001468 -0.011212 0.000000 0.000000 0.000000
# 2 -0.001468 0.005994 -0.001229 0.000000 0.000000 0.000000
# 3 -0.011212 -0.001229 0.019822 0.000000 0.000000 0.000000
# 4 0.000000 0.000000 0.000000 0.070119 0.000000 0.000000
# 5 0.000000 0.000000 0.000000 0.000000 0.097451 0.000000
# 6 0.000000 0.000000 0.000000 0.000000 0.000000 -0.034401
#
#
# Mechanical properties :
#
#
# Convention : Reuss Voigt Hill
#
# Bulk Modulus (GPa) = 54.51096 58.88018 56.69557
# Shear Modulus (GPa) = 23.44478 14.63238 19.03858
#
# Velocity S-wave (km/s) = 3.77648 2.98347 3.40315
# Velocity P-wave (km/s) = 7.22326 6.90548 7.06616
#
# Compressibility (1/GPa) = 0.01834493
#
# Stress axis : x y z
#
# Youngs Moduli (GPa) = 49.14563 166.83300 50.44933
#
# Poissons Ratio (x) = 0.24494 0.56566
# Poissons Ratio (y) = 0.07215 0.06199
# Poissons Ratio (z) = 0.55104 0.20500
#
# Static dielectric constant tensor:
#      x y z
#    x 1.564380 0.000000 0.000000 
#    y 0.000000 1.619540 0.000000 
#    z 0.000000 0.000000 1.689290 
# 
# From -- ./inp_files/39130.got.cif
#   From: 2010.05.17/outbox.cif.g08.bks.cpg/sg74_20_cif.got.tgz:39130.got - 2010.06.03 17:57:02.
