data_PCOD9534300
_publ_section_title
;
Structure prediction by ZEFSAII (Michael W. Deem and Ramdas Pophale) SiO2 
 PCOD9534300
Probable space group: I M M A
;
_chemical_formula_sum "Si O2"
_cell_formula_units_Z 80
_cell_length_a 8.476268
_cell_length_b 19.319410
_cell_length_c 23.012659
_cell_angle_alpha 90.000000
_cell_angle_beta 90.000000
_cell_angle_gamma 90.000000
_cell_volume 3768.472419
_symmetry_space_group_name_H-M "I M M A"
_symmetry_group_IT_number 74
_symmetry_cell_setting 'orthorhombic'
loop_
_space_group_symop_operation_xyz
x,y,z
-x,1/2-y,z
x,-y,-z
-x,1/2+y,-z
-x,-y,-z
x,1/2+y,-z
-x,y,z
x,1/2-y,z
1/2+x,1/2+y,1/2+z
1/2-x,-y,1/2+z
1/2+x,1/2-y,1/2-z
1/2-x,y,1/2-z
1/2-x,1/2-y,1/2-z
1/2+x,y,1/2-z
1/2-x,1/2+y,1/2+z
1/2+x,-y,1/2+z
loop_
_atom_site_type_symbol
_atom_site_label
_atom_site_fract_x
_atom_site_fract_y
_atom_site_fract_z
Si Si1 0.687944 0.963595 0.877642
Si Si2 0.315389 0.892086 0.375155
Si Si3 0.312230 0.895858 0.994320
Si Si4 0.814350 0.750000 0.987964
Si Si5 0.184556 0.750000 0.382678
Si Si6 0.810494 0.173578 0.183952
O O1 0.500000 0.970961 0.875984
O O2 0.732888 0.951122 0.945387
O O3 0.738692 0.893563 0.846120
O O4 0.762684 0.033187 0.851769
O O5 0.273320 0.898482 0.443890
O O6 0.226131 0.823129 0.353056
O O7 0.000000 0.881903 0.132588
O O8 0.500000 0.900420 0.004609
O O9 0.268184 0.820519 0.968539
O O10 0.000000 0.750000 0.974455
O O11 0.787904 0.750000 0.058164
O O12 0.000000 0.750000 0.398652
O O13 0.767624 0.250000 0.159468
O O14 0.750000 0.173125 0.250000
O O15 0.000000 0.168448 0.182243
#
# Coordination Sequence:
#
# PCOD9534300 Si02
#       6
#    16  16  16   8   8  16
#     4  11  23  36  54  79 108 143 184 228 278 334
#     4  11  21  34  52  77 109 145 186 230 275 325
#     4  10  20  33  48  70 105 146 185 226 273 326
#     4  10  18  28  44  66  95 134 181 224 264 312
#     4  10  18  32  52  70  99 140 181 218 262 318
#     4  10  22  41  63  86 112 144 183 232 286 338
#
# _framework density 21.228760999999999
#
# number of rings (size 3 to 8) (size 9 to 14) (size 15 to 20)
#    0.000    1.600    0.000    8.400    1.400    6.800 
#    0.000    0.000    0.000    0.000    0.000    0.700 
#    0.000    0.000    0.000    0.000    0.000    0.000 
#
# Total GULP energy -223449.611868 kJ/mol
# GULP energy per Si atom -5586.240297 kJ/mol
# Density = 2.118044 g / cm^3
# Si number density = 21.228761 Si / 1000 Ang^3
#
#
#
# Elastic Constant Matrix: (Units=GPa)
#
#
# Indices 1 2 3 4 5 6 
#
# 1 53.1772 22.1653 -1.8468 0.0000 0.0000 0.0000
# 2 22.1653 180.4918 11.1932 0.0000 0.0000 0.0000
# 3 -1.8468 11.1932 16.5794 0.0000 0.0000 0.0000
# 4 0.0000 0.0000 0.0000 24.8473 0.0000 0.0000
# 5 0.0000 0.0000 0.0000 0.0000 17.7505 0.0000
# 6 0.0000 0.0000 0.0000 0.0000 0.0000 28.2351
#
#
#
# Elastic Compliance Matrix: (Units=1/GPa)
#
#
# Indices 1 2 3 4 5 6 
#
# 1 0.020080 -0.002718 0.004072 0.000000 0.000000 0.000000
# 2 -0.002718 0.006151 -0.004455 0.000000 0.000000 0.000000
# 3 0.004072 -0.004455 0.063777 0.000000 0.000000 0.000000
# 4 0.000000 0.000000 0.000000 0.040246 0.000000 0.000000
# 5 0.000000 0.000000 0.000000 0.000000 0.056336 0.000000
# 6 0.000000 0.000000 0.000000 0.000000 0.000000 0.035417
#
#
# Mechanical properties :
#
#
# Convention : Reuss Voigt Hill
#
# Bulk Modulus (GPa) = 11.93259 34.80797 23.37028
# Shear Modulus (GPa) = 19.52024 28.74903 24.13464
#
# Velocity S-wave (km/s) = 3.03565 3.68400 3.37543
# Velocity P-wave (km/s) = 4.23320 5.87606 5.12094
#
# Compressibility (1/GPa) = 0.08380407
#
# Stress axis : x y z
#
# Youngs Moduli (GPa) = 49.80193 162.58746 15.67958
#
# Poissons Ratio (x) = 0.44198 -0.06385
# Poissons Ratio (y) = 0.13538 0.06986
# Poissons Ratio (z) = -0.20279 0.72436
#
# Static dielectric constant tensor:
#      x y z
#    x 1.711690 0.000000 0.000000 
#    y 0.000000 1.872930 0.000000 
#    z 0.000000 0.000000 1.754270 
# 
# From -- ./inp_files/56889.got.cif
#   From: 2010.05.17/outbox.cif.g08.bks.cpg/sg74_29_cif.got.tgz:56889.got - 2010.06.03 17:57:02.
