data_PCOD9534067
_publ_section_title
;
Structure prediction by ZEFSAII (Michael W. Deem and Ramdas Pophale) SiO2 
 PCOD9534067
Probable space group: I M M A
;
_chemical_formula_sum "Si O2"
_cell_formula_units_Z 128
_cell_length_a 19.659225
_cell_length_b 16.302780
_cell_length_c 23.292547
_cell_angle_alpha 90.000000
_cell_angle_beta 90.000000
_cell_angle_gamma 90.000000
_cell_volume 7465.261783
_symmetry_space_group_name_H-M "I M M A"
_symmetry_group_IT_number 74
_symmetry_cell_setting 'orthorhombic'
loop_
_space_group_symop_operation_xyz
x,y,z
-x,1/2-y,z
x,-y,-z
-x,1/2+y,-z
-x,-y,-z
x,1/2+y,-z
-x,y,z
x,1/2-y,z
1/2+x,1/2+y,1/2+z
1/2-x,-y,1/2+z
1/2+x,1/2-y,1/2-z
1/2-x,y,1/2-z
1/2-x,1/2-y,1/2-z
1/2+x,y,1/2-z
1/2-x,1/2+y,1/2+z
1/2+x,-y,1/2+z
loop_
_atom_site_type_symbol
_atom_site_label
_atom_site_fract_x
_atom_site_fract_y
_atom_site_fract_z
Si Si1 0.423344 0.436758 0.131917
Si Si2 0.134943 0.158484 0.752912
Si Si3 0.575866 0.925065 0.045406
Si Si4 0.744738 0.106968 0.835099
Si Si5 0.782392 0.076680 0.191612
Si Si6 0.076175 0.980808 0.763979
Si Si7 0.289175 0.347386 0.086865
Si Si8 0.783799 0.654434 0.460879
O O1 0.500000 0.406777 0.116926
O O2 0.418824 0.528303 0.106066
O O3 0.417704 0.442741 0.200196
O O4 0.361823 0.386125 0.104549
O O5 0.105110 0.250000 0.754594
O O6 0.190439 0.148386 0.804272
O O7 0.179004 0.147573 0.694514
O O8 0.087397 0.079017 0.758586
O O9 0.500000 0.892051 0.037740
O O10 0.635066 0.860148 0.039966
O O11 0.584895 0.000000 0.000000
O O12 0.744850 0.112833 0.903591
O O13 0.746168 0.011794 0.817088
O O14 0.750000 0.112357 0.250000
O O15 0.763253 0.129519 0.136706
O O16 0.861789 0.057041 0.200004
O O17 0.000000 0.964388 0.785568
O O18 0.297355 0.250000 0.082657
O O19 0.264507 0.377732 0.024174
O O20 0.766919 0.750000 0.456547
#
# Coordination Sequence:
#
# PCOD9534067 Si02
#       8
#    16  16  16  16  16  16  16  16
#     4  10  19  34  51  70 101 138 178 216 251 299
#     4  10  17  29  50  77 107 138 168 204 257 304
#     4  10  19  30  46  65  92 139 184 212 243 288
#     4  10  18  31  52  77 104 140 174 206 247 305
#     4  11  19  36  57  77  98 133 174 214 261 309
#     4  10  20  34  52  75 101 131 169 215 258 305
#     4  11  23  35  50  75 103 135 173 219 270 307
#     4  11  22  32  47  74 107 134 170 220 257 299
#
# _framework density 17.146083000000001
#
# number of rings (size 3 to 8) (size 9 to 14) (size 15 to 20)
#    0.000    1.625    5.000    3.000    0.000    1.000 
#    0.000    1.250    0.000    4.125    0.000    7.000 
#    0.000    4.000    0.000    0.000    0.000    0.000 
#
# Total GULP energy -357003.091741 kJ/mol
# GULP energy per Si atom -5578.173308 kJ/mol
# Density = 1.710706 g / cm^3
# Si number density = 17.146083 Si / 1000 Ang^3
#
#
#
# Elastic Constant Matrix: (Units=GPa)
#
#
# Indices 1 2 3 4 5 6 
#
# 1 71.6690 6.7333 34.7751 0.0000 0.0000 0.0000
# 2 6.7333 15.7722 13.4494 0.0000 0.0000 0.0000
# 3 34.7751 13.4494 122.3128 0.0000 0.0000 0.0000
# 4 0.0000 0.0000 0.0000 19.7491 0.0000 0.0000
# 5 0.0000 0.0000 0.0000 0.0000 16.9464 0.0000
# 6 0.0000 0.0000 0.0000 0.0000 0.0000 11.5489
#
#
#
# Elastic Compliance Matrix: (Units=1/GPa)
#
#
# Indices 1 2 3 4 5 6 
#
# 1 0.016343 -0.003327 -0.004281 0.000000 0.000000 0.000000
# 2 -0.003327 0.070640 -0.006822 0.000000 0.000000 0.000000
# 3 -0.004281 -0.006822 0.010143 0.000000 0.000000 0.000000
# 4 0.000000 0.000000 0.000000 0.050635 0.000000 0.000000
# 5 0.000000 0.000000 0.000000 0.000000 0.059009 0.000000
# 6 0.000000 0.000000 0.000000 0.000000 0.000000 0.086588
#
#
# Mechanical properties :
#
#
# Convention : Reuss Voigt Hill
#
# Bulk Modulus (GPa) = 14.64827 35.51884 25.08355
# Shear Modulus (GPa) = 14.49395 19.96865 17.23130
#
# Velocity S-wave (km/s) = 2.91059 3.41635 3.17357
# Velocity P-wave (km/s) = 4.45614 6.02680 5.29998
#
# Compressibility (1/GPa) = 0.06826746
#
# Stress axis : x y z
#
# Youngs Moduli (GPa) = 61.18982 14.15635 98.59113
#
# Poissons Ratio (x) = 0.04709 0.42203
# Poissons Ratio (y) = 0.20355 0.67256
# Poissons Ratio (z) = 0.26193 0.09657
#
# Static dielectric constant tensor:
#      x y z
#    x 1.582040 0.000000 0.000000 
#    y 0.000000 1.585440 0.000000 
#    z 0.000000 0.000000 1.622200 
# 
# From -- ./inp_files/54186.got.cif
#   From: 2010.05.17/outbox.cif.g08.bks.cpg/sg74_28_cif.got.tgz:54186.got - 2010.06.03 17:57:02.
