data_PCOD9534848
_publ_section_title
;
Structure prediction by ZEFSAII (Michael W. Deem and Ramdas Pophale) SiO2 
 PCOD9534848
Probable space group: I M M A
;
_chemical_formula_sum "Si O2"
_cell_formula_units_Z 112
_cell_length_a 27.432764
_cell_length_b 14.817162
_cell_length_c 16.394844
_cell_angle_alpha 90.000000
_cell_angle_beta 90.000000
_cell_angle_gamma 90.000000
_cell_volume 6664.105827
_symmetry_space_group_name_H-M "I M M A"
_symmetry_group_IT_number 74
_symmetry_cell_setting 'orthorhombic'
loop_
_space_group_symop_operation_xyz
x,y,z
-x,1/2-y,z
x,-y,-z
-x,1/2+y,-z
-x,-y,-z
x,1/2+y,-z
-x,y,z
x,1/2-y,z
1/2+x,1/2+y,1/2+z
1/2-x,-y,1/2+z
1/2+x,1/2-y,1/2-z
1/2-x,y,1/2-z
1/2-x,1/2-y,1/2-z
1/2+x,y,1/2-z
1/2-x,1/2+y,1/2+z
1/2+x,-y,1/2+z
loop_
_atom_site_type_symbol
_atom_site_label
_atom_site_fract_x
_atom_site_fract_y
_atom_site_fract_z
Si Si1 0.749661 0.347715 0.848078
Si Si2 0.709077 0.354759 0.380635
Si Si3 0.882933 0.893109 0.991361
Si Si4 0.861230 0.150384 0.835771
Si Si5 0.302839 0.025195 0.089376
Si Si6 0.357249 0.459123 0.251592
Si Si7 0.055670 0.143353 0.165062
O O1 0.730358 0.250000 0.875136
O O2 0.750000 0.349365 0.750000
O O3 0.806171 0.354090 0.870488
O O4 0.721047 0.432409 0.879420
O O5 0.716745 0.250000 0.357040
O O6 0.666580 0.357173 0.449009
O O7 0.758783 0.401607 0.411368
O O8 0.686208 0.414772 0.306780
O O9 0.925348 0.872525 0.927041
O O10 0.892714 0.857745 0.082127
O O11 0.876417 0.000000 0.000000
O O12 0.867396 0.250000 0.797765
O O13 0.864759 0.063841 0.777570
O O14 0.341953 0.051170 0.157980
O O15 0.321874 0.000000 0.000000
O O16 0.406106 0.407656 0.277514
O O17 0.058507 0.250000 0.181127
O O18 0.000000 0.113245 0.174653
#
# Coordination Sequence:
#
# PCOD9534848 Si02
#       7
#    16  16  16  16  16  16  16
#     4  10  18  32  51  71 103 146 188 218 246 300
#     4  11  21  34  52  76 110 152 186 216 260 314
#     4  11  18  33  54  80 111 142 173 213 261 312
#     4  11  19  30  51  76 107 148 183 212 253 308
#     4  12  23  34  50  77 112 141 181 228 270 308
#     4  11  21  37  54  77 106 142 184 224 269 320
#     4  10  22  40  61  82 106 137 175 221 271 328
#
# _framework density 16.806456000000001
#
# number of rings (size 3 to 8) (size 9 to 14) (size 15 to 20)
#    0.000    1.143    5.714    4.286    0.000    3.714 
#    0.000    0.000    0.000    0.857    0.000    0.000 
#    0.000    0.000    0.000    0.000    0.000    0.000 
#
# Total GULP energy -312489.364758 kJ/mol
# GULP energy per Si atom -5580.167228 kJ/mol
# Density = 1.676820 g / cm^3
# Si number density = 16.806456 Si / 1000 Ang^3
#
#
#
# Elastic Constant Matrix: (Units=GPa)
#
#
# Indices 1 2 3 4 5 6 
#
# 1 74.0131 17.1938 33.1823 0.0000 0.0000 0.0000
# 2 17.1938 106.5404 13.4197 0.0000 0.0000 0.0000
# 3 33.1823 13.4197 88.3936 0.0000 0.0000 0.0000
# 4 0.0000 0.0000 0.0000 7.6192 0.0000 0.0000
# 5 0.0000 0.0000 0.0000 0.0000 8.9402 0.0000
# 6 0.0000 0.0000 0.0000 0.0000 0.0000 13.4691
#
#
#
# Elastic Compliance Matrix: (Units=1/GPa)
#
#
# Indices 1 2 3 4 5 6 
#
# 1 0.016627 -0.001934 -0.005948 0.000000 0.000000 0.000000
# 2 -0.001934 0.009794 -0.000761 0.000000 0.000000 0.000000
# 3 -0.005948 -0.000761 0.013661 0.000000 0.000000 0.000000
# 4 0.000000 0.000000 0.000000 0.131247 0.000000 0.000000
# 5 0.000000 0.000000 0.000000 0.000000 0.111854 0.000000
# 6 0.000000 0.000000 0.000000 0.000000 0.000000 0.074244
#
#
# Mechanical properties :
#
#
# Convention : Reuss Voigt Hill
#
# Bulk Modulus (GPa) = 43.86636 44.05987 43.96312
# Shear Modulus (GPa) = 13.07829 19.68245 16.38037
#
# Velocity S-wave (km/s) = 2.79260 3.42588 3.12532
# Velocity P-wave (km/s) = 6.04613 6.47471 6.26409
#
# Compressibility (1/GPa) = 0.02279651
#
# Stress axis : x y z
#
# Youngs Moduli (GPa) = 60.14267 102.10242 73.19884
#
# Poissons Ratio (x) = 0.19748 0.43539
# Poissons Ratio (y) = 0.11632 0.05569
# Poissons Ratio (z) = 0.35773 0.07769
#
# Static dielectric constant tensor:
#      x y z
#    x 1.560770 0.000000 0.000000 
#    y 0.000000 1.610020 0.000000 
#    z 0.000000 0.000000 1.615140 
# 
# From -- ./inp_files/37936.got.cif
#   From: 2010.05.17/outbox.cif.g08.bks.cpg/sg74_19_cif.got.tgz:37936.got - 2010.06.03 17:57:02.
