data_PCOD9534025
_publ_section_title
;
Structure prediction by ZEFSAII (Michael W. Deem and Ramdas Pophale) SiO2 
 PCOD9534025
Probable space group: I M M A
;
_chemical_formula_sum "Si O2"
_cell_formula_units_Z 112
_cell_length_a 26.195834
_cell_length_b 15.012090
_cell_length_c 10.994967
_cell_angle_alpha 90.000000
_cell_angle_beta 90.000000
_cell_angle_gamma 90.000000
_cell_volume 4323.817145
_symmetry_space_group_name_H-M "I M M A"
_symmetry_group_IT_number 74
_symmetry_cell_setting 'orthorhombic'
loop_
_space_group_symop_operation_xyz
x,y,z
-x,1/2-y,z
x,-y,-z
-x,1/2+y,-z
-x,-y,-z
x,1/2+y,-z
-x,y,z
x,1/2-y,z
1/2+x,1/2+y,1/2+z
1/2-x,-y,1/2+z
1/2+x,1/2-y,1/2-z
1/2-x,y,1/2-z
1/2-x,1/2-y,1/2-z
1/2+x,y,1/2-z
1/2-x,1/2+y,1/2+z
1/2+x,-y,1/2+z
loop_
_atom_site_type_symbol
_atom_site_label
_atom_site_fract_x
_atom_site_fract_y
_atom_site_fract_z
Si Si1 0.944653 0.647917 0.488193
Si Si2 0.057579 0.605471 0.034357
Si Si3 0.557257 0.900076 0.729058
Si Si4 0.666113 0.353021 0.005340
Si Si5 0.669215 0.463649 0.245411
Si Si6 0.347199 0.846152 0.320288
Si Si7 0.276555 0.604893 0.526525
O O1 0.947834 0.750000 0.449180
O O2 0.941815 0.644401 0.636790
O O3 0.888211 0.616753 0.444642
O O4 0.000000 0.604944 0.454958
O O5 0.061884 0.650317 0.900271
O O6 0.000000 0.617442 0.075367
O O7 0.065705 0.500000 0.000000
O O8 0.094579 0.638531 0.139806
O O9 0.500000 0.941218 0.723283
O O10 0.609226 0.955447 0.726802
O O11 0.655681 0.250000 0.043194
O O12 0.674005 0.423358 0.113581
O O13 0.725497 0.352955 0.969757
O O14 0.679041 0.568887 0.256148
O O15 0.703754 0.401917 0.333805
O O16 0.340128 0.750000 0.258441
O O17 0.321313 0.848986 0.452421
O O18 0.275423 0.500000 0.500000
#
# Coordination Sequence:
#
# PCOD9534025 Si02
#       7
#    16  16  16  16  16  16  16
#     4   8  15  27  43  69 101 124 146 184 238 294
#     4  10  17  28  43  61  91 133 177 216 245 274
#     4   9  15  25  43  61  89 130 166 203 245 283
#     4  10  20  33  55  81 100 124 161 202 244 294
#     4  10  19  33  47  70  99 129 166 207 250 287
#     4  11  21  32  47  67  98 138 174 206 242 290
#     4  10  20  35  51  70  98 128 160 203 256 297
#
# _framework density 25.903037999999999
#
# number of rings (size 3 to 8) (size 9 to 14) (size 15 to 20)
#    0.000    2.286    2.857    1.286    0.000    2.571 
#    0.000    1.429    0.000    8.143    0.000    0.000 
#    0.000    0.000    0.000    3.286    0.000    0.000 
#
# Total GULP energy -311964.106574 kJ/mol
# GULP energy per Si atom -5570.787617 kJ/mol
# Density = 2.584408 g / cm^3
# Si number density = 25.903038 Si / 1000 Ang^3
#
#
#
# Elastic Constant Matrix: (Units=GPa)
#
#
# Indices 1 2 3 4 5 6 
#
# 1 149.8189 16.2645 16.3616 0.0000 0.0000 0.0000
# 2 16.2645 108.7297 9.2557 0.0000 0.0000 0.0000
# 3 16.3616 9.2557 53.2816 0.0000 0.0000 0.0000
# 4 0.0000 0.0000 0.0000 2.2302 0.0000 0.0000
# 5 0.0000 0.0000 0.0000 0.0000 26.4218 0.0000
# 6 0.0000 0.0000 0.0000 0.0000 0.0000 11.5534
#
#
#
# Elastic Compliance Matrix: (Units=1/GPa)
#
#
# Indices 1 2 3 4 5 6 
#
# 1 0.006987 -0.000876 -0.001994 0.000000 0.000000 0.000000
# 2 -0.000876 0.009445 -0.001372 0.000000 0.000000 0.000000
# 3 -0.001994 -0.001372 0.019619 0.000000 0.000000 0.000000
# 4 0.000000 0.000000 0.000000 0.448386 0.000000 0.000000
# 5 0.000000 0.000000 0.000000 0.000000 0.037848 0.000000
# 6 0.000000 0.000000 0.000000 0.000000 0.000000 0.086554
#
#
# Mechanical properties :
#
#
# Convention : Reuss Voigt Hill
#
# Bulk Modulus (GPa) = 36.27247 43.95484 40.11365
# Shear Modulus (GPa) = 7.98072 26.03766 17.00919
#
# Velocity S-wave (km/s) = 1.75718 3.17392 2.56529
# Velocity P-wave (km/s) = 4.26034 5.51702 4.92890
#
# Compressibility (1/GPa) = 0.02756912
#
# Stress axis : x y z
#
# Youngs Moduli (GPa) = 143.11278 105.87762 50.97178
#
# Poissons Ratio (x) = 0.09270 0.10162
# Poissons Ratio (y) = 0.12530 0.06992
# Poissons Ratio (z) = 0.28531 0.14525
#
# Static dielectric constant tensor:
#      x y z
#    x 2.138040 0.000000 0.000000 
#    y 0.000000 2.048000 0.000000 
#    z 0.000000 0.000000 2.168590 
# 
# From -- ./inp_files/37408.got.cif
#   From: 2010.05.17/outbox.cif.g08.bks.cpg/sg74_19_cif.got.tgz:37408.got - 2010.06.03 17:57:02.
