data_PCOD9534935
_publ_section_title
;
Structure prediction by ZEFSAII (Michael W. Deem and Ramdas Pophale) SiO2 
 PCOD9534935
Probable space group: I M M A
;
_chemical_formula_sum "Si O2"
_cell_formula_units_Z 112
_cell_length_a 25.826388
_cell_length_b 15.452240
_cell_length_c 14.277243
_cell_angle_alpha 90.000000
_cell_angle_beta 90.000000
_cell_angle_gamma 90.000000
_cell_volume 5697.698541
_symmetry_space_group_name_H-M "I M M A"
_symmetry_group_IT_number 74
_symmetry_cell_setting 'orthorhombic'
loop_
_space_group_symop_operation_xyz
x,y,z
-x,1/2-y,z
x,-y,-z
-x,1/2+y,-z
-x,-y,-z
x,1/2+y,-z
-x,y,z
x,1/2-y,z
1/2+x,1/2+y,1/2+z
1/2-x,-y,1/2+z
1/2+x,1/2-y,1/2-z
1/2-x,y,1/2-z
1/2-x,1/2-y,1/2-z
1/2+x,y,1/2-z
1/2-x,1/2+y,1/2+z
1/2+x,-y,1/2+z
loop_
_atom_site_type_symbol
_atom_site_label
_atom_site_fract_x
_atom_site_fract_y
_atom_site_fract_z
Si Si1 0.789999 0.907167 0.525098
Si Si2 0.603000 0.649563 0.344254
Si Si3 0.397562 0.093237 0.459670
Si Si4 0.059571 0.025053 0.232321
Si Si5 0.224612 0.853406 0.155237
Si Si6 0.137607 0.652859 0.674690
Si Si7 0.202995 0.652641 0.857685
O O1 0.760207 0.872718 0.434175
O O2 0.835342 0.853918 0.574128
O O3 0.744291 0.913936 0.602490
O O4 0.811721 0.000000 0.500000
O O5 0.599057 0.750000 0.313131
O O6 0.580123 0.641385 0.449731
O O7 0.577249 0.574700 0.281743
O O8 0.663993 0.623481 0.352786
O O9 0.432629 0.071085 0.369870
O O10 0.348208 0.144181 0.420844
O O11 0.380841 0.000000 0.500000
O O12 0.096158 0.078972 0.302242
O O13 0.000000 0.028926 0.259571
O O14 0.223701 0.750000 0.163229
O O15 0.250000 0.890158 0.250000
O O16 0.116598 0.750000 0.689539
O O17 0.182837 0.640952 0.752859
O O18 0.224699 0.750000 0.868258
#
# Coordination Sequence:
#
# PCOD9534935 Si02
#       7
#    16  16  16  16  16  16  16
#     4  12  24  33  57  89 124 161 200 248 302 373
#     4  10  20  35  58  87 127 172 208 250 310 382
#     4   9  17  30  51  81 117 159 203 248 302 369
#     4  10  23  40  61  87 120 159 212 276 324 370
#     4  10  22  37  56  85 124 167 201 237 289 362
#     4  10  23  41  62  88 121 163 213 262 311 369
#     4  10  18  32  54  82 119 161 199 243 296 359
#
# _framework density 19.657060000000001
#
# number of rings (size 3 to 8) (size 9 to 14) (size 15 to 20)
#    0.000    1.857    1.429    2.571    6.000    4.857 
#    0.000    0.000    0.000    0.429    0.000    0.000 
#    0.000    0.000    0.000    0.000    0.000    0.000 
#
# Total GULP energy -312449.934398 kJ/mol
# GULP energy per Si atom -5579.463114 kJ/mol
# Density = 1.961232 g / cm^3
# Si number density = 19.657060 Si / 1000 Ang^3
#
#
#
# Elastic Constant Matrix: (Units=GPa)
#
#
# Indices 1 2 3 4 5 6 
#
# 1 69.8684 38.3478 39.4292 0.0000 0.0000 0.0000
# 2 38.3478 86.6949 27.3592 0.0000 0.0000 0.0000
# 3 39.4292 27.3592 59.3781 0.0000 0.0000 0.0000
# 4 0.0000 0.0000 0.0000 21.9540 0.0000 0.0000
# 5 0.0000 0.0000 0.0000 0.0000 8.8007 0.0000
# 6 0.0000 0.0000 0.0000 0.0000 0.0000 13.4024
#
#
#
# Elastic Compliance Matrix: (Units=1/GPa)
#
#
# Indices 1 2 3 4 5 6 
#
# 1 0.026185 -0.007132 -0.014102 0.000000 0.000000 0.000000
# 2 -0.007132 0.015440 -0.002378 0.000000 0.000000 0.000000
# 3 -0.014102 -0.002378 0.027301 0.000000 0.000000 0.000000
# 4 0.000000 0.000000 0.000000 0.045550 0.000000 0.000000
# 5 0.000000 0.000000 0.000000 0.000000 0.113627 0.000000
# 6 0.000000 0.000000 0.000000 0.000000 0.000000 0.074614
#
#
# Mechanical properties :
#
#
# Convention : Reuss Voigt Hill
#
# Bulk Modulus (GPa) = 46.07836 47.35709 46.71773
# Shear Modulus (GPa) = 13.99871 16.21841 15.10856
#
# Velocity S-wave (km/s) = 2.67150 2.87552 2.77538
# Velocity P-wave (km/s) = 5.74525 5.93032 5.83852
#
# Compressibility (1/GPa) = 0.02170216
#
# Stress axis : x y z
#
# Youngs Moduli (GPa) = 38.18920 64.76672 36.62863
#
# Poissons Ratio (x) = 0.46194 0.51653
# Poissons Ratio (y) = 0.27238 0.08710
# Poissons Ratio (z) = 0.53854 0.15402
#
# Static dielectric constant tensor:
#      x y z
#    x 1.675800 0.000000 0.000000 
#    y 0.000000 1.696500 0.000000 
#    z 0.000000 0.000000 1.736190 
# 
# From -- ./inp_files/36521.got.cif
#   From: 2010.05.17/outbox.cif.g08.bks.cpg/sg74_19_cif.got.tgz:36521.got - 2010.06.03 17:57:02.
