data_PCOD9534522
_publ_section_title
;
Structure prediction by ZEFSAII (Michael W. Deem and Ramdas Pophale) SiO2 
 PCOD9534522
Probable space group: I M M A
;
_chemical_formula_sum "Si O2"
_cell_formula_units_Z 112
_cell_length_a 21.593691
_cell_length_b 17.546466
_cell_length_c 18.163776
_cell_angle_alpha 90.000000
_cell_angle_beta 90.000000
_cell_angle_gamma 90.000000
_cell_volume 6882.126943
_symmetry_space_group_name_H-M "I M M A"
_symmetry_group_IT_number 74
_symmetry_cell_setting 'orthorhombic'
loop_
_space_group_symop_operation_xyz
x,y,z
-x,1/2-y,z
x,-y,-z
-x,1/2+y,-z
-x,-y,-z
x,1/2+y,-z
-x,y,z
x,1/2-y,z
1/2+x,1/2+y,1/2+z
1/2-x,-y,1/2+z
1/2+x,1/2-y,1/2-z
1/2-x,y,1/2-z
1/2-x,1/2-y,1/2-z
1/2+x,y,1/2-z
1/2-x,1/2+y,1/2+z
1/2+x,-y,1/2+z
loop_
_atom_site_type_symbol
_atom_site_label
_atom_site_fract_x
_atom_site_fract_y
_atom_site_fract_z
Si Si1 0.353127 0.586319 0.528305
Si Si2 0.205398 0.840561 0.352372
Si Si3 0.072863 0.838933 0.098485
Si Si4 0.332806 0.589153 0.295145
Si Si5 0.826480 0.909250 0.808810
Si Si6 0.795272 0.589895 0.508044
Si Si7 0.310332 0.158917 0.160848
O O1 0.365447 0.500000 0.500000
O O2 0.393223 0.641518 0.477884
O O3 0.364579 0.597447 0.615304
O O4 0.279548 0.599206 0.515725
O O5 0.203114 0.750000 0.345654
O O6 0.275449 0.869163 0.335907
O O7 0.166153 0.879726 0.287643
O O8 0.186649 0.867643 0.433255
O O9 0.082262 0.750000 0.116618
O O10 0.106129 0.889979 0.160028
O O11 0.000000 0.854018 0.093408
O O12 0.318945 0.499517 0.296471
O O13 0.760092 0.870471 0.825678
O O14 0.847677 0.871903 0.731962
O O15 0.806962 0.500000 0.500000
O O16 0.826314 0.623677 0.581443
O O17 0.311532 0.250000 0.158690
#
# Coordination Sequence:
#
# PCOD9534522 Si02
#       7
#    16  16  16  16  16  16  16
#     4  10  18  32  48  69  89 129 170 207 240 291
#     4  11  19  27  47  71  95 125 159 201 240 296
#     4  11  23  36  50  69  97 129 165 215 260 292
#     4  11  19  33  47  69  94 127 166 201 248 300
#     4  10  18  30  47  63  92 128 163 199 241 292
#     4  10  18  30  46  69 100 131 165 195 242 296
#     4  10  19  29  44  70 101 132 164 201 248 302
#
# _framework density 16.274038000000001
#
# number of rings (size 3 to 8) (size 9 to 14) (size 15 to 20)
#    0.000    1.571    2.857    7.286    0.000    3.143 
#    0.000    0.000    0.000    0.000    0.000    0.000 
#    0.000    6.286    0.000    5.571    0.000    0.143 
#
# Total GULP energy -312296.711081 kJ/mol
# GULP energy per Si atom -5576.726984 kJ/mol
# Density = 1.623700 g / cm^3
# Si number density = 16.274038 Si / 1000 Ang^3
#
#
#
# Elastic Constant Matrix: (Units=GPa)
#
#
# Indices 1 2 3 4 5 6 
#
# 1 23.7157 21.1332 16.6714 0.0000 0.0000 0.0000
# 2 21.1332 109.8382 52.9159 0.0000 0.0000 0.0000
# 3 16.6714 52.9159 167.7271 0.0000 0.0000 0.0000
# 4 0.0000 0.0000 0.0000 46.3527 0.0000 0.0000
# 5 0.0000 0.0000 0.0000 0.0000 9.2878 0.0000
# 6 0.0000 0.0000 0.0000 0.0000 0.0000 16.3330
#
#
#
# Elastic Compliance Matrix: (Units=1/GPa)
#
#
# Indices 1 2 3 4 5 6 
#
# 1 0.051670 -0.008806 -0.002358 0.000000 0.000000 0.000000
# 2 -0.008806 0.012237 -0.002985 0.000000 0.000000 0.000000
# 3 -0.002358 -0.002985 0.007138 0.000000 0.000000 0.000000
# 4 0.000000 0.000000 0.000000 0.021574 0.000000 0.000000
# 5 0.000000 0.000000 0.000000 0.000000 0.107668 0.000000
# 6 0.000000 0.000000 0.000000 0.000000 0.000000 0.061226
#
#
# Mechanical properties :
#
#
# Convention : Reuss Voigt Hill
#
# Bulk Modulus (GPa) = 23.39296 53.63578 38.51437
# Shear Modulus (GPa) = 16.44412 28.43206 22.43809
#
# Velocity S-wave (km/s) = 3.18221 4.18434 3.71720
# Velocity P-wave (km/s) = 5.28276 7.50829 6.49161
#
# Compressibility (1/GPa) = 0.04274791
#
# Stress axis : x y z
#
# Youngs Moduli (GPa) = 19.35346 81.72112 140.09057
#
# Poissons Ratio (x) = 0.71961 0.33030
# Poissons Ratio (y) = 0.17042 0.41821
# Poissons Ratio (z) = 0.04563 0.24396
#
# Static dielectric constant tensor:
#      x y z
#    x 1.514100 0.000000 0.000000 
#    y 0.000000 1.545190 0.000000 
#    z 0.000000 0.000000 1.605050 
# 
# From -- ./inp_files/45458.got.cif
#   From: 2010.05.17/outbox.cif.g08.bks.cpg/sg74_23_cif.got.tgz:45458.got - 2010.06.03 17:57:02.
