data_PCOD9534590
_publ_section_title
;
Structure prediction by ZEFSAII (Michael W. Deem and Ramdas Pophale) SiO2 
 PCOD9534590
Probable space group: I M M A
;
_chemical_formula_sum "Si O2"
_cell_formula_units_Z 80
_cell_length_a 19.707919
_cell_length_b 8.026630
_cell_length_c 22.182337
_cell_angle_alpha 90.000000
_cell_angle_beta 90.000000
_cell_angle_gamma 90.000000
_cell_volume 3508.983382
_symmetry_space_group_name_H-M "I M M A"
_symmetry_group_IT_number 74
_symmetry_cell_setting 'orthorhombic'
loop_
_space_group_symop_operation_xyz
x,y,z
-x,1/2-y,z
x,-y,-z
-x,1/2+y,-z
-x,-y,-z
x,1/2+y,-z
-x,y,z
x,1/2-y,z
1/2+x,1/2+y,1/2+z
1/2-x,-y,1/2+z
1/2+x,1/2-y,1/2-z
1/2-x,y,1/2-z
1/2-x,1/2-y,1/2-z
1/2+x,y,1/2-z
1/2-x,1/2+y,1/2+z
1/2+x,-y,1/2+z
loop_
_atom_site_type_symbol
_atom_site_label
_atom_site_fract_x
_atom_site_fract_y
_atom_site_fract_z
Si Si1 0.714152 0.447305 0.877082
Si Si2 0.853507 0.452365 0.261137
Si Si3 0.500000 0.941025 0.367947
Si Si4 0.000000 0.943610 0.732210
Si Si5 0.358462 0.052910 0.377840
Si Si6 0.573273 0.048794 0.930102
O O1 0.715299 0.250000 0.884527
O O2 0.704050 0.489569 0.806486
O O3 0.784461 0.513992 0.904104
O O4 0.644410 0.517839 0.904868
O O5 0.853035 0.250000 0.260875
O O6 0.851301 0.507686 0.191824
O O7 0.927030 0.516357 0.285085
O O8 0.500000 0.750000 0.348640
O O9 0.500000 0.048614 0.306126
O O10 0.428957 0.976723 0.401359
O O11 0.000000 0.750000 0.715194
O O12 0.367608 0.250000 0.377717
O O13 0.500000 0.989340 0.904673
O O14 0.574148 0.250000 0.924401
O O15 0.572582 0.000000 0.000000
#
# Coordination Sequence:
#
# PCOD9534590 Si02
#       6
#    16  16   8   8  16  16
#     4  11  22  32  49  77 105 131 170 221 270 314
#     4   9  18  31  46  67  99 140 179 215 253 304
#     4  10  18  30  50  72  97 130 171 212 254 296
#     4   8  16  30  44  62  93 134 177 212 247 298
#     4  10  20  35  51  70 103 143 180 214 252 307
#     4   9  20  39  58  77 104 136 173 221 273 321
#
# _framework density 22.798625999999999
#
# number of rings (size 3 to 8) (size 9 to 14) (size 15 to 20)
#    0.000    2.400    0.000    3.900    1.400    8.000 
#    0.000    0.000    0.000    0.000    0.000    0.700 
#    0.000    0.000    0.000    0.000    0.000    0.000 
#
# Total GULP energy -223158.345683 kJ/mol
# GULP energy per Si atom -5578.958642 kJ/mol
# Density = 2.274674 g / cm^3
# Si number density = 22.798626 Si / 1000 Ang^3
#
#
#
# Elastic Constant Matrix: (Units=GPa)
#
#
# Indices 1 2 3 4 5 6 
#
# 1 224.2748 23.5267 13.1123 0.0000 0.0000 0.0000
# 2 23.5267 48.7287 -2.9998 0.0000 0.0000 0.0000
# 3 13.1123 -2.9998 13.4383 0.0000 0.0000 0.0000
# 4 0.0000 0.0000 0.0000 31.4616 0.0000 0.0000
# 5 0.0000 0.0000 0.0000 0.0000 25.1227 0.0000
# 6 0.0000 0.0000 0.0000 0.0000 0.0000 35.8656
#
#
#
# Elastic Compliance Matrix: (Units=1/GPa)
#
#
# Indices 1 2 3 4 5 6 
#
# 1 0.005078 -0.002795 -0.005579 0.000000 0.000000 0.000000
# 2 -0.002795 0.022346 0.007716 0.000000 0.000000 0.000000
# 3 -0.005579 0.007716 0.081580 0.000000 0.000000 0.000000
# 4 0.000000 0.000000 0.000000 0.031785 0.000000 0.000000
# 5 0.000000 0.000000 0.000000 0.000000 0.039805 0.000000
# 6 0.000000 0.000000 0.000000 0.000000 0.000000 0.027882
#
#
# Mechanical properties :
#
#
# Convention : Reuss Voigt Hill
#
# Bulk Modulus (GPa) = 9.28608 39.30226 24.29417
# Shear Modulus (GPa) = 20.35091 35.34348 27.84719
#
# Velocity S-wave (km/s) = 2.99095 3.94159 3.49870
# Velocity P-wave (km/s) = 4.00120 6.16369 5.19619
#
# Compressibility (1/GPa) = 0.10768801
#
# Stress axis : x y z
#
# Youngs Moduli (GPa) = 196.91919 44.74999 12.25785
#
# Poissons Ratio (x) = 0.12509 0.06839
# Poissons Ratio (y) = 0.55044 -0.09458
# Poissons Ratio (z) = 1.09862 -0.34528
#
# Static dielectric constant tensor:
#      x y z
#    x 1.970760 0.000000 0.000000 
#    y 0.000000 1.790590 0.000000 
#    z 0.000000 0.000000 1.886260 
# 
# From -- ./inp_files/61367.got.cif
#   From: 2010.05.17/outbox.cif.g08.bks.cpg/sg74_31_cif.got.tgz:61367.got - 2010.06.03 17:57:02.
