data_PCOD9534134
_publ_section_title
;
Structure prediction by ZEFSAII (Michael W. Deem and Ramdas Pophale) SiO2 
 PCOD9534134
Probable space group: I M M A
;
_chemical_formula_sum "Si O2"
_cell_formula_units_Z 80
_cell_length_a 24.881625
_cell_length_b 14.979022
_cell_length_c 10.939425
_cell_angle_alpha 90.000000
_cell_angle_beta 90.000000
_cell_angle_gamma 90.000000
_cell_volume 4077.150043
_symmetry_space_group_name_H-M "I M M A"
_symmetry_group_IT_number 74
_symmetry_cell_setting 'orthorhombic'
loop_
_space_group_symop_operation_xyz
x,y,z
-x,1/2-y,z
x,-y,-z
-x,1/2+y,-z
-x,-y,-z
x,1/2+y,-z
-x,y,z
x,1/2-y,z
1/2+x,1/2+y,1/2+z
1/2-x,-y,1/2+z
1/2+x,1/2-y,1/2-z
1/2-x,y,1/2-z
1/2-x,1/2-y,1/2-z
1/2+x,y,1/2-z
1/2-x,1/2+y,1/2+z
1/2+x,-y,1/2+z
loop_
_atom_site_type_symbol
_atom_site_label
_atom_site_fract_x
_atom_site_fract_y
_atom_site_fract_z
Si Si1 0.000000 0.643865 0.529195
Si Si2 0.117414 0.853572 0.229204
Si Si3 0.500000 0.141205 0.750845
Si Si4 0.268421 0.389069 0.119404
Si Si5 0.882448 0.104701 0.483203
Si Si6 0.225179 0.407266 0.868285
O O1 0.940870 0.619951 0.577523
O O2 0.000000 0.750000 0.521706
O O3 0.000000 0.605992 0.390388
O O4 0.125487 0.750000 0.193700
O O5 0.119783 0.856604 0.378260
O O6 0.162657 0.913087 0.165454
O O7 0.057097 0.883496 0.194799
O O8 0.500000 0.250000 0.757054
O O9 0.250000 0.353718 0.250000
O O10 0.255422 0.496565 0.125785
O O11 0.330581 0.367326 0.093701
O O12 0.236385 0.361468 0.997433
O O13 0.876433 0.000000 0.500000
O O14 0.250000 0.359015 0.750000
#
# Coordination Sequence:
#
# PCOD9534134 Si02
#       6
#     8  16   8  16  16  16
#     4   9  19  31  49  76 105 138 179 228 274 319
#     4  10  19  32  55  82 111 140 180 231 278 323
#     4   7  14  29  47  75 107 133 165 222 278 316
#     4  10  19  32  51  73 112 145 180 225 268 318
#     4  11  17  32  52  79 109 142 180 221 276 327
#     4  10  17  32  50  77 104 141 180 224 268 317
#
# _framework density 19.621548000000001
#
# number of rings (size 3 to 8) (size 9 to 14) (size 15 to 20)
#    0.000    2.200    4.000    3.300    0.000    0.400 
#    0.000    0.000    0.000    9.000    0.000    1.400 
#    0.000    0.000    0.000    0.000    0.000    0.000 
#
# Total GULP energy -222724.218267 kJ/mol
# GULP energy per Si atom -5568.105457 kJ/mol
# Density = 1.957689 g / cm^3
# Si number density = 19.621548 Si / 1000 Ang^3
#
#
#
# Elastic Constant Matrix: (Units=GPa)
#
#
# Indices 1 2 3 4 5 6 
#
# 1 224.2597 4.5450 57.3690 0.0000 0.0000 0.0000
# 2 4.5450 41.0403 -1.4329 0.0000 0.0000 0.0000
# 3 57.3690 -1.4329 119.1326 0.0000 0.0000 0.0000
# 4 0.0000 0.0000 0.0000 -1.0261 0.0000 0.0000
# 5 0.0000 0.0000 0.0000 0.0000 23.8697 0.0000
# 6 0.0000 0.0000 0.0000 0.0000 0.0000 70.9094
#
#
#
# Elastic Compliance Matrix: (Units=1/GPa)
#
#
# Indices 1 2 3 4 5 6 
#
# 1 0.005103 -0.000651 -0.002465 0.000000 0.000000 0.000000
# 2 -0.000651 0.024460 0.000608 0.000000 0.000000 0.000000
# 3 -0.002465 0.000608 0.009588 0.000000 0.000000 0.000000
# 4 0.000000 0.000000 0.000000 -0.974575 0.000000 0.000000
# 5 0.000000 0.000000 0.000000 0.000000 0.041894 0.000000
# 6 0.000000 0.000000 0.000000 0.000000 0.000000 0.014103
#
#
# Mechanical properties :
#
#
# Convention : Reuss Voigt Hill
#
# Bulk Modulus (GPa) = 29.29643 56.15497 42.72570
# Shear Modulus (GPa) = -5.79353 40.34736 17.27692
#
# Velocity S-wave (km/s) = -1.72019 4.53954 2.97055
# Velocity P-wave (km/s) = 3.31930 7.49385 5.79549
#
# Compressibility (1/GPa) = 0.03413385
#
# Stress axis : x y z
#
# Youngs Moduli (GPa) = 195.96521 40.88366 104.29216
#
# Poissons Ratio (x) = 0.02662 0.25710
# Poissons Ratio (y) = 0.12761 -0.06339
# Poissons Ratio (z) = 0.48309 -0.02485
#
# Static dielectric constant tensor:
#      x y z
#    x 1.791780 0.000000 0.000000 
#    y 0.000000 1.822340 0.000000 
#    z 0.000000 0.000000 1.712720 
# 
# From -- ./inp_files/25119.got.cif
#   From: 2010.05.17/outbox.cif.g08.bks.cpg/sg74_13_cif.got.tgz:25119.got - 2010.06.03 17:57:02.
