data_PCOD9534317
_publ_section_title
;
Structure prediction by ZEFSAII (Michael W. Deem and Ramdas Pophale) SiO2 
 PCOD9534317
Probable space group: I M M A
;
_chemical_formula_sum "Si O2"
_cell_formula_units_Z 76
_cell_length_a 13.581618
_cell_length_b 11.947771
_cell_length_c 31.239332
_cell_angle_alpha 90.000000
_cell_angle_beta 90.000000
_cell_angle_gamma 90.000000
_cell_volume 5069.208330
_symmetry_space_group_name_H-M "I M M A"
_symmetry_group_IT_number 74
_symmetry_cell_setting 'orthorhombic'
loop_
_space_group_symop_operation_xyz
x,y,z
-x,1/2-y,z
x,-y,-z
-x,1/2+y,-z
-x,-y,-z
x,1/2+y,-z
-x,y,z
x,1/2-y,z
1/2+x,1/2+y,1/2+z
1/2-x,-y,1/2+z
1/2+x,1/2-y,1/2-z
1/2-x,y,1/2-z
1/2-x,1/2-y,1/2-z
1/2+x,y,1/2-z
1/2-x,1/2+y,1/2+z
1/2+x,-y,1/2+z
loop_
_atom_site_type_symbol
_atom_site_label
_atom_site_fract_x
_atom_site_fract_y
_atom_site_fract_z
Si Si1 0.500000 0.250000 0.675312
Si Si2 0.000000 0.875585 0.259920
Si Si3 0.117290 0.986145 0.452274
Si Si4 0.382296 0.383313 0.131303
Si Si5 0.779072 0.250000 0.832176
Si Si6 0.615091 0.250000 0.906211
Si Si7 0.701348 0.976460 0.208076
O O1 0.500000 0.354251 0.708884
O O2 0.393503 0.250000 0.652784
O O3 0.095353 0.936386 0.276233
O O4 0.000000 0.750000 0.278423
O O5 0.150810 0.070327 0.415040
O O6 0.000000 0.006884 0.455613
O O7 0.159183 0.000000 0.500000
O O8 0.129621 0.861017 0.434370
O O9 0.500000 0.411227 0.136534
O O10 0.373444 0.250000 0.133671
O O11 0.318524 0.444658 0.167614
O O12 0.694854 0.250000 0.868442
O O13 0.760350 0.136666 0.805008
O O14 0.500000 0.250000 0.891175
O O15 0.750000 0.030703 0.250000
#
# Coordination Sequence:
#
# PCOD9534317 Si02
#       7
#     4   8  16  16   8   8  16
#     4  10  20  34  44  74 106 130 164 210 268 292
#     4  10  18  28  45  71  97 121 163 204 257 301
#     4   9  18  31  48  72 104 134 159 197 245 307
#     4  10  21  33  46  68 100 137 170 206 250 298
#     4  12  20  31  49  78 102 130 166 209 259 297
#     4  10  20  30  51  82 103 132 167 201 248 310
#     4  12  20  31  50  69  97 133 171 208 248 298
#
# _framework density 14.992478999999999
#
# number of rings (size 3 to 8) (size 9 to 14) (size 15 to 20)
#    0.316    1.263    6.316    0.316    2.947    0.421 
#    0.000    0.000    0.000    0.000    0.000    0.737 
#    0.000    0.000    0.000    0.000    0.000    0.000 
#
# Total GULP energy -211635.313416 kJ/mol
# GULP energy per Si atom -5569.350353 kJ/mol
# Density = 1.495836 g / cm^3
# Si number density = 14.992479 Si / 1000 Ang^3
#
#
#
# Elastic Constant Matrix: (Units=GPa)
#
#
# Indices 1 2 3 4 5 6 
#
# 1 74.1582 17.2533 31.1515 0.0000 0.0000 0.0000
# 2 17.2533 63.7424 44.5366 0.0000 0.0000 0.0000
# 3 31.1515 44.5366 126.0150 0.0000 0.0000 0.0000
# 4 0.0000 0.0000 0.0000 1.5849 0.0000 0.0000
# 5 0.0000 0.0000 0.0000 0.0000 22.5634 0.0000
# 6 0.0000 0.0000 0.0000 0.0000 0.0000 5.2805
#
#
#
# Elastic Compliance Matrix: (Units=1/GPa)
#
#
# Indices 1 2 3 4 5 6 
#
# 1 0.015233 -0.001981 -0.003065 0.000000 0.000000 0.000000
# 2 -0.001981 0.021090 -0.006964 0.000000 0.000000 0.000000
# 3 -0.003065 -0.006964 0.011155 0.000000 0.000000 0.000000
# 4 0.000000 0.000000 0.000000 0.630971 0.000000 0.000000
# 5 0.000000 0.000000 0.000000 0.000000 0.044319 0.000000
# 6 0.000000 0.000000 0.000000 0.000000 0.000000 0.189376
#
#
# Mechanical properties :
#
#
# Convention : Reuss Voigt Hill
#
# Bulk Modulus (GPa) = 42.63223 49.97761 46.30492
# Shear Modulus (GPa) = 5.29670 17.28404 11.29037
#
# Velocity S-wave (km/s) = 1.88164 3.39904 2.74719
# Velocity P-wave (km/s) = 5.76353 6.98657 6.40431
#
# Compressibility (1/GPa) = 0.02345643
#
# Stress axis : x y z
#
# Youngs Moduli (GPa) = 65.64527 47.41561 89.64932
#
# Poissons Ratio (x) = 0.09395 0.27482
# Poissons Ratio (y) = 0.13007 0.62431
# Poissons Ratio (z) = 0.20123 0.33020
#
# Static dielectric constant tensor:
#      x y z
#    x 1.489800 0.000000 0.000000 
#    y 0.000000 1.499710 0.000000 
#    z 0.000000 0.000000 1.527100 
# 
# From -- ./inp_files/66919.got.cif
#   From: 2010.05.17/outbox.cif.g08.bks.cpg/sg74_34_cif.got.tgz:66919.got - 2010.06.03 17:57:02.
