data_PCOD9534934
_publ_section_title
;
Structure prediction by ZEFSAII (Michael W. Deem and Ramdas Pophale) SiO2 
 PCOD9534934
Probable space group: I M M A
;
_chemical_formula_sum "Si O2"
_cell_formula_units_Z 72
_cell_length_a 8.552469
_cell_length_b 29.604241
_cell_length_c 14.163170
_cell_angle_alpha 90.000000
_cell_angle_beta 90.000000
_cell_angle_gamma 90.000000
_cell_volume 3585.963855
_symmetry_space_group_name_H-M "I M M A"
_symmetry_group_IT_number 74
_symmetry_cell_setting 'orthorhombic'
loop_
_space_group_symop_operation_xyz
x,y,z
-x,1/2-y,z
x,-y,-z
-x,1/2+y,-z
-x,-y,-z
x,1/2+y,-z
-x,y,z
x,1/2-y,z
1/2+x,1/2+y,1/2+z
1/2-x,-y,1/2+z
1/2+x,1/2-y,1/2-z
1/2-x,y,1/2-z
1/2-x,1/2-y,1/2-z
1/2+x,y,1/2-z
1/2-x,1/2+y,1/2+z
1/2+x,-y,1/2+z
loop_
_atom_site_type_symbol
_atom_site_label
_atom_site_fract_x
_atom_site_fract_y
_atom_site_fract_z
Si Si1 0.687014 0.977251 0.857990
Si Si2 0.812210 0.340926 0.535641
Si Si3 0.311445 0.250000 0.856440
Si Si4 0.686283 0.119077 0.356207
Si Si5 0.813273 0.928522 0.142872
O O1 0.500000 0.974650 0.859536
O O2 0.750000 0.979002 0.750000
O O3 0.758004 0.930247 0.893362
O O4 0.742079 0.025074 0.899279
O O5 0.762683 0.295075 0.587858
O O6 0.754726 0.344398 0.428110
O O7 0.739769 0.383884 0.588931
O O8 0.000000 0.344183 0.538561
O O9 0.500000 0.250000 0.853216
O O10 0.250000 0.250000 0.750000
O O11 0.500000 0.120032 0.355027
O O12 0.750000 0.124376 0.250000
O O13 0.750000 0.924426 0.250000
O O14 0.000000 0.932471 0.144052
#
# Coordination Sequence:
#
# PCOD9534934 Si02
#       5
#    16  16   8  16  16
#     4  10  18  32  54  82 117 160 200 243 292 347
#     4  11  23  41  62  89 118 153 198 247 298 355
#     4  10  24  44  69  94 123 154 189 238 296 354
#     4  11  22  39  61  88 120 159 199 244 293 348
#     4  11  21  35  55  85 121 160 201 247 296 353
#
# _framework density 20.078284
#
# number of rings (size 3 to 8) (size 9 to 14) (size 15 to 20)
#    0.000    1.333    0.000   10.000    0.000    4.444 
#    0.000    5.000    0.000    0.000    0.000    0.000 
#    0.000    0.000    0.000    0.000    0.000    0.000 
#
# Total GULP energy -201350.134345 kJ/mol
# GULP energy per Si atom -5593.059287 kJ/mol
# Density = 2.003258 g / cm^3
# Si number density = 20.078284 Si / 1000 Ang^3
#
#
#
# Elastic Constant Matrix: (Units=GPa)
#
#
# Indices 1 2 3 4 5 6 
#
# 1 132.1667 36.0302 17.8866 0.0000 0.0000 0.0000
# 2 36.0302 140.3129 73.6325 0.0000 0.0000 0.0000
# 3 17.8866 73.6325 114.1047 0.0001 0.0000 0.0000
# 4 0.0000 0.0000 0.0001 39.3273 0.0000 0.0000
# 5 0.0000 0.0000 0.0000 0.0000 27.0622 0.0000
# 6 0.0000 0.0000 0.0000 0.0000 0.0000 35.5966
#
#
#
# Elastic Compliance Matrix: (Units=1/GPa)
#
#
# Indices 1 2 3 4 5 6 
#
# 1 0.008137 -0.002147 0.000110 0.000000 0.000000 0.000000
# 2 -0.002147 0.011343 -0.006983 0.000000 0.000000 0.000000
# 3 0.000110 -0.006983 0.013253 0.000000 0.000000 0.000000
# 4 0.000000 0.000000 0.000000 0.025428 0.000000 0.000000
# 5 0.000000 0.000000 0.000000 0.000000 0.036952 0.000000
# 6 0.000000 0.000000 0.000000 0.000000 0.000000 0.028093
#
#
# Mechanical properties :
#
#
# Convention : Reuss Voigt Hill
#
# Bulk Modulus (GPa) = 68.06364 71.29812 69.68088
# Shear Modulus (GPa) = 34.21336 37.66622 35.93979
#
# Velocity S-wave (km/s) = 4.13243 4.33594 4.23541
# Velocity P-wave (km/s) = 7.53273 7.78809 7.66147
#
# Compressibility (1/GPa) = 0.01469213
#
# Stress axis : x y z
#
# Youngs Moduli (GPa) = 122.90090 88.16184 75.45580
#
# Poissons Ratio (x) = 0.18930 -0.00831
# Poissons Ratio (y) = 0.26389 0.52691
# Poissons Ratio (z) = -0.01353 0.61563
#
# Static dielectric constant tensor:
#      x y z
#    x 1.662980 0.000000 0.000000 
#    y 0.000000 1.709720 0.000000 
#    z 0.000000 0.000000 1.728000 
# 
# From -- ./inp_files/29203.got.cif
#   From: 2010.05.17/outbox.cif.g08.bks.cpg/sg74_15_cif.got.tgz:29203.got - 2010.06.03 17:57:02.
