data_PCOD9534263
_publ_section_title
;
Structure prediction by ZEFSAII (Michael W. Deem and Ramdas Pophale) SiO2 
 PCOD9534263
Probable space group: I M M A
;
_chemical_formula_sum "Si O2"
_cell_formula_units_Z 96
_cell_length_a 29.145694
_cell_length_b 9.153146
_cell_length_c 29.114157
_cell_angle_alpha 90.000000
_cell_angle_beta 90.000000
_cell_angle_gamma 90.000000
_cell_volume 7766.923191
_symmetry_space_group_name_H-M "I M M A"
_symmetry_group_IT_number 74
_symmetry_cell_setting 'orthorhombic'
loop_
_space_group_symop_operation_xyz
x,y,z
-x,1/2-y,z
x,-y,-z
-x,1/2+y,-z
-x,-y,-z
x,1/2+y,-z
-x,y,z
x,1/2-y,z
1/2+x,1/2+y,1/2+z
1/2-x,-y,1/2+z
1/2+x,1/2-y,1/2-z
1/2-x,y,1/2-z
1/2-x,1/2-y,1/2-z
1/2+x,y,1/2-z
1/2-x,1/2+y,1/2+z
1/2+x,-y,1/2+z
loop_
_atom_site_type_symbol
_atom_site_label
_atom_site_fract_x
_atom_site_fract_y
_atom_site_fract_z
Si Si1 0.734463 0.078228 0.823860
Si Si2 0.000000 0.426853 0.303637
Si Si3 0.000000 0.076368 0.597306
Si Si4 0.178318 0.079508 0.772319
Si Si5 0.596936 0.574868 0.049227
Si Si6 0.900171 0.075791 0.276544
Si Si7 0.654240 0.075663 0.128598
O O1 0.735406 0.250000 0.836763
O O2 0.786086 0.028163 0.811499
O O3 0.706743 0.070061 0.775561
O O4 0.704759 0.984065 0.859029
O O5 0.952979 0.472507 0.278802
O O6 0.000000 0.250000 0.306578
O O7 0.000000 0.489747 0.355037
O O8 0.954179 0.043208 0.568620
O O9 0.000000 0.250000 0.607298
O O10 0.169088 0.250000 0.780543
O O11 0.131528 0.995675 0.762250
O O12 0.602139 0.750000 0.046172
O O13 0.632337 0.507227 0.085692
O O14 0.602535 0.500000 0.000000
O O15 0.898731 0.250000 0.270920
O O16 0.877485 0.043829 0.326494
O O17 0.654391 0.250000 0.121754
#
# Coordination Sequence:
#
# PCOD9534263 Si02
#       7
#    16   8   8  16  16  16  16
#     4   8  14  25  39  55  74  94 114 140 177 219
#     4  10  18  29  41  54  75 100 124 154 191 229
#     4  10  21  33  45  58  68  88 122 158 196 235
#     4   8  14  24  38  54  73  95 116 142 177 215
#     4  11  22  34  45  57  72  91 119 156 196 237
#     4   9  17  26  38  54  73  96 121 150 184 220
#     4  10  18  28  42  58  73  93 117 147 186 227
#
# _framework density 12.360106
#
# number of rings (size 3 to 8) (size 9 to 14) (size 15 to 20)
#    0.000    2.667    1.667    2.250    0.000    2.667 
#    0.000    3.333    0.000    0.000    0.000    0.000 
#    0.000    0.000    0.000    0.000    0.000    0.000 
#
# Total GULP energy -267288.800863 kJ/mol
# GULP energy per Si atom -5568.516685 kJ/mol
# Density = 1.233197 g / cm^3
# Si number density = 12.360106 Si / 1000 Ang^3
#
#
#
# Elastic Constant Matrix: (Units=GPa)
#
#
# Indices 1 2 3 4 5 6 
#
# 1 110.4824 46.2722 54.0027 0.0000 0.0000 0.0000
# 2 46.2722 36.3717 31.3770 0.0000 0.0000 0.0000
# 3 54.0027 31.3770 45.0091 0.0000 0.0000 0.0000
# 4 0.0000 0.0000 0.0000 17.3554 0.0000 0.0000
# 5 0.0000 0.0000 0.0000 0.0000 9.8773 0.0000
# 6 0.0000 0.0000 0.0000 0.0000 0.0000 19.5066
#
#
#
# Elastic Compliance Matrix: (Units=1/GPa)
#
#
# Indices 1 2 3 4 5 6 
#
# 1 0.024657 -0.014669 -0.019357 0.000000 0.000000 0.000000
# 2 -0.014669 0.077702 -0.036568 0.000000 0.000000 0.000000
# 3 -0.019357 -0.036568 0.070935 0.000000 0.000000 0.000000
# 4 0.000000 0.000000 0.000000 0.057619 0.000000 0.000000
# 5 0.000000 0.000000 0.000000 0.000000 0.101243 0.000000
# 6 0.000000 0.000000 0.000000 0.000000 0.000000 0.051265
#
#
# Mechanical properties :
#
#
# Convention : Reuss Voigt Hill
#
# Bulk Modulus (GPa) = 31.14711 50.57411 40.86061
# Shear Modulus (GPa) = 9.34037 13.36193 11.35115
#
# Velocity S-wave (km/s) = 2.75196 3.29150 3.03375
# Velocity P-wave (km/s) = 5.94576 7.44657 6.73808
#
# Compressibility (1/GPa) = 0.03210571
#
# Stress axis : x y z
#
# Youngs Moduli (GPa) = 40.55709 12.86960 14.09744
#
# Poissons Ratio (x) = 0.18879 0.27288
# Poissons Ratio (y) = 0.59495 0.51551
# Poissons Ratio (z) = 0.78506 0.47061
#
# Static dielectric constant tensor:
#      x y z
#    x 1.418240 0.000000 0.000000 
#    y 0.000000 1.409370 0.000000 
#    z 0.000000 0.000000 1.371150 
# 
# From -- ./inp_files/74009.got.cif
#   From: 2010.05.17/outbox.cif.g08.bks.cpg/sg74_38_cif.got.tgz:74009.got - 2010.06.03 17:57:02.
