data_PCOD9534978
_publ_section_title
;
Structure prediction by ZEFSAII (Michael W. Deem and Ramdas Pophale) SiO2 
 PCOD9534978
Probable space group: I M M A
;
_chemical_formula_sum "Si O2"
_cell_formula_units_Z 88
_cell_length_a 18.317106
_cell_length_b 10.068949
_cell_length_c 22.259759
_cell_angle_alpha 90.000000
_cell_angle_beta 90.000000
_cell_angle_gamma 90.000000
_cell_volume 4105.456528
_symmetry_space_group_name_H-M "I M M A"
_symmetry_group_IT_number 74
_symmetry_cell_setting 'orthorhombic'
loop_
_space_group_symop_operation_xyz
x,y,z
-x,1/2-y,z
x,-y,-z
-x,1/2+y,-z
-x,-y,-z
x,1/2+y,-z
-x,y,z
x,1/2-y,z
1/2+x,1/2+y,1/2+z
1/2-x,-y,1/2+z
1/2+x,1/2-y,1/2-z
1/2-x,y,1/2-z
1/2-x,1/2-y,1/2-z
1/2+x,y,1/2-z
1/2-x,1/2+y,1/2+z
1/2+x,-y,1/2+z
loop_
_atom_site_type_symbol
_atom_site_label
_atom_site_fract_x
_atom_site_fract_y
_atom_site_fract_z
Si Si1 0.634470 0.750000 0.466450
Si Si2 0.081838 0.750000 0.719836
Si Si3 0.363545 0.957929 0.363801
Si Si4 0.085710 0.041173 0.737247
Si Si5 0.652221 0.250000 0.101917
Si Si6 0.308586 0.750000 0.030630
Si Si7 0.414933 0.250000 0.399372
Si Si8 0.694858 0.455375 0.866606
O O1 0.618597 0.623448 0.424175
O O2 0.721318 0.750000 0.482799
O O3 0.592428 0.750000 0.528591
O O4 0.113663 0.887716 0.741375
O O5 0.083757 0.750000 0.647290
O O6 0.000000 0.750000 0.742281
O O7 0.406013 0.908837 0.304776
O O8 0.379018 0.113293 0.376028
O O9 0.278556 0.928428 0.350488
O O10 0.000000 0.045561 0.719610
O O11 0.138499 0.091502 0.684721
O O12 0.690690 0.387382 0.120197
O O13 0.646222 0.250000 0.030542
O O14 0.322747 0.877377 0.072218
O O15 0.500000 0.250000 0.382216
#
# Coordination Sequence:
#
# PCOD9534978 Si02
#       8
#     8   8  16  16   8   8   8  16
#     4  10  24  40  57  82 116 154 191 229 275 333
#     4   8  17  33  52  78 111 142 176 228 282 329
#     4  11  22  39  61  84 112 153 195 230 278 339
#     4  10  20  36  57  83 115 148 187 236 290 339
#     4  10  18  32  57  83 106 141 185 227 277 331
#     4  10  20  37  57  82 114 150 190 233 279 329
#     4  12  25  40  60  89 120 147 186 239 283 326
#     4  10  21  36  58  85 114 147 190 239 279 330
#
# _framework density 21.434887
#
# number of rings (size 3 to 8) (size 9 to 14) (size 15 to 20)
#    0.000    1.818    0.000    4.364    0.000    6.545 
#    0.000    8.636    0.000    4.364    0.000    0.000 
#    0.000    0.000    0.000    0.000    0.000    0.000 
#
# Total GULP energy -245562.064021 kJ/mol
# GULP energy per Si atom -5580.956000 kJ/mol
# Density = 2.138610 g / cm^3
# Si number density = 21.434887 Si / 1000 Ang^3
#
#
#
# Elastic Constant Matrix: (Units=GPa)
#
#
# Indices 1 2 3 4 5 6 
#
# 1 77.2576 12.0858 57.0317 0.0000 0.0000 0.0000
# 2 12.0858 105.4663 25.4540 0.0000 0.0000 0.0000
# 3 57.0317 25.4540 157.0306 0.0000 0.0000 0.0000
# 4 0.0000 0.0000 0.0000 28.9034 0.0000 0.0000
# 5 0.0000 0.0000 0.0000 0.0000 -447.2501 0.0000
# 6 0.0000 0.0000 0.0000 0.0000 0.0000 4.6140
#
#
#
# Elastic Compliance Matrix: (Units=1/GPa)
#
#
# Indices 1 2 3 4 5 6 
#
# 1 0.017710 -0.000497 -0.006352 0.000000 0.000000 0.000000
# 2 -0.000497 0.009882 -0.001421 0.000000 0.000000 0.000000
# 3 -0.006352 -0.001421 0.008905 0.000000 0.000000 0.000000
# 4 0.000000 0.000000 0.000000 0.034598 0.000000 0.000000
# 5 0.000000 0.000000 0.000000 0.000000 -0.002236 0.000000
# 6 0.000000 0.000000 0.000000 0.000000 0.000000 0.216731
#
#
# Mechanical properties :
#
#
# Convention : Reuss Voigt Hill
#
# Bulk Modulus (GPa) = 50.10509 58.76639 54.43574
# Shear Modulus (GPa) = 16.19264 -66.40100 -25.10418
#
# Velocity S-wave (km/s) = 2.75150 -5.57183 -3.42597
# Velocity P-wave (km/s) = 5.78969 3.73067 3.13071
#
# Compressibility (1/GPa) = 0.01995805
#
# Stress axis : x y z
#
# Youngs Moduli (GPa) = 56.46469 101.19757 112.29085
#
# Poissons Ratio (x) = 0.05025 0.71323
# Poissons Ratio (y) = 0.02804 0.15962
# Poissons Ratio (z) = 0.35864 0.14385
#
# Static dielectric constant tensor:
#      x y z
#    x 1.747600 0.000000 0.000000 
#    y 0.000000 1.838320 0.000000 
#    z 0.000000 0.000000 1.769220 
# 
# From -- ./inp_files/52927.got.cif
#   From: 2010.05.17/outbox.cif.g08.bks.cpg/sg74_27_cif.got.tgz:52927.got - 2010.06.03 17:57:02.
