data_PCOD9534231
_publ_section_title
;
Structure prediction by ZEFSAII (Michael W. Deem and Ramdas Pophale) SiO2 
 PCOD9534231
Probable space group: I M M A
;
_chemical_formula_sum "Si O2"
_cell_formula_units_Z 80
_cell_length_a 24.492408
_cell_length_b 9.009526
_cell_length_c 26.756422
_cell_angle_alpha 90.000000
_cell_angle_beta 90.000000
_cell_angle_gamma 90.000000
_cell_volume 5904.205504
_symmetry_space_group_name_H-M "I M M A"
_symmetry_group_IT_number 74
_symmetry_cell_setting 'orthorhombic'
loop_
_space_group_symop_operation_xyz
x,y,z
-x,1/2-y,z
x,-y,-z
-x,1/2+y,-z
-x,-y,-z
x,1/2+y,-z
-x,y,z
x,1/2-y,z
1/2+x,1/2+y,1/2+z
1/2-x,-y,1/2+z
1/2+x,1/2-y,1/2-z
1/2-x,y,1/2-z
1/2-x,1/2-y,1/2-z
1/2+x,y,1/2-z
1/2-x,1/2+y,1/2+z
1/2+x,-y,1/2+z
loop_
_atom_site_type_symbol
_atom_site_label
_atom_site_fract_x
_atom_site_fract_y
_atom_site_fract_z
Si Si1 0.000000 0.571004 0.605888
Si Si2 0.316346 0.572630 0.851298
Si Si3 0.500000 0.928454 0.215566
Si Si4 0.880182 0.570539 0.258615
Si Si5 0.613766 0.571554 0.946349
Si Si6 0.718306 0.078474 0.696536
O O1 0.054587 0.527801 0.576021
O O2 0.000000 0.750000 0.611168
O O3 0.000000 0.500450 0.660735
O O4 0.318910 0.750000 0.846394
O O5 0.354409 0.500739 0.808409
O O6 0.341077 0.530516 0.904937
O O7 0.255198 0.516120 0.840708
O O8 0.500000 0.750000 0.209598
O O9 0.443802 0.969032 0.243240
O O10 0.875062 0.750000 0.262733
O O11 0.842320 0.526435 0.211623
O O12 0.613817 0.750000 0.951152
O O13 0.622723 0.500000 0.000000
O O14 0.716950 0.250000 0.680154
O O15 0.750000 0.074784 0.750000
#
# Coordination Sequence:
#
# PCOD9534231 Si02
#       6
#     8  16   8  16  16  16
#     4  10  19  33  43  54  78 104 134 175 213 237
#     4  10  18  28  42  59  77  99 130 167 203 238
#     4  10  18  27  43  62  79 106 139 167 196 235
#     4   9  17  28  41  59  80 103 132 162 195 235
#     4  10  21  32  43  57  76 102 135 174 210 242
#     4   8  15  27  41  57  78 101 126 159 196 236
#
# _framework density 13.549664999999999
#
# number of rings (size 3 to 8) (size 9 to 14) (size 15 to 20)
#    0.000    2.600    2.000    2.100    0.000    6.000 
#    0.000    0.000    0.000    0.000    0.000    0.000 
#    0.000    0.000    0.000    0.900    0.000    9.400 
#
# Total GULP energy -222793.253638 kJ/mol
# GULP energy per Si atom -5569.831341 kJ/mol
# Density = 1.351883 g / cm^3
# Si number density = 13.549665 Si / 1000 Ang^3
#
#
#
# Elastic Constant Matrix: (Units=GPa)
#
#
# Indices 1 2 3 4 5 6 
#
# 1 126.3144 31.0611 65.7193 0.0000 0.0000 0.0000
# 2 31.0611 17.8175 24.8235 0.0000 0.0000 0.0000
# 3 65.7193 24.8235 66.8991 0.0000 0.0000 0.0000
# 4 0.0000 0.0000 0.0000 20.1414 0.0000 0.0000
# 5 0.0000 0.0000 0.0000 0.0000 14.8278 0.0000
# 6 0.0000 0.0000 0.0000 0.0000 0.0000 17.2850
#
#
#
# Elastic Compliance Matrix: (Units=1/GPa)
#
#
# Indices 1 2 3 4 5 6 
#
# 1 0.017675 -0.013709 -0.012277 0.000000 0.000000 0.000000
# 2 -0.013709 0.126824 -0.033592 0.000000 0.000000 0.000000
# 3 -0.012277 -0.033592 0.039472 0.000000 0.000000 0.000000
# 4 0.000000 0.000000 0.000000 0.049649 0.000000 0.000000
# 5 0.000000 0.000000 0.000000 0.000000 0.067441 0.000000
# 6 0.000000 0.000000 0.000000 0.000000 0.000000 0.057854
#
#
# Mechanical properties :
#
#
# Convention : Reuss Voigt Hill
#
# Bulk Modulus (GPa) = 15.42817 50.47096 32.94956
# Shear Modulus (GPa) = 10.00650 16.41265 13.20958
#
# Velocity S-wave (km/s) = 2.72049 3.48414 3.12573
# Velocity P-wave (km/s) = 4.61294 7.31542 6.11533
#
# Compressibility (1/GPa) = 0.06481652
#
# Stress axis : x y z
#
# Youngs Moduli (GPa) = 56.57663 7.88496 25.33415
#
# Poissons Ratio (x) = 0.10810 0.31102
# Poissons Ratio (y) = 0.77562 0.85102
# Poissons Ratio (z) = 0.69456 0.26487
#
# Static dielectric constant tensor:
#      x y z
#    x 1.481200 0.000000 0.000000 
#    y 0.000000 1.454440 0.000000 
#    z 0.000000 0.000000 1.408730 
# 
# From -- ./inp_files/54976.got.cif
#   From: 2010.05.17/outbox.cif.g08.bks.cpg/sg74_28_cif.got.tgz:54976.got - 2010.06.03 17:57:02.
