data_PCOD9534165
_publ_section_title
;
Structure prediction by ZEFSAII (Michael W. Deem and Ramdas Pophale) SiO2 
 PCOD9534165
Probable space group: I M M A
;
_chemical_formula_sum "Si O2"
_cell_formula_units_Z 100
_cell_length_a 14.601904
_cell_length_b 17.831283
_cell_length_c 21.203523
_cell_angle_alpha 90.000000
_cell_angle_beta 90.000000
_cell_angle_gamma 90.000000
_cell_volume 5520.775756
_symmetry_space_group_name_H-M "I M M A"
_symmetry_group_IT_number 74
_symmetry_cell_setting 'orthorhombic'
loop_
_space_group_symop_operation_xyz
x,y,z
-x,1/2-y,z
x,-y,-z
-x,1/2+y,-z
-x,-y,-z
x,1/2+y,-z
-x,y,z
x,1/2-y,z
1/2+x,1/2+y,1/2+z
1/2-x,-y,1/2+z
1/2+x,1/2-y,1/2-z
1/2-x,y,1/2-z
1/2-x,1/2-y,1/2-z
1/2+x,y,1/2-z
1/2-x,1/2+y,1/2+z
1/2+x,-y,1/2+z
loop_
_atom_site_type_symbol
_atom_site_label
_atom_site_fract_x
_atom_site_fract_y
_atom_site_fract_z
Si Si1 0.141683 0.461982 0.746283
Si Si2 0.896192 0.057798 0.888421
Si Si3 0.104638 0.422278 0.604454
Si Si4 0.500000 0.750000 0.797219
Si Si5 0.835005 0.369256 0.290884
Si Si6 0.237040 0.940287 0.582315
Si Si7 0.259825 0.162293 0.540758
O O1 0.250000 0.447089 0.750000
O O2 0.102472 0.435061 0.812546
O O3 0.106737 0.428197 0.680625
O O4 0.132319 0.551926 0.739976
O O5 0.844947 0.128115 0.920162
O O6 0.000000 0.048204 0.911232
O O7 0.829760 0.987299 0.904188
O O8 0.157135 0.496603 0.578745
O O9 0.167944 0.354518 0.580900
O O10 0.000000 0.418439 0.582942
O O11 0.419433 0.814600 0.796659
O O12 0.750000 0.339948 0.250000
O O13 0.792300 0.390656 0.358365
O O14 0.249514 0.888216 0.521933
O O15 0.270120 0.250000 0.527470
#
# Coordination Sequence:
#
# PCOD9534165 Si02
#       7
#    16  16  16   4  16  16  16
#     4  10  17  37  66  91 116 149 198 253 302 348
#     4  11  21  39  70  94 113 152 208 254 300 360
#     4  10  20  37  63  94 121 153 203 252 296 357
#     4  12  26  32  60  94 134 170 200 238 310 376
#     4  10  21  40  58  87 128 163 199 249 301 361
#     4  10  22  39  63  88 118 163 207 249 294 352
#     4  11  25  42  57  84 128 164 197 248 308 361
#
# _framework density 18.113396000000002
#
# number of rings (size 3 to 8) (size 9 to 14) (size 15 to 20)
#    0.000    1.600    6.400    2.640    6.720    3.200 
#    0.000    1.600    0.000    1.920    0.000    0.000 
#    0.000    0.000    0.000    0.000    0.000    0.000 
#
# Total GULP energy -278460.542396 kJ/mol
# GULP energy per Si atom -5569.210848 kJ/mol
# Density = 1.807217 g / cm^3
# Si number density = 18.113396 Si / 1000 Ang^3
#
#
#
# Elastic Constant Matrix: (Units=GPa)
#
#
# Indices 1 2 3 4 5 6 
#
# 1 168.0761 41.1354 26.8353 0.0000 0.0000 0.0000
# 2 41.1354 62.6469 53.4346 0.0000 0.0000 0.0000
# 3 26.8353 53.4346 98.4566 0.0000 0.0000 0.0000
# 4 0.0000 0.0000 0.0000 -2.5120 0.0000 0.0000
# 5 0.0000 0.0000 0.0000 0.0000 3.7548 0.0000
# 6 0.0000 0.0000 0.0000 0.0000 0.0000 18.5602
#
#
#
# Elastic Compliance Matrix: (Units=1/GPa)
#
#
# Indices 1 2 3 4 5 6 
#
# 1 0.007154 -0.005650 0.001116 0.000000 0.000000 0.000000
# 2 -0.005650 0.034182 -0.017012 0.000000 0.000000 0.000000
# 3 0.001116 -0.017012 0.019085 0.000000 0.000000 0.000000
# 4 0.000000 0.000000 0.000000 -0.398092 0.000000 0.000000
# 5 0.000000 0.000000 0.000000 0.000000 0.266323 0.000000
# 6 0.000000 0.000000 0.000000 0.000000 0.000000 0.053879
#
#
# Mechanical properties :
#
#
# Convention : Reuss Voigt Hill
#
# Bulk Modulus (GPa) = 57.69863 63.55449 60.62656
# Shear Modulus (GPa) = 159.24196 17.81222 88.52709
#
# Velocity S-wave (km/s) = 9.38641 3.13928 6.99857
# Velocity P-wave (km/s) = 12.22278 6.95006 9.94232
#
# Compressibility (1/GPa) = 0.01733144
#
# Stress axis : x y z
#
# Youngs Moduli (GPa) = 139.77819 29.25496 52.39698
#
# Poissons Ratio (x) = 0.16528 -0.05849
# Poissons Ratio (y) = 0.78971 0.89136
# Poissons Ratio (z) = -0.15603 0.49767
#
# Static dielectric constant tensor:
#      x y z
#    x 1.623810 0.000000 0.000000 
#    y 0.000000 1.604090 0.000000 
#    z 0.000000 0.000000 1.652930 
# 
# From -- ./inp_files/52139.got.cif
#   From: 2010.05.17/outbox.cif.g08.bks.cpg/sg74_27_cif.got.tgz:52139.got - 2010.06.03 17:57:02.
