data_PCOD9534118
_publ_section_title
;
Structure prediction by ZEFSAII (Michael W. Deem and Ramdas Pophale) SiO2 
 PCOD9534118
Probable space group: I M M A
;
_chemical_formula_sum "Si O2"
_cell_formula_units_Z 116
_cell_length_a 17.469518
_cell_length_b 31.134268
_cell_length_c 9.304069
_cell_angle_alpha 90.000000
_cell_angle_beta 90.000000
_cell_angle_gamma 90.000000
_cell_volume 5060.489226
_symmetry_space_group_name_H-M "I M M A"
_symmetry_group_IT_number 74
_symmetry_cell_setting 'orthorhombic'
loop_
_space_group_symop_operation_xyz
x,y,z
-x,1/2-y,z
x,-y,-z
-x,1/2+y,-z
-x,-y,-z
x,1/2+y,-z
-x,y,z
x,1/2-y,z
1/2+x,1/2+y,1/2+z
1/2-x,-y,1/2+z
1/2+x,1/2-y,1/2-z
1/2-x,y,1/2-z
1/2-x,1/2-y,1/2-z
1/2+x,y,1/2-z
1/2-x,1/2+y,1/2+z
1/2+x,-y,1/2+z
loop_
_atom_site_type_symbol
_atom_site_label
_atom_site_fract_x
_atom_site_fract_y
_atom_site_fract_z
Si Si1 0.154404 0.703635 0.617461
Si Si2 0.408829 0.843844 0.620745
Si Si3 0.087444 0.563984 0.731546
Si Si4 0.588279 0.878771 0.328630
Si Si5 0.205962 0.045731 0.524261
Si Si6 0.789432 0.137108 0.606612
Si Si7 0.500000 0.750000 0.955728
Si Si8 0.413927 0.028281 0.723221
O O1 0.193811 0.750000 0.612638
O O2 0.138271 0.687869 0.778809
O O3 0.198524 0.668341 0.525389
O O4 0.069134 0.713254 0.553469
O O5 0.500000 0.832585 0.622857
O O6 0.401576 0.891266 0.688876
O O7 0.381742 0.848646 0.456802
O O8 0.151921 0.558156 0.610111
O O9 0.092004 0.520761 0.828115
O O10 0.000000 0.564822 0.672187
O O11 0.500000 0.867606 0.314235
O O12 0.627814 0.873737 0.175465
O O13 0.591742 0.929139 0.371875
O O14 0.245995 0.090528 0.565989
O O15 0.150193 0.033863 0.655896
O O16 0.248617 0.000000 0.500000
O O17 0.750000 0.155371 0.750000
O O18 0.500000 0.031334 0.787499
#
# Coordination Sequence:
#
# PCOD9534118 Si02
#       8
#    16  16  16  16  16  16   4  16
#     4  10  20  37  63  88 119 153 205 258 310 372
#     4  10  17  31  52  85 113 149 192 244 304 370
#     4   9  15  22  46  77 109 143 188 237 292 352
#     4   9  20  33  55  83 122 155 191 242 308 366
#     4   9  16  29  52  75 107 147 202 247 289 355
#     4  11  23  39  61  86 123 163 208 261 313 371
#     4   8  20  36  62  98 120 146 212 262 318 368
#     4   8  14  25  39  75 114 145 176 232 293 350
#
# _framework density 22.922684
#
# number of rings (size 3 to 8) (size 9 to 14) (size 15 to 20)
#    0.414    2.207    2.069    0.414    0.966    3.034 
#    0.000    4.138    9.103    2.483    0.000    0.000 
#    0.000    0.000    0.000    0.000    0.000    0.000 
#
# Total GULP energy -322907.992806 kJ/mol
# GULP energy per Si atom -5567.379186 kJ/mol
# Density = 2.287051 g / cm^3
# Si number density = 22.922684 Si / 1000 Ang^3
#
#
#
# Elastic Constant Matrix: (Units=GPa)
#
#
# Indices 1 2 3 4 5 6 
#
# 1 58.8570 9.4059 7.2576 -0.0003 0.0002 0.0000
# 2 9.4059 108.1102 28.1370 -0.0074 0.0000 0.0002
# 3 7.2576 28.1370 52.6245 -0.0066 0.0008 0.0010
# 4 -0.0003 -0.0074 -0.0066 15.4255 0.0004 0.0006
# 5 0.0002 0.0000 0.0008 0.0004 22.7864 0.0000
# 6 0.0000 0.0002 0.0010 0.0006 0.0000 11.1013
#
#
#
# Elastic Compliance Matrix: (Units=1/GPa)
#
#
# Indices 1 2 3 4 5 6 
#
# 1 0.017383 -0.001032 -0.001846 -0.000001 0.000000 0.000000
# 2 -0.001032 0.010806 -0.005636 0.000003 0.000000 0.000000
# 3 -0.001846 -0.005636 0.022270 0.000007 -0.000001 -0.000002
# 4 -0.000001 0.000003 0.000007 0.064828 -0.000001 -0.000003
# 5 0.000000 0.000000 -0.000001 -0.000001 0.043886 0.000000
# 6 0.000000 0.000000 -0.000002 -0.000003 0.000000 0.090079
#
#
# Mechanical properties :
#
#
# Convention : Reuss Voigt Hill
#
# Bulk Modulus (GPa) = 29.91035 34.35476 32.13256
# Shear Modulus (GPa) = 18.02302 21.51538 19.76920
#
# Velocity S-wave (km/s) = 2.80706 3.06699 2.93990
# Velocity P-wave (km/s) = 4.85621 5.24992 5.05690
#
# Compressibility (1/GPa) = 0.03343324
#
# Stress axis : x y z
#
# Youngs Moduli (GPa) = 57.52800 92.53831 44.90288
#
# Poissons Ratio (x) = 0.09550 0.08287
# Poissons Ratio (y) = 0.05937 0.25305
# Poissons Ratio (z) = 0.10617 0.52150
#
# Static dielectric constant tensor:
#      x y z
#    x 1.884990 0.000000 0.000000 
#    y 0.000000 1.872410 0.000000 
#    z 0.000000 0.000000 1.850470 
# 
# From -- ./inp_files/14301.got.cif
#   From: 2010.05.17/outbox.cif.g08.bks.cpg/sg74_8_cif.got.tgz:14301.got - 2010.06.03 17:57:02.
