data_PCOD9534507
_publ_section_title
;
Structure prediction by ZEFSAII (Michael W. Deem and Ramdas Pophale) SiO2 
 PCOD9534507
Probable space group: I M M A
;
_chemical_formula_sum "Si O2"
_cell_formula_units_Z 112
_cell_length_a 18.763518
_cell_length_b 13.871126
_cell_length_c 25.040272
_cell_angle_alpha 90.000000
_cell_angle_beta 90.000000
_cell_angle_gamma 90.000000
_cell_volume 6517.259698
_symmetry_space_group_name_H-M "I M M A"
_symmetry_group_IT_number 74
_symmetry_cell_setting 'orthorhombic'
loop_
_space_group_symop_operation_xyz
x,y,z
-x,1/2-y,z
x,-y,-z
-x,1/2+y,-z
-x,-y,-z
x,1/2+y,-z
-x,y,z
x,1/2-y,z
1/2+x,1/2+y,1/2+z
1/2-x,-y,1/2+z
1/2+x,1/2-y,1/2-z
1/2-x,y,1/2-z
1/2-x,1/2-y,1/2-z
1/2+x,y,1/2-z
1/2-x,1/2+y,1/2+z
1/2+x,-y,1/2+z
loop_
_atom_site_type_symbol
_atom_site_label
_atom_site_fract_x
_atom_site_fract_y
_atom_site_fract_z
Si Si1 0.725395 0.632875 0.856582
Si Si2 0.807039 0.139151 0.797147
Si Si3 0.130642 0.059837 0.194647
Si Si4 0.421095 0.864974 0.805607
Si Si5 0.918746 0.468004 0.079421
Si Si6 0.310193 0.636976 0.416374
Si Si7 0.711195 0.365292 0.468860
O O1 0.727376 0.750000 0.853895
O O2 0.788542 0.594582 0.818354
O O3 0.647616 0.598740 0.838277
O O4 0.744037 0.601858 0.917211
O O5 0.833687 0.250000 0.795100
O O6 0.750000 0.128264 0.750000
O O7 0.776270 0.124478 0.857574
O O8 0.864110 0.053867 0.791708
O O9 0.096378 0.114319 0.243886
O O10 0.088985 0.074153 0.139330
O O11 0.500000 0.903329 0.819217
O O12 0.422988 0.750000 0.813653
O O13 0.880768 0.571873 0.083304
O O14 0.868136 0.405176 0.041458
O O15 0.000000 0.471503 0.062974
O O16 0.326947 0.750000 0.421306
O O17 0.268010 0.608689 0.470406
O O18 0.711031 0.250000 0.465666
#
# Coordination Sequence:
#
# PCOD9534507 Si02
#       7
#    16  16  16  16  16  16  16
#     4   9  17  29  45  65  90 120 152 185 221 264
#     4   9  17  29  46  67  89 112 143 186 228 261
#     4  10  18  30  46  64  90 123 156 184 219 266
#     4  10  19  29  44  68  95 121 150 185 224 266
#     4  10  20  31  43  62  90 121 152 186 218 251
#     4   9  18  31  45  62  86 115 147 182 220 263
#     4   9  18  31  45  62  87 119 152 182 215 259
#
# _framework density 17.185137000000001
#
# number of rings (size 3 to 8) (size 9 to 14) (size 15 to 20)
#    0.000    2.571    0.000    2.571    0.000    3.429 
#    0.000    1.429    0.000    1.286    0.000    0.000 
#    0.000   41.143    0.000   97.429    0.000    2.714 
#
# Total GULP energy -311862.028476 kJ/mol
# GULP energy per Si atom -5568.964794 kJ/mol
# Density = 1.714602 g / cm^3
# Si number density = 17.185137 Si / 1000 Ang^3
#
#
#
# Elastic Constant Matrix: (Units=GPa)
#
#
# Indices 1 2 3 4 5 6 
#
# 1 89.8682 9.0495 45.0070 0.0000 0.0000 0.0000
# 2 9.0495 25.6106 4.2403 0.0000 0.0000 0.0000
# 3 45.0070 4.2403 107.0402 0.0000 0.0000 0.0000
# 4 0.0000 0.0000 0.0000 25.9033 0.0000 0.0000
# 5 0.0000 0.0000 0.0000 0.0000 4.2394 0.0000
# 6 0.0000 0.0000 0.0000 0.0000 0.0000 12.0477
#
#
#
# Elastic Compliance Matrix: (Units=1/GPa)
#
#
# Indices 1 2 3 4 5 6 
#
# 1 0.014520 -0.004147 -0.005941 0.000000 0.000000 0.000000
# 2 -0.004147 0.040489 0.000140 0.000000 0.000000 0.000000
# 3 -0.005941 0.000140 0.011835 0.000000 0.000000 0.000000
# 4 0.000000 0.000000 0.000000 0.038605 0.000000 0.000000
# 5 0.000000 0.000000 0.000000 0.000000 0.235882 0.000000
# 6 0.000000 0.000000 0.000000 0.000000 0.000000 0.083003
#
#
# Mechanical properties :
#
#
# Convention : Reuss Voigt Hill
#
# Bulk Modulus (GPa) = 21.30062 37.67917 29.48989
# Shear Modulus (GPa) = 10.87240 19.38623 15.12931
#
# Velocity S-wave (km/s) = 2.51801 3.36234 2.97033
# Velocity P-wave (km/s) = 4.56897 6.08661 5.38156
#
# Compressibility (1/GPa) = 0.04694699
#
# Stress axis : x y z
#
# Youngs Moduli (GPa) = 68.86884 24.69832 84.49678
#
# Poissons Ratio (x) = 0.10243 0.50200
# Poissons Ratio (y) = 0.28561 -0.01181
# Poissons Ratio (z) = 0.40915 -0.00345
#
# Static dielectric constant tensor:
#      x y z
#    x 1.565890 0.000000 0.000000 
#    y 0.000000 1.618480 0.000000 
#    z 0.000000 0.000000 1.635350 
# 
# From -- ./inp_files/67160.got.cif
#   From: 2010.05.17/outbox.cif.g08.bks.cpg/sg74_34_cif.got.tgz:67160.got - 2010.06.03 17:57:02.
