data_PCOD9534369
_publ_section_title
;
Structure prediction by ZEFSAII (Michael W. Deem and Ramdas Pophale) SiO2 
 PCOD9534369
Probable space group: I M M A
;
_chemical_formula_sum "Si O2"
_cell_formula_units_Z 80
_cell_length_a 13.931836
_cell_length_b 21.875403
_cell_length_c 15.926022
_cell_angle_alpha 90.000000
_cell_angle_beta 90.000000
_cell_angle_gamma 90.000000
_cell_volume 4853.686562
_symmetry_space_group_name_H-M "I M M A"
_symmetry_group_IT_number 74
_symmetry_cell_setting 'orthorhombic'
loop_
_space_group_symop_operation_xyz
x,y,z
-x,1/2-y,z
x,-y,-z
-x,1/2+y,-z
-x,-y,-z
x,1/2+y,-z
-x,y,z
x,1/2-y,z
1/2+x,1/2+y,1/2+z
1/2-x,-y,1/2+z
1/2+x,1/2-y,1/2-z
1/2-x,y,1/2-z
1/2-x,1/2-y,1/2-z
1/2+x,y,1/2-z
1/2-x,1/2+y,1/2+z
1/2+x,-y,1/2+z
loop_
_atom_site_type_symbol
_atom_site_label
_atom_site_fract_x
_atom_site_fract_y
_atom_site_fract_z
Si Si1 0.799974 0.411515 0.560014
Si Si2 0.384257 0.819743 0.194862
Si Si3 0.690705 0.948828 0.879708
Si Si4 0.892529 0.041061 0.200821
Si Si5 0.390065 0.400823 0.647611
O O1 0.848709 0.361679 0.618917
O O2 0.820102 0.479642 0.595443
O O3 0.831212 0.410983 0.463357
O O4 0.685440 0.403130 0.572304
O O5 0.500000 0.819866 0.193277
O O6 0.350644 0.750000 0.188976
O O7 0.358228 0.851245 0.283476
O O8 0.801983 0.937750 0.854134
O O9 0.628095 0.939356 0.796523
O O10 0.000000 0.059122 0.174262
O O11 0.887563 0.966986 0.193475
O O12 0.500000 0.389618 0.621971
#
# Coordination Sequence:
#
# PCOD9534369 Si02
#       5
#    16  16  16  16  16
#     4  10  18  29  44  65  93 119 149 190 228 262
#     4  10  20  32  46  66  92 124 159 186 216 264
#     4   9  18  28  43  68  91 117 152 184 225 278
#     4   9  16  29  45  62  90 121 148 183 226 271
#     4   9  17  29  44  62  88 122 155 184 219 263
#
# _framework density 16.482316000000001
#
# number of rings (size 3 to 8) (size 9 to 14) (size 15 to 20)
#    0.000    2.600    2.000    0.600    0.000    3.200 
#    0.000    6.000    0.000    0.000    0.000    2.800 
#    0.000    1.600    0.000    0.000    0.000    0.000 
#
# Total GULP energy -222880.573206 kJ/mol
# GULP energy per Si atom -5572.014330 kJ/mol
# Density = 1.644480 g / cm^3
# Si number density = 16.482316 Si / 1000 Ang^3
#
#
#
# Elastic Constant Matrix: (Units=GPa)
#
#
# Indices 1 2 3 4 5 6 
#
# 1 29.6525 -0.4364 -14.3636 -0.0001 0.0000 0.0000
# 2 -0.4364 34.7628 6.6509 -0.0001 0.0000 0.0000
# 3 -14.3636 6.6509 46.1432 -0.0003 0.0001 0.0000
# 4 -0.0001 -0.0001 -0.0003 10.4636 0.0000 0.0000
# 5 0.0000 0.0000 0.0001 0.0000 9.0421 0.0000
# 6 0.0000 0.0000 0.0000 0.0000 0.0000 14.3348
#
#
#
# Elastic Compliance Matrix: (Units=1/GPa)
#
#
# Indices 1 2 3 4 5 6 
#
# 1 0.039837 -0.001926 0.012678 0.000001 0.000000 0.000000
# 2 -0.001926 0.029675 -0.004877 0.000000 0.000000 0.000000
# 3 0.012678 -0.004877 0.026321 0.000001 0.000000 0.000000
# 4 0.000001 0.000000 0.000001 0.095569 0.000000 0.000000
# 5 0.000000 0.000000 0.000000 0.000000 0.110594 0.000000
# 6 0.000000 0.000000 0.000000 0.000000 0.000000 0.069761
#
#
# Mechanical properties :
#
#
# Convention : Reuss Voigt Hill
#
# Bulk Modulus (GPa) = 9.29501 10.47339 9.88420
# Shear Modulus (GPa) = 12.63050 14.68191 13.65621
#
# Velocity S-wave (km/s) = 2.77123 2.98781 2.88155
# Velocity P-wave (km/s) = 3.98638 4.27444 4.13292
#
# Compressibility (1/GPa) = 0.10758463
#
# Stress axis : x y z
#
# Youngs Moduli (GPa) = 25.10244 33.69809 37.99246
#
# Poissons Ratio (x) = 0.06489 -0.48167
# Poissons Ratio (y) = 0.04834 0.18528
# Poissons Ratio (z) = -0.31825 0.16433
#
# Static dielectric constant tensor:
#      x y z
#    x 1.599710 0.000000 0.000000 
#    y 0.000000 1.528620 0.000000 
#    z 0.000000 0.000000 1.542000 
# 
# From -- ./inp_files/32078.got.cif
#   From: 2010.05.17/outbox.cif.g08.bks.cpg/sg74_17_cif.got.tgz:32078.got - 2010.06.03 17:57:02.
