data_PCOD9534618
_publ_section_title
;
Structure prediction by ZEFSAII (Michael W. Deem and Ramdas Pophale) SiO2 
 PCOD9534618
Probable space group: I M M A
;
_chemical_formula_sum "Si O2"
_cell_formula_units_Z 96
_cell_length_a 12.397108
_cell_length_b 17.280015
_cell_length_c 24.790984
_cell_angle_alpha 90.000000
_cell_angle_beta 90.000000
_cell_angle_gamma 90.000000
_cell_volume 5310.779435
_symmetry_space_group_name_H-M "I M M A"
_symmetry_group_IT_number 74
_symmetry_cell_setting 'orthorhombic'
loop_
_space_group_symop_operation_xyz
x,y,z
-x,1/2-y,z
x,-y,-z
-x,1/2+y,-z
-x,-y,-z
x,1/2+y,-z
-x,y,z
x,1/2-y,z
1/2+x,1/2+y,1/2+z
1/2-x,-y,1/2+z
1/2+x,1/2-y,1/2-z
1/2-x,y,1/2-z
1/2-x,1/2-y,1/2-z
1/2+x,y,1/2-z
1/2-x,1/2+y,1/2+z
1/2+x,-y,1/2+z
loop_
_atom_site_type_symbol
_atom_site_label
_atom_site_fract_x
_atom_site_fract_y
_atom_site_fract_z
Si Si1 0.175854 0.439105 0.880500
Si Si2 0.203063 0.834803 0.689733
Si Si3 0.626026 0.626301 0.266831
Si Si4 0.883549 0.501897 0.322974
Si Si5 0.130224 0.339346 0.983693
Si Si6 0.121538 0.614746 0.895954
O O1 0.129790 0.389059 0.830679
O O2 0.294566 0.462466 0.861426
O O3 0.172861 0.392163 0.935609
O O4 0.119586 0.522313 0.887013
O O5 0.153208 0.750000 0.681069
O O6 0.250000 0.836961 0.750000
O O7 0.130525 0.910500 0.683219
O O8 0.300155 0.847163 0.647475
O O9 0.500000 0.657665 0.255255
O O10 0.750000 0.658954 0.250000
O O11 0.626902 0.544872 0.234600
O O12 0.000000 0.520434 0.345242
O O13 0.162292 0.250000 0.976982
O O14 0.000000 0.343603 0.980825
O O15 0.160607 0.368276 0.043318
O O16 0.000000 0.645346 0.890673
#
# Coordination Sequence:
#
# PCOD9534618 Si02
#       6
#    16  16  16  16  16  16
#     4  10  18  30  51  74  96 128 168 207 245 296
#     4  10  20  31  45  70 102 135 168 199 241 297
#     4   9  16  27  46  72 100 128 163 209 254 294
#     4   9  18  32  49  70  95 127 169 214 255 293
#     4  10  20  32  48  73 102 128 155 194 250 309
#     4  10  19  32  50  72  99 129 162 200 241 292
#
# _framework density 18.076443000000001
#
# number of rings (size 3 to 8) (size 9 to 14) (size 15 to 20)
#    0.000    2.333    0.000    5.000    0.000    4.667 
#    0.000    1.667    0.000   13.000    0.000    4.667 
#    0.000    0.000    0.000    0.000    0.000    0.000 
#
# Total GULP energy -267206.392130 kJ/mol
# GULP energy per Si atom -5566.799836 kJ/mol
# Density = 1.803530 g / cm^3
# Si number density = 18.076443 Si / 1000 Ang^3
#
#
#
# Elastic Constant Matrix: (Units=GPa)
#
#
# Indices 1 2 3 4 5 6 
#
# 1 102.3698 11.4891 29.0818 0.0000 0.0000 0.0000
# 2 11.4891 58.8200 33.4428 0.0000 0.0000 0.0000
# 3 29.0818 33.4428 123.5461 0.0000 0.0000 0.0000
# 4 0.0000 0.0000 0.0000 49.6019 0.0000 0.0000
# 5 0.0000 0.0000 0.0000 0.0000 1.1427 0.0000
# 6 0.0000 0.0000 0.0000 0.0000 0.0000 -14.0007
#
#
#
# Elastic Compliance Matrix: (Units=1/GPa)
#
#
# Indices 1 2 3 4 5 6 
#
# 1 0.010497 -0.000763 -0.002265 0.000000 0.000000 0.000000
# 2 -0.000763 0.020149 -0.005275 0.000000 0.000000 0.000000
# 3 -0.002265 -0.005275 0.010055 0.000000 0.000000 0.000000
# 4 0.000000 0.000000 0.000000 0.020161 0.000000 0.000000
# 5 0.000000 0.000000 0.000000 0.000000 0.875106 0.000000
# 6 0.000000 0.000000 0.000000 0.000000 0.000000 -0.071425
#
#
# Mechanical properties :
#
#
# Convention : Reuss Voigt Hill
#
# Bulk Modulus (GPa) = 41.49824 48.08482 44.79153
# Shear Modulus (GPa) = 5.62316 21.39692 13.51004
#
# Velocity S-wave (km/s) = 1.76565 3.44421 2.73680
# Velocity P-wave (km/s) = 5.21187 6.51731 5.90080
#
# Compressibility (1/GPa) = 0.02409741
#
# Stress axis : x y z
#
# Youngs Moduli (GPa) = 95.26126 49.63035 99.45331
#
# Poissons Ratio (x) = 0.03786 0.22521
# Poissons Ratio (y) = 0.07268 0.52457
# Poissons Ratio (z) = 0.21572 0.26178
#
# Static dielectric constant tensor:
#      x y z
#    x 1.673190 0.000000 0.000000 
#    y 0.000000 1.632460 0.000000 
#    z 0.000000 0.000000 1.593760 
# 
# From -- ./inp_files/58855.got.cif
#   From: 2010.05.17/outbox.cif.g08.bks.cpg/sg74_30_cif.got.tgz:58855.got - 2010.06.03 17:57:02.
