data_PCOD9534194
_publ_section_title
;
Structure prediction by ZEFSAII (Michael W. Deem and Ramdas Pophale) SiO2 
 PCOD9534194
Probable space group: I M M A
;
_chemical_formula_sum "Si O2"
_cell_formula_units_Z 104
_cell_length_a 8.577548
_cell_length_b 23.137924
_cell_length_c 31.131631
_cell_angle_alpha 90.000000
_cell_angle_beta 90.000000
_cell_angle_gamma 90.000000
_cell_volume 6178.590630
_symmetry_space_group_name_H-M "I M M A"
_symmetry_group_IT_number 74
_symmetry_cell_setting 'orthorhombic'
loop_
_space_group_symop_operation_xyz
x,y,z
-x,1/2-y,z
x,-y,-z
-x,1/2+y,-z
-x,-y,-z
x,1/2+y,-z
-x,y,z
x,1/2-y,z
1/2+x,1/2+y,1/2+z
1/2-x,-y,1/2+z
1/2+x,1/2-y,1/2-z
1/2-x,y,1/2-z
1/2-x,1/2-y,1/2-z
1/2+x,y,1/2-z
1/2-x,1/2+y,1/2+z
1/2+x,-y,1/2+z
loop_
_atom_site_type_symbol
_atom_site_label
_atom_site_fract_x
_atom_site_fract_y
_atom_site_fract_z
Si Si1 0.690266 0.638187 0.146049
Si Si2 0.313643 0.600430 0.796932
Si Si3 0.809605 0.817339 0.444915
Si Si4 0.814638 0.183274 0.129789
Si Si5 0.319433 0.679825 0.961241
Si Si6 0.188380 0.467998 0.702961
Si Si7 0.188479 0.750000 0.298427
O O1 0.500000 0.638387 0.145474
O O2 0.741580 0.647974 0.097039
O O3 0.741213 0.578718 0.168055
O O4 0.737614 0.692835 0.175324
O O5 0.500000 0.600996 0.795343
O O6 0.250000 0.617089 0.750000
O O7 0.257181 0.642952 0.833931
O O8 0.261755 0.534084 0.805496
O O9 0.764737 0.750000 0.439378
O O10 0.758087 0.838957 0.491937
O O11 0.000000 0.817946 0.446213
O O12 0.759267 0.250000 0.134319
O O13 0.770103 0.163121 0.081754
O O14 0.000000 0.183113 0.134162
O O15 0.500000 0.662154 0.956748
O O16 0.316755 0.750000 0.963331
O O17 0.250000 0.451409 0.750000
O O18 0.000000 0.467134 0.704043
O O19 0.250000 0.750000 0.250000
O O20 0.000000 0.750000 0.297175
#
# Coordination Sequence:
#
# PCOD9534194 Si02
#       7
#    16  16  16  16  16  16   8
#     4   9  15  25  42  66  93 121 156 197 236 273
#     4  10  20  34  51  70  93 122 156 190 224 265
#     4   8  12  21  40  67  94 119 153 194 234 272
#     4  10  20  33  50  73  98 121 145 177 224 278
#     4   8  14  25  44  69  94 120 150 186 225 269
#     4   9  18  31  47  66  89 121 160 197 229 267
#     4  10  18  26  40  62  92 126 156 192 239 282
#
# _framework density 16.832317
#
# number of rings (size 3 to 8) (size 9 to 14) (size 15 to 20)
#    0.000    2.923    0.769    2.308    0.000    1.846 
#    0.000    0.000    0.000    2.769    0.000    6.462 
#    0.000    0.000    0.000    0.000    0.000    0.000 
#
# Total GULP energy -289675.696792 kJ/mol
# GULP energy per Si atom -5570.686477 kJ/mol
# Density = 1.679401 g / cm^3
# Si number density = 16.832317 Si / 1000 Ang^3
#
#
#
# Elastic Constant Matrix: (Units=GPa)
#
#
# Indices 1 2 3 4 5 6 
#
# 1 13.1714 16.3750 27.7704 0.0000 0.0000 0.0000
# 2 16.3750 67.9783 84.8418 0.0000 0.0000 0.0000
# 3 27.7704 84.8418 186.5047 0.0000 0.0000 0.0000
# 4 0.0000 0.0000 0.0000 18.4805 0.0000 0.0000
# 5 0.0000 0.0000 0.0000 0.0000 24.1382 0.0000
# 6 0.0000 0.0000 0.0000 0.0000 0.0000 8.4530
#
#
#
# Elastic Compliance Matrix: (Units=1/GPa)
#
#
# Indices 1 2 3 4 5 6 
#
# 1 0.116825 -0.014878 -0.010627 0.000000 0.000000 0.000000
# 2 -0.014878 0.035928 -0.014128 0.000000 0.000000 0.000000
# 3 -0.010627 -0.014128 0.013371 0.000000 0.000000 0.000000
# 4 0.000000 0.000000 0.000000 0.054111 0.000000 0.000000
# 5 0.000000 0.000000 0.000000 0.000000 0.041428 0.000000
# 6 0.000000 0.000000 0.000000 0.000000 0.000000 0.118301
#
#
# Mechanical properties :
#
#
# Convention : Reuss Voigt Hill
#
# Bulk Modulus (GPa) = 11.51319 58.40320 34.95819
# Shear Modulus (GPa) = 10.24203 19.45881 14.85042
#
# Velocity S-wave (km/s) = 2.46940 3.40375 2.97350
# Velocity P-wave (km/s) = 3.87110 7.08659 5.70986
#
# Compressibility (1/GPa) = 0.08685694
#
# Stress axis : x y z
#
# Youngs Moduli (GPa) = 8.55978 27.83367 74.78781
#
# Poissons Ratio (x) = 0.41412 0.79477
# Poissons Ratio (y) = 0.12736 1.05662
# Poissons Ratio (z) = 0.09096 0.39324
#
# Static dielectric constant tensor:
#      x y z
#    x 1.583400 0.000000 0.000000 
#    y 0.000000 1.561890 0.000000 
#    z 0.000000 0.000000 1.571810 
# 
# From -- ./inp_files/70542.got.cif
#   From: 2010.05.17/outbox.cif.g08.bks.cpg/sg74_36_cif.got.tgz:70542.got - 2010.06.03 17:57:02.
