data_PCOD9534660
_publ_section_title
;
Structure prediction by ZEFSAII (Michael W. Deem and Ramdas Pophale) SiO2 
 PCOD9534660
Probable space group: I M M A
;
_chemical_formula_sum "Si O2"
_cell_formula_units_Z 80
_cell_length_a 11.032673
_cell_length_b 20.011539
_cell_length_c 19.047161
_cell_angle_alpha 90.000000
_cell_angle_beta 90.000000
_cell_angle_gamma 90.000000
_cell_volume 4205.246796
_symmetry_space_group_name_H-M "I M M A"
_symmetry_group_IT_number 74
_symmetry_cell_setting 'orthorhombic'
loop_
_space_group_symop_operation_xyz
x,y,z
-x,1/2-y,z
x,-y,-z
-x,1/2+y,-z
-x,-y,-z
x,1/2+y,-z
-x,y,z
x,1/2-y,z
1/2+x,1/2+y,1/2+z
1/2-x,-y,1/2+z
1/2+x,1/2-y,1/2-z
1/2-x,y,1/2-z
1/2-x,1/2-y,1/2-z
1/2+x,y,1/2-z
1/2-x,1/2+y,1/2+z
1/2+x,-y,1/2+z
loop_
_atom_site_type_symbol
_atom_site_label
_atom_site_fract_x
_atom_site_fract_y
_atom_site_fract_z
Si Si1 0.000000 0.939555 0.945200
Si Si2 0.643381 0.321950 0.025720
Si Si3 0.758776 0.826405 0.367942
Si Si4 0.860723 0.954433 0.299486
Si Si5 0.736528 0.538518 0.925058
Si Si6 0.000000 0.169231 0.931819
O O1 0.123457 0.950840 0.903247
O O2 0.000000 0.873119 0.995310
O O3 0.000000 0.000000 0.000000
O O4 0.500000 0.320411 0.032114
O O5 0.694053 0.250000 0.050096
O O6 0.677321 0.327800 0.943919
O O7 0.689466 0.386949 0.064286
O O8 0.759103 0.750000 0.342300
O O9 0.828274 0.877703 0.318670
O O10 0.620354 0.847079 0.386815
O O11 0.750000 0.976979 0.250000
O O12 0.000000 0.960201 0.274745
O O13 0.841575 0.996434 0.370713
O O14 0.733583 0.500000 0.000000
O O15 0.000000 0.250000 0.944819
#
# Coordination Sequence:
#
# PCOD9534660 Si02
#       6
#     8  16  16  16  16   8
#     4  10  18  30  54  86 116 152 188 243 300 358
#     4  10  19  32  56  90 122 151 192 250 310 359
#     4  10  20  36  59  87 123 162 203 247 295 355
#     4  12  28  44  62  87 122 165 208 255 307 368
#     4  11  21  37  63  89 119 154 203 253 307 354
#     4  10  18  32  58  94 128 158 194 245 303 360
#
# _framework density 19.023854
#
# number of rings (size 3 to 8) (size 9 to 14) (size 15 to 20)
#    0.000    1.400    4.000    2.400    2.800    2.400 
#    0.000    0.000    0.000    0.600    0.000    0.000 
#    0.000    0.000    0.000    0.000    0.000    0.000 
#
# Total GULP energy -223225.400282 kJ/mol
# GULP energy per Si atom -5580.635007 kJ/mol
# Density = 1.898055 g / cm^3
# Si number density = 19.023854 Si / 1000 Ang^3
#
#
#
# Elastic Constant Matrix: (Units=GPa)
#
#
# Indices 1 2 3 4 5 6 
#
# 1 98.1294 36.3935 13.8334 0.0000 0.0000 0.0000
# 2 36.3935 93.8401 16.3860 0.0000 0.0000 0.0000
# 3 13.8334 16.3860 35.8431 0.0000 0.0000 0.0000
# 4 0.0000 0.0000 0.0000 12.5915 0.0000 0.0000
# 5 0.0000 0.0000 0.0000 0.0000 20.2702 0.0000
# 6 0.0000 0.0000 0.0000 0.0000 0.0000 10.1685
#
#
#
# Elastic Compliance Matrix: (Units=1/GPa)
#
#
# Indices 1 2 3 4 5 6 
#
# 1 0.012148 -0.004230 -0.002754 0.000000 0.000000 0.000000
# 2 -0.004230 0.013054 -0.004335 0.000000 0.000000 0.000000
# 3 -0.002754 -0.004335 0.030944 0.000000 0.000000 0.000000
# 4 0.000000 0.000000 0.000000 0.079419 0.000000 0.000000
# 5 0.000000 0.000000 0.000000 0.000000 0.049334 0.000000
# 6 0.000000 0.000000 0.000000 0.000000 0.000000 0.098343
#
#
# Mechanical properties :
#
#
# Convention : Reuss Voigt Hill
#
# Bulk Modulus (GPa) = 29.84503 40.11539 34.98021
# Shear Modulus (GPa) = 15.77042 19.35269 17.56155
#
# Velocity S-wave (km/s) = 2.88233 3.19295 3.04161
# Velocity P-wave (km/s) = 5.17681 5.89287 5.54641
#
# Compressibility (1/GPa) = 0.03350641
#
# Stress axis : x y z
#
# Youngs Moduli (GPa) = 82.31942 76.60480 32.31613
#
# Poissons Ratio (x) = 0.32406 0.08901
# Poissons Ratio (y) = 0.34823 0.14009
# Poissons Ratio (z) = 0.22675 0.33209
#
# Static dielectric constant tensor:
#      x y z
#    x 1.716880 0.000000 0.000000 
#    y 0.000000 1.683480 0.000000 
#    z 0.000000 0.000000 1.657860 
# 
# From -- ./inp_files/50423.got.cif
#   From: 2010.05.17/outbox.cif.g08.bks.cpg/sg74_26_cif.got.tgz:50423.got - 2010.06.03 17:57:02.
