data_PCOD9534101
_publ_section_title
;
Structure prediction by ZEFSAII (Michael W. Deem and Ramdas Pophale) SiO2 
 PCOD9534101
Probable space group: I M M A
;
_chemical_formula_sum "Si O2"
_cell_formula_units_Z 116
_cell_length_a 29.607461
_cell_length_b 7.465139
_cell_length_c 23.819813
_cell_angle_alpha 90.000000
_cell_angle_beta 90.000000
_cell_angle_gamma 90.000000
_cell_volume 5264.745866
_symmetry_space_group_name_H-M "I M M A"
_symmetry_group_IT_number 74
_symmetry_cell_setting 'orthorhombic'
loop_
_space_group_symop_operation_xyz
x,y,z
-x,1/2-y,z
x,-y,-z
-x,1/2+y,-z
-x,-y,-z
x,1/2+y,-z
-x,y,z
x,1/2-y,z
1/2+x,1/2+y,1/2+z
1/2-x,-y,1/2+z
1/2+x,1/2-y,1/2-z
1/2-x,y,1/2-z
1/2-x,1/2-y,1/2-z
1/2+x,y,1/2-z
1/2-x,1/2+y,1/2+z
1/2+x,-y,1/2+z
loop_
_atom_site_type_symbol
_atom_site_label
_atom_site_fract_x
_atom_site_fract_y
_atom_site_fract_z
Si Si1 0.141785 0.036003 0.437031
Si Si2 0.700692 0.045730 0.244596
Si Si3 0.169102 0.544649 0.135293
Si Si4 0.500000 0.250000 0.440188
Si Si5 0.925082 0.543933 0.093776
Si Si6 0.255246 0.037518 0.063967
Si Si7 0.883240 0.030338 0.320374
Si Si8 0.448203 0.033748 0.278713
O O1 0.144939 0.250000 0.432351
O O2 0.193443 0.967476 0.430746
O O3 0.111712 0.974044 0.384781
O O4 0.125813 0.000000 0.500000
O O5 0.708668 0.250000 0.225367
O O6 0.750000 0.960712 0.250000
O O7 0.666061 0.968593 0.200102
O O8 0.675609 0.048618 0.304668
O O9 0.158207 0.750000 0.148536
O O10 0.127654 0.482724 0.095832
O O11 0.217075 0.536111 0.104597
O O12 0.539936 0.408135 0.434680
O O13 0.929233 0.750000 0.072698
O O14 0.936776 0.542462 0.160371
O O15 0.256284 0.250000 0.073730
O O16 0.241535 0.000000 0.000000
O O17 0.884444 0.250000 0.318372
O O18 0.917922 0.970921 0.272904
O O19 0.500000 0.995319 0.266202
O O20 0.443269 0.250000 0.284606
#
# Coordination Sequence:
#
# PCOD9534101 Si02
#       8
#    16  16  16   4  16  16  16  16
#     4   9  18  34  53  76 100 138 184 234 279 327
#     4  10  19  31  50  73 104 148 187 222 274 342
#     4  11  23  35  51  79 116 146 180 227 276 333
#     4  12  22  36  60  78 112 152 190 224 292 338
#     4  11  22  35  54  83 114 145 187 235 276 340
#     4  10  20  35  57  78 106 140 185 230 274 327
#     4   9  17  29  49  73 103 136 183 227 275 342
#     4  10  17  30  51  75 103 141 182 229 286 336
#
# _framework density 22.033353000000002
#
# number of rings (size 3 to 8) (size 9 to 14) (size 15 to 20)
#    0.000    1.931    2.759    1.862    1.931    3.034 
#    0.000    1.379    0.000    0.414    0.000    0.483 
#    0.000    0.000    0.000    0.000    0.000    0.000 
#
# Total GULP energy -323405.064289 kJ/mol
# GULP energy per Si atom -5575.949384 kJ/mol
# Density = 2.198320 g / cm^3
# Si number density = 22.033353 Si / 1000 Ang^3
#
#
#
# Elastic Constant Matrix: (Units=GPa)
#
#
# Indices 1 2 3 4 5 6 
#
# 1 39.9639 11.3262 -0.4665 0.0000 0.0000 0.0000
# 2 11.3262 85.5346 -4.2931 0.0000 0.0000 0.0000
# 3 -0.4665 -4.2931 82.6612 0.0000 0.0000 0.0000
# 4 0.0000 0.0000 0.0000 9.9356 0.0000 0.0000
# 5 0.0000 0.0000 0.0000 0.0000 7.3804 0.0000
# 6 0.0000 0.0000 0.0000 0.0000 0.0000 59.7589
#
#
#
# Elastic Compliance Matrix: (Units=1/GPa)
#
#
# Indices 1 2 3 4 5 6 
#
# 1 0.025998 -0.003444 -0.000032 0.000000 0.000000 0.000000
# 2 -0.003444 0.012178 0.000613 0.000000 0.000000 0.000000
# 3 -0.000032 0.000613 0.012129 0.000000 0.000000 0.000000
# 4 0.000000 0.000000 0.000000 0.100648 0.000000 0.000000
# 5 0.000000 0.000000 0.000000 0.000000 0.135495 0.000000
# 6 0.000000 0.000000 0.000000 0.000000 0.000000 0.016734
#
#
# Mechanical properties :
#
#
# Convention : Reuss Voigt Hill
#
# Bulk Modulus (GPa) = 22.43216 24.58812 23.51014
# Shear Modulus (GPa) = 15.44314 28.85452 22.14883
#
# Velocity S-wave (km/s) = 2.65032 3.62274 3.17399
# Velocity P-wave (km/s) = 4.42365 5.35563 4.91179
#
# Compressibility (1/GPa) = 0.04457885
#
# Stress axis : x y z
#
# Youngs Moduli (GPa) = 38.46402 82.11519 82.44544
#
# Poissons Ratio (x) = 0.28282 0.00265
# Poissons Ratio (y) = 0.13248 -0.05054
# Poissons Ratio (z) = 0.00124 -0.05034
#
# Static dielectric constant tensor:
#      x y z
#    x 1.817890 0.000000 0.000000 
#    y 0.000000 1.883050 0.000000 
#    z 0.000000 0.000000 1.814650 
# 
# From -- ./inp_files/62744.got.cif
#   From: 2010.05.17/outbox.cif.g08.bks.cpg/sg74_32_cif.got.tgz:62744.got - 2010.06.03 17:57:02.
