data_PCOD9534558
_publ_section_title
;
Structure prediction by ZEFSAII (Michael W. Deem and Ramdas Pophale) SiO2 
 PCOD9534558
Probable space group: I M M A
;
_chemical_formula_sum "Si O2"
_cell_formula_units_Z 72
_cell_length_a 8.613433
_cell_length_b 15.951292
_cell_length_c 29.428272
_cell_angle_alpha 90.000000
_cell_angle_beta 90.000000
_cell_angle_gamma 90.000000
_cell_volume 4043.308759
_symmetry_space_group_name_H-M "I M M A"
_symmetry_group_IT_number 74
_symmetry_cell_setting 'orthorhombic'
loop_
_space_group_symop_operation_xyz
x,y,z
-x,1/2-y,z
x,-y,-z
-x,1/2+y,-z
-x,-y,-z
x,1/2+y,-z
-x,y,z
x,1/2-y,z
1/2+x,1/2+y,1/2+z
1/2-x,-y,1/2+z
1/2+x,1/2-y,1/2-z
1/2-x,y,1/2-z
1/2-x,1/2-y,1/2-z
1/2+x,y,1/2-z
1/2-x,1/2+y,1/2+z
1/2+x,-y,1/2+z
loop_
_atom_site_type_symbol
_atom_site_label
_atom_site_fract_x
_atom_site_fract_y
_atom_site_fract_z
Si Si1 0.685460 0.250000 0.698414
Si Si2 0.815026 0.654266 0.951630
Si Si3 0.687501 0.493329 0.109147
Si Si4 0.685590 0.925864 0.199314
Si Si5 0.687120 0.655863 0.052656
O O1 0.500000 0.250000 0.698159
O O2 0.750000 0.250000 0.750000
O O3 0.751231 0.162875 0.680093
O O4 0.777243 0.750000 0.937957
O O5 0.757196 0.586694 0.915632
O O6 0.000000 0.647739 0.957023
O O7 0.737403 0.639967 0.000755
O O8 0.500000 0.489403 0.105869
O O9 0.727821 0.504485 0.162179
O O10 0.739939 0.578090 0.083174
O O11 0.500000 0.919223 0.202240
O O12 0.750000 0.939512 0.250000
O O13 0.500000 0.657487 0.055025
O O14 0.743316 0.750000 0.065431
#
# Coordination Sequence:
#
# PCOD9534558 Si02
#       5
#     8  16  16  16  16
#     4  10  18  30  48  70  98 136 174 206 248 300
#     4  10  21  36  53  75 105 137 169 213 266 311
#     4  10  21  34  54  79 102 136 178 216 255 303
#     4  10  20  34  52  74 104 137 173 216 259 305
#     4   9  18  33  53  76 105 139 173 208 249 303
#
# _framework density 17.807198
#
# number of rings (size 3 to 8) (size 9 to 14) (size 15 to 20)
#    0.000    2.222    0.000    4.333    1.556    6.667 
#    0.000    0.000    0.000    0.667    0.000    0.000 
#    0.000    0.000    0.000    0.000    0.000    0.000 
#
# Total GULP energy -200867.680645 kJ/mol
# GULP energy per Si atom -5579.657796 kJ/mol
# Density = 1.776667 g / cm^3
# Si number density = 17.807198 Si / 1000 Ang^3
#
#
#
# Elastic Constant Matrix: (Units=GPa)
#
#
# Indices 1 2 3 4 5 6 
#
# 1 35.5038 25.0117 21.3311 0.0000 0.0000 0.0000
# 2 25.0117 96.4543 72.0924 0.0000 0.0000 0.0000
# 3 21.3311 72.0924 90.1749 0.0000 0.0000 0.0000
# 4 0.0000 0.0000 0.0000 27.9400 0.0000 0.0000
# 5 0.0000 0.0000 0.0000 0.0000 13.1435 0.0000
# 6 0.0000 0.0000 0.0000 0.0000 0.0000 26.4954
#
#
#
# Elastic Compliance Matrix: (Units=1/GPa)
#
#
# Indices 1 2 3 4 5 6 
#
# 1 0.034690 -0.007112 -0.002520 0.000000 0.000000 0.000000
# 2 -0.007112 0.027219 -0.020078 0.000000 0.000000 0.000000
# 3 -0.002520 -0.020078 0.027738 0.000000 0.000000 0.000000
# 4 0.000000 0.000000 0.000000 0.035791 0.000000 0.000000
# 5 0.000000 0.000000 0.000000 0.000000 0.076083 0.000000
# 6 0.000000 0.000000 0.000000 0.000000 0.000000 0.037742
#
#
# Mechanical properties :
#
#
# Convention : Reuss Voigt Hill
#
# Bulk Modulus (GPa) = 33.08419 51.00037 42.04228
# Shear Modulus (GPa) = 16.19379 20.42896 18.31138
#
# Velocity S-wave (km/s) = 3.01889 3.39075 3.21021
# Velocity P-wave (km/s) = 5.54717 6.63567 6.11568
#
# Compressibility (1/GPa) = 0.03022591
#
# Stress axis : x y z
#
# Youngs Moduli (GPa) = 28.82642 36.73913 36.05172
#
# Poissons Ratio (x) = 0.26128 0.09086
# Poissons Ratio (y) = 0.20501 0.72386
# Poissons Ratio (z) = 0.07265 0.73767
#
# Static dielectric constant tensor:
#      x y z
#    x 1.602390 0.000000 0.000000 
#    y 0.000000 1.619730 0.000000 
#    z 0.000000 0.000000 1.592070 
# 
# From -- ./inp_files/63599.got.cif
#   From: 2010.05.17/outbox.cif.g08.bks.cpg/sg74_32_cif.got.tgz:63599.got - 2010.06.03 17:57:02.
