data_PCOD9534353
_publ_section_title
;
Structure prediction by ZEFSAII (Michael W. Deem and Ramdas Pophale) SiO2 
 PCOD9534353
Probable space group: I M M A
;
_chemical_formula_sum "Si O2"
_cell_formula_units_Z 72
_cell_length_a 7.749764
_cell_length_b 18.872738
_cell_length_c 31.854001
_cell_angle_alpha 90.000000
_cell_angle_beta 90.000000
_cell_angle_gamma 90.000000
_cell_volume 4658.942791
_symmetry_space_group_name_H-M "I M M A"
_symmetry_group_IT_number 74
_symmetry_cell_setting 'orthorhombic'
loop_
_space_group_symop_operation_xyz
x,y,z
-x,1/2-y,z
x,-y,-z
-x,1/2+y,-z
-x,-y,-z
x,1/2+y,-z
-x,y,z
x,1/2-y,z
1/2+x,1/2+y,1/2+z
1/2-x,-y,1/2+z
1/2+x,1/2-y,1/2-z
1/2-x,y,1/2-z
1/2-x,1/2-y,1/2-z
1/2+x,y,1/2-z
1/2-x,1/2+y,1/2+z
1/2+x,-y,1/2+z
loop_
_atom_site_type_symbol
_atom_site_label
_atom_site_fract_x
_atom_site_fract_y
_atom_site_fract_z
Si Si1 0.500000 0.530109 0.431980
Si Si2 0.803571 0.471884 0.380828
Si Si3 0.297660 0.670921 0.932265
Si Si4 0.000000 0.884736 0.986785
Si Si5 0.706969 0.250000 0.299376
Si Si6 0.793192 0.405363 0.200963
O O1 0.667641 0.523571 0.402658
O O2 0.500000 0.459077 0.460947
O O3 0.500000 0.594725 0.464498
O O4 0.766618 0.393371 0.400086
O O5 0.780022 0.462672 0.331099
O O6 0.000000 0.490258 0.391195
O O7 0.500000 0.667833 0.943993
O O8 0.262875 0.750000 0.914954
O O9 0.169175 0.656546 0.970863
O O10 0.500000 0.250000 0.305338
O O11 0.750000 0.250000 0.250000
O O12 0.773238 0.326895 0.313073
O O13 0.750000 0.415574 0.250000
O O14 0.000000 0.405362 0.196870
#
# Coordination Sequence:
#
# PCOD9534353 Si02
#       6
#     8  16  16   8   8  16
#     4   9  18  32  44  62  82 104 146 188 216 263
#     4  10  19  30  43  61  83 112 144 184 224 253
#     4   9  18  30  44  66  89 110 140 173 216 270
#     4   9  17  30  48  62  81 111 140 178 226 257
#     4   8  16  26  36  50  70  98 132 174 218 256
#     4  10  18  29  40  56  79 108 145 184 223 264
#
# _framework density 15.45415
#
# number of rings (size 3 to 8) (size 9 to 14) (size 15 to 20)
#    0.000    2.667    1.111    1.000    1.556    1.778 
#    0.000    4.444    0.000    0.000    0.000    0.000 
#    0.000    0.000    0.000    0.000    0.000    4.444 
#
# Total GULP energy -200494.137919 kJ/mol
# GULP energy per Si atom -5569.281609 kJ/mol
# Density = 1.541898 g / cm^3
# Si number density = 15.454150 Si / 1000 Ang^3
#
#
#
# Elastic Constant Matrix: (Units=GPa)
#
#
# Indices 1 2 3 4 5 6 
#
# 1 56.5423 9.0985 28.2609 0.0000 0.0000 0.0000
# 2 9.0985 11.3675 13.1735 0.0000 0.0000 0.0000
# 3 28.2609 13.1735 79.3564 0.0000 0.0000 0.0000
# 4 0.0000 0.0000 0.0000 27.8586 0.0000 0.0000
# 5 0.0000 0.0000 0.0000 0.0000 18.5137 0.0000
# 6 0.0000 0.0000 0.0000 0.0000 0.0000 9.9542
#
#
#
# Elastic Compliance Matrix: (Units=1/GPa)
#
#
# Indices 1 2 3 4 5 6 
#
# 1 0.022542 -0.010821 -0.006231 0.000000 0.000000 0.000000
# 2 -0.010821 0.114119 -0.015091 0.000000 0.000000 0.000000
# 3 -0.006231 -0.015091 0.017326 0.000000 0.000000 0.000000
# 4 0.000000 0.000000 0.000000 0.035896 0.000000 0.000000
# 5 0.000000 0.000000 0.000000 0.000000 0.054014 0.000000
# 6 0.000000 0.000000 0.000000 0.000000 0.000000 0.100460
#
#
# Mechanical properties :
#
#
# Convention : Reuss Voigt Hill
#
# Bulk Modulus (GPa) = 11.14822 27.59248 19.37035
# Shear Modulus (GPa) = 11.40142 17.71419 14.55780
#
# Velocity S-wave (km/s) = 2.71912 3.38929 3.07253
# Velocity P-wave (km/s) = 4.13371 5.76277 5.01483
#
# Compressibility (1/GPa) = 0.08970046
#
# Stress axis : x y z
#
# Youngs Moduli (GPa) = 44.36226 8.76278 57.71791
#
# Poissons Ratio (x) = 0.09482 0.35966
# Poissons Ratio (y) = 0.48004 0.87100
# Poissons Ratio (z) = 0.27644 0.13224
#
# Static dielectric constant tensor:
#      x y z
#    x 1.539050 0.000000 0.000000 
#    y 0.000000 1.500730 0.000000 
#    z 0.000000 0.000000 1.519950 
# 
# From -- ./inp_files/64173.got.cif
#   From: 2010.05.17/outbox.cif.g08.bks.cpg/sg74_33_cif.got.tgz:64173.got - 2010.06.03 17:57:02.
