data_PCOD9534521
_publ_section_title
;
Structure prediction by ZEFSAII (Michael W. Deem and Ramdas Pophale) SiO2 
 PCOD9534521
Probable space group: I M M A
;
_chemical_formula_sum "Si O2"
_cell_formula_units_Z 104
_cell_length_a 19.145057
_cell_length_b 15.171797
_cell_length_c 15.316366
_cell_angle_alpha 90.000000
_cell_angle_beta 90.000000
_cell_angle_gamma 90.000000
_cell_volume 4448.867000
_symmetry_space_group_name_H-M "I M M A"
_symmetry_group_IT_number 74
_symmetry_cell_setting 'orthorhombic'
loop_
_space_group_symop_operation_xyz
x,y,z
-x,1/2-y,z
x,-y,-z
-x,1/2+y,-z
-x,-y,-z
x,1/2+y,-z
-x,y,z
x,1/2-y,z
1/2+x,1/2+y,1/2+z
1/2-x,-y,1/2+z
1/2+x,1/2-y,1/2-z
1/2-x,y,1/2-z
1/2-x,1/2-y,1/2-z
1/2+x,y,1/2-z
1/2-x,1/2+y,1/2+z
1/2+x,-y,1/2+z
loop_
_atom_site_type_symbol
_atom_site_label
_atom_site_fract_x
_atom_site_fract_y
_atom_site_fract_z
Si Si1 0.000000 0.657158 0.824453
Si Si2 0.000000 0.854064 0.047615
Si Si3 0.000000 0.531999 0.212745
Si Si4 0.149969 0.855503 0.067398
Si Si5 0.347018 0.965881 0.253372
Si Si6 0.140547 0.652613 0.713222
Si Si7 0.918831 0.603303 0.524467
Si Si8 0.702088 0.151312 0.901308
O O1 0.000000 0.554307 0.851246
O O2 0.931496 0.661625 0.766116
O O3 0.000000 0.750000 0.877587
O O4 0.000000 0.886784 0.147491
O O5 0.078661 0.880931 0.015082
O O6 0.000000 0.750000 0.051095
O O7 0.930219 0.531495 0.269689
O O8 0.143502 0.750000 0.082592
O O9 0.151876 0.911825 0.156578
O O10 0.230379 0.868306 0.036660
O O11 0.305343 0.916622 0.177912
O O12 0.324882 0.067749 0.258672
O O13 0.173905 0.750000 0.712998
O O14 0.118752 0.624766 0.615809
O O15 0.916972 0.500000 0.500000
O O16 0.869931 0.648554 0.453125
O O17 0.000000 0.631228 0.527159
O O18 0.712288 0.250000 0.865503
#
# Coordination Sequence:
#
# PCOD9534521 Si02
#       8
#     8   8   8  16  16  16  16  16
#     4   8  14  24  40  60  85 124 163 202 242 272
#     4   8  14  28  48  67  93 125 151 189 247 305
#     4   8  16  24  39  62  90 124 166 198 229 293
#     4   9  18  33  51  74 102 131 165 207 261 316
#     4  10  18  30  46  68  99 135 168 213 255 299
#     4  10  18  30  47  66  94 134 177 214 250 292
#     4  11  22  35  51  71 106 148 186 216 252 301
#     4  11  22  32  48  73  99 135 175 209 253 307
#
# _framework density 23.376738
#
# number of rings (size 3 to 8) (size 9 to 14) (size 15 to 20)
#    0.000    2.308    2.308    1.385    1.077    2.769 
#    0.000    0.000    0.000    1.846    0.000    0.538 
#    0.000    0.000    0.000    0.000    0.462    0.000 
#
# Total GULP energy -289708.910525 kJ/mol
# GULP energy per Si atom -5571.325202 kJ/mol
# Density = 2.332353 g / cm^3
# Si number density = 23.376738 Si / 1000 Ang^3
#
#
#
# Elastic Constant Matrix: (Units=GPa)
#
#
# Indices 1 2 3 4 5 6 
#
# 1 136.0039 14.4179 -2.9079 0.0000 0.0000 0.0000
# 2 14.4179 112.7892 33.5280 0.0000 0.0000 0.0000
# 3 -2.9079 33.5280 43.4941 0.0000 0.0000 0.0000
# 4 0.0000 0.0000 0.0000 -13.7995 0.0000 0.0000
# 5 0.0000 0.0000 0.0000 0.0000 9.1869 0.0000
# 6 0.0000 0.0000 0.0000 0.0000 0.0000 8.3418
#
#
#
# Elastic Compliance Matrix: (Units=1/GPa)
#
#
# Indices 1 2 3 4 5 6 
#
# 1 0.007540 -0.001445 0.001618 0.000000 0.000000 0.000000
# 2 -0.001445 0.011779 -0.009176 0.000000 0.000000 0.000000
# 3 0.001618 -0.009176 0.030173 0.000000 0.000000 0.000000
# 4 0.000000 0.000000 0.000000 -0.072466 0.000000 0.000000
# 5 0.000000 0.000000 0.000000 0.000000 0.108851 0.000000
# 6 0.000000 0.000000 0.000000 0.000000 0.000000 0.119878
#
#
# Mechanical properties :
#
#
# Convention : Reuss Voigt Hill
#
# Bulk Modulus (GPa) = 31.76001 42.48480 37.12240
# Shear Modulus (GPa) = 21.34413 17.22912 19.28663
#
# Velocity S-wave (km/s) = 3.02495 2.71776 2.87546
# Velocity P-wave (km/s) = 5.08095 5.29733 5.19027
#
# Compressibility (1/GPa) = 0.03148613
#
# Stress axis : x y z
#
# Youngs Moduli (GPa) = 132.61735 84.90013 33.14171
#
# Poissons Ratio (x) = 0.12267 -0.05362
# Poissons Ratio (y) = 0.19161 0.30412
# Poissons Ratio (z) = -0.21456 0.77906
#
# Static dielectric constant tensor:
#      x y z
#    x 2.460780 0.000000 0.000000 
#    y 0.000000 1.934940 0.000000 
#    z 0.000000 0.000000 1.825030 
# 
# From -- ./inp_files/54042.got.cif
#   From: 2010.05.17/outbox.cif.g08.bks.cpg/sg74_28_cif.got.tgz:54042.got - 2010.06.03 17:57:02.
