data_PCOD9534920
_publ_section_title
;
Structure prediction by ZEFSAII (Michael W. Deem and Ramdas Pophale) SiO2 
 PCOD9534920
Probable space group: I M M A
;
_chemical_formula_sum "Si O2"
_cell_formula_units_Z 88
_cell_length_a 8.590956
_cell_length_b 19.447176
_cell_length_c 25.168690
_cell_angle_alpha 90.000000
_cell_angle_beta 90.000000
_cell_angle_gamma 90.000000
_cell_volume 4204.928844
_symmetry_space_group_name_H-M "I M M A"
_symmetry_group_IT_number 74
_symmetry_cell_setting 'orthorhombic'
loop_
_space_group_symop_operation_xyz
x,y,z
-x,1/2-y,z
x,-y,-z
-x,1/2+y,-z
-x,-y,-z
x,1/2+y,-z
-x,y,z
x,1/2-y,z
1/2+x,1/2+y,1/2+z
1/2-x,-y,1/2+z
1/2+x,1/2-y,1/2-z
1/2-x,y,1/2-z
1/2-x,1/2-y,1/2-z
1/2+x,y,1/2-z
1/2-x,1/2+y,1/2+z
1/2+x,-y,1/2+z
loop_
_atom_site_type_symbol
_atom_site_label
_atom_site_fract_x
_atom_site_fract_y
_atom_site_fract_z
Si Si1 0.812289 0.541825 0.591470
Si Si2 0.690041 0.325931 0.024696
Si Si3 0.312828 0.888179 0.084583
Si Si4 0.185806 0.250000 0.310331
Si Si5 0.184755 0.894111 0.809326
Si Si6 0.814188 0.169768 0.806275
O O1 0.757092 0.607386 0.557551
O O2 0.772835 0.466783 0.569333
O O3 0.742452 0.548565 0.650244
O O4 0.000000 0.545846 0.594594
O O5 0.500000 0.326384 0.027051
O O6 0.740870 0.250000 0.042955
O O7 0.735407 0.338490 0.963397
O O8 0.500000 0.884279 0.088610
O O9 0.244345 0.868571 0.141407
O O10 0.250000 0.250000 0.250000
O O11 0.247940 0.178149 0.331986
O O12 0.000000 0.250000 0.311373
O O13 0.250000 0.903763 0.750000
O O14 0.000000 0.889866 0.806635
O O15 0.763964 0.250000 0.810555
O O16 0.750000 0.142700 0.750000
O O17 0.000000 0.167479 0.804510
#
# Coordination Sequence:
#
# PCOD9534920 Si02
#       6
#    16  16  16   8  16  16
#     4  10  21  36  56  85 118 155 196 242 292 345
#     4   9  18  34  59  88 114 148 195 243 291 345
#     4  10  20  36  59  86 119 155 194 239 290 349
#     4  10  18  32  54  78 106 142 184 232 283 336
#     4  11  22  37  56  81 113 151 194 240 289 345
#     4  10  21  37  59  88 120 154 194 238 288 347
#
# _framework density 20.927821999999999
#
# number of rings (size 3 to 8) (size 9 to 14) (size 15 to 20)
#    0.000    2.000    0.000    5.182    1.273    5.455 
#    0.000    0.909    0.000    3.273    0.000    0.000 
#    0.000    0.000    0.000    0.000    0.000    0.000 
#
# Total GULP energy -245761.894953 kJ/mol
# GULP energy per Si atom -5585.497613 kJ/mol
# Density = 2.088019 g / cm^3
# Si number density = 20.927822 Si / 1000 Ang^3
#
#
#
# Elastic Constant Matrix: (Units=GPa)
#
#
# Indices 1 2 3 4 5 6 
#
# 1 25.4258 28.7583 5.2151 0.0000 0.0000 0.0000
# 2 28.7583 89.8741 40.1921 0.0000 0.0000 0.0000
# 3 5.2151 40.1921 101.7849 0.0000 0.0000 0.0000
# 4 0.0000 0.0000 0.0000 36.7947 0.0000 0.0000
# 5 0.0000 0.0000 0.0000 0.0000 21.7911 0.0000
# 6 0.0000 0.0000 0.0000 0.0000 0.0000 18.9766
#
#
#
# Elastic Compliance Matrix: (Units=1/GPa)
#
#
# Indices 1 2 3 4 5 6 
#
# 1 0.064408 -0.023237 0.005876 0.000000 0.000000 0.000000
# 2 -0.023237 0.021896 -0.007456 0.000000 0.000000 0.000000
# 3 0.005876 -0.007456 0.012468 0.000000 0.000000 0.000000
# 4 0.000000 0.000000 0.000000 0.027178 0.000000 0.000000
# 5 0.000000 0.000000 0.000000 0.000000 0.045890 0.000000
# 6 0.000000 0.000000 0.000000 0.000000 0.000000 0.052696
#
#
# Mechanical properties :
#
#
# Convention : Reuss Voigt Hill
#
# Bulk Modulus (GPa) = 20.35106 40.60176 30.47641
# Shear Modulus (GPa) = 17.20876 25.04044 21.12460
#
# Velocity S-wave (km/s) = 2.87067 3.46282 3.18056
# Velocity P-wave (km/s) = 4.55337 5.95241 5.29926
#
# Compressibility (1/GPa) = 0.04913749
#
# Stress axis : x y z
#
# Youngs Moduli (GPa) = 15.52609 45.66961 80.20763
#
# Poissons Ratio (x) = 1.06123 -0.47127
# Poissons Ratio (y) = 0.36078 0.59800
# Poissons Ratio (z) = -0.09123 0.34050
#
# Static dielectric constant tensor:
#      x y z
#    x 2.648880 0.000000 0.000000 
#    y 0.000000 1.805980 0.000000 
#    z 0.000000 0.000000 1.735130 
# 
# From -- ./inp_files/56965.got.cif
#   From: 2010.05.17/outbox.cif.g08.bks.cpg/sg74_29_cif.got.tgz:56965.got - 2010.06.03 17:57:02.
