data_PCOD9534463
_publ_section_title
;
Structure prediction by ZEFSAII (Michael W. Deem and Ramdas Pophale) SiO2 
 PCOD9534463
Probable space group: I M M A
;
_chemical_formula_sum "Si O2"
_cell_formula_units_Z 80
_cell_length_a 25.669948
_cell_length_b 8.680890
_cell_length_c 21.112720
_cell_angle_alpha 90.000000
_cell_angle_beta 90.000000
_cell_angle_gamma 90.000000
_cell_volume 4704.716192
_symmetry_space_group_name_H-M "I M M A"
_symmetry_group_IT_number 74
_symmetry_cell_setting 'orthorhombic'
loop_
_space_group_symop_operation_xyz
x,y,z
-x,1/2-y,z
x,-y,-z
-x,1/2+y,-z
-x,-y,-z
x,1/2+y,-z
-x,y,z
x,1/2-y,z
1/2+x,1/2+y,1/2+z
1/2-x,-y,1/2+z
1/2+x,1/2-y,1/2-z
1/2-x,y,1/2-z
1/2-x,1/2-y,1/2-z
1/2+x,y,1/2-z
1/2-x,1/2+y,1/2+z
1/2+x,-y,1/2+z
loop_
_atom_site_type_symbol
_atom_site_label
_atom_site_fract_x
_atom_site_fract_y
_atom_site_fract_z
Si Si1 0.775005 0.433993 0.566151
Si Si2 0.500000 0.928270 0.255446
Si Si3 0.216983 0.435374 0.187593
Si Si4 0.612423 0.563009 0.110998
Si Si5 0.609144 0.065832 0.252941
Si Si6 0.500000 0.428768 0.899089
O O1 0.755239 0.500000 0.500000
O O2 0.774974 0.250000 0.564322
O O3 0.741624 0.490049 0.625734
O O4 0.835121 0.486830 0.576106
O O5 0.500000 0.750000 0.273678
O O6 0.500000 0.932747 0.178088
O O7 0.552982 0.009630 0.276429
O O8 0.220375 0.250000 0.181378
O O9 0.250000 0.479138 0.250000
O O10 0.157233 0.477564 0.202153
O O11 0.610069 0.750000 0.111236
O O12 0.617295 0.507818 0.183566
O O13 0.556729 0.504313 0.083758
O O14 0.609239 0.250000 0.245638
O O15 0.500000 0.250000 0.919468
#
# Coordination Sequence:
#
# PCOD9534463 Si02
#       6
#    16   8  16  16  16   8
#     4  11  23  36  52  73 102 140 181 222 266 318
#     4   9  17  29  45  70 107 138 165 207 255 305
#     4  10  20  35  54  78 107 137 171 218 268 311
#     4   9  17  30  48  70  97 134 174 216 260 305
#     4  10  18  29  50  77 104 134 169 212 259 308
#     4   7  12  25  44  64  90 124 165 209 250 289
#
# _framework density 17.004213
#
# number of rings (size 3 to 8) (size 9 to 14) (size 15 to 20)
#    0.000    2.400    2.000    2.700    0.000    2.800 
#    0.000    0.500    0.000    0.000    0.000    0.700 
#    0.000    0.000    0.000    0.000    0.000    0.000 
#
# Total GULP energy -223030.804862 kJ/mol
# GULP energy per Si atom -5575.770122 kJ/mol
# Density = 1.696551 g / cm^3
# Si number density = 17.004213 Si / 1000 Ang^3
#
#
#
# Elastic Constant Matrix: (Units=GPa)
#
#
# Indices 1 2 3 4 5 6 
#
# 1 121.8358 23.5210 51.5016 0.0000 0.0000 0.0000
# 2 23.5210 17.1484 18.1155 0.0000 0.0000 0.0000
# 3 51.5016 18.1155 91.5934 0.0000 0.0000 0.0000
# 4 0.0000 0.0000 0.0000 17.6014 0.0000 0.0000
# 5 0.0000 0.0000 0.0000 0.0000 9.4351 0.0000
# 6 0.0000 0.0000 0.0000 0.0000 0.0000 23.2904
#
#
#
# Elastic Compliance Matrix: (Units=1/GPa)
#
#
# Indices 1 2 3 4 5 6 
#
# 1 0.012536 -0.012323 -0.004612 0.000000 0.000000 0.000000
# 2 -0.012323 0.085830 -0.010047 0.000000 0.000000 0.000000
# 3 -0.004612 -0.010047 0.015498 0.000000 0.000000 0.000000
# 4 0.000000 0.000000 0.000000 0.056814 0.000000 0.000000
# 5 0.000000 0.000000 0.000000 0.000000 0.105987 0.000000
# 6 0.000000 0.000000 0.000000 0.000000 0.000000 0.042936
#
#
# Mechanical properties :
#
#
# Convention : Reuss Voigt Hill
#
# Bulk Modulus (GPa) = 16.69405 46.31711 31.50558
# Shear Modulus (GPa) = 12.70550 19.22803 15.96676
#
# Velocity S-wave (km/s) = 2.73646 3.36636 3.06762
# Velocity P-wave (km/s) = 4.45232 6.51211 5.57811
#
# Compressibility (1/GPa) = 0.05990159
#
# Stress axis : x y z
#
# Youngs Moduli (GPa) = 79.76890 11.65092 64.52485
#
# Poissons Ratio (x) = 0.14358 0.29757
# Poissons Ratio (y) = 0.98300 0.64825
# Poissons Ratio (z) = 0.36787 0.11705
#
# Static dielectric constant tensor:
#      x y z
#    x 1.619530 0.000000 0.000000 
#    y 0.000000 1.569760 0.000000 
#    z 0.000000 0.000000 1.541750 
# 
# From -- ./inp_files/39801.got.cif
#   From: 2010.05.17/outbox.cif.g08.bks.cpg/sg74_20_cif.got.tgz:39801.got - 2010.06.03 17:57:02.
