data_PCOD9534739
_publ_section_title
;
Structure prediction by ZEFSAII (Michael W. Deem and Ramdas Pophale) SiO2 
 PCOD9534739
Probable space group: I M M A
;
_chemical_formula_sum "Si O2"
_cell_formula_units_Z 72
_cell_length_a 10.435796
_cell_length_b 22.868491
_cell_length_c 17.556364
_cell_angle_alpha 90.000000
_cell_angle_beta 90.000000
_cell_angle_gamma 90.000000
_cell_volume 4189.842191
_symmetry_space_group_name_H-M "I M M A"
_symmetry_group_IT_number 74
_symmetry_cell_setting 'orthorhombic'
loop_
_space_group_symop_operation_xyz
x,y,z
-x,1/2-y,z
x,-y,-z
-x,1/2+y,-z
-x,-y,-z
x,1/2+y,-z
-x,y,z
x,1/2-y,z
1/2+x,1/2+y,1/2+z
1/2-x,-y,1/2+z
1/2+x,1/2-y,1/2-z
1/2-x,y,1/2-z
1/2-x,1/2-y,1/2-z
1/2+x,y,1/2-z
1/2-x,1/2+y,1/2+z
1/2+x,-y,1/2+z
loop_
_atom_site_type_symbol
_atom_site_label
_atom_site_fract_x
_atom_site_fract_y
_atom_site_fract_z
Si Si1 0.848930 0.121402 0.679333
Si Si2 0.000000 0.817459 0.842783
Si Si3 0.351922 0.250000 0.818192
Si Si4 0.649465 0.503566 0.090471
Si Si5 0.249933 0.111488 0.341919
Si Si6 0.500000 0.817033 0.842968
O O1 0.750000 0.117323 0.750000
O O2 0.834778 0.186561 0.643231
O O3 0.822876 0.068056 0.622464
O O4 0.000000 0.116349 0.703053
O O5 0.124945 0.853229 0.866662
O O6 0.000000 0.750000 0.868062
O O7 0.000000 0.815969 0.749858
O O8 0.500000 0.250000 0.790240
O O9 0.250000 0.250000 0.750000
O O10 0.500000 0.490573 0.110111
O O11 0.736903 0.453998 0.127876
O O12 0.661928 0.500000 0.000000
O O13 0.250000 0.109431 0.250000
O O14 0.125837 0.148164 0.367179
O O15 0.500000 0.750000 0.868824
#
# Coordination Sequence:
#
# PCOD9534739 Si02
#       6
#    16   8   8  16  16   8
#     4   9  17  31  53  78 100 127 163 206 252 298
#     4   9  18  30  49  76 102 131 157 210 258 286
#     4   8  14  26  48  76 100 120 153 202 252 296
#     4  10  20  34  51  70 103 136 169 206 249 292
#     4  10  18  31  51  75 100 129 171 208 249 296
#     4   9  16  28  49  74 102 127 167 208 244 290
#
# _framework density 17.184418000000001
#
# number of rings (size 3 to 8) (size 9 to 14) (size 15 to 20)
#    0.000    2.667    1.111    1.333    0.000    2.667 
#    2.000    0.556    4.889    0.000    0.000    0.000 
#    0.000    0.000    0.000    0.000    0.000    0.000 
#
# Total GULP energy -200423.069506 kJ/mol
# GULP energy per Si atom -5567.307486 kJ/mol
# Density = 1.714531 g / cm^3
# Si number density = 17.184418 Si / 1000 Ang^3
#
#
#
# Elastic Constant Matrix: (Units=GPa)
#
#
# Indices 1 2 3 4 5 6 
#
# 1 104.3977 74.1830 20.5660 0.0000 0.0000 0.0000
# 2 74.1830 203.1970 41.0979 0.0000 0.0000 0.0000
# 3 20.5660 41.0979 23.8553 0.0000 0.0000 0.0000
# 4 0.0000 0.0000 0.0000 -3.5307 0.0000 0.0000
# 5 0.0000 0.0000 0.0000 0.0000 8.1069 0.0000
# 6 0.0000 0.0000 0.0000 0.0000 0.0000 29.5061
#
#
#
# Elastic Compliance Matrix: (Units=1/GPa)
#
#
# Indices 1 2 3 4 5 6 
#
# 1 0.013276 -0.003886 -0.004751 0.000000 0.000000 0.000000
# 2 -0.003886 0.008691 -0.011622 0.000000 0.000000 0.000000
# 3 -0.004751 -0.011622 0.066038 0.000000 0.000000 0.000000
# 4 0.000000 0.000000 0.000000 -0.283231 0.000000 0.000000
# 5 0.000000 0.000000 0.000000 0.000000 0.123352 0.000000
# 6 0.000000 0.000000 0.000000 0.000000 0.000000 0.033891
#
#
# Mechanical properties :
#
#
# Convention : Reuss Voigt Hill
#
# Bulk Modulus (GPa) = 21.05851 67.01598 44.03725
# Shear Modulus (GPa) = 272.29041 19.85667 146.07354
#
# Velocity S-wave (km/s) = 12.60142 3.40296 9.22974
# Velocity P-wave (km/s) = 14.96693 7.38396 11.80110
#
# Compressibility (1/GPa) = 0.04748674
#
# Stress axis : x y z
#
# Youngs Moduli (GPa) = 75.32475 115.06623 15.14285
#
# Poissons Ratio (x) = 0.44713 0.07194
# Poissons Ratio (y) = 0.29270 0.17599
# Poissons Ratio (z) = 0.35785 1.33732
#
# Static dielectric constant tensor:
#      x y z
#    x 1.586750 0.000000 0.000000 
#    y 0.000000 1.603230 0.000000 
#    z 0.000000 0.000000 1.537050 
# 
# From -- ./inp_files/48411.got.cif
#   From: 2010.05.17/outbox.cif.g08.bks.cpg/sg74_25_cif.got.tgz:48411.got - 2010.06.03 17:57:02.
