data_PCOD9534408
_publ_section_title
;
Structure prediction by ZEFSAII (Michael W. Deem and Ramdas Pophale) SiO2 
 PCOD9534408
Probable space group: I M M A
;
_chemical_formula_sum "Si O2"
_cell_formula_units_Z 56
_cell_length_a 27.297280
_cell_length_b 9.709325
_cell_length_c 10.367141
_cell_angle_alpha 90.000000
_cell_angle_beta 90.000000
_cell_angle_gamma 90.000000
_cell_volume 2747.688008
_symmetry_space_group_name_H-M "I M M A"
_symmetry_group_IT_number 74
_symmetry_cell_setting 'orthorhombic'
loop_
_space_group_symop_operation_xyz
x,y,z
-x,1/2-y,z
x,-y,-z
-x,1/2+y,-z
-x,-y,-z
x,1/2+y,-z
-x,y,z
x,1/2-y,z
1/2+x,1/2+y,1/2+z
1/2-x,-y,1/2+z
1/2+x,1/2-y,1/2-z
1/2-x,y,1/2-z
1/2-x,1/2-y,1/2-z
1/2+x,y,1/2-z
1/2-x,1/2+y,1/2+z
1/2+x,-y,1/2+z
loop_
_atom_site_type_symbol
_atom_site_label
_atom_site_fract_x
_atom_site_fract_y
_atom_site_fract_z
Si Si1 0.250000 0.498476 0.250000
Si Si2 0.447021 0.533782 0.848150
Si Si3 0.411779 0.750000 0.217350
Si Si4 0.809483 0.750000 0.198600
Si Si5 0.628519 0.750000 0.920671
Si Si6 0.246594 0.250000 0.437735
O O1 0.205751 0.607390 0.269936
O O2 0.260357 0.392092 0.365119
O O3 0.500000 0.597154 0.813252
O O4 0.441045 0.390920 0.774008
O O5 0.397455 0.623269 0.845977
O O6 0.450596 0.500000 0.000000
O O7 0.366943 0.750000 0.315727
O O8 0.389706 0.750000 0.069933
O O9 0.776593 0.750000 0.070131
O O10 0.687088 0.750000 0.930025
#
# Coordination Sequence:
#
# PCOD9534408 Si02
#       6
#     8  16   8   8   8   8
#     4  10  22  36  52  74 106 142 188 236 280 322
#     4   9  17  29  46  70 102 137 175 225 285 342
#     4  10  19  29  46  71 101 138 179 216 266 331
#     4  11  21  35  54  76 107 150 192 231 277 333
#     4  10  18  29  47  70 100 138 177 216 271 334
#     4  11  22  36  53  77 110 147 188 234 276 332
#
# _framework density 20.380770999999999
#
# number of rings (size 3 to 8) (size 9 to 14) (size 15 to 20)
#    0.000    2.000    0.000    5.143    0.000    8.000 
#    0.000    0.000    0.000    0.000    0.000    0.000 
#    0.000   82.286    0.000    2.286    0.000    0.000 
#
# Total GULP energy -155878.329794 kJ/mol
# GULP energy per Si atom -5567.083207 kJ/mol
# Density = 2.033438 g / cm^3
# Si number density = 20.380771 Si / 1000 Ang^3
#
#
#
# Elastic Constant Matrix: (Units=GPa)
#
#
# Indices 1 2 3 4 5 6 
#
# 1 121.0991 46.4447 14.2108 0.0000 0.0000 0.0000
# 2 46.4447 148.6670 26.7233 0.0000 0.0000 0.0000
# 3 14.2108 26.7233 39.6052 0.0000 0.0000 0.0000
# 4 0.0000 0.0000 0.0000 18.1994 0.0000 0.0000
# 5 0.0000 0.0000 0.0000 0.0000 2.6336 0.0000
# 6 0.0000 0.0000 0.0000 0.0000 0.0000 47.1665
#
#
#
# Elastic Compliance Matrix: (Units=1/GPa)
#
#
# Indices 1 2 3 4 5 6 
#
# 1 0.009470 -0.002672 -0.001595 0.000000 0.000000 0.000000
# 2 -0.002672 0.008409 -0.004715 0.000000 0.000000 0.000000
# 3 -0.001595 -0.004715 0.029003 0.000000 0.000000 0.000000
# 4 0.000000 0.000000 0.000000 0.054947 0.000000 0.000000
# 5 0.000000 0.000000 0.000000 0.000000 0.379703 0.000000
# 6 0.000000 0.000000 0.000000 0.000000 0.000000 0.021201
#
#
# Mechanical properties :
#
#
# Convention : Reuss Voigt Hill
#
# Bulk Modulus (GPa) = 34.58104 53.79209 44.18657
# Shear Modulus (GPa) = 9.42800 28.39941 18.91371
#
# Velocity S-wave (km/s) = 2.15313 3.73693 3.04964
# Velocity P-wave (km/s) = 4.81514 6.71345 5.84192
#
# Compressibility (1/GPa) = 0.02891758
#
# Stress axis : x y z
#
# Youngs Moduli (GPa) = 105.60197 118.92557 34.47921
#
# Poissons Ratio (x) = 0.31772 0.05500
# Poissons Ratio (y) = 0.28213 0.16257
# Poissons Ratio (z) = 0.16845 0.56074
#
# Static dielectric constant tensor:
#      x y z
#    x 1.742090 0.000000 0.000000 
#    y 0.000000 1.769210 0.000000 
#    z 0.000000 0.000000 1.743120 
# 
# From -- ./inp_files/25892.got.cif
#   From: 2010.05.17/outbox.cif.g08.bks.cpg/sg74_13_cif.got.tgz:25892.got - 2010.06.03 17:57:02.
