data_PCOD9534414
_publ_section_title
;
Structure prediction by ZEFSAII (Michael W. Deem and Ramdas Pophale) SiO2 
 PCOD9534414
Probable space group: I M M A
;
_chemical_formula_sum "Si O2"
_cell_formula_units_Z 96
_cell_length_a 30.758101
_cell_length_b 9.129013
_cell_length_c 20.575320
_cell_angle_alpha 90.000000
_cell_angle_beta 90.000000
_cell_angle_gamma 90.000000
_cell_volume 5777.366816
_symmetry_space_group_name_H-M "I M M A"
_symmetry_group_IT_number 74
_symmetry_cell_setting 'orthorhombic'
loop_
_space_group_symop_operation_xyz
x,y,z
-x,1/2-y,z
x,-y,-z
-x,1/2+y,-z
-x,-y,-z
x,1/2+y,-z
-x,y,z
x,1/2-y,z
1/2+x,1/2+y,1/2+z
1/2-x,-y,1/2+z
1/2+x,1/2-y,1/2-z
1/2-x,y,1/2-z
1/2-x,1/2-y,1/2-z
1/2+x,y,1/2-z
1/2-x,1/2+y,1/2+z
1/2+x,-y,1/2+z
loop_
_atom_site_type_symbol
_atom_site_label
_atom_site_fract_x
_atom_site_fract_y
_atom_site_fract_z
Si Si1 0.952380 0.420571 0.402316
Si Si2 0.135231 0.576675 0.395453
Si Si3 0.219982 0.576845 0.813793
Si Si4 0.951632 0.079384 0.244338
Si Si5 0.767964 0.426573 0.566208
Si Si6 0.635498 0.423160 0.739831
O O1 0.950269 0.250000 0.420852
O O2 0.908173 0.500293 0.421871
O O3 0.952238 0.427207 0.323277
O O4 0.000000 0.479809 0.422799
O O5 0.130270 0.750000 0.404749
O O6 0.181202 0.530238 0.425083
O O7 0.139138 0.550092 0.317693
O O8 0.217742 0.750000 0.828239
O O9 0.250000 0.557686 0.750000
O O10 0.241684 0.489470 0.872822
O O11 0.173004 0.512048 0.796183
O O12 0.944340 0.250000 0.227576
O O13 0.000000 0.035936 0.222279
O O14 0.912265 0.979910 0.220796
O O15 0.751842 0.500000 0.500000
O O16 0.765493 0.250000 0.564404
O O17 0.640396 0.250000 0.729028
#
# Coordination Sequence:
#
# PCOD9534414 Si02
#       6
#    16  16  16  16  16  16
#     4   8  14  24  40  63  90 121 159 203 249 296
#     4   9  18  30  46  68  95 127 162 205 254 301
#     4  11  22  35  54  78 102 133 173 213 257 308
#     4   8  14  25  40  62  96 133 165 201 247 298
#     4  11  23  39  55  74 102 133 170 212 260 310
#     4  10  18  29  47  72 101 132 167 209 256 301
#
# _framework density 16.616565999999999
#
# number of rings (size 3 to 8) (size 9 to 14) (size 15 to 20)
#    0.000    2.500    1.667    2.500    0.000    3.333 
#    0.000    3.333    0.000    0.500    0.000    0.000 
#    0.000    0.667    0.000    2.500    0.000    3.833 
#
# Total GULP energy -267682.696611 kJ/mol
# GULP energy per Si atom -5576.722846 kJ/mol
# Density = 1.657875 g / cm^3
# Si number density = 16.616566 Si / 1000 Ang^3
#
#
#
# Elastic Constant Matrix: (Units=GPa)
#
#
# Indices 1 2 3 4 5 6 
#
# 1 116.2876 53.8520 38.0063 0.0000 0.0000 0.0000
# 2 53.8520 61.5044 41.3060 0.0000 0.0000 0.0000
# 3 38.0063 41.3060 52.2216 0.0000 0.0000 0.0000
# 4 0.0000 0.0000 0.0000 12.6657 0.0000 0.0000
# 5 0.0000 0.0000 0.0000 0.0000 0.2624 0.0000
# 6 0.0000 0.0000 0.0000 0.0000 0.0000 32.3195
#
#
#
# Elastic Compliance Matrix: (Units=1/GPa)
#
#
# Indices 1 2 3 4 5 6 
#
# 1 0.014493 -0.011959 -0.001089 0.000000 0.000000 0.000000
# 2 -0.011959 0.044550 -0.026535 0.000000 0.000000 0.000000
# 3 -0.001089 -0.026535 0.040930 0.000000 0.000000 0.000000
# 4 0.000000 0.000000 0.000000 0.078953 0.000000 0.000000
# 5 0.000000 0.000000 0.000000 0.000000 3.811390 0.000000
# 6 0.000000 0.000000 0.000000 0.000000 0.000000 0.030941
#
#
# Mechanical properties :
#
#
# Convention : Reuss Voigt Hill
#
# Bulk Modulus (GPa) = 48.05679 55.14914 51.60296
# Shear Modulus (GPa) = 1.21733 15.50614 8.36173
#
# Velocity S-wave (km/s) = 0.85685 3.05810 2.24568
# Velocity P-wave (km/s) = 5.47382 6.76244 6.15196
#
# Compressibility (1/GPa) = 0.02080871
#
# Stress axis : x y z
#
# Youngs Moduli (GPa) = 68.99773 22.44649 24.43173
#
# Poissons Ratio (x) = 0.26843 0.02661
# Poissons Ratio (y) = 0.82511 0.64830
# Poissons Ratio (z) = 0.07515 0.59562
#
# Static dielectric constant tensor:
#      x y z
#    x 1.570000 0.000000 0.000000 
#    y 0.000000 1.551950 0.000000 
#    z 0.000000 0.000000 1.555290 
# 
# From -- ./inp_files/55028.got.cif
#   From: 2010.05.17/outbox.cif.g08.bks.cpg/sg74_28_cif.got.tgz:55028.got - 2010.06.03 17:57:02.
