data_PCOD9534487
_publ_section_title
;
Structure prediction by ZEFSAII (Michael W. Deem and Ramdas Pophale) SiO2 
 PCOD9534487
Probable space group: I M M A
;
_chemical_formula_sum "Si O2"
_cell_formula_units_Z 88
_cell_length_a 8.680171
_cell_length_b 20.613431
_cell_length_c 33.514623
_cell_angle_alpha 90.000000
_cell_angle_beta 90.000000
_cell_angle_gamma 90.000000
_cell_volume 5996.708016
_symmetry_space_group_name_H-M "I M M A"
_symmetry_group_IT_number 74
_symmetry_cell_setting 'orthorhombic'
loop_
_space_group_symop_operation_xyz
x,y,z
-x,1/2-y,z
x,-y,-z
-x,1/2+y,-z
-x,-y,-z
x,1/2+y,-z
-x,y,z
x,1/2-y,z
1/2+x,1/2+y,1/2+z
1/2-x,-y,1/2+z
1/2+x,1/2-y,1/2-z
1/2-x,y,1/2-z
1/2-x,1/2-y,1/2-z
1/2+x,y,1/2-z
1/2-x,1/2+y,1/2+z
1/2+x,-y,1/2+z
loop_
_atom_site_type_symbol
_atom_site_label
_atom_site_fract_x
_atom_site_fract_y
_atom_site_fract_z
Si Si1 0.815948 0.054718 0.368453
Si Si2 0.684397 0.750000 0.795017
Si Si3 0.682126 0.395439 0.491483
Si Si4 0.315068 0.321935 0.078683
Si Si5 0.816695 0.613985 0.794532
Si Si6 0.182389 0.975857 0.063577
O O1 0.762342 0.119172 0.393005
O O2 0.736270 0.059411 0.325560
O O3 0.768713 0.993924 0.395887
O O4 0.000000 0.057329 0.364015
O O5 0.500000 0.750000 0.795901
O O6 0.750000 0.750000 0.750000
O O7 0.746637 0.682010 0.811113
O O8 0.500000 0.381143 0.493394
O O9 0.766792 0.340392 0.466355
O O10 0.735623 0.416026 0.535773
O O11 0.699420 0.460537 0.464616
O O12 0.500000 0.321421 0.081189
O O13 0.258363 0.250000 0.089635
O O14 0.750000 0.604169 0.750000
O O15 0.000000 0.619529 0.792143
O O16 0.000000 0.968235 0.071206
#
# Coordination Sequence:
#
# PCOD9534487 Si02
#       6
#    16   8  16  16  16  16
#     4  10  19  29  42  59  77 101 130 164 202 237
#     4  10  18  30  44  56  70  90 120 156 192 234
#     4   8  14  25  41  57  74  98 125 156 192 230
#     4   9  18  29  39  55  79 105 129 159 199 235
#     4  11  21  33  45  58  74  97 128 161 201 242
#     4   8  14  26  41  57  76  96 122 158 196 231
#
# _framework density 14.674718
#
# number of rings (size 3 to 8) (size 9 to 14) (size 15 to 20)
#    0.000    2.727    0.000    5.182    1.273    1.818 
#    0.000    3.636    0.000    0.000    0.000    0.000 
#    0.000    0.000    0.000    0.000    0.000    0.909 
#
# Total GULP energy -244974.345291 kJ/mol
# GULP energy per Si atom -5567.598757 kJ/mol
# Density = 1.464132 g / cm^3
# Si number density = 14.674718 Si / 1000 Ang^3
#
#
#
# Elastic Constant Matrix: (Units=GPa)
#
#
# Indices 1 2 3 4 5 6 
#
# 1 55.6472 2.0367 27.1028 0.0000 0.0000 0.0000
# 2 2.0367 11.2190 16.5716 0.0000 0.0000 0.0000
# 3 27.1028 16.5716 85.9656 0.0000 0.0000 0.0000
# 4 0.0000 0.0000 0.0000 22.3952 0.0000 0.0000
# 5 0.0000 0.0000 0.0000 0.0000 21.2126 0.0000
# 6 0.0000 0.0000 0.0000 0.0000 0.0000 14.6118
#
#
#
# Elastic Compliance Matrix: (Units=1/GPa)
#
#
# Indices 1 2 3 4 5 6 
#
# 1 0.021817 0.008667 -0.008549 0.000000 0.000000 0.000000
# 2 0.008667 0.128061 -0.027419 0.000000 0.000000 0.000000
# 3 -0.008549 -0.027419 0.019613 0.000000 0.000000 0.000000
# 4 0.000000 0.000000 0.000000 0.044652 0.000000 0.000000
# 5 0.000000 0.000000 0.000000 0.000000 0.047142 0.000000
# 6 0.000000 0.000000 0.000000 0.000000 0.000000 0.068438
#
#
# Mechanical properties :
#
#
# Convention : Reuss Voigt Hill
#
# Bulk Modulus (GPa) = 8.70399 27.13935 17.92167
# Shear Modulus (GPa) = 11.83089 18.78528 15.30808
#
# Velocity S-wave (km/s) = 2.84246 3.58175 3.23330
# Velocity P-wave (km/s) = 4.08864 5.96987 5.11646
#
# Compressibility (1/GPa) = 0.11488983
#
# Stress axis : x y z
#
# Youngs Moduli (GPa) = 45.83586 7.80876 50.98535
#
# Poissons Ratio (x) = -0.06768 0.43588
# Poissons Ratio (y) = -0.39727 1.39797
# Poissons Ratio (z) = 0.39186 0.21411
#
# Static dielectric constant tensor:
#      x y z
#    x 1.491320 0.000000 0.000000 
#    y 0.000000 1.500750 0.000000 
#    z 0.000000 0.000000 1.514560 
# 
# From -- ./inp_files/70728.got.cif
#   From: 2010.05.17/outbox.cif.g08.bks.cpg/sg74_36_cif.got.tgz:70728.got - 2010.06.03 17:57:02.
