data_PCOD9534897
_publ_section_title
;
Structure prediction by ZEFSAII (Michael W. Deem and Ramdas Pophale) SiO2 
 PCOD9534897
Probable space group: I M M A
;
_chemical_formula_sum "Si O2"
_cell_formula_units_Z 72
_cell_length_a 11.042290
_cell_length_b 10.518772
_cell_length_c 35.753544
_cell_angle_alpha 90.000000
_cell_angle_beta 90.000000
_cell_angle_gamma 90.000000
_cell_volume 4152.821719
_symmetry_space_group_name_H-M "I M M A"
_symmetry_group_IT_number 74
_symmetry_cell_setting 'orthorhombic'
loop_
_space_group_symop_operation_xyz
x,y,z
-x,1/2-y,z
x,-y,-z
-x,1/2+y,-z
-x,-y,-z
x,1/2+y,-z
-x,y,z
x,1/2-y,z
1/2+x,1/2+y,1/2+z
1/2-x,-y,1/2+z
1/2+x,1/2-y,1/2-z
1/2-x,y,1/2-z
1/2-x,1/2-y,1/2-z
1/2+x,y,1/2-z
1/2-x,1/2+y,1/2+z
1/2+x,-y,1/2+z
loop_
_atom_site_type_symbol
_atom_site_label
_atom_site_fract_x
_atom_site_fract_y
_atom_site_fract_z
Si Si1 0.859116 0.500467 0.668786
Si Si2 0.854765 0.250000 0.718345
Si Si3 0.857800 0.250000 0.280183
Si Si4 0.281848 0.898000 0.906335
Si Si5 0.642181 0.888835 0.525134
Si Si6 0.000000 0.401905 0.465020
O O1 0.836258 0.375019 0.692943
O O2 0.842501 0.624172 0.694672
O O3 0.787083 0.516951 0.630322
O O4 0.000000 0.499037 0.657307
O O5 0.750000 0.250000 0.750000
O O6 0.000000 0.250000 0.730286
O O7 0.750000 0.250000 0.250000
O O8 0.000000 0.250000 0.266489
O O9 0.296218 0.750000 0.894639
O O10 0.162253 0.912578 0.931138
O O11 0.386079 0.923280 0.937148
O O12 0.500000 0.882266 0.517255
O O13 0.696275 0.750000 0.516690
O O14 0.695304 0.000000 0.500000
O O15 0.000000 0.500000 0.500000
O O16 0.000000 0.250000 0.475674
#
# Coordination Sequence:
#
# PCOD9534897 Si02
#       6
#    16   8   8  16  16   8
#     4  10  19  35  57  80 107 143 177 213 272 336
#     4  10  22  40  60  82 112 145 180 222 279 336
#     4  10  20  34  58  84 108 137 180 220 267 330
#     4  10  18  32  53  74 104 137 174 215 266 312
#     4   9  18  33  51  70  98 138 180 220 265 314
#     4  10  20  32  48  74 108 138 170 214 262 302
#
# _framework density 17.337609
#
# number of rings (size 3 to 8) (size 9 to 14) (size 15 to 20)
#    0.000    2.222    2.222    1.333    0.000    0.000 
#    4.000    2.222    0.000    0.000    0.000    0.000 
#    0.000    0.000    0.000    0.000    0.000    0.000 
#
# Total GULP energy -200450.696568 kJ/mol
# GULP energy per Si atom -5568.074905 kJ/mol
# Density = 1.729815 g / cm^3
# Si number density = 17.337609 Si / 1000 Ang^3
#
#
#
# Elastic Constant Matrix: (Units=GPa)
#
#
# Indices 1 2 3 4 5 6 
#
# 1 43.0296 31.4368 33.2935 0.0000 0.0000 0.0000
# 2 31.4368 131.6391 72.8812 0.0000 0.0000 0.0000
# 3 33.2935 72.8812 102.7966 0.0000 0.0000 0.0000
# 4 0.0000 0.0000 0.0000 22.1421 0.0000 0.0000
# 5 0.0000 0.0000 0.0000 0.0000 29.7913 0.0000
# 6 0.0000 0.0000 0.0000 0.0000 0.0000 11.5604
#
#
#
# Elastic Compliance Matrix: (Units=1/GPa)
#
#
# Indices 1 2 3 4 5 6 
#
# 1 0.031767 -0.003111 -0.008083 0.000000 0.000000 0.000000
# 2 -0.003111 0.012810 -0.008074 0.000000 0.000000 0.000000
# 3 -0.008083 -0.008074 0.018070 0.000000 0.000000 0.000000
# 4 0.000000 0.000000 0.000000 0.045163 0.000000 0.000000
# 5 0.000000 0.000000 0.000000 0.000000 0.033567 0.000000
# 6 0.000000 0.000000 0.000000 0.000000 0.000000 0.086502
#
#
# Mechanical properties :
#
#
# Convention : Reuss Voigt Hill
#
# Bulk Modulus (GPa) = 41.47598 61.40979 51.44289
# Shear Modulus (GPa) = 18.21810 22.02233 20.12022
#
# Velocity S-wave (km/s) = 3.24510 3.56786 3.41030
# Velocity P-wave (km/s) = 6.16566 7.24360 6.72626
#
# Compressibility (1/GPa) = 0.02411034
#
# Stress axis : x y z
#
# Youngs Moduli (GPa) = 31.47946 78.06512 55.33951
#
# Poissons Ratio (x) = 0.24288 0.44729
# Poissons Ratio (y) = 0.09794 0.44683
# Poissons Ratio (z) = 0.25444 0.63032
#
# Static dielectric constant tensor:
#      x y z
#    x 1.645410 0.000000 0.000000 
#    y 0.000000 1.615790 0.000000 
#    z 0.000000 0.000000 1.563720 
# 
# From -- ./inp_files/65721.got.cif
#   From: 2010.05.17/outbox.cif.g08.bks.cpg/sg74_33_cif.got.tgz:65721.got - 2010.06.03 17:57:02.
