data_PCOD9534168
_publ_section_title
;
Structure prediction by ZEFSAII (Michael W. Deem and Ramdas Pophale) SiO2 
 PCOD9534168
Probable space group: I M M A
;
_chemical_formula_sum "Si O2"
_cell_formula_units_Z 80
_cell_length_a 30.173451
_cell_length_b 13.496405
_cell_length_c 6.644697
_cell_angle_alpha 90.000000
_cell_angle_beta 90.000000
_cell_angle_gamma 90.000000
_cell_volume 2705.940657
_symmetry_space_group_name_H-M "I M M A"
_symmetry_group_IT_number 74
_symmetry_cell_setting 'orthorhombic'
loop_
_space_group_symop_operation_xyz
x,y,z
-x,1/2-y,z
x,-y,-z
-x,1/2+y,-z
-x,-y,-z
x,1/2+y,-z
-x,y,z
x,1/2-y,z
1/2+x,1/2+y,1/2+z
1/2-x,-y,1/2+z
1/2+x,1/2-y,1/2-z
1/2-x,y,1/2-z
1/2-x,1/2-y,1/2-z
1/2+x,y,1/2-z
1/2-x,1/2+y,1/2+z
1/2+x,-y,1/2+z
loop_
_atom_site_type_symbol
_atom_site_label
_atom_site_fract_x
_atom_site_fract_y
_atom_site_fract_z
Si Si1 0.451656 0.917721 0.783463
Si Si2 0.332261 0.630228 0.429624
Si Si3 0.856385 0.131228 0.379040
Si Si4 0.737705 0.633591 0.988189
Si Si5 0.069180 0.363394 0.824361
O O1 0.500000 0.883452 0.854214
O O2 0.407827 0.892829 0.910078
O O3 0.442669 0.869846 0.563615
O O4 0.452865 0.036591 0.757208
O O5 0.328021 0.750000 0.443203
O O6 0.345564 0.592872 0.653178
O O7 0.281615 0.595568 0.397695
O O8 0.377631 0.619601 0.306822
O O9 0.854442 0.250000 0.374865
O O10 0.813336 0.100378 0.507543
O O11 0.735146 0.750000 0.032551
O O12 0.750000 0.625483 0.750000
O O13 0.058774 0.250000 0.759488
#
# Coordination Sequence:
#
# PCOD9534168 Si02
#       5
#    16  16  16  16  16
#     4  10  18  23  28  39  56  81 109 128 141 167
#     4   7  10  17  29  42  53  65  83 114 157 192
#     4   8  13  20  29  41  57  74  93 122 153 176
#     4   7   9  15  28  43  55  65  80 111 156 193
#     4   9  16  24  31  39  54  75  99 129 156 173
#
# _framework density 29.564582000000001
#
# number of rings (size 3 to 8) (size 9 to 14) (size 15 to 20)
#    0.000    3.800    0.000    5.400    0.000    2.800 
#    0.000    0.000    0.000    0.000    0.000    0.000 
#    0.000   40.800    0.000    0.000    0.000    0.000 
#
# Total GULP energy -223958.878331 kJ/mol
# GULP energy per Si atom -5598.971958 kJ/mol
# Density = 2.949729 g / cm^3
# Si number density = 29.564582 Si / 1000 Ang^3
#
#
#
# Elastic Constant Matrix: (Units=GPa)
#
#
# Indices 1 2 3 4 5 6 
#
# 1 360.6934 42.4467 76.4726 0.0000 0.0000 0.0000
# 2 42.4467 190.9242 2.3255 0.0000 0.0000 0.0000
# 3 76.4726 2.3255 101.4205 0.0000 0.0000 0.0000
# 4 0.0000 0.0000 0.0000 26.8937 0.0000 0.0000
# 5 0.0000 0.0000 0.0000 0.0000 42.9464 0.0000
# 6 0.0000 0.0000 0.0000 0.0000 0.0000 14.7379
#
#
#
# Elastic Compliance Matrix: (Units=1/GPa)
#
#
# Indices 1 2 3 4 5 6 
#
# 1 0.003397 -0.000724 -0.002545 0.000000 0.000000 0.000000
# 2 -0.000724 0.005394 0.000422 0.000000 0.000000 0.000000
# 3 -0.002545 0.000422 0.011769 0.000000 0.000000 0.000000
# 4 0.000000 0.000000 0.000000 0.037183 0.000000 0.000000
# 5 0.000000 0.000000 0.000000 0.000000 0.023285 0.000000
# 6 0.000000 0.000000 0.000000 0.000000 0.000000 0.067852
#
#
# Mechanical properties :
#
#
# Convention : Reuss Voigt Hill
#
# Bulk Modulus (GPa) = 67.26576 99.50308 83.38442
# Shear Modulus (GPa) = 31.34212 52.36848 41.85530
#
# Velocity S-wave (km/s) = 3.25949 4.21328 3.76669
# Velocity P-wave (km/s) = 6.08007 7.57616 6.86897
#
# Compressibility (1/GPa) = 0.01486640
#
# Stress axis : x y z
#
# Youngs Moduli (GPa) = 294.35614 185.40629 84.96751
#
# Poissons Ratio (x) = 0.13429 0.21624
# Poissons Ratio (y) = 0.21320 -0.03589
# Poissons Ratio (z) = 0.74913 -0.07833
#
# Static dielectric constant tensor:
#      x y z
#    x 2.191320 0.000000 0.000000 
#    y 0.000000 2.193540 0.000000 
#    z 0.000000 0.000000 2.453350 
# 
# From -- ./inp_files/46045.got.cif
#   From: 2010.05.17/outbox.cif.g08.bks.cpg/sg74_24_cif.got.tgz:46045.got - 2010.06.03 17:57:02.
