data_PCOD9534085
_publ_section_title
;
Structure prediction by ZEFSAII (Michael W. Deem and Ramdas Pophale) SiO2 
 PCOD9534085
Probable space group: I M M A
;
_chemical_formula_sum "Si O2"
_cell_formula_units_Z 80
_cell_length_a 14.531481
_cell_length_b 23.620024
_cell_length_c 11.534444
_cell_angle_alpha 90.000000
_cell_angle_beta 90.000000
_cell_angle_gamma 90.000000
_cell_volume 3959.012544
_symmetry_space_group_name_H-M "I M M A"
_symmetry_group_IT_number 74
_symmetry_cell_setting 'orthorhombic'
loop_
_space_group_symop_operation_xyz
x,y,z
-x,1/2-y,z
x,-y,-z
-x,1/2+y,-z
-x,-y,-z
x,1/2+y,-z
-x,y,z
x,1/2-y,z
1/2+x,1/2+y,1/2+z
1/2-x,-y,1/2+z
1/2+x,1/2-y,1/2-z
1/2-x,y,1/2-z
1/2-x,1/2-y,1/2-z
1/2+x,y,1/2-z
1/2-x,1/2+y,1/2+z
1/2+x,-y,1/2+z
loop_
_atom_site_type_symbol
_atom_site_label
_atom_site_fract_x
_atom_site_fract_y
_atom_site_fract_z
Si Si1 0.387952 0.312936 0.329693
Si Si2 0.199121 0.442323 0.576271
Si Si3 0.897996 0.128156 0.394125
Si Si4 0.141615 0.021649 0.243161
Si Si5 0.894304 0.579771 0.992035
O O1 0.500000 0.313039 0.319832
O O2 0.358279 0.250000 0.362729
O O3 0.354286 0.329989 0.200671
O O4 0.369774 0.362183 0.422355
O O5 0.192227 0.500000 0.500000
O O6 0.155821 0.390123 0.507964
O O7 0.142961 0.461533 0.690270
O O8 0.308614 0.430119 0.578448
O O9 0.905149 0.069476 0.321368
O O10 0.000000 0.148072 0.424944
O O11 0.250000 0.036806 0.250000
O O12 0.107958 0.033199 0.112852
O O13 0.000000 0.582911 0.035553
#
# Coordination Sequence:
#
# PCOD9534085 Si02
#       5
#    16  16  16  16  16
#     4   8  15  28  46  67  93 122 148 183 228 274
#     4  10  19  30  45  61  92 123 157 194 232 264
#     4   9  17  28  44  63  87 117 151 183 222 277
#     4  10  17  30  43  60  88 126 150 188 231 260
#     4  10  19  32  48  68  95 128 161 188 224 282
#
# _framework density 20.207059999999998
#
# number of rings (size 3 to 8) (size 9 to 14) (size 15 to 20)
#    0.000    2.600    4.000    1.800    0.000    4.800 
#    0.000    2.000    0.000    0.000    0.000    0.000 
#    0.000    3.200    0.000   10.000    2.000    5.600 
#
# Total GULP energy -222734.056975 kJ/mol
# GULP energy per Si atom -5568.351424 kJ/mol
# Density = 2.016107 g / cm^3
# Si number density = 20.207060 Si / 1000 Ang^3
#
#
#
# Elastic Constant Matrix: (Units=GPa)
#
#
# Indices 1 2 3 4 5 6 
#
# 1 46.9233 -6.1940 -12.5547 0.0000 0.0000 0.0000
# 2 -6.1940 80.6343 9.4831 0.0001 0.0000 0.0000
# 3 -12.5547 9.4831 57.4952 0.0002 0.0000 0.0000
# 4 0.0000 0.0001 0.0002 23.7423 0.0000 0.0000
# 5 0.0000 0.0000 0.0000 0.0000 13.7907 0.0000
# 6 0.0000 0.0000 0.0000 0.0000 0.0000 15.8574
#
#
#
# Elastic Compliance Matrix: (Units=1/GPa)
#
#
# Indices 1 2 3 4 5 6 
#
# 1 0.022744 0.001186 0.004771 0.000000 0.000000 0.000000
# 2 0.001186 0.012709 -0.001837 0.000000 0.000000 0.000000
# 3 0.004771 -0.001837 0.018738 0.000000 0.000000 0.000000
# 4 0.000000 0.000000 0.000000 0.042119 0.000000 0.000000
# 5 0.000000 0.000000 0.000000 0.000000 0.072512 0.000000
# 6 0.000000 0.000000 0.000000 0.000000 0.000000 0.063062
#
#
# Mechanical properties :
#
#
# Convention : Reuss Voigt Hill
#
# Bulk Modulus (GPa) = 16.01786 18.50239 17.26013
# Shear Modulus (GPa) = 20.45368 23.63265 22.04317
#
# Velocity S-wave (km/s) = 3.18497 3.42354 3.30641
# Velocity P-wave (km/s) = 4.63351 4.98034 4.81005
#
# Compressibility (1/GPa) = 0.06243030
#
# Stress axis : x y z
#
# Youngs Moduli (GPa) = 43.96685 78.68536 53.36882
#
# Poissons Ratio (x) = -0.09332 -0.25462
# Poissons Ratio (y) = -0.05215 0.09805
# Poissons Ratio (z) = -0.20976 0.14456
#
# Static dielectric constant tensor:
#      x y z
#    x 1.770550 0.000000 0.000000 
#    y 0.000000 1.742900 0.000000 
#    z 0.000000 0.000000 1.804790 
# 
# From -- ./inp_files/32083.got.cif
#   From: 2010.05.17/outbox.cif.g08.bks.cpg/sg74_17_cif.got.tgz:32083.got - 2010.06.03 17:57:02.
