data_PCOD9534515
_publ_section_title
;
Structure prediction by ZEFSAII (Michael W. Deem and Ramdas Pophale) SiO2 
 PCOD9534515
Probable space group: I M M A
;
_chemical_formula_sum "Si O2"
_cell_formula_units_Z 56
_cell_length_a 8.975450
_cell_length_b 24.110933
_cell_length_c 12.892576
_cell_angle_alpha 90.000000
_cell_angle_beta 90.000000
_cell_angle_gamma 90.000000
_cell_volume 2790.036908
_symmetry_space_group_name_H-M "I M M A"
_symmetry_group_IT_number 74
_symmetry_cell_setting 'orthorhombic'
loop_
_space_group_symop_operation_xyz
x,y,z
-x,1/2-y,z
x,-y,-z
-x,1/2+y,-z
-x,-y,-z
x,1/2+y,-z
-x,y,z
x,1/2-y,z
1/2+x,1/2+y,1/2+z
1/2-x,-y,1/2+z
1/2+x,1/2-y,1/2-z
1/2-x,y,1/2-z
1/2-x,1/2-y,1/2-z
1/2+x,y,1/2-z
1/2-x,1/2+y,1/2+z
1/2+x,-y,1/2+z
loop_
_atom_site_type_symbol
_atom_site_label
_atom_site_fract_x
_atom_site_fract_y
_atom_site_fract_z
Si Si1 0.178585 0.250000 0.635913
Si Si2 0.178003 0.040181 0.648061
Si Si3 0.321470 0.918899 0.919601
Si Si4 0.825137 0.310798 0.044760
O O1 0.250000 0.250000 0.750000
O O2 0.237989 0.198824 0.564643
O O3 0.000000 0.250000 0.641619
O O4 0.250000 0.065158 0.750000
O O5 0.225084 0.975582 0.636479
O O6 0.000000 0.040777 0.657058
O O7 0.215536 0.069668 0.540541
O O8 0.500000 0.913565 0.909690
O O9 0.241495 0.861907 0.892564
O O10 0.808237 0.250000 0.096546
O O11 0.000000 0.319413 0.024578
#
# Coordination Sequence:
#
# PCOD9534515 Si02
#       4
#     8  16  16  16
#     4  10  18  30  46  66  95 130 165 202 246 296
#     4   9  19  34  52  76 102 131 171 214 256 304
#     4   9  18  34  53  73 102 138 171 206 255 309
#     4   9  19  32  47  72 100 129 167 206 247 297
#
# _framework density 20.071418999999999
#
# number of rings (size 3 to 8) (size 9 to 14) (size 15 to 20)
#    0.857    2.000    0.000    3.429    0.000    3.429 
#    0.000    5.714    0.000    0.857    0.000    0.000 
#    0.000    0.000    0.000    0.000    0.000    0.000 
#
# Total GULP energy -155951.571282 kJ/mol
# GULP energy per Si atom -5569.698974 kJ/mol
# Density = 2.002574 g / cm^3
# Si number density = 20.071419 Si / 1000 Ang^3
#
#
#
# Elastic Constant Matrix: (Units=GPa)
#
#
# Indices 1 2 3 4 5 6 
#
# 1 49.4077 25.9962 0.2683 0.0000 0.0000 0.0000
# 2 25.9962 80.1364 -15.4255 0.0000 0.0000 0.0000
# 3 0.2683 -15.4255 37.4907 -0.0001 0.0000 0.0000
# 4 0.0000 0.0000 -0.0001 3.0123 0.0000 0.0000
# 5 0.0000 0.0000 0.0000 0.0000 14.2174 0.0000
# 6 0.0000 0.0000 0.0000 0.0000 0.0000 -15.4750
#
#
#
# Elastic Compliance Matrix: (Units=1/GPa)
#
#
# Indices 1 2 3 4 5 6 
#
# 1 0.024895 -0.008808 -0.003802 0.000000 0.000000 0.000000
# 2 -0.008808 0.016668 0.006921 0.000000 0.000000 0.000000
# 3 -0.003802 0.006921 0.029548 0.000001 0.000000 0.000000
# 4 0.000000 0.000000 0.000001 0.331969 0.000000 0.000000
# 5 0.000000 0.000000 0.000000 0.000000 0.070336 0.000000
# 6 0.000000 0.000000 0.000000 0.000000 0.000000 -0.064620
#
#
# Mechanical properties :
#
#
# Convention : Reuss Voigt Hill
#
# Bulk Modulus (GPa) = 16.74095 20.96810 18.85453
# Shear Modulus (GPa) = 11.36145 10.76399 11.06272
#
# Velocity S-wave (km/s) = 2.38176 2.31829 2.35024
# Velocity P-wave (km/s) = 3.99031 4.19945 4.09621
#
# Compressibility (1/GPa) = 0.05973375
#
# Stress axis : x y z
#
# Youngs Moduli (GPa) = 40.16930 59.99454 33.84306
#
# Poissons Ratio (x) = 0.52841 0.12867
# Poissons Ratio (y) = 0.35380 -0.23423
# Poissons Ratio (z) = 0.15273 -0.41523
#
# Static dielectric constant tensor:
#      x y z
#    x 1.666170 0.000000 0.000000 
#    y 0.000000 1.760720 0.000000 
#    z 0.000000 0.000000 1.729440 
# 
# From -- ./inp_files/28989.got.cif
#   From: 2010.05.17/outbox.cif.g08.bks.cpg/sg74_15_cif.got.tgz:28989.got - 2010.06.03 17:57:02.
