data_PCOD9534436
_publ_section_title
;
Structure prediction by ZEFSAII (Michael W. Deem and Ramdas Pophale) SiO2 
 PCOD9534436
Probable space group: I M M A
;
_chemical_formula_sum "Si O2"
_cell_formula_units_Z 96
_cell_length_a 26.482750
_cell_length_b 8.785172
_cell_length_c 23.494460
_cell_angle_alpha 90.000000
_cell_angle_beta 90.000000
_cell_angle_gamma 90.000000
_cell_volume 5466.115662
_symmetry_space_group_name_H-M "I M M A"
_symmetry_group_IT_number 74
_symmetry_cell_setting 'orthorhombic'
loop_
_space_group_symop_operation_xyz
x,y,z
-x,1/2-y,z
x,-y,-z
-x,1/2+y,-z
-x,-y,-z
x,1/2+y,-z
-x,y,z
x,1/2-y,z
1/2+x,1/2+y,1/2+z
1/2-x,-y,1/2+z
1/2+x,1/2-y,1/2-z
1/2-x,y,1/2-z
1/2-x,1/2-y,1/2-z
1/2+x,y,1/2-z
1/2-x,1/2+y,1/2+z
1/2+x,-y,1/2+z
loop_
_atom_site_type_symbol
_atom_site_label
_atom_site_fract_x
_atom_site_fract_y
_atom_site_fract_z
Si Si1 0.442293 0.564521 0.324211
Si Si2 0.690263 0.916502 0.248114
Si Si3 0.442798 0.932966 0.191632
Si Si4 0.254051 0.567034 0.937262
Si Si5 0.843710 0.926613 0.121601
Si Si6 0.347195 0.426480 0.142322
O O1 0.500000 0.519199 0.336324
O O2 0.440139 0.750000 0.324909
O O3 0.431244 0.521659 0.257917
O O4 0.401050 0.512612 0.370778
O O5 0.672543 0.750000 0.225563
O O6 0.750000 0.914724 0.250000
O O7 0.672556 0.928323 0.312355
O O8 0.673604 0.047484 0.206000
O O9 0.500000 0.985534 0.179503
O O10 0.443164 0.750000 0.190874
O O11 0.401326 0.992146 0.147296
O O12 0.254441 0.750000 0.938095
O O13 0.200071 0.512770 0.912208
O O14 0.302097 0.515398 0.898655
O O15 0.259809 0.500000 0.000000
O O16 0.844549 0.750000 0.102033
O O17 0.354894 0.250000 0.129510
#
# Coordination Sequence:
#
# PCOD9534436 Si02
#       6
#    16  16  16  16  16  16
#     4   8  14  26  47  77 110 141 173 205 241 295
#     4  10  18  29  48  76 107 141 176 205 249 316
#     4   9  17  31  52  78 109 145 181 209 241 303
#     4  11  25  41  55  74 100 135 178 225 272 317
#     4  10  18  31  54  79 106 140 174 213 257 306
#     4  11  22  33  50  77 110 139 168 215 270 316
#
# _framework density 17.562745
#
# number of rings (size 3 to 8) (size 9 to 14) (size 15 to 20)
#    0.000    2.167    3.333    2.000    0.000    3.333 
#    0.000    0.000    0.000    1.500    0.000    0.000 
#    0.000    0.000    0.000    0.000    0.000    0.000 
#
# Total GULP energy -267248.218213 kJ/mol
# GULP energy per Si atom -5567.671213 kJ/mol
# Density = 1.752277 g / cm^3
# Si number density = 17.562745 Si / 1000 Ang^3
#
#
#
# Elastic Constant Matrix: (Units=GPa)
#
#
# Indices 1 2 3 4 5 6 
#
# 1 142.3686 30.5331 39.9447 0.0000 0.0000 0.0000
# 2 30.5331 28.2942 19.6324 0.0000 0.0000 0.0000
# 3 39.9447 19.6324 52.8515 0.0000 0.0000 0.0000
# 4 0.0000 0.0000 0.0000 18.6835 0.0000 0.0000
# 5 0.0000 0.0000 0.0000 0.0000 9.7522 0.0000
# 6 0.0000 0.0000 0.0000 0.0000 0.0000 3.7330
#
#
#
# Elastic Compliance Matrix: (Units=1/GPa)
#
#
# Indices 1 2 3 4 5 6 
#
# 1 0.009955 -0.007440 -0.004760 0.000000 0.000000 0.000000
# 2 -0.007440 0.053176 -0.014130 0.000000 0.000000 0.000000
# 3 -0.004760 -0.014130 0.027768 0.000000 0.000000 0.000000
# 4 0.000000 0.000000 0.000000 0.053523 0.000000 0.000000
# 5 0.000000 0.000000 0.000000 0.000000 0.102541 0.000000
# 6 0.000000 0.000000 0.000000 0.000000 0.000000 0.267880
#
#
# Mechanical properties :
#
#
# Convention : Reuss Voigt Hill
#
# Bulk Modulus (GPa) = 26.15182 44.85941 35.50561
# Shear Modulus (GPa) = 8.61699 15.32734 11.97216
#
# Velocity S-wave (km/s) = 2.21744 2.95739 2.61373
# Velocity P-wave (km/s) = 4.63453 6.10404 5.41933
#
# Compressibility (1/GPa) = 0.03823826
#
# Stress axis : x y z
#
# Youngs Moduli (GPa) = 100.44923 18.80552 36.01324
#
# Poissons Ratio (x) = 0.13991 0.17144
# Poissons Ratio (y) = 0.74733 0.50886
# Poissons Ratio (z) = 0.47819 0.26572
#
# Static dielectric constant tensor:
#      x y z
#    x 1.704990 0.000000 0.000000 
#    y 0.000000 1.623450 0.000000 
#    z 0.000000 0.000000 1.568610 
# 
# From -- ./inp_files/55103.got.cif
#   From: 2010.05.17/outbox.cif.g08.bks.cpg/sg74_28_cif.got.tgz:55103.got - 2010.06.03 17:57:02.
