data_PCOD9534575
_publ_section_title
;
Structure prediction by ZEFSAII (Michael W. Deem and Ramdas Pophale) SiO2 
 PCOD9534575
Probable space group: I M M A
;
_chemical_formula_sum "Si O2"
_cell_formula_units_Z 80
_cell_length_a 15.503531
_cell_length_b 14.542316
_cell_length_c 14.756821
_cell_angle_alpha 90.000000
_cell_angle_beta 90.000000
_cell_angle_gamma 90.000000
_cell_volume 3327.032236
_symmetry_space_group_name_H-M "I M M A"
_symmetry_group_IT_number 74
_symmetry_cell_setting 'orthorhombic'
loop_
_space_group_symop_operation_xyz
x,y,z
-x,1/2-y,z
x,-y,-z
-x,1/2+y,-z
-x,-y,-z
x,1/2+y,-z
-x,y,z
x,1/2-y,z
1/2+x,1/2+y,1/2+z
1/2-x,-y,1/2+z
1/2+x,1/2-y,1/2-z
1/2-x,y,1/2-z
1/2-x,1/2-y,1/2-z
1/2+x,y,1/2-z
1/2-x,1/2+y,1/2+z
1/2+x,-y,1/2+z
loop_
_atom_site_type_symbol
_atom_site_label
_atom_site_fract_x
_atom_site_fract_y
_atom_site_fract_z
Si Si1 0.253537 0.611930 0.145561
Si Si2 0.099607 0.110088 0.987323
Si Si3 0.596455 0.146319 0.318628
Si Si4 0.192559 0.905722 0.670363
Si Si5 0.399882 0.387639 0.992936
O O1 0.250000 0.640739 0.250000
O O2 0.260960 0.500048 0.145477
O O3 0.167069 0.635680 0.090801
O O4 0.339767 0.640197 0.091278
O O5 0.140867 0.144470 0.083197
O O6 0.000000 0.140114 0.968895
O O7 0.097867 0.000000 0.000000
O O8 0.500000 0.126817 0.349199
O O9 0.598513 0.250000 0.281289
O O10 0.613866 0.074545 0.239105
O O11 0.250000 0.856952 0.750000
O O12 0.151657 0.858876 0.583710
O O13 0.500000 0.358794 0.989712
O O14 0.400656 0.500000 0.000000
#
# Coordination Sequence:
#
# PCOD9534575 Si02
#       5
#    16  16  16  16  16
#     4  10  19  31  49  73 103 139 183 234 277 322
#     4  10  19  33  54  78 107 145 187 233 285 337
#     4  10  21  36  55  82 114 146 183 230 289 356
#     4  10  18  30  49  72 106 143 178 220 271 334
#     4   9  17  28  44  68  99 135 173 216 271 329
#
# _framework density 24.045452999999998
#
# number of rings (size 3 to 8) (size 9 to 14) (size 15 to 20)
#    0.000    2.200    0.000    6.000    0.000    2.000 
#    0.000    3.000    0.000    0.600    0.000    0.000 
#    0.000    3.200    0.000    0.000    0.000    0.000 
#
# Total GULP energy -222974.435756 kJ/mol
# GULP energy per Si atom -5574.360894 kJ/mol
# Density = 2.399072 g / cm^3
# Si number density = 24.045453 Si / 1000 Ang^3
#
#
#
# Elastic Constant Matrix: (Units=GPa)
#
#
# Indices 1 2 3 4 5 6 
#
# 1 154.3778 5.3823 86.1773 0.0000 0.0000 0.0000
# 2 5.3823 78.4782 2.6266 0.0000 0.0000 0.0000
# 3 86.1773 2.6266 203.8807 0.0000 0.0000 0.0000
# 4 0.0000 0.0000 0.0000 -3.1950 0.0000 0.0000
# 5 0.0000 0.0000 0.0000 0.0000 44.4675 0.0000
# 6 0.0000 0.0000 0.0000 0.0000 0.0000 -6.8062
#
#
#
# Elastic Compliance Matrix: (Units=1/GPa)
#
#
# Indices 1 2 3 4 5 6 
#
# 1 0.008495 -0.000463 -0.003585 0.000000 0.000000 0.000000
# 2 -0.000463 0.012773 0.000031 0.000000 0.000000 0.000000
# 3 -0.003585 0.000031 0.006420 0.000000 0.000000 0.000000
# 4 0.000000 0.000000 0.000000 -0.312985 0.000000 0.000000
# 5 0.000000 0.000000 0.000000 0.000000 0.022488 0.000000
# 6 0.000000 0.000000 0.000000 0.000000 0.000000 -0.146924
#
#
# Mechanical properties :
#
#
# Convention : Reuss Voigt Hill
#
# Bulk Modulus (GPa) = 50.87794 69.45658 60.16726
# Shear Modulus (GPa) = -12.65346 29.72994 8.53824
#
# Velocity S-wave (km/s) = -2.29646 3.52007 1.88642
# Velocity P-wave (km/s) = 3.76475 6.74310 5.46090
#
# Compressibility (1/GPa) = 0.01965488
#
# Stress axis : x y z
#
# Youngs Moduli (GPa) = 117.71936 78.28962 155.77275
#
# Poissons Ratio (x) = 0.03622 0.55839
# Poissons Ratio (y) = 0.05446 -0.00483
# Poissons Ratio (z) = 0.42198 -0.00243
#
# Static dielectric constant tensor:
#      x y z
#    x 3.229500 0.000000 0.000000 
#    y 0.000000 1.928990 0.000000 
#    z 0.000000 0.000000 2.079980 
# 
# From -- ./inp_files/32099.got.cif
#   From: 2010.05.17/outbox.cif.g08.bks.cpg/sg74_17_cif.got.tgz:32099.got - 2010.06.03 17:57:02.
