data_PCOD9534952
_publ_section_title
;
Structure prediction by ZEFSAII (Michael W. Deem and Ramdas Pophale) SiO2 
 PCOD9534952
Probable space group: I M M A
;
_chemical_formula_sum "Si O2"
_cell_formula_units_Z 72
_cell_length_a 14.498332
_cell_length_b 13.586289
_cell_length_c 18.156365
_cell_angle_alpha 90.000000
_cell_angle_beta 90.000000
_cell_angle_gamma 90.000000
_cell_volume 3576.414062
_symmetry_space_group_name_H-M "I M M A"
_symmetry_group_IT_number 74
_symmetry_cell_setting 'orthorhombic'
loop_
_space_group_symop_operation_xyz
x,y,z
-x,1/2-y,z
x,-y,-z
-x,1/2+y,-z
-x,-y,-z
x,1/2+y,-z
-x,y,z
x,1/2-y,z
1/2+x,1/2+y,1/2+z
1/2-x,-y,1/2+z
1/2+x,1/2-y,1/2-z
1/2-x,y,1/2-z
1/2-x,1/2-y,1/2-z
1/2+x,y,1/2-z
1/2-x,1/2+y,1/2+z
1/2+x,-y,1/2+z
loop_
_atom_site_type_symbol
_atom_site_label
_atom_site_fract_x
_atom_site_fract_y
_atom_site_fract_z
Si Si1 0.105494 0.422324 0.739871
Si Si2 0.398935 0.861200 0.930358
Si Si3 0.232557 0.136625 0.869288
Si Si4 0.751364 0.500000 0.000000
Si Si5 0.360413 0.856589 0.757210
O O1 0.155391 0.364904 0.805659
O O2 0.173653 0.406424 0.669541
O O3 0.106101 0.536394 0.767074
O O4 0.000000 0.393752 0.724389
O O5 0.500000 0.902792 0.947643
O O6 0.394949 0.750000 0.959229
O O7 0.389248 0.855249 0.842474
O O8 0.315571 0.923072 0.960273
O O9 0.248272 0.250000 0.891867
O O10 0.202082 0.065004 0.935949
O O11 0.390109 0.750000 0.724816
O O12 0.250000 0.859377 0.750000
#
# Coordination Sequence:
#
# PCOD9534952 Si02
#       5
#    16  16  16   8  16
#     4  11  21  40  66  91 124 164 206 254 308 362
#     4  10  20  32  49  77 112 149 190 239 297 360
#     4  11  25  42  61  91 123 157 209 259 306 373
#     4  12  21  38  59  80 118 158 198 250 310 370
#     4  10  18  32  55  85 121 158 195 237 292 355
#
# _framework density 20.131896999999999
#
# number of rings (size 3 to 8) (size 9 to 14) (size 15 to 20)
#    0.000    1.333    4.444    3.000    0.000    4.000 
#    0.000    1.667    0.000    0.000    0.000    0.000 
#    0.000    0.000    0.000    0.000    0.000    0.000 
#
# Total GULP energy -200709.491376 kJ/mol
# GULP energy per Si atom -5575.263649 kJ/mol
# Density = 2.008608 g / cm^3
# Si number density = 20.131897 Si / 1000 Ang^3
#
#
#
# Elastic Constant Matrix: (Units=GPa)
#
#
# Indices 1 2 3 4 5 6 
#
# 1 73.2943 11.7654 1.7568 0.0000 0.0000 0.0000
# 2 11.7654 120.7507 21.9873 0.0000 0.0000 0.0000
# 3 1.7568 21.9873 58.4045 0.0000 0.0000 0.0000
# 4 0.0000 0.0000 0.0000 27.2821 0.0000 0.0000
# 5 0.0000 0.0000 0.0000 0.0000 50.3590 0.0000
# 6 0.0000 0.0000 0.0000 0.0000 0.0000 -29.0788
#
#
#
# Elastic Compliance Matrix: (Units=1/GPa)
#
#
# Indices 1 2 3 4 5 6 
#
# 1 0.013861 -0.001368 0.000098 0.000000 0.000000 0.000000
# 2 -0.001368 0.009026 -0.003357 0.000000 0.000000 0.000000
# 3 0.000098 -0.003357 0.018383 0.000000 0.000000 0.000000
# 4 0.000000 0.000000 0.000000 0.036654 0.000000 0.000000
# 5 0.000000 0.000000 0.000000 0.000000 0.019857 0.000000
# 6 0.000000 0.000000 0.000000 0.000000 0.000000 -0.034389
#
#
# Mechanical properties :
#
#
# Convention : Reuss Voigt Hill
#
# Bulk Modulus (GPa) = 31.23471 35.94095 33.58783
# Shear Modulus (GPa) = 60.01113 24.17515 42.09314
#
# Velocity S-wave (km/s) = 5.46568 3.46907 4.57756
# Velocity P-wave (km/s) = 7.44179 5.82558 6.68273
#
# Compressibility (1/GPa) = 0.03201566
#
# Stress axis : x y z
#
# Youngs Moduli (GPa) = 72.14520 110.78981 54.39884
#
# Poissons Ratio (x) = 0.15161 -0.00534
# Poissons Ratio (y) = 0.09873 0.18261
# Poissons Ratio (z) = -0.00709 0.37190
#
# Static dielectric constant tensor:
#      x y z
#    x 1.708580 0.000000 0.000000 
#    y 0.000000 1.800680 0.000000 
#    z 0.000000 0.000000 1.719560 
# 
# From -- ./inp_files/42504.got.cif
#   From: 2010.05.17/outbox.cif.g08.bks.cpg/sg74_22_cif.got.tgz:42504.got - 2010.06.03 17:57:02.
