data_PCOD9534037
_publ_section_title
;
Structure prediction by ZEFSAII (Michael W. Deem and Ramdas Pophale) SiO2 
 PCOD9534037
Probable space group: I M M A
;
_chemical_formula_sum "Si O2"
_cell_formula_units_Z 128
_cell_length_a 18.983768
_cell_length_b 28.110457
_cell_length_c 14.954960
_cell_angle_alpha 90.000000
_cell_angle_beta 90.000000
_cell_angle_gamma 90.000000
_cell_volume 7980.600658
_symmetry_space_group_name_H-M "I M M A"
_symmetry_group_IT_number 74
_symmetry_cell_setting 'orthorhombic'
loop_
_space_group_symop_operation_xyz
x,y,z
-x,1/2-y,z
x,-y,-z
-x,1/2+y,-z
-x,-y,-z
x,1/2+y,-z
-x,y,z
x,1/2-y,z
1/2+x,1/2+y,1/2+z
1/2-x,-y,1/2+z
1/2+x,1/2-y,1/2-z
1/2-x,y,1/2-z
1/2-x,1/2-y,1/2-z
1/2+x,y,1/2-z
1/2-x,1/2+y,1/2+z
1/2+x,-y,1/2+z
loop_
_atom_site_type_symbol
_atom_site_label
_atom_site_fract_x
_atom_site_fract_y
_atom_site_fract_z
Si Si1 0.823675 0.194701 0.196529
Si Si2 0.833775 0.568385 0.565547
Si Si3 0.919483 0.617059 0.718381
Si Si4 0.416013 0.454447 0.694525
Si Si5 0.165406 0.535641 0.373944
Si Si6 0.212993 0.387546 0.835644
Si Si7 0.693302 0.874112 0.531636
Si Si8 0.418230 0.946673 0.602917
O O1 0.842092 0.250000 0.187297
O O2 0.750000 0.191423 0.250000
O O3 0.877621 0.164016 0.254680
O O4 0.821164 0.168459 0.100368
O O5 0.888525 0.591981 0.631702
O O6 0.810481 0.517430 0.603868
O O7 0.862736 0.558525 0.466026
O O8 0.765520 0.601156 0.561562
O O9 0.913906 0.580469 0.801645
O O10 0.000000 0.628864 0.704981
O O11 0.500000 0.445690 0.690476
O O12 0.391442 0.468229 0.795069
O O13 0.364440 0.409820 0.678640
O O14 0.400391 0.498348 0.626106
O O15 0.232635 0.568076 0.349333
O O16 0.250000 0.362657 0.750000
O O17 0.205996 0.359835 0.928783
O O18 0.633373 0.915458 0.540850
O O19 0.500000 0.944960 0.572103
#
# Coordination Sequence:
#
# PCOD9534037 Si02
#       8
#    16  16  16  16  16  16  16  16
#     4  10  20  35  55  78  98 121 154 195 247 302
#     4  10  17  28  45  68  91 131 172 206 236 279
#     4  10  19  31  46  69 100 132 162 196 241 291
#     4  10  18  29  42  61  93 130 166 208 246 276
#     4   9  18  28  43  64  95 129 174 209 238 272
#     4   9  19  33  46  66  91 128 167 205 241 287
#     4  10  19  32  51  69  93 125 159 202 249 297
#     4   9  18  28  42  65  95 128 164 201 242 286
#
# _framework density 16.038893000000002
#
# number of rings (size 3 to 8) (size 9 to 14) (size 15 to 20)
#    0.000    2.375    2.500    0.750    0.000    2.750 
#    0.000    2.500    0.000    0.375    0.000    0.000 
#    0.000    0.000    0.000    0.625    0.000    0.000 
#
# Total GULP energy -356517.814669 kJ/mol
# GULP energy per Si atom -5570.590854 kJ/mol
# Density = 1.600239 g / cm^3
# Si number density = 16.038893 Si / 1000 Ang^3
#
#
#
# Elastic Constant Matrix: (Units=GPa)
#
#
# Indices 1 2 3 4 5 6 
#
# 1 45.3924 -0.0533 -2.1306 0.0000 0.0000 0.0000
# 2 -0.0533 45.6611 4.6891 0.0000 0.0000 0.0000
# 3 -2.1306 4.6891 64.1203 -0.0002 0.0000 0.0000
# 4 0.0000 0.0000 -0.0002 3.9542 0.0000 0.0000
# 5 0.0000 0.0000 0.0000 0.0000 13.9360 0.0000
# 6 0.0000 0.0000 0.0000 0.0000 0.0000 9.2771
#
#
#
# Elastic Compliance Matrix: (Units=1/GPa)
#
#
# Indices 1 2 3 4 5 6 
#
# 1 0.022065 -0.000050 0.000737 0.000000 0.000000 0.000000
# 2 -0.000050 0.022066 -0.001615 0.000000 0.000000 0.000000
# 3 0.000737 -0.001615 0.015738 0.000001 0.000000 0.000000
# 4 0.000000 0.000000 0.000001 0.252895 0.000000 -0.000001
# 5 0.000000 0.000000 0.000000 0.000000 0.071757 0.000000
# 6 0.000000 0.000000 0.000000 -0.000001 0.000000 0.107792
#
#
# Mechanical properties :
#
#
# Convention : Reuss Voigt Hill
#
# Bulk Modulus (GPa) = 17.23772 17.79826 17.51799
# Shear Modulus (GPa) = 9.73697 15.61138 12.67418
#
# Velocity S-wave (km/s) = 2.46658 3.12323 2.81413
# Velocity P-wave (km/s) = 4.34544 4.91194 4.63735
#
# Compressibility (1/GPa) = 0.05801231
#
# Stress axis : x y z
#
# Youngs Moduli (GPa) = 45.32140 45.31798 63.53929
#
# Poissons Ratio (x) = 0.00226 -0.04682
# Poissons Ratio (y) = 0.00226 0.10264
# Poissons Ratio (z) = -0.03339 0.07321
#
# Static dielectric constant tensor:
#      x y z
#    x 1.525930 0.000000 0.000000 
#    y 0.000000 1.502730 0.000000 
#    z 0.000000 0.000000 1.594460 
# 
# From -- ./inp_files/44641.got.cif
#   From: 2010.05.17/outbox.cif.g08.bks.cpg/sg74_23_cif.got.tgz:44641.got - 2010.06.03 17:57:02.
