data_PCOD9534271
_publ_section_title
;
Structure prediction by ZEFSAII (Michael W. Deem and Ramdas Pophale) SiO2 
 PCOD9534271
Probable space group: I M M A
;
_chemical_formula_sum "Si O2"
_cell_formula_units_Z 104
_cell_length_a 21.271692
_cell_length_b 7.925738
_cell_length_c 33.237802
_cell_angle_alpha 90.000000
_cell_angle_beta 90.000000
_cell_angle_gamma 90.000000
_cell_volume 5603.689258
_symmetry_space_group_name_H-M "I M M A"
_symmetry_group_IT_number 74
_symmetry_cell_setting 'orthorhombic'
loop_
_space_group_symop_operation_xyz
x,y,z
-x,1/2-y,z
x,-y,-z
-x,1/2+y,-z
-x,-y,-z
x,1/2+y,-z
-x,y,z
x,1/2-y,z
1/2+x,1/2+y,1/2+z
1/2-x,-y,1/2+z
1/2+x,1/2-y,1/2-z
1/2-x,y,1/2-z
1/2-x,1/2-y,1/2-z
1/2+x,y,1/2-z
1/2-x,1/2+y,1/2+z
1/2+x,-y,1/2+z
loop_
_atom_site_type_symbol
_atom_site_label
_atom_site_fract_x
_atom_site_fract_y
_atom_site_fract_z
Si Si1 0.368231 0.955783 0.921874
Si Si2 0.193438 0.452557 0.131646
Si Si3 0.737793 0.952835 0.544348
Si Si4 0.929556 0.452544 0.729153
Si Si5 0.000000 0.953405 0.546182
Si Si6 0.323043 0.547335 0.833774
Si Si7 0.569951 0.046603 0.678724
O O1 0.368601 0.750000 0.923338
O O2 0.310129 0.011531 0.949621
O O3 0.435810 0.019110 0.934852
O O4 0.353929 0.003370 0.876170
O O5 0.199444 0.250000 0.130053
O O6 0.203390 0.512810 0.085428
O O7 0.250739 0.513515 0.160725
O O8 0.126405 0.493974 0.150170
O O9 0.737377 0.750000 0.545799
O O10 0.714143 0.000000 0.500000
O O11 0.932759 0.250000 0.730135
O O12 0.870053 0.495576 0.701578
O O13 0.920119 0.512084 0.775151
O O14 0.000000 0.512059 0.715652
O O15 0.000000 0.750000 0.550607
O O16 0.000000 0.000000 0.500000
O O17 0.320469 0.750000 0.831997
O O18 0.500000 0.989955 0.666029
O O19 0.569343 0.250000 0.679635
#
# Coordination Sequence:
#
# PCOD9534271 Si02
#       7
#    16  16  16  16   8  16  16
#     4   8  16  29  44  63  90 124 160 200 241 281
#     4   9  19  34  51  75 105 129 158 204 249 287
#     4   9  17  31  49  70  97 126 157 196 240 286
#     4   9  19  34  49  69 100 133 165 207 251 287
#     4  10  18  28  42  60  84 118 160 202 242 282
#     4   9  18  32  49  71  97 129 169 205 241 290
#     4   9  19  36  55  74  98 129 163 197 241 299
#
# _framework density 18.559201999999999
#
# number of rings (size 3 to 8) (size 9 to 14) (size 15 to 20)
#    0.000    3.077    0.000    3.231    1.077    3.077 
#    0.000    7.692    0.000    0.462    0.000    0.000 
#    0.000    0.000    0.000    0.000    0.000    0.000 
#
# Total GULP energy -289597.356164 kJ/mol
# GULP energy per Si atom -5569.179926 kJ/mol
# Density = 1.851696 g / cm^3
# Si number density = 18.559202 Si / 1000 Ang^3
#
#
#
# Elastic Constant Matrix: (Units=GPa)
#
#
# Indices 1 2 3 4 5 6 
#
# 1 169.2501 12.2480 101.2372 0.0000 0.0000 0.0000
# 2 12.2480 15.8375 10.2681 0.0000 0.0000 0.0000
# 3 101.2372 10.2681 111.1405 0.0000 0.0000 0.0000
# 4 0.0000 0.0000 0.0000 25.1262 0.0000 0.0000
# 5 0.0000 0.0000 0.0000 0.0000 18.9700 0.0000
# 6 0.0000 0.0000 0.0000 0.0000 0.0000 9.1360
#
#
#
# Elastic Compliance Matrix: (Units=1/GPa)
#
#
# Indices 1 2 3 4 5 6 
#
# 1 0.013077 -0.002543 -0.011677 0.000000 0.000000 0.000000
# 2 -0.002543 0.067659 -0.003935 0.000000 0.000000 0.000000
# 3 -0.011677 -0.003935 0.019997 0.000000 0.000000 0.000000
# 4 0.000000 0.000000 0.000000 0.039799 0.000000 0.000000
# 5 0.000000 0.000000 0.000000 0.000000 0.052715 0.000000
# 6 0.000000 0.000000 0.000000 0.000000 0.000000 0.109457
#
#
# Mechanical properties :
#
#
# Convention : Reuss Voigt Hill
#
# Bulk Modulus (GPa) = 15.52199 60.41496 37.96847
# Shear Modulus (GPa) = 13.87012 22.14477 18.00744
#
# Velocity S-wave (km/s) = 2.73673 3.45801 3.11830
# Velocity P-wave (km/s) = 4.28578 6.96901 5.78511
#
# Compressibility (1/GPa) = 0.06442475
#
# Stress axis : x y z
#
# Youngs Moduli (GPa) = 76.47090 14.78004 50.00642
#
# Poissons Ratio (x) = 0.03758 0.58391
# Poissons Ratio (y) = 0.19443 0.19677
# Poissons Ratio (z) = 0.89293 0.05816
#
# Static dielectric constant tensor:
#      x y z
#    x 1.580260 0.000000 0.000000 
#    y 0.000000 1.689460 0.000000 
#    z 0.000000 0.000000 1.633090 
# 
# From -- ./inp_files/73151.got.cif
#   From: 2010.05.17/outbox.cif.g08.bks.cpg/sg74_37_cif.got.tgz:73151.got - 2010.06.03 17:57:02.
