data_PCOD9534503
_publ_section_title
;
Structure prediction by ZEFSAII (Michael W. Deem and Ramdas Pophale) SiO2 
 PCOD9534503
Probable space group: I M M A
;
_chemical_formula_sum "Si O2"
_cell_formula_units_Z 96
_cell_length_a 29.667597
_cell_length_b 9.009656
_cell_length_c 26.564293
_cell_angle_alpha 90.000000
_cell_angle_beta 90.000000
_cell_angle_gamma 90.000000
_cell_volume 7100.498535
_symmetry_space_group_name_H-M "I M M A"
_symmetry_group_IT_number 74
_symmetry_cell_setting 'orthorhombic'
loop_
_space_group_symop_operation_xyz
x,y,z
-x,1/2-y,z
x,-y,-z
-x,1/2+y,-z
-x,-y,-z
x,1/2+y,-z
-x,y,z
x,1/2-y,z
1/2+x,1/2+y,1/2+z
1/2-x,-y,1/2+z
1/2+x,1/2-y,1/2-z
1/2-x,y,1/2-z
1/2-x,1/2-y,1/2-z
1/2+x,y,1/2-z
1/2-x,1/2+y,1/2+z
1/2+x,-y,1/2+z
loop_
_atom_site_type_symbol
_atom_site_label
_atom_site_fract_x
_atom_site_fract_y
_atom_site_fract_z
Si Si1 0.050509 0.571410 0.210369
Si Si2 0.303664 0.074234 0.644812
Si Si3 0.855880 0.426398 0.749622
Si Si4 0.776724 0.079260 0.303415
Si Si5 0.449810 0.428551 0.399767
Si Si6 0.355927 0.928095 0.552837
O O1 0.053374 0.750000 0.204313
O O2 0.092068 0.526938 0.245681
O O3 0.055990 0.498888 0.155470
O O4 0.000000 0.534925 0.228548
O O5 0.303136 0.250000 0.635237
O O6 0.334130 0.048946 0.694880
O O7 0.254078 0.014809 0.658793
O O8 0.325457 0.988327 0.598311
O O9 0.853117 0.250000 0.739857
O O10 0.825271 0.511273 0.709474
O O11 0.779618 0.250000 0.319428
O O12 0.750000 0.075160 0.250000
O O13 0.500000 0.471010 0.418262
O O14 0.448694 0.250000 0.394810
O O15 0.407690 0.472195 0.434048
O O16 0.353389 0.750000 0.550404
O O17 0.342812 0.000000 0.500000
#
# Coordination Sequence:
#
# PCOD9534503 Si02
#       6
#    16  16  16  16  16  16
#     4   9  16  26  41  60  81 106 135 165 200 242
#     4  10  18  30  45  60  79 101 127 164 206 246
#     4   9  16  26  41  61  82 104 130 162 199 239
#     4   9  17  27  41  61  81 102 127 157 196 240
#     4   9  18  31  44  57  74  98 130 170 213 251
#     4  11  22  33  45  59  77 101 133 170 211 254
#
# _framework density 13.520178
#
# number of rings (size 3 to 8) (size 9 to 14) (size 15 to 20)
#    0.000    2.500    1.667    1.500    0.000    4.333 
#    0.000    0.000    0.000    0.000    0.000    0.000 
#    0.000    0.000    0.000    0.000    0.000    0.833 
#
# Total GULP energy -267460.659176 kJ/mol
# GULP energy per Si atom -5572.097066 kJ/mol
# Density = 1.348941 g / cm^3
# Si number density = 13.520178 Si / 1000 Ang^3
#
#
#
# Elastic Constant Matrix: (Units=GPa)
#
#
# Indices 1 2 3 4 5 6 
#
# 1 83.3241 33.4690 34.5607 0.0000 0.0000 0.0000
# 2 33.4690 40.2747 25.4428 0.0000 0.0000 0.0000
# 3 34.5607 25.4428 39.1533 0.0000 0.0000 0.0000
# 4 0.0000 0.0000 0.0000 18.0857 0.0000 0.0000
# 5 0.0000 0.0000 0.0000 0.0000 13.5046 0.0000
# 6 0.0000 0.0000 0.0000 0.0000 0.0000 19.0638
#
#
#
# Elastic Compliance Matrix: (Units=1/GPa)
#
#
# Indices 1 2 3 4 5 6 
#
# 1 0.020960 -0.009720 -0.012184 0.000000 0.000000 0.000000
# 2 -0.009720 0.046629 -0.021720 0.000000 0.000000 0.000000
# 3 -0.012184 -0.021720 0.050410 0.000000 0.000000 0.000000
# 4 0.000000 0.000000 0.000000 0.055292 0.000000 0.000000
# 5 0.000000 0.000000 0.000000 0.000000 0.074049 0.000000
# 6 0.000000 0.000000 0.000000 0.000000 0.000000 0.052455
#
#
# Mechanical properties :
#
#
# Convention : Reuss Voigt Hill
#
# Bulk Modulus (GPa) = 32.52225 38.85523 35.68874
# Shear Modulus (GPa) = 12.58512 14.74947 13.66730
#
# Velocity S-wave (km/s) = 3.05428 3.30650 3.18289
# Velocity P-wave (km/s) = 6.04524 6.58622 6.32152
#
# Compressibility (1/GPa) = 0.03074818
#
# Stress axis : x y z
#
# Youngs Moduli (GPa) = 47.71103 21.44605 19.83730
#
# Poissons Ratio (x) = 0.20847 0.24171
# Poissons Ratio (y) = 0.46377 0.43087
# Poissons Ratio (z) = 0.58133 0.46581
#
# Static dielectric constant tensor:
#      x y z
#    x 1.467820 0.000000 0.000000 
#    y 0.000000 1.449090 0.000000 
#    z 0.000000 0.000000 1.401520 
# 
# From -- ./inp_files/57501.got.cif
#   From: 2010.05.17/outbox.cif.g08.bks.cpg/sg74_29_cif.got.tgz:57501.got - 2010.06.03 17:57:02.
