data_PCOD9534000
_publ_section_title
;
Structure prediction by ZEFSAII (Michael W. Deem and Ramdas Pophale) SiO2 
 PCOD9534000
Probable space group: I M M A
;
_chemical_formula_sum "Si O2"
_cell_formula_units_Z 80
_cell_length_a 24.286589
_cell_length_b 8.421645
_cell_length_c 25.417268
_cell_angle_alpha 90.000000
_cell_angle_beta 90.000000
_cell_angle_gamma 90.000000
_cell_volume 5198.670859
_symmetry_space_group_name_H-M "I M M A"
_symmetry_group_IT_number 74
_symmetry_cell_setting 'orthorhombic'
loop_
_space_group_symop_operation_xyz
x,y,z
-x,1/2-y,z
x,-y,-z
-x,1/2+y,-z
-x,-y,-z
x,1/2+y,-z
-x,y,z
x,1/2-y,z
1/2+x,1/2+y,1/2+z
1/2-x,-y,1/2+z
1/2+x,1/2-y,1/2-z
1/2-x,y,1/2-z
1/2-x,1/2-y,1/2-z
1/2+x,y,1/2-z
1/2-x,1/2+y,1/2+z
1/2+x,-y,1/2+z
loop_
_atom_site_type_symbol
_atom_site_label
_atom_site_fract_x
_atom_site_fract_y
_atom_site_fract_z
Si Si1 0.756074 0.059782 0.443849
Si Si2 0.937836 0.058436 0.664509
Si Si3 0.618152 0.559510 0.056276
Si Si4 0.337269 0.058361 0.231012
Si Si5 0.226760 0.443237 0.168865
O O1 0.756524 0.250000 0.444660
O O2 0.724298 0.004245 0.391510
O O3 0.734777 0.000000 0.500000
O O4 0.819286 0.002483 0.438715
O O5 0.938361 0.250000 0.663768
O O6 0.916288 0.005723 0.606950
O O7 0.000000 0.002200 0.674078
O O8 0.893763 0.004774 0.707654
O O9 0.619534 0.750000 0.055438
O O10 0.596404 0.500000 0.000000
O O11 0.339070 0.250000 0.230580
O O12 0.286041 0.010494 0.193399
O O13 0.319747 0.005457 0.289683
O O14 0.225983 0.250000 0.168987
#
# Coordination Sequence:
#
# PCOD9534000 Si02
#       5
#    16  16  16  16  16
#     4  10  17  27  43  64  89 115 140 173 214 254
#     4  10  21  34  44  59  87 116 143 183 227 257
#     4  10  19  30  43  58  80 112 149 186 218 250
#     4   9  16  30  48  65  82 109 147 178 212 258
#     4   8  15  27  46  66  87 110 137 178 218 253
#
# _framework density 15.388548999999999
#
# number of rings (size 3 to 8) (size 9 to 14) (size 15 to 20)
#    0.000    2.600    2.000    3.600    0.000    1.600 
#    0.000    4.000    0.000    0.000    0.000    0.000 
#    0.000    0.800    0.000    1.800    0.000    3.200 
#
# Total GULP energy -222880.983109 kJ/mol
# GULP energy per Si atom -5572.024578 kJ/mol
# Density = 1.535352 g / cm^3
# Si number density = 15.388549 Si / 1000 Ang^3
#
#
#
# Elastic Constant Matrix: (Units=GPa)
#
#
# Indices 1 2 3 4 5 6 
#
# 1 78.6966 11.0613 76.0930 0.0000 0.0000 0.0000
# 2 11.0613 19.7415 21.7111 0.0000 0.0000 0.0000
# 3 76.0930 21.7111 164.9980 0.0000 0.0000 0.0000
# 4 0.0000 0.0000 0.0000 20.1625 0.0000 0.0000
# 5 0.0000 0.0000 0.0000 0.0000 20.4254 0.0000
# 6 0.0000 0.0000 0.0000 0.0000 0.0000 15.2299
#
#
#
# Elastic Compliance Matrix: (Units=1/GPa)
#
#
# Indices 1 2 3 4 5 6 
#
# 1 0.022968 -0.001426 -0.010404 0.000000 0.000000 0.000000
# 2 -0.001426 0.059314 -0.007147 0.000000 0.000000 0.000000
# 3 -0.010404 -0.007147 0.011799 0.000000 0.000000 0.000000
# 4 0.000000 0.000000 0.000000 0.049597 0.000000 0.000000
# 5 0.000000 0.000000 0.000000 0.000000 0.048959 0.000000
# 6 0.000000 0.000000 0.000000 0.000000 0.000000 0.065660
#
#
# Mechanical properties :
#
#
# Convention : Reuss Voigt Hill
#
# Bulk Modulus (GPa) = 17.81722 53.46298 35.64010
# Shear Modulus (GPa) = 15.87496 21.46827 18.67162
#
# Velocity S-wave (km/s) = 3.21535 3.73913 3.48709
# Velocity P-wave (km/s) = 5.03865 7.31156 6.27881
#
# Compressibility (1/GPa) = 0.05612549
#
# Stress axis : x y z
#
# Youngs Moduli (GPa) = 43.53924 16.85941 84.75012
#
# Poissons Ratio (x) = 0.02405 0.88178
# Poissons Ratio (y) = 0.06211 0.60570
# Poissons Ratio (z) = 0.45300 0.12049
#
# Static dielectric constant tensor:
#      x y z
#    x 1.482650 0.000000 0.000000 
#    y 0.000000 1.532440 0.000000 
#    z 0.000000 0.000000 1.547860 
# 
# From -- ./inp_files/62564.got.cif
#   From: 2010.05.17/outbox.cif.g08.bks.cpg/sg74_32_cif.got.tgz:62564.got - 2010.06.03 17:57:02.
