data_PCOD9534784
_publ_section_title
;
Structure prediction by ZEFSAII (Michael W. Deem and Ramdas Pophale) SiO2 
 PCOD9534784
Probable space group: I M M A
;
_chemical_formula_sum "Si O2"
_cell_formula_units_Z 96
_cell_length_a 30.374696
_cell_length_b 7.606527
_cell_length_c 19.664138
_cell_angle_alpha 90.000000
_cell_angle_beta 90.000000
_cell_angle_gamma 90.000000
_cell_volume 4543.319352
_symmetry_space_group_name_H-M "I M M A"
_symmetry_group_IT_number 74
_symmetry_cell_setting 'orthorhombic'
loop_
_space_group_symop_operation_xyz
x,y,z
-x,1/2-y,z
x,-y,-z
-x,1/2+y,-z
-x,-y,-z
x,1/2+y,-z
-x,y,z
x,1/2-y,z
1/2+x,1/2+y,1/2+z
1/2-x,-y,1/2+z
1/2+x,1/2-y,1/2-z
1/2-x,y,1/2-z
1/2-x,1/2-y,1/2-z
1/2+x,y,1/2-z
1/2-x,1/2+y,1/2+z
1/2+x,-y,1/2+z
loop_
_atom_site_type_symbol
_atom_site_label
_atom_site_fract_x
_atom_site_fract_y
_atom_site_fract_z
Si Si1 0.820112 0.553458 0.423311
Si Si2 0.200829 0.465116 0.726650
Si Si3 0.950477 0.538579 0.079563
Si Si4 0.621726 0.050610 0.682588
Si Si5 0.547555 0.962491 0.782911
Si Si6 0.920941 0.457836 0.427840
O O1 0.806362 0.500000 0.500000
O O2 0.803153 0.750000 0.417167
O O3 0.807455 0.467843 0.350661
O O4 0.873228 0.547722 0.424701
O O5 0.195645 0.250000 0.725700
O O6 0.250000 0.505782 0.750000
O O7 0.165293 0.529177 0.782771
O O8 0.951171 0.750000 0.089380
O O9 0.908998 0.469411 0.123221
O O10 0.000000 0.472582 0.097762
O O11 0.944382 0.500000 0.000000
O O12 0.632973 0.250000 0.660840
O O13 0.587192 0.051700 0.744448
O O14 0.500000 0.017311 0.756340
O O15 0.551389 0.750000 0.775698
O O16 0.551368 0.004982 0.862257
O O17 0.942070 0.500000 0.500000
O O18 0.912226 0.250000 0.425145
#
# Coordination Sequence:
#
# PCOD9534784 Si02
#       6
#    16  16  16  16  16  16
#     4  10  18  31  53  76 100 133 173 211 255 304
#     4   9  18  33  54  79 104 133 171 216 265 314
#     4   9  18  32  51  76 104 134 168 208 254 309
#     4  10  19  34  55  77 101 132 175 217 254 305
#     4  10  21  34  48  71 104 138 169 207 258 307
#     4  10  19  31  48  69  98 133 171 209 249 294
#
# _framework density 21.129925
#
# number of rings (size 3 to 8) (size 9 to 14) (size 15 to 20)
#    0.000    2.333    1.667    2.500    0.000    2.667 
#    0.000    2.500    0.000    4.500    0.000    0.000 
#    0.000    0.000    0.000    0.000    0.000    0.000 
#
# Total GULP energy -267523.883853 kJ/mol
# GULP energy per Si atom -5573.414247 kJ/mol
# Density = 2.108183 g / cm^3
# Si number density = 21.129925 Si / 1000 Ang^3
#
#
#
# Elastic Constant Matrix: (Units=GPa)
#
#
# Indices 1 2 3 4 5 6 
#
# 1 131.4433 0.6769 68.7886 0.0000 0.0000 0.0000
# 2 0.6769 41.3342 1.1481 0.0000 0.0000 0.0000
# 3 68.7886 1.1481 159.3836 0.0000 0.0000 0.0000
# 4 0.0000 0.0000 0.0000 28.8666 0.0000 0.0000
# 5 0.0000 0.0000 0.0000 0.0000 26.4431 0.0000
# 6 0.0000 0.0000 0.0000 0.0000 0.0000 -57.0093
#
#
#
# Elastic Compliance Matrix: (Units=1/GPa)
#
#
# Indices 1 2 3 4 5 6 
#
# 1 0.009828 -0.000043 -0.004241 0.000000 0.000000 0.000000
# 2 -0.000043 0.024198 -0.000156 0.000000 0.000000 0.000000
# 3 -0.004241 -0.000156 0.008106 0.000000 0.000000 0.000000
# 4 0.000000 0.000000 0.000000 0.034642 0.000000 0.000000
# 5 0.000000 0.000000 0.000000 0.000000 0.037817 0.000000
# 6 0.000000 0.000000 0.000000 0.000000 0.000000 -0.017541
#
#
# Mechanical properties :
#
#
# Convention : Reuss Voigt Hill
#
# Bulk Modulus (GPa) = 30.07393 52.59871 41.33632
# Shear Modulus (GPa) = 42.73013 17.09658 29.91336
#
# Velocity S-wave (km/s) = 4.50183 2.84758 3.76664
# Velocity P-wave (km/s) = 6.42540 5.97986 6.20663
#
# Compressibility (1/GPa) = 0.03325139
#
# Stress axis : x y z
#
# Youngs Moduli (GPa) = 101.75390 41.32559 123.36900
#
# Poissons Ratio (x) = 0.00178 0.52323
# Poissons Ratio (y) = 0.00439 0.01921
# Poissons Ratio (z) = 0.43156 0.00643
#
# Static dielectric constant tensor:
#      x y z
#    x 1.713210 0.000000 0.000000 
#    y 0.000000 1.829840 0.000000 
#    z 0.000000 0.000000 1.799740 
# 
# From -- ./inp_files/55106.got.cif
#   From: 2010.05.17/outbox.cif.g08.bks.cpg/sg74_28_cif.got.tgz:55106.got - 2010.06.03 17:57:02.
