data_PCOD9534893
_publ_section_title
;
Structure prediction by ZEFSAII (Michael W. Deem and Ramdas Pophale) SiO2 
 PCOD9534893
Probable space group: I M M A
;
_chemical_formula_sum "Si O2"
_cell_formula_units_Z 72
_cell_length_a 8.533410
_cell_length_b 22.641232
_cell_length_c 20.001393
_cell_angle_alpha 90.000000
_cell_angle_beta 90.000000
_cell_angle_gamma 90.000000
_cell_volume 3864.407448
_symmetry_space_group_name_H-M "I M M A"
_symmetry_group_IT_number 74
_symmetry_cell_setting 'orthorhombic'
loop_
_space_group_symop_operation_xyz
x,y,z
-x,1/2-y,z
x,-y,-z
-x,1/2+y,-z
-x,-y,-z
x,1/2+y,-z
-x,y,z
x,1/2-y,z
1/2+x,1/2+y,1/2+z
1/2-x,-y,1/2+z
1/2+x,1/2-y,1/2-z
1/2-x,y,1/2-z
1/2-x,1/2-y,1/2-z
1/2+x,y,1/2-z
1/2-x,1/2+y,1/2+z
1/2+x,-y,1/2+z
loop_
_atom_site_type_symbol
_atom_site_label
_atom_site_fract_x
_atom_site_fract_y
_atom_site_fract_z
Si Si1 0.186292 0.604832 0.676542
Si Si2 0.691000 0.136391 0.588715
Si Si3 0.310553 0.750000 0.325217
Si Si4 0.810532 0.180932 0.055149
Si Si5 0.188465 0.526230 0.176052
O O1 0.250000 0.620999 0.750000
O O2 0.241611 0.650002 0.620205
O O3 0.251095 0.539343 0.660664
O O4 0.000000 0.602229 0.679572
O O5 0.500000 0.136526 0.588239
O O6 0.740270 0.191575 0.634694
O O7 0.741272 0.148066 0.512781
O O8 0.740603 0.075204 0.622604
O O9 0.500000 0.750000 0.324189
O O10 0.250000 0.750000 0.250000
O O11 0.768183 0.250000 0.050812
O O12 0.000000 0.177675 0.058345
O O13 0.250000 0.542232 0.250000
O O14 0.000000 0.525063 0.177891
#
# Coordination Sequence:
#
# PCOD9534893 Si02
#       5
#    16  16   8  16  16
#     4  11  23  40  60  83 111 143 183 232 284 338
#     4   9  18  33  56  82 112 150 189 227 271 328
#     4  10  18  32  52  80 113 150 191 228 269 318
#     4  10  20  38  62  84 110 147 188 231 276 329
#     4  10  19  34  56  83 114 149 190 232 275 326
#
# _framework density 18.631577
#
# number of rings (size 3 to 8) (size 9 to 14) (size 15 to 20)
#    0.000    2.000    1.111    4.667    0.000    1.778 
#    0.000    8.889    0.000    0.000    0.000    0.000 
#    0.000    0.000    0.000    0.000    0.000    0.000 
#
# Total GULP energy -201052.230929 kJ/mol
# GULP energy per Si atom -5584.784192 kJ/mol
# Density = 1.858917 g / cm^3
# Si number density = 18.631577 Si / 1000 Ang^3
#
#
#
# Elastic Constant Matrix: (Units=GPa)
#
#
# Indices 1 2 3 4 5 6 
#
# 1 52.2964 38.9591 40.2663 0.0000 0.0000 0.0000
# 2 38.9591 90.8975 87.7856 0.0000 0.0000 0.0000
# 3 40.2663 87.7856 146.6325 0.0000 0.0000 0.0000
# 4 0.0000 0.0000 0.0000 41.7444 0.0000 0.0000
# 5 0.0000 0.0000 0.0000 0.0000 30.1706 0.0000
# 6 0.0000 0.0000 0.0000 0.0000 0.0000 16.1224
#
#
#
# Elastic Compliance Matrix: (Units=1/GPa)
#
#
# Indices 1 2 3 4 5 6 
#
# 1 0.028180 -0.010916 -0.001203 0.000000 0.000000 0.000000
# 2 -0.010916 0.030310 -0.015148 0.000000 0.000000 0.000000
# 3 -0.001203 -0.015148 0.016219 0.000000 0.000000 0.000000
# 4 0.000000 0.000000 0.000000 0.023955 0.000000 0.000000
# 5 0.000000 0.000000 0.000000 0.000000 0.033145 0.000000
# 6 0.000000 0.000000 0.000000 0.000000 0.000000 0.062025
#
#
# Mechanical properties :
#
#
# Convention : Reuss Voigt Hill
#
# Bulk Modulus (GPa) = 49.56865 69.31650 59.44258
# Shear Modulus (GPa) = 19.60061 25.79518 22.69790
#
# Velocity S-wave (km/s) = 3.24699 3.72491 3.49413
# Velocity P-wave (km/s) = 6.38120 7.46890 6.94637
#
# Compressibility (1/GPa) = 0.02017404
#
# Stress axis : x y z
#
# Youngs Moduli (GPa) = 35.48561 32.99292 61.65628
#
# Poissons Ratio (x) = 0.36016 0.07419
# Poissons Ratio (y) = 0.38737 0.93397
# Poissons Ratio (z) = 0.04270 0.49978
#
# Static dielectric constant tensor:
#      x y z
#    x 1.644290 0.000000 0.000000 
#    y 0.000000 1.629040 0.000000 
#    z 0.000000 0.000000 1.607690 
# 
# From -- ./inp_files/48387.got.cif
#   From: 2010.05.17/outbox.cif.g08.bks.cpg/sg74_25_cif.got.tgz:48387.got - 2010.06.03 17:57:02.
