data_PCOD9534925
_publ_section_title
;
Structure prediction by ZEFSAII (Michael W. Deem and Ramdas Pophale) SiO2 
 PCOD9534925
Probable space group: I M M A
;
_chemical_formula_sum "Si O2"
_cell_formula_units_Z 104
_cell_length_a 25.115181
_cell_length_b 8.236815
_cell_length_c 25.693620
_cell_angle_alpha 90.000000
_cell_angle_beta 90.000000
_cell_angle_gamma 90.000000
_cell_volume 5315.216035
_symmetry_space_group_name_H-M "I M M A"
_symmetry_group_IT_number 74
_symmetry_cell_setting 'orthorhombic'
loop_
_space_group_symop_operation_xyz
x,y,z
-x,1/2-y,z
x,-y,-z
-x,1/2+y,-z
-x,-y,-z
x,1/2+y,-z
-x,y,z
x,1/2-y,z
1/2+x,1/2+y,1/2+z
1/2-x,-y,1/2+z
1/2+x,1/2-y,1/2-z
1/2-x,y,1/2-z
1/2-x,1/2-y,1/2-z
1/2+x,y,1/2-z
1/2-x,1/2+y,1/2+z
1/2+x,-y,1/2+z
loop_
_atom_site_type_symbol
_atom_site_label
_atom_site_fract_x
_atom_site_fract_y
_atom_site_fract_z
Si Si1 0.439770 0.054194 0.227497
Si Si2 0.658919 0.062319 0.842804
Si Si3 0.112387 0.440318 0.440844
Si Si4 0.886946 0.944400 0.834423
Si Si5 0.562001 0.946018 0.557456
Si Si6 0.268969 0.061980 0.690317
Si Si7 0.500000 0.945471 0.060347
O O1 0.500000 0.996160 0.213929
O O2 0.441621 0.250000 0.227776
O O3 0.422998 0.997337 0.285730
O O4 0.390906 0.007403 0.189542
O O5 0.662666 0.250000 0.826609
O O6 0.716713 0.983368 0.835162
O O7 0.648500 0.045380 0.903667
O O8 0.114615 0.500000 0.500000
O O9 0.123472 0.250000 0.437834
O O10 0.053308 0.476050 0.418795
O O11 0.893113 0.750000 0.835559
O O12 0.905688 0.004138 0.891464
O O13 0.825634 0.982304 0.820744
O O14 0.500000 0.997761 0.562556
O O15 0.562981 0.750000 0.557768
O O16 0.581050 0.000000 0.500000
O O17 0.274992 0.250000 0.673633
O O18 0.250000 0.061222 0.750000
O O19 0.500000 0.750000 0.064103
O O20 0.500000 0.000000 0.000000
#
# Coordination Sequence:
#
# PCOD9534925 Si02
#       7
#    16  16  16  16  16  16   8
#     4  10  21  36  55  83 117 149 184 231 287 345
#     4  11  23  39  58  81 112 149 190 233 286 340
#     4  11  22  38  58  81 110 143 184 229 279 331
#     4  10  20  35  59  86 114 150 193 239 287 343
#     4   9  18  34  56  85 121 158 195 236 287 345
#     4  10  21  39  59  81 111 149 190 237 287 338
#     4  10  18  32  54  80 108 142 182 220 267 322
#
# _framework density 19.566466999999999
#
# number of rings (size 3 to 8) (size 9 to 14) (size 15 to 20)
#    0.000    1.846    1.538    3.923    1.077    4.308 
#    0.000    0.769    0.000    4.615    0.000    0.000 
#    0.000    0.000    0.000    0.000    0.000    0.000 
#
# Total GULP energy -289865.941949 kJ/mol
# GULP energy per Si atom -5574.345037 kJ/mol
# Density = 1.952193 g / cm^3
# Si number density = 19.566467 Si / 1000 Ang^3
#
#
#
# Elastic Constant Matrix: (Units=GPa)
#
#
# Indices 1 2 3 4 5 6 
#
# 1 98.3269 2.0450 36.9291 0.0000 0.0000 0.0000
# 2 2.0450 28.1602 3.1794 0.0000 0.0000 0.0000
# 3 36.9291 3.1794 96.2674 0.0000 0.0000 0.0000
# 4 0.0000 0.0000 0.0000 24.8778 0.0000 0.0000
# 5 0.0000 0.0000 0.0000 0.0000 5.5238 0.0000
# 6 0.0000 0.0000 0.0000 0.0000 0.0000 20.7021
#
#
#
# Elastic Compliance Matrix: (Units=1/GPa)
#
#
# Indices 1 2 3 4 5 6 
#
# 1 0.011885 -0.000350 -0.004548 0.000000 0.000000 0.000000
# 2 -0.000350 0.035654 -0.001043 0.000000 0.000000 0.000000
# 3 -0.004548 -0.001043 0.012167 0.000000 0.000000 0.000000
# 4 0.000000 0.000000 0.000000 0.040196 0.000000 0.000000
# 5 0.000000 0.000000 0.000000 0.000000 0.181034 0.000000
# 6 0.000000 0.000000 0.000000 0.000000 0.000000 0.048304
#
#
# Mechanical properties :
#
#
# Convention : Reuss Voigt Hill
#
# Bulk Modulus (GPa) = 20.90964 34.11793 27.51379
# Shear Modulus (GPa) = 14.00304 22.26080 18.13192
#
# Velocity S-wave (km/s) = 2.67809 3.37664 3.04745
# Velocity P-wave (km/s) = 4.50251 5.71639 5.14537
#
# Compressibility (1/GPa) = 0.04782483
#
# Stress axis : x y z
#
# Youngs Moduli (GPa) = 84.13621 28.04705 82.19093
#
# Poissons Ratio (x) = 0.00981 0.37379
# Poissons Ratio (y) = 0.02942 0.08576
# Poissons Ratio (z) = 0.38264 0.02927
#
# Static dielectric constant tensor:
#      x y z
#    x 1.679770 0.000000 0.000000 
#    y 0.000000 1.691650 0.000000 
#    z 0.000000 0.000000 1.681990 
# 
# From -- ./inp_files/68643.got.cif
#   From: 2010.05.17/outbox.cif.g08.bks.cpg/sg74_35_cif.got.tgz:68643.got - 2010.06.03 17:57:02.
