data_PCOD9534768
_publ_section_title
;
Structure prediction by ZEFSAII (Michael W. Deem and Ramdas Pophale) SiO2 
 PCOD9534768
Probable space group: I M M A
;
_chemical_formula_sum "Si O2"
_cell_formula_units_Z 64
_cell_length_a 8.670385
_cell_length_b 42.766293
_cell_length_c 9.622612
_cell_angle_alpha 90.000000
_cell_angle_beta 90.000000
_cell_angle_gamma 90.000000
_cell_volume 3568.066698
_symmetry_space_group_name_H-M "I M M A"
_symmetry_group_IT_number 74
_symmetry_cell_setting 'orthorhombic'
loop_
_space_group_symop_operation_xyz
x,y,z
-x,1/2-y,z
x,-y,-z
-x,1/2+y,-z
-x,-y,-z
x,1/2+y,-z
-x,y,z
x,1/2-y,z
1/2+x,1/2+y,1/2+z
1/2-x,-y,1/2+z
1/2+x,1/2-y,1/2-z
1/2-x,y,1/2-z
1/2-x,1/2-y,1/2-z
1/2+x,y,1/2-z
1/2-x,1/2+y,1/2+z
1/2+x,-y,1/2+z
loop_
_atom_site_type_symbol
_atom_site_label
_atom_site_fract_x
_atom_site_fract_y
_atom_site_fract_z
Si Si1 0.815772 0.405300 0.592443
Si Si2 0.684655 0.785862 0.905247
Si Si3 0.184645 0.470100 0.905790
Si Si4 0.683955 0.159445 0.593857
O O1 0.750000 0.405604 0.750000
O O2 0.755767 0.438088 0.532677
O O3 0.750418 0.373043 0.531563
O O4 0.000000 0.404574 0.595003
O O5 0.500000 0.789883 0.904346
O O6 0.718230 0.750000 0.948700
O O7 0.750000 0.789719 0.750000
O O8 0.761202 0.811149 0.004919
O O9 0.250000 0.474403 0.750000
O O10 0.000000 0.466575 0.897205
O O11 0.221326 0.500000 0.000000
O O12 0.500000 0.157530 0.600142
O O13 0.750000 0.162489 0.750000
#
# Coordination Sequence:
#
# PCOD9534768 Si02
#       4
#    16  16  16  16
#     4  10  18  31  52  76 104 137 174 214 262 315
#     4  10  21  38  58  80 108 142 178 215 261 317
#     4  10  20  34  53  77 105 137 174 214 259 311
#     4  11  21  35  56  81 109 139 177 222 266 312
#
# _framework density 17.936885
#
# number of rings (size 3 to 8) (size 9 to 14) (size 15 to 20)
#    0.000    1.750    0.000    9.000    0.000    4.000 
#    0.000    1.250    0.000    3.000    0.000    0.000 
#    0.000    0.000    0.000    0.000    0.000    0.000 
#
# Total GULP energy -178631.069243 kJ/mol
# GULP energy per Si atom -5582.220914 kJ/mol
# Density = 1.789606 g / cm^3
# Si number density = 17.936885 Si / 1000 Ang^3
#
#
#
# Elastic Constant Matrix: (Units=GPa)
#
#
# Indices 1 2 3 4 5 6 
#
# 1 154.6590 102.2175 40.2254 0.0003 0.0000 -0.0006
# 2 102.2175 201.2719 71.8036 0.0006 0.0001 -0.0005
# 3 40.2254 71.8036 46.9085 -0.0001 -0.0003 -0.0024
# 4 0.0003 0.0006 -0.0001 20.7991 0.0000 -0.0004
# 5 0.0000 0.0001 -0.0003 0.0000 24.3052 0.0001
# 6 -0.0006 -0.0005 -0.0024 -0.0004 0.0001 24.0348
#
#
#
# Elastic Compliance Matrix: (Units=1/GPa)
#
#
# Indices 1 2 3 4 5 6 
#
# 1 0.009796 -0.004358 -0.001730 0.000000 0.000000 0.000000
# 2 -0.004358 0.012884 -0.015985 0.000000 0.000000 -0.000001
# 3 -0.001730 -0.015985 0.047270 0.000001 0.000001 0.000004
# 4 0.000000 0.000000 0.000001 0.048079 0.000000 0.000001
# 5 0.000000 0.000000 0.000001 0.000000 0.041143 0.000000
# 6 0.000000 -0.000001 0.000004 0.000001 0.000000 0.041606
#
#
# Mechanical properties :
#
#
# Convention : Reuss Voigt Hill
#
# Bulk Modulus (GPa) = 38.75232 92.37027 65.56129
# Shear Modulus (GPa) = 19.72187 26.40068 23.06127
#
# Velocity S-wave (km/s) = 3.31949 3.84065 3.58954
# Velocity P-wave (km/s) = 6.02858 8.44255 7.33554
#
# Compressibility (1/GPa) = 0.02580491
#
# Stress axis : x y z
#
# Youngs Moduli (GPa) = 102.08322 77.61388 21.15512
#
# Poissons Ratio (x) = 0.33824 0.03659
# Poissons Ratio (y) = 0.44487 0.33817
# Poissons Ratio (z) = 0.17656 1.24067
#
# Static dielectric constant tensor:
#      x y z
#    x 1.589560 0.000000 0.000000 
#    y 0.000000 1.656300 0.000000 
#    z 0.000000 0.000000 1.593540 
# 
# From -- ./inp_files/17582.got.cif
#   From: 2010.05.17/outbox.cif.g08.bks.cpg/sg74_9_cif.got.tgz:17582.got - 2010.06.03 17:57:02.
