data_PCOD9534631
_publ_section_title
;
Structure prediction by ZEFSAII (Michael W. Deem and Ramdas Pophale) SiO2 
 PCOD9534631
Probable space group: I M M A
;
_chemical_formula_sum "Si O2"
_cell_formula_units_Z 88
_cell_length_a 24.108258
_cell_length_b 16.758101
_cell_length_c 13.166989
_cell_angle_alpha 90.000000
_cell_angle_beta 90.000000
_cell_angle_gamma 90.000000
_cell_volume 5319.577088
_symmetry_space_group_name_H-M "I M M A"
_symmetry_group_IT_number 74
_symmetry_cell_setting 'orthorhombic'
loop_
_space_group_symop_operation_xyz
x,y,z
-x,1/2-y,z
x,-y,-z
-x,1/2+y,-z
-x,-y,-z
x,1/2+y,-z
-x,y,z
x,1/2-y,z
1/2+x,1/2+y,1/2+z
1/2-x,-y,1/2+z
1/2+x,1/2-y,1/2-z
1/2-x,y,1/2-z
1/2-x,1/2-y,1/2-z
1/2+x,y,1/2-z
1/2-x,1/2+y,1/2+z
1/2+x,-y,1/2+z
loop_
_atom_site_type_symbol
_atom_site_label
_atom_site_fract_x
_atom_site_fract_y
_atom_site_fract_z
Si Si1 0.064013 0.342735 0.471089
Si Si2 0.676421 0.974313 0.612668
Si Si3 0.766827 0.156202 0.401159
Si Si4 0.137209 0.060651 0.317362
Si Si5 0.336625 0.386258 0.898525
Si Si6 0.750000 0.593098 0.250000
O O1 0.068311 0.250000 0.440535
O O2 0.088910 0.397195 0.380998
O O3 0.103196 0.354039 0.569688
O O4 0.000000 0.361929 0.491280
O O5 0.710612 0.892997 0.598474
O O6 0.629912 0.962632 0.699648
O O7 0.658626 0.000000 0.500000
O O8 0.720106 0.037151 0.664679
O O9 0.759787 0.250000 0.388833
O O10 0.809805 0.119660 0.319997
O O11 0.798911 0.136077 0.505601
O O12 0.154613 0.980382 0.377345
O O13 0.300061 0.359155 0.802457
#
# Coordination Sequence:
#
# PCOD9534631 Si02
#       6
#    16  16  16  16  16   8
#     4  10  21  36  53  77 105 130 164 215 266 303
#     4  11  18  31  47  67  99 133 170 205 251 301
#     4  11  18  26  43  70 100 131 164 202 248 303
#     4  10  19  30  50  70  94 132 168 209 249 300
#     4  10  18  31  49  73 101 135 172 204 248 305
#     4  10  18  30  52  68 100 144 170 204 254 298
#
# _framework density 16.542667999999999
#
# number of rings (size 3 to 8) (size 9 to 14) (size 15 to 20)
#    0.000    1.636    5.455    4.364    0.000    3.636 
#    0.000    1.818    0.000    0.545    0.000    0.000 
#    0.000   11.636    0.000    0.000    0.000    0.000 
#
# Total GULP energy -245042.760313 kJ/mol
# GULP energy per Si atom -5569.153643 kJ/mol
# Density = 1.650502 g / cm^3
# Si number density = 16.542668 Si / 1000 Ang^3
#
#
#
# Elastic Constant Matrix: (Units=GPa)
#
#
# Indices 1 2 3 4 5 6 
#
# 1 89.4713 15.5657 33.4141 0.0000 0.0000 0.0000
# 2 15.5657 53.2048 21.6008 0.0000 0.0000 0.0000
# 3 33.4141 21.6008 103.4027 0.0000 0.0000 0.0000
# 4 0.0000 0.0000 0.0000 -0.7539 0.0000 0.0000
# 5 0.0000 0.0000 0.0000 0.0000 18.1341 0.0000
# 6 0.0000 0.0000 0.0000 0.0000 0.0000 21.4301
#
#
#
# Elastic Compliance Matrix: (Units=1/GPa)
#
#
# Indices 1 2 3 4 5 6 
#
# 1 0.012960 -0.002285 -0.003711 0.000000 0.000000 0.000000
# 2 -0.002285 0.020940 -0.003636 0.000000 0.000000 0.000000
# 3 -0.003711 -0.003636 0.011630 0.000000 0.000000 0.000000
# 4 0.000000 0.000000 0.000000 -1.326518 0.000000 0.000000
# 5 0.000000 0.000000 0.000000 0.000000 0.055145 0.000000
# 6 0.000000 0.000000 0.000000 0.000000 0.000000 0.046663
#
#
# Mechanical properties :
#
#
# Convention : Reuss Voigt Hill
#
# Bulk Modulus (GPa) = 38.07165 43.02666 40.54915
# Shear Modulus (GPa) = -4.34344 19.46196 7.55926
#
# Velocity S-wave (km/s) = -1.62213 3.43369 2.13997
# Velocity P-wave (km/s) = 4.42219 6.46423 5.53814
#
# Compressibility (1/GPa) = 0.02626627
#
# Stress axis : x y z
#
# Youngs Moduli (GPa) = 77.15988 47.75546 85.98786
#
# Poissons Ratio (x) = 0.10913 0.31907
# Poissons Ratio (y) = 0.17632 0.31265
# Poissons Ratio (z) = 0.28631 0.17364
#
# Static dielectric constant tensor:
#      x y z
#    x 1.555680 0.000000 0.000000 
#    y 0.000000 1.578380 0.000000 
#    z 0.000000 0.000000 1.623530 
# 
# From -- ./inp_files/26155.got.cif
#   From: 2010.05.17/outbox.cif.g08.bks.cpg/sg74_14_cif.got.tgz:26155.got - 2010.06.03 17:57:02.
