data_PCOD9534074
_publ_section_title
;
Structure prediction by ZEFSAII (Michael W. Deem and Ramdas Pophale) SiO2 
 PCOD9534074
Probable space group: I M M A
;
_chemical_formula_sum "Si O2"
_cell_formula_units_Z 128
_cell_length_a 18.354959
_cell_length_b 21.200090
_cell_length_c 20.789358
_cell_angle_alpha 90.000000
_cell_angle_beta 90.000000
_cell_angle_gamma 90.000000
_cell_volume 8089.695994
_symmetry_space_group_name_H-M "I M M A"
_symmetry_group_IT_number 74
_symmetry_cell_setting 'orthorhombic'
loop_
_space_group_symop_operation_xyz
x,y,z
-x,1/2-y,z
x,-y,-z
-x,1/2+y,-z
-x,-y,-z
x,1/2+y,-z
-x,y,z
x,1/2-y,z
1/2+x,1/2+y,1/2+z
1/2-x,-y,1/2+z
1/2+x,1/2-y,1/2-z
1/2-x,y,1/2-z
1/2-x,1/2-y,1/2-z
1/2+x,y,1/2-z
1/2-x,1/2+y,1/2+z
1/2+x,-y,1/2+z
loop_
_atom_site_type_symbol
_atom_site_label
_atom_site_fract_x
_atom_site_fract_y
_atom_site_fract_z
Si Si1 0.201003 0.319149 0.685020
Si Si2 0.183696 0.321500 0.929731
Si Si3 0.807149 0.823709 0.691948
Si Si4 0.412556 0.931112 0.378186
Si Si5 0.915677 0.429960 0.270615
Si Si6 0.699158 0.822583 0.575863
Si Si7 0.583491 0.073425 0.385278
Si Si8 0.836968 0.557023 0.260598
O O1 0.165174 0.250000 0.679706
O O2 0.250000 0.317407 0.750000
O O3 0.255027 0.327631 0.625053
O O4 0.153526 0.381460 0.694917
O O5 0.153243 0.250000 0.923937
O O6 0.123460 0.375048 0.918518
O O7 0.217555 0.327068 0.000645
O O8 0.827762 0.750000 0.696198
O O9 0.750000 0.836332 0.750000
O O10 0.874449 0.870021 0.700884
O O11 0.764928 0.834448 0.625097
O O12 0.500000 0.925379 0.373120
O O13 0.375780 0.929101 0.307566
O O14 0.396927 0.001611 0.404714
O O15 0.913135 0.425517 0.192637
O O16 0.872739 0.493773 0.287777
O O17 0.000000 0.433472 0.289301
O O18 0.674710 0.750000 0.588403
O O19 0.636629 0.873197 0.589390
O O20 0.500000 0.085215 0.404840
O O21 0.750000 0.546798 0.250000
#
# Coordination Sequence:
#
# PCOD9534074 Si02
#       8
#    16  16  16  16  16  16  16  16
#     4   9  16  29  51  75  96 123 166 213 249 286
#     4  10  20  34  49  72 104 134 167 206 250 296
#     4  10  19  33  53  76  99 128 171 217 249 289
#     4  10  20  33  48  73 107 138 169 205 245 293
#     4  10  20  32  50  77 105 130 162 209 262 306
#     4  10  21  34  50  73 102 133 170 211 248 291
#     4   9  19  33  48  68 100 138 171 204 245 294
#     4  10  17  29  52  77  99 131 171 208 251 290
#
# _framework density 15.822597999999999
#
# number of rings (size 3 to 8) (size 9 to 14) (size 15 to 20)
#    0.000    2.250    3.750    1.500    1.750    1.750 
#    0.000    3.750    0.000    1.125    0.000    2.625 
#    0.000    6.000    0.000    0.000    0.000    0.000 
#
# Total GULP energy -356597.656755 kJ/mol
# GULP energy per Si atom -5571.838387 kJ/mol
# Density = 1.578658 g / cm^3
# Si number density = 15.822598 Si / 1000 Ang^3
#
#
#
# Elastic Constant Matrix: (Units=GPa)
#
#
# Indices 1 2 3 4 5 6 
#
# 1 69.6688 66.9233 31.7375 0.0000 0.0000 0.0000
# 2 66.9233 122.5743 39.5092 0.0000 0.0000 0.0000
# 3 31.7375 39.5092 67.1435 0.0000 0.0000 0.0000
# 4 0.0000 0.0000 0.0000 13.1321 0.0000 0.0000
# 5 0.0000 0.0000 0.0000 0.0000 15.9402 0.0000
# 6 0.0000 0.0000 0.0000 0.0000 0.0000 10.4292
#
#
#
# Elastic Compliance Matrix: (Units=1/GPa)
#
#
# Indices 1 2 3 4 5 6 
#
# 1 0.032020 -0.015554 -0.005983 0.000000 0.000000 0.000000
# 2 -0.015554 0.017623 -0.003018 0.000000 0.000000 0.000000
# 3 -0.005983 -0.003018 0.019497 0.000000 0.000000 0.000000
# 4 0.000000 0.000000 0.000000 0.076149 0.000000 0.000000
# 5 0.000000 0.000000 0.000000 0.000000 0.062734 0.000000
# 6 0.000000 0.000000 0.000000 0.000000 0.000000 0.095885
#
#
# Mechanical properties :
#
#
# Convention : Reuss Voigt Hill
#
# Bulk Modulus (GPa) = 49.92246 59.52516 54.72381
# Shear Modulus (GPa) = 13.90065 15.98142 14.94103
#
# Velocity S-wave (km/s) = 2.96722 3.18156 3.07626
# Velocity P-wave (km/s) = 6.58476 7.15531 6.87595
#
# Compressibility (1/GPa) = 0.02003106
#
# Stress axis : x y z
#
# Youngs Moduli (GPa) = 31.23044 56.74329 51.28894
#
# Poissons Ratio (x) = 0.88258 0.30686
# Poissons Ratio (y) = 0.48575 0.15479
# Poissons Ratio (z) = 0.18685 0.17125
#
# Static dielectric constant tensor:
#      x y z
#    x 1.495840 0.000000 0.000000 
#    y 0.000000 1.565670 0.000000 
#    z 0.000000 0.000000 1.530780 
# 
# From -- ./inp_files/53410.got.cif
#   From: 2010.05.17/outbox.cif.g08.bks.cpg/sg74_27_cif.got.tgz:53410.got - 2010.06.03 17:57:02.
