data_PCOD9534987
_publ_section_title
;
Structure prediction by ZEFSAII (Michael W. Deem and Ramdas Pophale) SiO2 
 PCOD9534987
Probable space group: I M M A
;
_chemical_formula_sum "Si O2"
_cell_formula_units_Z 100
_cell_length_a 9.263354
_cell_length_b 21.274613
_cell_length_c 27.165401
_cell_angle_alpha 90.000000
_cell_angle_beta 90.000000
_cell_angle_gamma 90.000000
_cell_volume 5353.601610
_symmetry_space_group_name_H-M "I M M A"
_symmetry_group_IT_number 74
_symmetry_cell_setting 'orthorhombic'
loop_
_space_group_symop_operation_xyz
x,y,z
-x,1/2-y,z
x,-y,-z
-x,1/2+y,-z
-x,-y,-z
x,1/2+y,-z
-x,y,z
x,1/2-y,z
1/2+x,1/2+y,1/2+z
1/2-x,-y,1/2+z
1/2+x,1/2-y,1/2-z
1/2-x,y,1/2-z
1/2-x,1/2-y,1/2-z
1/2+x,y,1/2-z
1/2-x,1/2+y,1/2+z
1/2+x,-y,1/2+z
loop_
_atom_site_type_symbol
_atom_site_label
_atom_site_fract_x
_atom_site_fract_y
_atom_site_fract_z
Si Si1 0.824895 0.321079 0.444368
Si Si2 0.665963 0.529658 0.385618
Si Si3 0.328402 0.595481 0.854500
Si Si4 0.331695 0.629716 0.301075
Si Si5 0.750000 0.648950 0.750000
Si Si6 0.500000 0.250000 0.269508
Si Si7 0.328151 0.570459 0.021250
Si Si8 0.825692 0.750000 0.304452
O O1 0.772120 0.250000 0.453444
O O2 0.787808 0.345602 0.389612
O O3 0.780839 0.374706 0.483552
O O4 0.000000 0.319109 0.446592
O O5 0.500000 0.517231 0.399136
O O6 0.749021 0.465078 0.376028
O O7 0.669412 0.569838 0.335826
O O8 0.742249 0.569905 0.428047
O O9 0.500000 0.586280 0.859711
O O10 0.292834 0.608401 0.797794
O O11 0.500000 0.647924 0.292263
O O12 0.250000 0.616063 0.250000
O O13 0.242046 0.686543 0.326179
O O14 0.623055 0.694804 0.733498
O O15 0.500000 0.577795 0.029472
O O16 0.306411 0.500000 0.000000
O O17 0.750000 0.750000 0.250000
O O18 0.000000 0.750000 0.303334
#
# Coordination Sequence:
#
# PCOD9534987 Si02
#       8
#    16  16  16  16   8   4  16   8
#     4   9  19  36  63  92 118 152 202 254 300 365
#     4  11  25  40  60  87 121 160 201 251 309 362
#     4  11  23  40  62  89 123 167 211 255 306 364
#     4  10  21  38  58  84 118 155 195 243 297 360
#     4  11  24  40  62  92 126 175 206 254 304 363
#     4  10  24  42  60  86 128 174 212 250 306 360
#     4  10  19  39  64  88 116 153 199 246 302 366
#     4  10  18  32  58  86 112 148 190 235 289 350
#
# _framework density 18.679013999999999
#
# number of rings (size 3 to 8) (size 9 to 14) (size 15 to 20)
#    0.000    1.760    2.400    2.640    4.480    2.880 
#    1.440    0.000    0.000    0.960    0.000    0.000 
#    0.000    0.000    0.000    0.000    0.000    0.000 
#
# Total GULP energy -278342.837840 kJ/mol
# GULP energy per Si atom -5566.856757 kJ/mol
# Density = 1.863650 g / cm^3
# Si number density = 18.679014 Si / 1000 Ang^3
#
#
#
# Elastic Constant Matrix: (Units=GPa)
#
#
# Indices 1 2 3 4 5 6 
#
# 1 99.1814 36.5903 27.1326 0.0000 0.0000 0.0000
# 2 36.5903 115.7143 48.1142 0.0000 0.0000 0.0000
# 3 27.1326 48.1142 98.5948 0.0000 0.0000 0.0000
# 4 0.0000 0.0000 0.0000 1496.8147 0.0000 0.0000
# 5 0.0000 0.0000 0.0000 0.0000 30.5506 0.0000
# 6 0.0000 0.0000 0.0000 0.0000 0.0000 23.4334
#
#
#
# Elastic Compliance Matrix: (Units=1/GPa)
#
#
# Indices 1 2 3 4 5 6 
#
# 1 0.011655 -0.002950 -0.001767 0.000000 0.000000 0.000000
# 2 -0.002950 0.011589 -0.004843 0.000000 0.000000 0.000000
# 3 -0.001767 -0.004843 0.012992 0.000000 0.000000 0.000000
# 4 0.000000 0.000000 0.000000 0.000668 0.000000 0.000000
# 5 0.000000 0.000000 0.000000 0.000000 0.032733 0.000000
# 6 0.000000 0.000000 0.000000 0.000000 0.000000 0.042674
#
#
# Mechanical properties :
#
#
# Convention : Reuss Voigt Hill
#
# Bulk Modulus (GPa) = 58.43398 59.68494 59.05946
# Shear Modulus (GPa) = 36.45975 323.60331 180.03153
#
# Velocity S-wave (km/s) = 4.42284 13.17651 9.82807
# Velocity P-wave (km/s) = 7.57846 16.23318 12.66786
#
# Compressibility (1/GPa) = 0.01711333
#
# Stress axis : x y z
#
# Youngs Moduli (GPa) = 85.80362 86.29005 76.96760
#
# Poissons Ratio (x) = 0.25459 0.13604
# Poissons Ratio (y) = 0.25315 0.37279
# Poissons Ratio (z) = 0.15165 0.41794
#
# Static dielectric constant tensor:
#      x y z
#    x 1.640980 0.000000 0.000000 
#    y 0.000000 1.669980 0.000000 
#    z 0.000000 0.000000 1.656140 
# 
# From -- ./inp_files/64548.got.cif
#   From: 2010.05.17/outbox.cif.g08.bks.cpg/sg74_33_cif.got.tgz:64548.got - 2010.06.03 17:57:02.
