data_PCOD9534970
_publ_section_title
;
Structure prediction by ZEFSAII (Michael W. Deem and Ramdas Pophale) SiO2 
 PCOD9534970
Probable space group: I M M A
;
_chemical_formula_sum "Si O2"
_cell_formula_units_Z 116
_cell_length_a 15.124131
_cell_length_b 15.744057
_cell_length_c 22.924568
_cell_angle_alpha 90.000000
_cell_angle_beta 90.000000
_cell_angle_gamma 90.000000
_cell_volume 5458.687648
_symmetry_space_group_name_H-M "I M M A"
_symmetry_group_IT_number 74
_symmetry_cell_setting 'orthorhombic'
loop_
_space_group_symop_operation_xyz
x,y,z
-x,1/2-y,z
x,-y,-z
-x,1/2+y,-z
-x,-y,-z
x,1/2+y,-z
-x,y,z
x,1/2-y,z
1/2+x,1/2+y,1/2+z
1/2-x,-y,1/2+z
1/2+x,1/2-y,1/2-z
1/2-x,y,1/2-z
1/2-x,1/2-y,1/2-z
1/2+x,y,1/2-z
1/2-x,1/2+y,1/2+z
1/2+x,-y,1/2+z
loop_
_atom_site_type_symbol
_atom_site_label
_atom_site_fract_x
_atom_site_fract_y
_atom_site_fract_z
Si Si1 0.716516 0.917990 0.592904
Si Si2 0.157300 0.617271 0.781790
Si Si3 0.600695 0.153254 0.507253
Si Si4 0.601933 0.079975 0.727091
Si Si5 0.789021 0.619397 0.119357
Si Si6 0.500000 0.250000 0.258608
Si Si7 0.402544 0.049295 0.061580
Si Si8 0.403542 0.881589 0.137590
O O1 0.676413 0.872086 0.649189
O O2 0.655776 0.902625 0.537428
O O3 0.817512 0.894487 0.576549
O O4 0.717081 0.017857 0.608182
O O5 0.250000 0.634231 0.750000
O O6 0.131413 0.518607 0.771188
O O7 0.078063 0.676265 0.761182
O O8 0.500000 0.123870 0.512286
O O9 0.600854 0.250000 0.484683
O O10 0.647465 0.153114 0.569575
O O11 0.500000 0.084444 0.706296
O O12 0.666463 0.128181 0.682609
O O13 0.604623 0.114684 0.792666
O O14 0.689372 0.653948 0.114991
O O15 0.500000 0.090406 0.058425
O O16 0.406613 0.976984 0.111318
O O17 0.387885 0.000000 0.000000
O O18 0.500000 0.844572 0.122185
#
# Coordination Sequence:
#
# PCOD9534970 Si02
#       8
#    16  16  16  16  16   4  16  16
#     4  10  21  35  61  83 113 141 191 236 276 328
#     4  11  23  39  57  81 110 153 196 236 281 340
#     4  11  25  40  57  79 111 148 184 225 285 349
#     4  10  18  32  56  87 114 141 183 241 285 328
#     4  10  19  35  57  86 112 143 187 235 280 327
#     4  12  26  40  56  74 114 164 198 232 286 344
#     4   9  16  29  51  83 116 145 179 228 286 339
#     4   9  17  29  53  85 115 143 179 229 286 333
#
# _framework density 21.250527999999999
#
# number of rings (size 3 to 8) (size 9 to 14) (size 15 to 20)
#    0.000    1.931    0.690    5.586    1.931    1.655 
#    1.241    0.000    0.000    3.310    0.000    1.931 
#    0.000    0.000    0.000    0.000    0.000    0.000 
#
# Total GULP energy -323342.727178 kJ/mol
# GULP energy per Si atom -5574.874607 kJ/mol
# Density = 2.120216 g / cm^3
# Si number density = 21.250528 Si / 1000 Ang^3
#
#
#
# Elastic Constant Matrix: (Units=GPa)
#
#
# Indices 1 2 3 4 5 6 
#
# 1 199.5632 14.2680 22.1621 0.0000 0.0000 0.0000
# 2 14.2680 28.0110 -8.0860 0.0000 0.0000 0.0000
# 3 22.1621 -8.0860 71.0215 0.0000 0.0000 0.0000
# 4 0.0000 0.0000 0.0000 -20.3891 0.0000 0.0000
# 5 0.0000 0.0000 0.0000 0.0000 30.9265 0.0000
# 6 0.0000 0.0000 0.0000 0.0000 0.0000 27.3844
#
#
#
# Elastic Compliance Matrix: (Units=1/GPa)
#
#
# Indices 1 2 3 4 5 6 
#
# 1 0.005487 -0.003401 -0.002100 0.000000 0.000000 0.000000
# 2 -0.003401 0.039022 0.005504 0.000000 0.000000 0.000000
# 3 -0.002100 0.005504 0.015362 0.000000 0.000000 0.000000
# 4 0.000000 0.000000 0.000000 -0.049046 0.000000 0.000000
# 5 0.000000 0.000000 0.000000 0.000000 0.032335 0.000000
# 6 0.000000 0.000000 0.000000 0.000000 0.000000 0.036517
#
#
# Mechanical properties :
#
#
# Convention : Reuss Voigt Hill
#
# Bulk Modulus (GPa) = 16.70070 39.47598 28.08834
# Shear Modulus (GPa) = 50.18605 25.60115 37.89360
#
# Velocity S-wave (km/s) = 4.86494 3.47469 4.22736
# Velocity P-wave (km/s) = 6.27956 5.89192 6.08883
#
# Compressibility (1/GPa) = 0.05987773
#
# Stress axis : x y z
#
# Youngs Moduli (GPa) = 182.23991 25.62682 65.09552
#
# Poissons Ratio (x) = 0.08716 0.13667
# Poissons Ratio (y) = 0.61982 -0.35829
# Poissons Ratio (z) = 0.38262 -0.14105
#
# Static dielectric constant tensor:
#      x y z
#    x 1.789970 0.000000 0.000000 
#    y 0.000000 1.760990 0.000000 
#    z 0.000000 0.000000 1.754290 
# 
# From -- ./inp_files/60364.got.cif
#   From: 2010.05.17/outbox.cif.g08.bks.cpg/sg74_31_cif.got.tgz:60364.got - 2010.06.03 17:57:02.
