data_PCOD9534777
_publ_section_title
;
Structure prediction by ZEFSAII (Michael W. Deem and Ramdas Pophale) SiO2 
 PCOD9534777
Probable space group: I M M A
;
_chemical_formula_sum "Si O2"
_cell_formula_units_Z 72
_cell_length_a 16.707082
_cell_length_b 12.951473
_cell_length_c 20.253440
_cell_angle_alpha 90.000000
_cell_angle_beta 90.000000
_cell_angle_gamma 90.000000
_cell_volume 4382.466111
_symmetry_space_group_name_H-M "I M M A"
_symmetry_group_IT_number 74
_symmetry_cell_setting 'orthorhombic'
loop_
_space_group_symop_operation_xyz
x,y,z
-x,1/2-y,z
x,-y,-z
-x,1/2+y,-z
-x,-y,-z
x,1/2+y,-z
-x,y,z
x,1/2-y,z
1/2+x,1/2+y,1/2+z
1/2-x,-y,1/2+z
1/2+x,1/2-y,1/2-z
1/2-x,y,1/2-z
1/2-x,1/2-y,1/2-z
1/2+x,y,1/2-z
1/2-x,1/2+y,1/2+z
1/2+x,-y,1/2+z
loop_
_atom_site_type_symbol
_atom_site_label
_atom_site_fract_x
_atom_site_fract_y
_atom_site_fract_z
Si Si1 0.656854 0.871124 0.377085
Si Si2 0.500000 0.878183 0.468037
Si Si3 0.671215 0.445124 0.901257
Si Si4 0.906202 0.866384 0.532025
Si Si5 0.593035 0.374705 0.765947
O O1 0.679608 0.750000 0.372854
O O2 0.579842 0.879274 0.423830
O O3 0.733932 0.930415 0.403587
O O4 0.632334 0.906039 0.303497
O O5 0.500000 0.750000 0.495197
O O6 0.500000 0.000000 0.500000
O O7 0.643652 0.558714 0.921567
O O8 0.639787 0.415345 0.829295
O O9 0.627928 0.377401 0.957893
O O10 0.898926 0.750000 0.554379
O O11 0.000000 0.894631 0.532302
O O12 0.500000 0.406766 0.768173
O O13 0.594594 0.250000 0.767676
#
# Coordination Sequence:
#
# PCOD9534777 Si02
#       5
#    16   8  16  16  16
#     4  10  20  35  53  80 112 138 175 225 277 319
#     4  10  22  40  60  82 112 153 188 228 280 331
#     4  11  20  31  53  80 102 137 176 218 263 322
#     4  10  21  36  51  74 108 139 173 216 266 323
#     4  10  18  31  52  78 107 137 171 216 268 321
#
# _framework density 16.429106000000001
#
# number of rings (size 3 to 8) (size 9 to 14) (size 15 to 20)
#    0.000    1.778    1.111    5.333    3.111    3.556 
#    0.000    0.000    0.000    4.000    0.000    0.000 
#    0.000    0.000    0.000    0.000    0.000    0.000 
#
# Total GULP energy -200456.003738 kJ/mol
# GULP energy per Si atom -5568.222326 kJ/mol
# Density = 1.639171 g / cm^3
# Si number density = 16.429106 Si / 1000 Ang^3
#
#
#
# Elastic Constant Matrix: (Units=GPa)
#
#
# Indices 1 2 3 4 5 6 
#
# 1 145.7288 44.0643 38.9247 0.0000 0.0000 0.0000
# 2 44.0643 82.6155 22.6918 0.0000 0.0000 0.0000
# 3 38.9247 22.6918 61.0447 0.0000 0.0000 0.0000
# 4 0.0000 0.0000 0.0000 27.6439 0.0000 0.0000
# 5 0.0000 0.0000 0.0000 0.0000 25.7001 0.0000
# 6 0.0000 0.0000 0.0000 0.0000 0.0000 32.5163
#
#
#
# Elastic Compliance Matrix: (Units=1/GPa)
#
#
# Indices 1 2 3 4 5 6 
#
# 1 0.009166 -0.003657 -0.004485 0.000000 0.000000 0.000000
# 2 -0.003657 0.014940 -0.003222 0.000000 0.000000 0.000000
# 3 -0.004485 -0.003222 0.020439 0.000000 0.000000 0.000000
# 4 0.000000 0.000000 0.000000 0.036174 0.000000 0.000000
# 5 0.000000 0.000000 0.000000 0.000000 0.038910 0.000000
# 6 0.000000 0.000000 0.000000 0.000000 0.000000 0.030754
#
#
# Mechanical properties :
#
#
# Convention : Reuss Voigt Hill
#
# Bulk Modulus (GPa) = 45.83580 55.63898 50.73739
# Shear Modulus (GPa) = 27.71889 29.41928 28.56908
#
# Velocity S-wave (km/s) = 4.11199 4.23623 4.17457
# Velocity P-wave (km/s) = 7.10664 7.60705 7.36110
#
# Compressibility (1/GPa) = 0.02181701
#
# Stress axis : x y z
#
# Youngs Moduli (GPa) = 109.10146 66.93638 48.92614
#
# Poissons Ratio (x) = 0.24477 0.21944
# Poissons Ratio (y) = 0.39896 0.15762
# Poissons Ratio (z) = 0.48934 0.21565
#
# Static dielectric constant tensor:
#      x y z
#    x 1.546670 0.000000 0.000000 
#    y 0.000000 1.601780 0.000000 
#    z 0.000000 0.000000 1.537240 
# 
# From -- ./inp_files/42506.got.cif
#   From: 2010.05.17/outbox.cif.g08.bks.cpg/sg74_22_cif.got.tgz:42506.got - 2010.06.03 17:57:02.
