data_PCOD9534426
_publ_section_title
;
Structure prediction by ZEFSAII (Michael W. Deem and Ramdas Pophale) SiO2 
 PCOD9534426
Probable space group: I M M A
;
_chemical_formula_sum "Si O2"
_cell_formula_units_Z 80
_cell_length_a 11.267927
_cell_length_b 14.872669
_cell_length_c 26.597154
_cell_angle_alpha 90.000000
_cell_angle_beta 90.000000
_cell_angle_gamma 90.000000
_cell_volume 4457.261408
_symmetry_space_group_name_H-M "I M M A"
_symmetry_group_IT_number 74
_symmetry_cell_setting 'orthorhombic'
loop_
_space_group_symop_operation_xyz
x,y,z
-x,1/2-y,z
x,-y,-z
-x,1/2+y,-z
-x,-y,-z
x,1/2+y,-z
-x,y,z
x,1/2-y,z
1/2+x,1/2+y,1/2+z
1/2-x,-y,1/2+z
1/2+x,1/2-y,1/2-z
1/2-x,y,1/2-z
1/2-x,1/2-y,1/2-z
1/2+x,y,1/2-z
1/2-x,1/2+y,1/2+z
1/2+x,-y,1/2+z
loop_
_atom_site_type_symbol
_atom_site_label
_atom_site_fract_x
_atom_site_fract_y
_atom_site_fract_z
Si Si1 0.000000 0.036563 0.441691
Si Si2 0.000000 0.345511 0.569607
Si Si3 0.361779 0.355208 0.712566
Si Si4 0.361052 0.982092 0.383352
Si Si5 0.766122 0.651679 0.034036
Si Si6 0.738269 0.144869 0.079182
O O1 0.887255 0.096758 0.429651
O O2 0.000000 0.000000 0.500000
O O3 0.000000 0.945387 0.407754
O O4 0.877468 0.343625 0.538504
O O5 0.000000 0.250000 0.599355
O O6 0.500000 0.369411 0.731079
O O7 0.356804 0.250000 0.696845
O O8 0.250000 0.368445 0.750000
O O9 0.342247 0.421568 0.665834
O O10 0.500000 0.989620 0.391669
O O11 0.306430 0.927752 0.430277
O O12 0.306324 0.081343 0.382085
O O13 0.811061 0.750000 0.051175
O O14 0.799287 0.639299 0.976030
O O15 0.728214 0.250000 0.092020
#
# Coordination Sequence:
#
# PCOD9534426 Si02
#       6
#     8   8  16  16  16  16
#     4  12  17  31  52  71 103 148 191 233 280 319
#     4  10  18  29  48  73 104 140 184 231 280 323
#     4   9  19  39  64  88 114 142 176 226 293 362
#     4  11  22  36  54  77 108 148 187 227 276 332
#     4  10  19  32  49  76 111 147 186 228 273 328
#     4  11  22  34  50  75 111 154 195 234 270 316
#
# _framework density 17.948240999999999
#
# number of rings (size 3 to 8) (size 9 to 14) (size 15 to 20)
#    0.000    1.600    4.000    1.500    0.000    3.200 
#    3.600    2.000    0.000    0.600    0.000    0.000 
#    0.000    0.000    0.000    0.000    0.000    0.000 
#
# Total GULP energy -222804.408687 kJ/mol
# GULP energy per Si atom -5570.110217 kJ/mol
# Density = 1.790739 g / cm^3
# Si number density = 17.948241 Si / 1000 Ang^3
#
#
#
# Elastic Constant Matrix: (Units=GPa)
#
#
# Indices 1 2 3 4 5 6 
#
# 1 92.1192 60.8210 44.4286 0.0000 0.0000 0.0000
# 2 60.8210 175.9422 41.2819 0.0000 0.0000 0.0000
# 3 44.4286 41.2819 32.6603 0.0000 0.0000 0.0000
# 4 0.0000 0.0000 0.0000 22.5543 0.0000 0.0000
# 5 0.0000 0.0000 0.0000 0.0000 14.2083 0.0000
# 6 0.0000 0.0000 0.0000 0.0000 0.0000 38.8315
#
#
#
# Elastic Compliance Matrix: (Units=1/GPa)
#
#
# Indices 1 2 3 4 5 6 
#
# 1 0.031740 -0.001196 -0.041665 0.000000 0.000000 0.000000
# 2 -0.001196 0.008125 -0.008643 0.000000 0.000000 0.000000
# 3 -0.041665 -0.008643 0.098220 0.000000 0.000000 0.000000
# 4 0.000000 0.000000 0.000000 0.044337 0.000000 0.000000
# 5 0.000000 0.000000 0.000000 0.000000 0.070381 0.000000
# 6 0.000000 0.000000 0.000000 0.000000 0.000000 0.025752
#
#
# Mechanical properties :
#
#
# Convention : Reuss Voigt Hill
#
# Bulk Modulus (GPa) = 28.50811 65.97609 47.24210
# Shear Modulus (GPa) = 12.71438 25.39818 19.05628
#
# Velocity S-wave (km/s) = 2.66445 3.76583 3.26196
# Velocity P-wave (km/s) = 5.03823 7.46643 6.36912
#
# Compressibility (1/GPa) = 0.03507774
#
# Stress axis : x y z
#
# Youngs Moduli (GPa) = 31.50599 123.07630 10.18124
#
# Poissons Ratio (x) = 0.14722 0.42420
# Poissons Ratio (y) = 0.03769 0.08799
# Poissons Ratio (z) = 1.31269 1.06370
#
# Static dielectric constant tensor:
#      x y z
#    x 1.650730 0.000000 0.000000 
#    y 0.000000 1.672300 0.000000 
#    z 0.000000 0.000000 1.603250 
# 
# From -- ./inp_files/58546.got.cif
#   From: 2010.05.17/outbox.cif.g08.bks.cpg/sg74_30_cif.got.tgz:58546.got - 2010.06.03 17:57:02.
