data_PCOD9534419
_publ_section_title
;
Structure prediction by ZEFSAII (Michael W. Deem and Ramdas Pophale) SiO2 
 PCOD9534419
Probable space group: I M M A
;
_chemical_formula_sum "Si O2"
_cell_formula_units_Z 96
_cell_length_a 26.494723
_cell_length_b 14.092671
_cell_length_c 11.965259
_cell_angle_alpha 90.000000
_cell_angle_beta 90.000000
_cell_angle_gamma 90.000000
_cell_volume 4467.605330
_symmetry_space_group_name_H-M "I M M A"
_symmetry_group_IT_number 74
_symmetry_cell_setting 'orthorhombic'
loop_
_space_group_symop_operation_xyz
x,y,z
-x,1/2-y,z
x,-y,-z
-x,1/2+y,-z
-x,-y,-z
x,1/2+y,-z
-x,y,z
x,1/2-y,z
1/2+x,1/2+y,1/2+z
1/2-x,-y,1/2+z
1/2+x,1/2-y,1/2-z
1/2-x,y,1/2-z
1/2-x,1/2-y,1/2-z
1/2+x,y,1/2-z
1/2-x,1/2+y,1/2+z
1/2+x,-y,1/2+z
loop_
_atom_site_type_symbol
_atom_site_label
_atom_site_fract_x
_atom_site_fract_y
_atom_site_fract_z
Si Si1 0.941045 0.365854 0.264503
Si Si2 0.000000 0.865037 0.327922
Si Si3 0.395681 0.141452 0.460686
Si Si4 0.000000 0.096431 0.929694
Si Si5 0.193739 0.365591 0.624245
Si Si6 0.591919 0.634639 0.010327
Si Si7 0.693151 0.134136 0.618496
O O1 0.938790 0.250000 0.261428
O O2 0.921617 0.396269 0.385387
O O3 0.000000 0.388909 0.251994
O O4 0.909473 0.403641 0.158965
O O5 0.000000 0.905988 0.203736
O O6 0.048875 0.891767 0.400706
O O7 0.000000 0.750000 0.315742
O O8 0.380736 0.250000 0.436576
O O9 0.447798 0.143535 0.530187
O O10 0.350791 0.101541 0.536010
O O11 0.000000 0.000000 0.000000
O O12 0.193858 0.250000 0.624448
O O13 0.147002 0.396065 0.549524
O O14 0.249842 0.394648 0.586925
O O15 0.185256 0.395456 0.752852
O O16 0.591375 0.750000 0.008463
O O17 0.691752 0.250000 0.619716
#
# Coordination Sequence:
#
# PCOD9534419 Si02
#       7
#    16   8  16   8  16  16  16
#     4   9  15  25  41  64  92 123 157 191 225 268
#     4  10  18  29  48  71  96 129 166 199 234 290
#     4  10  18  31  50  67  89 126 164 188 224 291
#     4  12  24  33  44  68 100 119 149 198 247 286
#     4   8  13  22  36  60  98 126 143 188 242 273
#     4   9  15  24  42  69  98 125 156 195 238 277
#     4   8  14  24  40  63  91 123 154 185 229 279
#
# _framework density 21.488022000000001
#
# number of rings (size 3 to 8) (size 9 to 14) (size 15 to 20)
#    0.000    2.833    1.667    2.750    0.000    2.667 
#    0.000    0.833    0.000    7.000    0.000    0.000 
#   20.000    0.000    0.000    0.000    0.000    0.000 
#
# Total GULP energy -268064.324518 kJ/mol
# GULP energy per Si atom -5584.673427 kJ/mol
# Density = 2.143911 g / cm^3
# Si number density = 21.488022 Si / 1000 Ang^3
#
#
#
# Elastic Constant Matrix: (Units=GPa)
#
#
# Indices 1 2 3 4 5 6 
#
# 1 178.8911 20.1166 120.7978 0.0000 0.0000 0.0000
# 2 20.1166 63.8443 17.7045 0.0000 0.0000 0.0000
# 3 120.7978 17.7045 202.0436 0.0000 0.0000 0.0000
# 4 0.0000 0.0000 0.0000 1.5693 0.0000 0.0000
# 5 0.0000 0.0000 0.0000 0.0000 -18.4607 0.0000
# 6 0.0000 0.0000 0.0000 0.0000 0.0000 -14.0470
#
#
#
# Elastic Compliance Matrix: (Units=1/GPa)
#
#
# Indices 1 2 3 4 5 6 
#
# 1 0.009505 -0.001454 -0.005555 0.000000 0.000000 0.000000
# 2 -0.001454 0.016276 -0.000557 0.000000 0.000000 0.000000
# 3 -0.005555 -0.000557 0.008320 0.000000 0.000000 0.000000
# 4 0.000000 0.000000 0.000000 0.637215 0.000000 0.000000
# 5 0.000000 0.000000 0.000000 0.000000 -0.054169 0.000000
# 6 0.000000 0.000000 0.000000 0.000000 0.000000 -0.071190
#
#
# Mechanical properties :
#
#
# Convention : Reuss Voigt Hill
#
# Bulk Modulus (GPa) = 52.72172 84.66854 68.69513
# Shear Modulus (GPa) = 8.81195 12.88968 10.85082
#
# Velocity S-wave (km/s) = 2.02726 2.45185 2.24959
# Velocity P-wave (km/s) = 5.48346 6.89229 6.22784
#
# Compressibility (1/GPa) = 0.01896752
#
# Stress axis : x y z
#
# Youngs Moduli (GPa) = 105.21021 61.44126 120.19819
#
# Poissons Ratio (x) = 0.08936 0.66773
# Poissons Ratio (y) = 0.15301 0.06691
# Poissons Ratio (z) = 0.58447 0.03420
#
# Static dielectric constant tensor:
#      x y z
#    x 1.750460 0.000000 0.000000 
#    y 0.000000 1.821840 0.000000 
#    z 0.000000 0.000000 1.756400 
# 
# From -- ./inp_files/26452.got.cif
#   From: 2010.05.17/outbox.cif.g08.bks.cpg/sg74_14_cif.got.tgz:26452.got - 2010.06.03 17:57:02.
