data_PCOD9534424
_publ_section_title
;
Structure prediction by ZEFSAII (Michael W. Deem and Ramdas Pophale) SiO2 
 PCOD9534424
Probable space group: I M M A
;
_chemical_formula_sum "Si O2"
_cell_formula_units_Z 116
_cell_length_a 28.474316
_cell_length_b 7.923149
_cell_length_c 27.563318
_cell_angle_alpha 90.000000
_cell_angle_beta 90.000000
_cell_angle_gamma 90.000000
_cell_volume 6218.456766
_symmetry_space_group_name_H-M "I M M A"
_symmetry_group_IT_number 74
_symmetry_cell_setting 'orthorhombic'
loop_
_space_group_symop_operation_xyz
x,y,z
-x,1/2-y,z
x,-y,-z
-x,1/2+y,-z
-x,-y,-z
x,1/2+y,-z
-x,y,z
x,1/2-y,z
1/2+x,1/2+y,1/2+z
1/2-x,-y,1/2+z
1/2+x,1/2-y,1/2-z
1/2-x,y,1/2-z
1/2-x,1/2-y,1/2-z
1/2+x,y,1/2-z
1/2-x,1/2+y,1/2+z
1/2+x,-y,1/2+z
loop_
_atom_site_type_symbol
_atom_site_label
_atom_site_fract_x
_atom_site_fract_y
_atom_site_fract_z
Si Si1 0.707283 0.447755 0.812499
Si Si2 0.082119 0.951591 0.428274
Si Si3 0.310662 0.455489 0.341267
Si Si4 0.814364 0.950826 0.425043
Si Si5 0.371741 0.444437 0.257700
Si Si6 0.788805 0.555377 0.947359
Si Si7 0.445467 0.045086 0.180260
Si Si8 0.000000 0.000000 0.500000
O O1 0.702754 0.250000 0.800676
O O2 0.761898 0.494797 0.815199
O O3 0.688493 0.475700 0.867061
O O4 0.674662 0.548778 0.775985
O O5 0.078508 0.750000 0.437569
O O6 0.134524 0.011706 0.441266
O O7 0.073255 0.979587 0.371260
O O8 0.041197 0.033740 0.459330
O O9 0.311793 0.250000 0.341816
O O10 0.354216 0.517790 0.308902
O O11 0.307423 0.522091 0.396664
O O12 0.811308 0.750000 0.434227
O O13 0.767708 0.033150 0.446100
O O14 0.384861 0.250000 0.266840
O O15 0.413167 0.518761 0.224624
O O16 0.800027 0.750000 0.943761
O O17 0.806117 0.500000 0.000000
O O18 0.500000 0.998882 0.185819
O O19 0.442188 0.250000 0.178830
#
# Coordination Sequence:
#
# PCOD9534424 Si02
#       8
#    16  16  16  16  16  16  16   4
#     4  10  18  29  48  73 100 126 157 199 241 284
#     4  11  23  40  56  69  91 123 162 211 262 305
#     4   9  19  33  48  69  99 132 163 191 232 294
#     4   9  19  34  50  70  93 123 161 200 242 292
#     4  10  19  32  50  71  98 131 160 193 241 297
#     4  10  20  34  51  71  95 127 161 196 236 282
#     4  10  21  36  55  76  97 123 161 206 252 299
#     4  12  26  36  52  74  86 120 168 218 260 292
#
# _framework density 18.654146999999998
#
# number of rings (size 3 to 8) (size 9 to 14) (size 15 to 20)
#    0.000    2.069    2.069    1.448    0.966    4.966 
#    0.000    0.000    0.000    0.000    0.000    0.000 
#    0.000    0.552    0.000    0.414    0.000    0.828 
#
# Total GULP energy -323163.314114 kJ/mol
# GULP energy per Si atom -5571.781278 kJ/mol
# Density = 1.861169 g / cm^3
# Si number density = 18.654147 Si / 1000 Ang^3
#
#
#
# Elastic Constant Matrix: (Units=GPa)
#
#
# Indices 1 2 3 4 5 6 
#
# 1 65.0726 -3.7969 50.8773 0.0000 0.0000 0.0000
# 2 -3.7969 15.2346 5.5336 0.0000 0.0000 0.0000
# 3 50.8773 5.5336 99.1072 0.0000 0.0000 0.0000
# 4 0.0000 0.0000 0.0000 12.5876 0.0000 0.0000
# 5 0.0000 0.0000 0.0000 0.0000 48.0066 0.0000
# 6 0.0000 0.0000 0.0000 0.0000 0.0000 7.1515
#
#
#
# Elastic Compliance Matrix: (Units=1/GPa)
#
#
# Indices 1 2 3 4 5 6 
#
# 1 0.027776 0.012352 -0.014949 0.000000 0.000000 0.000000
# 2 0.012352 0.072492 -0.010389 0.000000 0.000000 0.000000
# 3 -0.014949 -0.010389 0.018344 0.000000 0.000000 0.000000
# 4 0.000000 0.000000 0.000000 0.079443 0.000000 0.000000
# 5 0.000000 0.000000 0.000000 0.000000 0.020830 0.000000
# 6 0.000000 0.000000 0.000000 0.000000 0.000000 0.139830
#
#
# Mechanical properties :
#
#
# Convention : Reuss Voigt Hill
#
# Bulk Modulus (GPa) = 10.79427 31.62691 21.21059
# Shear Modulus (GPa) = 12.03178 22.00251 17.01715
#
# Velocity S-wave (km/s) = 2.54243 3.43811 3.02362
# Velocity P-wave (km/s) = 3.79706 5.72293 4.85642
#
# Compressibility (1/GPa) = 0.09264176
#
# Stress axis : x y z
#
# Youngs Moduli (GPa) = 36.00258 13.79466 54.51356
#
# Poissons Ratio (x) = -0.17039 0.81490
# Poissons Ratio (y) = -0.44471 0.56632
# Poissons Ratio (z) = 0.53819 0.14331
#
# Static dielectric constant tensor:
#      x y z
#    x 1.633500 0.000000 0.000000 
#    y 0.000000 1.684590 0.000000 
#    z 0.000000 0.000000 1.706870 
# 
# From -- ./inp_files/69236.got.cif
#   From: 2010.05.17/outbox.cif.g08.bks.cpg/sg74_35_cif.got.tgz:69236.got - 2010.06.03 17:57:02.
