data_PCOD9534332
_publ_section_title
;
Structure prediction by ZEFSAII (Michael W. Deem and Ramdas Pophale) SiO2 
 PCOD9534332
Probable space group: I M M A
;
_chemical_formula_sum "Si O2"
_cell_formula_units_Z 80
_cell_length_a 8.784454
_cell_length_b 25.682421
_cell_length_c 21.050986
_cell_angle_alpha 90.000000
_cell_angle_beta 90.000000
_cell_angle_gamma 90.000000
_cell_volume 4749.229713
_symmetry_space_group_name_H-M "I M M A"
_symmetry_group_IT_number 74
_symmetry_cell_setting 'orthorhombic'
loop_
_space_group_symop_operation_xyz
x,y,z
-x,1/2-y,z
x,-y,-z
-x,1/2+y,-z
-x,-y,-z
x,1/2+y,-z
-x,y,z
x,1/2-y,z
1/2+x,1/2+y,1/2+z
1/2-x,-y,1/2+z
1/2+x,1/2-y,1/2-z
1/2-x,y,1/2-z
1/2-x,1/2-y,1/2-z
1/2+x,y,1/2-z
1/2-x,1/2+y,1/2+z
1/2+x,-y,1/2+z
loop_
_atom_site_type_symbol
_atom_site_label
_atom_site_fract_x
_atom_site_fract_y
_atom_site_fract_z
Si Si1 0.682370 0.750000 0.000573
Si Si2 0.817793 0.640438 0.361205
Si Si3 0.816988 0.967243 0.939038
Si Si4 0.182891 0.967642 0.183751
Si Si5 0.319710 0.863725 0.987413
Si Si6 0.819955 0.250000 0.859506
O O1 0.500000 0.750000 0.017983
O O2 0.713019 0.695563 0.966320
O O3 0.777918 0.750000 0.065385
O O4 0.744513 0.590576 0.328211
O O5 0.782250 0.634773 0.436987
O O6 0.752883 0.695606 0.336729
O O7 0.000000 0.640305 0.354360
O O8 0.764283 0.908410 0.949193
O O9 0.000000 0.968543 0.939738
O O10 0.767147 0.995915 0.874878
O O11 0.761013 0.000000 0.000000
O O12 0.250000 0.986926 0.250000
O O13 0.000000 0.966383 0.185793
O O14 0.500000 0.872569 0.982212
O O15 0.000000 0.250000 0.849435
#
# Coordination Sequence:
#
# PCOD9534332 Si02
#       6
#     8  16  16  16  16   8
#     4   8  16  30  44  71 108 137 166 209 259 305
#     4  10  19  33  51  73 102 136 174 216 258 304
#     4  10  20  34  52  76 106 134 169 216 259 303
#     4  11  23  38  54  74 103 138 173 214 261 310
#     4   9  17  29  50  76 104 135 170 209 252 304
#     4  10  18  28  47  73 100 135 175 215 257 301
#
# _framework density 16.844836999999998
#
# number of rings (size 3 to 8) (size 9 to 14) (size 15 to 20)
#    0.000    2.200    2.000    3.300    0.000    5.200 
#    0.000    0.500    0.000    0.000    0.000    0.700 
#    0.000    0.000    0.000    0.000    0.000    0.000 
#
# Total GULP energy -223120.540558 kJ/mol
# GULP energy per Si atom -5578.013514 kJ/mol
# Density = 1.680650 g / cm^3
# Si number density = 16.844837 Si / 1000 Ang^3
#
#
#
# Elastic Constant Matrix: (Units=GPa)
#
#
# Indices 1 2 3 4 5 6 
#
# 1 42.0429 29.5347 31.6659 0.0000 0.0000 0.0000
# 2 29.5347 111.5584 55.8678 0.0000 0.0000 0.0000
# 3 31.6659 55.8678 91.3252 0.0000 0.0000 -0.0001
# 4 0.0000 0.0000 0.0000 10.6467 0.0000 -0.0001
# 5 0.0000 0.0000 0.0000 0.0000 20.2239 0.0000
# 6 0.0000 0.0000 -0.0001 -0.0001 0.0000 78.8220
#
#
#
# Elastic Compliance Matrix: (Units=1/GPa)
#
#
# Indices 1 2 3 4 5 6 
#
# 1 0.033638 -0.004418 -0.008961 0.000000 0.000000 0.000000
# 2 -0.004418 0.013503 -0.006729 0.000000 0.000000 0.000000
# 3 -0.008961 -0.006729 0.018173 0.000000 0.000000 0.000000
# 4 0.000000 0.000000 0.000000 0.093926 0.000000 0.000000
# 5 0.000000 0.000000 0.000000 0.000000 0.049446 0.000000
# 6 0.000000 0.000000 0.000000 0.000000 0.000000 0.012687
#
#
# Mechanical properties :
#
#
# Convention : Reuss Voigt Hill
#
# Bulk Modulus (GPa) = 39.84162 53.22923 46.53543
# Shear Modulus (GPa) = 18.52159 30.46237 24.49198
#
# Velocity S-wave (km/s) = 3.31953 4.25715 3.81724
# Velocity P-wave (km/s) = 6.19644 7.47214 6.86399
#
# Compressibility (1/GPa) = 0.02509938
#
# Stress axis : x y z
#
# Youngs Moduli (GPa) = 29.72829 74.05628 55.02611
#
# Poissons Ratio (x) = 0.32718 0.49308
# Poissons Ratio (y) = 0.13134 0.37025
# Poissons Ratio (z) = 0.26639 0.49830
#
# Static dielectric constant tensor:
#      x y z
#    x 1.566070 0.000000 0.000000 
#    y 0.000000 1.585100 0.000000 
#    z 0.000000 0.000000 1.571500 
# 
# From -- ./inp_files/39796.got.cif
#   From: 2010.05.17/outbox.cif.g08.bks.cpg/sg74_20_cif.got.tgz:39796.got - 2010.06.03 17:57:02.
