data_PCOD9534789
_publ_section_title
;
Structure prediction by ZEFSAII (Michael W. Deem and Ramdas Pophale) SiO2 
 PCOD9534789
Probable space group: I M M A
;
_chemical_formula_sum "Si O2"
_cell_formula_units_Z 80
_cell_length_a 19.669238
_cell_length_b 18.479781
_cell_length_c 13.503852
_cell_angle_alpha 90.000000
_cell_angle_beta 90.000000
_cell_angle_gamma 90.000000
_cell_volume 4908.423481
_symmetry_space_group_name_H-M "I M M A"
_symmetry_group_IT_number 74
_symmetry_cell_setting 'orthorhombic'
loop_
_space_group_symop_operation_xyz
x,y,z
-x,1/2-y,z
x,-y,-z
-x,1/2+y,-z
-x,-y,-z
x,1/2+y,-z
-x,y,z
x,1/2-y,z
1/2+x,1/2+y,1/2+z
1/2-x,-y,1/2+z
1/2+x,1/2-y,1/2-z
1/2-x,y,1/2-z
1/2-x,1/2-y,1/2-z
1/2+x,y,1/2-z
1/2-x,1/2+y,1/2+z
1/2+x,-y,1/2+z
loop_
_atom_site_type_symbol
_atom_site_label
_atom_site_fract_x
_atom_site_fract_y
_atom_site_fract_z
Si Si1 0.821027 0.827942 0.192091
Si Si2 0.198228 0.983239 0.111690
Si Si3 0.850211 0.972043 0.678049
Si Si4 0.418405 0.833587 0.914687
Si Si5 0.920318 0.619582 0.362032
O O1 0.832804 0.750000 0.143561
O O2 0.750000 0.825300 0.250000
O O3 0.877891 0.843421 0.274678
O O4 0.813129 0.897583 0.124098
O O5 0.157715 0.019672 0.203113
O O6 0.276565 0.006829 0.131960
O O7 0.178575 0.000000 0.000000
O O8 0.876863 0.893888 0.645511
O O9 0.900675 0.034810 0.640037
O O10 0.500000 0.844211 0.901458
O O11 0.402612 0.750000 0.889817
O O12 0.403319 0.847419 0.030877
O O13 0.000000 0.629095 0.345524
#
# Coordination Sequence:
#
# PCOD9534789 Si02
#       5
#    16  16  16  16  16
#     4  10  19  33  51  76 104 136 168 206 262 306
#     4  10  19  35  52  74 101 134 176 213 248 303
#     4  10  19  33  51  75 100 137 169 208 256 304
#     4  10  20  32  49  76 107 136 163 202 258 312
#     4  10  18  31  53  80 106 132 168 211 256 310
#
# _framework density 16.298511999999999
#
# number of rings (size 3 to 8) (size 9 to 14) (size 15 to 20)
#    0.000    2.000    4.000    3.000    0.000    2.800 
#    0.000    3.000    0.000   15.000    0.000    0.000 
#    0.000    0.000    0.000    0.000    0.000    0.000 
#
# Total GULP energy -222980.894053 kJ/mol
# GULP energy per Si atom -5574.522351 kJ/mol
# Density = 1.626142 g / cm^3
# Si number density = 16.298512 Si / 1000 Ang^3
#
#
#
# Elastic Constant Matrix: (Units=GPa)
#
#
# Indices 1 2 3 4 5 6 
#
# 1 52.2901 43.1151 25.0019 0.0000 0.0000 0.0000
# 2 43.1151 172.9393 68.2029 0.0000 0.0000 0.0000
# 3 25.0019 68.2029 79.8333 0.0000 0.0000 0.0000
# 4 0.0000 0.0000 0.0000 21.3720 0.0000 0.0000
# 5 0.0000 0.0000 0.0000 0.0000 11.8313 0.0000
# 6 0.0000 0.0000 0.0000 0.0000 0.0000 28.9374
#
#
#
# Elastic Compliance Matrix: (Units=1/GPa)
#
#
# Indices 1 2 3 4 5 6 
#
# 1 0.024794 -0.004704 -0.003746 0.000000 0.000000 0.000000
# 2 -0.004704 0.009613 -0.006739 0.000000 0.000000 0.000000
# 3 -0.003746 -0.006739 0.019457 0.000000 0.000000 0.000000
# 4 0.000000 0.000000 0.000000 0.046790 0.000000 0.000000
# 5 0.000000 0.000000 0.000000 0.000000 0.084522 0.000000
# 6 0.000000 0.000000 0.000000 0.000000 0.000000 0.034557
#
#
# Mechanical properties :
#
#
# Convention : Reuss Voigt Hill
#
# Bulk Modulus (GPa) = 42.58095 64.18919 53.38507
# Shear Modulus (GPa) = 19.38436 23.67766 21.53101
#
# Velocity S-wave (km/s) = 3.45241 3.81563 3.63856
# Velocity P-wave (km/s) = 6.48649 7.67340 7.10477
#
# Compressibility (1/GPa) = 0.02348468
#
# Stress axis : x y z
#
# Youngs Moduli (GPa) = 40.33264 104.02688 51.39578
#
# Poissons Ratio (x) = 0.48933 0.19254
# Poissons Ratio (y) = 0.18972 0.34637
# Poissons Ratio (z) = 0.15110 0.70107
#
# Static dielectric constant tensor:
#      x y z
#    x 1.543490 0.000000 0.000000 
#    y 0.000000 1.587820 0.000000 
#    z 0.000000 0.000000 1.532630 
# 
# From -- ./inp_files/33959.got.cif
#   From: 2010.05.17/outbox.cif.g08.bks.cpg/sg74_17_cif.got.tgz:33959.got - 2010.06.03 17:57:02.
