data_PCOD9534318
_publ_section_title
;
Structure prediction by ZEFSAII (Michael W. Deem and Ramdas Pophale) SiO2 
 PCOD9534318
Probable space group: I M M A
;
_chemical_formula_sum "Si O2"
_cell_formula_units_Z 112
_cell_length_a 14.187919
_cell_length_b 15.442556
_cell_length_c 25.931723
_cell_angle_alpha 90.000000
_cell_angle_beta 90.000000
_cell_angle_gamma 90.000000
_cell_volume 5681.581740
_symmetry_space_group_name_H-M "I M M A"
_symmetry_group_IT_number 74
_symmetry_cell_setting 'orthorhombic'
loop_
_space_group_symop_operation_xyz
x,y,z
-x,1/2-y,z
x,-y,-z
-x,1/2+y,-z
-x,-y,-z
x,1/2+y,-z
-x,y,z
x,1/2-y,z
1/2+x,1/2+y,1/2+z
1/2-x,-y,1/2+z
1/2+x,1/2-y,1/2-z
1/2-x,y,1/2-z
1/2-x,1/2-y,1/2-z
1/2+x,y,1/2-z
1/2-x,1/2+y,1/2+z
1/2+x,-y,1/2+z
loop_
_atom_site_type_symbol
_atom_site_label
_atom_site_fract_x
_atom_site_fract_y
_atom_site_fract_z
Si Si1 0.388107 0.647534 0.866196
Si Si2 0.614440 0.470032 0.231560
Si Si3 0.387301 0.844882 0.677491
Si Si4 0.886109 0.153383 0.766642
Si Si5 0.105503 0.849917 0.006625
Si Si6 0.889672 0.085872 0.880530
Si Si7 0.283696 0.417821 0.416463
O O1 0.500000 0.638466 0.874214
O O2 0.369228 0.750000 0.858838
O O3 0.359978 0.590230 0.816476
O O4 0.325008 0.607222 0.911300
O O5 0.500000 0.471229 0.232078
O O6 0.643280 0.420447 0.283673
O O7 0.646279 0.569952 0.233569
O O8 0.500000 0.851757 0.670651
O O9 0.368146 0.750000 0.700619
O O10 0.337705 0.853155 0.622691
O O11 0.853814 0.250000 0.752314
O O12 0.866702 0.132691 0.826906
O O13 0.000000 0.154590 0.762450
O O14 0.114636 0.750000 0.991511
O O15 0.113777 0.856235 0.068182
O O16 0.000000 0.880769 0.992985
O O17 0.178229 0.904881 0.973725
O O18 0.000000 0.054800 0.875859
O O19 0.817765 0.009185 0.893709
#
# Coordination Sequence:
#
# PCOD9534318 Si02
#       7
#    16  16  16  16  16  16  16
#     4  10  22  39  56  74 101 140 185 232 281 326
#     4   9  17  32  51  73 103 140 181 221 263 315
#     4  10  18  28  45  72 107 140 168 205 256 317
#     4   9  16  29  52  79 108 145 183 216 255 310
#     4  10  20  33  52  81 115 149 181 212 254 317
#     4  10  19  33  52  79 115 150 177 206 257 325
#     4  12  21  32  51  77 108 140 182 221 266 318
#
# _framework density 19.712820000000001
#
# number of rings (size 3 to 8) (size 9 to 14) (size 15 to 20)
#    0.000    2.000    1.429    3.857    0.000    6.286 
#    0.000    1.429    0.000    4.286    0.000    0.000 
#    0.000    0.000    0.000    0.000    0.000    0.000 
#
# Total GULP energy -312618.135871 kJ/mol
# GULP energy per Si atom -5582.466712 kJ/mol
# Density = 1.966795 g / cm^3
# Si number density = 19.712820 Si / 1000 Ang^3
#
#
#
# Elastic Constant Matrix: (Units=GPa)
#
#
# Indices 1 2 3 4 5 6 
#
# 1 77.1017 24.7569 13.4117 0.0000 0.0000 0.0000
# 2 24.7569 125.4331 12.6368 0.0000 0.0000 0.0000
# 3 13.4117 12.6368 43.9708 0.0000 0.0000 0.0000
# 4 0.0000 0.0000 0.0000 14.0255 0.0000 0.0000
# 5 0.0000 0.0000 0.0000 0.0000 7.2873 0.0000
# 6 0.0000 0.0000 0.0000 0.0000 0.0000 8.2263
#
#
#
# Elastic Compliance Matrix: (Units=1/GPa)
#
#
# Indices 1 2 3 4 5 6 
#
# 1 0.014404 -0.002472 -0.003683 0.000000 0.000000 0.000000
# 2 -0.002472 0.008634 -0.001727 0.000000 0.000000 0.000000
# 3 -0.003683 -0.001727 0.024362 0.000000 0.000000 0.000000
# 4 0.000000 0.000000 0.000000 0.071299 0.000000 0.000000
# 5 0.000000 0.000000 0.000000 0.000000 0.137225 0.000000
# 6 0.000000 0.000000 0.000000 0.000000 0.000000 0.121562
#
#
# Mechanical properties :
#
#
# Convention : Reuss Voigt Hill
#
# Bulk Modulus (GPa) = 31.60974 38.67962 35.14468
# Shear Modulus (GPa) = 12.38246 18.95449 15.66847
#
# Velocity S-wave (km/s) = 2.50900 3.10422 2.82234
# Velocity P-wave (km/s) = 4.94604 5.70196 5.33740
#
# Compressibility (1/GPa) = 0.03163581
#
# Stress axis : x y z
#
# Youngs Moduli (GPa) = 69.42383 115.81715 41.04720
#
# Poissons Ratio (x) = 0.28629 0.15118
# Poissons Ratio (y) = 0.17161 0.07091
# Poissons Ratio (z) = 0.25569 0.20007
#
# Static dielectric constant tensor:
#      x y z
#    x 1.733940 0.000000 0.000000 
#    y 0.000000 1.734560 0.000000 
#    z 0.000000 0.000000 1.676530 
# 
# From -- ./inp_files/72673.got.cif
#   From: 2010.05.17/outbox.cif.g08.bks.cpg/sg74_37_cif.got.tgz:72673.got - 2010.06.03 17:57:02.
