data_PCOD9534625
_publ_section_title
;
Structure prediction by ZEFSAII (Michael W. Deem and Ramdas Pophale) SiO2 
 PCOD9534625
Probable space group: I M M A
;
_chemical_formula_sum "Si O2"
_cell_formula_units_Z 104
_cell_length_a 28.344062
_cell_length_b 9.886990
_cell_length_c 21.918007
_cell_angle_alpha 90.000000
_cell_angle_beta 90.000000
_cell_angle_gamma 90.000000
_cell_volume 6142.246556
_symmetry_space_group_name_H-M "I M M A"
_symmetry_group_IT_number 74
_symmetry_cell_setting 'orthorhombic'
loop_
_space_group_symop_operation_xyz
x,y,z
-x,1/2-y,z
x,-y,-z
-x,1/2+y,-z
-x,-y,-z
x,1/2+y,-z
-x,y,z
x,1/2-y,z
1/2+x,1/2+y,1/2+z
1/2-x,-y,1/2+z
1/2+x,1/2-y,1/2-z
1/2-x,y,1/2-z
1/2-x,1/2-y,1/2-z
1/2+x,y,1/2-z
1/2-x,1/2+y,1/2+z
1/2+x,-y,1/2+z
loop_
_atom_site_type_symbol
_atom_site_label
_atom_site_fract_x
_atom_site_fract_y
_atom_site_fract_z
Si Si1 0.804695 0.406939 0.806119
Si Si2 0.782708 0.500000 0.000000
Si Si3 0.848697 0.589949 0.701812
Si Si4 0.948204 0.913314 0.749118
Si Si5 0.553699 0.911179 0.606603
Si Si6 0.867373 0.104350 0.923810
Si Si7 0.266035 0.594763 0.879815
O O1 0.793744 0.250000 0.792277
O O2 0.820894 0.495769 0.749133
O O3 0.846869 0.405267 0.855413
O O4 0.762653 0.487384 0.839265
O O5 0.820409 0.593867 0.035215
O O6 0.750258 0.430631 0.050987
O O7 0.845750 0.750000 0.719594
O O8 0.903322 0.547861 0.708387
O O9 0.821035 0.578723 0.637764
O O10 0.950238 0.750000 0.746732
O O11 0.941307 0.945530 0.820975
O O12 0.000000 0.965307 0.730522
O O13 0.500000 0.946966 0.588757
O O14 0.559060 0.750000 0.601072
O O15 0.594513 0.986862 0.570234
O O16 0.890188 0.250000 0.933641
O O17 0.252838 0.750000 0.863510
#
# Coordination Sequence:
#
# PCOD9534625 Si02
#       7
#    16   8  16  16  16  16  16
#     4  10  20  32  47  72 105 135 161 196 248 299
#     4  10  22  38  51  66  93 128 168 212 254 290
#     4  10  18  30  51  77 101 128 164 201 240 291
#     4   8  14  26  46  74 105 131 155 189 237 291
#     4   9  17  30  50  74  98 127 160 196 243 292
#     4  10  20  33  50  70  93 127 168 206 244 287
#     4  10  21  35  52  72  95 127 169 211 245 289
#
# _framework density 16.931916000000001
#
# number of rings (size 3 to 8) (size 9 to 14) (size 15 to 20)
#    0.000    2.462    1.538    2.308    0.000    6.462 
#    0.000    0.385    0.000    0.462    0.000    0.538 
#    0.000    0.000    0.000    0.000    0.000    0.000 
#
# Total GULP energy -289556.500533 kJ/mol
# GULP energy per Si atom -5568.394241 kJ/mol
# Density = 1.689338 g / cm^3
# Si number density = 16.931916 Si / 1000 Ang^3
#
#
#
# Elastic Constant Matrix: (Units=GPa)
#
#
# Indices 1 2 3 4 5 6 
#
# 1 119.4007 41.1470 58.3665 0.0000 0.0000 0.0000
# 2 41.1470 69.2896 25.9034 0.0000 0.0000 0.0000
# 3 58.3665 25.9034 59.8896 0.0000 0.0000 0.0000
# 4 0.0000 0.0000 0.0000 11.1722 0.0000 0.0000
# 5 0.0000 0.0000 0.0000 0.0000 20.7127 0.0000
# 6 0.0000 0.0000 0.0000 0.0000 0.0000 13.4715
#
#
#
# Elastic Compliance Matrix: (Units=1/GPa)
#
#
# Indices 1 2 3 4 5 6 
#
# 1 0.017192 -0.004707 -0.014719 0.000000 0.000000 0.000000
# 2 -0.004707 0.018505 -0.003416 0.000000 0.000000 0.000000
# 3 -0.014719 -0.003416 0.032520 0.000000 0.000000 0.000000
# 4 0.000000 0.000000 0.000000 0.089508 0.000000 0.000000
# 5 0.000000 0.000000 0.000000 0.000000 0.048280 0.000000
# 6 0.000000 0.000000 0.000000 0.000000 0.000000 0.074231
#
#
# Mechanical properties :
#
#
# Convention : Reuss Voigt Hill
#
# Bulk Modulus (GPa) = 44.38185 55.49041 49.93613
# Shear Modulus (GPa) = 14.99560 17.28215 16.13888
#
# Velocity S-wave (km/s) = 2.97920 3.19828 3.09068
# Velocity P-wave (km/s) = 6.17277 6.81781 6.50329
#
# Compressibility (1/GPa) = 0.02253173
#
# Stress axis : x y z
#
# Youngs Moduli (GPa) = 58.16502 54.04089 30.75021
#
# Poissons Ratio (x) = 0.25436 0.45263
# Poissons Ratio (y) = 0.27377 0.10506
# Poissons Ratio (z) = 0.85616 0.18463
#
# Static dielectric constant tensor:
#      x y z
#    x 1.598310 0.000000 0.000000 
#    y 0.000000 1.582040 0.000000 
#    z 0.000000 0.000000 1.586410 
# 
# From -- ./inp_files/62370.got.cif
#   From: 2010.05.17/outbox.cif.g08.bks.cpg/sg74_32_cif.got.tgz:62370.got - 2010.06.03 17:57:02.
