data_PCOD9534858
_publ_section_title
;
Structure prediction by ZEFSAII (Michael W. Deem and Ramdas Pophale) SiO2 
 PCOD9534858
Probable space group: I M M A
;
_chemical_formula_sum "Si O2"
_cell_formula_units_Z 88
_cell_length_a 20.731582
_cell_length_b 8.603562
_cell_length_c 30.826448
_cell_angle_alpha 90.000000
_cell_angle_beta 90.000000
_cell_angle_gamma 90.000000
_cell_volume 5498.373303
_symmetry_space_group_name_H-M "I M M A"
_symmetry_group_IT_number 74
_symmetry_cell_setting 'orthorhombic'
loop_
_space_group_symop_operation_xyz
x,y,z
-x,1/2-y,z
x,-y,-z
-x,1/2+y,-z
-x,-y,-z
x,1/2+y,-z
-x,y,z
x,1/2-y,z
1/2+x,1/2+y,1/2+z
1/2-x,-y,1/2+z
1/2+x,1/2-y,1/2-z
1/2-x,y,1/2-z
1/2-x,1/2-y,1/2-z
1/2+x,y,1/2-z
1/2-x,1/2+y,1/2+z
1/2+x,-y,1/2+z
loop_
_atom_site_type_symbol
_atom_site_label
_atom_site_fract_x
_atom_site_fract_y
_atom_site_fract_z
Si Si1 0.211443 0.938175 0.293558
Si Si2 0.643383 0.563868 0.451333
Si Si3 0.572777 0.932265 0.330026
Si Si4 0.299687 0.931681 0.631280
Si Si5 0.929983 0.434252 0.725470
Si Si6 0.000000 0.437196 0.950961
O O1 0.210315 0.750000 0.292117
O O2 0.250000 0.988865 0.250000
O O3 0.137612 0.996996 0.292257
O O4 0.248774 0.990188 0.336374
O O5 0.651872 0.500000 0.500000
O O6 0.645005 0.750000 0.452754
O O7 0.694703 0.502442 0.416795
O O8 0.571057 0.515071 0.434859
O O9 0.500000 0.971497 0.344522
O O10 0.584308 0.750000 0.341547
O O11 0.573540 0.942708 0.277782
O O12 0.630390 0.034231 0.347678
O O13 0.287330 0.750000 0.628822
O O14 0.931273 0.250000 0.714970
O O15 0.000000 0.500583 0.712108
O O16 0.000000 0.250000 0.950150
O O17 0.000000 0.500000 0.000000
#
# Coordination Sequence:
#
# PCOD9534858 Si02
#       6
#    16  16  16  16  16   8
#     4  10  18  32  52  71  95 129 168 205 246 291
#     4  10  20  36  53  70  92 122 162 204 250 292
#     4   9  17  31  49  67  90 124 168 210 246 288
#     4  12  24  33  45  69 100 132 165 202 248 295
#     4   8  14  27  49  72  92 120 162 208 247 286
#     4   8  16  30  50  70  88 116 154 200 246 288
#
# _framework density 16.004732000000001
#
# number of rings (size 3 to 8) (size 9 to 14) (size 15 to 20)
#    0.000    2.364    1.818    3.273    1.273    1.455 
#    0.000    0.000    0.000    0.545    0.000    0.000 
#    0.000    0.727    0.000    2.000    0.000    2.909 
#
# Total GULP energy -245261.250430 kJ/mol
# GULP energy per Si atom -5574.119328 kJ/mol
# Density = 1.596830 g / cm^3
# Si number density = 16.004732 Si / 1000 Ang^3
#
#
#
# Elastic Constant Matrix: (Units=GPa)
#
#
# Indices 1 2 3 4 5 6 
#
# 1 115.5929 21.7194 57.4045 0.0000 0.0000 0.0000
# 2 21.7194 19.8865 15.6196 0.0000 0.0000 0.0000
# 3 57.4045 15.6196 82.2115 0.0000 0.0000 0.0000
# 4 0.0000 0.0000 0.0000 19.9816 0.0000 0.0000
# 5 0.0000 0.0000 0.0000 0.0000 30.7296 0.0000
# 6 0.0000 0.0000 0.0000 0.0000 0.0000 9.2728
#
#
#
# Elastic Compliance Matrix: (Units=1/GPa)
#
#
# Indices 1 2 3 4 5 6 
#
# 1 0.014577 -0.009316 -0.008409 0.000000 0.000000 0.000000
# 2 -0.009316 0.065060 -0.005856 0.000000 0.000000 0.000000
# 3 -0.008409 -0.005856 0.019148 0.000000 0.000000 0.000000
# 4 0.000000 0.000000 0.000000 0.050046 0.000000 0.000000
# 5 0.000000 0.000000 0.000000 0.000000 0.032542 0.000000
# 6 0.000000 0.000000 0.000000 0.000000 0.000000 0.107842
#
#
# Mechanical properties :
#
#
# Convention : Reuss Voigt Hill
#
# Bulk Modulus (GPa) = 19.37110 45.24198 32.30654
# Shear Modulus (GPa) = 14.14091 20.19330 17.16711
#
# Velocity S-wave (km/s) = 2.97567 3.55591 3.27865
# Velocity P-wave (km/s) = 4.89242 6.72224 5.87896
#
# Compressibility (1/GPa) = 0.05162331
#
# Stress axis : x y z
#
# Youngs Moduli (GPa) = 68.59941 15.37047 52.22569
#
# Poissons Ratio (x) = 0.14320 0.43915
# Poissons Ratio (y) = 0.63910 0.30582
# Poissons Ratio (z) = 0.57683 0.09000
#
# Static dielectric constant tensor:
#      x y z
#    x 1.564230 0.000000 0.000000 
#    y 0.000000 1.537590 0.000000 
#    z 0.000000 0.000000 1.539980 
# 
# From -- ./inp_files/73287.got.cif
#   From: 2010.05.17/outbox.cif.g08.bks.cpg/sg74_37_cif.got.tgz:73287.got - 2010.06.03 17:57:02.
