data_PCOD9534132
_publ_section_title
;
Structure prediction by ZEFSAII (Michael W. Deem and Ramdas Pophale) SiO2 
 PCOD9534132
Probable space group: I M M A
;
_chemical_formula_sum "Si O2"
_cell_formula_units_Z 96
_cell_length_a 27.099140
_cell_length_b 9.522561
_cell_length_c 20.586307
_cell_angle_alpha 90.000000
_cell_angle_beta 90.000000
_cell_angle_gamma 90.000000
_cell_volume 5312.362680
_symmetry_space_group_name_H-M "I M M A"
_symmetry_group_IT_number 74
_symmetry_cell_setting 'orthorhombic'
loop_
_space_group_symop_operation_xyz
x,y,z
-x,1/2-y,z
x,-y,-z
-x,1/2+y,-z
-x,-y,-z
x,1/2+y,-z
-x,y,z
x,1/2-y,z
1/2+x,1/2+y,1/2+z
1/2-x,-y,1/2+z
1/2+x,1/2-y,1/2-z
1/2-x,y,1/2-z
1/2-x,1/2-y,1/2-z
1/2+x,y,1/2-z
1/2-x,1/2+y,1/2+z
1/2+x,-y,1/2+z
loop_
_atom_site_type_symbol
_atom_site_label
_atom_site_fract_x
_atom_site_fract_y
_atom_site_fract_z
Si Si1 0.696658 0.421343 0.931436
Si Si2 0.555844 0.594539 0.601543
Si Si3 0.598111 0.919785 0.147295
Si Si4 0.000000 0.579105 0.431435
Si Si5 0.866842 0.000000 0.000000
Si Si6 0.389104 0.079742 0.704836
Si Si7 0.300677 0.912790 0.380531
O O1 0.698600 0.250000 0.939791
O O2 0.647427 0.457506 0.891790
O O3 0.746100 0.469135 0.893424
O O4 0.695972 0.500000 0.000000
O O5 0.500000 0.571277 0.578104
O O6 0.558118 0.750000 0.631266
O O7 0.595637 0.589354 0.543845
O O8 0.571011 0.480566 0.654820
O O9 0.597117 0.750000 0.149897
O O10 0.548772 0.961471 0.109237
O O11 0.601150 0.967528 0.221868
O O12 0.000000 0.500000 0.500000
O O13 0.000000 0.750000 0.440087
O O14 0.831638 0.924857 0.052323
O O15 0.389820 0.250000 0.702600
O O16 0.336270 0.029329 0.675801
O O17 0.293648 0.750000 0.364400
#
# Coordination Sequence:
#
# PCOD9534132 Si02
#       7
#    16  16  16   8   8  16  16
#     4  10  19  33  52  78 104 133 168 213 260 309
#     4  10  21  34  50  75 108 140 174 218 260 300
#     4   9  19  34  55  77 103 133 172 215 258 309
#     4  10  20  36  56  80 104 133 170 215 262 311
#     4  10  17  32  50  72 100 141 174 208 252 302
#     4   9  19  35  53  76 101 138 178 212 256 310
#     4   9  17  29  49  75 102 130 170 211 252 299
#
# _framework density 18.071055999999999
#
# number of rings (size 3 to 8) (size 9 to 14) (size 15 to 20)
#    0.000    2.500    0.833    1.250    1.167    1.667 
#    0.000    5.000    0.000    0.000    0.000    3.500 
#    0.000    0.000    0.000    0.000    0.000    0.000 
#
# Total GULP energy -267332.480860 kJ/mol
# GULP energy per Si atom -5569.426685 kJ/mol
# Density = 1.802992 g / cm^3
# Si number density = 18.071056 Si / 1000 Ang^3
#
#
#
# Elastic Constant Matrix: (Units=GPa)
#
#
# Indices 1 2 3 4 5 6 
#
# 1 162.1616 18.8244 67.3163 0.0000 0.0000 0.0000
# 2 18.8244 26.1575 21.1140 0.0000 0.0000 0.0000
# 3 67.3163 21.1140 121.5964 0.0000 0.0000 0.0000
# 4 0.0000 0.0000 0.0000 22.5592 0.0000 0.0000
# 5 0.0000 0.0000 0.0000 0.0000 20.4963 0.0000
# 6 0.0000 0.0000 0.0000 0.0000 0.0000 11.0344
#
#
#
# Elastic Compliance Matrix: (Units=1/GPa)
#
#
# Indices 1 2 3 4 5 6 
#
# 1 0.008155 -0.002587 -0.004065 0.000000 0.000000 0.000000
# 2 -0.002587 0.045282 -0.006431 0.000000 0.000000 0.000000
# 3 -0.004065 -0.006431 0.011591 0.000000 0.000000 0.000000
# 4 0.000000 0.000000 0.000000 0.044328 0.000000 0.000000
# 5 0.000000 0.000000 0.000000 0.000000 0.048789 0.000000
# 6 0.000000 0.000000 0.000000 0.000000 0.000000 0.090626
#
#
# Mechanical properties :
#
#
# Convention : Reuss Voigt Hill
#
# Bulk Modulus (GPa) = 25.73188 58.26942 42.00065
# Shear Modulus (GPa) = 17.36770 24.32871 20.84821
#
# Velocity S-wave (km/s) = 3.10349 3.67315 3.40027
# Velocity P-wave (km/s) = 5.20696 7.09253 6.22159
#
# Compressibility (1/GPa) = 0.03886231
#
# Stress axis : x y z
#
# Youngs Moduli (GPa) = 122.63107 22.08359 86.27363
#
# Poissons Ratio (x) = 0.05713 0.35072
# Poissons Ratio (y) = 0.31726 0.55479
# Poissons Ratio (z) = 0.49852 0.14201
#
# Static dielectric constant tensor:
#      x y z
#    x 1.639600 0.000000 0.000000 
#    y 0.000000 1.616390 0.000000 
#    z 0.000000 0.000000 1.604070 
# 
# From -- ./inp_files/54684.got.cif
#   From: 2010.05.17/outbox.cif.g08.bks.cpg/sg74_28_cif.got.tgz:54684.got - 2010.06.03 17:57:02.
