data_PCOD9534472
_publ_section_title
;
Structure prediction by ZEFSAII (Michael W. Deem and Ramdas Pophale) SiO2 
 PCOD9534472
Probable space group: I M M A
;
_chemical_formula_sum "Si O2"
_cell_formula_units_Z 96
_cell_length_a 18.256514
_cell_length_b 17.137351
_cell_length_c 19.037892
_cell_angle_alpha 90.000000
_cell_angle_beta 90.000000
_cell_angle_gamma 90.000000
_cell_volume 5956.352686
_symmetry_space_group_name_H-M "I M M A"
_symmetry_group_IT_number 74
_symmetry_cell_setting 'orthorhombic'
loop_
_space_group_symop_operation_xyz
x,y,z
-x,1/2-y,z
x,-y,-z
-x,1/2+y,-z
-x,-y,-z
x,1/2+y,-z
-x,y,z
x,1/2-y,z
1/2+x,1/2+y,1/2+z
1/2-x,-y,1/2+z
1/2+x,1/2-y,1/2-z
1/2-x,y,1/2-z
1/2-x,1/2-y,1/2-z
1/2+x,y,1/2-z
1/2-x,1/2+y,1/2+z
1/2+x,-y,1/2+z
loop_
_atom_site_type_symbol
_atom_site_label
_atom_site_fract_x
_atom_site_fract_y
_atom_site_fract_z
Si Si1 0.914836 0.935496 0.145608
Si Si2 0.586897 0.512517 0.796195
Si Si3 0.191440 0.975363 0.422695
Si Si4 0.836351 0.580615 0.911939
Si Si5 0.163730 0.839214 0.765937
Si Si6 0.304455 0.342053 0.559427
O O1 0.862064 0.867396 0.119089
O O2 0.000000 0.916012 0.139275
O O3 0.898918 0.961743 0.225682
O O4 0.895167 0.011609 0.098332
O O5 0.500000 0.514153 0.807881
O O6 0.631175 0.480888 0.862697
O O7 0.617470 0.598510 0.778022
O O8 0.230283 0.891073 0.427088
O O9 0.163928 0.000000 0.500000
O O10 0.258308 0.035457 0.405875
O O11 0.846105 0.639655 0.847736
O O12 0.836003 0.624157 0.985935
O O13 0.143450 0.750000 0.751320
O O14 0.250000 0.849117 0.750000
O O15 0.293433 0.250000 0.555884
#
# Coordination Sequence:
#
# PCOD9534472 Si02
#       6
#    16  16  16  16  16  16
#     4   9  19  33  50  72 101 137 171 205 248 300
#     4  10  20  35  53  73 100 134 171 209 246 295
#     4   9  18  34  53  74  98 128 168 208 250 304
#     4   9  17  31  51  74 103 134 166 200 240 304
#     4  10  18  29  51  79 105 133 160 194 245 302
#     4  10  20  32  50  75 102 130 168 218 255 291
#
# _framework density 16.117245
#
# number of rings (size 3 to 8) (size 9 to 14) (size 15 to 20)
#    0.000    2.500    1.667    2.000    0.000    2.333 
#    0.000    1.667    0.000    4.500    0.000    0.000 
#    0.000    0.000    0.000    0.000    0.000    0.000 
#
# Total GULP energy -267601.956745 kJ/mol
# GULP energy per Si atom -5575.040766 kJ/mol
# Density = 1.608056 g / cm^3
# Si number density = 16.117245 Si / 1000 Ang^3
#
#
#
# Elastic Constant Matrix: (Units=GPa)
#
#
# Indices 1 2 3 4 5 6 
#
# 1 65.2857 40.2682 59.4530 0.0000 0.0000 0.0000
# 2 40.2682 99.8933 58.0961 0.0000 0.0000 0.0000
# 3 59.4530 58.0961 107.7685 0.0000 0.0000 0.0000
# 4 0.0000 0.0000 0.0000 13.1040 0.0000 0.0000
# 5 0.0000 0.0000 0.0000 0.0000 19.6078 0.0000
# 6 0.0000 0.0000 0.0000 0.0000 0.0000 13.4525
#
#
#
# Elastic Compliance Matrix: (Units=1/GPa)
#
#
# Indices 1 2 3 4 5 6 
#
# 1 0.031744 -0.003804 -0.015461 0.000000 0.000000 0.000000
# 2 -0.003804 0.015039 -0.006008 0.000000 0.000000 0.000000
# 3 -0.015461 -0.006008 0.021048 0.000000 0.000000 0.000000
# 4 0.000000 0.000000 0.000000 0.076313 0.000000 0.000000
# 5 0.000000 0.000000 0.000000 0.000000 0.051000 0.000000
# 6 0.000000 0.000000 0.000000 0.000000 0.000000 0.074336
#
#
# Mechanical properties :
#
#
# Convention : Reuss Voigt Hill
#
# Bulk Modulus (GPa) = 57.86300 65.39801 61.63051
# Shear Modulus (GPa) = 15.34744 16.90821 16.12783
#
# Velocity S-wave (km/s) = 3.08918 3.24246 3.16675
# Velocity P-wave (km/s) = 6.97877 7.39477 7.18978
#
# Compressibility (1/GPa) = 0.01728220
#
# Stress axis : x y z
#
# Youngs Moduli (GPa) = 31.50214 66.49582 47.51085
#
# Poissons Ratio (x) = 0.25296 0.73459
# Poissons Ratio (y) = 0.11984 0.28546
# Poissons Ratio (z) = 0.48707 0.39953
#
# Static dielectric constant tensor:
#      x y z
#    x 1.522700 0.000000 0.000000 
#    y 0.000000 1.525040 0.000000 
#    z 0.000000 0.000000 1.545790 
# 
# From -- ./inp_files/44126.got.cif
#   From: 2010.05.17/outbox.cif.g08.bks.cpg/sg74_23_cif.got.tgz:44126.got - 2010.06.03 17:57:02.
