data_PCOD9534653
_publ_section_title
;
Structure prediction by ZEFSAII (Michael W. Deem and Ramdas Pophale) SiO2 
 PCOD9534653
Probable space group: I M M A
;
_chemical_formula_sum "Si O2"
_cell_formula_units_Z 64
_cell_length_a 20.681190
_cell_length_b 9.026331
_cell_length_c 17.124366
_cell_angle_alpha 90.000000
_cell_angle_beta 90.000000
_cell_angle_gamma 90.000000
_cell_volume 3196.695585
_symmetry_space_group_name_H-M "I M M A"
_symmetry_group_IT_number 74
_symmetry_cell_setting 'orthorhombic'
loop_
_space_group_symop_operation_xyz
x,y,z
-x,1/2-y,z
x,-y,-z
-x,1/2+y,-z
-x,-y,-z
x,1/2+y,-z
-x,y,z
x,1/2-y,z
1/2+x,1/2+y,1/2+z
1/2-x,-y,1/2+z
1/2+x,1/2-y,1/2-z
1/2-x,y,1/2-z
1/2-x,1/2-y,1/2-z
1/2+x,y,1/2-z
1/2-x,1/2+y,1/2+z
1/2+x,-y,1/2+z
loop_
_atom_site_type_symbol
_atom_site_label
_atom_site_fract_x
_atom_site_fract_y
_atom_site_fract_z
Si Si1 0.233241 0.424706 0.577105
Si Si2 0.857987 0.918701 0.692579
Si Si3 0.633382 0.923096 0.618795
Si Si4 0.500000 0.925354 0.376651
Si Si5 0.000000 0.923294 0.711043
O O1 0.203816 0.500000 0.500000
O O2 0.236441 0.250000 0.568257
O O3 0.190626 0.470756 0.651509
O O4 0.304553 0.492352 0.587107
O O5 0.837642 0.750000 0.673782
O O6 0.860488 0.931158 0.786484
O O7 0.932496 0.941076 0.666694
O O8 0.633962 0.750000 0.597001
O O9 0.566021 0.998562 0.594605
O O10 0.500000 0.750000 0.389636
O O11 0.500000 0.965181 0.283878
O O12 0.000000 0.750000 0.741065
#
# Coordination Sequence:
#
# PCOD9534653 Si02
#       5
#    16  16  16   8   8
#     4  12  25  39  55  78 110 147 187 230 276 326
#     4   9  18  35  59  85 112 144 181 222 271 327
#     4  10  20  37  60  84 112 146 182 223 274 327
#     4  10  18  30  53  86 117 142 177 224 269 318
#     4   8  16  32  55  82 113 146 178 220 275 326
#
# _framework density 20.020674
#
# number of rings (size 3 to 8) (size 9 to 14) (size 15 to 20)
#    0.000    2.000    0.000    6.375    0.000    8.000 
#    0.000    1.250    0.000    0.000    0.000    0.000 
#    0.000    0.000    0.000    0.000    0.000    0.000 
#
# Total GULP energy -178781.088436 kJ/mol
# GULP energy per Si atom -5586.909014 kJ/mol
# Density = 1.997511 g / cm^3
# Si number density = 20.020674 Si / 1000 Ang^3
#
#
#
# Elastic Constant Matrix: (Units=GPa)
#
#
# Indices 1 2 3 4 5 6 
#
# 1 98.5704 64.1052 26.1506 0.0000 0.0000 0.0000
# 2 64.1052 171.9065 37.6299 0.0000 0.0000 0.0000
# 3 26.1506 37.6299 40.7532 0.0000 0.0000 0.0000
# 4 0.0000 0.0000 0.0000 23.0913 0.0000 0.0000
# 5 0.0000 0.0000 0.0000 0.0000 -32.4972 0.0000
# 6 0.0000 0.0000 0.0000 0.0000 0.0000 25.9164
#
#
#
# Elastic Compliance Matrix: (Units=1/GPa)
#
#
# Indices 1 2 3 4 5 6 
#
# 1 0.014255 -0.004153 -0.005313 0.000000 0.000000 0.000000
# 2 -0.004153 0.008501 -0.005184 0.000000 0.000000 0.000000
# 3 -0.005313 -0.005184 0.032734 0.000000 0.000000 0.000000
# 4 0.000000 0.000000 0.000000 0.043306 0.000000 0.000000
# 5 0.000000 0.000000 0.000000 0.000000 -0.030772 0.000000
# 6 0.000000 0.000000 0.000000 0.000000 0.000000 0.038586
#
#
# Mechanical properties :
#
#
# Convention : Reuss Voigt Hill
#
# Bulk Modulus (GPa) = 38.18239 63.00017 50.59128
# Shear Modulus (GPa) = 34.56857 15.52505 25.04681
#
# Velocity S-wave (km/s) = 4.15980 2.78771 3.54085
# Velocity P-wave (km/s) = 6.49498 6.47284 6.48392
#
# Compressibility (1/GPa) = 0.02619008
#
# Stress axis : x y z
#
# Youngs Moduli (GPa) = 70.14887 117.63852 30.54931
#
# Poissons Ratio (x) = 0.48855 0.16230
# Poissons Ratio (y) = 0.29133 0.15837
# Poissons Ratio (z) = 0.37268 0.60987
#
# Static dielectric constant tensor:
#      x y z
#    x 1.722120 0.000000 0.000000 
#    y 0.000000 1.667720 0.000000 
#    z 0.000000 0.000000 1.749010 
# 
# From -- ./inp_files/39079.got.cif
#   From: 2010.05.17/outbox.cif.g08.bks.cpg/sg74_20_cif.got.tgz:39079.got - 2010.06.03 17:57:02.
