data_PCOD9534449
_publ_section_title
;
Structure prediction by ZEFSAII (Michael W. Deem and Ramdas Pophale) SiO2 
 PCOD9534449
Probable space group: I M M A
;
_chemical_formula_sum "Si O2"
_cell_formula_units_Z 96
_cell_length_a 26.030421
_cell_length_b 14.033886
_cell_length_c 12.068450
_cell_angle_alpha 90.000000
_cell_angle_beta 90.000000
_cell_angle_gamma 90.000000
_cell_volume 4408.700860
_symmetry_space_group_name_H-M "I M M A"
_symmetry_group_IT_number 74
_symmetry_cell_setting 'orthorhombic'
loop_
_space_group_symop_operation_xyz
x,y,z
-x,1/2-y,z
x,-y,-z
-x,1/2+y,-z
-x,-y,-z
x,1/2+y,-z
-x,y,z
x,1/2-y,z
1/2+x,1/2+y,1/2+z
1/2-x,-y,1/2+z
1/2+x,1/2-y,1/2-z
1/2-x,y,1/2-z
1/2-x,1/2-y,1/2-z
1/2+x,y,1/2-z
1/2-x,1/2+y,1/2+z
1/2+x,-y,1/2+z
loop_
_atom_site_type_symbol
_atom_site_label
_atom_site_fract_x
_atom_site_fract_y
_atom_site_fract_z
Si Si1 0.839148 0.858100 0.530143
Si Si2 0.749631 0.134493 0.874282
Si Si3 0.557354 0.592980 0.078485
Si Si4 0.354133 0.365155 0.497894
Si Si5 0.689216 0.865867 0.734970
Si Si6 0.059806 0.864302 0.170679
O O1 0.820598 0.750000 0.547887
O O2 0.797820 0.901424 0.446656
O O3 0.894162 0.854682 0.473507
O O4 0.838784 0.899661 0.653143
O O5 0.745174 0.250000 0.867643
O O6 0.750000 0.098056 0.750000
O O7 0.802898 0.113918 0.933112
O O8 0.500000 0.636673 0.071205
O O9 0.567442 0.584122 0.210502
O O10 0.555510 0.500000 0.000000
O O11 0.359538 0.250000 0.490682
O O12 0.340508 0.400901 0.374512
O O13 0.402809 0.396278 0.571450
O O14 0.687160 0.750000 0.725060
O O15 0.750000 0.887354 0.750000
O O16 0.068896 0.750000 0.190851
O O17 0.000000 0.875519 0.139631
#
# Coordination Sequence:
#
# PCOD9534449 Si02
#       6
#    16  16  16  16  16  16
#     4  10  18  29  49  75  99 126 165 207 246 294
#     4   9  15  22  38  69 101 124 154 199 245 289
#     4  10  21  36  52  69  94 130 166 204 258 316
#     4   9  15  25  43  71 105 135 165 201 247 299
#     4   9  15  26  44  71 104 137 166 198 246 301
#     4   9  17  30  50  75 102 133 171 215 257 297
#
# _framework density 21.775122
#
# number of rings (size 3 to 8) (size 9 to 14) (size 15 to 20)
#    0.000    2.667    1.667    1.500    0.000    3.667 
#    0.000    0.833    0.000    7.000    0.000    3.500 
#    0.000    0.000    0.000    0.000    0.000    0.000 
#
# Total GULP energy -267770.439323 kJ/mol
# GULP energy per Si atom -5578.550819 kJ/mol
# Density = 2.172556 g / cm^3
# Si number density = 21.775122 Si / 1000 Ang^3
#
#
#
# Elastic Constant Matrix: (Units=GPa)
#
#
# Indices 1 2 3 4 5 6 
#
# 1 136.9121 9.5396 122.7976 0.0000 0.0000 0.0000
# 2 9.5396 73.2279 19.7552 0.0000 0.0000 0.0000
# 3 122.7976 19.7552 248.1444 0.0000 0.0000 0.0000
# 4 0.0000 0.0000 0.0000 0.1008 0.0000 0.0000
# 5 0.0000 0.0000 0.0000 0.0000 39.1830 0.0000
# 6 0.0000 0.0000 0.0000 0.0000 0.0000 -911.9019
#
#
#
# Elastic Compliance Matrix: (Units=1/GPa)
#
#
# Indices 1 2 3 4 5 6 
#
# 1 0.013133 0.000043 -0.006503 0.000000 0.000000 0.000000
# 2 0.000043 0.013956 -0.001133 0.000000 0.000000 0.000000
# 3 -0.006503 -0.001133 0.007338 0.000000 0.000000 0.000000
# 4 0.000000 0.000000 0.000000 9.917041 0.000000 0.000000
# 5 0.000000 0.000000 0.000000 0.000000 0.025521 0.000000
# 6 0.000000 0.000000 0.000000 0.000000 0.000000 -0.001097
#
#
# Mechanical properties :
#
#
# Convention : Reuss Voigt Hill
#
# Bulk Modulus (GPa) = 51.96549 84.71878 68.34214
# Shear Modulus (GPa) = 0.50013 -154.11081 -76.80534
#
# Velocity S-wave (km/s) = 0.47977 -8.42184 -5.94547
# Velocity P-wave (km/s) = 4.92172 7.45515 3.95954
#
# Compressibility (1/GPa) = 0.01924354
#
# Stress axis : x y z
#
# Youngs Moduli (GPa) = 76.14327 71.65444 136.27779
#
# Poissons Ratio (x) = -0.00311 0.88615
# Poissons Ratio (y) = -0.00330 0.15433
# Poissons Ratio (z) = 0.49513 0.08115
#
# Static dielectric constant tensor:
#      x y z
#    x 1.753160 0.000000 0.000000 
#    y 0.000000 1.886790 0.000000 
#    z 0.000000 0.000000 1.874320 
# 
# From -- ./inp_files/22459.got.cif
#   From: 2010.05.17/outbox.cif.g08.bks.cpg/sg74_12_cif.got.tgz:22459.got - 2010.06.03 17:57:02.
