data_PCOD9534877
_publ_section_title
;
Structure prediction by ZEFSAII (Michael W. Deem and Ramdas Pophale) SiO2 
 PCOD9534877
Probable space group: I M M A
;
_chemical_formula_sum "Si O2"
_cell_formula_units_Z 72
_cell_length_a 33.682679
_cell_length_b 8.636776
_cell_length_c 14.929270
_cell_angle_alpha 90.000000
_cell_angle_beta 90.000000
_cell_angle_gamma 90.000000
_cell_volume 4343.070257
_symmetry_space_group_name_H-M "I M M A"
_symmetry_group_IT_number 74
_symmetry_cell_setting 'orthorhombic'
loop_
_space_group_symop_operation_xyz
x,y,z
-x,1/2-y,z
x,-y,-z
-x,1/2+y,-z
-x,-y,-z
x,1/2+y,-z
-x,y,z
x,1/2-y,z
1/2+x,1/2+y,1/2+z
1/2-x,-y,1/2+z
1/2+x,1/2-y,1/2-z
1/2-x,y,1/2-z
1/2-x,1/2-y,1/2-z
1/2+x,y,1/2-z
1/2-x,1/2+y,1/2+z
1/2+x,-y,1/2+z
loop_
_atom_site_type_symbol
_atom_site_label
_atom_site_fract_x
_atom_site_fract_y
_atom_site_fract_z
Si Si1 0.314505 0.435245 0.404777
Si Si2 0.773979 0.435355 0.597696
Si Si3 0.082924 0.065553 0.600961
Si Si4 0.500000 0.065034 0.101435
Si Si5 0.655492 0.935002 0.785852
O O1 0.328859 0.500000 0.500000
O O2 0.309417 0.250000 0.411159
O O3 0.271159 0.509484 0.387939
O O4 0.342055 0.469965 0.319844
O O5 0.786000 0.500000 0.500000
O O6 0.775903 0.250000 0.598208
O O7 0.803749 0.505678 0.669895
O O8 0.080242 0.250000 0.594911
O O9 0.088654 0.000000 0.500000
O O10 0.041480 0.997983 0.639006
O O11 0.119360 0.014412 0.662552
O O12 0.500000 0.250000 0.100618
O O13 0.500000 0.000000 0.000000
O O14 0.652790 0.750000 0.797221
#
# Coordination Sequence:
#
# PCOD9534877 Si02
#       5
#    16  16  16   8  16
#     4  10  21  36  53  70  94 128 167 210 252 295
#     4  11  21  33  50  71  98 131 166 205 248 296
#     4  11  21  34  52  76 105 135 166 200 239 288
#     4  10  18  32  52  74 103 136 165 194 234 288
#     4  11  22  35  50  72 100 130 165 206 250 292
#
# _framework density 16.578135
#
# number of rings (size 3 to 8) (size 9 to 14) (size 15 to 20)
#    0.000    1.333    0.000   10.333    0.000    6.222 
#    0.000    0.000    0.000    0.000    0.000    0.778 
#    0.000    0.000    0.000    0.000    0.000    0.000 
#
# Total GULP energy -201138.462146 kJ/mol
# GULP energy per Si atom -5587.179504 kJ/mol
# Density = 1.654040 g / cm^3
# Si number density = 16.578135 Si / 1000 Ang^3
#
#
#
# Elastic Constant Matrix: (Units=GPa)
#
#
# Indices 1 2 3 4 5 6 
#
# 1 61.3680 42.1590 55.6747 0.0000 0.0000 0.0000
# 2 42.1590 136.6717 52.8357 0.0000 0.0000 0.0000
# 3 55.6747 52.8357 99.4715 0.0000 0.0000 0.0000
# 4 0.0000 0.0000 0.0000 24.8483 0.0000 0.0000
# 5 0.0000 0.0000 0.0000 0.0000 12.4487 0.0000
# 6 0.0000 0.0000 0.0000 0.0000 0.0000 64.2812
#
#
#
# Elastic Compliance Matrix: (Units=1/GPa)
#
#
# Indices 1 2 3 4 5 6 
#
# 1 0.034785 -0.004031 -0.017328 0.000000 0.000000 0.000000
# 2 -0.004031 0.009675 -0.002883 0.000000 0.000000 0.000000
# 3 -0.017328 -0.002883 0.021283 0.000000 0.000000 0.000000
# 4 0.000000 0.000000 0.000000 0.040244 0.000000 0.000000
# 5 0.000000 0.000000 0.000000 0.000000 0.080329 0.000000
# 6 0.000000 0.000000 0.000000 0.000000 0.000000 0.015557
#
#
# Mechanical properties :
#
#
# Convention : Reuss Voigt Hill
#
# Bulk Modulus (GPa) = 57.94141 66.53887 62.24014
# Shear Modulus (GPa) = 19.52290 30.10512 24.81401
#
# Velocity S-wave (km/s) = 3.43538 4.26602 3.87304
# Velocity P-wave (km/s) = 7.12476 8.03050 7.59115
#
# Compressibility (1/GPa) = 0.01725881
#
# Stress axis : x y z
#
# Youngs Moduli (GPa) = 28.74793 103.36268 46.98625
#
# Poissons Ratio (x) = 0.41669 0.81418
# Poissons Ratio (y) = 0.11589 0.13544
# Poissons Ratio (z) = 0.49815 0.29794
#
# Static dielectric constant tensor:
#      x y z
#    x 1.559420 0.000000 0.000000 
#    y 0.000000 1.552620 0.000000 
#    z 0.000000 0.000000 1.553810 
# 
# From -- ./inp_files/29391.got.cif
#   From: 2010.05.17/outbox.cif.g08.bks.cpg/sg74_15_cif.got.tgz:29391.got - 2010.06.03 17:57:02.
