data_PCOD9534674
_publ_section_title
;
Structure prediction by ZEFSAII (Michael W. Deem and Ramdas Pophale) SiO2 
 PCOD9534674
Probable space group: I M M A
;
_chemical_formula_sum "Si O2"
_cell_formula_units_Z 104
_cell_length_a 31.836842
_cell_length_b 13.376994
_cell_length_c 15.716582
_cell_angle_alpha 90.000000
_cell_angle_beta 90.000000
_cell_angle_gamma 90.000000
_cell_volume 6693.397500
_symmetry_space_group_name_H-M "I M M A"
_symmetry_group_IT_number 74
_symmetry_cell_setting 'orthorhombic'
loop_
_space_group_symop_operation_xyz
x,y,z
-x,1/2-y,z
x,-y,-z
-x,1/2+y,-z
-x,-y,-z
x,1/2+y,-z
-x,y,z
x,1/2-y,z
1/2+x,1/2+y,1/2+z
1/2-x,-y,1/2+z
1/2+x,1/2-y,1/2-z
1/2-x,y,1/2-z
1/2-x,1/2-y,1/2-z
1/2+x,y,1/2-z
1/2-x,1/2+y,1/2+z
1/2+x,-y,1/2+z
loop_
_atom_site_type_symbol
_atom_site_label
_atom_site_fract_x
_atom_site_fract_y
_atom_site_fract_z
Si Si1 0.897971 0.000000 0.500000
Si Si2 0.798432 0.636038 0.221602
Si Si3 0.616313 0.868869 0.734258
Si Si4 0.669394 0.504641 0.862039
Si Si5 0.752890 0.133746 0.353146
Si Si6 0.548804 0.630373 0.870895
Si Si7 0.169984 0.030323 0.096014
O O1 0.864498 0.966110 0.429033
O O2 0.927132 0.077595 0.449038
O O3 0.809642 0.750000 0.204949
O O4 0.750000 0.631148 0.250000
O O5 0.822107 0.587230 0.300526
O O6 0.810195 0.566011 0.143029
O O7 0.619100 0.750000 0.720578
O O8 0.649393 0.905965 0.805508
O O9 0.572294 0.892894 0.781365
O O10 0.630357 0.928065 0.649891
O O11 0.713032 0.555942 0.890950
O O12 0.764446 0.250000 0.365806
O O13 0.750000 0.116334 0.250000
O O14 0.707404 0.111407 0.393280
O O15 0.500000 0.601506 0.869153
O O16 0.551788 0.750000 0.881526
O O17 0.160389 0.000000 0.000000
#
# Coordination Sequence:
#
# PCOD9534674 Si02
#       7
#     8  16  16  16  16  16  16
#     4  10  21  30  50  74 112 132 160 202 249 294
#     4  10  19  33  46  58  88 134 174 207 245 287
#     4   9  17  32  52  72  94 124 160 204 255 297
#     4  10  18  31  45  68  96 133 171 209 237 287
#     4  11  19  31  51  67  89 130 176 217 252 281
#     4   9  18  34  56  80 103 128 161 201 252 314
#     4  11  21  32  47  69  98 125 169 215 255 292
#
# _framework density 15.537699
#
# number of rings (size 3 to 8) (size 9 to 14) (size 15 to 20)
#    0.000    2.000    4.615    1.154    1.077    2.462 
#    0.000    1.538    0.000    0.462    0.000    0.000 
#    0.000    0.000    0.000    0.000    0.000    0.000 
#
# Total GULP energy -289509.089967 kJ/mol
# GULP energy per Si atom -5567.482499 kJ/mol
# Density = 1.550233 g / cm^3
# Si number density = 15.537699 Si / 1000 Ang^3
#
#
#
# Elastic Constant Matrix: (Units=GPa)
#
#
# Indices 1 2 3 4 5 6 
#
# 1 90.8209 23.9218 48.9845 0.0000 0.0000 0.0000
# 2 23.9218 74.6873 31.1064 0.0000 0.0000 0.0000
# 3 48.9845 31.1064 102.0122 0.0000 0.0000 0.0000
# 4 0.0000 0.0000 0.0000 10.8486 0.0000 0.0000
# 5 0.0000 0.0000 0.0000 0.0000 20.1957 0.0000
# 6 0.0000 0.0000 0.0000 0.0000 0.0000 14.4712
#
#
#
# Elastic Compliance Matrix: (Units=1/GPa)
#
#
# Indices 1 2 3 4 5 6 
#
# 1 0.015137 -0.002086 -0.006633 0.000000 0.000000 0.000000
# 2 -0.002086 0.015624 -0.003763 0.000000 0.000000 0.000000
# 3 -0.006633 -0.003763 0.014135 0.000000 0.000000 0.000000
# 4 0.000000 0.000000 0.000000 0.092178 0.000000 0.000000
# 5 0.000000 0.000000 0.000000 0.000000 0.049515 0.000000
# 6 0.000000 0.000000 0.000000 0.000000 0.000000 0.069103
#
#
# Mechanical properties :
#
#
# Convention : Reuss Voigt Hill
#
# Bulk Modulus (GPa) = 50.16506 52.83842 51.50174
# Shear Modulus (GPa) = 17.40341 20.00362 18.70352
#
# Velocity S-wave (km/s) = 3.35038 3.59196 3.47327
# Velocity P-wave (km/s) = 6.87916 7.16124 7.02162
#
# Compressibility (1/GPa) = 0.01993419
#
# Stress axis : x y z
#
# Youngs Moduli (GPa) = 66.06122 64.00250 70.74643
#
# Poissons Ratio (x) = 0.13351 0.46924
# Poissons Ratio (y) = 0.13780 0.26620
# Poissons Ratio (z) = 0.43816 0.24082
#
# Static dielectric constant tensor:
#      x y z
#    x 1.539130 0.000000 0.000000 
#    y 0.000000 1.519460 0.000000 
#    z 0.000000 0.000000 1.847910 
# 
# From -- ./inp_files/37924.got.cif
#   From: 2010.05.17/outbox.cif.g08.bks.cpg/sg74_19_cif.got.tgz:37924.got - 2010.06.03 17:57:02.
