data_PCOD9534170
_publ_section_title
;
Structure prediction by ZEFSAII (Michael W. Deem and Ramdas Pophale) SiO2 
 PCOD9534170
Probable space group: I M M A
;
_chemical_formula_sum "Si O2"
_cell_formula_units_Z 80
_cell_length_a 10.689551
_cell_length_b 14.475269
_cell_length_c 23.630991
_cell_angle_alpha 90.000000
_cell_angle_beta 90.000000
_cell_angle_gamma 90.000000
_cell_volume 3656.520744
_symmetry_space_group_name_H-M "I M M A"
_symmetry_group_IT_number 74
_symmetry_cell_setting 'orthorhombic'
loop_
_space_group_symop_operation_xyz
x,y,z
-x,1/2-y,z
x,-y,-z
-x,1/2+y,-z
-x,-y,-z
x,1/2+y,-z
-x,y,z
x,1/2-y,z
1/2+x,1/2+y,1/2+z
1/2-x,-y,1/2+z
1/2+x,1/2-y,1/2-z
1/2-x,y,1/2-z
1/2-x,1/2-y,1/2-z
1/2+x,y,1/2-z
1/2-x,1/2+y,1/2+z
1/2+x,-y,1/2+z
loop_
_atom_site_type_symbol
_atom_site_label
_atom_site_fract_x
_atom_site_fract_y
_atom_site_fract_z
Si Si1 0.000000 0.592089 0.035793
Si Si2 0.776667 0.853742 0.469085
Si Si3 0.850864 0.855411 0.588411
Si Si4 0.000000 0.856609 0.154229
Si Si5 0.643393 0.953138 0.795089
Si Si6 0.214317 0.357522 0.663351
O O1 0.127160 0.645974 0.025383
O O2 0.000000 0.500000 0.000000
O O3 0.000000 0.571908 0.102620
O O4 0.829813 0.750000 0.472379
O O5 0.819728 0.900434 0.527504
O O6 0.801450 0.881069 0.403997
O O7 0.799880 0.750000 0.590842
O O8 0.000000 0.849956 0.590347
O O9 0.815134 0.910745 0.644437
O O10 0.137901 0.864972 0.180028
O O11 0.000000 0.750000 0.131597
O O12 0.500000 0.923609 0.781724
O O13 0.750000 0.928257 0.750000
O O14 0.643337 0.063725 0.803328
O O15 0.177943 0.250000 0.671656
#
# Coordination Sequence:
#
# PCOD9534170 Si02
#       6
#     8  16  16   8  16  16
#     4  10  18  24  44  82 124 160 186 224 272 337
#     4   9  18  34  56  87 122 154 187 232 294 362
#     4   9  20  40  64  88 117 152 192 243 303 360
#     4   8  16  32  52  78 114 162 198 229 282 346
#     4  11  26  44  62  87 117 156 206 254 296 348
#     4   9  19  36  61  89 123 159 195 240 296 358
#
# _framework density 21.878722
#
# number of rings (size 3 to 8) (size 9 to 14) (size 15 to 20)
#    0.000    2.600    0.000    2.100    7.000    2.000 
#    1.800    4.000    0.000    0.000    0.000    0.000 
#    0.000    0.000    0.000    0.000    0.000    0.000 
#
# Total GULP energy -222878.221907 kJ/mol
# GULP energy per Si atom -5571.955548 kJ/mol
# Density = 2.182892 g / cm^3
# Si number density = 21.878722 Si / 1000 Ang^3
#
#
#
# Elastic Constant Matrix: (Units=GPa)
#
#
# Indices 1 2 3 4 5 6 
#
# 1 45.7515 -3.2868 21.1085 0.0000 0.0000 0.0000
# 2 -3.2868 55.1403 32.3610 0.0000 0.0000 0.0000
# 3 21.1085 32.3610 135.5714 0.0000 0.0000 0.0000
# 4 0.0000 0.0000 0.0000 24.3203 0.0000 0.0000
# 5 0.0000 0.0000 0.0000 0.0000 22.2709 0.0000
# 6 0.0000 0.0000 0.0000 0.0000 0.0000 15.1917
#
#
#
# Elastic Compliance Matrix: (Units=1/GPa)
#
#
# Indices 1 2 3 4 5 6 
#
# 1 0.024388 0.004282 -0.004819 0.000000 0.000000 0.000000
# 2 0.004282 0.021842 -0.005880 0.000000 0.000000 0.000000
# 3 -0.004819 -0.005880 0.009530 0.000000 0.000000 0.000000
# 4 0.000000 0.000000 0.000000 0.041118 0.000000 0.000000
# 5 0.000000 0.000000 0.000000 0.000000 0.044902 0.000000
# 6 0.000000 0.000000 0.000000 0.000000 0.000000 0.065825
#
#
# Mechanical properties :
#
#
# Convention : Reuss Voigt Hill
#
# Bulk Modulus (GPa) = 23.29633 37.42539 30.36086
# Shear Modulus (GPa) = 21.29934 24.77530 23.03732
#
# Velocity S-wave (km/s) = 3.12351 3.36875 3.24845
# Velocity P-wave (km/s) = 4.86616 5.68105 5.28932
#
# Compressibility (1/GPa) = 0.04292522
#
# Stress axis : x y z
#
# Youngs Moduli (GPa) = 41.00314 45.78351 104.92919
#
# Poissons Ratio (x) = -0.19605 0.50570
# Poissons Ratio (y) = -0.17558 0.61703
# Poissons Ratio (z) = 0.19761 0.26923
#
# Static dielectric constant tensor:
#      x y z
#    x 1.809210 0.000000 0.000000 
#    y 0.000000 1.834490 0.000000 
#    z 0.000000 0.000000 1.865670 
# 
# From -- ./inp_files/58537.got.cif
#   From: 2010.05.17/outbox.cif.g08.bks.cpg/sg74_30_cif.got.tgz:58537.got - 2010.06.03 17:57:02.
