data_PCOD9534735
_publ_section_title
;
Structure prediction by ZEFSAII (Michael W. Deem and Ramdas Pophale) SiO2 
 PCOD9534735
Probable space group: I M M A
;
_chemical_formula_sum "Si O2"
_cell_formula_units_Z 104
_cell_length_a 15.141768
_cell_length_b 27.487157
_cell_length_c 13.947529
_cell_angle_alpha 90.000000
_cell_angle_beta 90.000000
_cell_angle_gamma 90.000000
_cell_volume 5805.019512
_symmetry_space_group_name_H-M "I M M A"
_symmetry_group_IT_number 74
_symmetry_cell_setting 'orthorhombic'
loop_
_space_group_symop_operation_xyz
x,y,z
-x,1/2-y,z
x,-y,-z
-x,1/2+y,-z
-x,-y,-z
x,1/2+y,-z
-x,y,z
x,1/2-y,z
1/2+x,1/2+y,1/2+z
1/2-x,-y,1/2+z
1/2+x,1/2-y,1/2-z
1/2-x,y,1/2-z
1/2-x,1/2-y,1/2-z
1/2+x,y,1/2-z
1/2-x,1/2+y,1/2+z
1/2+x,-y,1/2+z
loop_
_atom_site_type_symbol
_atom_site_label
_atom_site_fract_x
_atom_site_fract_y
_atom_site_fract_z
Si Si1 0.606350 0.589653 0.386172
Si Si2 0.607775 0.804500 0.356530
Si Si3 0.300747 0.554569 0.841817
Si Si4 0.107289 0.696233 0.366776
Si Si5 0.605466 0.542097 0.189976
Si Si6 0.816352 0.000000 0.000000
Si Si7 0.393267 0.104985 0.990345
O O1 0.500000 0.591777 0.382133
O O2 0.636946 0.645148 0.406780
O O3 0.638926 0.572846 0.280570
O O4 0.631599 0.546371 0.457476
O O5 0.500000 0.803426 0.360205
O O6 0.637134 0.750000 0.387337
O O7 0.633047 0.810515 0.244209
O O8 0.250000 0.575075 0.750000
O O9 0.367679 0.513688 0.802383
O O10 0.238141 0.523475 0.912488
O O11 0.349383 0.593160 0.908920
O O12 0.135021 0.750000 0.396838
O O13 0.135174 0.654773 0.439617
O O14 0.000000 0.694572 0.365472
O O15 0.500000 0.546437 0.190851
O O16 0.633520 0.563947 0.087627
O O17 0.500000 0.104127 0.999729
#
# Coordination Sequence:
#
# PCOD9534735 Si02
#       7
#    16  16  16  16  16   8  16
#     4  10  19  32  49  74 106 137 168 200 240 299
#     4   8  13  24  46  75 104 130 157 198 250 298
#     4  12  23  35  47  68  97 131 173 210 245 293
#     4   8  13  23  45  78 105 122 150 198 256 306
#     4  10  18  31  51  74 100 128 161 202 247 294
#     4  12  23  34  49  68  98 146 174 202 245 298
#     4  10  18  31  52  76  99 128 161 204 254 301
#
# _framework density 17.91553
#
# number of rings (size 3 to 8) (size 9 to 14) (size 15 to 20)
#    0.000    2.154    4.615    1.615    0.000    1.231 
#    0.000    0.000    0.000    1.385    0.000    3.231 
#    0.000    4.923    0.000    0.000    0.000    0.000 
#
# Total GULP energy -289889.509316 kJ/mol
# GULP energy per Si atom -5574.798256 kJ/mol
# Density = 1.787475 g / cm^3
# Si number density = 17.915530 Si / 1000 Ang^3
#
#
#
# Elastic Constant Matrix: (Units=GPa)
#
#
# Indices 1 2 3 4 5 6 
#
# 1 27.7521 19.8195 20.8754 0.0000 0.0000 0.0000
# 2 19.8195 129.3236 31.8946 0.0002 0.0000 0.0000
# 3 20.8754 31.8946 65.8770 0.0002 -0.0001 0.0000
# 4 0.0000 0.0002 0.0002 30.7932 0.0000 0.0000
# 5 0.0000 0.0000 -0.0001 0.0000 -20.4907 0.0000
# 6 0.0000 0.0000 0.0000 0.0000 0.0000 -10.1208
#
#
#
# Elastic Compliance Matrix: (Units=1/GPa)
#
#
# Indices 1 2 3 4 5 6 
#
# 1 0.049240 -0.004200 -0.013570 0.000000 0.000000 0.000000
# 2 -0.004200 0.009139 -0.003094 0.000000 0.000000 0.000000
# 3 -0.013570 -0.003094 0.020978 0.000000 0.000000 0.000000
# 4 0.000000 0.000000 0.000000 0.032475 0.000000 0.000000
# 5 0.000000 0.000000 0.000000 0.000000 -0.048803 0.000000
# 6 0.000000 0.000000 0.000000 0.000000 0.000000 -0.098806
#
#
# Mechanical properties :
#
#
# Convention : Reuss Voigt Hill
#
# Bulk Modulus (GPa) = 26.57469 40.90352 33.73910
# Shear Modulus (GPa) = 270.35716 10.06055 140.20886
#
# Velocity S-wave (km/s) = 12.29773 2.37229 8.85613
# Velocity P-wave (km/s) = 14.71432 5.51222 11.11071
#
# Compressibility (1/GPa) = 0.03762979
#
# Stress axis : x y z
#
# Youngs Moduli (GPa) = 20.30861 109.41874 47.66898
#
# Poissons Ratio (x) = 0.45951 0.64688
# Poissons Ratio (y) = 0.08529 0.14749
# Poissons Ratio (z) = 0.27559 0.33854
#
# Static dielectric constant tensor:
#      x y z
#    x 1.671930 0.000000 0.000000 
#    y 0.000000 1.649980 0.000000 
#    z 0.000000 0.000000 1.592160 
# 
# From -- ./inp_files/22780.got.cif
#   From: 2010.05.17/outbox.cif.g08.bks.cpg/sg74_12_cif.got.tgz:22780.got - 2010.06.03 17:57:02.
