data_PCOD9534968
_publ_section_title
;
Structure prediction by ZEFSAII (Michael W. Deem and Ramdas Pophale) SiO2 
 PCOD9534968
Probable space group: I M M A
;
_chemical_formula_sum "Si O2"
_cell_formula_units_Z 104
_cell_length_a 8.611960
_cell_length_b 32.079621
_cell_length_c 19.856833
_cell_angle_alpha 90.000000
_cell_angle_beta 90.000000
_cell_angle_gamma 90.000000
_cell_volume 5485.815737
_symmetry_space_group_name_H-M "I M M A"
_symmetry_group_IT_number 74
_symmetry_cell_setting 'orthorhombic'
loop_
_space_group_symop_operation_xyz
x,y,z
-x,1/2-y,z
x,-y,-z
-x,1/2+y,-z
-x,-y,-z
x,1/2+y,-z
-x,y,z
x,1/2-y,z
1/2+x,1/2+y,1/2+z
1/2-x,-y,1/2+z
1/2+x,1/2-y,1/2-z
1/2-x,y,1/2-z
1/2-x,1/2-y,1/2-z
1/2+x,y,1/2-z
1/2-x,1/2+y,1/2+z
1/2+x,-y,1/2+z
loop_
_atom_site_type_symbol
_atom_site_label
_atom_site_fract_x
_atom_site_fract_y
_atom_site_fract_z
Si Si1 0.313047 0.250000 0.325967
Si Si2 0.185423 0.830568 0.178965
Si Si3 0.189457 0.957909 0.463764
Si Si4 0.686126 0.658222 0.674457
Si Si5 0.686327 0.575540 0.178207
Si Si6 0.185538 0.375973 0.455157
Si Si7 0.812959 0.703631 0.034208
O O1 0.500000 0.250000 0.326565
O O2 0.250000 0.250000 0.250000
O O3 0.264878 0.204668 0.352173
O O4 0.250000 0.814316 0.250000
O O5 0.254474 0.876981 0.168890
O O6 0.222137 0.803410 0.113317
O O7 0.000000 0.834143 0.184088
O O8 0.236478 0.951525 0.386135
O O9 0.238857 0.917010 0.505036
O O10 0.000000 0.958459 0.464147
O O11 0.242971 0.000000 0.500000
O O12 0.500000 0.656907 0.676596
O O13 0.750000 0.652984 0.750000
O O14 0.750088 0.626036 0.620431
O O15 0.500000 0.576607 0.180592
O O16 0.750000 0.560622 0.250000
O O17 0.241666 0.334859 0.494286
O O18 0.000000 0.376142 0.453329
O O19 0.762290 0.750000 0.012830
O O20 0.000000 0.701781 0.025850
#
# Coordination Sequence:
#
# PCOD9534968 Si02
#       7
#     8  16  16  16  16  16  16
#     4   8  16  30  50  74 102 138 179 220 261 316
#     4  10  19  32  53  78 109 147 188 231 277 323
#     4   9  19  37  60  84 112 147 184 228 284 342
#     4  10  20  36  56  80 111 148 189 229 279 332
#     4  10  18  32  56  83 111 143 184 227 274 330
#     4  11  22  37  58  84 112 145 187 233 283 335
#     4  10  22  38  54  76 112 155 192 229 279 333
#
# _framework density 18.957982000000001
#
# number of rings (size 3 to 8) (size 9 to 14) (size 15 to 20)
#    0.000    2.154    1.538    2.769    1.077    1.846 
#    0.000    0.769    0.000    9.231    0.000    0.000 
#    0.000    0.000    0.000    0.000    0.000    0.000 
#
# Total GULP energy -290181.427318 kJ/mol
# GULP energy per Si atom -5580.412064 kJ/mol
# Density = 1.891483 g / cm^3
# Si number density = 18.957982 Si / 1000 Ang^3
#
#
#
# Elastic Constant Matrix: (Units=GPa)
#
#
# Indices 1 2 3 4 5 6 
#
# 1 34.6939 25.2539 35.8260 0.0000 0.0000 0.0000
# 2 25.2539 113.6026 77.8262 0.0000 0.0000 0.0000
# 3 35.8260 77.8262 140.0620 -0.0001 0.0000 0.0000
# 4 0.0000 0.0000 -0.0001 10.2938 0.0000 0.0000
# 5 0.0000 0.0000 0.0000 0.0000 23.1289 0.0000
# 6 0.0000 0.0000 0.0000 0.0000 0.0000 14.6571
#
#
#
# Elastic Compliance Matrix: (Units=1/GPa)
#
#
# Indices 1 2 3 4 5 6 
#
# 1 0.039803 -0.003025 -0.008500 0.000000 0.000000 0.000000
# 2 -0.003025 0.014443 -0.007252 0.000000 0.000000 0.000000
# 3 -0.008500 -0.007252 0.013343 0.000000 0.000000 0.000000
# 4 0.000000 0.000000 0.000000 0.097146 0.000000 0.000000
# 5 0.000000 0.000000 0.000000 0.000000 0.043236 0.000000
# 6 0.000000 0.000000 0.000000 0.000000 0.000000 0.068226
#
#
# Mechanical properties :
#
#
# Convention : Reuss Voigt Hill
#
# Bulk Modulus (GPa) = 33.29359 62.90785 48.10072
# Shear Modulus (GPa) = 15.44339 19.57945 17.51142
#
# Velocity S-wave (km/s) = 2.85724 3.21718 3.04253
# Velocity P-wave (km/s) = 5.33713 6.85967 6.14573
#
# Compressibility (1/GPa) = 0.03003581
#
# Stress axis : x y z
#
# Youngs Moduli (GPa) = 25.12369 69.23824 74.94386
#
# Poissons Ratio (x) = 0.20944 0.63705
# Poissons Ratio (y) = 0.07600 0.54346
# Poissons Ratio (z) = 0.21356 0.50208
#
# Static dielectric constant tensor:
#      x y z
#    x 1.648670 0.000000 0.000000 
#    y 0.000000 1.653800 0.000000 
#    z 0.000000 0.000000 1.672570 
# 
# From -- ./inp_files/49588.got.cif
#   From: 2010.05.17/outbox.cif.g08.bks.cpg/sg74_25_cif.got.tgz:49588.got - 2010.06.03 17:57:02.
