data_PCOD9534422
_publ_section_title
;
Structure prediction by ZEFSAII (Michael W. Deem and Ramdas Pophale) SiO2 
 PCOD9534422
Probable space group: I M M A
;
_chemical_formula_sum "Si O2"
_cell_formula_units_Z 72
_cell_length_a 12.761941
_cell_length_b 19.912928
_cell_length_c 18.206461
_cell_angle_alpha 90.000000
_cell_angle_beta 90.000000
_cell_angle_gamma 90.000000
_cell_volume 4626.764462
_symmetry_space_group_name_H-M "I M M A"
_symmetry_group_IT_number 74
_symmetry_cell_setting 'orthorhombic'
loop_
_space_group_symop_operation_xyz
x,y,z
-x,1/2-y,z
x,-y,-z
-x,1/2+y,-z
-x,-y,-z
x,1/2+y,-z
-x,y,z
x,1/2-y,z
1/2+x,1/2+y,1/2+z
1/2-x,-y,1/2+z
1/2+x,1/2-y,1/2-z
1/2-x,y,1/2-z
1/2-x,1/2-y,1/2-z
1/2+x,y,1/2-z
1/2-x,1/2+y,1/2+z
1/2+x,-y,1/2+z
loop_
_atom_site_type_symbol
_atom_site_label
_atom_site_fract_x
_atom_site_fract_y
_atom_site_fract_z
Si Si1 0.378779 0.107307 0.129775
Si Si2 0.303089 0.397577 0.481597
Si Si3 0.624379 0.250000 0.455053
Si Si4 0.750000 0.522538 0.750000
Si Si5 0.378505 0.484986 0.614349
Si Si6 0.796431 0.250000 0.330536
O O1 0.500000 0.089272 0.122185
O O2 0.312336 0.099383 0.054534
O O3 0.322587 0.066042 0.195095
O O4 0.363724 0.184522 0.152447
O O5 0.342063 0.321156 0.491053
O O6 0.317459 0.437774 0.556930
O O7 0.369775 0.439781 0.420744
O O8 0.500000 0.250000 0.443766
O O9 0.693536 0.250000 0.381586
O O10 0.674887 0.483377 0.693779
O O11 0.500000 0.466013 0.616319
O O12 0.750000 0.250000 0.250000
#
# Coordination Sequence:
#
# PCOD9534422 Si02
#       6
#    16  16   8   8  16   8
#     4  10  19  32  46  66  98 129 156 197 236 276
#     4   9  19  32  49  72  94 121 166 192 234 294
#     4  10  18  29  48  72  94 117 154 202 233 272
#     4  10  20  31  46  71  92 118 170 194 232 296
#     4  10  18  33  51  69  97 128 153 197 243 280
#     4  10  19  31  40  68  98 130 164 181 224 291
#
# _framework density 15.561631
#
# number of rings (size 3 to 8) (size 9 to 14) (size 15 to 20)
#    0.000    2.222    1.111    3.667    0.000    0.889 
#    0.000   10.000    0.000    0.667    0.000    0.000 
#    0.000    0.000    0.000    0.000    0.000    0.000 
#
# Total GULP energy -200526.828769 kJ/mol
# GULP energy per Si atom -5570.189688 kJ/mol
# Density = 1.552621 g / cm^3
# Si number density = 15.561631 Si / 1000 Ang^3
#
#
#
# Elastic Constant Matrix: (Units=GPa)
#
#
# Indices 1 2 3 4 5 6 
#
# 1 125.4228 27.1467 41.5525 0.0000 0.0000 0.0000
# 2 27.1467 75.3282 36.5512 0.0000 0.0000 0.0000
# 3 41.5525 36.5512 91.5960 0.0000 0.0000 0.0000
# 4 0.0000 0.0000 0.0000 15.4314 0.0000 0.0000
# 5 0.0000 0.0000 0.0000 0.0000 10.6122 0.0000
# 6 0.0000 0.0000 0.0000 0.0000 0.0000 5.2099
#
#
#
# Elastic Compliance Matrix: (Units=1/GPa)
#
#
# Indices 1 2 3 4 5 6 
#
# 1 0.009548 -0.001661 -0.003669 0.000000 0.000000 0.000000
# 2 -0.001661 0.016752 -0.005931 0.000000 0.000000 0.000000
# 3 -0.003669 -0.005931 0.014949 0.000000 0.000000 0.000000
# 4 0.000000 0.000000 0.000000 0.064803 0.000000 0.000000
# 5 0.000000 0.000000 0.000000 0.000000 0.094231 0.000000
# 6 0.000000 0.000000 0.000000 0.000000 0.000000 0.191944
#
#
# Mechanical properties :
#
#
# Convention : Reuss Voigt Hill
#
# Bulk Modulus (GPa) = 53.39937 55.87199 54.63568
# Shear Modulus (GPa) = 11.87676 18.72379 15.30027
#
# Velocity S-wave (km/s) = 2.76562 3.47248 3.13901
# Velocity P-wave (km/s) = 6.67738 7.21520 6.95150
#
# Compressibility (1/GPa) = 0.01872681
#
# Stress axis : x y z
#
# Youngs Moduli (GPa) = 104.73483 59.69510 66.89540
#
# Poissons Ratio (x) = 0.09914 0.24542
# Poissons Ratio (y) = 0.17394 0.39678
# Poissons Ratio (z) = 0.38424 0.35407
#
# Static dielectric constant tensor:
#      x y z
#    x 1.523930 0.000000 0.000000 
#    y 0.000000 1.549960 0.000000 
#    z 0.000000 0.000000 1.498100 
# 
# From -- ./inp_files/41152.got.cif
#   From: 2010.05.17/outbox.cif.g08.bks.cpg/sg74_21_cif.got.tgz:41152.got - 2010.06.03 17:57:02.
