data_PCOD9534098
_publ_section_title
;
Structure prediction by ZEFSAII (Michael W. Deem and Ramdas Pophale) SiO2 
 PCOD9534098
Probable space group: I M M A
;
_chemical_formula_sum "Si O2"
_cell_formula_units_Z 80
_cell_length_a 23.767799
_cell_length_b 13.625443
_cell_length_c 16.687013
_cell_angle_alpha 90.000000
_cell_angle_beta 90.000000
_cell_angle_gamma 90.000000
_cell_volume 5404.035603
_symmetry_space_group_name_H-M "I M M A"
_symmetry_group_IT_number 74
_symmetry_cell_setting 'orthorhombic'
loop_
_space_group_symop_operation_xyz
x,y,z
-x,1/2-y,z
x,-y,-z
-x,1/2+y,-z
-x,-y,-z
x,1/2+y,-z
-x,y,z
x,1/2-y,z
1/2+x,1/2+y,1/2+z
1/2-x,-y,1/2+z
1/2+x,1/2-y,1/2-z
1/2-x,y,1/2-z
1/2-x,1/2-y,1/2-z
1/2+x,y,1/2-z
1/2-x,1/2+y,1/2+z
1/2+x,-y,1/2+z
loop_
_atom_site_type_symbol
_atom_site_label
_atom_site_fract_x
_atom_site_fract_y
_atom_site_fract_z
Si Si1 0.337845 0.632456 0.268048
Si Si2 0.732565 0.436993 0.875313
Si Si3 0.065906 0.445821 0.874383
Si Si4 0.742110 0.362220 0.450197
Si Si5 0.106755 0.137950 0.043015
O O1 0.338792 0.750000 0.267927
O O2 0.318652 0.593788 0.181395
O O3 0.288944 0.597263 0.329186
O O4 0.395843 0.589903 0.301436
O O5 0.735845 0.553398 0.891274
O O6 0.733286 0.385123 0.961752
O O7 0.079941 0.558082 0.898122
O O8 0.000000 0.433171 0.860783
O O9 0.084595 0.385557 0.953810
O O10 0.753746 0.250000 0.426836
O O11 0.674382 0.374686 0.456660
O O12 0.093719 0.250000 0.064069
#
# Coordination Sequence:
#
# PCOD9534098 Si02
#       5
#    16  16  16  16  16
#     4  11  20  31  46  67  92 124 156 189 236 275
#     4  10  18  31  48  68  95 119 154 190 231 281
#     4  11  21  32  45  66  95 126 163 197 222 265
#     4  10  17  30  51  72  94 122 154 191 229 275
#     4  10  18  31  47  67  95 127 160 188 221 270
#
# _framework density 14.803751999999999
#
# number of rings (size 3 to 8) (size 9 to 14) (size 15 to 20)
#    0.000    1.600    4.000    5.400    0.000    2.800 
#    0.000    3.000    0.000    0.000    0.000    2.800 
#    0.000    1.600    0.000    0.000    0.000    0.000 
#
# Total GULP energy -223232.633964 kJ/mol
# GULP energy per Si atom -5580.815849 kJ/mol
# Density = 1.477006 g / cm^3
# Si number density = 14.803752 Si / 1000 Ang^3
#
#
#
# Elastic Constant Matrix: (Units=GPa)
#
#
# Indices 1 2 3 4 5 6 
#
# 1 80.1677 50.4548 50.9569 0.0000 0.0000 0.0000
# 2 50.4548 135.4434 45.8820 0.0000 0.0000 0.0000
# 3 50.9569 45.8820 61.4953 0.0000 0.0000 0.0000
# 4 0.0000 0.0000 0.0000 12.8426 0.0000 0.0000
# 5 0.0000 0.0000 0.0000 0.0000 8.9613 0.0000
# 6 0.0000 0.0000 0.0000 0.0000 0.0000 3.6918
#
#
#
# Elastic Compliance Matrix: (Units=1/GPa)
#
#
# Indices 1 2 3 4 5 6 
#
# 1 0.027461 -0.003374 -0.020238 0.000000 0.000000 0.000000
# 2 -0.003374 0.010295 -0.004885 0.000000 0.000000 0.000000
# 3 -0.020238 -0.004885 0.036676 0.000000 0.000000 0.000000
# 4 0.000000 0.000000 0.000000 0.077866 0.000000 0.000000
# 5 0.000000 0.000000 0.000000 0.000000 0.111590 0.000000
# 6 0.000000 0.000000 0.000000 0.000000 0.000000 0.270872
#
#
# Mechanical properties :
#
#
# Convention : Reuss Voigt Hill
#
# Bulk Modulus (GPa) = 57.34638 63.52154 60.43396
# Shear Modulus (GPa) = 8.36727 13.75334 11.06031
#
# Velocity S-wave (km/s) = 2.38000 3.05133 2.73633
# Velocity P-wave (km/s) = 6.80987 7.44422 7.13410
#
# Compressibility (1/GPa) = 0.01743789
#
# Stress axis : x y z
#
# Youngs Moduli (GPa) = 36.41533 97.13497 27.26593
#
# Poissons Ratio (x) = 0.32774 0.55180
# Poissons Ratio (y) = 0.12287 0.13320
# Poissons Ratio (z) = 0.73696 0.47453
#
# Static dielectric constant tensor:
#      x y z
#    x 1.475550 0.000000 0.000000 
#    y 0.000000 1.510660 0.000000 
#    z 0.000000 0.000000 1.476540 
# 
# From -- ./inp_files/36321.got.cif
#   From: 2010.05.17/outbox.cif.g08.bks.cpg/sg74_19_cif.got.tgz:36321.got - 2010.06.03 17:57:02.
