data_PCOD9534060
_publ_section_title
;
Structure prediction by ZEFSAII (Michael W. Deem and Ramdas Pophale) SiO2 
 PCOD9534060
Probable space group: I M M A
;
_chemical_formula_sum "Si O2"
_cell_formula_units_Z 120
_cell_length_a 23.554753
_cell_length_b 14.926988
_cell_length_c 20.336326
_cell_angle_alpha 90.000000
_cell_angle_beta 90.000000
_cell_angle_gamma 90.000000
_cell_volume 7150.283039
_symmetry_space_group_name_H-M "I M M A"
_symmetry_group_IT_number 74
_symmetry_cell_setting 'orthorhombic'
loop_
_space_group_symop_operation_xyz
x,y,z
-x,1/2-y,z
x,-y,-z
-x,1/2+y,-z
-x,-y,-z
x,1/2+y,-z
-x,y,z
x,1/2-y,z
1/2+x,1/2+y,1/2+z
1/2-x,-y,1/2+z
1/2+x,1/2-y,1/2-z
1/2-x,y,1/2-z
1/2-x,1/2-y,1/2-z
1/2+x,y,1/2-z
1/2-x,1/2+y,1/2+z
1/2+x,-y,1/2+z
loop_
_atom_site_type_symbol
_atom_site_label
_atom_site_fract_x
_atom_site_fract_y
_atom_site_fract_z
Si Si1 0.755670 0.647220 0.632311
Si Si2 0.840725 0.914719 0.049993
Si Si3 0.935755 0.146243 0.044516
Si Si4 0.717442 0.850696 0.022013
Si Si5 0.432465 0.647471 0.918254
Si Si6 0.136579 0.500000 0.500000
Si Si7 0.637642 0.953070 0.652638
Si Si8 0.631977 0.645590 0.783896
O O1 0.737933 0.750000 0.642663
O O2 0.778140 0.641189 0.557616
O O3 0.700327 0.588152 0.641235
O O4 0.806726 0.628636 0.682347
O O5 0.781388 0.863301 0.047768
O O6 0.856251 0.947936 0.122826
O O7 0.893626 0.865100 0.016981
O O8 0.832008 0.000000 0.000000
O O9 0.936942 0.250000 0.062861
O O10 0.907657 0.092921 0.104241
O O11 0.000000 0.116138 0.030458
O O12 0.697473 0.750000 0.037939
O O13 0.677407 0.933509 0.042154
O O14 0.500000 0.640477 0.924955
O O15 0.415429 0.750000 0.938221
O O16 0.413196 0.638905 0.842613
O O17 0.401529 0.569542 0.958874
O O18 0.622232 0.925209 0.726219
O O19 0.631546 0.750000 0.760242
#
# Coordination Sequence:
#
# PCOD9534060 Si02
#       8
#    16  16  16  16  16   8  16  16
#     4  10  17  29  48  72 102 135 168 204 252 312
#     4  10  19  31  47  73 107 138 173 221 267 309
#     4  10  20  33  49  69  97 137 182 224 264 307
#     4  11  19  31  54  80 109 139 171 217 271 322
#     4  10  22  38  55  79 112 145 176 215 263 319
#     4  12  19  34  56  84 107 136 178 222 266 318
#     4  11  20  30  48  74 104 139 174 216 257 315
#     4  10  20  33  50  74 107 145 174 206 259 324
#
# _framework density 16.782553
#
# number of rings (size 3 to 8) (size 9 to 14) (size 15 to 20)
#    0.000    1.600    4.667    2.600    0.000    4.000 
#    0.000    1.333    0.000    0.000    0.000    4.667 
#    0.000    2.133    0.000    0.000    0.000    0.000 
#
# Total GULP energy -334559.105329 kJ/mol
# GULP energy per Si atom -5575.985089 kJ/mol
# Density = 1.674435 g / cm^3
# Si number density = 16.782553 Si / 1000 Ang^3
#
#
#
# Elastic Constant Matrix: (Units=GPa)
#
#
# Indices 1 2 3 4 5 6 
#
# 1 102.2573 38.6872 24.4139 0.0000 0.0000 0.0000
# 2 38.6872 81.0062 30.6829 0.0000 0.0000 0.0000
# 3 24.4139 30.6829 71.0210 0.0000 0.0000 0.0000
# 4 0.0000 0.0000 0.0000 27.3592 0.0000 0.0000
# 5 0.0000 0.0000 0.0000 0.0000 10.4085 0.0000
# 6 0.0000 0.0000 0.0000 0.0000 0.0000 18.7905
#
#
#
# Elastic Compliance Matrix: (Units=1/GPa)
#
#
# Indices 1 2 3 4 5 6 
#
# 1 0.012169 -0.005054 -0.002000 0.000000 0.000000 0.000000
# 2 -0.005054 0.016859 -0.005546 0.000000 0.000000 0.000000
# 3 -0.002000 -0.005546 0.017164 0.000000 0.000000 0.000000
# 4 0.000000 0.000000 0.000000 0.036551 0.000000 0.000000
# 5 0.000000 0.000000 0.000000 0.000000 0.096075 0.000000
# 6 0.000000 0.000000 0.000000 0.000000 0.000000 0.053218
#
#
# Mechanical properties :
#
#
# Convention : Reuss Voigt Hill
#
# Bulk Modulus (GPa) = 47.63740 49.09472 48.36606
# Shear Modulus (GPa) = 18.92265 22.01169 20.46717
#
# Velocity S-wave (km/s) = 3.36150 3.62551 3.49599
# Velocity P-wave (km/s) = 6.59643 6.84417 6.72144
#
# Compressibility (1/GPa) = 0.02099191
#
# Stress axis : x y z
#
# Youngs Moduli (GPa) = 82.17716 59.31443 58.26215
#
# Poissons Ratio (x) = 0.29979 0.11650
# Poissons Ratio (y) = 0.41534 0.32313
# Poissons Ratio (z) = 0.16432 0.32897
#
# Static dielectric constant tensor:
#      x y z
#    x 1.592030 0.000000 0.000000 
#    y 0.000000 1.595580 0.000000 
#    z 0.000000 0.000000 1.568490 
# 
# From -- ./inp_files/54821.got.cif
#   From: 2010.05.17/outbox.cif.g08.bks.cpg/sg74_28_cif.got.tgz:54821.got - 2010.06.03 17:57:02.
