data_PCOD9534489
_publ_section_title
;
Structure prediction by ZEFSAII (Michael W. Deem and Ramdas Pophale) SiO2 
 PCOD9534489
Probable space group: I M M A
;
_chemical_formula_sum "Si O2"
_cell_formula_units_Z 72
_cell_length_a 32.170008
_cell_length_b 8.773762
_cell_length_c 18.757050
_cell_angle_alpha 90.000000
_cell_angle_beta 90.000000
_cell_angle_gamma 90.000000
_cell_volume 5294.214759
_symmetry_space_group_name_H-M "I M M A"
_symmetry_group_IT_number 74
_symmetry_cell_setting 'orthorhombic'
loop_
_space_group_symop_operation_xyz
x,y,z
-x,1/2-y,z
x,-y,-z
-x,1/2+y,-z
-x,-y,-z
x,1/2+y,-z
-x,y,z
x,1/2-y,z
1/2+x,1/2+y,1/2+z
1/2-x,-y,1/2+z
1/2+x,1/2-y,1/2-z
1/2-x,y,1/2-z
1/2-x,1/2-y,1/2-z
1/2+x,y,1/2-z
1/2-x,1/2+y,1/2+z
1/2+x,-y,1/2+z
loop_
_atom_site_type_symbol
_atom_site_label
_atom_site_fract_x
_atom_site_fract_y
_atom_site_fract_z
Si Si1 0.000000 0.067195 0.919608
Si Si2 0.748681 0.568002 0.078483
Si Si3 0.085787 0.567987 0.920216
Si Si4 0.164474 0.068525 0.842012
Si Si5 0.705448 0.425525 0.209463
O O1 0.000000 0.250000 0.921029
O O2 0.956860 0.003161 0.889073
O O3 0.000000 0.000000 0.000000
O O4 0.744902 0.750000 0.076765
O O5 0.794503 0.532013 0.110639
O O6 0.715076 0.499796 0.133323
O O7 0.744850 0.500000 0.000000
O O8 0.082095 0.750000 0.925167
O O9 0.125198 0.518577 0.873952
O O10 0.091404 0.500000 0.000000
O O11 0.157872 0.250000 0.845392
O O12 0.174999 0.016953 0.761656
O O13 0.692408 0.250000 0.202564
O O14 0.750000 0.427745 0.250000
#
# Coordination Sequence:
#
# PCOD9534489 Si02
#       5
#     8  16  16  16  16
#     4  10  18  30  44  58  78 104 133 166 205 244
#     4  10  19  29  42  59  80 106 137 172 206 242
#     4  11  20  30  43  60  81 106 137 171 206 242
#     4  10  19  30  43  60  81 106 137 171 206 242
#     4   9  17  29  43  58  78 104 133 166 205 245
#
# _framework density 13.59975
#
# number of rings (size 3 to 8) (size 9 to 14) (size 15 to 20)
#    0.000    2.000    0.000    7.000    0.000    7.111 
#    0.000    0.000    0.000    0.000    0.000    0.000 
#    0.000    0.000    0.000    1.000    0.000   14.000 
#
# Total GULP energy -200782.317134 kJ/mol
# GULP energy per Si atom -5577.286587 kJ/mol
# Density = 1.356880 g / cm^3
# Si number density = 13.599750 Si / 1000 Ang^3
#
#
#
# Elastic Constant Matrix: (Units=GPa)
#
#
# Indices 1 2 3 4 5 6 
#
# 1 68.5804 42.8500 37.5218 0.0000 0.0000 0.0000
# 2 42.8500 100.8588 42.3670 0.0000 0.0000 0.0000
# 3 37.5218 42.3670 93.4539 0.0000 0.0000 0.0000
# 4 0.0000 0.0000 0.0000 24.2650 0.0000 0.0000
# 5 0.0000 0.0000 0.0000 0.0000 14.2198 0.0000
# 6 0.0000 0.0000 0.0000 0.0000 0.0000 22.3259
#
#
#
# Elastic Compliance Matrix: (Units=1/GPa)
#
#
# Indices 1 2 3 4 5 6 
#
# 1 0.022056 -0.006980 -0.005691 0.000000 0.000000 0.000000
# 2 -0.006980 0.014456 -0.003751 0.000000 0.000000 0.000000
# 3 -0.005691 -0.003751 0.014686 0.000000 0.000000 0.000000
# 4 0.000000 0.000000 0.000000 0.041212 0.000000 0.000000
# 5 0.000000 0.000000 0.000000 0.000000 0.070325 0.000000
# 6 0.000000 0.000000 0.000000 0.000000 0.000000 0.044791
#
#
# Mechanical properties :
#
#
# Convention : Reuss Voigt Hill
#
# Bulk Modulus (GPa) = 54.48493 56.48562 55.48527
# Shear Modulus (GPa) = 20.28492 21.50577 20.89534
#
# Velocity S-wave (km/s) = 3.86627 3.98091 3.92401
# Velocity P-wave (km/s) = 7.75118 7.92179 7.83695
#
# Compressibility (1/GPa) = 0.01835370
#
# Stress axis : x y z
#
# Youngs Moduli (GPa) = 45.33816 69.17539 68.09172
#
# Poissons Ratio (x) = 0.48284 0.38753
# Poissons Ratio (y) = 0.31646 0.25542
# Poissons Ratio (z) = 0.25803 0.25948
#
# Static dielectric constant tensor:
#      x y z
#    x 1.451080 0.000000 0.000000 
#    y 0.000000 1.453870 0.000000 
#    z 0.000000 0.000000 1.427010 
# 
# From -- ./inp_files/29392.got.cif
#   From: 2010.05.17/outbox.cif.g08.bks.cpg/sg74_15_cif.got.tgz:29392.got - 2010.06.03 17:57:02.
