data_PCOD9534504
_publ_section_title
;
Structure prediction by ZEFSAII (Michael W. Deem and Ramdas Pophale) SiO2 
 PCOD9534504
Probable space group: I M M A
;
_chemical_formula_sum "Si O2"
_cell_formula_units_Z 96
_cell_length_a 14.679904
_cell_length_b 27.341906
_cell_length_c 13.433563
_cell_angle_alpha 90.000000
_cell_angle_beta 90.000000
_cell_angle_gamma 90.000000
_cell_volume 5391.917242
_symmetry_space_group_name_H-M "I M M A"
_symmetry_group_IT_number 74
_symmetry_cell_setting 'orthorhombic'
loop_
_space_group_symop_operation_xyz
x,y,z
-x,1/2-y,z
x,-y,-z
-x,1/2+y,-z
-x,-y,-z
x,1/2+y,-z
-x,y,z
x,1/2-y,z
1/2+x,1/2+y,1/2+z
1/2-x,-y,1/2+z
1/2+x,1/2-y,1/2-z
1/2-x,y,1/2-z
1/2-x,1/2-y,1/2-z
1/2+x,y,1/2-z
1/2-x,1/2+y,1/2+z
1/2+x,-y,1/2+z
loop_
_atom_site_type_symbol
_atom_site_label
_atom_site_fract_x
_atom_site_fract_y
_atom_site_fract_z
Si Si1 0.097759 0.452729 0.072423
Si Si2 0.393823 0.618042 0.032456
Si Si3 0.894569 0.455419 0.719593
Si Si4 0.396743 0.883846 0.388933
Si Si5 0.299582 0.036486 0.096186
Si Si6 0.253392 0.692900 0.129339
O O1 0.194917 0.453613 0.124809
O O2 0.000000 0.450632 0.126291
O O3 0.094755 0.500000 0.000000
O O4 0.100817 0.407997 0.996282
O O5 0.500000 0.629876 0.011267
O O6 0.392495 0.581532 0.126953
O O7 0.334005 0.663652 0.072360
O O8 0.348772 0.586022 0.943001
O O9 0.855105 0.424995 0.813560
O O10 0.849592 0.504908 0.680384
O O11 0.000000 0.464974 0.744377
O O12 0.500000 0.874089 0.353846
O O13 0.338556 0.835493 0.397122
O O14 0.298156 0.000000 0.000000
O O15 0.255880 0.750000 0.104164
O O16 0.250000 0.688866 0.250000
#
# Coordination Sequence:
#
# PCOD9534504 Si02
#       6
#    16  16  16  16  16  16
#     4   9  17  28  44  66  88 117 152 183 227 285
#     4  10  18  30  45  61  86 114 148 195 240 279
#     4   9  17  28  45  67  86 113 153 191 230 280
#     4  10  19  33  49  64  89 122 160 199 235 275
#     4   9  16  27  44  66  86 112 147 187 232 284
#     4  11  22  32  44  62  86 121 167 204 235 273
#
# _framework density 17.804427
#
# number of rings (size 3 to 8) (size 9 to 14) (size 15 to 20)
#    0.000    2.333    3.333    0.500    0.000    2.667 
#    0.000    1.667    0.000    0.000    0.000    0.000 
#    0.000    0.000    0.000    3.000    0.000   24.000 
#
# Total GULP energy -267537.660143 kJ/mol
# GULP energy per Si atom -5573.701253 kJ/mol
# Density = 1.776390 g / cm^3
# Si number density = 17.804427 Si / 1000 Ang^3
#
#
#
# Elastic Constant Matrix: (Units=GPa)
#
#
# Indices 1 2 3 4 5 6 
#
# 1 146.9275 78.8090 24.5652 0.0000 0.0000 0.0000
# 2 78.8090 141.7603 35.3532 0.0000 0.0000 0.0000
# 3 24.5652 35.3532 31.1989 0.0001 0.0000 0.0000
# 4 0.0000 0.0000 0.0001 24.9674 0.0000 0.0000
# 5 0.0000 0.0000 0.0000 0.0000 8.9048 0.0000
# 6 0.0000 0.0000 0.0000 0.0000 0.0000 39.2332
#
#
#
# Elastic Compliance Matrix: (Units=1/GPa)
#
#
# Indices 1 2 3 4 5 6 
#
# 1 0.009800 -0.004912 -0.002150 0.000000 0.000000 0.000000
# 2 -0.004912 0.012295 -0.010064 0.000000 0.000000 0.000000
# 3 -0.002150 -0.010064 0.045150 0.000000 0.000000 0.000000
# 4 0.000000 0.000000 0.000000 0.040052 0.000000 0.000000
# 5 0.000000 0.000000 0.000000 0.000000 0.112299 0.000000
# 6 0.000000 0.000000 0.000000 0.000000 0.000000 0.025489
#
#
# Mechanical properties :
#
#
# Convention : Reuss Voigt Hill
#
# Bulk Modulus (GPa) = 30.31075 66.37128 48.34102
# Shear Modulus (GPa) = 17.22141 26.69835 21.95988
#
# Velocity S-wave (km/s) = 3.11345 3.87658 3.51578
# Velocity P-wave (km/s) = 5.47594 7.57602 6.60992
#
# Compressibility (1/GPa) = 0.03299160
#
# Stress axis : x y z
#
# Youngs Moduli (GPa) = 102.03750 81.33499 22.14834
#
# Poissons Ratio (x) = 0.39952 0.04763
# Poissons Ratio (y) = 0.50121 0.22291
# Poissons Ratio (z) = 0.21943 0.81859
#
# Static dielectric constant tensor:
#      x y z
#    x 1.685540 0.000000 0.000000 
#    y 0.000000 1.586780 0.000000 
#    z 0.000000 0.000000 1.629540 
# 
# From -- ./inp_files/32344.got.cif
#   From: 2010.05.17/outbox.cif.g08.bks.cpg/sg74_17_cif.got.tgz:32344.got - 2010.06.03 17:57:02.
