data_PCOD9534270
_publ_section_title
;
Structure prediction by ZEFSAII (Michael W. Deem and Ramdas Pophale) SiO2 
 PCOD9534270
Probable space group: I M M A
;
_chemical_formula_sum "Si O2"
_cell_formula_units_Z 88
_cell_length_a 8.882101
_cell_length_b 21.293568
_cell_length_c 24.893027
_cell_angle_alpha 90.000000
_cell_angle_beta 90.000000
_cell_angle_gamma 90.000000
_cell_volume 4708.058564
_symmetry_space_group_name_H-M "I M M A"
_symmetry_group_IT_number 74
_symmetry_cell_setting 'orthorhombic'
loop_
_space_group_symop_operation_xyz
x,y,z
-x,1/2-y,z
x,-y,-z
-x,1/2+y,-z
-x,-y,-z
x,1/2+y,-z
-x,y,z
x,1/2-y,z
1/2+x,1/2+y,1/2+z
1/2-x,-y,1/2+z
1/2+x,1/2-y,1/2-z
1/2-x,y,1/2-z
1/2-x,1/2-y,1/2-z
1/2+x,y,1/2-z
1/2-x,1/2+y,1/2+z
1/2+x,-y,1/2+z
loop_
_atom_site_type_symbol
_atom_site_label
_atom_site_fract_x
_atom_site_fract_y
_atom_site_fract_z
Si Si1 0.828250 0.514887 0.841693
Si Si2 0.319741 0.875526 0.309406
Si Si3 0.318537 0.679649 0.924174
Si Si4 0.826743 0.557350 0.965086
Si Si5 0.680132 0.750000 0.189401
Si Si6 0.822084 0.362678 0.305168
O O1 0.787721 0.442126 0.836543
O O2 0.827574 0.533314 0.903918
O O3 0.721577 0.563895 0.811685
O O4 0.000000 0.522830 0.821012
O O5 0.500000 0.866270 0.306542
O O6 0.250000 0.881055 0.250000
O O7 0.243040 0.814365 0.335470
O O8 0.500000 0.675951 0.924485
O O9 0.273037 0.750000 0.940151
O O10 0.255425 0.624181 0.961435
O O11 0.270340 0.667988 0.861750
O O12 0.000000 0.567033 0.982966
O O13 0.761222 0.500000 0.000000
O O14 0.500000 0.750000 0.192071
O O15 0.750000 0.750000 0.250000
O O16 0.750000 0.338503 0.250000
O O17 0.000000 0.354805 0.301720
#
# Coordination Sequence:
#
# PCOD9534270 Si02
#       6
#    16  16  16  16   8  16
#     4   9  18  31  48  70  95 125 160 201 247 294
#     4  10  18  28  43  63  89 121 156 190 232 283
#     4   9  19  35  53  75 104 138 174 210 250 301
#     4   9  18  34  56  79 101 125 162 211 258 304
#     4  10  18  28  42  60  84 116 154 190 228 274
#     4  10  19  30  46  70 102 137 171 206 244 287
#
# _framework density 18.691357
#
# number of rings (size 3 to 8) (size 9 to 14) (size 15 to 20)
#    0.000    2.545    0.000    3.545    0.000    4.727 
#    0.000    0.000    2.000    0.000    0.000    0.000 
#    0.000    0.000    0.000    0.000    0.000    0.000 
#
# Total GULP energy -245223.374651 kJ/mol
# GULP energy per Si atom -5573.258515 kJ/mol
# Density = 1.864881 g / cm^3
# Si number density = 18.691357 Si / 1000 Ang^3
#
#
#
# Elastic Constant Matrix: (Units=GPa)
#
#
# Indices 1 2 3 4 5 6 
#
# 1 50.0406 40.0269 10.3508 0.0000 0.0000 0.0000
# 2 40.0269 158.6642 20.8876 0.0000 0.0000 0.0000
# 3 10.3508 20.8876 29.2168 0.0000 0.0000 0.0000
# 4 0.0000 0.0000 0.0000 15.3188 0.0000 0.0000
# 5 0.0000 0.0000 0.0000 0.0000 18.2651 0.0000
# 6 0.0000 0.0000 0.0000 0.0000 0.0000 27.1156
#
#
#
# Elastic Compliance Matrix: (Units=1/GPa)
#
#
# Indices 1 2 3 4 5 6 
#
# 1 0.025663 -0.005825 -0.004927 0.000000 0.000000 0.000000
# 2 -0.005825 0.008280 -0.003856 0.000000 0.000000 0.000000
# 3 -0.004927 -0.003856 0.038729 0.000000 0.000000 0.000000
# 4 0.000000 0.000000 0.000000 0.065279 0.000000 0.000000
# 5 0.000000 0.000000 0.000000 0.000000 0.054749 0.000000
# 6 0.000000 0.000000 0.000000 0.000000 0.000000 0.036879
#
#
# Mechanical properties :
#
#
# Convention : Reuss Voigt Hill
#
# Bulk Modulus (GPa) = 23.01212 42.27245 32.64229
# Shear Modulus (GPa) = 18.29629 23.25033 20.77331
#
# Velocity S-wave (km/s) = 3.13207 3.53073 3.33736
# Velocity P-wave (km/s) = 5.04165 6.26790 5.68792
#
# Compressibility (1/GPa) = 0.04345536
#
# Stress axis : x y z
#
# Youngs Moduli (GPa) = 38.96732 120.77610 25.82061
#
# Poissons Ratio (x) = 0.70357 0.12722
# Poissons Ratio (y) = 0.22700 0.09955
# Poissons Ratio (z) = 0.19199 0.46566
#
# Static dielectric constant tensor:
#      x y z
#    x 1.645530 0.000000 0.000000 
#    y 0.000000 1.695620 0.000000 
#    z 0.000000 0.000000 1.645260 
# 
# From -- ./inp_files/70482.got.cif
#   From: 2010.05.17/outbox.cif.g08.bks.cpg/sg74_36_cif.got.tgz:70482.got - 2010.06.03 17:57:02.
