data_PCOD9534044
_publ_section_title
;
Structure prediction by ZEFSAII (Michael W. Deem and Ramdas Pophale) SiO2 
 PCOD9534044
Probable space group: I M M A
;
_chemical_formula_sum "Si O2"
_cell_formula_units_Z 80
_cell_length_a 8.508377
_cell_length_b 14.966230
_cell_length_c 31.236966
_cell_angle_alpha 90.000000
_cell_angle_beta 90.000000
_cell_angle_gamma 90.000000
_cell_volume 3977.662994
_symmetry_space_group_name_H-M "I M M A"
_symmetry_group_IT_number 74
_symmetry_cell_setting 'orthorhombic'
loop_
_space_group_symop_operation_xyz
x,y,z
-x,1/2-y,z
x,-y,-z
-x,1/2+y,-z
-x,-y,-z
x,1/2+y,-z
-x,y,z
x,1/2-y,z
1/2+x,1/2+y,1/2+z
1/2-x,-y,1/2+z
1/2+x,1/2-y,1/2-z
1/2-x,y,1/2-z
1/2-x,1/2-y,1/2-z
1/2+x,y,1/2-z
1/2-x,1/2+y,1/2+z
1/2+x,-y,1/2+z
loop_
_atom_site_type_symbol
_atom_site_label
_atom_site_fract_x
_atom_site_fract_y
_atom_site_fract_z
Si Si1 0.687418 0.894258 0.205649
Si Si2 0.311376 0.104412 0.115480
Si Si3 0.686998 0.750000 0.551323
Si Si4 0.191189 0.397120 0.612213
Si Si5 0.312612 0.401594 0.294047
Si Si6 0.690950 0.250000 0.955044
O O1 0.500000 0.889057 0.207104
O O2 0.750000 0.854880 0.250000
O O3 0.741151 0.860611 0.159035
O O4 0.738754 0.998430 0.205289
O O5 0.500000 0.107060 0.118473
O O6 0.253981 0.164742 0.076697
O O7 0.241549 0.138017 0.160708
O O8 0.262033 0.000882 0.108865
O O9 0.500000 0.750000 0.553838
O O10 0.741611 0.750000 0.502372
O O11 0.241284 0.335805 0.572978
O O12 0.000000 0.395539 0.612504
O O13 0.500000 0.406948 0.292312
O O14 0.250000 0.359167 0.250000
O O15 0.500000 0.250000 0.957672
#
# Coordination Sequence:
#
# PCOD9534044 Si02
#       6
#    16  16   8  16  16   8
#     4   9  15  26  45  75 110 148 188 227 267 320
#     4  10  20  38  60  84 111 147 187 227 272 329
#     4  12  26  42  57  82 111 140 179 232 288 338
#     4   8  17  33  58  85 110 142 188 230 270 323
#     4  10  17  28  49  80 114 150 185 224 268 320
#     4  10  20  40  63  82 106 144 186 232 279 332
#
# _framework density 20.112310999999998
#
# number of rings (size 3 to 8) (size 9 to 14) (size 15 to 20)
#    0.000    2.400    0.000    6.300    0.000    0.800 
#    0.000   11.000    0.000    0.000    0.000    0.000 
#    0.000    0.000    0.000    0.000    0.000    0.000 
#
# Total GULP energy -223210.424471 kJ/mol
# GULP energy per Si atom -5580.260612 kJ/mol
# Density = 2.006653 g / cm^3
# Si number density = 20.112311 Si / 1000 Ang^3
#
#
#
# Elastic Constant Matrix: (Units=GPa)
#
#
# Indices 1 2 3 4 5 6 
#
# 1 50.0438 11.1882 36.2171 0.0000 0.0000 0.0000
# 2 11.1882 93.5344 73.0175 0.0000 0.0000 0.0000
# 3 36.2171 73.0175 229.0262 0.0000 0.0000 0.0000
# 4 0.0000 0.0000 0.0000 39.7854 0.0000 0.0000
# 5 0.0000 0.0000 0.0000 0.0000 37.3720 0.0000
# 6 0.0000 0.0000 0.0000 0.0000 0.0000 -0.3814
#
#
#
# Elastic Compliance Matrix: (Units=1/GPa)
#
#
# Indices 1 2 3 4 5 6 
#
# 1 0.022566 0.000115 -0.003605 0.000000 0.000000 0.000000
# 2 0.000115 0.014234 -0.004556 0.000000 0.000000 0.000000
# 3 -0.003605 -0.004556 0.006389 0.000000 0.000000 0.000000
# 4 0.000000 0.000000 0.000000 0.025135 0.000000 0.000000
# 5 0.000000 0.000000 0.000000 0.000000 0.026758 0.000000
# 6 0.000000 0.000000 0.000000 0.000000 0.000000 -2.621706
#
#
# Mechanical properties :
#
#
# Convention : Reuss Voigt Hill
#
# Bulk Modulus (GPa) = 36.90513 68.16111 52.53312
# Shear Modulus (GPa) = -1.99880 32.16731 15.08425
#
# Velocity S-wave (km/s) = -0.99799 4.00357 2.74159
# Velocity P-wave (km/s) = 4.13054 7.43877 6.01650
#
# Compressibility (1/GPa) = 0.02709650
#
# Stress axis : x y z
#
# Youngs Moduli (GPa) = 44.31473 70.25223 156.51736
#
# Poissons Ratio (x) = -0.00809 0.56427
# Poissons Ratio (y) = -0.00510 0.71315
# Poissons Ratio (z) = 0.15976 0.32010
#
# Static dielectric constant tensor:
#      x y z
#    x 1.676700 0.000000 0.000000 
#    y 0.000000 1.865660 0.000000 
#    z 0.000000 0.000000 1.726580 
# 
# From -- ./inp_files/63989.got.cif
#   From: 2010.05.17/outbox.cif.g08.bks.cpg/sg74_32_cif.got.tgz:63989.got - 2010.06.03 17:57:02.
