data_PCOD9534407
_publ_section_title
;
Structure prediction by ZEFSAII (Michael W. Deem and Ramdas Pophale) SiO2 
 PCOD9534407
Probable space group: I M M A
;
_chemical_formula_sum "Si O2"
_cell_formula_units_Z 88
_cell_length_a 9.024689
_cell_length_b 20.263565
_cell_length_c 27.945152
_cell_angle_alpha 90.000000
_cell_angle_beta 90.000000
_cell_angle_gamma 90.000000
_cell_volume 5110.396237
_symmetry_space_group_name_H-M "I M M A"
_symmetry_group_IT_number 74
_symmetry_cell_setting 'orthorhombic'
loop_
_space_group_symop_operation_xyz
x,y,z
-x,1/2-y,z
x,-y,-z
-x,1/2+y,-z
-x,-y,-z
x,1/2+y,-z
-x,y,z
x,1/2-y,z
1/2+x,1/2+y,1/2+z
1/2-x,-y,1/2+z
1/2+x,1/2-y,1/2-z
1/2-x,y,1/2-z
1/2-x,1/2-y,1/2-z
1/2+x,y,1/2-z
1/2-x,1/2+y,1/2+z
1/2+x,-y,1/2+z
loop_
_atom_site_type_symbol
_atom_site_label
_atom_site_fract_x
_atom_site_fract_y
_atom_site_fract_z
Si Si1 0.251562 0.250000 0.039731
Si Si2 0.178912 0.625603 0.802261
Si Si3 0.680268 0.521541 0.620733
Si Si4 0.831239 0.898669 0.970310
Si Si5 0.830921 0.250000 0.352043
Si Si6 0.820361 0.387404 0.923064
Si Si7 0.168003 0.750000 0.429783
O O1 0.167444 0.320034 0.039076
O O2 0.334225 0.250000 0.090313
O O3 0.331917 0.250000 0.988213
O O4 0.250000 0.627174 0.750000
O O5 0.222583 0.559427 0.831189
O O6 0.243514 0.686526 0.832647
O O7 0.000000 0.630345 0.799741
O O8 0.500000 0.523961 0.619695
O O9 0.736400 0.563315 0.574703
O O10 0.721909 0.445597 0.613104
O O11 0.000000 0.922647 0.973449
O O12 0.767875 0.908478 0.023362
O O13 0.000000 0.250000 0.333914
O O14 0.752079 0.316024 0.913798
O O15 0.000000 0.381705 0.924497
O O16 0.000000 0.750000 0.412930
#
# Coordination Sequence:
#
# PCOD9534407 Si02
#       7
#     8  16  16  16   8  16   8
#     4  10  18  29  47  67 103 142 177 205 246 287
#     4  11  23  39  56  75 100 131 170 216 262 303
#     4   9  17  30  51  76  99 125 162 210 256 298
#     4   9  15  25  46  75 101 127 166 210 246 288
#     4  12  23  36  53  73  99 136 181 221 254 289
#     4   9  17  30  51  76 100 128 165 204 245 294
#     4  10  20  33  47  70 108 142 168 198 242 296
#
# _framework density 17.219798999999998
#
# number of rings (size 3 to 8) (size 9 to 14) (size 15 to 20)
#    0.000    2.182    1.818    2.455    0.000    5.091 
#    0.000    1.818    0.000    2.182    0.000    0.636 
#    0.000    0.000    0.000    0.000    0.000    0.000 
#
# Total GULP energy -245129.104694 kJ/mol
# GULP energy per Si atom -5571.116016 kJ/mol
# Density = 1.718061 g / cm^3
# Si number density = 17.219799 Si / 1000 Ang^3
#
#
#
# Elastic Constant Matrix: (Units=GPa)
#
#
# Indices 1 2 3 4 5 6 
#
# 1 51.6491 28.5666 20.8567 0.0000 0.0000 0.0000
# 2 28.5666 122.2455 50.0292 0.0000 0.0000 0.0000
# 3 20.8567 50.0292 60.9136 0.0000 0.0000 0.0000
# 4 0.0000 0.0000 0.0000 18.5388 0.0000 0.0000
# 5 0.0000 0.0000 0.0000 0.0000 11.6395 0.0000
# 6 0.0000 0.0000 0.0000 0.0000 0.0000 -0.8610
#
#
#
# Elastic Compliance Matrix: (Units=1/GPa)
#
#
# Indices 1 2 3 4 5 6 
#
# 1 0.023312 -0.003285 -0.005284 0.000000 0.000000 0.000000
# 2 -0.003285 0.012785 -0.009376 0.000000 0.000000 0.000000
# 3 -0.005284 -0.009376 0.025926 0.000000 0.000000 0.000000
# 4 0.000000 0.000000 0.000000 0.053941 0.000000 0.000000
# 5 0.000000 0.000000 0.000000 0.000000 0.085915 0.000000
# 6 0.000000 0.000000 0.000000 0.000000 0.000000 -1.161488
#
#
# Mechanical properties :
#
#
# Convention : Reuss Voigt Hill
#
# Bulk Modulus (GPa) = 38.26438 48.19035 43.22737
# Shear Modulus (GPa) = -5.46443 14.88717 4.71137
#
# Velocity S-wave (km/s) = -1.78332 2.94349 1.65589
# Velocity P-wave (km/s) = 4.24607 6.29272 5.36784
#
# Compressibility (1/GPa) = 0.02613397
#
# Stress axis : x y z
#
# Youngs Moduli (GPa) = 42.89614 78.21696 38.57099
#
# Poissons Ratio (x) = 0.25696 0.20380
# Poissons Ratio (y) = 0.14092 0.36163
# Poissons Ratio (z) = 0.22666 0.73333
#
# Static dielectric constant tensor:
#      x y z
#    x 1.597270 0.000000 0.000000 
#    y 0.000000 1.591790 0.000000 
#    z 0.000000 0.000000 1.581400 
# 
# From -- ./inp_files/70509.got.cif
#   From: 2010.05.17/outbox.cif.g08.bks.cpg/sg74_36_cif.got.tgz:70509.got - 2010.06.03 17:57:02.
