data_PCOD9534138
_publ_section_title
;
Structure prediction by ZEFSAII (Michael W. Deem and Ramdas Pophale) SiO2 
 PCOD9534138
Probable space group: I M M A
;
_chemical_formula_sum "Si O2"
_cell_formula_units_Z 120
_cell_length_a 25.708815
_cell_length_b 21.769464
_cell_length_c 9.423381
_cell_angle_alpha 90.000000
_cell_angle_beta 90.000000
_cell_angle_gamma 90.000000
_cell_volume 5273.956530
_symmetry_space_group_name_H-M "I M M A"
_symmetry_group_IT_number 74
_symmetry_cell_setting 'orthorhombic'
loop_
_space_group_symop_operation_xyz
x,y,z
-x,1/2-y,z
x,-y,-z
-x,1/2+y,-z
-x,-y,-z
x,1/2+y,-z
-x,y,z
x,1/2-y,z
1/2+x,1/2+y,1/2+z
1/2-x,-y,1/2+z
1/2+x,1/2-y,1/2-z
1/2-x,y,1/2-z
1/2-x,1/2-y,1/2-z
1/2+x,y,1/2-z
1/2-x,1/2+y,1/2+z
1/2+x,-y,1/2+z
loop_
_atom_site_type_symbol
_atom_site_label
_atom_site_fract_x
_atom_site_fract_y
_atom_site_fract_z
Si Si1 0.558055 0.358301 0.539009
Si Si2 0.412010 0.820196 0.170786
Si Si3 0.297685 0.114519 0.161340
Si Si4 0.920282 0.250000 0.131271
Si Si5 0.672100 0.991736 0.332451
Si Si6 0.202714 0.868373 0.330534
Si Si7 0.557537 0.467926 0.318179
Si Si8 0.417176 0.353821 0.145455
O O1 0.500000 0.331901 0.513448
O O2 0.565737 0.362487 0.705650
O O3 0.595597 0.305407 0.480741
O O4 0.562123 0.421179 0.452588
O O5 0.426593 0.750000 0.199717
O O6 0.349791 0.829164 0.168549
O O7 0.430109 0.838487 0.014854
O O8 0.250000 0.143733 0.250000
O O9 0.307327 0.048937 0.238608
O O10 0.354086 0.147114 0.167859
O O11 0.285175 0.112468 0.993576
O O12 0.936950 0.196414 0.245601
O O13 0.609627 0.993122 0.317451
O O14 0.684960 0.000000 0.500000
O O15 0.692053 0.929244 0.263552
O O16 0.250000 0.836069 0.250000
O O17 0.500000 0.496266 0.320713
O O18 0.562474 0.420771 0.187072
#
# Coordination Sequence:
#
# PCOD9534138 Si02
#       8
#    16  16  16   8  16  16  16  16
#     4  10  20  35  56  87 120 155 199 246 293 346
#     4  11  22  39  60  85 122 160 199 251 301 348
#     4  10  21  39  60  85 117 150 196 247 298 354
#     4  10  17  32  53  78 112 152 196 238 278 334
#     4  11  21  37  62  89 118 156 198 241 300 358
#     4  11  24  40  62  88 119 155 201 248 300 360
#     4   9  20  38  60  88 122 156 197 244 294 356
#     4   9  20  36  59  82 117 157 199 240 293 351
#
# _framework density 22.753316000000002
#
# number of rings (size 3 to 8) (size 9 to 14) (size 15 to 20)
#    0.000    1.867    1.333    2.600    0.000    3.733 
#    0.000    1.000    0.000   10.400    0.000    0.000 
#    0.000    0.000    0.000    0.000    0.000    0.000 
#
# Total GULP energy -334363.382740 kJ/mol
# GULP energy per Si atom -5572.723046 kJ/mol
# Density = 2.270153 g / cm^3
# Si number density = 22.753316 Si / 1000 Ang^3
#
#
#
# Elastic Constant Matrix: (Units=GPa)
#
#
# Indices 1 2 3 4 5 6 
#
# 1 105.4667 3.1467 24.5760 0.0000 0.0000 0.0000
# 2 3.1467 36.0788 9.2739 0.0000 0.0000 0.0000
# 3 24.5760 9.2739 151.1774 0.0000 0.0000 0.0000
# 4 0.0000 0.0000 0.0000 -10.6482 0.0000 0.0000
# 5 0.0000 0.0000 0.0000 0.0000 29.1573 0.0000
# 6 0.0000 0.0000 0.0000 0.0000 0.0000 -15.7412
#
#
#
# Elastic Compliance Matrix: (Units=1/GPa)
#
#
# Indices 1 2 3 4 5 6 
#
# 1 0.009862 -0.000455 -0.001575 0.000000 0.000000 0.000000
# 2 -0.000455 0.028182 -0.001655 0.000000 0.000000 0.000000
# 3 -0.001575 -0.001655 0.006972 0.000000 0.000000 0.000000
# 4 0.000000 0.000000 0.000000 -0.093913 0.000000 0.000000
# 5 0.000000 0.000000 0.000000 0.000000 0.034297 0.000000
# 6 0.000000 0.000000 0.000000 0.000000 0.000000 -0.063528
#
#
# Mechanical properties :
#
#
# Convention : Reuss Voigt Hill
#
# Bulk Modulus (GPa) = 26.56318 40.74622 33.65470
# Shear Modulus (GPa) = -85.89986 17.60202 -34.14892
#
# Velocity S-wave (km/s) = -6.15099 2.78439 -3.87826
# Velocity P-wave (km/s) = 6.22466 5.31825 2.28721
#
# Compressibility (1/GPa) = 0.03764609
#
# Stress axis : x y z
#
# Youngs Moduli (GPa) = 101.39584 35.48346 143.42367
#
# Poissons Ratio (x) = 0.01615 0.22594
# Poissons Ratio (y) = 0.04616 0.23734
# Poissons Ratio (z) = 0.15973 0.05872
#
# Static dielectric constant tensor:
#      x y z
#    x 1.921210 0.000000 0.000000 
#    y 0.000000 1.844760 0.000000 
#    z 0.000000 0.000000 1.849020 
# 
# From -- ./inp_files/15527.got.cif
#   From: 2010.05.17/outbox.cif.g08.bks.cpg/sg74_8_cif.got.tgz:15527.got - 2010.06.03 17:57:02.
