data_PCOD9534528
_publ_section_title
;
Structure prediction by ZEFSAII (Michael W. Deem and Ramdas Pophale) SiO2 
 PCOD9534528
Probable space group: I M M A
;
_chemical_formula_sum "Si O2"
_cell_formula_units_Z 72
_cell_length_a 21.275419
_cell_length_b 8.546107
_cell_length_c 14.893017
_cell_angle_alpha 90.000000
_cell_angle_beta 90.000000
_cell_angle_gamma 90.000000
_cell_volume 2707.878245
_symmetry_space_group_name_H-M "I M M A"
_symmetry_group_IT_number 74
_symmetry_cell_setting 'orthorhombic'
loop_
_space_group_symop_operation_xyz
x,y,z
-x,1/2-y,z
x,-y,-z
-x,1/2+y,-z
-x,-y,-z
x,1/2+y,-z
-x,y,z
x,1/2-y,z
1/2+x,1/2+y,1/2+z
1/2-x,-y,1/2+z
1/2+x,1/2-y,1/2-z
1/2-x,y,1/2-z
1/2-x,1/2-y,1/2-z
1/2+x,y,1/2-z
1/2-x,1/2+y,1/2+z
1/2+x,-y,1/2+z
loop_
_atom_site_type_symbol
_atom_site_label
_atom_site_fract_x
_atom_site_fract_y
_atom_site_fract_z
Si Si1 0.272955 0.930829 0.593123
Si Si2 0.751265 0.750000 0.144769
Si Si3 0.897116 0.750000 0.156370
Si Si4 0.926458 0.084075 0.389922
Si Si5 0.594592 0.580820 0.675892
Si Si6 0.076092 0.750000 0.366940
O O1 0.250993 0.750000 0.582555
O O2 0.329454 0.923761 0.665003
O O3 0.299701 0.000000 0.500000
O O4 0.227322 0.076532 0.617300
O O5 0.750000 0.750000 0.250000
O O6 0.825768 0.750000 0.120904
O O7 0.927055 0.582849 0.133147
O O8 0.895595 0.750000 0.266274
O O9 0.895585 0.250000 0.412896
O O10 0.923238 0.078535 0.280449
O O11 0.000000 0.094294 0.413651
O O12 0.906786 0.909941 0.416931
O O13 0.574783 0.750000 0.638077
O O14 0.000000 0.750000 0.355715
#
# Coordination Sequence:
#
# PCOD9534528 Si02
#       6
#    16   8   8  16  16   8
#     4  10  18  30  47  64  82 107 140 177 212 253
#     4  10  20  32  46  66  89 111 140 178 218 255
#     4   8  14  24  36  52  76 101 127 164 207 243
#     4   8  12  18  28  43  64  90 120 158 203 243
#     4   8  14  22  34  52  70  93 128 167 205 241
#     4   8  12  18  30  48  68  92 125 160 195 236
#
# _framework density 26.589082000000001
#
# number of rings (size 3 to 8) (size 9 to 14) (size 15 to 20)
#    0.000    3.333    1.111    0.000    0.000    0.444 
#    0.000    0.000    0.000    0.667    0.000    0.000 
#    0.000    0.000    0.000    0.000    0.000    1.111 
#
# Total GULP energy -200609.022403 kJ/mol
# GULP energy per Si atom -5572.472845 kJ/mol
# Density = 2.652856 g / cm^3
# Si number density = 26.589082 Si / 1000 Ang^3
#
#
#
# Elastic Constant Matrix: (Units=GPa)
#
#
# Indices 1 2 3 4 5 6 
#
# 1 115.4158 20.5997 15.5109 0.0000 0.0000 0.0000
# 2 20.5997 409.6454 20.1821 0.0000 0.0000 0.0000
# 3 15.5109 20.1821 54.8013 0.0000 0.0000 0.0000
# 4 0.0000 0.0000 0.0000 47.7155 0.0000 0.0000
# 5 0.0000 0.0000 0.0000 0.0000 15.4395 0.0000
# 6 0.0000 0.0000 0.0000 0.0000 0.0000 -122.8720
#
#
#
# Elastic Compliance Matrix: (Units=1/GPa)
#
#
# Indices 1 2 3 4 5 6 
#
# 1 0.009052 -0.000335 -0.002439 0.000000 0.000000 0.000000
# 2 -0.000335 0.002499 -0.000825 0.000000 0.000000 0.000000
# 3 -0.002439 -0.000825 0.019242 0.000000 0.000000 0.000000
# 4 0.000000 0.000000 0.000000 0.020958 0.000000 0.000000
# 5 0.000000 0.000000 0.000000 0.000000 0.064769 0.000000
# 6 0.000000 0.000000 0.000000 0.000000 0.000000 -0.008139
#
#
# Mechanical properties :
#
#
# Convention : Reuss Voigt Hill
#
# Bulk Modulus (GPa) = 42.38303 76.93866 59.66085
# Shear Modulus (GPa) = 40.50439 22.96122 31.73281
#
# Velocity S-wave (km/s) = 3.90724 2.94182 3.45839
# Velocity P-wave (km/s) = 6.02744 6.36695 6.19952
#
# Compressibility (1/GPa) = 0.02359435
#
# Stress axis : x y z
#
# Youngs Moduli (GPa) = 110.47452 400.21649 51.96978
#
# Poissons Ratio (x) = 0.13409 0.12674
# Poissons Ratio (y) = 0.03701 0.04289
# Poissons Ratio (z) = 0.26941 0.33033
#
# Static dielectric constant tensor:
#      x y z
#    x 1.968460 0.000000 0.000000 
#    y 0.000000 2.236720 0.000000 
#    z 0.000000 0.000000 2.040790 
# 
# From -- ./inp_files/29253.got.cif
#   From: 2010.05.17/outbox.cif.g08.bks.cpg/sg74_15_cif.got.tgz:29253.got - 2010.06.03 17:57:02.
