data_PCOD9534714
_publ_section_title
;
Structure prediction by ZEFSAII (Michael W. Deem and Ramdas Pophale) SiO2 
 PCOD9534714
Probable space group: I M M A
;
_chemical_formula_sum "Si O2"
_cell_formula_units_Z 64
_cell_length_a 13.153027
_cell_length_b 13.123216
_cell_length_c 15.075384
_cell_angle_alpha 90.000000
_cell_angle_beta 90.000000
_cell_angle_gamma 90.000000
_cell_volume 2602.162249
_symmetry_space_group_name_H-M "I M M A"
_symmetry_group_IT_number 74
_symmetry_cell_setting 'orthorhombic'
loop_
_space_group_symop_operation_xyz
x,y,z
-x,1/2-y,z
x,-y,-z
-x,1/2+y,-z
-x,-y,-z
x,1/2+y,-z
-x,y,z
x,1/2-y,z
1/2+x,1/2+y,1/2+z
1/2-x,-y,1/2+z
1/2+x,1/2-y,1/2-z
1/2-x,y,1/2-z
1/2-x,1/2-y,1/2-z
1/2+x,y,1/2-z
1/2-x,1/2+y,1/2+z
1/2+x,-y,1/2+z
loop_
_atom_site_type_symbol
_atom_site_label
_atom_site_fract_x
_atom_site_fract_y
_atom_site_fract_z
Si Si1 0.609376 0.086790 0.922736
Si Si2 0.609861 0.600972 0.817974
Si Si3 0.163703 0.141520 0.925700
Si Si4 0.336262 0.093232 0.376749
O O1 0.500000 0.137662 0.930422
O O2 0.713452 0.145213 0.928139
O O3 0.610001 0.021171 0.832296
O O4 0.613564 0.000000 0.000000
O O5 0.500000 0.635820 0.854286
O O6 0.615194 0.627979 0.714985
O O7 0.717173 0.626282 0.864074
O O8 0.126974 0.250000 0.887440
O O9 0.146945 0.030065 0.882522
O O10 0.128608 0.133090 0.028224
#
# Coordination Sequence:
#
# PCOD9534714 Si02
#       4
#    16  16  16  16
#     4   9  15  28  49  71  97 124 155 200 247 290
#     4   9  16  30  54  73  96 131 159 197 248 289
#     4  10  18  31  50  70  97 131 163 199 241 285
#     4   9  18  33  50  74  99 125 164 201 240 288
#
# _framework density 24.594930000000002
#
# number of rings (size 3 to 8) (size 9 to 14) (size 15 to 20)
#    0.000    2.750    5.000    0.000    0.000    0.500 
#    0.000   15.000    0.000   10.500    0.000    0.000 
#    0.000    0.000    0.000    0.000    0.000    0.000 
#
# Total GULP energy -178193.562398 kJ/mol
# GULP energy per Si atom -5568.548825 kJ/mol
# Density = 2.453895 g / cm^3
# Si number density = 24.594930 Si / 1000 Ang^3
#
#
#
# Elastic Constant Matrix: (Units=GPa)
#
#
# Indices 1 2 3 4 5 6 
#
# 1 87.1039 -2.0788 4.1833 0.0000 0.0000 0.0000
# 2 -2.0788 154.3084 2.4611 0.0000 0.0000 0.0000
# 3 4.1833 2.4611 86.2489 0.0000 0.0000 0.0000
# 4 0.0000 0.0000 0.0000 -11.4827 0.0000 0.0000
# 5 0.0000 0.0000 0.0000 0.0000 7.6856 0.0000
# 6 0.0000 0.0000 0.0000 0.0000 0.0000 -14.0829
#
#
#
# Elastic Compliance Matrix: (Units=1/GPa)
#
#
# Indices 1 2 3 4 5 6 
#
# 1 0.011511 0.000164 -0.000563 0.000000 0.000000 0.000000
# 2 0.000164 0.006486 -0.000193 0.000000 0.000000 0.000000
# 3 -0.000563 -0.000193 0.011627 0.000000 0.000000 0.000000
# 4 0.000000 0.000000 0.000000 -0.087088 0.000000 0.000000
# 5 0.000000 0.000000 0.000000 0.000000 0.130114 0.000000
# 6 0.000000 0.000000 0.000000 0.000000 0.000000 -0.071008
#
#
# Mechanical properties :
#
#
# Convention : Reuss Voigt Hill
#
# Bulk Modulus (GPa) = 35.16109 37.42135 36.29122
# Shear Modulus (GPa) = 406.29551 17.96372 212.12962
#
# Velocity S-wave (km/s) = 12.86676 2.70549 9.29713
# Velocity P-wave (km/s) = 15.33183 5.00077 11.40335
#
# Compressibility (1/GPa) = 0.02844053
#
# Stress axis : x y z
#
# Youngs Moduli (GPa) = 86.86966 154.18253 86.00547
#
# Poissons Ratio (x) = -0.02530 0.04842
# Poissons Ratio (y) = -0.01425 0.01660
# Poissons Ratio (z) = 0.04891 0.02976
#
# Static dielectric constant tensor:
#      x y z
#    x 1.986060 0.000000 0.000000 
#    y 0.000000 2.000590 0.000000 
#    z 0.000000 0.000000 1.946940 
# 
# From -- ./inp_files/42405.got.cif
#   From: 2010.05.17/outbox.cif.g08.bks.cpg/sg74_22_cif.got.tgz:42405.got - 2010.06.03 17:57:02.
