data_PCOD9534702
_publ_section_title
;
Structure prediction by ZEFSAII (Michael W. Deem and Ramdas Pophale) SiO2 
 PCOD9534702
Probable space group: I M M A
;
_chemical_formula_sum "Si O2"
_cell_formula_units_Z 88
_cell_length_a 7.510856
_cell_length_b 18.919650
_cell_length_c 30.982804
_cell_angle_alpha 90.000000
_cell_angle_beta 90.000000
_cell_angle_gamma 90.000000
_cell_volume 4402.742169
_symmetry_space_group_name_H-M "I M M A"
_symmetry_group_IT_number 74
_symmetry_cell_setting 'orthorhombic'
loop_
_space_group_symop_operation_xyz
x,y,z
-x,1/2-y,z
x,-y,-z
-x,1/2+y,-z
-x,-y,-z
x,1/2+y,-z
-x,y,z
x,1/2-y,z
1/2+x,1/2+y,1/2+z
1/2-x,-y,1/2+z
1/2+x,1/2-y,1/2-z
1/2-x,y,1/2-z
1/2-x,1/2-y,1/2-z
1/2+x,y,1/2-z
1/2-x,1/2+y,1/2+z
1/2+x,-y,1/2+z
loop_
_atom_site_type_symbol
_atom_site_label
_atom_site_fract_x
_atom_site_fract_y
_atom_site_fract_z
Si Si1 0.287559 0.829734 0.398019
Si Si2 0.212426 0.829703 0.498049
Si Si3 0.286967 0.250000 0.301388
Si Si4 0.218520 0.523416 0.134046
Si Si5 0.705123 0.533716 0.542796
Si Si6 0.786400 0.095406 0.199108
O O1 0.500000 0.825892 0.392414
O O2 0.215839 0.750000 0.391058
O O3 0.255749 0.849150 0.448345
O O4 0.223051 0.894693 0.368626
O O5 0.277494 0.750000 0.504190
O O6 0.289905 0.883704 0.532407
O O7 0.000000 0.830742 0.502205
O O8 0.500000 0.250000 0.307978
O O9 0.250000 0.250000 0.250000
O O10 0.219256 0.326990 0.316480
O O11 0.277845 0.488268 0.088844
O O12 0.279353 0.472010 0.172277
O O13 0.000000 0.524155 0.135437
O O14 0.791116 0.500000 0.500000
O O15 0.500000 0.508848 0.543811
O O16 0.750000 0.088494 0.250000
O O17 0.000000 0.097235 0.193945
#
# Coordination Sequence:
#
# PCOD9534702 Si02
#       6
#    16  16   8  16  16  16
#     4   9  16  29  50  70  89 120 162 199 231 273
#     4  10  20  32  45  64  94 129 162 196 234 276
#     4   8  14  26  46  68  88 116 148 180 222 272
#     4   9  17  30  48  72  96 118 151 199 239 273
#     4  10  18  31  49  69  94 124 159 196 233 276
#     4   9  17  31  50  70  94 119 150 190 231 276
#
# _framework density 19.987544
#
# number of rings (size 3 to 8) (size 9 to 14) (size 15 to 20)
#    0.000    2.727    1.818    0.545    0.000    1.455 
#    1.636    1.818    0.000    0.545    0.000    0.000 
#    0.000    0.000    0.000    0.000    0.000    0.000 
#
# Total GULP energy -245206.809727 kJ/mol
# GULP energy per Si atom -5572.882039 kJ/mol
# Density = 1.994205 g / cm^3
# Si number density = 19.987544 Si / 1000 Ang^3
#
#
#
# Elastic Constant Matrix: (Units=GPa)
#
#
# Indices 1 2 3 4 5 6 
#
# 1 56.5083 2.4414 0.7830 0.0000 0.0000 0.0000
# 2 2.4414 176.9083 71.6944 0.0000 0.0000 0.0000
# 3 0.7830 71.6944 73.9191 0.0000 0.0000 0.0000
# 4 0.0000 0.0000 0.0000 33.2824 0.0000 0.0000
# 5 0.0000 0.0000 0.0000 0.0000 -10.0253 0.0000
# 6 0.0000 0.0000 0.0000 0.0000 0.0000 -5.1346
#
#
#
# Elastic Compliance Matrix: (Units=1/GPa)
#
#
# Indices 1 2 3 4 5 6 
#
# 1 0.017707 -0.000277 0.000081 0.000000 0.000000 0.000000
# 2 -0.000277 0.009318 -0.009034 0.000000 0.000000 0.000000
# 3 0.000081 -0.009034 0.022290 0.000000 0.000000 0.000000
# 4 0.000000 0.000000 0.000000 0.030046 0.000000 0.000000
# 5 0.000000 0.000000 0.000000 0.000000 -0.099748 0.000000
# 6 0.000000 0.000000 0.000000 0.000000 0.000000 -0.194758
#
#
# Mechanical properties :
#
#
# Convention : Reuss Voigt Hill
#
# Bulk Modulus (GPa) = 32.41026 50.79705 41.60365
# Shear Modulus (GPa) = -26.82407 19.11897 -3.85255
#
# Velocity S-wave (km/s) = -3.66736 3.09616 -1.38984
# Velocity P-wave (km/s) = 1.29703 6.18475 4.27603
#
# Compressibility (1/GPa) = 0.03085443
#
# Stress axis : x y z
#
# Youngs Moduli (GPa) = 56.47364 107.32168 44.86328
#
# Poissons Ratio (x) = 0.02977 -0.00365
# Poissons Ratio (y) = 0.01566 0.40531
# Poissons Ratio (z) = -0.00460 0.96959
#
# Static dielectric constant tensor:
#      x y z
#    x 1.769540 0.000000 0.000000 
#    y 0.000000 1.787060 0.000000 
#    z 0.000000 0.000000 1.661620 
# 
# From -- ./inp_files/70252.got.cif
#   From: 2010.05.17/outbox.cif.g08.bks.cpg/sg74_36_cif.got.tgz:70252.got - 2010.06.03 17:57:02.
