data_PCOD9534157
_publ_section_title
;
Structure prediction by ZEFSAII (Michael W. Deem and Ramdas Pophale) SiO2 
 PCOD9534157
Probable space group: I M M A
;
_chemical_formula_sum "Si O2"
_cell_formula_units_Z 88
_cell_length_a 20.381154
_cell_length_b 20.189069
_cell_length_c 11.848567
_cell_angle_alpha 90.000000
_cell_angle_beta 90.000000
_cell_angle_gamma 90.000000
_cell_volume 4875.407168
_symmetry_space_group_name_H-M "I M M A"
_symmetry_group_IT_number 74
_symmetry_cell_setting 'orthorhombic'
loop_
_space_group_symop_operation_xyz
x,y,z
-x,1/2-y,z
x,-y,-z
-x,1/2+y,-z
-x,-y,-z
x,1/2+y,-z
-x,y,z
x,1/2-y,z
1/2+x,1/2+y,1/2+z
1/2-x,-y,1/2+z
1/2+x,1/2-y,1/2-z
1/2-x,y,1/2-z
1/2-x,1/2-y,1/2-z
1/2+x,y,1/2-z
1/2-x,1/2+y,1/2+z
1/2+x,-y,1/2+z
loop_
_atom_site_type_symbol
_atom_site_label
_atom_site_fract_x
_atom_site_fract_y
_atom_site_fract_z
Si Si1 0.924456 0.505217 0.864028
Si Si2 0.238019 0.376697 0.563194
Si Si3 0.839851 0.250000 0.466518
Si Si4 0.806847 0.103722 0.155153
Si Si5 0.825554 0.250000 0.212358
Si Si6 0.923557 0.250000 0.676106
Si Si7 0.853511 0.380917 0.761405
O O1 0.869747 0.557999 0.825161
O O2 0.901180 0.435824 0.811760
O O3 0.000000 0.520843 0.833077
O O4 0.921638 0.500000 0.000000
O O5 0.203798 0.313570 0.502854
O O6 0.270788 0.416327 0.460988
O O7 0.183859 0.406576 0.648142
O O8 0.298118 0.361313 0.647237
O O9 0.859120 0.250000 0.335378
O O10 0.903252 0.250000 0.545084
O O11 0.750000 0.099790 0.250000
O O12 0.832971 0.180110 0.149047
O O13 0.750000 0.250000 0.250000
O O14 0.891521 0.315017 0.728792
O O15 0.000000 0.250000 0.693175
#
# Coordination Sequence:
#
# PCOD9534157 Si02
#       7
#    16  16   8  16   8   8  16
#     4  11  24  41  57  81 121 161 192 236 297 354
#     4  10  18  33  57  92 113 143 191 243 295 340
#     4  10  17  34  55  88 124 145 181 246 301 332
#     4  11  21  36  65  89 115 152 195 243 288 350
#     4  10  18  34  60  90 113 145 182 241 288 337
#     4  10  21  36  59  85 115 162 200 233 291 360
#     4  10  21  36  60  85 119 149 193 247 292 345
#
# _framework density 18.049773999999999
#
# number of rings (size 3 to 8) (size 9 to 14) (size 15 to 20)
#    0.000    1.636    5.455    1.091    2.545    2.182 
#    0.000    1.364    0.000    1.091    0.000    0.000 
#    0.000    0.000    0.000    0.000    0.000    0.000 
#
# Total GULP energy -245257.751920 kJ/mol
# GULP energy per Si atom -5574.039816 kJ/mol
# Density = 1.800869 g / cm^3
# Si number density = 18.049774 Si / 1000 Ang^3
#
#
#
# Elastic Constant Matrix: (Units=GPa)
#
#
# Indices 1 2 3 4 5 6 
#
# 1 123.6958 42.2432 39.8958 0.0000 0.0000 0.0000
# 2 42.2432 85.6232 21.0862 0.0000 0.0000 0.0000
# 3 39.8958 21.0862 100.8194 0.0000 0.0000 0.0000
# 4 0.0000 0.0000 0.0000 42.8776 0.0000 0.0000
# 5 0.0000 0.0000 0.0000 0.0000 18.4861 0.0000
# 6 0.0000 0.0000 0.0000 0.0000 0.0000 3.1458
#
#
#
# Elastic Compliance Matrix: (Units=1/GPa)
#
#
# Indices 1 2 3 4 5 6 
#
# 1 0.010666 -0.004452 -0.003289 0.000000 0.000000 0.000000
# 2 -0.004452 0.014172 -0.001202 0.000000 0.000000 0.000000
# 3 -0.003289 -0.001202 0.011472 0.000000 0.000000 0.000000
# 4 0.000000 0.000000 0.000000 0.023322 0.000000 0.000000
# 5 0.000000 0.000000 0.000000 0.000000 0.054095 0.000000
# 6 0.000000 0.000000 0.000000 0.000000 0.000000 0.317884
#
#
# Mechanical properties :
#
#
# Convention : Reuss Voigt Hill
#
# Bulk Modulus (GPa) = 54.28350 57.39873 55.84111
# Shear Modulus (GPa) = 10.97361 26.69612 18.83487
#
# Velocity S-wave (km/s) = 2.46837 3.84999 3.23382
# Velocity P-wave (km/s) = 6.18574 7.18557 6.70432
#
# Compressibility (1/GPa) = 0.01842180
#
# Stress axis : x y z
#
# Youngs Moduli (GPa) = 93.75864 70.56383 87.16981
#
# Poissons Ratio (x) = 0.31415 0.28674
# Poissons Ratio (y) = 0.41741 0.10480
# Poissons Ratio (z) = 0.30842 0.08484
#
# Static dielectric constant tensor:
#      x y z
#    x 1.613940 0.000000 0.000000 
#    y 0.000000 1.636240 0.000000 
#    z 0.000000 0.000000 1.678390 
# 
# From -- ./inp_files/22258.got.cif
#   From: 2010.05.17/outbox.cif.g08.bks.cpg/sg74_12_cif.got.tgz:22258.got - 2010.06.03 17:57:02.
