data_PCOD9534150
_publ_section_title
;
Structure prediction by ZEFSAII (Michael W. Deem and Ramdas Pophale) SiO2 
 PCOD9534150
Probable space group: I M M A
;
_chemical_formula_sum "Si O2"
_cell_formula_units_Z 96
_cell_length_a 18.460151
_cell_length_b 16.893942
_cell_length_c 19.026538
_cell_angle_alpha 90.000000
_cell_angle_beta 90.000000
_cell_angle_gamma 90.000000
_cell_volume 5933.705952
_symmetry_space_group_name_H-M "I M M A"
_symmetry_group_IT_number 74
_symmetry_cell_setting 'orthorhombic'
loop_
_space_group_symop_operation_xyz
x,y,z
-x,1/2-y,z
x,-y,-z
-x,1/2+y,-z
-x,-y,-z
x,1/2+y,-z
-x,y,z
x,1/2-y,z
1/2+x,1/2+y,1/2+z
1/2-x,-y,1/2+z
1/2+x,1/2-y,1/2-z
1/2-x,y,1/2-z
1/2-x,1/2-y,1/2-z
1/2+x,y,1/2-z
1/2-x,1/2+y,1/2+z
1/2+x,-y,1/2+z
loop_
_atom_site_type_symbol
_atom_site_label
_atom_site_fract_x
_atom_site_fract_y
_atom_site_fract_z
Si Si1 0.082862 0.750000 0.789515
Si Si2 0.803803 0.383387 0.182901
Si Si3 0.187209 0.579183 0.407820
Si Si4 0.682229 0.606743 0.927420
Si Si5 0.917487 0.750000 0.620560
Si Si6 0.812649 0.066809 0.808914
Si Si7 0.084895 0.344596 0.709287
O O1 0.128869 0.825521 0.813107
O O2 0.082730 0.750000 0.704864
O O3 0.000000 0.750000 0.813937
O O4 0.750000 0.370260 0.250000
O O5 0.755834 0.370370 0.113291
O O6 0.829824 0.474079 0.185421
O O7 0.185146 0.605204 0.488449
O O8 0.169766 0.484764 0.403911
O O9 0.268743 0.591817 0.378299
O O10 0.130174 0.623371 0.357653
O O11 0.623093 0.670744 0.904313
O O12 0.000000 0.750000 0.595037
O O13 0.750000 0.073357 0.750000
O O14 0.878837 0.116838 0.778648
O O15 0.092135 0.250000 0.712429
O O16 0.000000 0.364732 0.703464
#
# Coordination Sequence:
#
# PCOD9534150 Si02
#       7
#     8  16  16  16   8  16  16
#     4  11  22  32  48  76 108 138 172 211 249 299
#     4  10  17  33  54  74 100 135 177 216 251 293
#     4   9  20  36  55  78 102 131 175 215 256 302
#     4  10  20  36  54  76 105 138 170 215 258 295
#     4  11  23  33  47  77 111 142 173 201 246 313
#     4   8  17  33  54  76  96 128 173 218 251 297
#     4  10  21  35  52  76 108 137 165 207 260 312
#
# _framework density 16.178758999999999
#
# number of rings (size 3 to 8) (size 9 to 14) (size 15 to 20)
#    0.000    2.333    1.667    1.750    1.167    5.000 
#    0.000    1.667    0.000    1.000    0.000    4.667 
#    0.000    0.000    0.000    0.000    0.000    0.000 
#
# Total GULP energy -267527.006811 kJ/mol
# GULP energy per Si atom -5573.479309 kJ/mol
# Density = 1.614194 g / cm^3
# Si number density = 16.178759 Si / 1000 Ang^3
#
#
#
# Elastic Constant Matrix: (Units=GPa)
#
#
# Indices 1 2 3 4 5 6 
#
# 1 136.2727 84.0691 61.2851 0.0000 0.0000 0.0000
# 2 84.0691 77.7621 47.6571 0.0000 0.0000 0.0000
# 3 61.2851 47.6571 67.1261 0.0000 0.0000 0.0000
# 4 0.0000 0.0000 0.0000 9.1395 0.0000 0.0000
# 5 0.0000 0.0000 0.0000 0.0000 17.4965 0.0000
# 6 0.0000 0.0000 0.0000 0.0000 0.0000 32.8651
#
#
#
# Elastic Compliance Matrix: (Units=1/GPa)
#
#
# Indices 1 2 3 4 5 6 
#
# 1 0.023325 -0.021537 -0.006005 0.000000 0.000000 0.000000
# 2 -0.021537 0.042650 -0.010617 0.000000 0.000000 0.000000
# 3 -0.006005 -0.010617 0.027918 0.000000 0.000000 0.000000
# 4 0.000000 0.000000 0.000000 0.109415 0.000000 0.000000
# 5 0.000000 0.000000 0.000000 0.000000 0.057154 0.000000
# 6 0.000000 0.000000 0.000000 0.000000 0.000000 0.030427
#
#
# Mechanical properties :
#
#
# Convention : Reuss Voigt Hill
#
# Bulk Modulus (GPa) = 56.90012 74.13148 65.51580
# Shear Modulus (GPa) = 13.40238 17.77686 15.58962
#
# Velocity S-wave (km/s) = 2.88131 3.31838 3.10754
# Velocity P-wave (km/s) = 6.80553 7.78472 7.31154
#
# Compressibility (1/GPa) = 0.01757465
#
# Stress axis : x y z
#
# Youngs Moduli (GPa) = 42.87163 23.44654 35.81905
#
# Poissons Ratio (x) = 0.50496 0.21511
# Poissons Ratio (y) = 0.92332 0.38030
# Poissons Ratio (z) = 0.25746 0.24894
#
# Static dielectric constant tensor:
#      x y z
#    x 1.526100 0.000000 0.000000 
#    y 0.000000 1.552460 0.000000 
#    z 0.000000 0.000000 1.548370 
# 
# From -- ./inp_files/44143.got.cif
#   From: 2010.05.17/outbox.cif.g08.bks.cpg/sg74_23_cif.got.tgz:44143.got - 2010.06.03 17:57:02.
