data_PCOD9534615
_publ_section_title
;
Structure prediction by ZEFSAII (Michael W. Deem and Ramdas Pophale) SiO2 
 PCOD9534615
Probable space group: I M M A
;
_chemical_formula_sum "Si O2"
_cell_formula_units_Z 52
_cell_length_a 7.925926
_cell_length_b 21.477529
_cell_length_c 11.844733
_cell_angle_alpha 90.000000
_cell_angle_beta 90.000000
_cell_angle_gamma 90.000000
_cell_volume 2016.320673
_symmetry_space_group_name_H-M "I M M A"
_symmetry_group_IT_number 74
_symmetry_cell_setting 'orthorhombic'
loop_
_space_group_symop_operation_xyz
x,y,z
-x,1/2-y,z
x,-y,-z
-x,1/2+y,-z
-x,-y,-z
x,1/2+y,-z
-x,y,z
x,1/2-y,z
1/2+x,1/2+y,1/2+z
1/2-x,-y,1/2+z
1/2+x,1/2-y,1/2-z
1/2-x,y,1/2-z
1/2-x,1/2-y,1/2-z
1/2+x,y,1/2-z
1/2-x,1/2+y,1/2+z
1/2+x,-y,1/2+z
loop_
_atom_site_type_symbol
_atom_site_label
_atom_site_fract_x
_atom_site_fract_y
_atom_site_fract_z
Si Si1 0.315504 0.657643 0.608645
Si Si2 0.308678 0.489150 0.374026
Si Si3 0.812193 0.325221 0.628499
Si Si4 0.500000 0.250000 0.167099
O O1 0.500000 0.684405 0.643340
O O2 0.308502 0.585592 0.638707
O O3 0.307647 0.658349 0.473190
O O4 0.153085 0.696360 0.648007
O O5 0.227639 0.500000 0.500000
O O6 0.500000 0.512729 0.384824
O O7 0.250000 0.512646 0.250000
O O8 0.821069 0.250000 0.629566
O O9 0.750000 0.345057 0.750000
O O10 0.000000 0.349363 0.605715
#
# Coordination Sequence:
#
# PCOD9534615 Si02
#       4
#    16  16  16   4
#     4  11  22  40  66  97 146 191 243 307 369 449
#     4  10  25  49  78 112 151 195 257 323 386 453
#     4  10  18  30  50  83 127 180 238 293 353 431
#     4  12  22  40  66 102 142 198 248 288 378 466
#
# _framework density 25.789549000000001
#
# number of rings (size 3 to 8) (size 9 to 14) (size 15 to 20)
#    0.000    1.538    3.077    1.385    2.154    3.077 
#    0.000    3.846    0.000    0.000    0.000    0.000 
#    0.000    0.000    0.000    0.000    0.000    0.000 
#
# Total GULP energy -144866.361655 kJ/mol
# GULP energy per Si atom -5571.783141 kJ/mol
# Density = 2.573085 g / cm^3
# Si number density = 25.789549 Si / 1000 Ang^3
#
#
#
# Elastic Constant Matrix: (Units=GPa)
#
#
# Indices 1 2 3 4 5 6 
#
# 1 198.4051 22.2857 79.4957 0.0000 0.0000 0.0000
# 2 22.2857 108.3461 -11.7397 0.0001 0.0000 0.0000
# 3 79.4957 -11.7397 235.8709 -0.0001 0.0000 -0.0001
# 4 0.0000 0.0001 -0.0001 -1.2926 0.0000 -0.0001
# 5 0.0000 0.0000 0.0000 0.0000 49.0420 0.0000
# 6 0.0000 0.0000 -0.0001 -0.0001 0.0000 14.8030
#
#
#
# Elastic Compliance Matrix: (Units=1/GPa)
#
#
# Indices 1 2 3 4 5 6 
#
# 1 0.006052 -0.001474 -0.002113 0.000000 0.000000 0.000000
# 2 -0.001474 0.009639 0.000976 0.000000 0.000000 0.000000
# 3 -0.002113 0.000976 0.005000 0.000000 0.000000 0.000000
# 4 0.000000 0.000000 0.000000 -0.773663 0.000000 -0.000004
# 5 0.000000 0.000000 0.000000 0.000000 0.020391 0.000000
# 6 0.000000 0.000000 0.000000 -0.000004 0.000000 0.067554
#
#
# Mechanical properties :
#
#
# Convention : Reuss Voigt Hill
#
# Bulk Modulus (GPa) = 64.64018 80.30061 72.47040
# Shear Modulus (GPa) = -7.63768 42.68253 17.52242
#
# Velocity S-wave (km/s) = -1.72278 4.07262 2.60943
# Velocity P-wave (km/s) = 4.60017 7.30202 6.10250
#
# Compressibility (1/GPa) = 0.01547025
#
# Stress axis : x y z
#
# Youngs Moduli (GPa) = 165.22199 103.74893 199.98275
#
# Poissons Ratio (x) = 0.15292 0.42261
# Poissons Ratio (y) = 0.24352 -0.19528
# Poissons Ratio (z) = 0.34915 -0.10131
#
# Static dielectric constant tensor:
#      x y z
#    x 2.007550 0.000000 0.000000 
#    y 0.000000 2.021260 0.000000 
#    z 0.000000 0.000000 2.158710 
# 
# From -- ./inp_files/17201.got.cif
#   From: 2010.05.17/outbox.cif.g08.bks.cpg/sg74_9_cif.got.tgz:17201.got - 2010.06.03 17:57:02.
