data_PCOD9534475
_publ_section_title
;
Structure prediction by ZEFSAII (Michael W. Deem and Ramdas Pophale) SiO2 
 PCOD9534475
Probable space group: I M M A
;
_chemical_formula_sum "Si O2"
_cell_formula_units_Z 128
_cell_length_a 25.025789
_cell_length_b 24.863459
_cell_length_c 10.598187
_cell_angle_alpha 90.000000
_cell_angle_beta 90.000000
_cell_angle_gamma 90.000000
_cell_volume 6594.485296
_symmetry_space_group_name_H-M "I M M A"
_symmetry_group_IT_number 74
_symmetry_cell_setting 'orthorhombic'
loop_
_space_group_symop_operation_xyz
x,y,z
-x,1/2-y,z
x,-y,-z
-x,1/2+y,-z
-x,-y,-z
x,1/2+y,-z
-x,y,z
x,1/2-y,z
1/2+x,1/2+y,1/2+z
1/2-x,-y,1/2+z
1/2+x,1/2-y,1/2-z
1/2-x,y,1/2-z
1/2-x,1/2-y,1/2-z
1/2+x,y,1/2-z
1/2-x,1/2+y,1/2+z
1/2+x,-y,1/2+z
loop_
_atom_site_type_symbol
_atom_site_label
_atom_site_fract_x
_atom_site_fract_y
_atom_site_fract_z
Si Si1 0.214924 0.689754 0.468804
Si Si2 0.789890 0.371307 0.132317
Si Si3 0.437143 0.005683 0.186761
Si Si4 0.563927 0.613340 0.925068
Si Si5 0.364805 0.808250 0.788797
Si Si6 0.109223 0.185980 0.653448
Si Si7 0.386793 0.054580 0.430429
Si Si8 0.064051 0.102286 0.822529
O O1 0.237460 0.750000 0.453311
O O2 0.257340 0.645032 0.507871
O O3 0.174880 0.691667 0.590288
O O4 0.173237 0.678281 0.357514
O O5 0.750000 0.382258 0.250000
O O6 0.825774 0.320336 0.173502
O O7 0.832732 0.417858 0.116257
O O8 0.500000 0.998618 0.162525
O O9 0.418379 0.050283 0.082735
O O10 0.425973 0.037996 0.316878
O O11 0.417028 0.945767 0.225090
O O12 0.500000 0.613843 0.916763
O O13 0.592527 0.645139 0.811081
O O14 0.581481 0.649572 0.044351
O O15 0.390635 0.750000 0.781135
O O16 0.098756 0.250000 0.637931
O O17 0.086679 0.159306 0.778698
O O18 0.416215 0.089002 0.537473
O O19 0.371154 0.000000 0.500000
O O20 0.000000 0.102095 0.818118
#
# Coordination Sequence:
#
# PCOD9534475 Si02
#       8
#    16  16  16  16  16  16  16  16
#     4   8  16  31  52  75 100 136 182 222 259 315
#     4  10  18  32  55  78 106 137 179 228 282 329
#     4   9  18  34  57  84 109 139 184 235 281 330
#     4  10  18  29  51  81 114 145 177 225 281 334
#     4   9  16  27  47  76 106 136 171 214 269 328
#     4  10  21  37  55  79 113 154 192 225 274 338
#     4  10  20  37  57  81 110 145 186 231 277 334
#     4  10  21  37  59  80 106 151 194 227 268 330
#
# _framework density 19.410157000000002
#
# number of rings (size 3 to 8) (size 9 to 14) (size 15 to 20)
#    0.000    2.500    1.250    2.250    0.000    5.250 
#    0.000    6.250    0.000    1.500    0.000    0.000 
#    0.000    0.000    0.000    0.000    0.000    0.000 
#
# Total GULP energy -356318.411970 kJ/mol
# GULP energy per Si atom -5567.475187 kJ/mol
# Density = 1.936598 g / cm^3
# Si number density = 19.410157 Si / 1000 Ang^3
#
#
#
# Elastic Constant Matrix: (Units=GPa)
#
#
# Indices 1 2 3 4 5 6 
#
# 1 37.0150 10.4148 8.5169 0.0000 0.0000 0.0000
# 2 10.4148 79.9813 19.3757 0.0000 0.0000 0.0000
# 3 8.5169 19.3757 38.2297 0.0000 0.0000 0.0000
# 4 0.0000 0.0000 0.0000 23.8521 0.0000 0.0000
# 5 0.0000 0.0000 0.0000 0.0000 18.0971 0.0000
# 6 0.0000 0.0000 0.0000 0.0000 0.0000 20.7815
#
#
#
# Elastic Compliance Matrix: (Units=1/GPa)
#
#
# Indices 1 2 3 4 5 6 
#
# 1 0.028912 -0.002513 -0.005167 0.000000 0.000000 0.000000
# 2 -0.002513 0.014471 -0.006775 0.000000 0.000000 0.000000
# 3 -0.005167 -0.006775 0.030742 0.000000 0.000000 0.000000
# 4 0.000000 0.000000 0.000000 0.041925 0.000000 0.000000
# 5 0.000000 0.000000 0.000000 0.000000 0.055257 0.000000
# 6 0.000000 0.000000 0.000000 0.000000 0.000000 0.048120
#
#
# Mechanical properties :
#
#
# Convention : Reuss Voigt Hill
#
# Bulk Modulus (GPa) = 22.11612 25.76008 23.93810
# Shear Modulus (GPa) = 18.98182 20.34071 19.66126
#
# Velocity S-wave (km/s) = 3.13058 3.24070 3.18612
# Velocity P-wave (km/s) = 4.94836 5.22524 5.08868
#
# Compressibility (1/GPa) = 0.04521588
#
# Stress axis : x y z
#
# Youngs Moduli (GPa) = 34.58752 69.10228 32.52840
#
# Poissons Ratio (x) = 0.17365 0.16809
# Poissons Ratio (y) = 0.08692 0.22036
# Poissons Ratio (z) = 0.17873 0.46814
#
# Static dielectric constant tensor:
#      x y z
#    x 1.654370 0.000000 0.000000 
#    y 0.000000 1.702730 0.000000 
#    z 0.000000 0.000000 1.775800 
# 
# From -- ./inp_files/26591.got.cif
#   From: 2010.05.17/outbox.cif.g08.bks.cpg/sg74_14_cif.got.tgz:26591.got - 2010.06.03 17:57:02.
