data_PCOD9534859
_publ_section_title
;
Structure prediction by ZEFSAII (Michael W. Deem and Ramdas Pophale) SiO2 
 PCOD9534859
Probable space group: I M M A
;
_chemical_formula_sum "Si O2"
_cell_formula_units_Z 88
_cell_length_a 18.911827
_cell_length_b 8.391984
_cell_length_c 30.625749
_cell_angle_alpha 90.000000
_cell_angle_beta 90.000000
_cell_angle_gamma 90.000000
_cell_volume 4860.543703
_symmetry_space_group_name_H-M "I M M A"
_symmetry_group_IT_number 74
_symmetry_cell_setting 'orthorhombic'
loop_
_space_group_symop_operation_xyz
x,y,z
-x,1/2-y,z
x,-y,-z
-x,1/2+y,-z
-x,-y,-z
x,1/2+y,-z
-x,y,z
x,1/2-y,z
1/2+x,1/2+y,1/2+z
1/2-x,-y,1/2+z
1/2+x,1/2-y,1/2-z
1/2-x,y,1/2-z
1/2-x,1/2-y,1/2-z
1/2+x,y,1/2-z
1/2-x,1/2+y,1/2+z
1/2+x,-y,1/2+z
loop_
_atom_site_type_symbol
_atom_site_label
_atom_site_fract_x
_atom_site_fract_y
_atom_site_fract_z
Si Si1 0.920222 0.058927 0.854928
Si Si2 0.150705 0.941113 0.450227
Si Si3 0.917310 0.437008 0.242092
Si Si4 0.728354 0.554978 0.384078
Si Si5 0.206865 0.941412 0.292231
Si Si6 0.000000 0.439635 0.449751
O O1 0.923365 0.250000 0.859138
O O2 0.853785 0.002316 0.883886
O O3 0.000000 0.995933 0.863696
O O4 0.902137 0.020768 0.804395
O O5 0.149098 0.750000 0.450306
O O6 0.218335 0.995882 0.422166
O O7 0.156571 0.000000 0.500000
O O8 0.074969 0.999427 0.431407
O O9 0.902439 0.250000 0.237135
O O10 0.872177 0.507453 0.281358
O O11 0.000000 0.458512 0.250293
O O12 0.727616 0.750000 0.384578
O O13 0.761962 0.502442 0.337943
O O14 0.211484 0.750000 0.292646
O O15 0.250000 0.000916 0.250000
O O16 0.000000 0.500000 0.500000
O O17 0.000000 0.250000 0.449472
#
# Coordination Sequence:
#
# PCOD9534859 Si02
#       6
#    16  16  16  16  16   8
#     4   9  16  30  53  75  95 126 170 210 243 284
#     4  10  19  34  55  76 103 130 164 204 248 294
#     4  10  20  32  45  66  99 134 166 201 245 292
#     4   9  18  32  51  77 100 125 162 209 249 288
#     4  10  18  32  52  71  96 127 167 208 244 287
#     4  10  18  32  54  78 102 128 166 202 244 294
#
# _framework density 18.104969000000001
#
# number of rings (size 3 to 8) (size 9 to 14) (size 15 to 20)
#    0.000    2.364    1.818    3.000    0.000    1.455 
#    1.636    3.636    0.000    0.545    0.000    0.000 
#    0.000    0.000    0.000    0.000    0.000    0.727 
#
# Total GULP energy -245203.692851 kJ/mol
# GULP energy per Si atom -5572.811201 kJ/mol
# Density = 1.806376 g / cm^3
# Si number density = 18.104969 Si / 1000 Ang^3
#
#
#
# Elastic Constant Matrix: (Units=GPa)
#
#
# Indices 1 2 3 4 5 6 
#
# 1 151.6305 22.1428 63.6544 0.0000 0.0000 0.0000
# 2 22.1428 17.2444 12.9952 0.0000 0.0000 0.0000
# 3 63.6544 12.9952 63.7594 0.0000 0.0000 0.0000
# 4 0.0000 0.0000 0.0000 9.7186 0.0000 0.0000
# 5 0.0000 0.0000 0.0000 0.0000 30.7780 0.0000
# 6 0.0000 0.0000 0.0000 0.0000 0.0000 15.4632
#
#
#
# Elastic Compliance Matrix: (Units=1/GPa)
#
#
# Indices 1 2 3 4 5 6 
#
# 1 0.012148 -0.007631 -0.010572 0.000000 0.000000 0.000000
# 2 -0.007631 0.073307 -0.007323 0.000000 0.000000 0.000000
# 3 -0.010572 -0.007323 0.027731 0.000000 0.000000 0.000000
# 4 0.000000 0.000000 0.000000 0.102896 0.000000 0.000000
# 5 0.000000 0.000000 0.000000 0.000000 0.032491 0.000000
# 6 0.000000 0.000000 0.000000 0.000000 0.000000 0.064670
#
#
# Mechanical properties :
#
#
# Convention : Reuss Voigt Hill
#
# Bulk Modulus (GPa) = 16.09427 47.80212 31.94819
# Shear Modulus (GPa) = 12.98685 20.11476 16.55080
#
# Velocity S-wave (km/s) = 2.68117 3.33679 3.02678
# Velocity P-wave (km/s) = 4.30042 6.42695 5.46806
#
# Compressibility (1/GPa) = 0.06213392
#
# Stress axis : x y z
#
# Youngs Moduli (GPa) = 82.32089 13.64128 36.06040
#
# Poissons Ratio (x) = 0.10410 0.38124
# Poissons Ratio (y) = 0.62820 0.26406
# Poissons Ratio (z) = 0.87032 0.09989
#
# Static dielectric constant tensor:
#      x y z
#    x 1.693410 0.000000 0.000000 
#    y 0.000000 1.648120 0.000000 
#    z 0.000000 0.000000 1.595840 
# 
# From -- ./inp_files/72963.got.cif
#   From: 2010.05.17/outbox.cif.g08.bks.cpg/sg74_37_cif.got.tgz:72963.got - 2010.06.03 17:57:02.
