data_PCOD9534304
_publ_section_title
;
Structure prediction by ZEFSAII (Michael W. Deem and Ramdas Pophale) SiO2 
 PCOD9534304
Probable space group: I M M A
;
_chemical_formula_sum "Si O2"
_cell_formula_units_Z 72
_cell_length_a 15.047575
_cell_length_b 11.169749
_cell_length_c 19.643089
_cell_angle_alpha 90.000000
_cell_angle_beta 90.000000
_cell_angle_gamma 90.000000
_cell_volume 3301.563959
_symmetry_space_group_name_H-M "I M M A"
_symmetry_group_IT_number 74
_symmetry_cell_setting 'orthorhombic'
loop_
_space_group_symop_operation_xyz
x,y,z
-x,1/2-y,z
x,-y,-z
-x,1/2+y,-z
-x,-y,-z
x,1/2+y,-z
-x,y,z
x,1/2-y,z
1/2+x,1/2+y,1/2+z
1/2-x,-y,1/2+z
1/2+x,1/2-y,1/2-z
1/2-x,y,1/2-z
1/2-x,1/2-y,1/2-z
1/2+x,y,1/2-z
1/2-x,1/2+y,1/2+z
1/2+x,-y,1/2+z
loop_
_atom_site_type_symbol
_atom_site_label
_atom_site_fract_x
_atom_site_fract_y
_atom_site_fract_z
Si Si1 0.901848 0.114406 0.735798
Si Si2 0.597980 0.881706 0.954338
Si Si3 0.750000 0.947544 0.750000
Si Si4 0.397103 0.116224 0.598527
Si Si5 0.791860 0.879268 0.893090
O O1 0.889786 0.250000 0.711681
O O2 0.898460 0.116989 0.818427
O O3 0.000000 0.072875 0.715886
O O4 0.821871 0.032311 0.713701
O O5 0.500000 0.885149 0.919779
O O6 0.600324 0.750000 0.990278
O O7 0.687568 0.883197 0.910870
O O8 0.601527 0.000000 0.000000
O O9 0.797942 0.880049 0.810847
O O10 0.500000 0.104493 0.576528
O O11 0.364424 0.250000 0.578523
O O12 0.340657 0.998596 0.580228
O O13 0.827361 0.750000 0.917674
#
# Coordination Sequence:
#
# PCOD9534304 Si02
#       5
#    16  16   8  16  16
#     4   8  14  25  40  59  87 125 167 207 245 288
#     4   9  19  37  58  78 103 137 179 227 273 313
#     4  10  18  28  44  68 103 140 169 200 251 324
#     4   8  15  29  48  69  95 129 167 204 244 294
#     4  10  20  32  49  75 106 138 171 211 262 319
#
# _framework density 21.807846000000001
#
# number of rings (size 3 to 8) (size 9 to 14) (size 15 to 20)
#    0.000    3.111    0.000    2.000    0.000    3.111 
#    0.000    0.000    0.000    7.333    0.000    0.000 
#    0.000    0.000    0.000    0.000    0.000    0.000 
#
# Total GULP energy -200462.606693 kJ/mol
# GULP energy per Si atom -5568.405741 kJ/mol
# Density = 2.175821 g / cm^3
# Si number density = 21.807846 Si / 1000 Ang^3
#
#
#
# Elastic Constant Matrix: (Units=GPa)
#
#
# Indices 1 2 3 4 5 6 
#
# 1 87.9348 91.7315 -8.6556 0.0000 0.0000 0.0000
# 2 91.7315 213.0135 26.3779 0.0000 0.0000 0.0000
# 3 -8.6556 26.3779 34.0463 0.0000 0.0000 0.0000
# 4 0.0000 0.0000 0.0000 5.7595 0.0000 0.0000
# 5 0.0000 0.0000 0.0000 0.0000 14.5658 0.0000
# 6 0.0000 0.0000 0.0000 0.0000 0.0000 -126.1805
#
#
#
# Elastic Compliance Matrix: (Units=1/GPa)
#
#
# Indices 1 2 3 4 5 6 
#
# 1 0.028235 -0.014433 0.018360 0.000000 0.000000 0.000000
# 2 -0.014433 0.012570 -0.013408 0.000000 0.000000 0.000000
# 3 0.018360 -0.013408 0.044428 0.000000 0.000000 0.000000
# 4 0.000000 0.000000 0.000000 0.173626 0.000000 0.000000
# 5 0.000000 0.000000 0.000000 0.000000 0.068654 0.000000
# 6 0.000000 0.000000 0.000000 0.000000 0.000000 -0.007925
#
#
# Mechanical properties :
#
#
# Convention : Reuss Voigt Hill
#
# Bulk Modulus (GPa) = 15.08941 61.54467 38.31704
# Shear Modulus (GPa) = 13.86428 -6.13499 3.86465
#
# Velocity S-wave (km/s) = 2.52414 -1.67908 1.33266
# Velocity P-wave (km/s) = 3.92802 4.95212 4.46950
#
# Compressibility (1/GPa) = 0.06627164
#
# Stress axis : x y z
#
# Youngs Moduli (GPa) = 35.41693 79.55373 22.50850
#
# Poissons Ratio (x) = 1.14817 -0.41326
# Poissons Ratio (y) = 0.51116 0.30180
# Poissons Ratio (z) = -0.65026 1.06667
#
# Static dielectric constant tensor:
#      x y z
#    x 1.787950 0.000000 0.000000 
#    y 0.000000 1.830080 0.000000 
#    z 0.000000 0.000000 1.811110 
# 
# From -- ./inp_files/58407.got.cif
#   From: 2010.05.17/outbox.cif.g08.bks.cpg/sg74_30_cif.got.tgz:58407.got - 2010.06.03 17:57:02.
