data_PCOD9534707
_publ_section_title
;
Structure prediction by ZEFSAII (Michael W. Deem and Ramdas Pophale) SiO2 
 PCOD9534707
Probable space group: I M M A
;
_chemical_formula_sum "Si O2"
_cell_formula_units_Z 96
_cell_length_a 21.851870
_cell_length_b 13.832120
_cell_length_c 19.053164
_cell_angle_alpha 90.000000
_cell_angle_beta 90.000000
_cell_angle_gamma 90.000000
_cell_volume 5758.965301
_symmetry_space_group_name_H-M "I M M A"
_symmetry_group_IT_number 74
_symmetry_cell_setting 'orthorhombic'
loop_
_space_group_symop_operation_xyz
x,y,z
-x,1/2-y,z
x,-y,-z
-x,1/2+y,-z
-x,-y,-z
x,1/2+y,-z
-x,y,z
x,1/2-y,z
1/2+x,1/2+y,1/2+z
1/2-x,-y,1/2+z
1/2+x,1/2-y,1/2-z
1/2-x,y,1/2-z
1/2-x,1/2-y,1/2-z
1/2+x,y,1/2-z
1/2-x,1/2+y,1/2+z
1/2+x,-y,1/2+z
loop_
_atom_site_type_symbol
_atom_site_label
_atom_site_fract_x
_atom_site_fract_y
_atom_site_fract_z
Si Si1 0.813974 0.464895 0.780674
Si Si2 0.634076 0.135514 0.928854
Si Si3 0.176050 0.635805 0.673767
Si Si4 0.748315 0.999683 0.418699
Si Si5 0.068352 0.366776 0.426913
Si Si6 0.431296 0.634521 0.215209
O O1 0.750000 0.420621 0.750000
O O2 0.816547 0.569599 0.742230
O O3 0.804000 0.471253 0.863690
O O4 0.875319 0.410653 0.758468
O O5 0.648049 0.250000 0.931051
O O6 0.585960 0.119211 0.866486
O O7 0.695036 0.075300 0.913952
O O8 0.604559 0.106483 0.002747
O O9 0.182033 0.750000 0.686112
O O10 0.223605 0.598557 0.614138
O O11 0.109807 0.612657 0.640323
O O12 0.730206 0.000000 0.500000
O O13 0.064061 0.250000 0.430107
O O14 0.000000 0.406761 0.424460
O O15 0.500000 0.598303 0.230372
O O16 0.431043 0.750000 0.226442
#
# Coordination Sequence:
#
# PCOD9534707 Si02
#       6
#    16  16  16  16  16  16
#     4  10  21  36  52  77 104 138 179 221 268 314
#     4  10  18  31  49  75 110 142 170 206 255 316
#     4  10  20  35  51  72 104 142 182 221 259 305
#     4  11  21  35  52  76 102 135 180 222 269 315
#     4   9  17  29  47  73 106 142 174 203 245 308
#     4  10  20  34  54  80 109 141 175 213 262 320
#
# _framework density 16.669661000000001
#
# number of rings (size 3 to 8) (size 9 to 14) (size 15 to 20)
#    0.000    2.000    5.000    0.500    0.000    6.667 
#    0.000    0.833    0.000    0.500    0.000    0.000 
#    0.000    2.667    0.000    0.000    0.000    0.000 
#
# Total GULP energy -267754.287446 kJ/mol
# GULP energy per Si atom -5578.214322 kJ/mol
# Density = 1.663172 g / cm^3
# Si number density = 16.669661 Si / 1000 Ang^3
#
#
#
# Elastic Constant Matrix: (Units=GPa)
#
#
# Indices 1 2 3 4 5 6 
#
# 1 114.8239 30.9713 54.7685 0.0000 0.0000 0.0000
# 2 30.9713 64.7236 19.9730 0.0000 0.0000 0.0000
# 3 54.7685 19.9730 110.5665 0.0000 0.0000 0.0000
# 4 0.0000 0.0000 0.0000 17.9871 0.0000 0.0000
# 5 0.0000 0.0000 0.0000 0.0000 8.3825 0.0000
# 6 0.0000 0.0000 0.0000 0.0000 0.0000 21.5309
#
#
#
# Elastic Compliance Matrix: (Units=1/GPa)
#
#
# Indices 1 2 3 4 5 6 
#
# 1 0.012434 -0.004288 -0.005384 0.000000 0.000000 0.000000
# 2 -0.004288 0.017841 -0.001099 0.000000 0.000000 0.000000
# 3 -0.005384 -0.001099 0.011910 0.000000 0.000000 0.000000
# 4 0.000000 0.000000 0.000000 0.055595 0.000000 0.000000
# 5 0.000000 0.000000 0.000000 0.000000 0.119297 0.000000
# 6 0.000000 0.000000 0.000000 0.000000 0.000000 0.046445
#
#
# Mechanical properties :
#
#
# Convention : Reuss Voigt Hill
#
# Bulk Modulus (GPa) = 48.44399 55.72662 52.08530
# Shear Modulus (GPa) = 17.12646 21.87350 19.49998
#
# Velocity S-wave (km/s) = 3.20879 3.62632 3.42393
# Velocity P-wave (km/s) = 6.54620 7.14396 6.85160
#
# Compressibility (1/GPa) = 0.02064240
#
# Stress axis : x y z
#
# Youngs Moduli (GPa) = 80.42527 56.04944 83.96338
#
# Poissons Ratio (x) = 0.24035 0.45209
# Poissons Ratio (y) = 0.34488 0.09225
# Poissons Ratio (z) = 0.43304 0.06158
#
# Static dielectric constant tensor:
#      x y z
#    x 1.569900 0.000000 0.000000 
#    y 0.000000 1.604520 0.000000 
#    z 0.000000 0.000000 1.566610 
# 
# From -- ./inp_files/52256.got.cif
#   From: 2010.05.17/outbox.cif.g08.bks.cpg/sg74_27_cif.got.tgz:52256.got - 2010.06.03 17:57:02.
