data_PCOD9534918
_publ_section_title
;
Structure prediction by ZEFSAII (Michael W. Deem and Ramdas Pophale) SiO2 
 PCOD9534918
Probable space group: I M M A
;
_chemical_formula_sum "Si O2"
_cell_formula_units_Z 80
_cell_length_a 8.396351
_cell_length_b 26.050421
_cell_length_c 21.150791
_cell_angle_alpha 90.000000
_cell_angle_beta 90.000000
_cell_angle_gamma 90.000000
_cell_volume 4626.280333
_symmetry_space_group_name_H-M "I M M A"
_symmetry_group_IT_number 74
_symmetry_cell_setting 'orthorhombic'
loop_
_space_group_symop_operation_xyz
x,y,z
-x,1/2-y,z
x,-y,-z
-x,1/2+y,-z
-x,-y,-z
x,1/2+y,-z
-x,y,z
x,1/2-y,z
1/2+x,1/2+y,1/2+z
1/2-x,-y,1/2+z
1/2+x,1/2-y,1/2-z
1/2-x,y,1/2-z
1/2-x,1/2-y,1/2-z
1/2+x,y,1/2-z
1/2-x,1/2+y,1/2+z
1/2+x,-y,1/2+z
loop_
_atom_site_type_symbol
_atom_site_label
_atom_site_fract_x
_atom_site_fract_y
_atom_site_fract_z
Si Si1 0.307477 0.031788 0.937689
Si Si2 0.807216 0.138340 0.362040
Si Si3 0.694811 0.861131 0.009782
Si Si4 0.186180 0.750000 0.489923
Si Si5 0.685732 0.250000 0.144020
Si Si6 0.311666 0.469899 0.316929
O O1 0.500000 0.030965 0.935713
O O2 0.254632 0.090413 0.948943
O O3 0.246417 0.004279 0.875245
O O4 0.258743 0.000000 0.000000
O O5 0.761007 0.131664 0.436002
O O6 0.746391 0.194129 0.338039
O O7 0.750865 0.088191 0.326100
O O8 0.000000 0.140129 0.360402
O O9 0.500000 0.859929 0.010409
O O10 0.754240 0.804873 0.030408
O O11 0.188248 0.750000 0.566913
O O12 0.000000 0.750000 0.471455
O O13 0.500000 0.250000 0.163467
O O14 0.500000 0.468504 0.316597
O O15 0.250000 0.490069 0.250000
#
# Coordination Sequence:
#
# PCOD9534918 Si02
#       6
#    16  16  16   8   8  16
#     4  10  18  32  54  78 103 133 167 205 251 302
#     4   9  15  30  51  74 100 131 168 207 249 295
#     4   8  13  23  45  74 103 132 160 196 241 291
#     4   7  10  18  36  70 105 128 157 193 233 286
#     4   7  12  22  46  74  97 126 165 207 244 286
#     4  12  25  38  51  70  98 135 173 215 258 303
#
# _framework density 17.292511000000001
#
# number of rings (size 3 to 8) (size 9 to 14) (size 15 to 20)
#    0.000    2.800    2.000    4.200    0.000    0.400 
#    0.000    1.000    0.000    0.000    0.000    1.400 
#    0.000    0.000    0.000    0.000    0.000    0.000 
#
# Total GULP energy -222843.419435 kJ/mol
# GULP energy per Si atom -5571.085486 kJ/mol
# Density = 1.725315 g / cm^3
# Si number density = 17.292511 Si / 1000 Ang^3
#
#
#
# Elastic Constant Matrix: (Units=GPa)
#
#
# Indices 1 2 3 4 5 6 
#
# 1 15.8615 19.2702 16.4561 0.0000 0.0000 0.0000
# 2 19.2702 139.5569 58.2646 0.0000 0.0000 0.0000
# 3 16.4561 58.2646 91.8975 0.0000 0.0000 0.0000
# 4 0.0000 0.0000 0.0000 21.9446 0.0000 0.0000
# 5 0.0000 0.0000 0.0000 0.0000 17.2470 0.0000
# 6 0.0000 0.0000 0.0000 0.0000 0.0000 3.6291
#
#
#
# Elastic Compliance Matrix: (Units=1/GPa)
#
#
# Indices 1 2 3 4 5 6 
#
# 1 0.082279 -0.007085 -0.010241 0.000000 0.000000 0.000000
# 2 -0.007085 0.010355 -0.005297 0.000000 0.000000 0.000000
# 3 -0.010241 -0.005297 0.016074 0.000000 0.000000 0.000000
# 4 0.000000 0.000000 0.000000 0.045569 0.000000 0.000000
# 5 0.000000 0.000000 0.000000 0.000000 0.057981 0.000000
# 6 0.000000 0.000000 0.000000 0.000000 0.000000 0.275554
#
#
# Mechanical properties :
#
#
# Convention : Reuss Voigt Hill
#
# Bulk Modulus (GPa) = 15.75764 48.36641 32.06202
# Shear Modulus (GPa) = 9.02180 18.78581 13.90380
#
# Velocity S-wave (km/s) = 2.28659 3.29957 2.83863
# Velocity P-wave (km/s) = 4.01292 6.52277 5.41526
#
# Compressibility (1/GPa) = 0.06346130
#
# Stress axis : x y z
#
# Youngs Moduli (GPa) = 12.15372 96.56969 62.21322
#
# Poissons Ratio (x) = 0.68424 0.63716
# Poissons Ratio (y) = 0.08611 0.32952
# Poissons Ratio (z) = 0.12447 0.51149
#
# Static dielectric constant tensor:
#      x y z
#    x 1.592180 0.000000 0.000000 
#    y 0.000000 1.646070 0.000000 
#    z 0.000000 0.000000 1.573620 
# 
# From -- ./inp_files/39800.got.cif
#   From: 2010.05.17/outbox.cif.g08.bks.cpg/sg74_20_cif.got.tgz:39800.got - 2010.06.03 17:57:02.
