data_PCOD9534184
_publ_section_title
;
Structure prediction by ZEFSAII (Michael W. Deem and Ramdas Pophale) SiO2 
 PCOD9534184
Probable space group: I M M A
;
_chemical_formula_sum "Si O2"
_cell_formula_units_Z 96
_cell_length_a 11.908740
_cell_length_b 18.787284
_cell_length_c 28.304638
_cell_angle_alpha 90.000000
_cell_angle_beta 90.000000
_cell_angle_gamma 90.000000
_cell_volume 6332.678190
_symmetry_space_group_name_H-M "I M M A"
_symmetry_group_IT_number 74
_symmetry_cell_setting 'orthorhombic'
loop_
_space_group_symop_operation_xyz
x,y,z
-x,1/2-y,z
x,-y,-z
-x,1/2+y,-z
-x,-y,-z
x,1/2+y,-z
-x,y,z
x,1/2-y,z
1/2+x,1/2+y,1/2+z
1/2-x,-y,1/2+z
1/2+x,1/2-y,1/2-z
1/2-x,y,1/2-z
1/2-x,1/2-y,1/2-z
1/2+x,y,1/2-z
1/2-x,1/2+y,1/2+z
1/2+x,-y,1/2+z
loop_
_atom_site_type_symbol
_atom_site_label
_atom_site_fract_x
_atom_site_fract_y
_atom_site_fract_z
Si Si1 0.629820 0.075630 0.401725
Si Si2 0.500000 0.335347 0.057188
Si Si3 0.868759 0.168692 0.002299
Si Si4 0.123922 0.166694 0.261755
Si Si5 0.312147 0.832332 0.868060
Si Si6 0.243274 0.452916 0.548473
Si Si7 0.500000 0.568742 0.033537
O O1 0.500000 0.066889 0.389643
O O2 0.637153 0.127228 0.447880
O O3 0.704283 0.117780 0.364405
O O4 0.687061 0.001053 0.415452
O O5 0.500000 0.250000 0.055391
O O6 0.608929 0.356728 0.088244
O O7 0.500000 0.367768 0.005006
O O8 0.828070 0.250000 0.006426
O O9 0.802141 0.120765 0.965276
O O10 0.000000 0.169997 0.989276
O O11 0.126479 0.250000 0.246104
O O12 0.250000 0.137633 0.250000
O O13 0.123003 0.165670 0.318820
O O14 0.000000 0.138193 0.245809
O O15 0.280219 0.750000 0.876542
O O16 0.241526 0.500000 0.500000
O O17 0.115284 0.436240 0.562064
O O18 0.500000 0.500000 0.000000
#
# Coordination Sequence:
#
# PCOD9534184 Si02
#       7
#    16   8  16  16  16  16   8
#     4  10  19  28  39  55  76 101 130 169 212 246
#     4  10  18  28  42  58  78 100 128 170 214 244
#     4   9  16  26  39  53  71  98 130 164 202 243
#     4   9  17  30  45  61  81 107 135 164 202 249
#     4  10  18  28  42  59  79 101 129 166 208 248
#     4   9  17  28  38  51  72  97 129 164 204 246
#     4  10  18  26  38  54  70  96 130 162 202 246
#
# _framework density 15.159464
#
# number of rings (size 3 to 8) (size 9 to 14) (size 15 to 20)
#    0.000    2.500    0.833    4.000    0.000    5.667 
#    0.000    1.667    0.000    0.000    0.000    0.000 
#    0.000    0.000    0.000    0.000    0.000    0.833 
#
# Total GULP energy -267249.031850 kJ/mol
# GULP energy per Si atom -5567.688164 kJ/mol
# Density = 1.512496 g / cm^3
# Si number density = 15.159464 Si / 1000 Ang^3
#
#
#
# Elastic Constant Matrix: (Units=GPa)
#
#
# Indices 1 2 3 4 5 6 
#
# 1 127.0374 28.5441 18.7387 0.0000 0.0000 0.0000
# 2 28.5441 54.7203 6.5778 0.0000 0.0000 0.0000
# 3 18.7387 6.5778 12.3274 0.0000 0.0000 0.0000
# 4 0.0000 0.0000 0.0000 7.5827 0.0000 0.0000
# 5 0.0000 0.0000 0.0000 0.0000 14.3871 0.0000
# 6 0.0000 0.0000 0.0000 0.0000 0.0000 18.4148
#
#
#
# Elastic Compliance Matrix: (Units=1/GPa)
#
#
# Indices 1 2 3 4 5 6 
#
# 1 0.010889 -0.003943 -0.014448 0.000000 0.000000 0.000000
# 2 -0.003943 0.020955 -0.005187 0.000000 0.000000 0.000000
# 3 -0.014448 -0.005187 0.105850 0.000000 0.000000 0.000000
# 4 0.000000 0.000000 0.000000 0.131879 0.000000 0.000000
# 5 0.000000 0.000000 0.000000 0.000000 0.069507 0.000000
# 6 0.000000 0.000000 0.000000 0.000000 0.000000 0.054304
#
#
# Mechanical properties :
#
#
# Convention : Reuss Voigt Hill
#
# Bulk Modulus (GPa) = 11.04518 33.53402 22.28960
# Shear Modulus (GPa) = 10.62201 17.42523 14.02362
#
# Velocity S-wave (km/s) = 2.64992 3.39405 3.04480
# Velocity P-wave (km/s) = 4.08223 6.12604 5.20542
#
# Compressibility (1/GPa) = 0.09053726
#
# Stress axis : x y z
#
# Youngs Moduli (GPa) = 91.83687 47.72073 9.44731
#
# Poissons Ratio (x) = 0.18818 0.13649
# Poissons Ratio (y) = 0.36214 0.04901
# Poissons Ratio (z) = 1.32685 0.24754
#
# Static dielectric constant tensor:
#      x y z
#    x 1.586420 0.000000 0.000000 
#    y 0.000000 1.480550 0.000000 
#    z 0.000000 0.000000 1.516090 
# 
# From -- ./inp_files/66138.got.cif
#   From: 2010.05.17/outbox.cif.g08.bks.cpg/sg74_34_cif.got.tgz:66138.got - 2010.06.03 17:57:02.
