data_PCOD9534077
_publ_section_title
;
Structure prediction by ZEFSAII (Michael W. Deem and Ramdas Pophale) SiO2 
 PCOD9534077
Probable space group: I M M A
;
_chemical_formula_sum "Si O2"
_cell_formula_units_Z 88
_cell_length_a 25.360316
_cell_length_b 21.444018
_cell_length_c 7.600990
_cell_angle_alpha 90.000000
_cell_angle_beta 90.000000
_cell_angle_gamma 90.000000
_cell_volume 4133.624142
_symmetry_space_group_name_H-M "I M M A"
_symmetry_group_IT_number 74
_symmetry_cell_setting 'orthorhombic'
loop_
_space_group_symop_operation_xyz
x,y,z
-x,1/2-y,z
x,-y,-z
-x,1/2+y,-z
-x,-y,-z
x,1/2+y,-z
-x,y,z
x,1/2-y,z
1/2+x,1/2+y,1/2+z
1/2-x,-y,1/2+z
1/2+x,1/2-y,1/2-z
1/2-x,y,1/2-z
1/2-x,1/2-y,1/2-z
1/2+x,y,1/2-z
1/2-x,1/2+y,1/2+z
1/2+x,-y,1/2+z
loop_
_atom_site_type_symbol
_atom_site_label
_atom_site_fract_x
_atom_site_fract_y
_atom_site_fract_z
Si Si1 0.386551 0.002687 0.290875
Si Si2 0.189156 0.750000 0.293907
Si Si3 0.500000 0.847994 0.190454
Si Si4 0.312275 0.250000 0.216614
Si Si5 0.000000 0.676752 0.729092
Si Si6 0.500000 0.007486 0.713214
Si Si7 0.116215 0.363654 0.282583
Si Si8 0.385203 0.858219 0.203022
O O1 0.445212 0.017669 0.216854
O O2 0.358802 0.067536 0.245244
O O3 0.388730 0.000000 0.500000
O O4 0.374264 0.931584 0.238958
O O5 0.250000 0.750000 0.250000
O O6 0.183345 0.750000 0.504873
O O7 0.159753 0.812279 0.229873
O O8 0.442364 0.832154 0.266651
O O9 0.500000 0.921790 0.224278
O O10 0.500000 0.829857 0.984783
O O11 0.250000 0.250000 0.250000
O O12 0.343890 0.310622 0.283518
O O13 0.943781 0.647360 0.790780
O O14 0.000000 0.750000 0.771432
O O15 0.500000 0.000000 0.500000
O O16 0.111532 0.354779 0.491951
#
# Coordination Sequence:
#
# PCOD9534077 Si02
#       8
#    16   8   8   8   8   8  16  16
#     4  10  19  32  52  80 112 149 182 217 264 326
#     4  10  22  39  59  79 107 144 181 228 278 324
#     4   8  16  26  51  82 110 138 173 221 266 314
#     4  10  22  39  57  79 105 140 185 228 276 326
#     4  10  17  29  53  85 114 140 179 227 273 325
#     4   8  15  29  44  70 113 153 177 204 257 325
#     4  10  19  34  56  83 112 142 178 226 273 322
#     4   9  19  34  55  84 112 141 180 221 274 322
#
# _framework density 21.288824999999999
#
# number of rings (size 3 to 8) (size 9 to 14) (size 15 to 20)
#    0.000    2.545    0.909    1.091    3.818    1.455 
#    0.000    6.364    0.000    0.000    0.000    0.000 
#    0.000    0.000    0.000    0.000    0.000    0.000 
#
# Total GULP energy -244979.591357 kJ/mol
# GULP energy per Si atom -5567.717985 kJ/mol
# Density = 2.124037 g / cm^3
# Si number density = 21.288825 Si / 1000 Ang^3
#
#
#
# Elastic Constant Matrix: (Units=GPa)
#
#
# Indices 1 2 3 4 5 6 
#
# 1 137.7505 90.9842 3.6432 0.0000 0.0000 0.0000
# 2 90.9842 189.6674 0.2100 0.0000 0.0000 0.0000
# 3 3.6432 0.2100 46.8750 0.0000 0.0000 0.0000
# 4 0.0000 0.0000 0.0000 -13.9276 0.0000 0.0000
# 5 0.0000 0.0000 0.0000 0.0000 15.3914 0.0000
# 6 0.0000 0.0000 0.0000 0.0000 0.0000 4.5554
#
#
#
# Elastic Compliance Matrix: (Units=1/GPa)
#
#
# Indices 1 2 3 4 5 6 
#
# 1 0.010657 -0.005111 -0.000805 0.000000 0.000000 0.000000
# 2 -0.005111 0.007724 0.000363 0.000000 0.000000 0.000000
# 3 -0.000805 0.000363 0.021394 0.000000 0.000000 0.000000
# 4 0.000000 0.000000 0.000000 -0.071800 0.000000 0.000000
# 5 0.000000 0.000000 0.000000 0.000000 0.064972 0.000000
# 6 0.000000 0.000000 0.000000 0.000000 0.000000 0.219520
#
#
# Mechanical properties :
#
#
# Convention : Reuss Voigt Hill
#
# Bulk Modulus (GPa) = 34.88322 62.66308 48.77315
# Shear Modulus (GPa) = 18.30628 19.83419 19.07024
#
# Velocity S-wave (km/s) = 2.93559 3.05564 2.99622
# Velocity P-wave (km/s) = 5.28313 6.47672 5.91013
#
# Compressibility (1/GPa) = 0.02866708
#
# Stress axis : x y z
#
# Youngs Moduli (GPa) = 93.83735 129.46922 46.74142
#
# Poissons Ratio (x) = 0.66174 0.03764
# Poissons Ratio (y) = 0.47962 -0.01695
# Poissons Ratio (z) = 0.07557 -0.04695
#
# Static dielectric constant tensor:
#      x y z
#    x 1.803940 0.000000 0.000000 
#    y 0.000000 1.805440 0.000000 
#    z 0.000000 0.000000 1.801720 
# 
# From -- ./inp_files/13808.got.cif
#   From: 2010.05.17/outbox.cif.g08.bks.cpg/sg74_7_cif.got.tgz:13808.got - 2010.06.03 17:57:02.
