data_PCOD9534725
_publ_section_title
;
Structure prediction by ZEFSAII (Michael W. Deem and Ramdas Pophale) SiO2 
 PCOD9534725
Probable space group: I M M A
;
_chemical_formula_sum "Si O2"
_cell_formula_units_Z 88
_cell_length_a 20.664701
_cell_length_b 7.961090
_cell_length_c 28.283197
_cell_angle_alpha 90.000000
_cell_angle_beta 90.000000
_cell_angle_gamma 90.000000
_cell_volume 4652.968988
_symmetry_space_group_name_H-M "I M M A"
_symmetry_group_IT_number 74
_symmetry_cell_setting 'orthorhombic'
loop_
_space_group_symop_operation_xyz
x,y,z
-x,1/2-y,z
x,-y,-z
-x,1/2+y,-z
-x,-y,-z
x,1/2+y,-z
-x,y,z
x,1/2-y,z
1/2+x,1/2+y,1/2+z
1/2-x,-y,1/2+z
1/2+x,1/2-y,1/2-z
1/2-x,y,1/2-z
1/2-x,1/2-y,1/2-z
1/2+x,y,1/2-z
1/2-x,1/2+y,1/2+z
1/2+x,-y,1/2+z
loop_
_atom_site_type_symbol
_atom_site_label
_atom_site_fract_x
_atom_site_fract_y
_atom_site_fract_z
Si Si1 0.271530 0.550596 0.637044
Si Si2 0.363785 0.951177 0.553893
Si Si3 0.500000 0.002112 0.294969
Si Si4 0.137788 0.550543 0.329219
Si Si5 0.362095 0.552249 0.279715
Si Si6 0.000000 0.456728 0.100133
Si Si7 0.000000 0.443161 0.308538
O O1 0.280715 0.750000 0.640114
O O2 0.310079 0.486402 0.591092
O O3 0.195500 0.513568 0.638286
O O4 0.304973 0.473101 0.683446
O O5 0.362582 0.750000 0.555938
O O6 0.435290 0.001184 0.571658
O O7 0.352371 0.000000 0.500000
O O8 0.500000 0.947724 0.349815
O O9 0.500000 0.943471 0.239311
O O10 0.575491 0.058588 0.293953
O O11 0.133684 0.750000 0.333597
O O12 0.155449 0.511717 0.274268
O O13 0.066152 0.476571 0.336066
O O14 0.382155 0.750000 0.281901
O O15 0.000000 0.250000 0.109202
O O16 0.000000 0.250000 0.291494
#
# Coordination Sequence:
#
# PCOD9534725 Si02
#       7
#    16  16   8  16  16   8   8
#     4  11  22  35  53  76 103 136 178 224 270 320
#     4  10  22  38  55  76 103 137 179 231 278 320
#     4  10  18  31  50  75 107 143 186 225 263 305
#     4  10  21  36  53  76 109 143 174 214 262 316
#     4  10  20  33  49  73 106 142 181 221 263 313
#     4  10  18  34  53  73 104 138 180 229 273 307
#     4  10  20  33  55  82 109 142 179 215 258 313
#
# _framework density 18.912655000000001
#
# number of rings (size 3 to 8) (size 9 to 14) (size 15 to 20)
#    0.000    1.818    1.818    2.727    0.000    9.455 
#    0.000    0.000    0.000    0.000    0.000    0.636 
#    0.000    0.000    0.000    0.000    0.000    0.000 
#
# Total GULP energy -245090.888376 kJ/mol
# GULP energy per Si atom -5570.247463 kJ/mol
# Density = 1.886961 g / cm^3
# Si number density = 18.912655 Si / 1000 Ang^3
#
#
#
# Elastic Constant Matrix: (Units=GPa)
#
#
# Indices 1 2 3 4 5 6 
#
# 1 164.0742 18.7366 66.8570 0.0000 0.0000 0.0000
# 2 18.7366 54.4064 14.4368 0.0000 0.0000 0.0000
# 3 66.8570 14.4368 83.7953 0.0000 0.0000 0.0000
# 4 0.0000 0.0000 0.0000 11.1879 0.0000 0.0000
# 5 0.0000 0.0000 0.0000 0.0000 21.5146 0.0000
# 6 0.0000 0.0000 0.0000 0.0000 0.0000 -16.0211
#
#
#
# Elastic Compliance Matrix: (Units=1/GPa)
#
#
# Indices 1 2 3 4 5 6 
#
# 1 0.009113 -0.001267 -0.007053 0.000000 0.000000 0.000000
# 2 -0.001267 0.019437 -0.002338 0.000000 0.000000 0.000000
# 3 -0.007053 -0.002338 0.017964 0.000000 0.000000 0.000000
# 4 0.000000 0.000000 0.000000 0.089382 0.000000 0.000000
# 5 0.000000 0.000000 0.000000 0.000000 0.046480 0.000000
# 6 0.000000 0.000000 0.000000 0.000000 0.000000 -0.062418
#
#
# Mechanical properties :
#
#
# Convention : Reuss Voigt Hill
#
# Bulk Modulus (GPa) = 39.68469 55.81518 47.74994
# Shear Modulus (GPa) = 33.40593 16.81932 25.11263
#
# Velocity S-wave (km/s) = 4.20733 2.98537 3.64788
# Velocity P-wave (km/s) = 6.68063 6.43890 6.56088
#
# Compressibility (1/GPa) = 0.02519863
#
# Stress axis : x y z
#
# Youngs Moduli (GPa) = 109.72824 51.44865 55.66723
#
# Poissons Ratio (x) = 0.06518 0.39262
# Poissons Ratio (y) = 0.13902 0.13014
# Poissons Ratio (z) = 0.77391 0.12028
#
# Static dielectric constant tensor:
#      x y z
#    x 1.680820 0.000000 0.000000 
#    y 0.000000 1.769180 0.000000 
#    z 0.000000 0.000000 1.625460 
# 
# From -- ./inp_files/61460.got.cif
#   From: 2010.05.17/outbox.cif.g08.bks.cpg/sg74_31_cif.got.tgz:61460.got - 2010.06.03 17:57:02.
