data_PCOD9534486
_publ_section_title
;
Structure prediction by ZEFSAII (Michael W. Deem and Ramdas Pophale) SiO2 
 PCOD9534486
Probable space group: I M M A
;
_chemical_formula_sum "Si O2"
_cell_formula_units_Z 88
_cell_length_a 20.078331
_cell_length_b 8.689227
_cell_length_c 33.751605
_cell_angle_alpha 90.000000
_cell_angle_beta 90.000000
_cell_angle_gamma 90.000000
_cell_volume 5888.479701
_symmetry_space_group_name_H-M "I M M A"
_symmetry_group_IT_number 74
_symmetry_cell_setting 'orthorhombic'
loop_
_space_group_symop_operation_xyz
x,y,z
-x,1/2-y,z
x,-y,-z
-x,1/2+y,-z
-x,-y,-z
x,1/2+y,-z
-x,y,z
x,1/2-y,z
1/2+x,1/2+y,1/2+z
1/2-x,-y,1/2+z
1/2+x,1/2-y,1/2-z
1/2-x,y,1/2-z
1/2-x,1/2-y,1/2-z
1/2+x,y,1/2-z
1/2-x,1/2+y,1/2+z
1/2+x,-y,1/2+z
loop_
_atom_site_type_symbol
_atom_site_label
_atom_site_fract_x
_atom_site_fract_y
_atom_site_fract_z
Si Si1 0.301219 0.567457 0.117149
Si Si2 0.773274 0.566890 0.192506
Si Si3 0.860625 0.432297 0.456046
Si Si4 0.350158 0.568006 0.757694
Si Si5 0.500000 0.065806 0.955228
Si Si6 0.424878 0.564508 0.833651
O O1 0.302613 0.750000 0.110190
O O2 0.239420 0.530761 0.146390
O O3 0.305048 0.480548 0.075526
O O4 0.367384 0.518897 0.141659
O O5 0.764548 0.750000 0.197253
O O6 0.713234 0.482037 0.215542
O O7 0.839394 0.515535 0.215761
O O8 0.849699 0.500000 0.500000
O O9 0.867442 0.250000 0.458973
O O10 0.930433 0.501322 0.439373
O O11 0.348264 0.750000 0.751030
O O12 0.411378 0.532446 0.786943
O O13 0.500000 0.250000 0.954862
O O14 0.500000 0.000000 0.000000
O O15 0.500000 0.520509 0.844721
O O16 0.417567 0.750000 0.839169
#
# Coordination Sequence:
#
# PCOD9534486 Si02
#       6
#    16  16  16  16   8  16
#     4  10  20  31  42  58  77  99 128 163 200 235
#     4   9  16  26  40  56  75  96 121 155 192 229
#     4  11  21  33  46  58  74  97 125 159 198 237
#     4   9  15  24  40  57  74  97 124 155 188 227
#     4  10  18  30  44  56  70  90 120 154 188 230
#     4   9  18  30  41  56  79 104 130 160 196 235
#
# _framework density 14.944435
#
# number of rings (size 3 to 8) (size 9 to 14) (size 15 to 20)
#    0.000    2.364    0.000    6.273    1.273    3.273 
#    0.000    0.000    0.000    0.000    0.000    0.000 
#    0.000    0.000    0.000    0.000    0.000    0.909 
#
# Total GULP energy -245052.457906 kJ/mol
# GULP energy per Si atom -5569.374043 kJ/mol
# Density = 1.491042 g / cm^3
# Si number density = 14.944435 Si / 1000 Ang^3
#
#
#
# Elastic Constant Matrix: (Units=GPa)
#
#
# Indices 1 2 3 4 5 6 
#
# 1 8.5223 3.8108 14.5184 0.0000 0.0000 0.0000
# 2 3.8108 70.3450 30.8947 0.0000 0.0000 0.0000
# 3 14.5184 30.8947 91.0342 0.0000 0.0000 0.0000
# 4 0.0000 0.0000 0.0000 24.1264 0.0000 0.0000
# 5 0.0000 0.0000 0.0000 0.0000 24.6942 0.0000
# 6 0.0000 0.0000 0.0000 0.0000 0.0000 13.5047
#
#
#
# Elastic Compliance Matrix: (Units=1/GPa)
#
#
# Indices 1 2 3 4 5 6 
#
# 1 0.161653 0.003015 -0.026804 0.000000 0.000000 0.000000
# 2 0.003015 0.016762 -0.006169 0.000000 0.000000 0.000000
# 3 -0.026804 -0.006169 0.017353 0.000000 0.000000 0.000000
# 4 0.000000 0.000000 0.000000 0.041448 0.000000 0.000000
# 5 0.000000 0.000000 0.000000 0.000000 0.040495 0.000000
# 6 0.000000 0.000000 0.000000 0.000000 0.000000 0.074048
#
#
# Mechanical properties :
#
#
# Convention : Reuss Voigt Hill
#
# Bulk Modulus (GPa) = 7.36100 29.81658 18.58879
# Shear Modulus (GPa) = 10.94184 20.51023 15.72603
#
# Velocity S-wave (km/s) = 2.70880 3.70865 3.24744
# Velocity P-wave (km/s) = 3.83663 6.19143 5.15041
#
# Compressibility (1/GPa) = 0.13585111
#
# Stress axis : x y z
#
# Youngs Moduli (GPa) = 6.18609 59.65929 57.62559
#
# Poissons Ratio (x) = -0.17986 1.54460
# Poissons Ratio (y) = -0.01865 0.35551
# Poissons Ratio (z) = 0.16581 0.36806
#
# Static dielectric constant tensor:
#      x y z
#    x 1.500450 0.000000 0.000000 
#    y 0.000000 1.500740 0.000000 
#    z 0.000000 0.000000 1.534420 
# 
# From -- ./inp_files/69083.got.cif
#   From: 2010.05.17/outbox.cif.g08.bks.cpg/sg74_35_cif.got.tgz:69083.got - 2010.06.03 17:57:02.
