data_PCOD9534023
_publ_section_title
;
Structure prediction by ZEFSAII (Michael W. Deem and Ramdas Pophale) SiO2 
 PCOD9534023
Probable space group: I M M A
;
_chemical_formula_sum "Si O2"
_cell_formula_units_Z 80
_cell_length_a 19.798706
_cell_length_b 8.455882
_cell_length_c 34.467150
_cell_angle_alpha 90.000000
_cell_angle_beta 90.000000
_cell_angle_gamma 90.000000
_cell_volume 5770.335898
_symmetry_space_group_name_H-M "I M M A"
_symmetry_group_IT_number 74
_symmetry_cell_setting 'orthorhombic'
loop_
_space_group_symop_operation_xyz
x,y,z
-x,1/2-y,z
x,-y,-z
-x,1/2+y,-z
-x,-y,-z
x,1/2+y,-z
-x,y,z
x,1/2-y,z
1/2+x,1/2+y,1/2+z
1/2-x,-y,1/2+z
1/2+x,1/2-y,1/2-z
1/2-x,y,1/2-z
1/2-x,1/2-y,1/2-z
1/2+x,y,1/2-z
1/2-x,1/2+y,1/2+z
1/2+x,-y,1/2+z
loop_
_atom_site_type_symbol
_atom_site_label
_atom_site_fract_x
_atom_site_fract_y
_atom_site_fract_z
Si Si1 0.500000 0.557354 0.831726
Si Si2 0.865541 0.059175 0.377238
Si Si3 0.855409 0.440687 0.766780
Si Si4 0.277955 0.440460 0.810521
Si Si5 0.421523 0.440729 0.042336
Si Si6 0.000000 0.938757 0.757358
O O1 0.500000 0.750000 0.831662
O O2 0.432966 0.506766 0.854236
O O3 0.500000 0.502660 0.787419
O O4 0.864595 0.250000 0.377223
O O5 0.875584 0.006067 0.421625
O O6 0.803050 0.000593 0.351842
O O7 0.857016 0.250000 0.766301
O O8 0.796777 0.489937 0.796780
O O9 0.829115 0.493444 0.724006
O O10 0.929825 0.502867 0.775254
O O11 0.279246 0.250000 0.810589
O O12 0.500000 0.490260 0.048859
O O13 0.421455 0.250000 0.042081
O O14 0.400742 0.500000 0.000000
O O15 0.000000 0.750000 0.757015
#
# Coordination Sequence:
#
# PCOD9534023 Si02
#       6
#     8  16  16  16  16   8
#     4   9  16  25  36  56  80 102 131 168 206 239
#     4  10  17  28  43  57  78 106 135 172 212 241
#     4   9  18  31  42  55  80 108 132 165 208 243
#     4   9  18  30  42  57  78 105 136 168 202 243
#     4   9  17  28  41  56  78 106 134 167 206 243
#     4  11  19  27  43  62  78 102 138 173 204 242
#
# _framework density 13.864011
#
# number of rings (size 3 to 8) (size 9 to 14) (size 15 to 20)
#    0.000    2.600    3.000    1.500    0.000    1.600 
#    0.000    2.500    0.000    0.000    0.000    0.000 
#    0.000    0.000    0.000    0.900    0.000   11.800 
#
# Total GULP energy -222851.308679 kJ/mol
# GULP energy per Si atom -5571.282717 kJ/mol
# Density = 1.383246 g / cm^3
# Si number density = 13.864011 Si / 1000 Ang^3
#
#
#
# Elastic Constant Matrix: (Units=GPa)
#
#
# Indices 1 2 3 4 5 6 
#
# 1 101.5761 17.3976 53.2763 0.0000 0.0000 0.0000
# 2 17.3976 8.1756 16.2651 0.0000 0.0000 0.0000
# 3 53.2763 16.2651 106.9503 0.0000 0.0000 0.0000
# 4 0.0000 0.0000 0.0000 18.9726 0.0000 0.0000
# 5 0.0000 0.0000 0.0000 0.0000 23.8048 0.0000
# 6 0.0000 0.0000 0.0000 0.0000 0.0000 16.7611
#
#
#
# Elastic Compliance Matrix: (Units=1/GPa)
#
#
# Indices 1 2 3 4 5 6 
#
# 1 0.016699 -0.027222 -0.004178 0.000000 0.000000 0.000000
# 2 -0.027222 0.219752 -0.019860 0.000000 0.000000 0.000000
# 3 -0.004178 -0.019860 0.014452 0.000000 0.000000 0.000000
# 4 0.000000 0.000000 0.000000 0.052708 0.000000 0.000000
# 5 0.000000 0.000000 0.000000 0.000000 0.042008 0.000000
# 6 0.000000 0.000000 0.000000 0.000000 0.000000 0.059662
#
#
# Mechanical properties :
#
#
# Convention : Reuss Voigt Hill
#
# Bulk Modulus (GPa) = 6.73933 43.39777 25.06855
# Shear Modulus (GPa) = 8.97244 20.55858 14.76551
#
# Velocity S-wave (km/s) = 2.54672 3.85499 3.26701
# Velocity P-wave (km/s) = 3.67686 7.15437 5.68790
#
# Compressibility (1/GPa) = 0.14838261
#
# Stress axis : x y z
#
# Youngs Moduli (GPa) = 59.88417 4.55058 69.19514
#
# Poissons Ratio (x) = 0.12388 0.28913
# Poissons Ratio (y) = 1.63017 1.37419
# Poissons Ratio (z) = 0.25022 0.09037
#
# Static dielectric constant tensor:
#      x y z
#    x 1.453130 0.000000 0.000000 
#    y 0.000000 1.478530 0.000000 
#    z 0.000000 0.000000 1.456470 
# 
# From -- ./inp_files/73243.got.cif
#   From: 2010.05.17/outbox.cif.g08.bks.cpg/sg74_37_cif.got.tgz:73243.got - 2010.06.03 17:57:02.
