data_PCOD9534096
_publ_section_title
;
Structure prediction by ZEFSAII (Michael W. Deem and Ramdas Pophale) SiO2 
 PCOD9534096
Probable space group: I M M A
;
_chemical_formula_sum "Si O2"
_cell_formula_units_Z 72
_cell_length_a 12.465499
_cell_length_b 22.592664
_cell_length_c 17.864125
_cell_angle_alpha 90.000000
_cell_angle_beta 90.000000
_cell_angle_gamma 90.000000
_cell_volume 5031.052632
_symmetry_space_group_name_H-M "I M M A"
_symmetry_group_IT_number 74
_symmetry_cell_setting 'orthorhombic'
loop_
_space_group_symop_operation_xyz
x,y,z
-x,1/2-y,z
x,-y,-z
-x,1/2+y,-z
-x,-y,-z
x,1/2+y,-z
-x,y,z
x,1/2-y,z
1/2+x,1/2+y,1/2+z
1/2-x,-y,1/2+z
1/2+x,1/2-y,1/2-z
1/2-x,y,1/2-z
1/2-x,1/2-y,1/2-z
1/2+x,y,1/2-z
1/2-x,1/2+y,1/2+z
1/2+x,-y,1/2+z
loop_
_atom_site_type_symbol
_atom_site_label
_atom_site_fract_x
_atom_site_fract_y
_atom_site_fract_z
Si Si1 0.318544 0.090288 0.456579
Si Si2 0.000000 0.180507 0.087275
Si Si3 0.624630 0.536886 0.390225
Si Si4 0.000000 0.681388 0.733511
Si Si5 0.879188 0.912680 0.648784
Si Si6 0.250000 0.495190 0.750000
O O1 0.395926 0.145593 0.442367
O O2 0.317967 0.073254 0.543789
O O3 0.202805 0.097917 0.418601
O O4 0.368262 0.032296 0.415121
O O5 0.000000 0.175218 0.177425
O O6 0.000000 0.250000 0.068091
O O7 0.500000 0.553606 0.387357
O O8 0.682976 0.541247 0.310865
O O9 0.100606 0.646336 0.697920
O O10 0.000000 0.750000 0.713666
O O11 0.829762 0.962464 0.702869
O O12 0.000000 0.929683 0.623968
#
# Coordination Sequence:
#
# PCOD9534096 Si02
#       6
#    16   8  16   8  16   8
#     4  10  18  32  47  69  93 129 157 184 236 270
#     4  11  20  29  47  73  93 120 165 198 220 261
#     4  10  17  30  51  67  96 122 153 188 228 291
#     4   9  18  30  43  62  91 131 160 182 216 256
#     4   9  19  30  45  62  97 125 153 189 222 272
#     4  10  18  28  47  72  87 122 148 188 246 268
#
# _framework density 14.311121
#
# number of rings (size 3 to 8) (size 9 to 14) (size 15 to 20)
#    0.667    1.556    2.222    4.000    0.000    0.889 
#    0.000   12.778    0.000    0.000    0.000    0.778 
#    0.000    0.000    0.000    0.000    0.000    0.000 
#
# Total GULP energy -200453.506256 kJ/mol
# GULP energy per Si atom -5568.152952 kJ/mol
# Density = 1.427855 g / cm^3
# Si number density = 14.311121 Si / 1000 Ang^3
#
#
#
# Elastic Constant Matrix: (Units=GPa)
#
#
# Indices 1 2 3 4 5 6 
#
# 1 107.7878 33.2934 51.3677 0.0000 0.0000 0.0000
# 2 33.2934 61.2526 36.7492 0.0000 0.0000 0.0000
# 3 51.3677 36.7492 104.3390 0.0000 0.0000 0.0000
# 4 0.0000 0.0000 0.0000 17.7360 0.0000 0.0000
# 5 0.0000 0.0000 0.0000 0.0000 14.9919 0.0000
# 6 0.0000 0.0000 0.0000 0.0000 0.0000 10.6585
#
#
#
# Elastic Compliance Matrix: (Units=1/GPa)
#
#
# Indices 1 2 3 4 5 6 
#
# 1 0.012867 -0.004049 -0.004909 0.000000 0.000000 0.000000
# 2 -0.004049 0.021974 -0.005746 0.000000 0.000000 0.000000
# 3 -0.004909 -0.005746 0.014025 0.000000 0.000000 0.000000
# 4 0.000000 0.000000 0.000000 0.056383 0.000000 0.000000
# 5 0.000000 0.000000 0.000000 0.000000 0.066703 0.000000
# 6 0.000000 0.000000 0.000000 0.000000 0.000000 0.093822
#
#
# Mechanical properties :
#
#
# Convention : Reuss Voigt Hill
#
# Bulk Modulus (GPa) = 51.39143 57.35556 54.37350
# Shear Modulus (GPa) = 16.57455 18.80855 17.69155
#
# Velocity S-wave (km/s) = 3.40686 3.62921 3.51979
# Velocity P-wave (km/s) = 7.17382 7.59777 7.38884
#
# Compressibility (1/GPa) = 0.01945850
#
# Stress axis : x y z
#
# Youngs Moduli (GPa) = 77.71549 45.50824 71.30302
#
# Poissons Ratio (x) = 0.18426 0.35001
# Poissons Ratio (y) = 0.31466 0.40972
# Poissons Ratio (z) = 0.38149 0.26150
#
# Static dielectric constant tensor:
#      x y z
#    x 1.487270 0.000000 0.000000 
#    y 0.000000 1.453040 0.000000 
#    z 0.000000 0.000000 1.469840 
# 
# From -- ./inp_files/41400.got.cif
#   From: 2010.05.17/outbox.cif.g08.bks.cpg/sg74_21_cif.got.tgz:41400.got - 2010.06.03 17:57:02.
