data_PCOD9534796
_publ_section_title
;
Structure prediction by ZEFSAII (Michael W. Deem and Ramdas Pophale) SiO2 
 PCOD9534796
Probable space group: I M M A
;
_chemical_formula_sum "Si O2"
_cell_formula_units_Z 96
_cell_length_a 14.688314
_cell_length_b 12.229826
_cell_length_c 23.416200
_cell_angle_alpha 90.000000
_cell_angle_beta 90.000000
_cell_angle_gamma 90.000000
_cell_volume 4206.381368
_symmetry_space_group_name_H-M "I M M A"
_symmetry_group_IT_number 74
_symmetry_cell_setting 'orthorhombic'
loop_
_space_group_symop_operation_xyz
x,y,z
-x,1/2-y,z
x,-y,-z
-x,1/2+y,-z
-x,-y,-z
x,1/2+y,-z
-x,y,z
x,1/2-y,z
1/2+x,1/2+y,1/2+z
1/2-x,-y,1/2+z
1/2+x,1/2-y,1/2-z
1/2-x,y,1/2-z
1/2-x,1/2-y,1/2-z
1/2+x,y,1/2-z
1/2-x,1/2+y,1/2+z
1/2+x,-y,1/2+z
loop_
_atom_site_type_symbol
_atom_site_label
_atom_site_fract_x
_atom_site_fract_y
_atom_site_fract_z
Si Si1 0.395760 0.871328 0.842033
Si Si2 0.111221 0.750000 0.243803
Si Si3 0.111788 0.970071 0.436563
Si Si4 0.650412 0.126499 0.277167
Si Si5 0.109951 0.929365 0.153306
Si Si6 0.889309 0.376481 0.975626
Si Si7 0.388722 0.750000 0.124666
O O1 0.500000 0.859293 0.860251
O O2 0.355087 0.750000 0.838266
O O3 0.400665 0.920359 0.778623
O O4 0.352372 0.943516 0.890502
O O5 0.140516 0.853496 0.205930
O O6 0.142066 0.750000 0.309443
O O7 0.000000 0.750000 0.244937
O O8 0.139868 0.854467 0.411476
O O9 0.000000 0.969115 0.437123
O O10 0.140956 0.000000 0.500000
O O11 0.618494 0.250000 0.288572
O O12 0.750000 0.129327 0.250000
O O13 0.642600 0.050569 0.331437
O O14 0.135844 0.884972 0.091499
O O15 0.000000 0.930765 0.153916
O O16 0.860545 0.250000 0.995094
O O17 0.000000 0.375059 0.981036
O O18 0.862621 0.500000 0.000000
O O19 0.500000 0.750000 0.127027
#
# Coordination Sequence:
#
# PCOD9534796 Si02
#       7
#    16   8  16  16  16  16   8
#     4   9  17  30  49  71  95 126 164 205 249 300
#     4   9  16  28  49  75 103 131 164 209 264 310
#     4   9  17  26  40  64  94 125 158 198 245 292
#     4  10  21  35  50  72 104 138 172 216 268 321
#     4  10  18  31  54  79 105 138 176 216 264 321
#     4   9  17  30  49  78 114 147 178 220 275 332
#     4   9  16  24  36  59  91 127 159 193 239 294
#
# _framework density 22.822467
#
# number of rings (size 3 to 8) (size 9 to 14) (size 15 to 20)
#    0.000    2.667    0.833    1.500    1.167    4.333 
#    0.000    2.083    0.000    1.000    0.000    0.000 
#    0.000    0.000    0.000    0.000    0.000    0.000 
#
# Total GULP energy -267527.330145 kJ/mol
# GULP energy per Si atom -5573.486045 kJ/mol
# Density = 2.277052 g / cm^3
# Si number density = 22.822467 Si / 1000 Ang^3
#
#
#
# Elastic Constant Matrix: (Units=GPa)
#
#
# Indices 1 2 3 4 5 6 
#
# 1 47.4977 7.5192 12.1192 0.0000 0.0000 0.0000
# 2 7.5192 154.7609 84.2463 0.0000 0.0000 0.0000
# 3 12.1192 84.2463 112.5567 0.0000 0.0000 0.0000
# 4 0.0000 0.0000 0.0000 58.2860 0.0000 0.0000
# 5 0.0000 0.0000 0.0000 0.0000 20.7862 0.0000
# 6 0.0000 0.0000 0.0000 0.0000 0.0000 6.6345
#
#
#
# Elastic Compliance Matrix: (Units=1/GPa)
#
#
# Indices 1 2 3 4 5 6 
#
# 1 0.021661 0.000367 -0.002607 0.000000 0.000000 0.000000
# 2 0.000367 0.010911 -0.008206 0.000000 0.000000 0.000000
# 3 -0.002607 -0.008206 0.015307 0.000000 0.000000 0.000000
# 4 0.000000 0.000000 0.000000 0.017157 0.000000 0.000000
# 5 0.000000 0.000000 0.000000 0.000000 0.048109 0.000000
# 6 0.000000 0.000000 0.000000 0.000000 0.000000 0.150727
#
#
# Mechanical properties :
#
#
# Convention : Reuss Voigt Hill
#
# Bulk Modulus (GPa) = 37.05554 58.06497 47.56025
# Shear Modulus (GPa) = 17.02077 31.20341 24.11209
#
# Velocity S-wave (km/s) = 2.73388 3.70161 3.25392
# Velocity P-wave (km/s) = 5.12222 6.61562 5.91623
#
# Compressibility (1/GPa) = 0.02698652
#
# Stress axis : x y z
#
# Youngs Moduli (GPa) = 46.16656 91.65223 65.32934
#
# Poissons Ratio (x) = -0.03359 0.17029
# Poissons Ratio (y) = -0.01692 0.53609
# Poissons Ratio (z) = 0.12034 0.75210
#
# Static dielectric constant tensor:
#      x y z
#    x 2.276820 0.000000 0.000000 
#    y 0.000000 1.802820 0.000000 
#    z 0.000000 0.000000 1.820400 
# 
# From -- ./inp_files/53921.got.cif
#   From: 2010.05.17/outbox.cif.g08.bks.cpg/sg74_27_cif.got.tgz:53921.got - 2010.06.03 17:57:02.
