data_PCOD9534345
_publ_section_title
;
Structure prediction by ZEFSAII (Michael W. Deem and Ramdas Pophale) SiO2 
 PCOD9534345
Probable space group: I M M A
;
_chemical_formula_sum "Si O2"
_cell_formula_units_Z 96
_cell_length_a 14.435775
_cell_length_b 29.010113
_cell_length_c 11.975327
_cell_angle_alpha 90.000000
_cell_angle_beta 90.000000
_cell_angle_gamma 90.000000
_cell_volume 5015.068924
_symmetry_space_group_name_H-M "I M M A"
_symmetry_group_IT_number 74
_symmetry_cell_setting 'orthorhombic'
loop_
_space_group_symop_operation_xyz
x,y,z
-x,1/2-y,z
x,-y,-z
-x,1/2+y,-z
-x,-y,-z
x,1/2+y,-z
-x,y,z
x,1/2-y,z
1/2+x,1/2+y,1/2+z
1/2-x,-y,1/2+z
1/2+x,1/2-y,1/2-z
1/2-x,y,1/2-z
1/2-x,1/2-y,1/2-z
1/2+x,y,1/2-z
1/2-x,1/2+y,1/2+z
1/2+x,-y,1/2+z
loop_
_atom_site_type_symbol
_atom_site_label
_atom_site_fract_x
_atom_site_fract_y
_atom_site_fract_z
Si Si1 0.644378 0.750000 0.715820
Si Si2 0.886607 0.149761 0.464796
Si Si3 0.191361 0.553379 0.861790
Si Si4 0.607190 0.539267 0.294884
Si Si5 0.609117 0.352647 0.297770
Si Si6 0.896902 0.750000 0.529011
Si Si7 0.786995 0.067073 0.582873
O O1 0.750000 0.750000 0.750000
O O2 0.625982 0.700017 0.662095
O O3 0.593836 0.750000 0.835850
O O4 0.860025 0.143560 0.333284
O O5 0.853831 0.201047 0.498064
O O6 0.839763 0.113377 0.546184
O O7 0.000000 0.147601 0.469403
O O8 0.250000 0.550762 0.750000
O O9 0.118552 0.511728 0.848680
O O10 0.150954 0.605022 0.866460
O O11 0.259262 0.545755 0.964513
O O12 0.500000 0.553719 0.302300
O O13 0.685962 0.569983 0.356870
O O14 0.644777 0.540278 0.167318
O O15 0.500000 0.359462 0.296163
O O16 0.000000 0.750000 0.480229
#
# Coordination Sequence:
#
# PCOD9534345 Si02
#       7
#     8  16  16  16  16   8  16
#     4  10  18  28  48  76 116 166 195 232 280 354
#     4   9  17  32  57  89 123 157 195 241 291 352
#     4  12  22  38  59  90 122 154 191 245 296 360
#     4  11  26  45  63  85 116 160 206 250 301 348
#     4  10  20  33  52  83 122 161 196 235 292 358
#     4   8  16  30  50  81 118 153 193 238 287 348
#     4  11  23  40  65  87 118 155 199 249 292 352
#
# _framework density 19.142309000000001
#
# number of rings (size 3 to 8) (size 9 to 14) (size 15 to 20)
#    0.000    1.667    3.333    3.750    2.333    2.000 
#    0.000    0.833    0.000    2.000    0.000    1.750 
#    0.000    2.667    0.000    0.000    0.000    0.000 
#
# Total GULP energy -267397.755513 kJ/mol
# GULP energy per Si atom -5570.786573 kJ/mol
# Density = 1.909874 g / cm^3
# Si number density = 19.142309 Si / 1000 Ang^3
#
#
#
# Elastic Constant Matrix: (Units=GPa)
#
#
# Indices 1 2 3 4 5 6 
#
# 1 91.3637 24.5737 14.3148 0.0000 0.0000 0.0000
# 2 24.5737 157.7231 25.2602 -0.0001 0.0000 0.0000
# 3 14.3148 25.2602 71.4522 -0.0005 -0.0001 -0.0001
# 4 0.0000 -0.0001 -0.0005 23.1793 0.0000 0.0000
# 5 0.0000 0.0000 -0.0001 0.0000 19.4723 0.0000
# 6 0.0000 0.0000 -0.0001 0.0000 0.0000 28.9563
#
#
#
# Elastic Compliance Matrix: (Units=1/GPa)
#
#
# Indices 1 2 3 4 5 6 
#
# 1 0.011636 -0.001526 -0.001792 0.000000 0.000000 0.000000
# 2 -0.001526 0.006921 -0.002141 0.000000 0.000000 0.000000
# 3 -0.001792 -0.002141 0.015111 0.000000 0.000000 0.000000
# 4 0.000000 0.000000 0.000000 0.043142 0.000000 0.000000
# 5 0.000000 0.000000 0.000000 0.000000 0.051355 0.000000
# 6 0.000000 0.000000 0.000000 0.000000 0.000000 0.034535
#
#
# Mechanical properties :
#
#
# Convention : Reuss Voigt Hill
#
# Bulk Modulus (GPa) = 43.95412 49.87070 46.91241
# Shear Modulus (GPa) = 27.59356 31.41425 29.50391
#
# Velocity S-wave (km/s) = 3.80082 4.05543 3.93019
# Velocity P-wave (km/s) = 6.50179 6.93094 6.71979
#
# Compressibility (1/GPa) = 0.02275099
#
# Stress axis : x y z
#
# Youngs Moduli (GPa) = 85.93690 144.49041 66.17596
#
# Poissons Ratio (x) = 0.22050 0.11857
# Poissons Ratio (y) = 0.13114 0.14168
# Poissons Ratio (z) = 0.15398 0.30935
#
# Static dielectric constant tensor:
#      x y z
#    x 1.660990 0.000000 0.000000 
#    y 0.000000 1.762110 0.000000 
#    z 0.000000 0.000000 1.728030 
# 
# From -- ./inp_files/21065.got.cif
#   From: 2010.05.17/outbox.cif.g08.bks.cpg/sg74_11_cif.got.tgz:21065.got - 2010.06.03 17:57:02.
