data_PCOD9534592
_publ_section_title
;
Structure prediction by ZEFSAII (Michael W. Deem and Ramdas Pophale) SiO2 
 PCOD9534592
Probable space group: I M M A
;
_chemical_formula_sum "Si O2"
_cell_formula_units_Z 64
_cell_length_a 8.638717
_cell_length_b 13.931811
_cell_length_c 29.095833
_cell_angle_alpha 90.000000
_cell_angle_beta 90.000000
_cell_angle_gamma 90.000000
_cell_volume 3501.769990
_symmetry_space_group_name_H-M "I M M A"
_symmetry_group_IT_number 74
_symmetry_cell_setting 'orthorhombic'
loop_
_space_group_symop_operation_xyz
x,y,z
-x,1/2-y,z
x,-y,-z
-x,1/2+y,-z
-x,-y,-z
x,1/2+y,-z
-x,y,z
x,1/2-y,z
1/2+x,1/2+y,1/2+z
1/2-x,-y,1/2+z
1/2+x,1/2-y,1/2-z
1/2-x,y,1/2-z
1/2-x,1/2-y,1/2-z
1/2+x,y,1/2-z
1/2-x,1/2+y,1/2+z
1/2+x,-y,1/2+z
loop_
_atom_site_type_symbol
_atom_site_label
_atom_site_fract_x
_atom_site_fract_y
_atom_site_fract_z
Si Si1 0.678887 0.931227 0.456731
Si Si2 0.181262 0.250000 0.846107
Si Si3 0.673529 0.250000 0.944354
Si Si4 0.685686 0.456536 0.855506
Si Si5 0.686301 0.641336 0.698133
O O1 0.500000 0.903510 0.448825
O O2 0.786594 0.843594 0.471793
O O3 0.680346 0.000000 0.500000
O O4 0.747327 0.963804 0.407583
O O5 0.500000 0.250000 0.665006
O O6 0.212503 0.250000 0.900869
O O7 0.254721 0.354469 0.833508
O O8 0.500000 0.250000 0.926385
O O9 0.500000 0.452882 0.856927
O O10 0.742896 0.551281 0.829048
O O11 0.500000 0.632783 0.698137
O O12 0.724439 0.750000 0.680590
O O13 0.750000 0.636763 0.750000
#
# Coordination Sequence:
#
# PCOD9534592 Si02
#       5
#    16   8   8  16  16
#     4  10  20  35  54  76 105 144 186 228 275 329
#     4  10  18  32  55  79 108 144 182 221 270 328
#     4  10  18  30  50  73 101 136 175 219 270 326
#     4  11  21  35  57  84 114 146 186 232 282 337
#     4  10  21  39  62  86 114 150 190 232 281 338
#
# _framework density 18.276472999999999
#
# number of rings (size 3 to 8) (size 9 to 14) (size 15 to 20)
#    0.000    1.750    0.000    9.000    0.000    3.500 
#    2.250    0.625    0.000    0.000    0.000    0.000 
#    0.000    0.000    0.000    0.000    0.000    0.000 
#
# Total GULP energy -178208.750476 kJ/mol
# GULP energy per Si atom -5569.023452 kJ/mol
# Density = 1.823487 g / cm^3
# Si number density = 18.276473 Si / 1000 Ang^3
#
#
#
# Elastic Constant Matrix: (Units=GPa)
#
#
# Indices 1 2 3 4 5 6 
#
# 1 116.4569 65.7810 37.0935 0.0000 0.0000 0.0000
# 2 65.7810 164.1804 59.7859 0.0000 0.0000 0.0000
# 3 37.0935 59.7859 48.2770 0.0000 0.0000 0.0000
# 4 0.0000 0.0000 0.0000 -4.0249 0.0000 0.0000
# 5 0.0000 0.0000 0.0000 0.0000 23.4175 0.0000
# 6 0.0000 0.0000 0.0000 0.0000 0.0000 21.9522
#
#
#
# Elastic Compliance Matrix: (Units=1/GPa)
#
#
# Indices 1 2 3 4 5 6 
#
# 1 0.011964 -0.002634 -0.005930 0.000000 0.000000 0.000000
# 2 -0.002634 0.011673 -0.012433 0.000000 0.000000 0.000000
# 3 -0.005930 -0.012433 0.040667 0.000000 0.000000 0.000000
# 4 0.000000 0.000000 0.000000 -0.248454 0.000000 0.000000
# 5 0.000000 0.000000 0.000000 0.000000 0.042703 0.000000
# 6 0.000000 0.000000 0.000000 0.000000 0.000000 0.045553
#
#
# Mechanical properties :
#
#
# Convention : Reuss Voigt Hill
#
# Bulk Modulus (GPa) = 44.82277 72.69278 58.75778
# Shear Modulus (GPa) = -107.61271 19.35257 -44.13007
#
# Velocity S-wave (km/s) = -7.68169 3.25757 -4.91917
# Velocity P-wave (km/s) = 7.35524 7.34911 0.21246
#
# Compressibility (1/GPa) = 0.02231009
#
# Stress axis : x y z
#
# Youngs Moduli (GPa) = 83.58751 85.66473 24.59002
#
# Poissons Ratio (x) = 0.22562 0.14583
# Poissons Ratio (y) = 0.22015 0.30572
# Poissons Ratio (z) = 0.49571 1.06504
#
# Static dielectric constant tensor:
#      x y z
#    x 1.623520 0.000000 0.000000 
#    y 0.000000 1.732060 0.000000 
#    z 0.000000 0.000000 1.590030 
# 
# From -- ./inp_files/69762.got.cif
#   From: 2010.05.17/outbox.cif.g08.bks.cpg/sg74_35_cif.got.tgz:69762.got - 2010.06.03 17:57:02.
