data_PCOD9534389
_publ_section_title
;
Structure prediction by ZEFSAII (Michael W. Deem and Ramdas Pophale) SiO2 
 PCOD9534389
Probable space group: I M M A
;
_chemical_formula_sum "Si O2"
_cell_formula_units_Z 112
_cell_length_a 13.616190
_cell_length_b 27.957971
_cell_length_c 16.805125
_cell_angle_alpha 90.000000
_cell_angle_beta 90.000000
_cell_angle_gamma 90.000000
_cell_volume 6397.392549
_symmetry_space_group_name_H-M "I M M A"
_symmetry_group_IT_number 74
_symmetry_cell_setting 'orthorhombic'
loop_
_space_group_symop_operation_xyz
x,y,z
-x,1/2-y,z
x,-y,-z
-x,1/2+y,-z
-x,-y,-z
x,1/2+y,-z
-x,y,z
x,1/2-y,z
1/2+x,1/2+y,1/2+z
1/2-x,-y,1/2+z
1/2+x,1/2-y,1/2-z
1/2-x,y,1/2-z
1/2-x,1/2-y,1/2-z
1/2+x,y,1/2-z
1/2-x,1/2+y,1/2+z
1/2+x,-y,1/2+z
loop_
_atom_site_type_symbol
_atom_site_label
_atom_site_fract_x
_atom_site_fract_y
_atom_site_fract_z
Si Si1 0.819142 0.362139 0.372949
Si Si2 0.612695 0.519363 0.647270
Si Si3 0.610573 0.374142 0.301720
Si Si4 0.385231 0.918424 0.271446
Si Si5 0.615569 0.693551 0.026677
Si Si6 0.226844 0.386037 0.619255
Si Si7 0.212736 0.047173 0.467763
O O1 0.701397 0.358240 0.357306
O O2 0.869387 0.356364 0.287468
O O3 0.856078 0.325363 0.438847
O O4 0.838609 0.415646 0.407548
O O5 0.500000 0.514711 0.617800
O O6 0.617050 0.567983 0.698529
O O7 0.635864 0.472300 0.698110
O O8 0.691452 0.527314 0.577945
O O9 0.500000 0.361389 0.328122
O O10 0.500000 0.910505 0.275080
O O11 0.327340 0.883588 0.331407
O O12 0.346087 0.910361 0.182871
O O13 0.500000 0.683517 0.039995
O O14 0.631638 0.750000 0.033333
O O15 0.680737 0.662952 0.087811
O O16 0.239847 0.419950 0.542962
O O17 0.157825 0.000000 0.500000
#
# Coordination Sequence:
#
# PCOD9534389 Si02
#       7
#    16  16  16  16  16  16  16
#     4   9  19  31  53  78 104 143 178 219 265 316
#     4   9  18  29  46  73 106 152 191 210 244 306
#     4   9  17  31  50  76 112 148 183 216 252 305
#     4  10  20  34  52  77 111 145 182 220 257 306
#     4  10  21  40  62  80 101 131 171 220 271 325
#     4  10  21  34  55  79 104 139 175 223 266 310
#     4  10  18  29  45  73 107 142 176 216 260 296
#
# _framework density 17.507133
#
# number of rings (size 3 to 8) (size 9 to 14) (size 15 to 20)
#    0.000    2.429    1.429    0.857    2.000    2.000 
#    0.000    5.000    0.000    6.000    0.000    0.000 
#    0.000    0.000    0.000    0.000    0.000    0.000 
#
# Total GULP energy -312142.675440 kJ/mol
# GULP energy per Si atom -5573.976347 kJ/mol
# Density = 1.746729 g / cm^3
# Si number density = 17.507133 Si / 1000 Ang^3
#
#
#
# Elastic Constant Matrix: (Units=GPa)
#
#
# Indices 1 2 3 4 5 6 
#
# 1 87.7273 36.0393 24.3622 0.0000 0.0000 0.0000
# 2 36.0393 62.0046 26.1571 0.0000 0.0000 0.0000
# 3 24.3622 26.1571 76.7335 0.0001 0.0000 0.0000
# 4 0.0000 0.0000 0.0001 16.6343 0.0000 0.0000
# 5 0.0000 0.0000 0.0000 0.0000 13.6311 0.0000
# 6 0.0000 0.0000 0.0000 0.0000 0.0000 22.6283
#
#
#
# Elastic Compliance Matrix: (Units=1/GPa)
#
#
# Indices 1 2 3 4 5 6 
#
# 1 0.015266 -0.007976 -0.002128 0.000000 0.000000 0.000000
# 2 -0.007976 0.023003 -0.005309 0.000000 0.000000 0.000000
# 3 -0.002128 -0.005309 0.015518 0.000000 0.000000 0.000000
# 4 0.000000 0.000000 0.000000 0.060117 0.000000 0.000000
# 5 0.000000 0.000000 0.000000 0.000000 0.073362 0.000000
# 6 0.000000 0.000000 0.000000 0.000000 0.000000 0.044192
#
#
# Mechanical properties :
#
#
# Convention : Reuss Voigt Hill
#
# Bulk Modulus (GPa) = 43.55165 44.39808 43.97486
# Shear Modulus (GPa) = 18.52276 19.90586 19.21431
#
# Velocity S-wave (km/s) = 3.25624 3.37562 3.31647
# Velocity P-wave (km/s) = 6.25044 6.37245 6.31174
#
# Compressibility (1/GPa) = 0.02296124
#
# Stress axis : x y z
#
# Youngs Moduli (GPa) = 65.50314 43.47206 64.44282
#
# Poissons Ratio (x) = 0.34672 0.13715
# Poissons Ratio (y) = 0.52243 0.34214
# Poissons Ratio (z) = 0.13940 0.23080
#
# Static dielectric constant tensor:
#      x y z
#    x 1.617700 0.000000 0.000000 
#    y 0.000000 1.587660 0.000000 
#    z 0.000000 0.000000 1.596330 
# 
# From -- ./inp_files/32966.got.cif
#   From: 2010.05.17/outbox.cif.g08.bks.cpg/sg74_17_cif.got.tgz:32966.got - 2010.06.03 17:57:02.
