data_PCOD9534226
_publ_section_title
;
Structure prediction by ZEFSAII (Michael W. Deem and Ramdas Pophale) SiO2 
 PCOD9534226
Probable space group: I M M A
;
_chemical_formula_sum "Si O2"
_cell_formula_units_Z 96
_cell_length_a 29.436529
_cell_length_b 8.904112
_cell_length_c 26.906283
_cell_angle_alpha 90.000000
_cell_angle_beta 90.000000
_cell_angle_gamma 90.000000
_cell_volume 7052.302278
_symmetry_space_group_name_H-M "I M M A"
_symmetry_group_IT_number 74
_symmetry_cell_setting 'orthorhombic'
loop_
_space_group_symop_operation_xyz
x,y,z
-x,1/2-y,z
x,-y,-z
-x,1/2+y,-z
-x,-y,-z
x,1/2+y,-z
-x,y,z
x,1/2-y,z
1/2+x,1/2+y,1/2+z
1/2-x,-y,1/2+z
1/2+x,1/2-y,1/2-z
1/2-x,y,1/2-z
1/2-x,1/2-y,1/2-z
1/2+x,y,1/2-z
1/2-x,1/2+y,1/2+z
1/2+x,-y,1/2+z
loop_
_atom_site_type_symbol
_atom_site_label
_atom_site_fract_x
_atom_site_fract_y
_atom_site_fract_z
Si Si1 0.550139 0.067772 0.904195
Si Si2 0.278475 0.423373 0.698279
Si Si3 0.354319 0.930648 0.052505
Si Si4 0.697569 0.428868 0.144721
Si Si5 0.641939 0.428545 0.246063
Si Si6 0.051551 0.069468 0.712364
O O1 0.500000 0.015228 0.920774
O O2 0.549581 0.250000 0.905727
O O3 0.593929 0.018118 0.934772
O O4 0.555963 0.026988 0.846068
O O5 0.283164 0.250000 0.683601
O O6 0.250000 0.427893 0.750000
O O7 0.247588 0.513331 0.659413
O O8 0.326582 0.496060 0.712159
O O9 0.353428 0.750000 0.050760
O O10 0.322884 0.988528 0.097145
O O11 0.340642 0.000000 0.000000
O O12 0.697582 0.250000 0.137447
O O13 0.665567 0.462691 0.192575
O O14 0.642347 0.250000 0.252240
O O15 0.591236 0.491722 0.242967
O O16 0.056662 0.250000 0.714973
O O17 0.000000 0.031819 0.727645
#
# Coordination Sequence:
#
# PCOD9534226 Si02
#       6
#    16  16  16  16  16  16
#     4   8  15  28  44  58  73  98 133 173 215 256
#     4   9  17  28  44  63  81 103 131 159 197 246
#     4  11  21  32  46  60  78 103 136 173 216 260
#     4  10  19  31  44  60  82 103 129 167 210 250
#     4  10  18  27  42  63  86 106 129 166 207 245
#     4   9  16  27  43  60  79 107 141 172 205 248
#
# _framework density 13.612577
#
# number of rings (size 3 to 8) (size 9 to 14) (size 15 to 20)
#    0.000    2.500    1.667    3.000    0.000    4.000 
#    0.000    0.000    0.000    1.500    0.000    0.000 
#    0.000    0.000    0.000    0.000    0.000    0.833 
#
# Total GULP energy -267530.529726 kJ/mol
# GULP energy per Si atom -5573.552703 kJ/mol
# Density = 1.358159 g / cm^3
# Si number density = 13.612577 Si / 1000 Ang^3
#
#
#
# Elastic Constant Matrix: (Units=GPa)
#
#
# Indices 1 2 3 4 5 6 
#
# 1 87.8773 40.4594 40.9329 0.0000 0.0000 0.0000
# 2 40.4594 44.3646 27.9997 0.0000 0.0000 0.0000
# 3 40.9329 27.9997 47.2801 0.0000 0.0000 0.0000
# 4 0.0000 0.0000 0.0000 16.0049 0.0000 0.0000
# 5 0.0000 0.0000 0.0000 0.0000 14.5649 0.0000
# 6 0.0000 0.0000 0.0000 0.0000 0.0000 18.4513
#
#
#
# Elastic Compliance Matrix: (Units=1/GPa)
#
#
# Indices 1 2 3 4 5 6 
#
# 1 0.023271 -0.013585 -0.012102 0.000000 0.000000 0.000000
# 2 -0.013585 0.043924 -0.014251 0.000000 0.000000 0.000000
# 3 -0.012102 -0.014251 0.040067 0.000000 0.000000 0.000000
# 4 0.000000 0.000000 0.000000 0.062481 0.000000 0.000000
# 5 0.000000 0.000000 0.000000 0.000000 0.068658 0.000000
# 6 0.000000 0.000000 0.000000 0.000000 0.000000 0.054197
#
#
# Mechanical properties :
#
#
# Convention : Reuss Voigt Hill
#
# Bulk Modulus (GPa) = 36.51399 44.25621 40.38510
# Shear Modulus (GPa) = 13.10266 14.47956 13.79111
#
# Velocity S-wave (km/s) = 3.10585 3.26496 3.18640
# Velocity P-wave (km/s) = 6.30426 6.84070 6.57795
#
# Compressibility (1/GPa) = 0.02738676
#
# Stress axis : x y z
#
# Youngs Moduli (GPa) = 42.97177 22.76682 24.95793
#
# Poissons Ratio (x) = 0.30928 0.30204
# Poissons Ratio (y) = 0.58376 0.35567
# Poissons Ratio (z) = 0.52004 0.32445
#
# Static dielectric constant tensor:
#      x y z
#    x 1.453550 0.000000 0.000000 
#    y 0.000000 1.448430 0.000000 
#    z 0.000000 0.000000 1.417060 
# 
# From -- ./inp_files/55039.got.cif
#   From: 2010.05.17/outbox.cif.g08.bks.cpg/sg74_28_cif.got.tgz:55039.got - 2010.06.03 17:57:02.
