data_PCOD9534302
_publ_section_title
;
Structure prediction by ZEFSAII (Michael W. Deem and Ramdas Pophale) SiO2 
 PCOD9534302
Probable space group: I M M A
;
_chemical_formula_sum "Si O2"
_cell_formula_units_Z 96
_cell_length_a 7.648541
_cell_length_b 23.559086
_cell_length_c 28.385598
_cell_angle_alpha 90.000000
_cell_angle_beta 90.000000
_cell_angle_gamma 90.000000
_cell_volume 5114.875705
_symmetry_space_group_name_H-M "I M M A"
_symmetry_group_IT_number 74
_symmetry_cell_setting 'orthorhombic'
loop_
_space_group_symop_operation_xyz
x,y,z
-x,1/2-y,z
x,-y,-z
-x,1/2+y,-z
-x,-y,-z
x,1/2+y,-z
-x,y,z
x,1/2-y,z
1/2+x,1/2+y,1/2+z
1/2-x,-y,1/2+z
1/2+x,1/2-y,1/2-z
1/2-x,y,1/2-z
1/2-x,1/2-y,1/2-z
1/2+x,y,1/2-z
1/2-x,1/2+y,1/2+z
1/2+x,-y,1/2+z
loop_
_atom_site_type_symbol
_atom_site_label
_atom_site_fract_x
_atom_site_fract_y
_atom_site_fract_z
Si Si1 0.293168 0.987572 0.196447
Si Si2 0.796035 0.371652 0.653096
Si Si3 0.787133 0.634285 0.969802
Si Si4 0.788269 0.250000 0.981759
Si Si5 0.289252 0.750000 0.130097
Si Si6 0.787896 0.064879 0.940158
Si Si7 0.708563 0.051781 0.395314
O O1 0.500000 0.982600 0.191661
O O2 0.250000 0.001062 0.250000
O O3 0.218242 0.925269 0.181759
O O4 0.240017 0.035263 0.158736
O O5 0.720667 0.308180 0.653563
O O6 0.781736 0.391817 0.598960
O O7 0.000000 0.367035 0.666469
O O8 0.726881 0.609700 0.919465
O O9 0.000000 0.638667 0.968783
O O10 0.724874 0.693996 0.990668
O O11 0.741205 0.586583 0.008467
O O12 0.743803 0.250000 0.926265
O O13 0.000000 0.250000 0.983138
O O14 0.500000 0.750000 0.135001
O O15 0.000000 0.065528 0.937346
O O16 0.725748 0.002796 0.924811
O O17 0.500000 0.052474 0.401279
#
# Coordination Sequence:
#
# PCOD9534302 Si02
#       7
#    16  16  16   8   8  16  16
#     4  10  20  35  52  70  90 114 148 194 244 288
#     4   9  18  30  45  65  91 122 156 191 230 272
#     4   9  16  26  42  67  97 126 157 189 221 261
#     4  10  18  28  44  67  96 131 165 194 217 251
#     4  10  18  30  45  63  91 129 163 190 224 265
#     4   9  15  25  43  65  91 123 157 189 221 262
#     4   9  17  29  46  68  93 122 153 187 230 276
#
# _framework density 18.768784
#
# number of rings (size 3 to 8) (size 9 to 14) (size 15 to 20)
#    0.000    2.667    1.667    1.000    0.000    2.667 
#    0.000    2.083    0.000    4.000    0.000    0.583 
#    0.000    0.000    0.000    0.000    0.000    0.000 
#
# Total GULP energy -267456.206276 kJ/mol
# GULP energy per Si atom -5572.004297 kJ/mol
# Density = 1.872607 g / cm^3
# Si number density = 18.768784 Si / 1000 Ang^3
#
#
#
# Elastic Constant Matrix: (Units=GPa)
#
#
# Indices 1 2 3 4 5 6 
#
# 1 33.4549 2.0330 -7.9867 0.0000 0.0000 0.0000
# 2 2.0330 35.2051 33.5214 0.0000 0.0000 0.0000
# 3 -7.9867 33.5214 88.3939 0.0000 0.0000 0.0000
# 4 0.0000 0.0000 0.0000 11.8099 0.0000 0.0000
# 5 0.0000 0.0000 0.0000 0.0000 13.3789 0.0000
# 6 0.0000 0.0000 0.0000 0.0000 0.0000 8.6957
#
#
#
# Elastic Compliance Matrix: (Units=1/GPa)
#
#
# Indices 1 2 3 4 5 6 
#
# 1 0.031651 -0.007123 0.005561 0.000000 0.000000 0.000000
# 2 -0.007123 0.046061 -0.018111 0.000000 0.000000 0.000000
# 3 0.005561 -0.018111 0.018684 0.000000 0.000000 0.000000
# 4 0.000000 0.000000 0.000000 0.084674 0.000000 0.000000
# 5 0.000000 0.000000 0.000000 0.000000 0.074745 0.000000
# 6 0.000000 0.000000 0.000000 0.000000 0.000000 0.115000
#
#
# Mechanical properties :
#
#
# Convention : Reuss Voigt Hill
#
# Bulk Modulus (GPa) = 17.52842 23.57662 20.55252
# Shear Modulus (GPa) = 11.65017 15.40931 13.52974
#
# Velocity S-wave (km/s) = 2.49413 2.86843 2.68780
# Velocity P-wave (km/s) = 4.20162 4.85380 4.53944
#
# Compressibility (1/GPa) = 0.05705021
#
# Stress axis : x y z
#
# Youngs Moduli (GPa) = 31.59419 21.71015 53.52243
#
# Poissons Ratio (x) = 0.15464 -0.29764
# Poissons Ratio (y) = 0.22504 0.96936
# Poissons Ratio (z) = -0.17569 0.39320
#
# Static dielectric constant tensor:
#      x y z
#    x 1.700280 0.000000 0.000000 
#    y 0.000000 1.694910 0.000000 
#    z 0.000000 0.000000 1.587680 
# 
# From -- ./inp_files/64735.got.cif
#   From: 2010.05.17/outbox.cif.g08.bks.cpg/sg74_33_cif.got.tgz:64735.got - 2010.06.03 17:57:02.
