data_PCOD9534505
_publ_section_title
;
Structure prediction by ZEFSAII (Michael W. Deem and Ramdas Pophale) SiO2 
 PCOD9534505
Probable space group: I M M A
;
_chemical_formula_sum "Si O2"
_cell_formula_units_Z 72
_cell_length_a 7.664580
_cell_length_b 16.160329
_cell_length_c 29.885452
_cell_angle_alpha 90.000000
_cell_angle_beta 90.000000
_cell_angle_gamma 90.000000
_cell_volume 3701.675874
_symmetry_space_group_name_H-M "I M M A"
_symmetry_group_IT_number 74
_symmetry_cell_setting 'orthorhombic'
loop_
_space_group_symop_operation_xyz
x,y,z
-x,1/2-y,z
x,-y,-z
-x,1/2+y,-z
-x,-y,-z
x,1/2+y,-z
-x,y,z
x,1/2-y,z
1/2+x,1/2+y,1/2+z
1/2-x,-y,1/2+z
1/2+x,1/2-y,1/2-z
1/2-x,y,1/2-z
1/2-x,1/2-y,1/2-z
1/2+x,y,1/2-z
1/2-x,1/2+y,1/2+z
1/2+x,-y,1/2+z
loop_
_atom_site_type_symbol
_atom_site_label
_atom_site_fract_x
_atom_site_fract_y
_atom_site_fract_z
Si Si1 0.712521 0.657680 0.947654
Si Si2 0.215050 0.001436 0.608899
Si Si3 0.293731 0.250000 0.302908
Si Si4 0.212715 0.157493 0.551377
Si Si5 0.701007 0.432712 0.197896
O O1 0.500000 0.658240 0.946545
O O2 0.769900 0.750000 0.933233
O O3 0.770052 0.580656 0.918067
O O4 0.763748 0.645217 0.999523
O O5 0.272172 0.083776 0.583264
O O6 0.000000 0.002048 0.608594
O O7 0.280400 0.990998 0.659809
O O8 0.500000 0.250000 0.308452
O O9 0.250000 0.250000 0.250000
O O10 0.222441 0.162256 0.319021
O O11 0.267477 0.250000 0.565019
O O12 0.000000 0.156456 0.551668
O O13 0.500000 0.452608 0.198146
O O14 0.750000 0.437469 0.250000
#
# Coordination Sequence:
#
# PCOD9534505 Si02
#       5
#    16  16   8  16  16
#     4   8  13  20  32  52  81 114 141 168 209 263
#     4   9  16  23  36  57  82 114 148 176 212 261
#     4  10  18  30  46  62  84 114 146 178 216 258
#     4   8  13  22  35  53  80 114 145 175 216 264
#     4  10  19  30  44  62  87 118 149 182 217 255
#
# _framework density 19.45065
#
# number of rings (size 3 to 8) (size 9 to 14) (size 15 to 20)
#    0.000    3.111    0.000    5.000    1.556    2.667 
#    0.000    0.000    0.000    0.667    0.000    0.000 
#    0.000   16.889    0.000    0.000    0.000    0.889 
#
# Total GULP energy -200631.132219 kJ/mol
# GULP energy per Si atom -5573.087006 kJ/mol
# Density = 1.940638 g / cm^3
# Si number density = 19.450650 Si / 1000 Ang^3
#
#
#
# Elastic Constant Matrix: (Units=GPa)
#
#
# Indices 1 2 3 4 5 6 
#
# 1 25.2800 4.9066 10.7360 0.0000 0.0000 0.0000
# 2 4.9066 141.3023 101.7574 0.0000 0.0000 0.0000
# 3 10.7360 101.7574 119.7395 0.0000 0.0000 0.0000
# 4 0.0000 0.0000 0.0000 34.8435 0.0000 0.0000
# 5 0.0000 0.0000 0.0000 0.0000 1.3564 0.0000
# 6 0.0000 0.0000 0.0000 0.0000 0.0000 -1.1198
#
#
#
# Elastic Compliance Matrix: (Units=1/GPa)
#
#
# Indices 1 2 3 4 5 6 
#
# 1 0.041679 0.003206 -0.006461 0.000000 0.000000 0.000000
# 2 0.003206 0.018486 -0.015997 0.000000 0.000000 0.000000
# 3 -0.006461 -0.015997 0.022526 0.000000 0.000000 0.000000
# 4 0.000000 0.000000 0.000000 0.028700 0.000000 0.000000
# 5 0.000000 0.000000 0.000000 0.000000 0.737250 0.000000
# 6 0.000000 0.000000 0.000000 0.000000 0.000000 -0.893054
#
#
# Mechanical properties :
#
#
# Convention : Reuss Voigt Hill
#
# Bulk Modulus (GPa) = 22.63219 57.90242 40.26730
# Shear Modulus (GPa) = 566.95599 18.27748 292.61674
#
# Velocity S-wave (km/s) = 17.09143 3.06875 12.27873
# Velocity P-wave (km/s) = 20.02874 6.51075 14.89195
#
# Compressibility (1/GPa) = 0.04418486
#
# Stress axis : x y z
#
# Youngs Moduli (GPa) = 23.99300 54.09521 44.39396
#
# Poissons Ratio (x) = -0.17342 0.28684
# Poissons Ratio (y) = -0.07692 0.71018
# Poissons Ratio (z) = 0.15503 0.86537
#
# Static dielectric constant tensor:
#      x y z
#    x 1.914140 0.000000 0.000000 
#    y 0.000000 1.663850 0.000000 
#    z 0.000000 0.000000 1.731330 
# 
# From -- ./inp_files/69951.got.cif
#   From: 2010.05.17/outbox.cif.g08.bks.cpg/sg74_35_cif.got.tgz:69951.got - 2010.06.03 17:57:02.
