data_PCOD9534234
_publ_section_title
;
Structure prediction by ZEFSAII (Michael W. Deem and Ramdas Pophale) SiO2 
 PCOD9534234
Probable space group: I M M A
;
_chemical_formula_sum "Si O2"
_cell_formula_units_Z 64
_cell_length_a 15.083276
_cell_length_b 13.643970
_cell_length_c 22.644178
_cell_angle_alpha 90.000000
_cell_angle_beta 90.000000
_cell_angle_gamma 90.000000
_cell_volume 4660.075940
_symmetry_space_group_name_H-M "I M M A"
_symmetry_group_IT_number 74
_symmetry_cell_setting 'orthorhombic'
loop_
_space_group_symop_operation_xyz
x,y,z
-x,1/2-y,z
x,-y,-z
-x,1/2+y,-z
-x,-y,-z
x,1/2+y,-z
-x,y,z
x,1/2-y,z
1/2+x,1/2+y,1/2+z
1/2-x,-y,1/2+z
1/2+x,1/2-y,1/2-z
1/2-x,y,1/2-z
1/2-x,1/2-y,1/2-z
1/2+x,y,1/2-z
1/2-x,1/2+y,1/2+z
1/2+x,-y,1/2+z
loop_
_atom_site_type_symbol
_atom_site_label
_atom_site_fract_x
_atom_site_fract_y
_atom_site_fract_z
Si Si1 0.665532 0.949699 0.905435
Si Si2 0.799858 0.130478 0.187298
Si Si3 0.500000 0.639231 0.841982
Si Si4 0.393490 0.364437 0.970496
Si Si5 0.500000 0.860890 0.701395
O O1 0.750827 0.919287 0.867956
O O2 0.585254 0.916531 0.864166
O O3 0.651454 0.062615 0.923597
O O4 0.650626 0.890594 0.966543
O O5 0.795810 0.250000 0.182145
O O6 0.750000 0.108017 0.250000
O O7 0.902911 0.097790 0.186699
O O8 0.500000 0.750000 0.866693
O O9 0.500000 0.645497 0.772107
O O10 0.500000 0.385558 0.974134
O O11 0.383177 0.250000 0.957236
O O12 0.500000 0.750000 0.676885
#
# Coordination Sequence:
#
# PCOD9534234 Si02
#       5
#    16  16   8  16   8
#     4  11  18  28  44  68  91 123 147 172 226 272
#     4  10  18  27  43  67  94 121 147 178 220 269
#     4  11  16  23  42  68  97 117 140 175 215 271
#     4  10  19  30  44  65  92 118 149 187 221 262
#     4   9  18  28  39  65  97 121 145 177 218 264
#
# _framework density 13.733682
#
# number of rings (size 3 to 8) (size 9 to 14) (size 15 to 20)
#    0.000    1.750    5.000    3.000    0.000    0.000 
#    0.000    0.000    0.000    3.750    0.000    2.625 
#    0.000    0.000    0.000    0.000    0.000    0.000 
#
# Total GULP energy -178151.934182 kJ/mol
# GULP energy per Si atom -5567.247943 kJ/mol
# Density = 1.370242 g / cm^3
# Si number density = 13.733682 Si / 1000 Ang^3
#
#
#
# Elastic Constant Matrix: (Units=GPa)
#
#
# Indices 1 2 3 4 5 6 
#
# 1 128.4905 34.3847 52.9279 0.0000 0.0000 0.0000
# 2 34.3847 80.9197 34.6833 0.0000 0.0000 0.0000
# 3 52.9279 34.6833 67.8567 0.0000 0.0000 0.0000
# 4 0.0000 0.0000 0.0000 20.6382 0.0000 0.0000
# 5 0.0000 0.0000 0.0000 0.0000 30.8462 0.0000
# 6 0.0000 0.0000 0.0000 0.0000 0.0000 1.7097
#
#
#
# Elastic Compliance Matrix: (Units=1/GPa)
#
#
# Indices 1 2 3 4 5 6 
#
# 1 0.011580 -0.001344 -0.008346 0.000000 0.000000 0.000000
# 2 -0.001344 0.015981 -0.007120 0.000000 0.000000 0.000000
# 3 -0.008346 -0.007120 0.024886 0.000000 0.000000 0.000000
# 4 0.000000 0.000000 0.000000 0.048454 0.000000 0.000000
# 5 0.000000 0.000000 0.000000 0.000000 0.032419 0.000000
# 6 0.000000 0.000000 0.000000 0.000000 0.000000 0.584882
#
#
# Mechanical properties :
#
#
# Convention : Reuss Voigt Hill
#
# Bulk Modulus (GPa) = 53.11307 57.91763 55.51535
# Shear Modulus (GPa) = 6.59548 20.99023 13.79285
#
# Velocity S-wave (km/s) = 2.19382 3.91369 3.17252
# Velocity P-wave (km/s) = 6.72121 7.91746 7.34373
#
# Compressibility (1/GPa) = 0.01882776
#
# Stress axis : x y z
#
# Youngs Moduli (GPa) = 86.35637 62.57572 40.18371
#
# Poissons Ratio (x) = 0.08407 0.33536
# Poissons Ratio (y) = 0.11602 0.28611
# Poissons Ratio (z) = 0.72069 0.44555
#
# Static dielectric constant tensor:
#      x y z
#    x 1.468210 0.000000 0.000000 
#    y 0.000000 1.452250 0.000000 
#    z 0.000000 0.000000 1.444820 
# 
# From -- ./inp_files/42425.got.cif
#   From: 2010.05.17/outbox.cif.g08.bks.cpg/sg74_22_cif.got.tgz:42425.got - 2010.06.03 17:57:02.
