data_PCOD9534398
_publ_section_title
;
Structure prediction by ZEFSAII (Michael W. Deem and Ramdas Pophale) SiO2 
 PCOD9534398
Probable space group: I M M A
;
_chemical_formula_sum "Si O2"
_cell_formula_units_Z 88
_cell_length_a 8.422441
_cell_length_b 21.422213
_cell_length_c 25.751459
_cell_angle_alpha 90.000000
_cell_angle_beta 90.000000
_cell_angle_gamma 90.000000
_cell_volume 4646.266864
_symmetry_space_group_name_H-M "I M M A"
_symmetry_group_IT_number 74
_symmetry_cell_setting 'orthorhombic'
loop_
_space_group_symop_operation_xyz
x,y,z
-x,1/2-y,z
x,-y,-z
-x,1/2+y,-z
-x,-y,-z
x,1/2+y,-z
-x,y,z
x,1/2-y,z
1/2+x,1/2+y,1/2+z
1/2-x,-y,1/2+z
1/2+x,1/2-y,1/2-z
1/2-x,y,1/2-z
1/2-x,1/2-y,1/2-z
1/2+x,y,1/2-z
1/2-x,1/2+y,1/2+z
1/2+x,-y,1/2+z
loop_
_atom_site_type_symbol
_atom_site_label
_atom_site_fract_x
_atom_site_fract_y
_atom_site_fract_z
Si Si1 0.690785 0.750000 0.690589
Si Si2 0.808497 0.180580 0.579404
Si Si3 0.686900 0.011749 0.854763
Si Si4 0.308548 0.115219 0.309361
Si Si5 0.184787 0.554003 0.037649
Si Si6 0.311475 0.639792 0.194326
O O1 0.500000 0.750000 0.692118
O O2 0.750000 0.750000 0.750000
O O3 0.738462 0.683121 0.667590
O O4 0.756958 0.250000 0.563203
O O5 0.756602 0.123523 0.542588
O O6 0.753253 0.168800 0.639434
O O7 0.000000 0.179296 0.580935
O O8 0.500000 0.018004 0.867903
O O9 0.727192 0.943158 0.836058
O O10 0.790321 0.027237 0.904818
O O11 0.721249 0.065642 0.812529
O O12 0.500000 0.108871 0.311087
O O13 0.250000 0.115026 0.250000
O O14 0.000000 0.561151 0.024458
O O15 0.253570 0.500000 0.000000
O O16 0.500000 0.649196 0.194963
O O17 0.250000 0.662328 0.250000
#
# Coordination Sequence:
#
# PCOD9534398 Si02
#       6
#     8  16  16  16  16  16
#     4   8  16  28  42  62  90 128 168 204 246 298
#     4   9  19  36  56  79 109 144 180 218 260 311
#     4  10  20  33  50  73 100 133 172 215 262 310
#     4  10  18  29  46  69  99 134 172 211 256 308
#     4  10  21  37  58  82 105 130 168 218 271 324
#     4   9  18  30  45  70 105 141 175 209 247 292
#
# _framework density 18.939937
#
# number of rings (size 3 to 8) (size 9 to 14) (size 15 to 20)
#    0.000    2.545    0.000    3.273    0.000    8.000 
#    0.000    0.000    2.000    0.000    0.000    0.000 
#    0.000    0.000    0.000    0.000    0.000    0.000 
#
# Total GULP energy -245051.419783 kJ/mol
# GULP energy per Si atom -5569.350450 kJ/mol
# Density = 1.889683 g / cm^3
# Si number density = 18.939937 Si / 1000 Ang^3
#
#
#
# Elastic Constant Matrix: (Units=GPa)
#
#
# Indices 1 2 3 4 5 6 
#
# 1 15.4137 18.1747 5.0045 0.0000 0.0000 0.0000
# 2 18.1747 160.1059 25.1469 0.0000 0.0000 0.0000
# 3 5.0045 25.1469 44.7316 0.0000 0.0000 0.0000
# 4 0.0000 0.0000 0.0000 -7.9378 0.0000 0.0000
# 5 0.0000 0.0000 0.0000 0.0000 20.7781 0.0000
# 6 0.0000 0.0000 0.0000 0.0000 0.0000 26.0024
#
#
#
# Elastic Compliance Matrix: (Units=1/GPa)
#
#
# Indices 1 2 3 4 5 6 
#
# 1 0.075545 -0.007950 -0.003983 0.000000 0.000000 0.000000
# 2 -0.007950 0.007687 -0.003432 0.000000 0.000000 0.000000
# 3 -0.003983 -0.003432 0.024731 0.000000 0.000000 0.000000
# 4 0.000000 0.000000 0.000000 -0.125980 0.000000 0.000000
# 5 0.000000 0.000000 0.000000 0.000000 0.048128 0.000000
# 6 0.000000 0.000000 0.000000 0.000000 0.000000 0.038458
#
#
# Mechanical properties :
#
#
# Convention : Reuss Voigt Hill
#
# Bulk Modulus (GPa) = 12.94781 35.21150 24.07966
# Shear Modulus (GPa) = 39.98648 19.23021 29.60835
#
# Velocity S-wave (km/s) = 4.59979 3.18987 3.95812
# Velocity P-wave (km/s) = 5.92131 5.67438 5.79916
#
# Compressibility (1/GPa) = 0.07723311
#
# Stress axis : x y z
#
# Youngs Moduli (GPa) = 13.23720 130.08280 40.43570
#
# Poissons Ratio (x) = 1.03417 0.16104
# Poissons Ratio (y) = 0.10524 0.13878
# Poissons Ratio (z) = 0.05272 0.44647
#
# Static dielectric constant tensor:
#      x y z
#    x 1.663610 0.000000 0.000000 
#    y 0.000000 1.717420 0.000000 
#    z 0.000000 0.000000 1.649080 
# 
# From -- ./inp_files/56967.got.cif
#   From: 2010.05.17/outbox.cif.g08.bks.cpg/sg74_29_cif.got.tgz:56967.got - 2010.06.03 17:57:02.
