data_PCOD9534308
_publ_section_title
;
Structure prediction by ZEFSAII (Michael W. Deem and Ramdas Pophale) SiO2 
 PCOD9534308
Probable space group: I M M A
;
_chemical_formula_sum "Si O2"
_cell_formula_units_Z 80
_cell_length_a 11.364745
_cell_length_b 14.986862
_cell_length_c 28.270720
_cell_angle_alpha 90.000000
_cell_angle_beta 90.000000
_cell_angle_gamma 90.000000
_cell_volume 4815.121755
_symmetry_space_group_name_H-M "I M M A"
_symmetry_group_IT_number 74
_symmetry_cell_setting 'orthorhombic'
loop_
_space_group_symop_operation_xyz
x,y,z
-x,1/2-y,z
x,-y,-z
-x,1/2+y,-z
-x,-y,-z
x,1/2+y,-z
-x,y,z
x,1/2-y,z
1/2+x,1/2+y,1/2+z
1/2-x,-y,1/2+z
1/2+x,1/2-y,1/2-z
1/2-x,y,1/2-z
1/2-x,1/2-y,1/2-z
1/2+x,y,1/2-z
1/2-x,1/2+y,1/2+z
1/2+x,-y,1/2+z
loop_
_atom_site_type_symbol
_atom_site_label
_atom_site_fract_x
_atom_site_fract_y
_atom_site_fract_z
Si Si1 0.243056 0.563932 0.452529
Si Si2 0.774221 0.422115 0.119410
Si Si3 0.639689 0.750000 0.014459
Si Si4 0.000000 0.907992 0.029134
Si Si5 0.139626 0.750000 0.593808
Si Si6 0.362437 0.144469 0.285072
Si Si7 0.000000 0.847390 0.930446
O O1 0.232833 0.500000 0.500000
O O2 0.212102 0.505567 0.406277
O O3 0.177134 0.656655 0.461917
O O4 0.378214 0.593556 0.444231
O O5 0.686744 0.338475 0.118424
O O6 0.832461 0.420740 0.171069
O O7 0.883436 0.397931 0.085221
O O8 0.500000 0.750000 0.011687
O O9 0.686624 0.750000 0.960328
O O10 0.000000 0.839386 0.986443
O O11 0.000000 0.000000 0.000000
O O12 0.000000 0.750000 0.593177
O O13 0.500000 0.128919 0.269009
O O14 0.360451 0.250000 0.299494
O O15 0.250000 0.134213 0.250000
O O16 0.000000 0.750000 0.907448
#
# Coordination Sequence:
#
# PCOD9534308 Si02
#       7
#    16  16   8   8   8  16   8
#     4  11  21  33  53  78 108 142 187 229 272 320
#     4  12  20  34  53  78 105 144 184 224 269 324
#     4  11  24  39  49  70 113 159 197 228 269 316
#     4  10  18  28  44  78 106 127 169 224 263 303
#     4  11  22  31  48  76 105 147 193 226 258 314
#     4  10  21  36  56  81 113 147 182 229 281 336
#     4  12  18  26  52  77 107 142 181 209 265 321
#
# _framework density 16.614326999999999
#
# number of rings (size 3 to 8) (size 9 to 14) (size 15 to 20)
#    0.000    1.000    9.000    0.000    1.400    2.000 
#    0.000    0.000    0.000    0.000    0.000    0.700 
#    0.000    0.000    0.000    0.000    0.000    0.000 
#
# Total GULP energy -222726.225183 kJ/mol
# GULP energy per Si atom -5568.155630 kJ/mol
# Density = 1.657651 g / cm^3
# Si number density = 16.614327 Si / 1000 Ang^3
#
#
#
# Elastic Constant Matrix: (Units=GPa)
#
#
# Indices 1 2 3 4 5 6 
#
# 1 81.5139 29.9309 21.1436 0.0000 0.0000 0.0000
# 2 29.9309 79.3379 20.9260 0.0000 0.0000 0.0000
# 3 21.1436 20.9260 50.4971 0.0000 0.0000 0.0000
# 4 0.0000 0.0000 0.0000 20.1205 0.0000 0.0000
# 5 0.0000 0.0000 0.0000 0.0000 2.0112 0.0000
# 6 0.0000 0.0000 0.0000 0.0000 0.0000 -0.7104
#
#
#
# Elastic Compliance Matrix: (Units=1/GPa)
#
#
# Indices 1 2 3 4 5 6 
#
# 1 0.015079 -0.004517 -0.004442 0.000000 0.000000 0.000000
# 2 -0.004517 0.015504 -0.004534 0.000000 0.000000 0.000000
# 3 -0.004442 -0.004534 0.023542 0.000000 0.000000 0.000000
# 4 0.000000 0.000000 0.000000 0.049700 0.000000 0.000000
# 5 0.000000 0.000000 0.000000 0.000000 0.497217 0.000000
# 6 0.000000 0.000000 0.000000 0.000000 0.000000 -1.407628
#
#
# Mechanical properties :
#
#
# Convention : Reuss Voigt Hill
#
# Bulk Modulus (GPa) = 36.84632 39.48332 38.16482
# Shear Modulus (GPa) = -6.48883 13.57416 3.54267
#
# Velocity S-wave (km/s) = -1.97839 2.86145 1.46182
# Velocity P-wave (km/s) = 4.12394 5.89350 5.08627
#
# Compressibility (1/GPa) = 0.02713975
#
# Stress axis : x y z
#
# Youngs Moduli (GPa) = 66.31942 64.49886 42.47795
#
# Poissons Ratio (x) = 0.29134 0.18867
# Poissons Ratio (y) = 0.29956 0.19258
# Poissons Ratio (z) = 0.29457 0.29241
#
# Static dielectric constant tensor:
#      x y z
#    x 1.613380 0.000000 0.000000 
#    y 0.000000 1.640460 0.000000 
#    z 0.000000 0.000000 1.599480 
# 
# From -- ./inp_files/65890.got.cif
#   From: 2010.05.17/outbox.cif.g08.bks.cpg/sg74_33_cif.got.tgz:65890.got - 2010.06.03 17:57:02.
