data_PCOD9534042
_publ_section_title
;
Structure prediction by ZEFSAII (Michael W. Deem and Ramdas Pophale) SiO2 
 PCOD9534042
Probable space group: I M M A
;
_chemical_formula_sum "Si O2"
_cell_formula_units_Z 80
_cell_length_a 18.280722
_cell_length_b 18.633551
_cell_length_c 13.842959
_cell_angle_alpha 90.000000
_cell_angle_beta 90.000000
_cell_angle_gamma 90.000000
_cell_volume 4715.393096
_symmetry_space_group_name_H-M "I M M A"
_symmetry_group_IT_number 74
_symmetry_cell_setting 'orthorhombic'
loop_
_space_group_symop_operation_xyz
x,y,z
-x,1/2-y,z
x,-y,-z
-x,1/2+y,-z
-x,-y,-z
x,1/2+y,-z
-x,y,z
x,1/2-y,z
1/2+x,1/2+y,1/2+z
1/2-x,-y,1/2+z
1/2+x,1/2-y,1/2-z
1/2-x,y,1/2-z
1/2-x,1/2-y,1/2-z
1/2+x,y,1/2-z
1/2-x,1/2+y,1/2+z
1/2+x,-y,1/2+z
loop_
_atom_site_type_symbol
_atom_site_label
_atom_site_fract_x
_atom_site_fract_y
_atom_site_fract_z
Si Si1 0.650237 0.330545 0.345421
Si Si2 0.174248 0.538537 0.285537
Si Si3 0.187513 0.878394 0.633227
Si Si4 0.584358 0.083409 0.964368
Si Si5 0.585495 0.022116 0.394710
O O1 0.628362 0.250000 0.369445
O O2 0.731851 0.347581 0.385107
O O3 0.657368 0.339938 0.229321
O O4 0.597790 0.393092 0.381613
O O5 0.250000 0.572726 0.250000
O O6 0.195204 0.462594 0.337459
O O7 0.126471 0.582187 0.362438
O O8 0.127420 0.516912 0.191999
O O9 0.131919 0.874990 0.544344
O O10 0.500000 0.107274 0.957549
O O11 0.582364 0.000000 0.000000
O O12 0.500000 0.004541 0.388876
O O13 0.613989 0.000000 0.500000
#
# Coordination Sequence:
#
# PCOD9534042 Si02
#       5
#    16  16  16  16  16
#     4  10  19  32  51  75 104 135 172 212 253 311
#     4  10  17  28  48  74 100 135 173 214 259 313
#     4   9  16  29  47  71 100 138 166 202 254 312
#     4   9  18  28  44  71 104 136 173 220 265 314
#     4  10  21  34  50  73 105 139 173 215 264 311
#
# _framework density 16.965712
#
# number of rings (size 3 to 8) (size 9 to 14) (size 15 to 20)
#    0.000    2.400    4.000    1.800    2.800    5.200 
#    0.000    0.000    0.000    1.800    0.000    4.200 
#    0.000    6.400    0.000    0.000    0.000    0.000 
#
# Total GULP energy -222970.306095 kJ/mol
# GULP energy per Si atom -5574.257652 kJ/mol
# Density = 1.692710 g / cm^3
# Si number density = 16.965712 Si / 1000 Ang^3
#
#
#
# Elastic Constant Matrix: (Units=GPa)
#
#
# Indices 1 2 3 4 5 6 
#
# 1 90.8161 10.4664 72.0408 0.0000 0.0000 0.0000
# 2 10.4664 23.9864 21.0786 0.0000 0.0000 0.0000
# 3 72.0408 21.0786 105.6234 0.0000 0.0000 0.0000
# 4 0.0000 0.0000 0.0000 6.6251 0.0000 0.0000
# 5 0.0000 0.0000 0.0000 0.0000 28.4430 0.0000
# 6 0.0000 0.0000 0.0000 0.0000 0.0000 1.2683
#
#
#
# Elastic Compliance Matrix: (Units=1/GPa)
#
#
# Indices 1 2 3 4 5 6 
#
# 1 0.024445 0.004833 -0.017638 0.000000 0.000000 0.000000
# 2 0.004833 0.051512 -0.013576 0.000000 0.000000 0.000000
# 3 -0.017638 -0.013576 0.024207 0.000000 0.000000 0.000000
# 4 0.000000 0.000000 0.000000 0.150941 0.000000 0.000000
# 5 0.000000 0.000000 0.000000 0.000000 0.035158 0.000000
# 6 0.000000 0.000000 0.000000 0.000000 0.000000 0.788438
#
#
# Mechanical properties :
#
#
# Convention : Reuss Voigt Hill
#
# Bulk Modulus (GPa) = 21.09610 47.51084 34.30347
# Shear Modulus (GPa) = 4.37345 15.05662 9.71503
#
# Velocity S-wave (km/s) = 1.60730 2.98228 2.39556
# Velocity P-wave (km/s) = 3.98824 6.31850 5.28345
#
# Compressibility (1/GPa) = 0.04740213
#
# Stress axis : x y z
#
# Youngs Moduli (GPa) = 40.90736 19.41302 41.31095
#
# Poissons Ratio (x) = -0.09382 0.72862
# Poissons Ratio (y) = -0.19770 0.56084
# Poissons Ratio (z) = 0.72151 0.26355
#
# Static dielectric constant tensor:
#      x y z
#    x 1.584040 0.000000 0.000000 
#    y 0.000000 1.557050 0.000000 
#    z 0.000000 0.000000 1.576530 
# 
# From -- ./inp_files/32111.got.cif
#   From: 2010.05.17/outbox.cif.g08.bks.cpg/sg74_17_cif.got.tgz:32111.got - 2010.06.03 17:57:02.
