data_PCOD9534567
_publ_section_title
;
Structure prediction by ZEFSAII (Michael W. Deem and Ramdas Pophale) SiO2 
 PCOD9534567
Probable space group: I M M A
;
_chemical_formula_sum "Si O2"
_cell_formula_units_Z 96
_cell_length_a 16.535851
_cell_length_b 11.389397
_cell_length_c 26.938888
_cell_angle_alpha 90.000000
_cell_angle_beta 90.000000
_cell_angle_gamma 90.000000
_cell_volume 5073.491609
_symmetry_space_group_name_H-M "I M M A"
_symmetry_group_IT_number 74
_symmetry_cell_setting 'orthorhombic'
loop_
_space_group_symop_operation_xyz
x,y,z
-x,1/2-y,z
x,-y,-z
-x,1/2+y,-z
-x,-y,-z
x,1/2+y,-z
-x,y,z
x,1/2-y,z
1/2+x,1/2+y,1/2+z
1/2-x,-y,1/2+z
1/2+x,1/2-y,1/2-z
1/2-x,y,1/2-z
1/2-x,1/2-y,1/2-z
1/2+x,y,1/2-z
1/2-x,1/2+y,1/2+z
1/2+x,-y,1/2+z
loop_
_atom_site_type_symbol
_atom_site_label
_atom_site_fract_x
_atom_site_fract_y
_atom_site_fract_z
Si Si1 0.095997 0.750000 0.714061
Si Si2 0.623428 0.379579 0.827931
Si Si3 0.813152 0.380868 0.856509
Si Si4 0.751924 0.112390 0.965760
Si Si5 0.098246 0.750000 0.599355
Si Si6 0.845137 0.013725 0.235985
Si Si7 0.591478 0.996278 0.073156
O O1 0.128083 0.750000 0.656783
O O2 0.123205 0.637523 0.745118
O O3 0.000000 0.750000 0.709678
O O4 0.592107 0.250000 0.837789
O O5 0.719611 0.377555 0.838412
O O6 0.612389 0.418925 0.771770
O O7 0.589127 0.468864 0.868047
O O8 0.846966 0.250000 0.847728
O O9 0.804359 0.400894 0.915121
O O10 0.854067 0.477061 0.821218
O O11 0.760695 0.250000 0.982046
O O12 0.657584 0.088982 0.950779
O O13 0.772808 0.000000 0.000000
O O14 0.121424 0.630885 0.571044
O O15 0.000000 0.750000 0.600583
O O16 0.750000 0.012343 0.250000
O O17 0.500000 0.983032 0.054416
#
# Coordination Sequence:
#
# PCOD9534567 Si02
#       7
#     8  16  16  16   8  16  16
#     4  11  21  33  45  69 113 145 167 211 257 295
#     4   9  16  26  44  68  93 122 163 214 255 290
#     4   8  16  32  50  69  94 123 160 206 259 307
#     4  10  22  38  53  73  98 130 164 219 281 314
#     4   9  18  31  47  65  93 139 181 211 248 289
#     4  10  18  30  48  73  97 133 177 208 245 304
#     4  10  19  32  48  66  94 136 183 218 250 302
#
# _framework density 18.921880000000002
#
# number of rings (size 3 to 8) (size 9 to 14) (size 15 to 20)
#    0.000    2.500    1.667    2.250    1.167    3.667 
#    1.500    0.000    0.000    1.500    0.000    0.000 
#    0.000    0.667    0.000    0.000    0.000    0.000 
#
# Total GULP energy -267453.766668 kJ/mol
# GULP energy per Si atom -5571.953472 kJ/mol
# Density = 1.887881 g / cm^3
# Si number density = 18.921880 Si / 1000 Ang^3
#
#
#
# Elastic Constant Matrix: (Units=GPa)
#
#
# Indices 1 2 3 4 5 6 
#
# 1 8.5829 -0.7072 9.3952 0.0000 0.0000 0.0000
# 2 -0.7072 101.3278 41.9584 0.0000 0.0000 0.0000
# 3 9.3952 41.9584 90.9620 0.0000 0.0000 0.0000
# 4 0.0000 0.0000 0.0000 43.4040 0.0000 0.0000
# 5 0.0000 0.0000 0.0000 0.0000 4.3448 0.0000
# 6 0.0000 0.0000 0.0000 0.0000 0.0000 -23.3939
#
#
#
# Elastic Compliance Matrix: (Units=1/GPa)
#
#
# Indices 1 2 3 4 5 6 
#
# 1 0.136940 0.008421 -0.018029 0.000000 0.000000 0.000000
# 2 0.008421 0.012717 -0.006736 0.000000 0.000000 0.000000
# 3 -0.018029 -0.006736 0.015963 0.000000 0.000000 0.000000
# 4 0.000000 0.000000 0.000000 0.023039 0.000000 0.000000
# 5 0.000000 0.000000 0.000000 0.000000 0.230158 0.000000
# 6 0.000000 0.000000 0.000000 0.000000 0.000000 -0.042746
#
#
# Mechanical properties :
#
#
# Convention : Reuss Voigt Hill
#
# Bulk Modulus (GPa) = 7.52260 33.57394 20.54827
# Shear Modulus (GPa) = 11.03588 14.88607 12.96098
#
# Velocity S-wave (km/s) = 2.41764 2.80788 2.62004
# Velocity P-wave (km/s) = 3.43185 5.31923 4.47615
#
# Compressibility (1/GPa) = 0.13293282
#
# Stress axis : x y z
#
# Youngs Moduli (GPa) = 7.30249 78.63540 62.64583
#
# Poissons Ratio (x) = -0.66219 1.12941
# Poissons Ratio (y) = -0.06149 0.42197
# Poissons Ratio (z) = 0.13165 0.52967
#
# Static dielectric constant tensor:
#      x y z
#    x 1.654640 0.000000 0.000000 
#    y 0.000000 1.697570 0.000000 
#    z 0.000000 0.000000 1.699300 
# 
# From -- ./inp_files/67724.got.cif
#   From: 2010.05.17/outbox.cif.g08.bks.cpg/sg74_34_cif.got.tgz:67724.got - 2010.06.03 17:57:02.
