data_PCOD9534107
_publ_section_title
;
Structure prediction by ZEFSAII (Michael W. Deem and Ramdas Pophale) SiO2 
 PCOD9534107
Probable space group: I M M A
;
_chemical_formula_sum "Si O2"
_cell_formula_units_Z 88
_cell_length_a 16.551317
_cell_length_b 20.668285
_cell_length_c 10.364115
_cell_angle_alpha 90.000000
_cell_angle_beta 90.000000
_cell_angle_gamma 90.000000
_cell_volume 3545.432499
_symmetry_space_group_name_H-M "I M M A"
_symmetry_group_IT_number 74
_symmetry_cell_setting 'orthorhombic'
loop_
_space_group_symop_operation_xyz
x,y,z
-x,1/2-y,z
x,-y,-z
-x,1/2+y,-z
-x,-y,-z
x,1/2+y,-z
-x,y,z
x,1/2-y,z
1/2+x,1/2+y,1/2+z
1/2-x,-y,1/2+z
1/2+x,1/2-y,1/2-z
1/2-x,y,1/2-z
1/2-x,1/2-y,1/2-z
1/2+x,y,1/2-z
1/2-x,1/2+y,1/2+z
1/2+x,-y,1/2+z
loop_
_atom_site_type_symbol
_atom_site_label
_atom_site_fract_x
_atom_site_fract_y
_atom_site_fract_z
Si Si1 0.591428 0.974942 0.794719
Si Si2 0.382664 0.604115 0.537362
Si Si3 0.596425 0.250000 0.100538
Si Si4 0.107252 0.750000 0.912138
Si Si5 0.349196 0.392898 0.744301
Si Si6 0.159049 0.250000 0.794905
Si Si7 0.207999 0.864751 0.614915
O O1 0.500000 0.964114 0.836984
O O2 0.596304 0.948622 0.644866
O O3 0.655777 0.927032 0.856667
O O4 0.618983 0.047661 0.828043
O O5 0.419050 0.674433 0.572076
O O6 0.394737 0.587743 0.389679
O O7 0.285968 0.616240 0.535879
O O8 0.500000 0.250000 0.074736
O O9 0.609696 0.250000 0.256316
O O10 0.648198 0.311891 0.056953
O O11 0.158781 0.750000 0.047843
O O12 0.250000 0.395083 0.750000
O O13 0.375507 0.317892 0.756493
O O14 0.250000 0.250000 0.750000
O O15 0.250000 0.840898 0.750000
#
# Coordination Sequence:
#
# PCOD9534107 Si02
#       7
#    16  16   8   8  16   8  16
#     4  11  22  34  51  80 115 144 174 218 277 335
#     4  10  20  33  56  80 107 145 180 226 265 314
#     4  12  20  30  52  82 122 152 172 210 273 337
#     4  10  17  30  52  81 110 138 178 220 264 314
#     4  10  20  37  58  80 102 133 185 232 275 313
#     4   8  18  35  55  78 102 133 180 233 266 309
#     4  10  19  33  52  77 111 150 179 215 256 321
#
# _framework density 24.820668999999999
#
# number of rings (size 3 to 8) (size 9 to 14) (size 15 to 20)
#    0.000    1.818    3.636    3.545    0.000    1.455 
#    0.000    3.182    0.000    3.273    0.000    0.000 
#    0.000    0.000    0.000    0.000    0.000    0.000 
#
# Total GULP energy -245038.480474 kJ/mol
# GULP energy per Si atom -5569.056374 kJ/mol
# Density = 2.476418 g / cm^3
# Si number density = 24.820669 Si / 1000 Ang^3
#
#
#
# Elastic Constant Matrix: (Units=GPa)
#
#
# Indices 1 2 3 4 5 6 
#
# 1 167.4628 59.7501 -9.0861 0.0000 0.0000 0.0000
# 2 59.7501 193.6424 -20.2830 0.0000 0.0000 0.0000
# 3 -9.0861 -20.2830 59.8627 0.0000 0.0000 0.0000
# 4 0.0000 0.0000 0.0000 58.6617 0.0000 0.0000
# 5 0.0000 0.0000 0.0000 0.0000 -19.8475 0.0000
# 6 0.0000 0.0000 0.0000 0.0000 0.0000 204.5604
#
#
#
# Elastic Compliance Matrix: (Units=1/GPa)
#
#
# Indices 1 2 3 4 5 6 
#
# 1 0.006716 -0.002038 0.000329 0.000000 0.000000 0.000000
# 2 -0.002038 0.005973 0.001714 0.000000 0.000000 0.000000
# 3 0.000329 0.001714 0.017336 0.000000 0.000000 0.000000
# 4 0.000000 0.000000 0.000000 0.017047 0.000000 0.000000
# 5 0.000000 0.000000 0.000000 0.000000 -0.050384 0.000000
# 6 0.000000 0.000000 0.000000 0.000000 0.000000 0.004889
#
#
# Mechanical properties :
#
#
# Convention : Reuss Voigt Hill
#
# Bulk Modulus (GPa) = 33.29422 53.52556 43.40989
# Shear Modulus (GPa) = 431.88161 74.71404 253.29782
#
# Velocity S-wave (km/s) = 13.20525 5.49244 10.11300
# Velocity P-wave (km/s) = 15.68272 7.86348 12.40528
#
# Compressibility (1/GPa) = 0.03003524
#
# Stress axis : x y z
#
# Youngs Moduli (GPa) = 148.88788 167.43241 57.68452
#
# Poissons Ratio (x) = 0.34122 -0.01897
# Poissons Ratio (y) = 0.30343 -0.09889
# Poissons Ratio (z) = -0.04897 -0.28703
#
# Static dielectric constant tensor:
#      x y z
#    x 1.942630 0.000000 0.000000 
#    y 0.000000 1.980480 0.000000 
#    z 0.000000 0.000000 1.979670 
# 
# From -- ./inp_files/32261.got.cif
#   From: 2010.05.17/outbox.cif.g08.bks.cpg/sg74_17_cif.got.tgz:32261.got - 2010.06.03 17:57:02.
