data_PCOD9534763
_publ_section_title
;
Structure prediction by ZEFSAII (Michael W. Deem and Ramdas Pophale) SiO2 
 PCOD9534763
Probable space group: I M M A
;
_chemical_formula_sum "Si O2"
_cell_formula_units_Z 104
_cell_length_a 8.060556
_cell_length_b 24.844502
_cell_length_c 25.598596
_cell_angle_alpha 90.000000
_cell_angle_beta 90.000000
_cell_angle_gamma 90.000000
_cell_volume 5126.387626
_symmetry_space_group_name_H-M "I M M A"
_symmetry_group_IT_number 74
_symmetry_cell_setting 'orthorhombic'
loop_
_space_group_symop_operation_xyz
x,y,z
-x,1/2-y,z
x,-y,-z
-x,1/2+y,-z
-x,-y,-z
x,1/2+y,-z
-x,y,z
x,1/2-y,z
1/2+x,1/2+y,1/2+z
1/2-x,-y,1/2+z
1/2+x,1/2-y,1/2-z
1/2-x,y,1/2-z
1/2-x,1/2-y,1/2-z
1/2+x,y,1/2-z
1/2-x,1/2+y,1/2+z
1/2+x,-y,1/2+z
loop_
_atom_site_type_symbol
_atom_site_label
_atom_site_fract_x
_atom_site_fract_y
_atom_site_fract_z
Si Si1 0.303384 0.633849 0.310241
Si Si2 0.703353 0.442604 0.599498
Si Si3 0.806765 0.750000 0.986669
Si Si4 0.203296 0.131386 0.997688
Si Si5 0.202358 0.565689 0.900003
Si Si6 0.698717 0.356246 0.309830
Si Si7 0.196044 0.250000 0.689098
Si Si8 0.191627 0.750000 0.629837
O O1 0.500000 0.630556 0.310316
O O2 0.250000 0.629521 0.250000
O O3 0.238561 0.587050 0.347834
O O4 0.258699 0.693103 0.332232
O O5 0.500000 0.443423 0.599844
O O6 0.753077 0.406042 0.550459
O O7 0.758899 0.504209 0.595107
O O8 0.735651 0.692894 0.005451
O O9 0.795739 0.750000 0.923568
O O10 0.000000 0.750000 0.002215
O O11 0.255476 0.103065 0.051679
O O12 0.000000 0.133104 0.998390
O O13 0.252376 0.593808 0.845995
O O14 0.000000 0.564752 0.901289
O O15 0.500000 0.352341 0.312559
O O16 0.750000 0.361706 0.250000
O O17 0.770152 0.302336 0.335762
O O18 0.250000 0.250000 0.750000
O O19 0.000000 0.250000 0.687031
O O20 0.000000 0.750000 0.614189
#
# Coordination Sequence:
#
# PCOD9534763 Si02
#       8
#    16  16   8  16  16  16   8   8
#     4  10  19  32  51  77 108 139 173 217 266 322
#     4   9  18  30  49  81 112 141 181 227 272 320
#     4  10  18  32  56  87 113 144 179 225 286 335
#     4   9  16  29  52  80 110 139 177 228 277 321
#     4   9  17  31  52  77 109 145 180 223 273 321
#     4  11  22  37  57  84 114 147 187 231 276 329
#     4  10  18  31  52  74  97 131 171 210 256 313
#     4  12  23  37  57  81 112 149 185 227 278 336
#
# _framework density 20.287189000000001
#
# number of rings (size 3 to 8) (size 9 to 14) (size 15 to 20)
#    0.000    2.154    1.538    3.923    0.000    3.077 
#    0.000    2.308    0.000    5.538    0.000    1.077 
#    0.000    0.000    0.000    0.000    0.000    0.000 
#
# Total GULP energy -290319.478470 kJ/mol
# GULP energy per Si atom -5583.066894 kJ/mol
# Density = 2.024101 g / cm^3
# Si number density = 20.287189 Si / 1000 Ang^3
#
#
#
# Elastic Constant Matrix: (Units=GPa)
#
#
# Indices 1 2 3 4 5 6 
#
# 1 23.5739 2.3171 -8.4762 0.0000 0.0000 0.0000
# 2 2.3171 202.4404 59.9043 0.0000 0.0000 0.0000
# 3 -8.4762 59.9043 61.8825 0.0000 0.0000 0.0000
# 4 0.0000 0.0000 0.0000 24.8749 0.0000 0.0000
# 5 0.0000 0.0000 0.0000 0.0000 16.2813 0.0000
# 6 0.0000 0.0000 0.0000 0.0000 0.0000 2.2267
#
#
#
# Elastic Compliance Matrix: (Units=1/GPa)
#
#
# Indices 1 2 3 4 5 6 
#
# 1 0.046197 -0.003365 0.009585 0.000000 0.000000 0.000000
# 2 -0.003365 0.007168 -0.007400 0.000000 0.000000 0.000000
# 3 0.009585 -0.007400 0.024636 0.000000 0.000000 0.000000
# 4 0.000000 0.000000 0.000000 0.040201 0.000000 0.000000
# 5 0.000000 0.000000 0.000000 0.000000 0.061420 0.000000
# 6 0.000000 0.000000 0.000000 0.000000 0.000000 0.449102
#
#
# Mechanical properties :
#
#
# Convention : Reuss Voigt Hill
#
# Bulk Modulus (GPa) = 13.22025 43.93190 28.57608
# Shear Modulus (GPa) = 7.61851 24.28667 15.95259
#
# Velocity S-wave (km/s) = 1.93997 3.46373 2.80721
# Velocity P-wave (km/s) = 3.39833 6.13992 4.96222
#
# Compressibility (1/GPa) = 0.07564153
#
# Stress axis : x y z
#
# Youngs Moduli (GPa) = 21.64640 139.51112 40.59149
#
# Poissons Ratio (x) = 0.46947 -0.38908
# Poissons Ratio (y) = 0.07284 0.30036
# Poissons Ratio (z) = -0.20749 1.03234
#
# Static dielectric constant tensor:
#      x y z
#    x 1.711540 0.000000 0.000000 
#    y 0.000000 1.739590 0.000000 
#    z 0.000000 0.000000 1.709080 
# 
# From -- ./inp_files/64580.got.cif
#   From: 2010.05.17/outbox.cif.g08.bks.cpg/sg74_33_cif.got.tgz:64580.got - 2010.06.03 17:57:02.
