data_PCOD9534093
_publ_section_title
;
Structure prediction by ZEFSAII (Michael W. Deem and Ramdas Pophale) SiO2 
 PCOD9534093
Probable space group: I M M A
;
_chemical_formula_sum "Si O2"
_cell_formula_units_Z 80
_cell_length_a 10.368939
_cell_length_b 22.006143
_cell_length_c 24.118865
_cell_angle_alpha 90.000000
_cell_angle_beta 90.000000
_cell_angle_gamma 90.000000
_cell_volume 5503.451163
_symmetry_space_group_name_H-M "I M M A"
_symmetry_group_IT_number 74
_symmetry_cell_setting 'orthorhombic'
loop_
_space_group_symop_operation_xyz
x,y,z
-x,1/2-y,z
x,-y,-z
-x,1/2+y,-z
-x,-y,-z
x,1/2+y,-z
-x,y,z
x,1/2-y,z
1/2+x,1/2+y,1/2+z
1/2-x,-y,1/2+z
1/2+x,1/2-y,1/2-z
1/2-x,y,1/2-z
1/2-x,1/2-y,1/2-z
1/2+x,y,1/2-z
1/2-x,1/2+y,1/2+z
1/2+x,-y,1/2+z
loop_
_atom_site_type_symbol
_atom_site_label
_atom_site_fract_x
_atom_site_fract_y
_atom_site_fract_z
Si Si1 0.850772 0.068734 0.524597
Si Si2 0.750000 0.020386 0.250000
Si Si3 0.259494 0.621082 0.916499
Si Si4 0.500000 0.179694 0.141410
Si Si5 0.000000 0.177338 0.131504
Si Si6 0.000000 0.105519 0.244014
Si Si7 0.156633 0.491488 0.634353
O O1 0.769998 0.109300 0.482314
O O2 0.000000 0.088855 0.522092
O O3 0.848818 0.000000 0.500000
O O4 0.811402 0.059434 0.588377
O O5 0.873352 0.063582 0.239404
O O6 0.786086 0.982556 0.304729
O O7 0.374887 0.663192 0.894583
O O8 0.125795 0.649194 0.897411
O O9 0.287173 0.555726 0.887529
O O10 0.500000 0.250000 0.157150
O O11 0.500000 0.138433 0.196534
O O12 0.000000 0.154448 0.195001
O O13 0.000000 0.250000 0.128664
O O14 0.000000 0.496756 0.636001
#
# Coordination Sequence:
#
# PCOD9534093 Si02
#       7
#    16   8  16   8   8   8  16
#     4   8  15  28  51  70  83 108 149 195 236 276
#     4  12  18  30  49  66  92 126 153 192 222 270
#     4  11  18  34  47  65  87 116 156 199 239 273
#     4  12  21  32  50  65  81 119 177 210 223 254
#     4  12  25  34  42  61  95 131 157 198 243 262
#     4  12  21  34  44  58  92 126 168 198 229 254
#     4  10  17  30  50  71  89 117 153 190 235 274
#
# _framework density 14.536333000000001
#
# number of rings (size 3 to 8) (size 9 to 14) (size 15 to 20)
#    0.000    1.400    7.000    2.100    0.000    0.000 
#    0.000    8.500    0.000    0.000    0.000    0.000 
#    0.000    0.000    0.000    5.400    0.000    0.000 
#
# Total GULP energy -223026.892350 kJ/mol
# GULP energy per Si atom -5575.672309 kJ/mol
# Density = 1.450325 g / cm^3
# Si number density = 14.536333 Si / 1000 Ang^3
#
#
#
# Elastic Constant Matrix: (Units=GPa)
#
#
# Indices 1 2 3 4 5 6 
#
# 1 108.9351 27.4147 48.9833 0.0000 0.0000 0.0000
# 2 27.4147 26.9589 39.3949 0.0000 0.0000 0.0000
# 3 48.9833 39.3949 142.6285 0.0000 0.0000 0.0000
# 4 0.0000 0.0000 0.0000 11.7634 0.0000 0.0000
# 5 0.0000 0.0000 0.0000 0.0000 7.1346 0.0000
# 6 0.0000 0.0000 0.0000 0.0000 0.0000 -184.6802
#
#
#
# Elastic Compliance Matrix: (Units=1/GPa)
#
#
# Indices 1 2 3 4 5 6 
#
# 1 0.012481 -0.010779 -0.001309 0.000000 0.000000 0.000000
# 2 -0.010779 0.071507 -0.016049 0.000000 0.000000 0.000000
# 3 -0.001309 -0.016049 0.011894 0.000000 0.000000 0.000000
# 4 0.000000 0.000000 0.000000 0.085009 0.000000 0.000000
# 5 0.000000 0.000000 0.000000 0.000000 0.140162 0.000000
# 6 0.000000 0.000000 0.000000 0.000000 0.000000 -0.005415
#
#
# Mechanical properties :
#
#
# Convention : Reuss Voigt Hill
#
# Bulk Modulus (GPa) = 25.24772 56.67868 40.96320
# Shear Modulus (GPa) = 12.98315 -22.30780 -4.66232
#
# Velocity S-wave (km/s) = 2.99181 -3.92168 -1.79285
# Velocity P-wave (km/s) = 5.41673 4.30925 4.89441
#
# Compressibility (1/GPa) = 0.03960754
#
# Stress axis : x y z
#
# Youngs Moduli (GPa) = 80.12097 13.98469 84.07887
#
# Poissons Ratio (x) = 0.15074 0.11007
# Poissons Ratio (y) = 0.86363 1.34936
# Poissons Ratio (z) = 0.10489 0.22444
#
# Static dielectric constant tensor:
#      x y z
#    x 1.475850 0.000000 0.000000 
#    y 0.000000 1.446460 0.000000 
#    z 0.000000 0.000000 1.519970 
# 
# From -- ./inp_files/57452.got.cif
#   From: 2010.05.17/outbox.cif.g08.bks.cpg/sg74_29_cif.got.tgz:57452.got - 2010.06.03 17:57:02.
