data_PCOD9534827
_publ_section_title
;
Structure prediction by ZEFSAII (Michael W. Deem and Ramdas Pophale) SiO2 
 PCOD9534827
Probable space group: I M M A
;
_chemical_formula_sum "Si O2"
_cell_formula_units_Z 72
_cell_length_a 11.057456
_cell_length_b 20.899658
_cell_length_c 18.031798
_cell_angle_alpha 90.000000
_cell_angle_beta 90.000000
_cell_angle_gamma 90.000000
_cell_volume 4167.095301
_symmetry_space_group_name_H-M "I M M A"
_symmetry_group_IT_number 74
_symmetry_cell_setting 'orthorhombic'
loop_
_space_group_symop_operation_xyz
x,y,z
-x,1/2-y,z
x,-y,-z
-x,1/2+y,-z
-x,-y,-z
x,1/2+y,-z
-x,y,z
x,1/2-y,z
1/2+x,1/2+y,1/2+z
1/2-x,-y,1/2+z
1/2+x,1/2-y,1/2-z
1/2-x,y,1/2-z
1/2-x,1/2-y,1/2-z
1/2+x,y,1/2-z
1/2-x,1/2+y,1/2+z
1/2+x,-y,1/2+z
loop_
_atom_site_type_symbol
_atom_site_label
_atom_site_fract_x
_atom_site_fract_y
_atom_site_fract_z
Si Si1 0.500000 0.994060 0.588664
Si Si2 0.000000 0.363628 0.845835
Si Si3 0.759256 0.371865 0.607856
Si Si4 0.746605 0.980913 0.662533
Si Si5 0.136638 0.572733 0.530458
Si Si6 0.000000 0.176969 0.683160
O O1 0.500000 0.066029 0.619334
O O2 0.500000 0.000000 0.500000
O O3 0.619932 0.963839 0.622836
O O4 0.867972 0.338541 0.871316
O O5 0.000000 0.365836 0.757075
O O6 0.764853 0.443000 0.645815
O O7 0.774303 0.385313 0.520046
O O8 0.877982 0.336274 0.637522
O O9 0.750000 0.971458 0.750000
O O10 0.840043 0.937159 0.617189
O O11 0.148887 0.500000 0.500000
O O12 0.000000 0.594198 0.515895
O O13 0.000000 0.250000 0.709436
#
# Coordination Sequence:
#
# PCOD9534827 Si02
#       6
#     8   8  16  16  16   8
#     4  10  18  32  45  67  98 130 167 207 249 301
#     4  10  20  32  50  68  92 125 166 207 253 287
#     4  10  19  35  49  68  95 134 170 205 246 297
#     4  10  19  27  47  72  99 127 165 203 247 299
#     4   9  17  29  47  68  94 129 166 199 239 296
#     4  12  24  36  50  71  99 133 177 222 255 286
#
# _framework density 17.278224000000002
#
# number of rings (size 3 to 8) (size 9 to 14) (size 15 to 20)
#    0.000    2.000    1.111    6.667    3.111    1.778 
#    0.000    0.000    0.000    0.000    0.000    0.000 
#    0.000    0.889    0.000    4.222    0.000    0.889 
#
# Total GULP energy -200503.114926 kJ/mol
# GULP energy per Si atom -5569.530970 kJ/mol
# Density = 1.723890 g / cm^3
# Si number density = 17.278224 Si / 1000 Ang^3
#
#
#
# Elastic Constant Matrix: (Units=GPa)
#
#
# Indices 1 2 3 4 5 6 
#
# 1 109.5772 5.8374 20.4065 0.0000 0.0000 0.0000
# 2 5.8374 13.8809 13.8722 0.0000 0.0000 0.0000
# 3 20.4065 13.8722 144.7177 0.0000 0.0000 0.0000
# 4 0.0000 0.0000 0.0000 1.2395 0.0000 0.0000
# 5 0.0000 0.0000 0.0000 0.0000 25.2001 0.0000
# 6 0.0000 0.0000 0.0000 0.0000 0.0000 1.4548
#
#
#
# Elastic Compliance Matrix: (Units=1/GPa)
#
#
# Indices 1 2 3 4 5 6 
#
# 1 0.009479 -0.002931 -0.001056 0.000000 0.000000 0.000000
# 2 -0.002931 0.080580 -0.007311 0.000000 0.000000 0.000000
# 3 -0.001056 -0.007311 0.007760 0.000000 0.000000 0.000000
# 4 0.000000 0.000000 0.000000 0.806787 0.000000 -0.000002
# 5 0.000000 0.000000 0.000000 0.000000 0.039682 0.000000
# 6 0.000000 0.000000 0.000000 -0.000002 0.000000 0.687397
#
#
# Mechanical properties :
#
#
# Convention : Reuss Voigt Hill
#
# Bulk Modulus (GPa) = 13.29372 38.71199 26.00285
# Shear Modulus (GPa) = 2.97733 20.78286 11.88010
#
# Velocity S-wave (km/s) = 1.31412 3.47195 2.62501
# Velocity P-wave (km/s) = 3.16436 6.20696 4.92643
#
# Compressibility (1/GPa) = 0.07522350
#
# Stress axis : x y z
#
# Youngs Moduli (GPa) = 105.49946 12.40995 128.87168
#
# Poissons Ratio (x) = 0.03638 0.13604
# Poissons Ratio (y) = 0.30924 0.94217
# Poissons Ratio (z) = 0.11137 0.09073
#
# Static dielectric constant tensor:
#      x y z
#    x 1.723520 0.000000 0.000000 
#    y 0.000000 1.565660 0.000000 
#    z 0.000000 0.000000 1.692700 
# 
# From -- ./inp_files/41132.got.cif
#   From: 2010.05.17/outbox.cif.g08.bks.cpg/sg74_21_cif.got.tgz:41132.got - 2010.06.03 17:57:02.
