data_PCOD9534409
_publ_section_title
;
Structure prediction by ZEFSAII (Michael W. Deem and Ramdas Pophale) SiO2 
 PCOD9534409
Probable space group: I M M A
;
_chemical_formula_sum "Si O2"
_cell_formula_units_Z 96
_cell_length_a 14.334792
_cell_length_b 14.673257
_cell_length_c 22.273591
_cell_angle_alpha 90.000000
_cell_angle_beta 90.000000
_cell_angle_gamma 90.000000
_cell_volume 4684.984523
_symmetry_space_group_name_H-M "I M M A"
_symmetry_group_IT_number 74
_symmetry_cell_setting 'orthorhombic'
loop_
_space_group_symop_operation_xyz
x,y,z
-x,1/2-y,z
x,-y,-z
-x,1/2+y,-z
-x,-y,-z
x,1/2+y,-z
-x,y,z
x,1/2-y,z
1/2+x,1/2+y,1/2+z
1/2-x,-y,1/2+z
1/2+x,1/2-y,1/2-z
1/2-x,y,1/2-z
1/2-x,1/2-y,1/2-z
1/2+x,y,1/2-z
1/2-x,1/2+y,1/2+z
1/2+x,-y,1/2+z
loop_
_atom_site_type_symbol
_atom_site_label
_atom_site_fract_x
_atom_site_fract_y
_atom_site_fract_z
Si Si1 0.886544 0.047526 0.590679
Si Si2 0.113993 0.750000 0.969227
Si Si3 0.386260 0.855818 0.965879
Si Si4 0.892392 0.431752 0.833883
Si Si5 0.113325 0.750000 0.107257
Si Si6 0.847449 0.355140 0.714999
Si Si7 0.385625 0.053732 0.439014
O O1 0.859526 0.108194 0.532504
O O2 0.849926 0.095840 0.650939
O O3 0.000000 0.049419 0.594210
O O4 0.859598 0.941426 0.577596
O O5 0.147916 0.843263 0.941575
O O6 0.000000 0.750000 0.966757
O O7 0.139823 0.750000 0.038741
O O8 0.500000 0.854117 0.964481
O O9 0.356355 0.750000 0.955249
O O10 0.851766 0.337891 0.858909
O O11 0.894783 0.424616 0.762558
O O12 0.852745 0.509545 0.876672
O O13 0.000000 0.430716 0.852486
O O14 0.000000 0.750000 0.109634
O O15 0.884633 0.250000 0.711660
O O16 0.750000 0.348142 0.750000
O O17 0.500000 0.056719 0.441467
O O18 0.358316 0.000000 0.500000
#
# Coordination Sequence:
#
# PCOD9534409 Si02
#       7
#    16   8  16  16   8  16  16
#     4   9  17  30  53  83 107 131 166 207 254 308
#     4   9  14  22  38  63  94 122 147 193 246 270
#     4   8  14  27  52  85 111 127 155 208 266 310
#     4  10  18  29  47  70  92 122 163 200 237 286
#     4   9  14  22  41  67  91 114 149 193 235 274
#     4  11  23  35  48  69 101 136 165 200 249 300
#     4   9  15  23  40  66  92 118 151 194 238 272
#
# _framework density 20.490995999999999
#
# number of rings (size 3 to 8) (size 9 to 14) (size 15 to 20)
#    0.000    2.667    2.500    2.000    0.000    1.667 
#    0.000    0.000    5.500    0.500    0.000    0.000 
#    0.000    0.000    0.000    0.000    0.000    0.000 
#
# Total GULP energy -267389.462282 kJ/mol
# GULP energy per Si atom -5570.613798 kJ/mol
# Density = 2.044436 g / cm^3
# Si number density = 20.490996 Si / 1000 Ang^3
#
#
#
# Elastic Constant Matrix: (Units=GPa)
#
#
# Indices 1 2 3 4 5 6 
#
# 1 49.0975 27.0058 18.3191 0.0000 0.0000 0.0000
# 2 27.0058 175.5602 100.8140 0.0000 0.0000 0.0000
# 3 18.3191 100.8140 161.5591 0.0000 0.0000 0.0000
# 4 0.0000 0.0000 0.0000 40.9926 0.0000 0.0000
# 5 0.0000 0.0000 0.0000 0.0000 9.5865 0.0000
# 6 0.0000 0.0000 0.0000 0.0000 0.0000 19.3484
#
#
#
# Elastic Compliance Matrix: (Units=1/GPa)
#
#
# Indices 1 2 3 4 5 6 
#
# 1 0.022288 -0.003081 -0.000604 0.000000 0.000000 0.000000
# 2 -0.003081 0.009303 -0.005456 0.000000 0.000000 0.000000
# 3 -0.000604 -0.005456 0.009663 0.000000 0.000000 0.000000
# 4 0.000000 0.000000 0.000000 0.024395 0.000000 0.000000
# 5 0.000000 0.000000 0.000000 0.000000 0.104314 0.000000
# 6 0.000000 0.000000 0.000000 0.000000 0.000000 0.051684
#
#
# Mechanical properties :
#
#
# Convention : Reuss Voigt Hill
#
# Bulk Modulus (GPa) = 43.53395 75.38829 59.46112
# Shear Modulus (GPa) = 20.19502 29.99068 25.09285
#
# Velocity S-wave (km/s) = 3.14276 3.82986 3.50320
# Velocity P-wave (km/s) = 5.87033 7.51185 6.74124
#
# Compressibility (1/GPa) = 0.02297058
#
# Stress axis : x y z
#
# Youngs Moduli (GPa) = 44.86705 107.49275 103.49159
#
# Poissons Ratio (x) = 0.33123 0.06255
# Poissons Ratio (y) = 0.13825 0.56462
# Poissons Ratio (z) = 0.02712 0.58645
#
# Static dielectric constant tensor:
#      x y z
#    x 1.861860 0.000000 0.000000 
#    y 0.000000 1.782730 0.000000 
#    z 0.000000 0.000000 1.741780 
# 
# From -- ./inp_files/51937.got.cif
#   From: 2010.05.17/outbox.cif.g08.bks.cpg/sg74_26_cif.got.tgz:51937.got - 2010.06.03 17:57:02.
