data_PCOD9534861
_publ_section_title
;
Structure prediction by ZEFSAII (Michael W. Deem and Ramdas Pophale) SiO2 
 PCOD9534861
Probable space group: I M M A
;
_chemical_formula_sum "Si O2"
_cell_formula_units_Z 88
_cell_length_a 8.459125
_cell_length_b 20.516943
_cell_length_c 31.275170
_cell_angle_alpha 90.000000
_cell_angle_beta 90.000000
_cell_angle_gamma 90.000000
_cell_volume 5427.974185
_symmetry_space_group_name_H-M "I M M A"
_symmetry_group_IT_number 74
_symmetry_cell_setting 'orthorhombic'
loop_
_space_group_symop_operation_xyz
x,y,z
-x,1/2-y,z
x,-y,-z
-x,1/2+y,-z
-x,-y,-z
x,1/2+y,-z
-x,y,z
x,1/2-y,z
1/2+x,1/2+y,1/2+z
1/2-x,-y,1/2+z
1/2+x,1/2-y,1/2-z
1/2-x,y,1/2-z
1/2-x,1/2-y,1/2-z
1/2+x,y,1/2-z
1/2-x,1/2+y,1/2+z
1/2+x,-y,1/2+z
loop_
_atom_site_type_symbol
_atom_site_label
_atom_site_fract_x
_atom_site_fract_y
_atom_site_fract_z
Si Si1 0.689583 0.178065 0.485238
Si Si2 0.811789 0.250000 0.798890
Si Si3 0.807760 0.037065 0.043585
Si Si4 0.813388 0.676974 0.419259
Si Si5 0.314655 0.951167 0.377927
Si Si6 0.186201 0.610496 0.297898
O O1 0.500000 0.173992 0.494218
O O2 0.718449 0.250000 0.465936
O O3 0.732294 0.113384 0.459185
O O4 0.781418 0.175306 0.529995
O O5 0.750000 0.250000 0.750000
O O6 0.750154 0.180405 0.815004
O O7 0.000000 0.250000 0.800260
O O8 0.000000 0.031611 0.043898
O O9 0.751429 0.002271 0.086910
O O10 0.755105 0.000000 0.000000
O O11 0.768505 0.750000 0.404794
O O12 0.712865 0.618948 0.399822
O O13 0.000000 0.667222 0.410332
O O14 0.500000 0.962802 0.371440
O O15 0.234107 0.944546 0.331825
O O16 0.250000 0.599596 0.250000
O O17 0.000000 0.616247 0.295246
#
# Coordination Sequence:
#
# PCOD9534861 Si02
#       6
#    16   8  16  16  16  16
#     4   9  16  29  49  68  89 124 165 199 235 281
#     4  10  18  32  52  72  92 122 160 196 244 284
#     4   9  16  29  47  70  97 124 157 200 238 277
#     4  10  20  31  42  62  93 124 159 202 243 280
#     4  11  21  33  50  68  91 125 163 198 242 287
#     4  11  22  37  52  69  94 120 157 200 243 284
#
# _framework density 16.212311
#
# number of rings (size 3 to 8) (size 9 to 14) (size 15 to 20)
#    0.000    2.000    1.818    4.636    1.273    1.091 
#    0.000    2.727    0.000    0.000    0.000    0.000 
#    0.000    0.727    0.000    1.273    0.000    1.818 
#
# Total GULP energy -245404.262646 kJ/mol
# GULP energy per Si atom -5577.369606 kJ/mol
# Density = 1.617541 g / cm^3
# Si number density = 16.212311 Si / 1000 Ang^3
#
#
#
# Elastic Constant Matrix: (Units=GPa)
#
#
# Indices 1 2 3 4 5 6 
#
# 1 58.4925 13.3988 20.2303 0.0000 0.0000 0.0000
# 2 13.3988 94.0325 55.6288 0.0000 0.0000 0.0000
# 3 20.2303 55.6288 97.0609 0.0000 0.0000 0.0000
# 4 0.0000 0.0000 0.0000 30.4972 0.0000 0.0000
# 5 0.0000 0.0000 0.0000 0.0000 19.6284 0.0000
# 6 0.0000 0.0000 0.0000 0.0000 0.0000 9.9610
#
#
#
# Elastic Compliance Matrix: (Units=1/GPa)
#
#
# Indices 1 2 3 4 5 6 
#
# 1 0.018442 -0.000535 -0.003537 0.000000 0.000000 0.000000
# 2 -0.000535 0.016106 -0.009119 0.000000 0.000000 0.000000
# 3 -0.003537 -0.009119 0.016267 0.000000 0.000000 0.000000
# 4 0.000000 0.000000 0.000000 0.032790 0.000000 0.000000
# 5 0.000000 0.000000 0.000000 0.000000 0.050947 0.000000
# 6 0.000000 0.000000 0.000000 0.000000 0.000000 0.100391
#
#
# Mechanical properties :
#
#
# Convention : Reuss Voigt Hill
#
# Bulk Modulus (GPa) = 40.93109 47.56687 44.24898
# Shear Modulus (GPa) = 18.55501 22.70584 20.63042
#
# Velocity S-wave (km/s) = 3.38672 3.74643 3.57110
# Velocity P-wave (km/s) = 6.37141 6.93671 6.66006
#
# Compressibility (1/GPa) = 0.02443131
#
# Stress axis : x y z
#
# Youngs Moduli (GPa) = 54.22349 62.08979 61.47595
#
# Poissons Ratio (x) = 0.03324 0.21744
# Poissons Ratio (y) = 0.02903 0.56061
# Poissons Ratio (z) = 0.19179 0.56621
#
# Static dielectric constant tensor:
#      x y z
#    x 1.558320 0.000000 0.000000 
#    y 0.000000 1.559560 0.000000 
#    z 0.000000 0.000000 1.563350 
# 
# From -- ./inp_files/70461.got.cif
#   From: 2010.05.17/outbox.cif.g08.bks.cpg/sg74_36_cif.got.tgz:70461.got - 2010.06.03 17:57:02.
