data_PCOD9534963
_publ_section_title
;
Structure prediction by ZEFSAII (Michael W. Deem and Ramdas Pophale) SiO2 
 PCOD9534963
Probable space group: I M M A
;
_chemical_formula_sum "Si O2"
_cell_formula_units_Z 72
_cell_length_a 13.621491
_cell_length_b 8.285702
_cell_length_c 31.783087
_cell_angle_alpha 90.000000
_cell_angle_beta 90.000000
_cell_angle_gamma 90.000000
_cell_volume 3587.154102
_symmetry_space_group_name_H-M "I M M A"
_symmetry_group_IT_number 74
_symmetry_cell_setting 'orthorhombic'
loop_
_space_group_symop_operation_xyz
x,y,z
-x,1/2-y,z
x,-y,-z
-x,1/2+y,-z
-x,-y,-z
x,1/2+y,-z
-x,y,z
x,1/2-y,z
1/2+x,1/2+y,1/2+z
1/2-x,-y,1/2+z
1/2+x,1/2-y,1/2-z
1/2-x,y,1/2-z
1/2-x,1/2-y,1/2-z
1/2+x,y,1/2-z
1/2-x,1/2+y,1/2+z
1/2+x,-y,1/2+z
loop_
_atom_site_type_symbol
_atom_site_label
_atom_site_fract_x
_atom_site_fract_y
_atom_site_fract_z
Si Si1 0.181034 0.445127 0.310541
Si Si2 0.608501 0.553580 0.717486
Si Si3 0.500000 0.058875 0.451379
Si Si4 0.392418 0.056313 0.899104
Si Si5 0.707437 0.056964 0.548246
O O1 0.178738 0.250000 0.313070
O O2 0.295378 0.498222 0.308359
O O3 0.130766 0.489280 0.266179
O O4 0.127234 0.515648 0.350627
O O5 0.500000 0.496834 0.704776
O O6 0.607897 0.750000 0.715815
O O7 0.500000 0.250000 0.451171
O O8 0.500000 0.000000 0.500000
O O9 0.602873 0.998494 0.433012
O O10 0.500000 0.994502 0.911904
O O11 0.393187 0.250000 0.903798
O O12 0.300960 0.993475 0.926187
O O13 0.707802 0.250000 0.548406
O O14 0.713383 0.000000 0.500000
#
# Coordination Sequence:
#
# PCOD9534963 Si02
#       5
#    16  16   8  16  16
#     4   9  17  30  51  76 100 133 177 217 257 307
#     4   8  14  27  48  74 104 134 167 214 265 305
#     4  10  18  32  56  82 106 132 168 210 256 310
#     4  10  22  38  53  73 106 143 174 213 267 317
#     4  10  20  36  57  79 106 139 175 215 262 312
#
# _framework density 20.071622000000001
#
# number of rings (size 3 to 8) (size 9 to 14) (size 15 to 20)
#    0.000    2.667    0.000    5.000    0.000    3.556 
#    2.000    2.222    0.000    1.333    0.000    0.000 
#    0.000    0.000    0.000    0.000    0.000    0.000 
#
# Total GULP energy -200811.325945 kJ/mol
# GULP energy per Si atom -5578.092387 kJ/mol
# Density = 2.002594 g / cm^3
# Si number density = 20.071622 Si / 1000 Ang^3
#
#
#
# Elastic Constant Matrix: (Units=GPa)
#
#
# Indices 1 2 3 4 5 6 
#
# 1 195.6998 22.4510 34.0540 0.0000 0.0000 0.0000
# 2 22.4510 29.4035 2.8514 0.0000 0.0000 0.0000
# 3 34.0540 2.8514 27.6186 0.0000 0.0000 0.0000
# 4 0.0000 0.0000 0.0000 21.3287 0.0000 0.0000
# 5 0.0000 0.0000 0.0000 0.0000 22.9115 0.0000
# 6 0.0000 0.0000 0.0000 0.0000 0.0000 5.0484
#
#
#
# Elastic Compliance Matrix: (Units=1/GPa)
#
#
# Indices 1 2 3 4 5 6 
#
# 1 0.007072 -0.004601 -0.008245 0.000000 0.000000 0.000000
# 2 -0.004601 0.037346 0.001817 0.000000 0.000000 0.000000
# 3 -0.008245 0.001817 0.046187 0.000000 0.000000 0.000000
# 4 0.000000 0.000000 0.000000 0.046885 0.000000 0.000000
# 5 0.000000 0.000000 0.000000 0.000000 0.043646 0.000000
# 6 0.000000 0.000000 0.000000 0.000000 0.000000 0.198081
#
#
# Mechanical properties :
#
#
# Convention : Reuss Voigt Hill
#
# Bulk Modulus (GPa) = 14.58854 41.27050 27.92952
# Shear Modulus (GPa) = 11.78899 22.74877 17.26888
#
# Velocity S-wave (km/s) = 2.42615 3.37022 2.93638
# Velocity P-wave (km/s) = 3.89003 5.97920 5.04396
#
# Compressibility (1/GPa) = 0.06854694
#
# Stress axis : x y z
#
# Youngs Moduli (GPa) = 141.39374 26.77652 21.65129
#
# Poissons Ratio (x) = 0.12319 0.17852
# Poissons Ratio (y) = 0.65049 -0.03934
# Poissons Ratio (z) = 1.16585 -0.04865
#
# Static dielectric constant tensor:
#      x y z
#    x 1.773760 0.000000 0.000000 
#    y 0.000000 1.686830 0.000000 
#    z 0.000000 0.000000 1.677680 
# 
# From -- ./inp_files/66725.got.cif
#   From: 2010.05.17/outbox.cif.g08.bks.cpg/sg74_34_cif.got.tgz:66725.got - 2010.06.03 17:57:02.
