data_PCOD9534159
_publ_section_title
;
Structure prediction by ZEFSAII (Michael W. Deem and Ramdas Pophale) SiO2 
 PCOD9534159
Probable space group: I M M A
;
_chemical_formula_sum "Si O2"
_cell_formula_units_Z 72
_cell_length_a 20.253721
_cell_length_b 17.687697
_cell_length_c 11.580295
_cell_angle_alpha 90.000000
_cell_angle_beta 90.000000
_cell_angle_gamma 90.000000
_cell_volume 4148.544338
_symmetry_space_group_name_H-M "I M M A"
_symmetry_group_IT_number 74
_symmetry_cell_setting 'orthorhombic'
loop_
_space_group_symop_operation_xyz
x,y,z
-x,1/2-y,z
x,-y,-z
-x,1/2+y,-z
-x,-y,-z
x,1/2+y,-z
-x,y,z
x,1/2-y,z
1/2+x,1/2+y,1/2+z
1/2-x,-y,1/2+z
1/2+x,1/2-y,1/2-z
1/2-x,y,1/2-z
1/2-x,1/2-y,1/2-z
1/2+x,y,1/2-z
1/2-x,1/2+y,1/2+z
1/2+x,-y,1/2+z
loop_
_atom_site_type_symbol
_atom_site_label
_atom_site_fract_x
_atom_site_fract_y
_atom_site_fract_z
Si Si1 0.764529 0.663910 0.887467
Si Si2 0.000000 0.831754 0.995283
Si Si3 0.500000 0.465102 0.678135
Si Si4 0.103945 0.097105 0.161840
Si Si5 0.500000 0.582642 0.057180
Si Si6 0.617562 0.159390 0.078810
O O1 0.784118 0.750000 0.922186
O O2 0.750000 0.668469 0.750000
O O3 0.823241 0.603396 0.892804
O O4 0.695030 0.644240 0.947395
O O5 0.000000 0.750000 0.050942
O O6 0.938158 0.843438 0.911485
O O7 0.000000 0.898332 0.087048
O O8 0.563860 0.518781 0.658435
O O9 0.500000 0.431104 0.806344
O O10 0.104718 0.123169 0.295266
O O11 0.500000 0.500000 0.000000
O O12 0.435103 0.626006 0.010563
O O13 0.610250 0.250000 0.087438
#
# Coordination Sequence:
#
# PCOD9534159 Si02
#       6
#    16   8   8  16   8  16
#     4   8  15  28  51  85 113 131 166 226 283 328
#     4  11  22  35  54  78 105 144 186 221 271 323
#     4  11  24  36  53  76 115 150 184 223 273 328
#     4  10  17  34  58  82 110 134 174 235 287 320
#     4  12  21  37  50  74 112 152 182 224 265 325
#     4  10  19  32  58  86 106 139 185 227 276 328
#
# _framework density 17.355484000000001
#
# number of rings (size 3 to 8) (size 9 to 14) (size 15 to 20)
#    0.000    2.000    2.222    5.667    0.000    0.889 
#    0.000    2.222    0.000    0.000    0.000    4.667 
#    0.000    0.000    0.000    0.000    0.000    0.000 
#
# Total GULP energy -200621.955947 kJ/mol
# GULP energy per Si atom -5572.832110 kJ/mol
# Density = 1.731598 g / cm^3
# Si number density = 17.355484 Si / 1000 Ang^3
#
#
#
# Elastic Constant Matrix: (Units=GPa)
#
#
# Indices 1 2 3 4 5 6 
#
# 1 143.4088 60.2836 36.0881 0.0000 0.0000 0.0000
# 2 60.2836 104.6809 28.7975 0.0000 0.0000 0.0000
# 3 36.0881 28.7975 55.0621 0.0000 0.0000 0.0000
# 4 0.0000 0.0000 0.0000 26.8063 0.0000 0.0000
# 5 0.0000 0.0000 0.0000 0.0000 -1.6030 0.0000
# 6 0.0000 0.0000 0.0000 0.0000 0.0000 12.3891
#
#
#
# Elastic Compliance Matrix: (Units=1/GPa)
#
#
# Indices 1 2 3 4 5 6 
#
# 1 0.009938 -0.004592 -0.004112 0.000000 0.000000 0.000000
# 2 -0.004592 0.013280 -0.003936 0.000000 0.000000 0.000000
# 3 -0.004112 -0.003936 0.022915 0.000000 0.000000 0.000000
# 4 0.000000 0.000000 0.000000 0.037305 0.000000 0.000000
# 5 0.000000 0.000000 0.000000 0.000000 -0.623836 0.000000
# 6 0.000000 0.000000 0.000000 0.000000 0.000000 0.080716
#
#
# Mechanical properties :
#
#
# Convention : Reuss Voigt Hill
#
# Bulk Modulus (GPa) = 47.95376 61.49892 54.72634
# Shear Modulus (GPa) = -11.69723 19.38400 3.84338
#
# Velocity S-wave (km/s) = -2.59893 3.34560 1.48974
# Velocity P-wave (km/s) = 4.32255 7.10182 5.87879
#
# Compressibility (1/GPa) = 0.02085342
#
# Stress axis : x y z
#
# Youngs Moduli (GPa) = 100.62282 75.30121 43.64000
#
# Poissons Ratio (x) = 0.34578 0.17944
# Poissons Ratio (y) = 0.46206 0.17176
# Poissons Ratio (z) = 0.41375 0.29637
#
# Static dielectric constant tensor:
#      x y z
#    x 1.663660 0.000000 0.000000 
#    y 0.000000 1.585850 0.000000 
#    z 0.000000 0.000000 1.555030 
# 
# From -- ./inp_files/23565.got.cif
#   From: 2010.05.17/outbox.cif.g08.bks.cpg/sg74_12_cif.got.tgz:23565.got - 2010.06.03 17:57:02.
