data_PCOD9534899
_publ_section_title
;
Structure prediction by ZEFSAII (Michael W. Deem and Ramdas Pophale) SiO2 
 PCOD9534899
Probable space group: I M M A
;
_chemical_formula_sum "Si O2"
_cell_formula_units_Z 96
_cell_length_a 17.270864
_cell_length_b 19.235289
_cell_length_c 17.726340
_cell_angle_alpha 90.000000
_cell_angle_beta 90.000000
_cell_angle_gamma 90.000000
_cell_volume 5888.868481
_symmetry_space_group_name_H-M "I M M A"
_symmetry_group_IT_number 74
_symmetry_cell_setting 'orthorhombic'
loop_
_space_group_symop_operation_xyz
x,y,z
-x,1/2-y,z
x,-y,-z
-x,1/2+y,-z
-x,-y,-z
x,1/2+y,-z
-x,y,z
x,1/2-y,z
1/2+x,1/2+y,1/2+z
1/2-x,-y,1/2+z
1/2+x,1/2-y,1/2-z
1/2-x,y,1/2-z
1/2-x,1/2-y,1/2-z
1/2+x,y,1/2-z
1/2-x,1/2+y,1/2+z
1/2+x,-y,1/2+z
loop_
_atom_site_type_symbol
_atom_site_label
_atom_site_fract_x
_atom_site_fract_y
_atom_site_fract_z
Si Si1 0.821329 0.439655 0.196772
Si Si2 0.089957 0.535028 0.312872
Si Si3 0.319578 0.829357 0.432995
Si Si4 0.908434 0.667393 0.911535
Si Si5 0.271840 0.465288 0.919568
Si Si6 0.157270 0.670836 0.238261
O O1 0.750000 0.415095 0.250000
O O2 0.881540 0.479231 0.250798
O O3 0.861370 0.379605 0.147700
O O4 0.785130 0.497181 0.140156
O O5 0.143077 0.525339 0.386094
O O6 0.111504 0.611199 0.280886
O O7 0.000000 0.528416 0.327442
O O8 0.291501 0.750000 0.440862
O O9 0.374506 0.844831 0.504207
O O10 0.251558 0.885215 0.428746
O O11 0.359862 0.833593 0.351156
O O12 0.899260 0.750000 0.895957
O O13 0.000000 0.651251 0.909290
O O14 0.262556 0.500000 0.000000
O O15 0.141435 0.750000 0.263328
O O16 0.250000 0.658911 0.250000
#
# Coordination Sequence:
#
# PCOD9534899 Si02
#       6
#    16  16  16  16  16  16
#     4  10  20  36  56  79 103 134 177 218 257 312
#     4  11  22  34  51  78 109 138 173 218 267 309
#     4  10  19  33  54  78 106 141 173 207 254 309
#     4  10  21  36  54  80 110 136 167 214 269 313
#     4  11  20  36  56  76 101 138 183 219 251 309
#     4  10  18  32  53  75 104 140 176 212 252 306
#
# _framework density 16.301943000000001
#
# number of rings (size 3 to 8) (size 9 to 14) (size 15 to 20)
#    0.000    1.667    5.000    1.000    0.000    1.667 
#    0.000    2.500    0.000    0.000    0.000    0.000 
#    0.000    0.000    0.000    0.000    0.000    0.000 
#
# Total GULP energy -267748.394004 kJ/mol
# GULP energy per Si atom -5578.091542 kJ/mol
# Density = 1.626484 g / cm^3
# Si number density = 16.301943 Si / 1000 Ang^3
#
#
#
# Elastic Constant Matrix: (Units=GPa)
#
#
# Indices 1 2 3 4 5 6 
#
# 1 86.7139 28.4878 13.6828 0.0000 0.0000 0.0000
# 2 28.4878 52.7517 19.3656 0.0000 0.0000 0.0000
# 3 13.6828 19.3656 58.9011 0.0000 0.0000 0.0000
# 4 0.0000 0.0000 0.0000 27.5701 0.0000 0.0000
# 5 0.0000 0.0000 0.0000 0.0000 18.0563 0.0000
# 6 0.0000 0.0000 0.0000 0.0000 0.0000 3.3444
#
#
#
# Elastic Compliance Matrix: (Units=1/GPa)
#
#
# Indices 1 2 3 4 5 6 
#
# 1 0.014059 -0.007271 -0.000875 0.000000 0.000000 0.000000
# 2 -0.007271 0.025319 -0.006635 0.000000 0.000000 0.000000
# 3 -0.000875 -0.006635 0.019363 0.000000 0.000000 0.000000
# 4 0.000000 0.000000 0.000000 0.036271 0.000000 0.000000
# 5 0.000000 0.000000 0.000000 0.000000 0.055382 0.000000
# 6 0.000000 0.000000 0.000000 0.000000 0.000000 0.299003
#
#
# Mechanical properties :
#
#
# Convention : Reuss Voigt Hill
#
# Bulk Modulus (GPa) = 34.27330 35.71545 34.99437
# Shear Modulus (GPa) = 10.23150 18.91622 14.57386
#
# Velocity S-wave (km/s) = 2.50796 3.41011 2.99322
# Velocity P-wave (km/s) = 5.42736 6.12057 5.78436
#
# Compressibility (1/GPa) = 0.02917723
#
# Stress axis : x y z
#
# Youngs Moduli (GPa) = 71.12875 39.49566 51.64603
#
# Poissons Ratio (x) = 0.28717 0.04521
# Poissons Ratio (y) = 0.51718 0.34269
# Poissons Ratio (z) = 0.06226 0.26207
#
# Static dielectric constant tensor:
#      x y z
#    x 1.530910 0.000000 0.000000 
#    y 0.000000 1.548540 0.000000 
#    z 0.000000 0.000000 1.545910 
# 
# From -- ./inp_files/32379.got.cif
#   From: 2010.05.17/outbox.cif.g08.bks.cpg/sg74_17_cif.got.tgz:32379.got - 2010.06.03 17:57:02.
