data_PCOD9534552
_publ_section_title
;
Structure prediction by ZEFSAII (Michael W. Deem and Ramdas Pophale) SiO2 
 PCOD9534552
Probable space group: I M M A
;
_chemical_formula_sum "Si O2"
_cell_formula_units_Z 72
_cell_length_a 16.547006
_cell_length_b 7.740820
_cell_length_c 28.037629
_cell_angle_alpha 90.000000
_cell_angle_beta 90.000000
_cell_angle_gamma 90.000000
_cell_volume 3591.266860
_symmetry_space_group_name_H-M "I M M A"
_symmetry_group_IT_number 74
_symmetry_cell_setting 'orthorhombic'
loop_
_space_group_symop_operation_xyz
x,y,z
-x,1/2-y,z
x,-y,-z
-x,1/2+y,-z
-x,-y,-z
x,1/2+y,-z
-x,y,z
x,1/2-y,z
1/2+x,1/2+y,1/2+z
1/2-x,-y,1/2+z
1/2+x,1/2-y,1/2-z
1/2-x,y,1/2-z
1/2-x,1/2-y,1/2-z
1/2+x,y,1/2-z
1/2-x,1/2+y,1/2+z
1/2+x,-y,1/2+z
loop_
_atom_site_type_symbol
_atom_site_label
_atom_site_fract_x
_atom_site_fract_y
_atom_site_fract_z
Si Si1 0.253099 0.949756 0.697431
Si Si2 0.166102 0.955693 0.554256
Si Si3 0.332745 0.538427 0.602111
Si Si4 0.089229 0.548637 0.350213
Si Si5 0.000000 0.957929 0.944068
O O1 0.278573 0.750000 0.703407
O O2 0.250000 0.030266 0.750000
O O3 0.310514 0.022482 0.655623
O O4 0.163192 0.955821 0.675646
O O5 0.162606 0.750000 0.560300
O O6 0.257203 0.012629 0.568624
O O7 0.148006 0.000000 0.500000
O O8 0.106590 0.034496 0.593389
O O9 0.333420 0.750000 0.602949
O O10 0.418017 0.478950 0.581276
O O11 0.092835 0.750000 0.336791
O O12 0.000000 0.480902 0.339160
O O13 0.000000 0.750000 0.939871
O O14 0.000000 0.000000 0.000000
#
# Coordination Sequence:
#
# PCOD9534552 Si02
#       5
#    16  16  16  16   8
#     4   9  18  35  56  78 103 132 171 214 261 315
#     4  10  19  32  51  74 102 136 174 212 256 308
#     4   8  16  30  48  72 101 133 167 208 251 303
#     4  10  21  36  53  75 103 135 172 212 256 308
#     4  10  18  30  48  70 102 136 168 206 253 300
#
# _framework density 20.048636999999999
#
# number of rings (size 3 to 8) (size 9 to 14) (size 15 to 20)
#    0.000    2.667    0.000    3.333    0.000    2.667 
#    2.000    4.444    0.000    0.000    0.000    0.000 
#    0.000    0.000    0.000    0.000    0.000    0.000 
#
# Total GULP energy -200805.842758 kJ/mol
# GULP energy per Si atom -5577.940077 kJ/mol
# Density = 2.000300 g / cm^3
# Si number density = 20.048637 Si / 1000 Ang^3
#
#
#
# Elastic Constant Matrix: (Units=GPa)
#
#
# Indices 1 2 3 4 5 6 
#
# 1 105.3885 -4.8877 38.5211 0.0000 0.0000 0.0000
# 2 -4.8877 35.4706 -11.1095 0.0000 0.0000 0.0000
# 3 38.5211 -11.1095 141.7863 0.0000 0.0000 0.0000
# 4 0.0000 0.0000 0.0000 12.7625 0.0000 0.0000
# 5 0.0000 0.0000 0.0000 0.0000 11.4415 0.0000
# 6 0.0000 0.0000 0.0000 0.0000 0.0000 -44.4334
#
#
#
# Elastic Compliance Matrix: (Units=1/GPa)
#
#
# Indices 1 2 3 4 5 6 
#
# 1 0.010546 0.000570 -0.002821 0.000000 0.000000 0.000000
# 2 0.000570 0.028932 0.002112 0.000000 0.000000 0.000000
# 3 -0.002821 0.002112 0.007985 0.000000 0.000000 0.000000
# 4 0.000000 0.000000 0.000000 0.078354 0.000000 0.000000
# 5 0.000000 0.000000 0.000000 0.000000 0.087401 0.000000
# 6 0.000000 0.000000 0.000000 0.000000 0.000000 -0.022506
#
#
# Mechanical properties :
#
#
# Convention : Reuss Voigt Hill
#
# Bulk Modulus (GPa) = 21.19274 36.41036 28.80155
# Shear Modulus (GPa) = 24.18745 13.29557 18.74151
#
# Velocity S-wave (km/s) = 3.47715 2.57799 3.06077
# Velocity P-wave (km/s) = 5.16860 5.20210 5.18537
#
# Compressibility (1/GPa) = 0.04718597
#
# Stress axis : x y z
#
# Youngs Moduli (GPa) = 94.82193 34.56329 125.24014
#
# Poissons Ratio (x) = -0.01969 0.35325
# Poissons Ratio (y) = -0.05403 -0.26453
# Poissons Ratio (z) = 0.26745 -0.07300
#
# Static dielectric constant tensor:
#      x y z
#    x 1.692690 0.000000 0.000000 
#    y 0.000000 1.749450 0.000000 
#    z 0.000000 0.000000 1.706890 
# 
# From -- ./inp_files/63615.got.cif
#   From: 2010.05.17/outbox.cif.g08.bks.cpg/sg74_32_cif.got.tgz:63615.got - 2010.06.03 17:57:02.
