data_PCOD9534017
_publ_section_title
;
Structure prediction by ZEFSAII (Michael W. Deem and Ramdas Pophale) SiO2 
 PCOD9534017
Probable space group: I M M A
;
_chemical_formula_sum "Si O2"
_cell_formula_units_Z 80
_cell_length_a 8.464035
_cell_length_b 25.065996
_cell_length_c 24.340499
_cell_angle_alpha 90.000000
_cell_angle_beta 90.000000
_cell_angle_gamma 90.000000
_cell_volume 5164.067305
_symmetry_space_group_name_H-M "I M M A"
_symmetry_group_IT_number 74
_symmetry_cell_setting 'orthorhombic'
loop_
_space_group_symop_operation_xyz
x,y,z
-x,1/2-y,z
x,-y,-z
-x,1/2+y,-z
-x,-y,-z
x,1/2+y,-z
-x,y,z
x,1/2-y,z
1/2+x,1/2+y,1/2+z
1/2-x,-y,1/2+z
1/2+x,1/2-y,1/2-z
1/2-x,y,1/2-z
1/2-x,1/2-y,1/2-z
1/2+x,y,1/2-z
1/2-x,1/2+y,1/2+z
1/2+x,-y,1/2+z
loop_
_atom_site_type_symbol
_atom_site_label
_atom_site_fract_x
_atom_site_fract_y
_atom_site_fract_z
Si Si1 0.811880 0.581741 0.190668
Si Si2 0.190660 0.190059 0.641760
Si Si3 0.807598 0.190720 0.513660
Si Si4 0.188440 0.420777 0.473582
Si Si5 0.688721 0.979349 0.418045
O O1 0.750000 0.565223 0.250000
O O2 0.757628 0.641866 0.176928
O O3 0.758555 0.544119 0.140319
O O4 0.000000 0.580600 0.191570
O O5 0.239237 0.250000 0.658741
O O6 0.238152 0.182956 0.577658
O O7 0.000000 0.187930 0.643724
O O8 0.755708 0.250000 0.496550
O O9 0.756000 0.140430 0.477680
O O10 0.000000 0.190478 0.513270
O O11 0.268695 0.459114 0.429121
O O12 0.228398 0.446607 0.532928
O O13 0.000000 0.422248 0.465739
O O14 0.500000 0.972401 0.423547
#
# Coordination Sequence:
#
# PCOD9534017 Si02
#       5
#    16  16  16  16  16
#     4  11  23  35  48  63  85 118 154 195 233 267
#     4   9  17  31  49  65  86 117 152 192 229 262
#     4   8  14  25  43  68  94 117 144 180 218 254
#     4  10  17  27  49  71  88 116 149 180 214 265
#     4  10  20  32  44  63  91 117 144 184 231 267
#
# _framework density 15.491664999999999
#
# number of rings (size 3 to 8) (size 9 to 14) (size 15 to 20)
#    0.000    2.400    2.000    4.200    0.000    3.200 
#    0.000    0.000    0.000    2.400    0.000    0.000 
#    0.000    0.800    0.000    1.800    0.000    2.800 
#
# Total GULP energy -222988.742031 kJ/mol
# GULP energy per Si atom -5574.718551 kJ/mol
# Density = 1.545641 g / cm^3
# Si number density = 15.491665 Si / 1000 Ang^3
#
#
#
# Elastic Constant Matrix: (Units=GPa)
#
#
# Indices 1 2 3 4 5 6 
#
# 1 16.0065 2.8728 12.8107 0.0000 0.0000 0.0000
# 2 2.8728 94.7451 48.7038 0.0000 0.0000 0.0000
# 3 12.8107 48.7038 80.6757 0.0000 0.0000 0.0000
# 4 0.0000 0.0000 0.0000 18.3400 0.0000 0.0000
# 5 0.0000 0.0000 0.0000 0.0000 18.6107 0.0000
# 6 0.0000 0.0000 0.0000 0.0000 0.0000 3.4990
#
#
#
# Elastic Compliance Matrix: (Units=1/GPa)
#
#
# Indices 1 2 3 4 5 6 
#
# 1 0.073472 0.005466 -0.014966 0.000000 0.000000 0.000000
# 2 0.005466 0.015711 -0.010352 0.000000 0.000000 0.000000
# 3 -0.014966 -0.010352 0.021022 0.000000 0.000000 0.000000
# 4 0.000000 0.000000 0.000000 0.054526 0.000000 0.000000
# 5 0.000000 0.000000 0.000000 0.000000 0.053733 0.000000
# 6 0.000000 0.000000 0.000000 0.000000 0.000000 0.285794
#
#
# Mechanical properties :
#
#
# Convention : Reuss Voigt Hill
#
# Bulk Modulus (GPa) = 14.18483 35.57799 24.88141
# Shear Modulus (GPa) = 8.81117 16.55928 12.68522
#
# Velocity S-wave (km/s) = 2.38747 3.27297 2.86465
# Velocity P-wave (km/s) = 4.09589 6.10728 5.19977
#
# Compressibility (1/GPa) = 0.07049783
#
# Stress axis : x y z
#
# Youngs Moduli (GPa) = 13.61067 63.65141 47.57010
#
# Poissons Ratio (x) = -0.34791 0.71196
# Poissons Ratio (y) = -0.07439 0.49246
# Poissons Ratio (z) = 0.20370 0.65894
#
# Static dielectric constant tensor:
#      x y z
#    x 1.524610 0.000000 0.000000 
#    y 0.000000 1.549450 0.000000 
#    z 0.000000 0.000000 1.497160 
# 
# From -- ./inp_files/57725.got.cif
#   From: 2010.05.17/outbox.cif.g08.bks.cpg/sg74_29_cif.got.tgz:57725.got - 2010.06.03 17:57:02.
