data_PCOD9534155
_publ_section_title
;
Structure prediction by ZEFSAII (Michael W. Deem and Ramdas Pophale) SiO2 
 PCOD9534155
Probable space group: I M M A
;
_chemical_formula_sum "Si O2"
_cell_formula_units_Z 88
_cell_length_a 19.062673
_cell_length_b 19.968506
_cell_length_c 14.233246
_cell_angle_alpha 90.000000
_cell_angle_beta 90.000000
_cell_angle_gamma 90.000000
_cell_volume 5417.929215
_symmetry_space_group_name_H-M "I M M A"
_symmetry_group_IT_number 74
_symmetry_cell_setting 'orthorhombic'
loop_
_space_group_symop_operation_xyz
x,y,z
-x,1/2-y,z
x,-y,-z
-x,1/2+y,-z
-x,-y,-z
x,1/2+y,-z
-x,y,z
x,1/2-y,z
1/2+x,1/2+y,1/2+z
1/2-x,-y,1/2+z
1/2+x,1/2-y,1/2-z
1/2-x,y,1/2-z
1/2-x,1/2-y,1/2-z
1/2+x,y,1/2-z
1/2-x,1/2+y,1/2+z
1/2+x,-y,1/2+z
loop_
_atom_site_type_symbol
_atom_site_label
_atom_site_fract_x
_atom_site_fract_y
_atom_site_fract_z
Si Si1 0.250440 0.048539 0.637973
Si Si2 0.418326 0.325687 0.238132
Si Si3 0.732342 0.826760 0.485167
Si Si4 0.703062 0.908775 0.844243
Si Si5 0.078334 0.644533 0.959641
Si Si6 0.371880 0.000000 0.500000
O O1 0.250000 0.056752 0.750000
O O2 0.238750 0.120769 0.591472
O O3 0.199680 0.985056 0.618840
O O4 0.321873 0.021841 0.587302
O O5 0.500000 0.331442 0.213412
O O6 0.394040 0.250000 0.217451
O O7 0.370874 0.378161 0.184024
O O8 0.413285 0.336379 0.350333
O O9 0.755188 0.750000 0.475375
O O10 0.758160 0.860438 0.582206
O O11 0.647062 0.828435 0.486976
O O12 0.750000 0.910572 0.750000
O O13 0.000000 0.666218 0.989659
O O14 0.084463 0.564438 0.970114
#
# Coordination Sequence:
#
# PCOD9534155 Si02
#       6
#    16  16  16  16  16   8
#     4  10  19  34  53  72 101 131 171 219 258 302
#     4  10  20  31  46  76 113 141 165 205 268 322
#     4  11  21  32  49  76 105 138 179 213 261 316
#     4  11  18  32  54  76 101 136 174 213 255 305
#     4  10  18  29  46  71 109 144 172 208 253 313
#     4  10  17  34  48  78  99 140 180 210 261 302
#
# _framework density 16.242367999999999
#
# number of rings (size 3 to 8) (size 9 to 14) (size 15 to 20)
#    0.000    1.636    5.455    2.455    0.000    2.182 
#    0.000    0.000    0.000    2.182    0.000    0.000 
#    0.000    0.000    0.000    0.000    0.000    0.000 
#
# Total GULP energy -245126.302525 kJ/mol
# GULP energy per Si atom -5571.052330 kJ/mol
# Density = 1.620540 g / cm^3
# Si number density = 16.242368 Si / 1000 Ang^3
#
#
#
# Elastic Constant Matrix: (Units=GPa)
#
#
# Indices 1 2 3 4 5 6 
#
# 1 45.3649 30.6179 26.8712 0.0000 0.0000 0.0000
# 2 30.6179 162.9194 41.7323 0.0000 0.0000 0.0000
# 3 26.8712 41.7323 72.6428 0.0000 0.0000 0.0000
# 4 0.0000 0.0000 0.0000 -8.7525 0.0000 0.0000
# 5 0.0000 0.0000 0.0000 0.0000 15.7209 0.0000
# 6 0.0000 0.0000 0.0000 0.0000 0.0000 13.7514
#
#
#
# Elastic Compliance Matrix: (Units=1/GPa)
#
#
# Indices 1 2 3 4 5 6 
#
# 1 0.029615 -0.003236 -0.009096 0.000000 0.000000 0.000000
# 2 -0.003236 0.007551 -0.003141 0.000000 0.000000 0.000000
# 3 -0.009096 -0.003141 0.018935 0.000000 0.000000 0.000000
# 4 0.000000 0.000000 0.000000 -0.114252 0.000000 0.000000
# 5 0.000000 0.000000 0.000000 0.000000 0.063610 0.000000
# 6 0.000000 0.000000 0.000000 0.000000 0.000000 0.072720
#
#
# Mechanical properties :
#
#
# Convention : Reuss Voigt Hill
#
# Bulk Modulus (GPa) = 39.75232 53.26333 46.50783
# Shear Modulus (GPa) = 42.55014 16.25766 29.40390
#
# Velocity S-wave (km/s) = 5.12385 3.16720 4.25940
# Velocity P-wave (km/s) = 7.71575 6.79992 7.27226
#
# Compressibility (1/GPa) = 0.02515576
#
# Stress axis : x y z
#
# Youngs Moduli (GPa) = 33.76634 132.43926 52.81203
#
# Poissons Ratio (x) = 0.42853 0.48038
# Poissons Ratio (y) = 0.10926 0.16587
# Poissons Ratio (z) = 0.30714 0.41597
#
# Static dielectric constant tensor:
#      x y z
#    x 1.545440 0.000000 0.000000 
#    y 0.000000 1.579560 0.000000 
#    z 0.000000 0.000000 1.539830 
# 
# From -- ./inp_files/22201.got.cif
#   From: 2010.05.17/outbox.cif.g08.bks.cpg/sg74_12_cif.got.tgz:22201.got - 2010.06.03 17:57:02.
