data_PCOD9534869
_publ_section_title
;
Structure prediction by ZEFSAII (Michael W. Deem and Ramdas Pophale) SiO2 
 PCOD9534869
Probable space group: I M M A
;
_chemical_formula_sum "Si O2"
_cell_formula_units_Z 88
_cell_length_a 20.726270
_cell_length_b 8.567091
_cell_length_c 30.682986
_cell_angle_alpha 90.000000
_cell_angle_beta 90.000000
_cell_angle_gamma 90.000000
_cell_volume 5448.188853
_symmetry_space_group_name_H-M "I M M A"
_symmetry_group_IT_number 74
_symmetry_cell_setting 'orthorhombic'
loop_
_space_group_symop_operation_xyz
x,y,z
-x,1/2-y,z
x,-y,-z
-x,1/2+y,-z
-x,-y,-z
x,1/2+y,-z
-x,y,z
x,1/2-y,z
1/2+x,1/2+y,1/2+z
1/2-x,-y,1/2+z
1/2+x,1/2-y,1/2-z
1/2-x,y,1/2-z
1/2-x,1/2-y,1/2-z
1/2+x,y,1/2-z
1/2-x,1/2+y,1/2+z
1/2+x,-y,1/2+z
loop_
_atom_site_type_symbol
_atom_site_label
_atom_site_fract_x
_atom_site_fract_y
_atom_site_fract_z
Si Si1 0.212021 0.939280 0.294218
Si Si2 0.637467 0.564912 0.451223
Si Si3 0.572371 0.566497 0.329174
Si Si4 0.301011 0.932551 0.630085
Si Si5 0.929856 0.434810 0.724144
Si Si6 0.000000 0.563075 0.950337
O O1 0.211539 0.750000 0.293470
O O2 0.250000 0.988460 0.250000
O O3 0.138038 0.997592 0.293272
O O4 0.249189 0.994768 0.337032
O O5 0.647368 0.500000 0.500000
O O6 0.633206 0.750000 0.453493
O O7 0.691674 0.511825 0.417153
O O8 0.568347 0.500816 0.433716
O O9 0.500000 0.521253 0.343002
O O10 0.582740 0.750000 0.340775
O O11 0.629971 0.464577 0.347220
O O12 0.573802 0.557274 0.276666
O O13 0.289792 0.750000 0.624888
O O14 0.931112 0.250000 0.713313
O O15 0.000000 0.501449 0.710838
O O16 0.000000 0.750000 0.949130
O O17 0.000000 0.500000 0.000000
#
# Coordination Sequence:
#
# PCOD9534869 Si02
#       6
#    16  16  16  16  16   8
#     4  10  18  32  52  72  98 132 171 210 251 300
#     4  11  22  38  55  71  94 126 166 209 255 300
#     4   9  17  31  49  68  92 126 171 213 250 295
#     4  12  24  34  47  70 101 133 168 209 255 302
#     4   8  14  27  49  72  94 125 166 211 251 293
#     4  10  18  32  52  74  98 126 162 206 256 298
#
# _framework density 16.152156000000002
#
# number of rings (size 3 to 8) (size 9 to 14) (size 15 to 20)
#    0.000    2.000    1.818    6.273    1.273    0.727 
#    0.000    0.000    0.000    0.545    0.000    0.000 
#    0.000    0.727    0.000    2.000    0.000    2.909 
#
# Total GULP energy -245456.542201 kJ/mol
# GULP energy per Si atom -5578.557777 kJ/mol
# Density = 1.611539 g / cm^3
# Si number density = 16.152156 Si / 1000 Ang^3
#
#
#
# Elastic Constant Matrix: (Units=GPa)
#
#
# Indices 1 2 3 4 5 6 
#
# 1 119.8754 27.3539 59.1259 0.0000 0.0000 0.0000
# 2 27.3539 67.6512 24.2345 0.0000 0.0000 0.0000
# 3 59.1259 24.2345 84.5787 0.0000 0.0000 0.0000
# 4 0.0000 0.0000 0.0000 20.0890 0.0000 0.0000
# 5 0.0000 0.0000 0.0000 0.0000 30.3690 0.0000
# 6 0.0000 0.0000 0.0000 0.0000 0.0000 10.5217
#
#
#
# Elastic Compliance Matrix: (Units=1/GPa)
#
#
# Indices 1 2 3 4 5 6 
#
# 1 0.013028 -0.002235 -0.008467 0.000000 0.000000 0.000000
# 2 -0.002235 0.016856 -0.003268 0.000000 0.000000 0.000000
# 3 -0.008467 -0.003268 0.018679 0.000000 0.000000 0.000000
# 4 0.000000 0.000000 0.000000 0.049779 0.000000 0.000000
# 5 0.000000 0.000000 0.000000 0.000000 0.032928 0.000000
# 6 0.000000 0.000000 0.000000 0.000000 0.000000 0.095042
#
#
# Mechanical properties :
#
#
# Convention : Reuss Voigt Hill
#
# Bulk Modulus (GPa) = 48.48763 54.83710 51.66236
# Shear Modulus (GPa) = 19.14793 22.95533 21.05163
#
# Velocity S-wave (km/s) = 3.44680 3.77396 3.61409
# Velocity P-wave (km/s) = 6.77680 7.28110 7.03347
#
# Compressibility (1/GPa) = 0.02062382
#
# Stress axis : x y z
#
# Youngs Moduli (GPa) = 76.75674 59.32683 53.53685
#
# Poissons Ratio (x) = 0.13257 0.45331
# Poissons Ratio (y) = 0.17152 0.17494
# Poissons Ratio (z) = 0.64992 0.19386
#
# Static dielectric constant tensor:
#      x y z
#    x 1.567320 0.000000 0.000000 
#    y 0.000000 1.544530 0.000000 
#    z 0.000000 0.000000 1.543940 
# 
# From -- ./inp_files/73286.got.cif
#   From: 2010.05.17/outbox.cif.g08.bks.cpg/sg74_37_cif.got.tgz:73286.got - 2010.06.03 17:57:02.
