data_PCOD9534177
_publ_section_title
;
Structure prediction by ZEFSAII (Michael W. Deem and Ramdas Pophale) SiO2 
 PCOD9534177
Probable space group: I M M A
;
_chemical_formula_sum "Si O2"
_cell_formula_units_Z 96
_cell_length_a 34.095349
_cell_length_b 8.108212
_cell_length_c 30.528111
_cell_angle_alpha 90.000000
_cell_angle_beta 90.000000
_cell_angle_gamma 90.000000
_cell_volume 8439.567047
_symmetry_space_group_name_H-M "I M M A"
_symmetry_group_IT_number 74
_symmetry_cell_setting 'orthorhombic'
loop_
_space_group_symop_operation_xyz
x,y,z
-x,1/2-y,z
x,-y,-z
-x,1/2+y,-z
-x,-y,-z
x,1/2+y,-z
-x,y,z
x,1/2-y,z
1/2+x,1/2+y,1/2+z
1/2-x,-y,1/2+z
1/2+x,1/2-y,1/2-z
1/2-x,y,1/2-z
1/2-x,1/2-y,1/2-z
1/2+x,y,1/2-z
1/2-x,1/2+y,1/2+z
1/2+x,-y,1/2+z
loop_
_atom_site_type_symbol
_atom_site_label
_atom_site_fract_x
_atom_site_fract_y
_atom_site_fract_z
Si Si1 0.305533 0.447512 0.550128
Si Si2 0.259012 0.434253 0.368927
Si Si3 0.882194 0.555124 0.104750
Si Si4 0.544939 0.052381 0.450465
Si Si5 0.840169 0.567168 0.812969
Si Si6 0.732716 0.250000 0.821052
Si Si7 0.185531 0.750000 0.234511
O O1 0.302490 0.500000 0.500000
O O2 0.301881 0.250000 0.553757
O O3 0.273374 0.528789 0.581841
O O4 0.348118 0.494186 0.570149
O O5 0.242098 0.250000 0.365217
O O6 0.299155 0.436110 0.340147
O O7 0.233503 0.584620 0.350209
O O8 0.877442 0.750000 0.112849
O O9 0.923909 0.519155 0.083370
O O10 0.873064 0.464215 0.150162
O O11 0.500000 0.997649 0.442558
O O12 0.546191 0.250000 0.448107
O O13 0.555384 0.000000 0.500000
O O14 0.844167 0.750000 0.793495
O O15 0.837322 0.415229 0.779616
O O16 0.774019 0.250000 0.794051
O O17 0.698922 0.250000 0.784725
#
# Coordination Sequence:
#
# PCOD9534177 Si02
#       7
#    16  16  16  16  16   8   8
#     4  10  18  26  36  51  68  85 110 141 168 200
#     4   9  16  26  37  49  67  89 108 131 162 191
#     4  10  18  28  41  53  68  87 107 136 173 207
#     4  10  20  31  40  51  67  86 111 141 170 206
#     4   9  16  26  39  53  70  86 105 132 160 196
#     4   9  16  26  38  50  70  88 106 132 154 197
#     4   9  16  26  38  54  69  86 108 128 159 192
#
# _framework density 11.374992000000001
#
# number of rings (size 3 to 8) (size 9 to 14) (size 15 to 20)
#    0.000    2.500    1.667    2.000    0.000    5.000 
#    0.000    3.333    0.000    0.000    0.000    0.000 
#    0.000    0.000    0.000    0.000    0.000    0.000 
#
# Total GULP energy -267421.780199 kJ/mol
# GULP energy per Si atom -5571.287087 kJ/mol
# Density = 1.134910 g / cm^3
# Si number density = 11.374992 Si / 1000 Ang^3
#
#
#
# Elastic Constant Matrix: (Units=GPa)
#
#
# Indices 1 2 3 4 5 6 
#
# 1 26.7797 21.4811 26.3947 0.0000 0.0000 0.0000
# 2 21.4811 81.8671 32.9598 0.0000 0.0000 0.0000
# 3 26.3947 32.9598 48.3444 0.0000 0.0000 0.0000
# 4 0.0000 0.0000 0.0000 13.8368 0.0000 0.0000
# 5 0.0000 0.0000 0.0000 0.0000 14.5204 0.0000
# 6 0.0000 0.0000 0.0000 0.0000 0.0000 8.8891
#
#
#
# Elastic Compliance Matrix: (Units=1/GPa)
#
#
# Indices 1 2 3 4 5 6 
#
# 1 0.082207 -0.004825 -0.041593 0.000000 0.000000 0.000000
# 2 -0.004825 0.017119 -0.009037 0.000000 0.000000 0.000000
# 3 -0.041593 -0.009037 0.049555 0.000000 0.000000 0.000000
# 4 0.000000 0.000000 0.000000 0.072271 0.000000 0.000000
# 5 0.000000 0.000000 0.000000 0.000000 0.068868 0.000000
# 6 0.000000 0.000000 0.000000 0.000000 0.000000 0.112498
#
#
# Mechanical properties :
#
#
# Convention : Reuss Voigt Hill
#
# Bulk Modulus (GPa) = 26.33610 35.40693 30.87152
# Shear Modulus (GPa) = 9.50416 12.52632 11.01524
#
# Velocity S-wave (km/s) = 2.89369 3.32206 3.11525
# Velocity P-wave (km/s) = 5.86238 6.77564 6.33549
#
# Compressibility (1/GPa) = 0.03797069
#
# Stress axis : x y z
#
# Youngs Moduli (GPa) = 12.16442 58.41368 20.17965
#
# Poissons Ratio (x) = 0.28184 0.83934
# Poissons Ratio (y) = 0.05869 0.18237
# Poissons Ratio (z) = 0.50596 0.52790
#
# Static dielectric constant tensor:
#      x y z
#    x 1.341240 0.000000 0.000000 
#    y 0.000000 1.404260 0.000000 
#    z 0.000000 0.000000 1.351310 
# 
# From -- ./inp_files/73994.got.cif
#   From: 2010.05.17/outbox.cif.g08.bks.cpg/sg74_37_cif.got.tgz:73994.got - 2010.06.03 17:57:02.
