data_PCOD9534712
_publ_section_title
;
Structure prediction by ZEFSAII (Michael W. Deem and Ramdas Pophale) SiO2 
 PCOD9534712
Probable space group: I M M A
;
_chemical_formula_sum "Si O2"
_cell_formula_units_Z 96
_cell_length_a 20.191043
_cell_length_b 9.329518
_cell_length_c 30.687468
_cell_angle_alpha 90.000000
_cell_angle_beta 90.000000
_cell_angle_gamma 90.000000
_cell_volume 5780.681176
_symmetry_space_group_name_H-M "I M M A"
_symmetry_group_IT_number 74
_symmetry_cell_setting 'orthorhombic'
loop_
_space_group_symop_operation_xyz
x,y,z
-x,1/2-y,z
x,-y,-z
-x,1/2+y,-z
-x,-y,-z
x,1/2+y,-z
-x,y,z
x,1/2-y,z
1/2+x,1/2+y,1/2+z
1/2-x,-y,1/2+z
1/2+x,1/2-y,1/2-z
1/2-x,y,1/2-z
1/2-x,1/2-y,1/2-z
1/2+x,y,1/2-z
1/2-x,1/2+y,1/2+z
1/2+x,-y,1/2+z
loop_
_atom_site_type_symbol
_atom_site_label
_atom_site_fract_x
_atom_site_fract_y
_atom_site_fract_z
Si Si1 0.267212 0.917135 0.628341
Si Si2 0.424331 0.082726 0.780254
Si Si3 0.264162 0.413798 0.542589
Si Si4 0.818078 0.419724 0.223337
Si Si5 0.107181 0.918550 0.631502
Si Si6 0.102729 0.083676 0.543562
O O1 0.280922 0.750000 0.619348
O O2 0.302633 0.957463 0.673316
O O3 0.187521 0.928367 0.634058
O O4 0.286203 0.011831 0.587108
O O5 0.500000 0.073815 0.764787
O O6 0.407842 0.250000 0.787618
O O7 0.374528 0.011854 0.746068
O O8 0.418909 0.997283 0.825691
O O9 0.285611 0.500000 0.500000
O O10 0.285343 0.250000 0.540312
O O11 0.183430 0.415831 0.542783
O O12 0.834496 0.250000 0.225754
O O13 0.750000 0.439360 0.250000
O O14 0.089925 0.750000 0.630499
O O15 0.084545 0.998714 0.587498
O O16 0.081561 0.250000 0.543997
O O17 0.081149 0.000000 0.500000
#
# Coordination Sequence:
#
# PCOD9534712 Si02
#       6
#    16  16  16  16  16  16
#     4   9  17  29  47  71  99 126 160 206 249 294
#     4  11  24  38  51  72 102 134 169 210 254 303
#     4   9  16  25  39  62  95 131 164 196 240 292
#     4  10  19  35  55  77 101 130 168 211 256 303
#     4  10  18  31  50  70  94 127 166 209 254 300
#     4   9  16  26  41  65  94 125 162 204 250 299
#
# _framework density 16.607039
#
# number of rings (size 3 to 8) (size 9 to 14) (size 15 to 20)
#    0.000    2.333    1.667    2.000    0.000    7.000 
#    0.000    0.000    0.000    0.500    0.000    0.000 
#    0.000    0.667    0.000    2.167    0.000    3.167 
#
# Total GULP energy -267893.934670 kJ/mol
# GULP energy per Si atom -5581.123639 kJ/mol
# Density = 1.656924 g / cm^3
# Si number density = 16.607039 Si / 1000 Ang^3
#
#
#
# Elastic Constant Matrix: (Units=GPa)
#
#
# Indices 1 2 3 4 5 6 
#
# 1 40.2713 48.4182 45.3256 0.0000 0.0000 0.0000
# 2 48.4182 144.5216 105.1016 0.0000 0.0000 0.0000
# 3 45.3256 105.1016 157.7969 0.0000 0.0000 0.0000
# 4 0.0000 0.0000 0.0000 36.2061 0.0000 0.0000
# 5 0.0000 0.0000 0.0000 0.0000 -1.6968 0.0000
# 6 0.0000 0.0000 0.0000 0.0000 0.0000 10.2156
#
#
#
# Elastic Compliance Matrix: (Units=1/GPa)
#
#
# Indices 1 2 3 4 5 6 
#
# 1 0.043874 -0.010732 -0.005454 0.000000 0.000000 0.000000
# 2 -0.010732 0.016045 -0.007604 0.000000 0.000000 0.000000
# 3 -0.005454 -0.007604 0.012969 0.000000 0.000000 0.000000
# 4 0.000000 0.000000 0.000000 0.027620 0.000000 0.000000
# 5 0.000000 0.000000 0.000000 0.000000 -0.589342 0.000000
# 6 0.000000 0.000000 0.000000 0.000000 0.000000 0.097890
#
#
# Mechanical properties :
#
#
# Convention : Reuss Voigt Hill
#
# Bulk Modulus (GPa) = 39.51577 82.25342 60.88460
# Shear Modulus (GPa) = -14.92850 18.52793 1.79971
#
# Velocity S-wave (km/s) = -3.00146 3.34378 1.04214
# Velocity P-wave (km/s) = 3.44014 8.03397 6.17977
#
# Compressibility (1/GPa) = 0.02530635
#
# Stress axis : x y z
#
# Youngs Moduli (GPa) = 22.79280 62.32483 77.10964
#
# Poissons Ratio (x) = 0.66890 0.42054
# Poissons Ratio (y) = 0.24462 0.58635
# Poissons Ratio (z) = 0.12431 0.47392
#
# Static dielectric constant tensor:
#      x y z
#    x 1.541850 0.000000 0.000000 
#    y 0.000000 1.556510 0.000000 
#    z 0.000000 0.000000 1.542850 
# 
# From -- ./inp_files/68124.got.cif
#   From: 2010.05.17/outbox.cif.g08.bks.cpg/sg74_35_cif.got.tgz:68124.got - 2010.06.03 17:57:02.
