data_PCOD9534887
_publ_section_title
;
Structure prediction by ZEFSAII (Michael W. Deem and Ramdas Pophale) SiO2 
 PCOD9534887
Probable space group: I M M A
;
_chemical_formula_sum "Si O2"
_cell_formula_units_Z 72
_cell_length_a 33.359758
_cell_length_b 8.669481
_cell_length_c 14.893335
_cell_angle_alpha 90.000000
_cell_angle_beta 90.000000
_cell_angle_gamma 90.000000
_cell_volume 4307.328047
_symmetry_space_group_name_H-M "I M M A"
_symmetry_group_IT_number 74
_symmetry_cell_setting 'orthorhombic'
loop_
_space_group_symop_operation_xyz
x,y,z
-x,1/2-y,z
x,-y,-z
-x,1/2+y,-z
-x,-y,-z
x,1/2+y,-z
-x,y,z
x,1/2-y,z
1/2+x,1/2+y,1/2+z
1/2-x,-y,1/2+z
1/2+x,1/2-y,1/2-z
1/2-x,y,1/2-z
1/2-x,1/2-y,1/2-z
1/2+x,y,1/2-z
1/2-x,1/2+y,1/2+z
1/2+x,-y,1/2+z
loop_
_atom_site_type_symbol
_atom_site_label
_atom_site_fract_x
_atom_site_fract_y
_atom_site_fract_z
Si Si1 0.083648 0.434241 0.898875
Si Si2 0.224752 0.934327 0.097824
Si Si3 0.180423 0.434069 0.597475
Si Si4 0.344170 0.066733 0.281744
Si Si5 0.000000 0.934663 0.898385
O O1 0.081333 0.250000 0.904318
O O2 0.120307 0.487423 0.837545
O O3 0.041766 0.501424 0.860643
O O4 0.089154 0.500000 0.000000
O O5 0.218869 0.750000 0.099984
O O6 0.271945 0.966233 0.110690
O O7 0.197220 0.012606 0.172056
O O8 0.213354 0.000000 0.000000
O O9 0.169433 0.500000 0.500000
O O10 0.175277 0.250000 0.599293
O O11 0.157034 0.511487 0.679095
O O12 0.347970 0.250000 0.287555
O O13 0.000000 0.750000 0.899194
O O14 0.000000 0.000000 0.000000
#
# Coordination Sequence:
#
# PCOD9534887 Si02
#       5
#    16  16  16  16   8
#     4  11  21  35  53  76 106 138 170 204 246 297
#     4  10  20  34  51  72 100 133 169 209 254 304
#     4  10  21  37  54  72  96 130 171 214 258 303
#     4  12  23  34  50  74 102 133 170 212 255 298
#     4  10  18  32  52  76 105 136 167 198 240 296
#
# _framework density 16.715699000000001
#
# number of rings (size 3 to 8) (size 9 to 14) (size 15 to 20)
#    0.000    1.333    0.000    9.000    0.000    5.333 
#    0.000    0.000    0.000    0.000    0.000    0.778 
#    0.000    0.000    0.000    0.000    0.000    0.000 
#
# Total GULP energy -201201.512154 kJ/mol
# GULP energy per Si atom -5588.930893 kJ/mol
# Density = 1.667765 g / cm^3
# Si number density = 16.715699 Si / 1000 Ang^3
#
#
#
# Elastic Constant Matrix: (Units=GPa)
#
#
# Indices 1 2 3 4 5 6 
#
# 1 59.0568 48.3372 48.0224 0.0000 0.0000 0.0000
# 2 48.3372 137.0313 50.8269 0.0000 0.0000 0.0000
# 3 48.0224 50.8269 104.2700 0.0000 0.0000 0.0000
# 4 0.0000 0.0000 0.0000 28.6593 0.0000 0.0000
# 5 0.0000 0.0000 0.0000 0.0000 11.1705 0.0000
# 6 0.0000 0.0000 0.0000 0.0000 0.0000 81.7660
#
#
#
# Elastic Compliance Matrix: (Units=1/GPa)
#
#
# Indices 1 2 3 4 5 6 
#
# 1 0.031843 -0.007071 -0.011219 0.000000 0.000000 0.000000
# 2 -0.007071 0.010479 -0.001851 0.000000 0.000000 0.000000
# 3 -0.011219 -0.001851 0.015660 0.000000 0.000000 0.000000
# 4 0.000000 0.000000 0.000000 0.034893 0.000000 0.000000
# 5 0.000000 0.000000 0.000000 0.000000 0.089522 0.000000
# 6 0.000000 0.000000 0.000000 0.000000 0.000000 0.012230
#
#
# Mechanical properties :
#
#
# Convention : Reuss Voigt Hill
#
# Bulk Modulus (GPa) = 56.49964 66.08123 61.29044
# Shear Modulus (GPa) = 20.76343 34.53058 27.64701
#
# Velocity S-wave (km/s) = 3.52824 4.54999 4.07130
# Velocity P-wave (km/s) = 7.10434 8.19887 7.67115
#
# Compressibility (1/GPa) = 0.01769923
#
# Stress axis : x y z
#
# Youngs Moduli (GPa) = 31.40388 95.43265 63.85850
#
# Poissons Ratio (x) = 0.67484 0.71641
# Poissons Ratio (y) = 0.22207 0.11821
# Poissons Ratio (z) = 0.35231 0.17665
#
# Static dielectric constant tensor:
#      x y z
#    x 1.579460 0.000000 0.000000 
#    y 0.000000 1.554420 0.000000 
#    z 0.000000 0.000000 1.559820 
# 
# From -- ./inp_files/37655.got.cif
#   From: 2010.05.17/outbox.cif.g08.bks.cpg/sg74_19_cif.got.tgz:37655.got - 2010.06.03 17:57:02.
