data_PCOD9534943
_publ_section_title
;
Structure prediction by ZEFSAII (Michael W. Deem and Ramdas Pophale) SiO2 
 PCOD9534943
Probable space group: I M M A
;
_chemical_formula_sum "Si O2"
_cell_formula_units_Z 80
_cell_length_a 25.775854
_cell_length_b 16.876063
_cell_length_c 7.590366
_cell_angle_alpha 90.000000
_cell_angle_beta 90.000000
_cell_angle_gamma 90.000000
_cell_volume 3301.770772
_symmetry_space_group_name_H-M "I M M A"
_symmetry_group_IT_number 74
_symmetry_cell_setting 'orthorhombic'
loop_
_space_group_symop_operation_xyz
x,y,z
-x,1/2-y,z
x,-y,-z
-x,1/2+y,-z
-x,-y,-z
x,1/2+y,-z
-x,y,z
x,1/2-y,z
1/2+x,1/2+y,1/2+z
1/2-x,-y,1/2+z
1/2+x,1/2-y,1/2-z
1/2-x,y,1/2-z
1/2-x,1/2-y,1/2-z
1/2+x,y,1/2-z
1/2-x,1/2+y,1/2+z
1/2+x,-y,1/2+z
loop_
_atom_site_type_symbol
_atom_site_label
_atom_site_fract_x
_atom_site_fract_y
_atom_site_fract_z
Si Si1 0.283377 0.838833 0.073064
Si Si2 0.386421 0.844492 0.668626
Si Si3 0.500000 0.156940 0.331585
Si Si4 0.500000 0.343526 0.759313
Si Si5 0.706073 0.055248 0.350955
Si Si6 0.387521 0.654600 0.242871
O O1 0.293522 0.750000 0.003754
O O2 0.250000 0.829963 0.250000
O O3 0.337934 0.876222 0.137370
O O4 0.245266 0.882588 0.940477
O O5 0.381964 0.750000 0.704513
O O6 0.443694 0.873416 0.725332
O O7 0.339888 0.897391 0.742112
O O8 0.382221 0.853427 0.454890
O O9 0.500000 0.250000 0.285057
O O10 0.500000 0.153357 0.545270
O O11 0.500000 0.250000 0.807106
O O12 0.444116 0.376882 0.814023
O O13 0.750000 0.004507 0.250000
O O14 0.682117 0.000000 0.500000
O O15 0.388039 0.750000 0.215442
#
# Coordination Sequence:
#
# PCOD9534943 Si02
#       6
#    16  16   8   8  16  16
#     4  10  18  32  55  80 105 137 174 215 267 326
#     4   9  16  31  56  84 111 137 171 219 270 324
#     4   7  12  24  49  84 112 132 162 213 271 317
#     4   7  10  18  36  74 112 131 158 198 247 303
#     4  12  26  39  52  74 106 148 188 233 272 318
#     4   8  13  23  47  78 107 135 163 204 253 310
#
# _framework density 24.229422
#
# number of rings (size 3 to 8) (size 9 to 14) (size 15 to 20)
#    0.000    2.800    2.000    3.600    0.000    1.600 
#    0.000    0.500    0.000    1.200    0.000    5.600 
#    0.000    0.000    0.000    0.000    0.000    0.000 
#
# Total GULP energy -223179.837718 kJ/mol
# GULP energy per Si atom -5579.495943 kJ/mol
# Density = 2.417427 g / cm^3
# Si number density = 24.229422 Si / 1000 Ang^3
#
#
#
# Elastic Constant Matrix: (Units=GPa)
#
#
# Indices 1 2 3 4 5 6 
#
# 1 233.3971 32.7560 15.9202 0.0000 0.0000 0.0000
# 2 32.7560 42.3923 0.4230 0.0000 0.0000 0.0000
# 3 15.9202 0.4230 55.9564 0.0000 0.0000 0.0000
# 4 0.0000 0.0000 0.0000 9.5645 0.0000 0.0000
# 5 0.0000 0.0000 0.0000 0.0000 23.5377 0.0000
# 6 0.0000 0.0000 0.0000 0.0000 0.0000 4.9331
#
#
#
# Elastic Compliance Matrix: (Units=1/GPa)
#
#
# Indices 1 2 3 4 5 6 
#
# 1 0.004908 -0.003779 -0.001368 0.000000 0.000000 0.000000
# 2 -0.003779 0.026500 0.000875 0.000000 0.000000 0.000000
# 3 -0.001368 0.000875 0.018254 0.000000 0.000000 0.000000
# 4 0.000000 0.000000 0.000000 0.104553 0.000000 0.000000
# 5 0.000000 0.000000 0.000000 0.000000 0.042485 0.000000
# 6 0.000000 0.000000 0.000000 0.000000 0.000000 0.202711
#
#
# Mechanical properties :
#
#
# Convention : Reuss Voigt Hill
#
# Bulk Modulus (GPa) = 24.32008 47.77157 36.04582
# Shear Modulus (GPa) = 11.85788 26.45019 19.15404
#
# Velocity S-wave (km/s) = 2.21464 3.30761 2.81468
# Velocity P-wave (km/s) = 4.07415 5.86056 5.04702
#
# Compressibility (1/GPa) = 0.04111829
#
# Stress axis : x y z
#
# Youngs Moduli (GPa) = 203.74126 37.73543 54.78370
#
# Poissons Ratio (x) = 0.14260 0.07494
# Poissons Ratio (y) = 0.76991 -0.04793
# Poissons Ratio (z) = 0.27869 -0.03301
#
# Static dielectric constant tensor:
#      x y z
#    x 1.975420 0.000000 0.000000 
#    y 0.000000 1.925010 0.000000 
#    z 0.000000 0.000000 2.104470 
# 
# From -- ./inp_files/14960.got.cif
#   From: 2010.05.17/outbox.cif.g08.bks.cpg/sg74_8_cif.got.tgz:14960.got - 2010.06.03 17:57:02.
