data_PCOD9534045
_publ_section_title
;
Structure prediction by ZEFSAII (Michael W. Deem and Ramdas Pophale) SiO2 
 PCOD9534045
Probable space group: I M M A
;
_chemical_formula_sum "Si O2"
_cell_formula_units_Z 72
_cell_length_a 17.760712
_cell_length_b 15.888265
_cell_length_c 13.796392
_cell_angle_alpha 90.000000
_cell_angle_beta 90.000000
_cell_angle_gamma 90.000000
_cell_volume 3893.161074
_symmetry_space_group_name_H-M "I M M A"
_symmetry_group_IT_number 74
_symmetry_cell_setting 'orthorhombic'
loop_
_space_group_symop_operation_xyz
x,y,z
-x,1/2-y,z
x,-y,-z
-x,1/2+y,-z
-x,-y,-z
x,1/2+y,-z
-x,y,z
x,1/2-y,z
1/2+x,1/2+y,1/2+z
1/2-x,-y,1/2+z
1/2+x,1/2-y,1/2-z
1/2-x,y,1/2-z
1/2-x,1/2-y,1/2-z
1/2+x,y,1/2-z
1/2-x,1/2+y,1/2+z
1/2+x,-y,1/2+z
loop_
_atom_site_type_symbol
_atom_site_label
_atom_site_fract_x
_atom_site_fract_y
_atom_site_fract_z
Si Si1 0.289052 0.579456 0.657978
Si Si2 0.662491 0.104898 0.669272
Si Si3 0.416066 0.150337 0.476173
Si Si4 0.665365 0.155885 0.877795
Si Si5 0.823437 0.000000 0.500000
O O1 0.250000 0.622440 0.750000
O O2 0.324014 0.492007 0.696455
O O3 0.354160 0.629210 0.603974
O O4 0.229027 0.549223 0.577431
O O5 0.608417 0.109290 0.577601
O O6 0.636544 0.149932 0.767128
O O7 0.743670 0.142161 0.635049
O O8 0.500000 0.123226 0.447837
O O9 0.416023 0.250000 0.492556
O O10 0.651951 0.250000 0.916763
O O11 0.637370 0.076643 0.941626
#
# Coordination Sequence:
#
# PCOD9534045 Si02
#       5
#    16  16  16  16   8
#     4  11  19  33  52  77 111 144 182 235 280 337
#     4  10  17  31  51  76 102 136 184 229 281 333
#     4  11  23  36  52  79 116 154 189 227 282 345
#     4  10  17  28  50  76 105 140 175 229 283 326
#     4  10  18  30  49  78 109 136 178 228 278 340
#
# _framework density 18.493967999999999
#
# number of rings (size 3 to 8) (size 9 to 14) (size 15 to 20)
#    0.000    1.556    8.889    2.667    0.000    2.222 
#    0.000    0.000    0.000    0.000    0.000    3.111 
#    0.000    3.556    0.000    0.000    0.000    0.000 
#
# Total GULP energy -200665.248503 kJ/mol
# GULP energy per Si atom -5574.034681 kJ/mol
# Density = 1.845188 g / cm^3
# Si number density = 18.493968 Si / 1000 Ang^3
#
#
#
# Elastic Constant Matrix: (Units=GPa)
#
#
# Indices 1 2 3 4 5 6 
#
# 1 42.2977 2.5901 35.9999 0.0000 0.0000 0.0000
# 2 2.5901 61.5686 14.7251 0.0000 0.0000 0.0000
# 3 35.9999 14.7251 110.3514 0.0000 0.0000 0.0000
# 4 0.0000 0.0000 0.0000 20.7111 0.0000 0.0000
# 5 0.0000 0.0000 0.0000 0.0000 13.0492 0.0000
# 6 0.0000 0.0000 0.0000 0.0000 0.0000 -23.7606
#
#
#
# Elastic Compliance Matrix: (Units=1/GPa)
#
#
# Indices 1 2 3 4 5 6 
#
# 1 0.032818 0.001219 -0.010869 0.000000 0.000000 0.000000
# 2 0.001219 0.016823 -0.002642 0.000000 0.000000 0.000000
# 3 -0.010869 -0.002642 0.012960 0.000000 0.000000 0.000000
# 4 0.000000 0.000000 0.000000 0.048283 0.000000 0.000000
# 5 0.000000 0.000000 0.000000 0.000000 0.076633 0.000000
# 6 0.000000 0.000000 0.000000 0.000000 0.000000 -0.042086
#
#
# Mechanical properties :
#
#
# Convention : Reuss Voigt Hill
#
# Bulk Modulus (GPa) = 26.30464 35.64978 30.97721
# Shear Modulus (GPa) = 27.36911 12.72677 20.04794
#
# Velocity S-wave (km/s) = 3.85111 2.62612 3.29603
# Velocity P-wave (km/s) = 5.83344 5.33982 5.59208
#
# Compressibility (1/GPa) = 0.03801610
#
# Stress axis : x y z
#
# Youngs Moduli (GPa) = 30.47124 59.44333 77.15873
#
# Poissons Ratio (x) = -0.07245 0.83862
# Poissons Ratio (y) = -0.03714 0.20389
# Poissons Ratio (z) = 0.33119 0.15707
#
# Static dielectric constant tensor:
#      x y z
#    x 1.638180 0.000000 0.000000 
#    y 0.000000 1.671300 0.000000 
#    z 0.000000 0.000000 1.692400 
# 
# From -- ./inp_files/33836.got.cif
#   From: 2010.05.17/outbox.cif.g08.bks.cpg/sg74_17_cif.got.tgz:33836.got - 2010.06.03 17:57:02.
