data_PCOD9534254
_publ_section_title
;
Structure prediction by ZEFSAII (Michael W. Deem and Ramdas Pophale) SiO2 
 PCOD9534254
Probable space group: I M M A
;
_chemical_formula_sum "Si O2"
_cell_formula_units_Z 64
_cell_length_a 12.363961
_cell_length_b 7.538022
_cell_length_c 37.142514
_cell_angle_alpha 90.000000
_cell_angle_beta 90.000000
_cell_angle_gamma 90.000000
_cell_volume 3461.675249
_symmetry_space_group_name_H-M "I M M A"
_symmetry_group_IT_number 74
_symmetry_cell_setting 'orthorhombic'
loop_
_space_group_symop_operation_xyz
x,y,z
-x,1/2-y,z
x,-y,-z
-x,1/2+y,-z
-x,-y,-z
x,1/2+y,-z
-x,y,z
x,1/2-y,z
1/2+x,1/2+y,1/2+z
1/2-x,-y,1/2+z
1/2+x,1/2-y,1/2-z
1/2-x,y,1/2-z
1/2-x,1/2-y,1/2-z
1/2+x,y,1/2-z
1/2-x,1/2+y,1/2+z
1/2+x,-y,1/2+z
loop_
_atom_site_type_symbol
_atom_site_label
_atom_site_fract_x
_atom_site_fract_y
_atom_site_fract_z
Si Si1 0.632066 0.250000 0.271412
Si Si2 0.878726 0.962375 0.460972
Si Si3 0.300153 0.532668 0.408575
Si Si4 0.500000 0.962473 0.457486
Si Si5 0.372913 0.953868 0.331522
O O1 0.500000 0.250000 0.257686
O O2 0.750000 0.250000 0.250000
O O3 0.639036 0.421701 0.297196
O O4 0.884506 0.750000 0.458043
O O5 0.808883 0.026811 0.427810
O O6 0.000000 0.035548 0.461237
O O7 0.827574 0.000000 0.500000
O O8 0.303097 0.750000 0.407712
O O9 0.395995 0.473960 0.435173
O O10 0.314078 0.477611 0.367397
O O11 0.500000 0.750000 0.454658
O O12 0.500000 0.000000 0.500000
O O13 0.500000 0.951904 0.341344
O O14 0.340475 0.750000 0.324058
#
# Coordination Sequence:
#
# PCOD9534254 Si02
#       5
#     8  16  16   8  16
#     4  10  22  40  62  90 120 146 182 226 282 346
#     4   9  17  29  43  59  86 127 173 220 268 315
#     4   9  16  29  47  65  94 129 169 214 259 311
#     4  10  18  28  40  64  98 130 162 212 262 296
#     4   9  17  34  58  82 110 148 182 218 273 340
#
# _framework density 18.488156
#
# number of rings (size 3 to 8) (size 9 to 14) (size 15 to 20)
#    0.000    2.750    1.250    0.750    0.000    0.500 
#    4.500    1.250    0.000    1.500    0.000    0.000 
#    0.000    0.000    0.000    0.000    0.000    0.000 
#
# Total GULP energy -178144.594179 kJ/mol
# GULP energy per Si atom -5567.018568 kJ/mol
# Density = 1.844608 g / cm^3
# Si number density = 18.488156 Si / 1000 Ang^3
#
#
#
# Elastic Constant Matrix: (Units=GPa)
#
#
# Indices 1 2 3 4 5 6 
#
# 1 85.4427 14.8921 52.8413 0.0000 0.0000 0.0000
# 2 14.8921 63.4958 22.2079 0.0000 0.0000 0.0000
# 3 52.8413 22.2079 85.8534 0.0000 0.0000 0.0000
# 4 0.0000 0.0000 0.0000 20.6418 0.0000 0.0000
# 5 0.0000 0.0000 0.0000 0.0000 3.9435 0.0000
# 6 0.0000 0.0000 0.0000 0.0000 0.0000 2.7852
#
#
#
# Elastic Compliance Matrix: (Units=1/GPa)
#
#
# Indices 1 2 3 4 5 6 
#
# 1 0.018906 -0.000401 -0.011533 0.000000 0.000000 0.000000
# 2 -0.000401 0.017324 -0.004235 0.000000 0.000000 0.000000
# 3 -0.011533 -0.004235 0.019841 0.000000 0.000000 0.000000
# 4 0.000000 0.000000 0.000000 0.048445 0.000000 0.000000
# 5 0.000000 0.000000 0.000000 0.000000 0.253582 0.000000
# 6 0.000000 0.000000 0.000000 0.000000 0.000000 0.359036
#
#
# Mechanical properties :
#
#
# Convention : Reuss Voigt Hill
#
# Bulk Modulus (GPa) = 42.13105 46.07495 44.10300
# Shear Modulus (GPa) = 6.60169 15.13083 10.86626
#
# Velocity S-wave (km/s) = 1.89170 2.86388 2.42697
# Velocity P-wave (km/s) = 5.25442 5.99260 5.63561
#
# Compressibility (1/GPa) = 0.02373546
#
# Stress axis : x y z
#
# Youngs Moduli (GPa) = 52.89386 57.72296 50.39999
#
# Poissons Ratio (x) = 0.02312 0.58124
# Poissons Ratio (y) = 0.02119 0.21343
# Poissons Ratio (z) = 0.61000 0.24444
#
# Static dielectric constant tensor:
#      x y z
#    x 1.685360 0.000000 0.000000 
#    y 0.000000 1.686600 0.000000 
#    z 0.000000 0.000000 1.610490 
# 
# From -- ./inp_files/71319.got.cif
#   From: 2010.05.17/outbox.cif.g08.bks.cpg/sg74_36_cif.got.tgz:71319.got - 2010.06.03 17:57:02.
