data_PCOD9534216
_publ_section_title
;
Structure prediction by ZEFSAII (Michael W. Deem and Ramdas Pophale) SiO2 
 PCOD9534216
Probable space group: I M M A
;
_chemical_formula_sum "Si O2"
_cell_formula_units_Z 128
_cell_length_a 19.693644
_cell_length_b 20.599787
_cell_length_c 21.379592
_cell_angle_alpha 90.000000
_cell_angle_beta 90.000000
_cell_angle_gamma 90.000000
_cell_volume 8673.377037
_symmetry_space_group_name_H-M "I M M A"
_symmetry_group_IT_number 74
_symmetry_cell_setting 'orthorhombic'
loop_
_space_group_symop_operation_xyz
x,y,z
-x,1/2-y,z
x,-y,-z
-x,1/2+y,-z
-x,-y,-z
x,1/2+y,-z
-x,y,z
x,1/2-y,z
1/2+x,1/2+y,1/2+z
1/2-x,-y,1/2+z
1/2+x,1/2-y,1/2-z
1/2-x,y,1/2-z
1/2-x,1/2-y,1/2-z
1/2+x,y,1/2-z
1/2-x,1/2+y,1/2+z
1/2+x,-y,1/2+z
loop_
_atom_site_type_symbol
_atom_site_label
_atom_site_fract_x
_atom_site_fract_y
_atom_site_fract_z
Si Si1 0.076913 0.002494 0.249583
Si Si2 0.207949 0.535701 0.684077
Si Si3 0.418856 0.320499 0.554282
Si Si4 0.157942 0.176535 0.073731
Si Si5 0.921837 0.849656 0.798431
Si Si6 0.080557 0.954531 0.115856
Si Si7 0.703007 0.033356 0.434033
Si Si8 0.812503 0.318337 0.299099
O O1 0.136527 0.001505 0.300307
O O2 0.080189 0.073521 0.216496
O O3 0.000000 0.994044 0.273637
O O4 0.088852 0.955736 0.190723
O O5 0.250000 0.533056 0.750000
O O6 0.250816 0.511523 0.624956
O O7 0.193192 0.611741 0.669586
O O8 0.500000 0.320530 0.557711
O O9 0.394453 0.250000 0.578424
O O10 0.395659 0.325209 0.482764
O O11 0.396198 0.385038 0.589656
O O12 0.187667 0.250000 0.072986
O O13 0.119995 0.166836 0.139602
O O14 0.202831 0.111950 0.063309
O O15 0.881460 0.819560 0.740687
O O16 0.000000 0.829911 0.804021
O O17 0.000000 0.965012 0.103067
O O18 0.126879 0.009184 0.083597
O O19 0.721422 0.000000 0.500000
O O20 0.809069 0.250000 0.334809
O O21 0.750000 0.317811 0.250000
#
# Coordination Sequence:
#
# PCOD9534216 Si02
#       8
#    16  16  16  16  16  16  16  16
#     4   9  17  30  49  70  89 118 158 194 232 273
#     4  10  18  31  47  64  90 120 152 197 233 272
#     4   9  18  29  40  59  90 127 158 183 219 266
#     4  11  20  28  39  59  92 128 159 188 216 256
#     4  10  18  27  40  62  91 120 155 191 216 248
#     4  10  18  30  48  67  92 125 155 188 225 269
#     4  12  22  33  46  68  93 121 162 194 235 273
#     4   9  17  28  40  55  80 116 152 185 222 257
#
# _framework density 14.757804999999999
#
# number of rings (size 3 to 8) (size 9 to 14) (size 15 to 20)
#    0.000    2.000    3.750    2.250    0.000    3.750 
#    0.000    0.000    0.000    0.375    0.000    2.625 
#    0.000    0.000    0.000    0.000    0.000    0.000 
#
# Total GULP energy -356337.534381 kJ/mol
# GULP energy per Si atom -5567.773975 kJ/mol
# Density = 1.472422 g / cm^3
# Si number density = 14.757805 Si / 1000 Ang^3
#
#
#
# Elastic Constant Matrix: (Units=GPa)
#
#
# Indices 1 2 3 4 5 6 
#
# 1 46.9405 18.6686 33.8576 0.0000 0.0000 0.0000
# 2 18.6686 59.6674 26.5166 0.0000 0.0000 0.0000
# 3 33.8576 26.5166 62.5405 0.0000 0.0000 0.0000
# 4 0.0000 0.0000 0.0000 7.6897 0.0000 0.0000
# 5 0.0000 0.0000 0.0000 0.0000 22.8874 0.0000
# 6 0.0000 0.0000 0.0000 0.0000 0.0000 6.9692
#
#
#
# Elastic Compliance Matrix: (Units=1/GPa)
#
#
# Indices 1 2 3 4 5 6 
#
# 1 0.035427 -0.003156 -0.017841 0.000000 0.000000 0.000000
# 2 -0.003156 0.020932 -0.007167 0.000000 0.000000 0.000000
# 3 -0.017841 -0.007167 0.028687 0.000000 0.000000 0.000000
# 4 0.000000 0.000000 0.000000 0.130044 0.000000 0.000000
# 5 0.000000 0.000000 0.000000 0.000000 0.043692 0.000000
# 6 0.000000 0.000000 0.000000 0.000000 0.000000 0.143489
#
#
# Mechanical properties :
#
#
# Convention : Reuss Voigt Hill
#
# Bulk Modulus (GPa) = 34.82008 36.35935 35.58972
# Shear Modulus (GPa) = 10.67985 13.51630 12.09808
#
# Velocity S-wave (km/s) = 2.69304 3.02963 2.86628
# Velocity P-wave (km/s) = 5.77196 6.07693 5.92640
#
# Compressibility (1/GPa) = 0.02871906
#
# Stress axis : x y z
#
# Youngs Moduli (GPa) = 28.22673 47.77436 34.85898
#
# Poissons Ratio (x) = 0.15076 0.62193
# Poissons Ratio (y) = 0.08907 0.24982
# Poissons Ratio (z) = 0.50361 0.34238
#
# Static dielectric constant tensor:
#      x y z
#    x 1.505750 0.000000 0.000000 
#    y 0.000000 1.552700 0.000000 
#    z 0.000000 0.000000 1.478490 
# 
# From -- ./inp_files/45602.got.cif
#   From: 2010.05.17/outbox.cif.g08.bks.cpg/sg74_23_cif.got.tgz:45602.got - 2010.06.03 17:57:02.
