data_PCOD9534902
_publ_section_title
;
Structure prediction by ZEFSAII (Michael W. Deem and Ramdas Pophale) SiO2 
 PCOD9534902
Probable space group: I M M A
;
_chemical_formula_sum "Si O2"
_cell_formula_units_Z 80
_cell_length_a 26.954630
_cell_length_b 16.681272
_cell_length_c 8.599586
_cell_angle_alpha 90.000000
_cell_angle_beta 90.000000
_cell_angle_gamma 90.000000
_cell_volume 3866.696476
_symmetry_space_group_name_H-M "I M M A"
_symmetry_group_IT_number 74
_symmetry_cell_setting 'orthorhombic'
loop_
_space_group_symop_operation_xyz
x,y,z
-x,1/2-y,z
x,-y,-z
-x,1/2+y,-z
-x,-y,-z
x,1/2+y,-z
-x,y,z
x,1/2-y,z
1/2+x,1/2+y,1/2+z
1/2-x,-y,1/2+z
1/2+x,1/2-y,1/2-z
1/2-x,y,1/2-z
1/2-x,1/2-y,1/2-z
1/2+x,y,1/2-z
1/2-x,1/2+y,1/2+z
1/2+x,-y,1/2+z
loop_
_atom_site_type_symbol
_atom_site_label
_atom_site_fract_x
_atom_site_fract_y
_atom_site_fract_z
Si Si1 0.653309 0.117044 0.601524
Si Si2 0.144888 0.435118 0.227514
Si Si3 0.554565 0.155738 0.761270
Si Si4 0.750000 0.383419 0.750000
Si Si5 0.559017 0.345338 0.112110
Si Si6 0.792320 0.000000 0.500000
O O1 0.664155 0.117163 0.417882
O O2 0.598639 0.148640 0.639436
O O3 0.697890 0.156185 0.701575
O O4 0.647178 0.025683 0.663373
O O5 0.091697 0.399564 0.274494
O O6 0.176186 0.443035 0.385446
O O7 0.500000 0.123367 0.715350
O O8 0.548659 0.250000 0.787985
O O9 0.568439 0.125160 0.934048
O O10 0.760179 0.441862 0.605554
O O11 0.500000 0.351995 0.138711
O O12 0.572047 0.250000 0.126907
#
# Coordination Sequence:
#
# PCOD9534902 Si02
#       6
#    16  16  16   8  16   8
#     4  10  21  34  52  80 107 138 176 216 261 309
#     4  10  20  33  51  78 108 138 175 217 259 308
#     4   9  19  37  58  78 104 139 176 214 261 316
#     4  10  18  32  53  78 105 136 174 214 262 312
#     4   9  18  33  53  76 103 138 177 216 263 316
#     4  10  18  32  53  76 101 136 172 214 260 310
#
# _framework density 20.689495999999998
#
# number of rings (size 3 to 8) (size 9 to 14) (size 15 to 20)
#    0.000    2.400    0.000    6.000    0.000    2.400 
#    0.000    7.000    0.000    1.200    0.000   22.400 
#    0.000    0.000    0.000    0.000    0.000    0.000 
#
# Total GULP energy -222798.242158 kJ/mol
# GULP energy per Si atom -5569.956054 kJ/mol
# Density = 2.064241 g / cm^3
# Si number density = 20.689496 Si / 1000 Ang^3
#
#
#
# Elastic Constant Matrix: (Units=GPa)
#
#
# Indices 1 2 3 4 5 6 
#
# 1 106.9794 17.1943 53.1861 0.0000 0.0000 0.0000
# 2 17.1943 29.6487 15.7298 0.0000 0.0000 0.0000
# 3 53.1861 15.7298 112.7453 0.0000 0.0000 0.0000
# 4 0.0000 0.0000 0.0000 13.2726 0.0000 0.0000
# 5 0.0000 0.0000 0.0000 0.0000 37.1521 0.0000
# 6 0.0000 0.0000 0.0000 0.0000 0.0000 44.0437
#
#
#
# Elastic Compliance Matrix: (Units=1/GPa)
#
#
# Indices 1 2 3 4 5 6 
#
# 1 0.012753 -0.004540 -0.005383 0.000000 0.000000 0.000000
# 2 -0.004540 0.038041 -0.003165 0.000000 0.000000 0.000000
# 3 -0.005383 -0.003165 0.011850 0.000000 0.000000 0.000000
# 4 0.000000 0.000000 0.000000 0.075343 0.000000 0.000000
# 5 0.000000 0.000000 0.000000 0.000000 0.026916 0.000000
# 6 0.000000 0.000000 0.000000 0.000000 0.000000 0.022705
#
#
# Mechanical properties :
#
#
# Convention : Reuss Voigt Hill
#
# Bulk Modulus (GPa) = 27.42170 46.84375 37.13272
# Shear Modulus (GPa) = 22.12955 29.77790 25.95373
#
# Velocity S-wave (km/s) = 3.27403 3.79790 3.54565
# Velocity P-wave (km/s) = 5.25119 6.47476 5.89481
#
# Compressibility (1/GPa) = 0.03646747
#
# Stress axis : x y z
#
# Youngs Moduli (GPa) = 78.40995 26.28752 84.38495
#
# Poissons Ratio (x) = 0.11936 0.45423
# Poissons Ratio (y) = 0.35601 0.26712
# Poissons Ratio (z) = 0.42207 0.08321
#
# Static dielectric constant tensor:
#      x y z
#    x 1.805750 0.000000 0.000000 
#    y 0.000000 1.742200 0.000000 
#    z 0.000000 0.000000 1.780550 
# 
# From -- ./inp_files/13675.got.cif
#   From: 2010.05.17/outbox.cif.g08.bks.cpg/sg74_7_cif.got.tgz:13675.got - 2010.06.03 17:57:02.
