data_PCOD9534806
_publ_section_title
;
Structure prediction by ZEFSAII (Michael W. Deem and Ramdas Pophale) SiO2 
 PCOD9534806
Probable space group: I M M A
;
_chemical_formula_sum "Si O2"
_cell_formula_units_Z 84
_cell_length_a 12.263666
_cell_length_b 14.620573
_cell_length_c 26.063758
_cell_angle_alpha 90.000000
_cell_angle_beta 90.000000
_cell_angle_gamma 90.000000
_cell_volume 4673.279350
_symmetry_space_group_name_H-M "I M M A"
_symmetry_group_IT_number 74
_symmetry_cell_setting 'orthorhombic'
loop_
_space_group_symop_operation_xyz
x,y,z
-x,1/2-y,z
x,-y,-z
-x,1/2+y,-z
-x,-y,-z
x,1/2+y,-z
-x,y,z
x,1/2-y,z
1/2+x,1/2+y,1/2+z
1/2-x,-y,1/2+z
1/2+x,1/2-y,1/2-z
1/2-x,y,1/2-z
1/2-x,1/2-y,1/2-z
1/2+x,y,1/2-z
1/2-x,1/2+y,1/2+z
1/2+x,-y,1/2+z
loop_
_atom_site_type_symbol
_atom_site_label
_atom_site_fract_x
_atom_site_fract_y
_atom_site_fract_z
Si Si1 0.729202 0.585691 0.406489
Si Si2 0.868899 0.062439 0.351711
Si Si3 0.500000 0.453184 0.555780
Si Si4 0.129470 0.250000 0.409381
Si Si5 0.759787 0.250000 0.986740
Si Si6 0.374855 0.650397 0.305788
Si Si7 0.000000 0.250000 0.981279
Si Si8 0.750000 0.997999 0.750000
O O1 0.824890 0.517174 0.389818
O O2 0.617848 0.528235 0.418854
O O3 0.752301 0.658476 0.451759
O O4 0.699710 0.642960 0.355761
O O5 0.842349 0.158948 0.377990
O O6 0.000000 0.055129 0.343981
O O7 0.802244 0.054144 0.298250
O O8 0.500000 0.500000 0.500000
O O9 0.500000 0.342563 0.551424
O O10 0.181583 0.250000 0.465281
O O11 0.000000 0.250000 0.415583
O O12 0.883994 0.250000 0.008646
O O13 0.500000 0.642470 0.322239
O O14 0.361747 0.750000 0.280906
O O15 0.343288 0.566732 0.270091
#
# Coordination Sequence:
#
# PCOD9534806 Si02
#       8
#    16  16   8   8   8  16   4   8
#     4  10  20  34  57  86 119 157 184 236 278 345
#     4  10  23  42  61  84 114 148 195 241 295 340
#     4  10  20  32  52  84 118 160 198 226 284 323
#     4  10  24  43  61  80 109 156 197 240 282 346
#     4  10  20  36  59  86 124 154 198 219 291 332
#     4  10  18  31  54  82 116 150 183 220 282 349
#     4   8  20  32  52  78 118 156 182 242 268 330
#     4  10  21  37  60  84 108 144 190 248 286 338
#
# _framework density 17.974530000000001
#
# number of rings (size 3 to 8) (size 9 to 14) (size 15 to 20)
#    0.000    2.095    1.905    0.857    5.333    1.143 
#    0.000    1.905    0.000    0.000    0.000    0.000 
#    0.000    0.000    0.000    0.000    0.000    0.000 
#
# Total GULP energy -234028.107290 kJ/mol
# GULP energy per Si atom -5572.097793 kJ/mol
# Density = 1.793362 g / cm^3
# Si number density = 17.974530 Si / 1000 Ang^3
#
#
#
# Elastic Constant Matrix: (Units=GPa)
#
#
# Indices 1 2 3 4 5 6 
#
# 1 58.3087 55.7428 36.1140 0.0000 0.0000 0.0000
# 2 55.7428 107.2349 61.7607 0.0000 0.0000 0.0000
# 3 36.1140 61.7607 107.8408 0.0000 0.0000 0.0000
# 4 0.0000 0.0000 0.0000 31.7529 0.0000 0.0000
# 5 0.0000 0.0000 0.0000 0.0000 32.3891 0.0000
# 6 0.0000 0.0000 0.0000 0.0000 0.0000 18.9717
#
#
#
# Elastic Compliance Matrix: (Units=1/GPa)
#
#
# Indices 1 2 3 4 5 6 
#
# 1 0.034352 -0.016759 -0.001906 0.000000 0.000000 0.000000
# 2 -0.016759 0.022091 -0.007039 0.000000 0.000000 0.000000
# 3 -0.001906 -0.007039 0.013943 0.000000 0.000000 0.000000
# 4 0.000000 0.000000 0.000000 0.031493 0.000000 0.000000
# 5 0.000000 0.000000 0.000000 0.000000 0.030875 0.000000
# 6 0.000000 0.000000 0.000000 0.000000 0.000000 0.052710
#
#
# Mechanical properties :
#
#
# Convention : Reuss Voigt Hill
#
# Bulk Modulus (GPa) = 52.69492 64.51326 58.60409
# Shear Modulus (GPa) = 20.55927 24.60720 22.58323
#
# Velocity S-wave (km/s) = 3.38568 3.70402 3.54842
# Velocity P-wave (km/s) = 6.68310 7.36630 7.03300
#
# Compressibility (1/GPa) = 0.01897716
#
# Stress axis : x y z
#
# Youngs Moduli (GPa) = 29.11009 45.26650 71.72242
#
# Poissons Ratio (x) = 0.75864 0.13670
# Poissons Ratio (y) = 0.48787 0.50488
# Poissons Ratio (z) = 0.05548 0.31865
#
# Static dielectric constant tensor:
#      x y z
#    x 1.637970 0.000000 0.000000 
#    y 0.000000 1.657160 0.000000 
#    z 0.000000 0.000000 1.617190 
# 
# From -- ./inp_files/58719.got.cif
#   From: 2010.05.17/outbox.cif.g08.bks.cpg/sg74_30_cif.got.tgz:58719.got - 2010.06.03 17:57:02.
