data_PCOD9534635
_publ_section_title
;
Structure prediction by ZEFSAII (Michael W. Deem and Ramdas Pophale) SiO2 
 PCOD9534635
Probable space group: I M M A
;
_chemical_formula_sum "Si O2"
_cell_formula_units_Z 88
_cell_length_a 13.204206
_cell_length_b 14.052522
_cell_length_c 27.454469
_cell_angle_alpha 90.000000
_cell_angle_beta 90.000000
_cell_angle_gamma 90.000000
_cell_volume 5094.242485
_symmetry_space_group_name_H-M "I M M A"
_symmetry_group_IT_number 74
_symmetry_cell_setting 'orthorhombic'
loop_
_space_group_symop_operation_xyz
x,y,z
-x,1/2-y,z
x,-y,-z
-x,1/2+y,-z
-x,-y,-z
x,1/2+y,-z
-x,y,z
x,1/2-y,z
1/2+x,1/2+y,1/2+z
1/2-x,-y,1/2+z
1/2+x,1/2-y,1/2-z
1/2-x,y,1/2-z
1/2-x,1/2-y,1/2-z
1/2+x,y,1/2-z
1/2-x,1/2+y,1/2+z
1/2+x,-y,1/2+z
loop_
_atom_site_type_symbol
_atom_site_label
_atom_site_fract_x
_atom_site_fract_y
_atom_site_fract_z
Si Si1 0.311131 0.861457 0.679613
Si Si2 0.379052 0.860888 0.066386
Si Si3 0.120991 0.862362 0.929773
Si Si4 0.746782 0.000000 0.500000
Si Si5 0.117234 0.053827 0.278467
Si Si6 0.877497 0.854434 0.319888
O O1 0.332618 0.750000 0.686770
O O2 0.344642 0.886642 0.625324
O O3 0.192841 0.881734 0.689795
O O4 0.367807 0.918222 0.722293
O O5 0.500000 0.877283 0.062038
O O6 0.360305 0.750000 0.053188
O O7 0.351061 0.871378 0.123473
O O8 0.316720 0.933597 0.033886
O O9 0.144923 0.750000 0.937852
O O10 0.000000 0.873174 0.933633
O O11 0.178255 0.930545 0.967116
O O12 0.000000 0.064923 0.292337
O O13 0.150460 0.945261 0.288237
O O14 0.838880 0.750000 0.305062
O O15 0.000000 0.849848 0.318460
#
# Coordination Sequence:
#
# PCOD9534635 Si02
#       6
#    16  16  16   8  16  16
#     4  10  21  35  50  72 103 135 165 199 248 307
#     4   9  18  32  50  76 111 143 166 198 252 309
#     4  10  22  39  55  72  98 133 171 212 262 313
#     4  12  20  32  56  80  96 126 178 228 252 284
#     4  10  18  30  52  78 101 129 167 205 241 291
#     4   8  15  29  48  70  99 133 163 193 237 294
#
# _framework density 17.274404000000001
#
# number of rings (size 3 to 8) (size 9 to 14) (size 15 to 20)
#    0.000    2.364    0.000    4.909    0.000    2.182 
#    0.000    2.727    0.000    4.364    0.000    2.545 
#    0.000    0.000    0.000    0.000    0.000    0.000 
#
# Total GULP energy -245377.217848 kJ/mol
# GULP energy per Si atom -5576.754951 kJ/mol
# Density = 1.723509 g / cm^3
# Si number density = 17.274404 Si / 1000 Ang^3
#
#
#
# Elastic Constant Matrix: (Units=GPa)
#
#
# Indices 1 2 3 4 5 6 
#
# 1 67.5770 35.1785 37.4159 0.0000 0.0000 0.0000
# 2 35.1785 114.4293 88.4667 0.0000 0.0000 0.0000
# 3 37.4159 88.4667 100.8946 0.0000 0.0000 0.0000
# 4 0.0000 0.0000 0.0000 31.9348 0.0000 0.0000
# 5 0.0000 0.0000 0.0000 0.0000 19.9948 0.0000
# 6 0.0000 0.0000 0.0000 0.0000 0.0000 26.3518
#
#
#
# Elastic Compliance Matrix: (Units=1/GPa)
#
#
# Indices 1 2 3 4 5 6 
#
# 1 0.018674 -0.001201 -0.005872 0.000000 0.000000 0.000000
# 2 -0.001201 0.027207 -0.023410 0.000000 0.000000 0.000000
# 3 -0.005872 -0.023410 0.032616 0.000000 0.000000 0.000000
# 4 0.000000 0.000000 0.000000 0.031314 0.000000 0.000000
# 5 0.000000 0.000000 0.000000 0.000000 0.050013 0.000000
# 6 0.000000 0.000000 0.000000 0.000000 0.000000 0.037948
#
#
# Mechanical properties :
#
#
# Convention : Reuss Voigt Hill
#
# Bulk Modulus (GPa) = 57.04498 67.22480 62.13489
# Shear Modulus (GPa) = 18.89768 23.77894 21.33831
#
# Velocity S-wave (km/s) = 3.31111 3.71420 3.51843
# Velocity P-wave (km/s) = 6.90742 7.57589 7.24936
#
# Compressibility (1/GPa) = 0.01753003
#
# Stress axis : x y z
#
# Youngs Moduli (GPa) = 53.54912 36.75492 30.66017
#
# Poissons Ratio (x) = 0.04416 0.18003
# Poissons Ratio (y) = 0.06434 0.71777
# Poissons Ratio (z) = 0.31443 0.86045
#
# Static dielectric constant tensor:
#      x y z
#    x 1.582610 0.000000 0.000000 
#    y 0.000000 1.600500 0.000000 
#    z 0.000000 0.000000 1.566130 
# 
# From -- ./inp_files/66941.got.cif
#   From: 2010.05.17/outbox.cif.g08.bks.cpg/sg74_34_cif.got.tgz:66941.got - 2010.06.03 17:57:02.
