data_PCOD9534482
_publ_section_title
;
Structure prediction by ZEFSAII (Michael W. Deem and Ramdas Pophale) SiO2 
 PCOD9534482
Probable space group: I M M A
;
_chemical_formula_sum "Si O2"
_cell_formula_units_Z 112
_cell_length_a 9.164358
_cell_length_b 32.437922
_cell_length_c 33.190457
_cell_angle_alpha 90.000000
_cell_angle_beta 90.000000
_cell_angle_gamma 90.000000
_cell_volume 9866.617762
_symmetry_space_group_name_H-M "I M M A"
_symmetry_group_IT_number 74
_symmetry_cell_setting 'orthorhombic'
loop_
_space_group_symop_operation_xyz
x,y,z
-x,1/2-y,z
x,-y,-z
-x,1/2+y,-z
-x,-y,-z
x,1/2+y,-z
-x,y,z
x,1/2-y,z
1/2+x,1/2+y,1/2+z
1/2-x,-y,1/2+z
1/2+x,1/2-y,1/2-z
1/2-x,y,1/2-z
1/2-x,1/2-y,1/2-z
1/2+x,y,1/2-z
1/2-x,1/2+y,1/2+z
1/2+x,-y,1/2+z
loop_
_atom_site_type_symbol
_atom_site_label
_atom_site_fract_x
_atom_site_fract_y
_atom_site_fract_z
Si Si1 0.668453 0.971236 0.959712
Si Si2 0.825092 0.336140 0.707226
Si Si3 0.824928 0.250000 0.923621
Si Si4 0.831587 0.403174 0.993761
Si Si5 0.673403 0.609170 0.131925
Si Si6 0.667594 0.960709 0.413471
Si Si7 0.673499 0.333568 0.946742
Si Si8 0.325251 0.750000 0.163433
O O1 0.500000 0.962241 0.950683
O O2 0.757190 0.930411 0.971545
O O3 0.743630 0.998470 0.925179
O O4 0.670144 0.000000 0.000000
O O5 0.750000 0.341872 0.750000
O O6 0.780981 0.369627 0.673599
O O7 0.792540 0.290954 0.688921
O O8 0.000000 0.338536 0.711706
O O9 0.759148 0.290842 0.944093
O O10 0.764143 0.250000 0.877851
O O11 0.000000 0.250000 0.924186
O O12 0.000000 0.393231 0.002665
O O13 0.831334 0.432467 0.953981
O O14 0.738742 0.363438 0.980918
O O15 0.500000 0.600894 0.133097
O O16 0.757903 0.567854 0.120053
O O17 0.695534 0.642319 0.095836
O O18 0.500000 0.970110 0.403952
O O19 0.500000 0.327419 0.951565
O O20 0.500000 0.750000 0.153908
#
# Coordination Sequence:
#
# PCOD9534482 Si02
#       8
#    16  16   8  16  16  16  16   8
#     4   9  15  23  35  51  70  93 114 127 149 187
#     4  10  20  32  45  57  70  86 107 136 174 216
#     4  12  22  29  41  58  71  84 110 144 176 208
#     4   9  16  25  36  53  73  88 108 135 160 186
#     4   9  17  29  42  53  67  87 108 131 162 206
#     4   9  16  24  36  53  71  88 106 132 159 185
#     4  10  18  30  43  52  67  90 112 134 167 207
#     4  10  19  35  47  54  68  86 106 134 174 220
#
# _framework density 11.351407999999999
#
# number of rings (size 3 to 8) (size 9 to 14) (size 15 to 20)
#    0.000    2.429    1.429    2.571    0.000    6.857 
#    0.000    0.000    0.000    0.000    0.000    0.000 
#    0.000    0.000    0.000    0.000    0.000    0.000 
#
# Total GULP energy -312100.890534 kJ/mol
# GULP energy per Si atom -5573.230188 kJ/mol
# Density = 1.132557 g / cm^3
# Si number density = 11.351408 Si / 1000 Ang^3
#
#
#
# Elastic Constant Matrix: (Units=GPa)
#
#
# Indices 1 2 3 4 5 6 
#
# 1 80.0586 51.8491 34.5323 0.0000 0.0000 0.0000
# 2 51.8491 73.0375 48.1035 0.0000 0.0000 0.0000
# 3 34.5323 48.1035 44.6644 0.0000 0.0000 0.0000
# 4 0.0000 0.0000 0.0000 9.3135 0.0000 0.0000
# 5 0.0000 0.0000 0.0000 0.0000 15.6851 0.0000
# 6 0.0000 0.0000 0.0000 0.0000 0.0000 17.7491
#
#
#
# Elastic Compliance Matrix: (Units=1/GPa)
#
#
# Indices 1 2 3 4 5 6 
#
# 1 0.023127 -0.015968 -0.000684 0.000000 0.000000 0.000000
# 2 -0.015968 0.058128 -0.050258 0.000000 0.000000 0.000000
# 3 -0.000684 -0.050258 0.077046 0.000000 0.000000 0.000000
# 4 0.000000 0.000000 0.000000 0.107371 0.000000 0.000000
# 5 0.000000 0.000000 0.000000 0.000000 0.063755 0.000000
# 6 0.000000 0.000000 0.000000 0.000000 0.000000 0.056341
#
#
# Mechanical properties :
#
#
# Convention : Reuss Voigt Hill
#
# Bulk Modulus (GPa) = 40.84665 51.85893 46.35279
# Shear Modulus (GPa) = 9.47426 12.76791 11.12109
#
# Velocity S-wave (km/s) = 2.89214 3.35742 3.13343
# Velocity P-wave (km/s) = 6.87128 7.79833 7.34944
#
# Compressibility (1/GPa) = 0.02448181
#
# Stress axis : x y z
#
# Youngs Moduli (GPa) = 43.23969 17.20353 12.97931
#
# Poissons Ratio (x) = 0.27470 0.00887
# Poissons Ratio (y) = 0.69043 0.65232
# Poissons Ratio (z) = 0.02956 0.86462
#
# Static dielectric constant tensor:
#      x y z
#    x 1.379300 0.000000 0.000000 
#    y 0.000000 1.358660 0.000000 
#    z 0.000000 0.000000 1.336630 
# 
# From -- ./inp_files/71144.got.cif
#   From: 2010.05.17/outbox.cif.g08.bks.cpg/sg74_36_cif.got.tgz:71144.got - 2010.06.03 17:57:02.
