data_PCOD9534174
_publ_section_title
;
Structure prediction by ZEFSAII (Michael W. Deem and Ramdas Pophale) SiO2 
 PCOD9534174
Probable space group: I M M A
;
_chemical_formula_sum "Si O2"
_cell_formula_units_Z 88
_cell_length_a 14.719004
_cell_length_b 15.282635
_cell_length_c 26.342327
_cell_angle_alpha 90.000000
_cell_angle_beta 90.000000
_cell_angle_gamma 90.000000
_cell_volume 5925.579112
_symmetry_space_group_name_H-M "I M M A"
_symmetry_group_IT_number 74
_symmetry_cell_setting 'orthorhombic'
loop_
_space_group_symop_operation_xyz
x,y,z
-x,1/2-y,z
x,-y,-z
-x,1/2+y,-z
-x,-y,-z
x,1/2+y,-z
-x,y,z
x,1/2-y,z
1/2+x,1/2+y,1/2+z
1/2-x,-y,1/2+z
1/2+x,1/2-y,1/2-z
1/2-x,y,1/2-z
1/2-x,1/2-y,1/2-z
1/2+x,y,1/2-z
1/2-x,1/2+y,1/2+z
1/2+x,-y,1/2+z
loop_
_atom_site_type_symbol
_atom_site_label
_atom_site_fract_x
_atom_site_fract_y
_atom_site_fract_z
Si Si1 0.798901 0.854606 0.304136
Si Si2 0.810997 0.038411 0.887158
Si Si3 0.500000 0.529674 0.326448
Si Si4 0.000000 0.854003 0.271626
Si Si5 0.500000 0.157824 0.333768
Si Si6 0.894026 0.147656 0.974552
Si Si7 0.671657 0.346942 0.409483
O O1 0.788308 0.750000 0.312452
O O2 0.750000 0.874381 0.250000
O O3 0.753454 0.908298 0.349416
O O4 0.905679 0.875724 0.299217
O O5 0.829870 0.088208 0.939907
O O6 0.910103 0.037584 0.860285
O O7 0.779516 0.938157 0.895991
O O8 0.500000 0.600430 0.282760
O O9 0.500000 0.431802 0.303114
O O10 0.000000 0.750000 0.263807
O O11 0.500000 0.250000 0.305066
O O12 0.413180 0.156418 0.370809
O O13 0.887036 0.250000 0.959016
O O14 0.000000 0.121446 0.969376
O O15 0.866751 0.143000 0.033534
O O16 0.716642 0.250000 0.406364
#
# Coordination Sequence:
#
# PCOD9534174 Si02
#       7
#    16  16   8   8   8  16  16
#     4  10  20  33  48  67  91 118 150 186 226 271
#     4  11  19  28  44  67  93 123 159 189 216 265
#     4  10  18  25  42  67  89 121 155 184 221 261
#     4  10  20  34  49  64  90 121 147 183 230 273
#     4   8  14  25  39  57  88 124 155 179 212 264
#     4  10  18  26  39  64  98 129 154 183 222 270
#     4   9  17  28  41  60  91 129 157 182 222 267
#
# _framework density 14.850868999999999
#
# number of rings (size 3 to 8) (size 9 to 14) (size 15 to 20)
#    0.000    2.182    3.636    1.091    0.000    1.455 
#    0.000    0.000    0.000    1.636    0.000    2.545 
#    0.000    2.909    0.000    0.000    0.000    0.000 
#
# Total GULP energy -244991.265573 kJ/mol
# GULP energy per Si atom -5567.983308 kJ/mol
# Density = 1.481707 g / cm^3
# Si number density = 14.850869 Si / 1000 Ang^3
#
#
#
# Elastic Constant Matrix: (Units=GPa)
#
#
# Indices 1 2 3 4 5 6 
#
# 1 58.8677 33.5907 20.0205 0.0000 0.0000 0.0000
# 2 33.5907 57.1282 26.1187 0.0000 0.0000 0.0000
# 3 20.0205 26.1187 36.7446 0.0000 0.0000 0.0000
# 4 0.0000 0.0000 0.0000 21.3823 0.0000 0.0000
# 5 0.0000 0.0000 0.0000 0.0000 12.4934 0.0000
# 6 0.0000 0.0000 0.0000 0.0000 0.0000 12.6653
#
#
#
# Elastic Compliance Matrix: (Units=1/GPa)
#
#
# Indices 1 2 3 4 5 6 
#
# 1 0.026151 -0.013129 -0.004916 0.000000 0.000000 0.000000
# 2 -0.013129 0.032523 -0.015965 0.000000 0.000000 0.000000
# 3 -0.004916 -0.015965 0.041242 0.000000 0.000000 0.000000
# 4 0.000000 0.000000 0.000000 0.046768 0.000000 0.000000
# 5 0.000000 0.000000 0.000000 0.000000 0.080042 0.000000
# 6 0.000000 0.000000 0.000000 0.000000 0.000000 0.078956
#
#
# Mechanical properties :
#
#
# Convention : Reuss Voigt Hill
#
# Bulk Modulus (GPa) = 31.35191 34.68893 33.02042
# Shear Modulus (GPa) = 13.00960 14.17558 13.59259
#
# Velocity S-wave (km/s) = 2.96297 3.09290 3.02863
# Velocity P-wave (km/s) = 5.73259 6.01361 5.87478
#
# Compressibility (1/GPa) = 0.03189598
#
# Stress axis : x y z
#
# Youngs Moduli (GPa) = 38.24013 30.74761 24.24740
#
# Poissons Ratio (x) = 0.40367 0.11921
# Poissons Ratio (y) = 0.50204 0.38710
# Poissons Ratio (z) = 0.18800 0.49088
#
# Static dielectric constant tensor:
#      x y z
#    x 1.471540 0.000000 0.000000 
#    y 0.000000 1.552580 0.000000 
#    z 0.000000 0.000000 1.467820 
# 
# From -- ./inp_files/59993.got.cif
#   From: 2010.05.17/outbox.cif.g08.bks.cpg/sg74_30_cif.got.tgz:59993.got - 2010.06.03 17:57:02.
