data_PCOD9534404
_publ_section_title
;
Structure prediction by ZEFSAII (Michael W. Deem and Ramdas Pophale) SiO2 
 PCOD9534404
Probable space group: I M M A
;
_chemical_formula_sum "Si O2"
_cell_formula_units_Z 88
_cell_length_a 22.539209
_cell_length_b 12.255281
_cell_length_c 15.906015
_cell_angle_alpha 90.000000
_cell_angle_beta 90.000000
_cell_angle_gamma 90.000000
_cell_volume 4393.628492
_symmetry_space_group_name_H-M "I M M A"
_symmetry_group_IT_number 74
_symmetry_cell_setting 'orthorhombic'
loop_
_space_group_symop_operation_xyz
x,y,z
-x,1/2-y,z
x,-y,-z
-x,1/2+y,-z
-x,-y,-z
x,1/2+y,-z
-x,y,z
x,1/2-y,z
1/2+x,1/2+y,1/2+z
1/2-x,-y,1/2+z
1/2+x,1/2-y,1/2-z
1/2-x,y,1/2-z
1/2-x,1/2-y,1/2-z
1/2+x,y,1/2-z
1/2-x,1/2+y,1/2+z
1/2+x,-y,1/2+z
loop_
_atom_site_type_symbol
_atom_site_label
_atom_site_fract_x
_atom_site_fract_y
_atom_site_fract_z
Si Si1 0.433454 0.578010 0.330733
Si Si2 0.794968 0.123067 0.122475
Si Si3 0.684924 0.080621 0.748142
Si Si4 0.066000 0.869292 0.709372
Si Si5 0.663975 0.043746 0.091208
Si Si6 0.382629 0.500000 0.500000
O O1 0.500000 0.623121 0.317043
O O2 0.372702 0.631716 0.295974
O O3 0.431804 0.463110 0.279491
O O4 0.422060 0.556778 0.428765
O O5 0.802430 0.250000 0.145879
O O6 0.805258 0.036036 0.198252
O O7 0.727644 0.103364 0.091339
O O8 0.839998 0.085041 0.049257
O O9 0.750000 0.132523 0.750000
O O10 0.670047 0.057072 0.844476
O O11 0.073723 0.750000 0.748869
O O12 0.113967 0.885333 0.636826
O O13 0.000000 0.874967 0.672133
O O14 0.648560 0.000000 0.000000
#
# Coordination Sequence:
#
# PCOD9534404 Si02
#       6
#    16  16  16  16  16   8
#     4   9  17  29  47  70 101 138 167 205 259 311
#     4  10  19  32  50  73 104 138 171 214 269 311
#     4   8  17  29  46  71  98 133 166 212 254 311
#     4   9  18  32  50  75 104 134 170 216 269 323
#     4  10  18  29  46  72 105 135 165 208 259 312
#     4  10  19  30  46  74 105 134 174 218 253 316
#
# _framework density 20.029001999999998
#
# number of rings (size 3 to 8) (size 9 to 14) (size 15 to 20)
#    0.000    2.727    0.909    0.818    0.000   10.182 
#    0.000    0.000    0.000    4.909    0.000   34.364 
#    0.000    2.909    0.000    0.000    0.000    0.000 
#
# Total GULP energy -245106.803978 kJ/mol
# GULP energy per Si atom -5570.609181 kJ/mol
# Density = 1.998341 g / cm^3
# Si number density = 20.029002 Si / 1000 Ang^3
#
#
#
# Elastic Constant Matrix: (Units=GPa)
#
#
# Indices 1 2 3 4 5 6 
#
# 1 175.6542 18.7016 29.4179 0.0000 0.0000 0.0000
# 2 18.7016 97.6844 25.5323 0.0000 0.0000 0.0000
# 3 29.4179 25.5323 117.1885 0.0000 0.0000 0.0000
# 4 0.0000 0.0000 0.0000 1.2341 0.0000 0.0000
# 5 0.0000 0.0000 0.0000 0.0000 18.3636 0.0000
# 6 0.0000 0.0000 0.0000 0.0000 0.0000 -5.0565
#
#
#
# Elastic Compliance Matrix: (Units=1/GPa)
#
#
# Indices 1 2 3 4 5 6 
#
# 1 0.006001 -0.000801 -0.001332 0.000000 0.000000 0.000000
# 2 -0.000801 0.010962 -0.002187 0.000000 0.000000 0.000000
# 3 -0.001332 -0.002187 0.009344 0.000000 0.000000 0.000000
# 4 0.000000 0.000000 0.000000 0.810316 0.000000 0.000000
# 5 0.000000 0.000000 0.000000 0.000000 0.054456 0.000000
# 6 0.000000 0.000000 0.000000 0.000000 0.000000 -0.197764
#
#
# Mechanical properties :
#
#
# Convention : Reuss Voigt Hill
#
# Bulk Modulus (GPa) = 56.60172 59.75893 58.18033
# Shear Modulus (GPa) = 7.06369 24.03325 15.54847
#
# Velocity S-wave (km/s) = 1.88000 3.46775 2.78923
# Velocity P-wave (km/s) = 5.74750 6.77751 6.28365
#
# Compressibility (1/GPa) = 0.01766731
#
# Stress axis : x y z
#
# Youngs Moduli (GPa) = 166.62917 91.22364 107.01815
#
# Poissons Ratio (x) = 0.07305 0.14255
# Poissons Ratio (y) = 0.13343 0.23408
# Poissons Ratio (z) = 0.22196 0.19954
#
# Static dielectric constant tensor:
#      x y z
#    x 1.783400 0.000000 0.000000 
#    y 0.000000 1.730140 0.000000 
#    z 0.000000 0.000000 1.665330 
# 
# From -- ./inp_files/36372.got.cif
#   From: 2010.05.17/outbox.cif.g08.bks.cpg/sg74_19_cif.got.tgz:36372.got - 2010.06.03 17:57:02.
