data_PCOD9534069
_publ_section_title
;
Structure prediction by ZEFSAII (Michael W. Deem and Ramdas Pophale) SiO2 
 PCOD9534069
Probable space group: I M M A
;
_chemical_formula_sum "Si O2"
_cell_formula_units_Z 96
_cell_length_a 17.209756
_cell_length_b 18.881601
_cell_length_c 18.586444
_cell_angle_alpha 90.000000
_cell_angle_beta 90.000000
_cell_angle_gamma 90.000000
_cell_volume 6039.623086
_symmetry_space_group_name_H-M "I M M A"
_symmetry_group_IT_number 74
_symmetry_cell_setting 'orthorhombic'
loop_
_space_group_symop_operation_xyz
x,y,z
-x,1/2-y,z
x,-y,-z
-x,1/2+y,-z
-x,-y,-z
x,1/2+y,-z
-x,y,z
x,1/2-y,z
1/2+x,1/2+y,1/2+z
1/2-x,-y,1/2+z
1/2+x,1/2-y,1/2-z
1/2-x,y,1/2-z
1/2-x,1/2-y,1/2-z
1/2+x,y,1/2-z
1/2-x,1/2+y,1/2+z
1/2+x,-y,1/2+z
loop_
_atom_site_type_symbol
_atom_site_label
_atom_site_fract_x
_atom_site_fract_y
_atom_site_fract_z
Si Si1 0.237168 0.331606 0.520769
Si Si2 0.205790 0.468215 0.918747
Si Si3 0.087210 0.918284 0.523896
Si Si4 0.294906 0.331121 0.356224
Si Si5 0.907453 0.047184 0.181186
Si Si6 0.333559 0.441546 0.166710
O O1 0.231660 0.250000 0.543307
O O2 0.283468 0.384494 0.572755
O O3 0.153014 0.368394 0.509800
O O4 0.277634 0.333404 0.442065
O O5 0.129151 0.493732 0.877301
O O6 0.276702 0.502411 0.872996
O O7 0.208405 0.500000 0.000000
O O8 0.101299 0.919603 0.609430
O O9 0.000000 0.896018 0.505586
O O10 0.097349 0.000000 0.500000
O O11 0.299512 0.250000 0.333464
O O12 0.371668 0.376192 0.339655
O O13 0.221737 0.373325 0.323036
O O14 0.870239 0.031842 0.259533
O O15 0.000000 0.046180 0.182890
#
# Coordination Sequence:
#
# PCOD9534069 Si02
#       6
#    16  16  16  16  16  16
#     4  10  18  32  53  76 102 131 174 219 256 303
#     4  11  17  36  57  77  98 132 181 219 253 301
#     4  10  17  29  51  77 106 135 164 208 259 305
#     4   9  18  33  52  74 103 141 176 210 250 302
#     4  11  23  33  50  78 108 139 171 217 262 308
#     4  10  18  33  52  76 104 138 175 210 249 312
#
# _framework density 15.895030999999999
#
# number of rings (size 3 to 8) (size 9 to 14) (size 15 to 20)
#    0.000    1.833    6.667    2.500    0.000    2.333 
#    0.000    0.000    0.000    5.500    0.000    0.000 
#    0.000    0.000    0.000    0.000    0.000    0.000 
#
# Total GULP energy -267542.758506 kJ/mol
# GULP energy per Si atom -5573.807469 kJ/mol
# Density = 1.585885 g / cm^3
# Si number density = 15.895031 Si / 1000 Ang^3
#
#
#
# Elastic Constant Matrix: (Units=GPa)
#
#
# Indices 1 2 3 4 5 6 
#
# 1 116.1602 42.6842 54.0952 0.0000 0.0000 0.0000
# 2 42.6842 117.6987 49.2974 0.0000 0.0000 0.0000
# 3 54.0952 49.2974 77.2374 0.0000 0.0000 0.0000
# 4 0.0000 0.0000 0.0000 13.7056 0.0000 0.0000
# 5 0.0000 0.0000 0.0000 0.0000 18.7679 0.0000
# 6 0.0000 0.0000 0.0000 0.0000 0.0000 13.4129
#
#
#
# Elastic Compliance Matrix: (Units=1/GPa)
#
#
# Indices 1 2 3 4 5 6 
#
# 1 0.012903 -0.001221 -0.008258 0.000000 0.000000 0.000000
# 2 -0.001221 0.011712 -0.006620 0.000000 0.000000 0.000000
# 3 -0.008258 -0.006620 0.022956 0.000000 0.000000 0.000000
# 4 0.000000 0.000000 0.000000 0.072963 0.000000 0.000000
# 5 0.000000 0.000000 0.000000 0.000000 0.053282 0.000000
# 6 0.000000 0.000000 0.000000 0.000000 0.000000 0.074555
#
#
# Mechanical properties :
#
#
# Convention : Reuss Voigt Hill
#
# Bulk Modulus (GPa) = 65.04727 67.02776 66.03752
# Shear Modulus (GPa) = 17.50129 20.17858 18.83994
#
# Velocity S-wave (km/s) = 3.32181 3.56686 3.44651
# Velocity P-wave (km/s) = 7.46488 7.69570 7.58117
#
# Compressibility (1/GPa) = 0.01537344
#
# Stress axis : x y z
#
# Youngs Moduli (GPa) = 77.50159 85.38403 43.56135
#
# Poissons Ratio (x) = 0.10422 0.35972
# Poissons Ratio (y) = 0.09460 0.28839
# Poissons Ratio (z) = 0.64000 0.56527
#
# Static dielectric constant tensor:
#      x y z
#    x 1.532890 0.000000 0.000000 
#    y 0.000000 1.534850 0.000000 
#    z 0.000000 0.000000 1.562020 
# 
# From -- ./inp_files/44343.got.cif
#   From: 2010.05.17/outbox.cif.g08.bks.cpg/sg74_23_cif.got.tgz:44343.got - 2010.06.03 17:57:02.
