data_PCOD9534276
_publ_section_title
;
Structure prediction by ZEFSAII (Michael W. Deem and Ramdas Pophale) SiO2 
 PCOD9534276
Probable space group: I M M A
;
_chemical_formula_sum "Si O2"
_cell_formula_units_Z 112
_cell_length_a 14.284938
_cell_length_b 27.013975
_cell_length_c 15.814446
_cell_angle_alpha 90.000000
_cell_angle_beta 90.000000
_cell_angle_gamma 90.000000
_cell_volume 6102.683346
_symmetry_space_group_name_H-M "I M M A"
_symmetry_group_IT_number 74
_symmetry_cell_setting 'orthorhombic'
loop_
_space_group_symop_operation_xyz
x,y,z
-x,1/2-y,z
x,-y,-z
-x,1/2+y,-z
-x,-y,-z
x,1/2+y,-z
-x,y,z
x,1/2-y,z
1/2+x,1/2+y,1/2+z
1/2-x,-y,1/2+z
1/2+x,1/2-y,1/2-z
1/2-x,y,1/2-z
1/2-x,1/2-y,1/2-z
1/2+x,y,1/2-z
1/2-x,1/2+y,1/2+z
1/2+x,-y,1/2+z
loop_
_atom_site_type_symbol
_atom_site_label
_atom_site_fract_x
_atom_site_fract_y
_atom_site_fract_z
Si Si1 0.611348 0.610420 0.553468
Si Si2 0.358052 0.143533 0.724926
Si Si3 0.689501 0.190597 0.550130
Si Si4 0.610997 0.029481 0.321424
Si Si5 0.737608 0.539665 0.437663
Si Si6 0.100006 0.190756 0.599811
Si Si7 0.894471 0.954143 0.310009
O O1 0.500000 0.605564 0.536592
O O2 0.644725 0.665709 0.532727
O O3 0.628706 0.585137 0.645356
O O4 0.674857 0.578442 0.488618
O O5 0.250000 0.142685 0.750000
O O6 0.363453 0.167859 0.632782
O O7 0.400227 0.174762 0.802006
O O8 0.392737 0.087293 0.735934
O O9 0.682151 0.250000 0.551842
O O10 0.800103 0.176454 0.559089
O O11 0.500000 0.021054 0.331144
O O12 0.667264 0.993885 0.383573
O O13 0.632619 0.007741 0.228610
O O14 0.785348 0.500000 0.500000
O O15 0.817180 0.561619 0.377593
O O16 0.099542 0.250000 0.595904
O O17 0.000000 0.172364 0.563010
O O18 0.000000 0.955707 0.343628
#
# Coordination Sequence:
#
# PCOD9534276 Si02
#       7
#    16  16  16  16  16  16  16
#     4  10  20  33  48  67  93 127 164 200 240 283
#     4  10  18  28  42  61  89 126 164 196 226 267
#     4  10  20  32  46  67  94 123 158 201 245 284
#     4   9  18  32  49  67  88 121 165 202 232 276
#     4  10  19  32  51  73  98 124 156 200 245 282
#     4   9  17  29  44  62  88 124 163 198 230 274
#     4  11  21  32  49  71  97 131 166 197 233 284
#
# _framework density 18.352582000000002
#
# number of rings (size 3 to 8) (size 9 to 14) (size 15 to 20)
#    0.000    2.143    0.000    5.143    0.000    6.286 
#    0.000    0.000    0.000    0.857    0.000    0.000 
#    0.000    9.143    0.000    2.000    0.000    6.714 
#
# Total GULP energy -311898.795788 kJ/mol
# GULP energy per Si atom -5569.621353 kJ/mol
# Density = 1.831081 g / cm^3
# Si number density = 18.352582 Si / 1000 Ang^3
#
#
#
# Elastic Constant Matrix: (Units=GPa)
#
#
# Indices 1 2 3 4 5 6 
#
# 1 82.7759 22.7024 20.4521 0.0000 0.0000 0.0000
# 2 22.7024 72.5366 24.1860 -0.0001 0.0000 0.0000
# 3 20.4521 24.1860 25.4676 -0.0001 0.0000 0.0000
# 4 0.0000 -0.0001 -0.0001 30.6961 0.0000 0.0000
# 5 0.0000 0.0000 0.0000 0.0000 14.4651 0.0000
# 6 0.0000 0.0000 0.0000 0.0000 0.0000 15.2636
#
#
#
# Elastic Compliance Matrix: (Units=1/GPa)
#
#
# Indices 1 2 3 4 5 6 
#
# 1 0.015121 -0.001000 -0.011193 0.000000 0.000000 0.000000
# 2 -0.001000 0.020241 -0.018419 0.000000 0.000000 0.000000
# 3 -0.011193 -0.018419 0.065746 0.000000 0.000000 0.000000
# 4 0.000000 0.000000 0.000000 0.032577 0.000000 0.000000
# 5 0.000000 0.000000 0.000000 0.000000 0.069132 0.000000
# 6 0.000000 0.000000 0.000000 0.000000 0.000000 0.065515
#
#
# Mechanical properties :
#
#
# Convention : Reuss Voigt Hill
#
# Bulk Modulus (GPa) = 25.07308 35.05124 30.06216
# Shear Modulus (GPa) = 14.58362 19.64759 17.11560
#
# Velocity S-wave (km/s) = 2.82199 3.27549 3.05716
# Velocity P-wave (km/s) = 4.93049 5.78320 5.37378
#
# Compressibility (1/GPa) = 0.03988341
#
# Stress axis : x y z
#
# Youngs Moduli (GPa) = 66.13452 49.40560 15.21007
#
# Poissons Ratio (x) = 0.04943 0.17024
# Poissons Ratio (y) = 0.06616 0.28015
# Poissons Ratio (z) = 0.74023 0.90999
#
# Static dielectric constant tensor:
#      x y z
#    x 1.677400 0.000000 0.000000 
#    y 0.000000 1.685070 0.000000 
#    z 0.000000 0.000000 1.659500 
# 
# From -- ./inp_files/32892.got.cif
#   From: 2010.05.17/outbox.cif.g08.bks.cpg/sg74_17_cif.got.tgz:32892.got - 2010.06.03 17:57:02.
