data_PCOD9534493
_publ_section_title
;
Structure prediction by ZEFSAII (Michael W. Deem and Ramdas Pophale) SiO2 
 PCOD9534493
Probable space group: I M M A
;
_chemical_formula_sum "Si O2"
_cell_formula_units_Z 72
_cell_length_a 8.677732
_cell_length_b 32.253709
_cell_length_c 18.864582
_cell_angle_alpha 90.000000
_cell_angle_beta 90.000000
_cell_angle_gamma 90.000000
_cell_volume 5279.989797
_symmetry_space_group_name_H-M "I M M A"
_symmetry_group_IT_number 74
_symmetry_cell_setting 'orthorhombic'
loop_
_space_group_symop_operation_xyz
x,y,z
-x,1/2-y,z
x,-y,-z
-x,1/2+y,-z
-x,-y,-z
x,1/2+y,-z
-x,y,z
x,1/2-y,z
1/2+x,1/2+y,1/2+z
1/2-x,-y,1/2+z
1/2+x,1/2-y,1/2-z
1/2-x,y,1/2-z
1/2-x,1/2-y,1/2-z
1/2+x,y,1/2-z
1/2-x,1/2+y,1/2+z
1/2+x,-y,1/2+z
loop_
_atom_site_type_symbol
_atom_site_label
_atom_site_fract_x
_atom_site_fract_y
_atom_site_fract_z
Si Si1 0.183917 0.663856 0.170146
Si Si2 0.822752 0.045628 0.036255
Si Si3 0.185936 0.499242 0.828097
Si Si4 0.684354 0.750000 0.169729
Si Si5 0.817664 0.583148 0.402731
O O1 0.250000 0.658647 0.250000
O O2 0.252260 0.706833 0.139447
O O3 0.236511 0.624502 0.124974
O O4 0.000000 0.666675 0.174229
O O5 0.771073 0.035542 0.116085
O O6 0.000000 0.060390 0.036172
O O7 0.722209 0.073884 0.984830
O O8 0.823345 0.000000 0.000000
O O9 0.250000 0.506485 0.750000
O O10 0.252965 0.456028 0.858204
O O11 0.000000 0.496320 0.828038
O O12 0.500000 0.750000 0.170857
O O13 0.750000 0.750000 0.250000
O O14 0.000000 0.586056 0.392218
#
# Coordination Sequence:
#
# PCOD9534493 Si02
#       5
#    16  16  16   8  16
#     4  11  20  31  44  59  80 106 136 168 203 239
#     4   8  16  30  43  56  77 104 131 163 203 242
#     4  10  19  30  43  59  80 105 135 169 204 241
#     4  10  18  30  44  60  80 102 131 164 201 240
#     4  11  20  29  42  60  80 104 136 171 204 238
#
# _framework density 13.636391
#
# number of rings (size 3 to 8) (size 9 to 14) (size 15 to 20)
#    0.000    2.000    0.000    9.000    0.000    4.889 
#    0.000    0.000    0.000    0.000    0.000    0.000 
#    0.000    0.000    0.000    1.000    0.000   13.556 
#
# Total GULP energy -200728.226640 kJ/mol
# GULP energy per Si atom -5575.784073 kJ/mol
# Density = 1.360535 g / cm^3
# Si number density = 13.636391 Si / 1000 Ang^3
#
#
#
# Elastic Constant Matrix: (Units=GPa)
#
#
# Indices 1 2 3 4 5 6 
#
# 1 113.0942 41.6906 34.2648 0.0000 0.0000 0.0000
# 2 41.6906 72.7278 37.0355 0.0000 0.0000 0.0000
# 3 34.2648 37.0355 89.5180 0.0000 0.0000 0.0000
# 4 0.0000 0.0000 0.0000 14.8643 0.0000 0.0000
# 5 0.0000 0.0000 0.0000 0.0000 19.8490 0.0000
# 6 0.0000 0.0000 0.0000 0.0000 0.0000 20.6266
#
#
#
# Elastic Compliance Matrix: (Units=1/GPa)
#
#
# Indices 1 2 3 4 5 6 
#
# 1 0.011522 -0.005522 -0.002125 0.000000 0.000000 0.000000
# 2 -0.005522 0.020067 -0.006188 0.000000 0.000000 0.000000
# 3 -0.002125 -0.006188 0.014545 0.000000 0.000000 0.000000
# 4 0.000000 0.000000 0.000000 0.067275 0.000000 0.000000
# 5 0.000000 0.000000 0.000000 0.000000 0.050380 0.000000
# 6 0.000000 0.000000 0.000000 0.000000 0.000000 0.048481
#
#
# Mechanical properties :
#
#
# Convention : Reuss Voigt Hill
#
# Bulk Modulus (GPa) = 54.16794 55.70242 54.93518
# Shear Modulus (GPa) = 20.31722 21.89125 21.10424
#
# Velocity S-wave (km/s) = 3.86414 4.01103 3.93827
# Velocity P-wave (km/s) = 7.72775 7.89862 7.81365
#
# Compressibility (1/GPa) = 0.01846111
#
# Stress axis : x y z
#
# Youngs Moduli (GPa) = 86.79091 49.83333 68.75344
#
# Poissons Ratio (x) = 0.27520 0.14613
# Poissons Ratio (y) = 0.47930 0.42546
# Poissons Ratio (z) = 0.18447 0.30838
#
# Static dielectric constant tensor:
#      x y z
#    x 1.458050 0.000000 0.000000 
#    y 0.000000 1.446480 0.000000 
#    z 0.000000 0.000000 1.457570 
# 
# From -- ./inp_files/39626.got.cif
#   From: 2010.05.17/outbox.cif.g08.bks.cpg/sg74_20_cif.got.tgz:39626.got - 2010.06.03 17:57:02.
