data_PCOD9534136
_publ_section_title
;
Structure prediction by ZEFSAII (Michael W. Deem and Ramdas Pophale) SiO2 
 PCOD9534136
Probable space group: I M M A
;
_chemical_formula_sum "Si O2"
_cell_formula_units_Z 80
_cell_length_a 16.625071
_cell_length_b 18.963375
_cell_length_c 14.789234
_cell_angle_alpha 90.000000
_cell_angle_beta 90.000000
_cell_angle_gamma 90.000000
_cell_volume 4662.564176
_symmetry_space_group_name_H-M "I M M A"
_symmetry_group_IT_number 74
_symmetry_cell_setting 'orthorhombic'
loop_
_space_group_symop_operation_xyz
x,y,z
-x,1/2-y,z
x,-y,-z
-x,1/2+y,-z
-x,-y,-z
x,1/2+y,-z
-x,y,z
x,1/2-y,z
1/2+x,1/2+y,1/2+z
1/2-x,-y,1/2+z
1/2+x,1/2-y,1/2-z
1/2-x,y,1/2-z
1/2-x,1/2-y,1/2-z
1/2+x,y,1/2-z
1/2-x,1/2+y,1/2+z
1/2+x,-y,1/2+z
loop_
_atom_site_type_symbol
_atom_site_label
_atom_site_fract_x
_atom_site_fract_y
_atom_site_fract_z
Si Si1 0.910126 0.085950 0.738875
Si Si2 0.318429 0.462125 0.593655
Si Si3 0.153061 0.525716 0.604626
Si Si4 0.292715 0.330047 0.878732
Si Si5 0.094975 0.828210 0.553439
O O1 0.888028 0.051175 0.834618
O O2 0.839757 0.140363 0.709240
O O3 0.000000 0.116093 0.738141
O O4 0.902084 0.024265 0.664726
O O5 0.342264 0.500000 0.500000
O O6 0.245449 0.510614 0.631381
O O7 0.273940 0.385747 0.586727
O O8 0.146423 0.500000 0.500000
O O9 0.129105 0.606690 0.609719
O O10 0.263834 0.250000 0.866795
O O11 0.360272 0.329932 0.957203
O O12 0.108321 0.750000 0.592694
O O13 0.000000 0.838147 0.540237
#
# Coordination Sequence:
#
# PCOD9534136 Si02
#       5
#    16  16  16  16  16
#     4  11  22  32  51  78 104 137 174 215 261 308
#     4  10  20  37  52  71 100 141 184 217 248 303
#     4  10  17  32  52  73 102 132 163 207 259 322
#     4  10  19  33  53  78 109 137 165 211 271 329
#     4  10  18  27  46  77 108 131 152 193 259 323
#
# _framework density 17.157941000000001
#
# number of rings (size 3 to 8) (size 9 to 14) (size 15 to 20)
#    0.000    1.800    6.000    3.600    0.000    4.000 
#    0.000    0.000    0.000    3.600    0.000    0.000 
#    0.000    0.000    0.000    0.000    0.000    0.000 
#
# Total GULP energy -222914.212959 kJ/mol
# GULP energy per Si atom -5572.855324 kJ/mol
# Density = 1.711889 g / cm^3
# Si number density = 17.157941 Si / 1000 Ang^3
#
#
#
# Elastic Constant Matrix: (Units=GPa)
#
#
# Indices 1 2 3 4 5 6 
#
# 1 36.0801 10.2641 10.4182 0.0000 0.0000 0.0000
# 2 10.2641 118.6091 25.1008 0.0000 0.0000 0.0000
# 3 10.4182 25.1008 54.6196 0.0000 0.0000 0.0000
# 4 0.0000 0.0000 0.0000 18.4820 0.0000 0.0000
# 5 0.0000 0.0000 0.0000 0.0000 -5.5543 0.0000
# 6 0.0000 0.0000 0.0000 0.0000 0.0000 3.4402
#
#
#
# Elastic Compliance Matrix: (Units=1/GPa)
#
#
# Indices 1 2 3 4 5 6 
#
# 1 0.029575 -0.001513 -0.004946 0.000000 0.000000 0.000000
# 2 -0.001513 0.009417 -0.004039 0.000000 0.000000 0.000000
# 3 -0.004946 -0.004039 0.021108 0.000000 0.000000 0.000000
# 4 0.000000 0.000000 0.000000 0.054107 0.000000 0.000000
# 5 0.000000 0.000000 0.000000 0.000000 -0.180041 0.000000
# 6 0.000000 0.000000 0.000000 0.000000 0.000000 0.290680
#
#
# Mechanical properties :
#
#
# Convention : Reuss Voigt Hill
#
# Bulk Modulus (GPa) = 25.57273 33.43055 29.50164
# Shear Modulus (GPa) = 19.31433 14.17530 16.74481
#
# Velocity S-wave (km/s) = 3.35875 2.87743 3.12736
# Velocity P-wave (km/s) = 5.47524 5.52863 5.50200
#
# Compressibility (1/GPa) = 0.03910416
#
# Stress axis : x y z
#
# Youngs Moduli (GPa) = 33.81282 106.19428 47.37547
#
# Poissons Ratio (x) = 0.16063 0.23432
# Poissons Ratio (y) = 0.05115 0.19135
# Poissons Ratio (z) = 0.16724 0.42892
#
# Static dielectric constant tensor:
#      x y z
#    x 1.594230 0.000000 0.000000 
#    y 0.000000 1.603910 0.000000 
#    z 0.000000 0.000000 1.595010 
# 
# From -- ./inp_files/35558.got.cif
#   From: 2010.05.17/outbox.cif.g08.bks.cpg/sg74_18_cif.got.tgz:35558.got - 2010.06.03 17:57:02.
