data_PCOD9534693
_publ_section_title
;
Structure prediction by ZEFSAII (Michael W. Deem and Ramdas Pophale) SiO2 
 PCOD9534693
Probable space group: I M M A
;
_chemical_formula_sum "Si O2"
_cell_formula_units_Z 112
_cell_length_a 29.258023
_cell_length_b 14.059289
_cell_length_c 15.011709
_cell_angle_alpha 90.000000
_cell_angle_beta 90.000000
_cell_angle_gamma 90.000000
_cell_volume 6175.021476
_symmetry_space_group_name_H-M "I M M A"
_symmetry_group_IT_number 74
_symmetry_cell_setting 'orthorhombic'
loop_
_space_group_symop_operation_xyz
x,y,z
-x,1/2-y,z
x,-y,-z
-x,1/2+y,-z
-x,-y,-z
x,1/2+y,-z
-x,y,z
x,1/2-y,z
1/2+x,1/2+y,1/2+z
1/2-x,-y,1/2+z
1/2+x,1/2-y,1/2-z
1/2-x,y,1/2-z
1/2-x,1/2-y,1/2-z
1/2+x,y,1/2-z
1/2-x,1/2+y,1/2+z
1/2+x,-y,1/2+z
loop_
_atom_site_type_symbol
_atom_site_label
_atom_site_fract_x
_atom_site_fract_y
_atom_site_fract_z
Si Si1 0.412694 0.502771 0.147698
Si Si2 0.690782 0.863264 0.553189
Si Si3 0.888970 0.861409 0.509481
Si Si4 0.173495 0.532107 0.763191
Si Si5 0.350922 0.138408 0.633955
Si Si6 0.709526 0.861231 0.898252
Si Si7 0.450025 0.639708 0.286809
O O1 0.391147 0.583597 0.083602
O O2 0.375792 0.460469 0.216087
O O3 0.447559 0.562365 0.207753
O O4 0.422353 0.416989 0.078750
O O5 0.684673 0.750000 0.560954
O O6 0.675427 0.909376 0.645652
O O7 0.664202 0.893158 0.464469
O O8 0.745120 0.882142 0.545681
O O9 0.899273 0.750000 0.502273
O O10 0.837409 0.872556 0.547314
O O11 0.176649 0.422932 0.793653
O O12 0.207304 0.572347 0.688521
O O13 0.341292 0.250000 0.642837
O O14 0.405076 0.124259 0.652662
O O15 0.711768 0.750000 0.869892
O O16 0.500000 0.631575 0.330940
O O17 0.446308 0.750000 0.254176
#
# Coordination Sequence:
#
# PCOD9534693 Si02
#       7
#    16  16  16  16  16  16  16
#     4   9  18  31  49  75 104 131 172 211 255 308
#     4  10  19  33  51  72 100 135 174 223 262 297
#     4   9  17  32  50  70 102 144 177 208 251 307
#     4  10  18  31  48  74  96 131 169 216 257 304
#     4   9  19  34  51  74 104 136 170 210 262 313
#     4   9  18  32  50  72  97 132 181 218 251 297
#     4   9  17  32  57  82 104 133 168 208 257 316
#
# _framework density 18.137588000000001
#
# number of rings (size 3 to 8) (size 9 to 14) (size 15 to 20)
#    0.000    2.714    0.000    1.714    0.000    2.286 
#   12.857    1.429    0.000    9.857    0.000    0.000 
#    0.000    0.000    0.000    0.000    0.000    0.000 
#
# Total GULP energy -311784.884520 kJ/mol
# GULP energy per Si atom -5567.587224 kJ/mol
# Density = 1.809631 g / cm^3
# Si number density = 18.137588 Si / 1000 Ang^3
#
#
#
# Elastic Constant Matrix: (Units=GPa)
#
#
# Indices 1 2 3 4 5 6 
#
# 1 68.5682 35.3368 36.4227 0.0000 0.0000 0.0000
# 2 35.3368 76.2318 24.6762 0.0000 0.0000 0.0000
# 3 36.4227 24.6762 62.7097 0.0000 0.0000 0.0000
# 4 0.0000 0.0000 0.0000 30.9971 0.0000 0.0000
# 5 0.0000 0.0000 0.0000 0.0000 17.7132 0.0000
# 6 0.0000 0.0000 0.0000 0.0000 0.0000 15.3604
#
#
#
# Elastic Compliance Matrix: (Units=1/GPa)
#
#
# Indices 1 2 3 4 5 6 
#
# 1 0.024521 -0.007743 -0.011196 0.000000 0.000000 0.000000
# 2 -0.007743 0.017477 -0.002380 0.000000 0.000000 0.000000
# 3 -0.011196 -0.002380 0.023386 0.000000 0.000000 0.000000
# 4 0.000000 0.000000 0.000000 0.032261 0.000000 0.000000
# 5 0.000000 0.000000 0.000000 0.000000 0.056455 0.000000
# 6 0.000000 0.000000 0.000000 0.000000 0.000000 0.065102
#
#
# Mechanical properties :
#
#
# Convention : Reuss Voigt Hill
#
# Bulk Modulus (GPa) = 43.96125 44.48679 44.22402
# Shear Modulus (GPa) = 18.55821 20.21907 19.38864
#
# Velocity S-wave (km/s) = 3.20221 3.34243 3.27307
# Velocity P-wave (km/s) = 6.16137 6.28302 6.22249
#
# Compressibility (1/GPa) = 0.02274731
#
# Stress axis : x y z
#
# Youngs Moduli (GPa) = 40.78103 57.21655 42.76119
#
# Poissons Ratio (x) = 0.44301 0.47874
# Poissons Ratio (y) = 0.31575 0.10178
# Poissons Ratio (z) = 0.45657 0.13619
#
# Static dielectric constant tensor:
#      x y z
#    x 1.631730 0.000000 0.000000 
#    y 0.000000 1.655630 0.000000 
#    z 0.000000 0.000000 1.613160 
# 
# From -- ./inp_files/27221.got.cif
#   From: 2010.05.17/outbox.cif.g08.bks.cpg/sg74_14_cif.got.tgz:27221.got - 2010.06.03 17:57:02.
