data_PCOD9534604
_publ_section_title
;
Structure prediction by ZEFSAII (Michael W. Deem and Ramdas Pophale) SiO2 
 PCOD9534604
Probable space group: I M M A
;
_chemical_formula_sum "Si O2"
_cell_formula_units_Z 104
_cell_length_a 21.469326
_cell_length_b 10.144221
_cell_length_c 27.450773
_cell_angle_alpha 90.000000
_cell_angle_beta 90.000000
_cell_angle_gamma 90.000000
_cell_volume 5978.492533
_symmetry_space_group_name_H-M "I M M A"
_symmetry_group_IT_number 74
_symmetry_cell_setting 'orthorhombic'
loop_
_space_group_symop_operation_xyz
x,y,z
-x,1/2-y,z
x,-y,-z
-x,1/2+y,-z
-x,-y,-z
x,1/2+y,-z
-x,y,z
x,1/2-y,z
1/2+x,1/2+y,1/2+z
1/2-x,-y,1/2+z
1/2+x,1/2-y,1/2-z
1/2-x,y,1/2-z
1/2-x,1/2-y,1/2-z
1/2+x,y,1/2-z
1/2-x,1/2+y,1/2+z
1/2+x,-y,1/2+z
loop_
_atom_site_type_symbol
_atom_site_label
_atom_site_fract_x
_atom_site_fract_y
_atom_site_fract_z
Si Si1 0.425484 0.604449 0.378671
Si Si2 0.758307 0.401501 0.457952
Si Si3 0.202614 0.407258 0.350692
Si Si4 0.110960 0.393283 0.766676
Si Si5 0.250000 0.528228 0.250000
Si Si6 0.391026 0.400742 0.458542
Si Si7 0.569367 0.593452 0.812347
O O1 0.500000 0.605448 0.378597
O O2 0.404499 0.750000 0.398072
O O3 0.402128 0.593586 0.323617
O O4 0.403920 0.479231 0.409101
O O5 0.781784 0.500000 0.500000
O O6 0.782035 0.250000 0.462711
O O7 0.772336 0.453045 0.403185
O O8 0.683639 0.393774 0.463640
O O9 0.208524 0.250000 0.351580
O O10 0.237488 0.452500 0.301283
O O11 0.129308 0.441275 0.345094
O O12 0.086848 0.250000 0.750561
O O13 0.185040 0.397859 0.757906
O O14 0.079408 0.509582 0.736472
O O15 0.416093 0.500000 0.500000
O O16 0.414867 0.250000 0.460396
O O17 0.500000 0.567820 0.832272
O O18 0.573688 0.750000 0.802179
#
# Coordination Sequence:
#
# PCOD9534604 Si02
#       7
#    16  16  16  16   8  16  16
#     4  10  21  35  49  66  92 128 165 198 236 283
#     4   9  18  33  52  75 100 128 162 200 246 297
#     4   9  17  30  50  75 103 132 163 204 252 296
#     4  10  20  33  49  71 101 133 162 197 243 292
#     4  10  18  30  50  78 105 130 165 204 249 302
#     4  10  20  34  52  72  93 119 155 200 247 292
#     4   9  18  32  50  72  97 128 166 202 237 285
#
# _framework density 17.395689000000001
#
# number of rings (size 3 to 8) (size 9 to 14) (size 15 to 20)
#    0.000    2.462    0.000    2.308    0.000    3.385 
#    0.000    3.846    0.000    0.462    0.000    0.000 
#    0.000    0.000    0.000    0.000    0.000    0.000 
#
# Total GULP energy -289539.934198 kJ/mol
# GULP energy per Si atom -5568.075658 kJ/mol
# Density = 1.735610 g / cm^3
# Si number density = 17.395689 Si / 1000 Ang^3
#
#
#
# Elastic Constant Matrix: (Units=GPa)
#
#
# Indices 1 2 3 4 5 6 
#
# 1 41.4236 17.6244 6.0342 0.0000 0.0000 0.0000
# 2 17.6244 88.5031 50.7826 0.0000 0.0000 0.0000
# 3 6.0342 50.7826 93.0023 0.0000 0.0000 0.0000
# 4 0.0000 0.0000 0.0000 32.6175 0.0000 0.0000
# 5 0.0000 0.0000 0.0000 0.0000 2.6755 0.0000
# 6 0.0000 0.0000 0.0000 0.0000 0.0000 9.2559
#
#
#
# Elastic Compliance Matrix: (Units=1/GPa)
#
#
# Indices 1 2 3 4 5 6 
#
# 1 0.026558 -0.006262 0.001696 0.000000 0.000000 0.000000
# 2 -0.006262 0.017931 -0.009385 0.000000 0.000000 0.000000
# 3 0.001696 -0.009385 0.015767 0.000000 0.000000 0.000000
# 4 0.000000 0.000000 0.000000 0.030658 0.000000 0.000000
# 5 0.000000 0.000000 0.000000 0.000000 0.373762 0.000000
# 6 0.000000 0.000000 0.000000 0.000000 0.000000 0.108039
#
#
# Mechanical properties :
#
#
# Convention : Reuss Voigt Hill
#
# Bulk Modulus (GPa) = 30.90744 41.31238 36.10991
# Shear Modulus (GPa) = 8.17795 18.80898 13.49346
#
# Velocity S-wave (km/s) = 2.17056 3.29179 2.78812
# Velocity P-wave (km/s) = 4.90792 6.18450 5.58282
#
# Compressibility (1/GPa) = 0.03235467
#
# Stress axis : x y z
#
# Youngs Moduli (GPa) = 37.65346 55.76972 63.42477
#
# Poissons Ratio (x) = 0.34923 -0.10757
# Poissons Ratio (y) = 0.23578 0.59522
# Poissons Ratio (z) = -0.06386 0.52338
#
# Static dielectric constant tensor:
#      x y z
#    x 1.599440 0.000000 0.000000 
#    y 0.000000 1.639300 0.000000 
#    z 0.000000 0.000000 1.586360 
# 
# From -- ./inp_files/68235.got.cif
#   From: 2010.05.17/outbox.cif.g08.bks.cpg/sg74_35_cif.got.tgz:68235.got - 2010.06.03 17:57:02.
