data_PCOD9534964
_publ_section_title
;
Structure prediction by ZEFSAII (Michael W. Deem and Ramdas Pophale) SiO2 
 PCOD9534964
Probable space group: I M M A
;
_chemical_formula_sum "Si O2"
_cell_formula_units_Z 88
_cell_length_a 18.746106
_cell_length_b 8.485885
_cell_length_c 30.613450
_cell_angle_alpha 90.000000
_cell_angle_beta 90.000000
_cell_angle_gamma 90.000000
_cell_volume 4869.904961
_symmetry_space_group_name_H-M "I M M A"
_symmetry_group_IT_number 74
_symmetry_cell_setting 'orthorhombic'
loop_
_space_group_symop_operation_xyz
x,y,z
-x,1/2-y,z
x,-y,-z
-x,1/2+y,-z
-x,-y,-z
x,1/2+y,-z
-x,y,z
x,1/2-y,z
1/2+x,1/2+y,1/2+z
1/2-x,-y,1/2+z
1/2+x,1/2-y,1/2-z
1/2-x,y,1/2-z
1/2-x,1/2-y,1/2-z
1/2+x,y,1/2-z
1/2-x,1/2+y,1/2+z
1/2+x,-y,1/2+z
loop_
_atom_site_type_symbol
_atom_site_label
_atom_site_fract_x
_atom_site_fract_y
_atom_site_fract_z
Si Si1 0.000000 0.437919 0.550072
Si Si2 0.774106 0.440597 0.115692
Si Si3 0.583926 0.064406 0.746018
Si Si4 0.348967 0.560751 0.950445
Si Si5 0.418412 0.440335 0.646292
Si Si6 0.710004 0.937863 0.792899
O O1 0.000000 0.500000 0.500000
O O2 0.924627 0.499199 0.568586
O O3 0.000000 0.250000 0.550024
O O4 0.775602 0.250000 0.115650
O O5 0.719711 0.489857 0.077650
O O6 0.855437 0.499807 0.115338
O O7 0.740214 0.498494 0.161558
O O8 0.500000 0.048058 0.752811
O O9 0.601590 0.250000 0.747429
O O10 0.598126 0.006155 0.696298
O O11 0.628581 0.976402 0.782579
O O12 0.352159 0.750000 0.950913
O O13 0.342591 0.500000 0.000000
O O14 0.500000 0.489553 0.635827
O O15 0.418062 0.250000 0.646868
O O16 0.720086 0.750000 0.793695
O O17 0.750000 0.002869 0.750000
#
# Coordination Sequence:
#
# PCOD9534964 Si02
#       6
#     8  16  16  16  16  16
#     4  10  18  32  56  82 106 134 172 208 252 304
#     4  10  21  35  52  77 104 134 169 211 257 303
#     4   9  18  32  48  68  97 133 172 210 248 290
#     4  10  20  36  57  79 106 135 170 212 258 303
#     4   9  18  32  51  75 102 134 172 212 252 299
#     4  10  19  32  49  71 101 133 169 206 246 298
#
# _framework density 18.070169
#
# number of rings (size 3 to 8) (size 9 to 14) (size 15 to 20)
#    0.000    2.364    1.818    3.545    0.000    3.273 
#    1.636    1.818    0.000    0.545    0.000    0.000 
#    0.000    0.000    0.000    0.000    0.000    0.000 
#
# Total GULP energy -245249.460952 kJ/mol
# GULP energy per Si atom -5573.851385 kJ/mol
# Density = 1.802904 g / cm^3
# Si number density = 18.070169 Si / 1000 Ang^3
#
#
#
# Elastic Constant Matrix: (Units=GPa)
#
#
# Indices 1 2 3 4 5 6 
#
# 1 139.4365 24.7202 59.3306 0.0000 0.0000 0.0000
# 2 24.7202 21.7211 17.4951 0.0000 0.0000 0.0000
# 3 59.3306 17.4951 63.4423 0.0000 0.0000 0.0000
# 4 0.0000 0.0000 0.0000 16.8189 0.0000 0.0000
# 5 0.0000 0.0000 0.0000 0.0000 31.6125 0.0000
# 6 0.0000 0.0000 0.0000 0.0000 0.0000 32.9075
#
#
#
# Elastic Compliance Matrix: (Units=1/GPa)
#
#
# Indices 1 2 3 4 5 6 
#
# 1 0.012529 -0.006198 -0.010008 0.000000 0.000000 0.000000
# 2 -0.006198 0.062250 -0.011370 0.000000 0.000000 0.000000
# 3 -0.010008 -0.011370 0.028257 0.000000 0.000000 0.000000
# 4 0.000000 0.000000 0.000000 0.059457 0.000000 0.000000
# 5 0.000000 0.000000 0.000000 0.000000 0.031633 0.000000
# 6 0.000000 0.000000 0.000000 0.000000 0.000000 0.030388
#
#
# Mechanical properties :
#
#
# Convention : Reuss Voigt Hill
#
# Bulk Modulus (GPa) = 20.88363 47.52131 34.20247
# Shear Modulus (GPa) = 16.91323 24.47138 20.69230
#
# Velocity S-wave (km/s) = 3.06269 3.68399 3.38762
# Velocity P-wave (km/s) = 4.90804 6.66716 5.85405
#
# Compressibility (1/GPa) = 0.04788440
#
# Stress axis : x y z
#
# Youngs Moduli (GPa) = 79.81574 16.06424 35.38973
#
# Poissons Ratio (x) = 0.09957 0.35417
# Poissons Ratio (y) = 0.49472 0.40237
# Poissons Ratio (z) = 0.79877 0.18265
#
# Static dielectric constant tensor:
#      x y z
#    x 1.667720 0.000000 0.000000 
#    y 0.000000 1.628340 0.000000 
#    z 0.000000 0.000000 1.576480 
# 
# From -- ./inp_files/73284.got.cif
#   From: 2010.05.17/outbox.cif.g08.bks.cpg/sg74_37_cif.got.tgz:73284.got - 2010.06.03 17:57:02.
