data_PCOD9534770
_publ_section_title
;
Structure prediction by ZEFSAII (Michael W. Deem and Ramdas Pophale) SiO2 
 PCOD9534770
Probable space group: I M M A
;
_chemical_formula_sum "Si O2"
_cell_formula_units_Z 64
_cell_length_a 17.290337
_cell_length_b 8.809454
_cell_length_c 20.834022
_cell_angle_alpha 90.000000
_cell_angle_beta 90.000000
_cell_angle_gamma 90.000000
_cell_volume 3173.405489
_symmetry_space_group_name_H-M "I M M A"
_symmetry_group_IT_number 74
_symmetry_cell_setting 'orthorhombic'
loop_
_space_group_symop_operation_xyz
x,y,z
-x,1/2-y,z
x,-y,-z
-x,1/2+y,-z
-x,-y,-z
x,1/2+y,-z
-x,y,z
x,1/2-y,z
1/2+x,1/2+y,1/2+z
1/2-x,-y,1/2+z
1/2+x,1/2-y,1/2-z
1/2-x,y,1/2-z
1/2-x,1/2-y,1/2-z
1/2+x,y,1/2-z
1/2-x,1/2+y,1/2+z
1/2+x,-y,1/2+z
loop_
_atom_site_type_symbol
_atom_site_label
_atom_site_fract_x
_atom_site_fract_y
_atom_site_fract_z
Si Si1 0.911667 0.069918 0.833516
Si Si2 0.383137 0.427935 0.933989
Si Si3 0.878238 0.574843 0.697531
Si Si4 0.762189 0.424982 0.113415
O O1 0.899047 0.250000 0.839115
O O2 0.000000 0.035104 0.851799
O O3 0.899853 0.020505 0.759484
O O4 0.848015 0.981318 0.874700
O O5 0.397462 0.250000 0.932134
O O6 0.412312 0.508626 0.868972
O O7 0.290870 0.465391 0.929462
O O8 0.411595 0.500000 0.000000
O O9 0.900209 0.750000 0.706981
O O10 0.786504 0.570248 0.680420
O O11 0.758248 0.250000 0.091114
#
# Coordination Sequence:
#
# PCOD9534770 Si02
#       4
#    16  16  16  16
#     4  11  22  33  48  74 105 136 168 203 248 300
#     4  10  18  31  52  77 102 128 162 208 250 290
#     4   9  19  33  51  75 100 130 168 207 247 295
#     4   9  19  33  51  75 100 130 168 207 247 295
#
# _framework density 20.167608999999999
#
# number of rings (size 3 to 8) (size 9 to 14) (size 15 to 20)
#    1.500    0.750    0.000    4.500    0.000    5.000 
#    0.000    0.000    0.000    1.500    0.000    0.000 
#    0.000    0.000    0.000    0.000    0.000    0.000 
#
# Total GULP energy -178338.738257 kJ/mol
# GULP energy per Si atom -5573.085571 kJ/mol
# Density = 2.012171 g / cm^3
# Si number density = 20.167609 Si / 1000 Ang^3
#
#
#
# Elastic Constant Matrix: (Units=GPa)
#
#
# Indices 1 2 3 4 5 6 
#
# 1 107.0013 28.7322 -5.4182 0.0000 0.0000 0.0000
# 2 28.7322 79.9190 -11.2019 0.0000 0.0000 0.0000
# 3 -5.4182 -11.2019 30.3758 0.0000 0.0000 0.0000
# 4 0.0000 0.0000 0.0000 28.6483 0.0000 0.0000
# 5 0.0000 0.0000 0.0000 0.0000 221.8537 0.0000
# 6 0.0000 0.0000 0.0000 0.0000 0.0000 3.6284
#
#
#
# Elastic Compliance Matrix: (Units=1/GPa)
#
#
# Indices 1 2 3 4 5 6 
#
# 1 0.010351 -0.003651 0.000500 0.000000 0.000000 0.000000
# 2 -0.003651 0.014483 0.004690 0.000000 0.000000 0.000000
# 3 0.000500 0.004690 0.034739 0.000000 0.000000 0.000000
# 4 0.000000 0.000000 0.000000 0.034906 0.000000 0.000000
# 5 0.000000 0.000000 0.000000 0.000000 0.004507 0.000000
# 6 0.000000 0.000000 0.000000 0.000000 0.000000 0.275607
#
#
# Mechanical properties :
#
#
# Convention : Reuss Voigt Hill
#
# Bulk Modulus (GPa) = 15.96178 26.83559 21.39868
# Shear Modulus (GPa) = 12.74204 64.50502 38.62353
#
# Velocity S-wave (km/s) = 2.51630 5.66162 4.38096
# Velocity P-wave (km/s) = 4.04650 7.48824 6.01863
#
# Compressibility (1/GPa) = 0.06264964
#
# Stress axis : x y z
#
# Youngs Moduli (GPa) = 96.60450 69.04769 28.78569
#
# Poissons Ratio (x) = 0.25213 -0.01439
# Poissons Ratio (y) = 0.35275 -0.13499
# Poissons Ratio (z) = -0.04829 -0.32380
#
# Static dielectric constant tensor:
#      x y z
#    x 1.779560 0.000000 0.000000 
#    y 0.000000 1.661420 0.000000 
#    z 0.000000 0.000000 1.704530 
# 
# From -- ./inp_files/48014.got.cif
#   From: 2010.05.17/outbox.cif.g08.bks.cpg/sg74_25_cif.got.tgz:48014.got - 2010.06.03 17:57:02.
