data_PCOD9534641
_publ_section_title
;
Structure prediction by ZEFSAII (Michael W. Deem and Ramdas Pophale) SiO2 
 PCOD9534641
Probable space group: I M M A
;
_chemical_formula_sum "Si O2"
_cell_formula_units_Z 104
_cell_length_a 8.570580
_cell_length_b 27.965578
_cell_length_c 23.300055
_cell_angle_alpha 90.000000
_cell_angle_beta 90.000000
_cell_angle_gamma 90.000000
_cell_volume 5584.585690
_symmetry_space_group_name_H-M "I M M A"
_symmetry_group_IT_number 74
_symmetry_cell_setting 'orthorhombic'
loop_
_space_group_symop_operation_xyz
x,y,z
-x,1/2-y,z
x,-y,-z
-x,1/2+y,-z
-x,-y,-z
x,1/2+y,-z
-x,y,z
x,1/2-y,z
1/2+x,1/2+y,1/2+z
1/2-x,-y,1/2+z
1/2+x,1/2-y,1/2-z
1/2-x,y,1/2-z
1/2-x,1/2-y,1/2-z
1/2+x,y,1/2-z
1/2-x,1/2+y,1/2+z
1/2+x,-y,1/2+z
loop_
_atom_site_type_symbol
_atom_site_label
_atom_site_fract_x
_atom_site_fract_y
_atom_site_fract_z
Si Si1 0.813014 0.343080 0.381657
Si Si2 0.190499 0.194397 0.506188
Si Si3 0.179837 0.942618 0.861248
Si Si4 0.810845 0.250000 0.313903
Si Si5 0.312915 0.954323 0.313962
Si Si6 0.684412 0.117560 0.908150
Si Si7 0.326893 0.553756 0.979525
O O1 0.762488 0.334800 0.448419
O O2 0.761932 0.391890 0.350534
O O3 0.755976 0.297122 0.347056
O O4 0.000000 0.341420 0.382047
O O5 0.237575 0.250000 0.502145
O O6 0.241059 0.168211 0.565284
O O7 0.000000 0.193434 0.506575
O O8 0.200743 0.944996 0.929908
O O9 0.000000 0.939112 0.844339
O O10 0.243397 0.992925 0.836196
O O11 0.750000 0.250000 0.250000
O O12 0.000000 0.250000 0.314310
O O13 0.500000 0.955904 0.313719
O O14 0.250000 0.946792 0.250000
O O15 0.261833 0.911358 0.356218
O O16 0.500000 0.121674 0.894919
O O17 0.702056 0.084496 0.964374
O O18 0.500000 0.567683 0.956078
O O19 0.336590 0.500000 0.000000
#
# Coordination Sequence:
#
# PCOD9534641 Si02
#       7
#    16  16  16   8  16  16  16
#     4  10  19  35  58  82 109 150 195 235 278 332
#     4   9  16  30  56  88 116 141 181 230 278 334
#     4  11  23  35  52  82 116 147 181 232 287 327
#     4  10  22  38  58  78 106 150 199 244 283 330
#     4  11  25  42  58  78 110 151 192 234 280 336
#     4  10  19  33  58  87 113 145 184 228 278 335
#     4  10  18  30  52  81 110 144 183 219 263 328
#
# _framework density 18.622689000000001
#
# number of rings (size 3 to 8) (size 9 to 14) (size 15 to 20)
#    0.000    1.846    3.846    0.923    0.000    4.000 
#    0.000    3.077    0.000    1.846    0.000    0.000 
#    0.000    0.000    0.000    0.000    0.000    0.000 
#
# Total GULP energy -289756.921641 kJ/mol
# GULP energy per Si atom -5572.248493 kJ/mol
# Density = 1.858030 g / cm^3
# Si number density = 18.622689 Si / 1000 Ang^3
#
#
#
# Elastic Constant Matrix: (Units=GPa)
#
#
# Indices 1 2 3 4 5 6 
#
# 1 17.1906 15.5435 25.0389 0.0000 0.0000 0.0000
# 2 15.5435 105.3869 53.2731 0.0000 0.0000 0.0000
# 3 25.0389 53.2731 95.4529 0.0000 0.0000 -0.0001
# 4 0.0000 0.0000 0.0000 18.7307 0.0000 0.0000
# 5 0.0000 0.0000 0.0000 0.0000 24.0974 0.0000
# 6 0.0000 0.0000 -0.0001 0.0000 0.0000 118.7788
#
#
#
# Elastic Compliance Matrix: (Units=1/GPa)
#
#
# Indices 1 2 3 4 5 6 
#
# 1 0.094429 -0.001958 -0.023677 0.000000 0.000000 0.000000
# 2 -0.001958 0.013259 -0.006886 0.000000 0.000000 0.000000
# 3 -0.023677 -0.006886 0.020530 0.000000 0.000000 0.000000
# 4 0.000000 0.000000 0.000000 0.053388 0.000000 0.000000
# 5 0.000000 0.000000 0.000000 0.000000 0.041498 0.000000
# 6 0.000000 0.000000 0.000000 0.000000 0.000000 0.008419
#
#
# Mechanical properties :
#
#
# Convention : Reuss Voigt Hill
#
# Bulk Modulus (GPa) = 15.82917 45.08237 30.45577
# Shear Modulus (GPa) = 15.74184 40.59970 28.17077
#
# Velocity S-wave (km/s) = 2.91057 4.67424 3.89358
# Velocity P-wave (km/s) = 4.45125 7.30700 6.05003
#
# Compressibility (1/GPa) = 0.06317450
#
# Stress axis : x y z
#
# Youngs Moduli (GPa) = 10.58999 75.42293 48.70825
#
# Poissons Ratio (x) = 0.14771 1.15327
# Poissons Ratio (y) = 0.02074 0.33540
# Poissons Ratio (z) = 0.25074 0.51936
#
# Static dielectric constant tensor:
#      x y z
#    x 1.671050 0.000000 0.000000 
#    y 0.000000 1.704450 0.000000 
#    z 0.000000 0.000000 1.627800 
# 
# From -- ./inp_files/57593.got.cif
#   From: 2010.05.17/outbox.cif.g08.bks.cpg/sg74_29_cif.got.tgz:57593.got - 2010.06.03 17:57:02.
