data_PCOD9534805
_publ_section_title
;
Structure prediction by ZEFSAII (Michael W. Deem and Ramdas Pophale) SiO2 
 PCOD9534805
Probable space group: I M M A
;
_chemical_formula_sum "Si O2"
_cell_formula_units_Z 80
_cell_length_a 8.349568
_cell_length_b 16.013095
_cell_length_c 29.984800
_cell_angle_alpha 90.000000
_cell_angle_beta 90.000000
_cell_angle_gamma 90.000000
_cell_volume 4009.040491
_symmetry_space_group_name_H-M "I M M A"
_symmetry_group_IT_number 74
_symmetry_cell_setting 'orthorhombic'
loop_
_space_group_symop_operation_xyz
x,y,z
-x,1/2-y,z
x,-y,-z
-x,1/2+y,-z
-x,-y,-z
x,1/2+y,-z
-x,y,z
x,1/2-y,z
1/2+x,1/2+y,1/2+z
1/2-x,-y,1/2+z
1/2+x,1/2-y,1/2-z
1/2-x,y,1/2-z
1/2-x,1/2-y,1/2-z
1/2+x,y,1/2-z
1/2-x,1/2+y,1/2+z
1/2+x,-y,1/2+z
loop_
_atom_site_type_symbol
_atom_site_label
_atom_site_fract_x
_atom_site_fract_y
_atom_site_fract_z
Si Si1 0.810939 0.397383 0.044060
Si Si2 0.189893 0.085511 0.549830
Si Si3 0.304390 0.158163 0.359230
Si Si4 0.308582 0.498240 0.300526
Si Si5 0.693240 0.342653 0.855249
O O1 0.779025 0.496401 0.050566
O O2 0.753493 0.354364 0.089431
O O3 0.000000 0.382820 0.039486
O O4 0.728715 0.373020 0.997662
O O5 0.236675 0.137463 0.593369
O O6 0.000000 0.068927 0.551867
O O7 0.500000 0.155431 0.359494
O O8 0.255887 0.250000 0.343099
O O9 0.247947 0.081274 0.329080
O O10 0.500000 0.495134 0.300775
O O11 0.250000 0.494713 0.250000
O O12 0.255797 0.583402 0.324393
O O13 0.500000 0.343261 0.852900
O O14 0.749854 0.250000 0.842620
#
# Coordination Sequence:
#
# PCOD9534805 Si02
#       5
#    16  16  16  16  16
#     4  10  18  31  54  82 114 153 195 230 271 330
#     4  10  19  32  53  81 116 153 189 232 281 328
#     4   9  19  36  58  85 117 151 188 232 281 333
#     4  11  23  41  64  87 113 147 187 237 291 344
#     4  10  22  40  61  85 116 153 192 235 285 341
#
# _framework density 19.954899999999999
#
# number of rings (size 3 to 8) (size 9 to 14) (size 15 to 20)
#    0.000    2.000    2.000    3.000    0.000    2.800 
#    0.000    0.000    0.000    8.400    0.000    0.000 
#    0.000    0.000    0.000    0.000    0.000    0.000 
#
# Total GULP energy -223373.832284 kJ/mol
# GULP energy per Si atom -5584.345807 kJ/mol
# Density = 1.990948 g / cm^3
# Si number density = 19.954900 Si / 1000 Ang^3
#
#
#
# Elastic Constant Matrix: (Units=GPa)
#
#
# Indices 1 2 3 4 5 6 
#
# 1 12.2710 5.3202 10.2983 0.0000 0.0000 0.0000
# 2 5.3202 143.3011 78.8081 0.0000 0.0000 0.0000
# 3 10.2983 78.8081 144.1544 0.0000 0.0000 0.0000
# 4 0.0000 0.0000 0.0000 -5.5163 0.0000 0.0000
# 5 0.0000 0.0000 0.0000 0.0000 25.8592 0.0000
# 6 0.0000 0.0000 0.0000 0.0000 0.0000 11.1011
#
#
#
# Elastic Compliance Matrix: (Units=1/GPa)
#
#
# Indices 1 2 3 4 5 6 
#
# 1 0.086697 0.000268 -0.006340 0.000000 0.000000 0.000000
# 2 0.000268 0.009979 -0.005475 0.000000 0.000000 0.000000
# 3 -0.006340 -0.005475 0.010383 0.000000 0.000000 0.000000
# 4 0.000000 0.000000 0.000000 -0.181280 0.000000 0.000000
# 5 0.000000 0.000000 0.000000 0.000000 0.038671 0.000000
# 6 0.000000 0.000000 0.000000 0.000000 0.000000 0.090081
#
#
# Mechanical properties :
#
#
# Convention : Reuss Voigt Hill
#
# Bulk Modulus (GPa) = 11.90961 54.28664 33.09812
# Shear Modulus (GPa) = 47.34226 19.97546 33.65886
#
# Velocity S-wave (km/s) = 4.87608 3.16734 4.11146
# Velocity P-wave (km/s) = 6.13863 6.37493 6.25790
#
# Compressibility (1/GPa) = 0.08396583
#
# Stress axis : x y z
#
# Youngs Moduli (GPa) = 11.53437 100.20902 96.31217
#
# Poissons Ratio (x) = -0.02686 0.61064
# Poissons Ratio (y) = -0.00309 0.52728
# Poissons Ratio (z) = 0.07313 0.54861
#
# Static dielectric constant tensor:
#      x y z
#    x 1.694370 0.000000 0.000000 
#    y 0.000000 1.711740 0.000000 
#    z 0.000000 0.000000 1.694340 
# 
# From -- ./inp_files/63973.got.cif
#   From: 2010.05.17/outbox.cif.g08.bks.cpg/sg74_32_cif.got.tgz:63973.got - 2010.06.03 17:57:02.
