data_PCOD9534646
_publ_section_title
;
Structure prediction by ZEFSAII (Michael W. Deem and Ramdas Pophale) SiO2 
 PCOD9534646
Probable space group: I M M A
;
_chemical_formula_sum "Si O2"
_cell_formula_units_Z 88
_cell_length_a 25.563985
_cell_length_b 9.446321
_cell_length_c 20.472615
_cell_angle_alpha 90.000000
_cell_angle_beta 90.000000
_cell_angle_gamma 90.000000
_cell_volume 4943.841888
_symmetry_space_group_name_H-M "I M M A"
_symmetry_group_IT_number 74
_symmetry_cell_setting 'orthorhombic'
loop_
_space_group_symop_operation_xyz
x,y,z
-x,1/2-y,z
x,-y,-z
-x,1/2+y,-z
-x,-y,-z
x,1/2+y,-z
-x,y,z
x,1/2-y,z
1/2+x,1/2+y,1/2+z
1/2-x,-y,1/2+z
1/2+x,1/2-y,1/2-z
1/2-x,y,1/2-z
1/2-x,1/2-y,1/2-z
1/2+x,y,1/2-z
1/2-x,1/2+y,1/2+z
1/2+x,-y,1/2+z
loop_
_atom_site_type_symbol
_atom_site_label
_atom_site_fract_x
_atom_site_fract_y
_atom_site_fract_z
Si Si1 0.379454 0.419548 0.566291
Si Si2 0.718579 0.593408 0.608812
Si Si3 0.859200 0.413072 0.693243
Si Si4 0.837232 0.084506 0.435259
Si Si5 0.250000 0.500679 0.750000
Si Si6 0.559217 0.921873 0.303705
O O1 0.393501 0.500000 0.500000
O O2 0.379776 0.250000 0.558423
O O3 0.322034 0.474053 0.587672
O O4 0.417872 0.459889 0.625628
O O5 0.697332 0.750000 0.593007
O O6 0.774164 0.576135 0.573355
O O7 0.730650 0.584718 0.686157
O O8 0.870785 0.250000 0.676113
O O9 0.859508 0.510258 0.629454
O O10 0.801073 0.417867 0.724775
O O11 0.900522 0.465249 0.747195
O O12 0.851031 0.250000 0.438780
O O13 0.852553 0.000000 0.500000
O O14 0.500000 0.972092 0.294132
O O15 0.558727 0.750000 0.301984
#
# Coordination Sequence:
#
# PCOD9534646 Si02
#       6
#    16  16  16  16   8  16
#     4  11  22  36  54  79 107 144 186 231 275 319
#     4  10  20  33  51  77 111 148 181 221 270 322
#     4  10  19  33  56  83 109 142 179 223 271 324
#     4  10  21  35  52  79 113 149 181 218 267 325
#     4  10  18  30  52  84 110 140 178 224 270 328
#     4   9  19  37  58  80 107 142 185 228 272 322
#
# _framework density 17.799921999999999
#
# number of rings (size 3 to 8) (size 9 to 14) (size 15 to 20)
#    0.000    2.000    1.818    2.182    0.000    6.182 
#    0.000    0.000    0.000    4.909    0.000    0.000 
#    0.000    0.000    0.000    0.000    0.000    0.000 
#
# Total GULP energy -245475.480992 kJ/mol
# GULP energy per Si atom -5578.988204 kJ/mol
# Density = 1.775941 g / cm^3
# Si number density = 17.799922 Si / 1000 Ang^3
#
#
#
# Elastic Constant Matrix: (Units=GPa)
#
#
# Indices 1 2 3 4 5 6 
#
# 1 90.0433 35.9422 59.8532 0.0000 0.0000 0.0000
# 2 35.9422 94.4272 68.7787 0.0000 0.0000 0.0000
# 3 59.8532 68.7787 163.8608 0.0000 0.0000 0.0000
# 4 0.0000 0.0000 0.0000 23.0445 0.0000 0.0000
# 5 0.0000 0.0000 0.0000 0.0000 13.7440 0.0000
# 6 0.0000 0.0000 0.0000 0.0000 0.0000 -115.3656
#
#
#
# Elastic Compliance Matrix: (Units=1/GPa)
#
#
# Indices 1 2 3 4 5 6 
#
# 1 0.015061 -0.002486 -0.004458 0.000000 0.000000 0.000000
# 2 -0.002486 0.015664 -0.005667 0.000000 0.000000 0.000000
# 3 -0.004458 -0.005667 0.010110 0.000000 0.000000 0.000000
# 4 0.000000 0.000000 0.000000 0.043394 0.000000 0.000000
# 5 0.000000 0.000000 0.000000 0.000000 0.072759 0.000000
# 6 0.000000 0.000000 0.000000 0.000000 0.000000 -0.008668
#
#
# Mechanical properties :
#
#
# Convention : Reuss Voigt Hill
#
# Bulk Modulus (GPa) = 64.04593 75.27549 69.66071
# Shear Modulus (GPa) = 27.97271 -3.46493 12.25389
#
# Velocity S-wave (km/s) = 3.96853 -1.39672 2.62663
# Velocity P-wave (km/s) = 7.55368 6.30718 6.95840
#
# Compressibility (1/GPa) = 0.01561380
#
# Stress axis : x y z
#
# Youngs Moduli (GPa) = 66.39517 63.84117 98.91474
#
# Poissons Ratio (x) = 0.15869 0.44097
# Poissons Ratio (y) = 0.16504 0.56053
# Poissons Ratio (z) = 0.29600 0.36177
#
# Static dielectric constant tensor:
#      x y z
#    x 1.588440 0.000000 0.000000 
#    y 0.000000 1.607470 0.000000 
#    z 0.000000 0.000000 1.607040 
# 
# From -- ./inp_files/54542.got.cif
#   From: 2010.05.17/outbox.cif.g08.bks.cpg/sg74_28_cif.got.tgz:54542.got - 2010.06.03 17:57:02.
