data_PCOD9534092
_publ_section_title
;
Structure prediction by ZEFSAII (Michael W. Deem and Ramdas Pophale) SiO2 
 PCOD9534092
Probable space group: I M M A
;
_chemical_formula_sum "Si O2"
_cell_formula_units_Z 80
_cell_length_a 16.979508
_cell_length_b 14.113492
_cell_length_c 12.240049
_cell_angle_alpha 90.000000
_cell_angle_beta 90.000000
_cell_angle_gamma 90.000000
_cell_volume 2933.207182
_symmetry_space_group_name_H-M "I M M A"
_symmetry_group_IT_number 74
_symmetry_cell_setting 'orthorhombic'
loop_
_space_group_symop_operation_xyz
x,y,z
-x,1/2-y,z
x,-y,-z
-x,1/2+y,-z
-x,-y,-z
x,1/2+y,-z
-x,y,z
x,1/2-y,z
1/2+x,1/2+y,1/2+z
1/2-x,-y,1/2+z
1/2+x,1/2-y,1/2-z
1/2-x,y,1/2-z
1/2-x,1/2-y,1/2-z
1/2+x,y,1/2-z
1/2-x,1/2+y,1/2+z
1/2+x,-y,1/2+z
loop_
_atom_site_type_symbol
_atom_site_label
_atom_site_fract_x
_atom_site_fract_y
_atom_site_fract_z
Si Si1 0.256752 0.134682 0.977581
Si Si2 0.586680 0.134918 0.553710
Si Si3 0.861143 0.639651 0.293732
Si Si4 0.000000 0.144932 0.282514
Si Si5 0.500000 0.108989 0.965691
Si Si6 0.668056 0.365621 0.194763
O O1 0.258320 0.250000 0.976826
O O2 0.167365 0.107615 0.006923
O O3 0.284775 0.101489 0.858508
O O4 0.318092 0.105038 0.069836
O O5 0.500000 0.103491 0.516887
O O6 0.584357 0.250000 0.550213
O O7 0.603816 0.105429 0.679258
O O8 0.844026 0.750000 0.271318
O O9 0.927231 0.633905 0.387545
O O10 0.084663 0.098812 0.259697
O O11 0.000000 0.250000 0.230522
O O12 0.000000 0.155719 0.414805
O O13 0.500000 0.000000 0.000000
O O14 0.662522 0.250000 0.199553
O O15 0.750000 0.390914 0.250000
#
# Coordination Sequence:
#
# PCOD9534092 Si02
#       6
#    16  16  16   8   8  16
#     4   9  16  26  44  71 101 128 163 207 246 293
#     4   9  16  25  41  70 105 135 163 196 241 299
#     4  10  17  30  50  70  97 135 168 200 250 305
#     4  10  18  34  56  73  94 131 166 199 256 306
#     4  12  22  30  48  77 102 126 166 215 254 287
#     4   9  17  29  47  73 100 127 166 213 253 294
#
# _framework density 27.273899
#
# number of rings (size 3 to 8) (size 9 to 14) (size 15 to 20)
#    0.000    2.400    3.000    1.500    0.000    2.400 
#    1.800    0.000    0.000    2.400    0.000    0.000 
#    0.000    2.400    0.000    0.000    0.000    0.000 
#
# Total GULP energy -223707.278022 kJ/mol
# GULP energy per Si atom -5592.681951 kJ/mol
# Density = 2.721182 g / cm^3
# Si number density = 27.273899 Si / 1000 Ang^3
#
#
#
# Elastic Constant Matrix: (Units=GPa)
#
#
# Indices 1 2 3 4 5 6 
#
# 1 251.6466 -6.7355 25.5067 0.0000 0.0000 0.0000
# 2 -6.7355 132.7155 2.3850 0.0000 0.0000 0.0000
# 3 25.5067 2.3850 49.5858 0.0000 0.0000 0.0000
# 4 0.0000 0.0000 0.0000 -6.3341 0.0000 0.0000
# 5 0.0000 0.0000 0.0000 0.0000 45.7392 0.0000
# 6 0.0000 0.0000 0.0000 0.0000 0.0000 -48.0304
#
#
#
# Elastic Compliance Matrix: (Units=1/GPa)
#
#
# Indices 1 2 3 4 5 6 
#
# 1 0.004201 0.000252 -0.002173 0.000000 0.000000 0.000000
# 2 0.000252 0.007557 -0.000493 0.000000 0.000000 0.000000
# 3 -0.002173 -0.000493 0.021309 0.000000 0.000000 0.000000
# 4 0.000000 0.000000 0.000000 -0.157875 0.000000 0.000000
# 5 0.000000 0.000000 0.000000 0.000000 0.021863 0.000000
# 6 0.000000 0.000000 0.000000 0.000000 0.000000 -0.020820
#
#
# Mechanical properties :
#
#
# Convention : Reuss Voigt Hill
#
# Bulk Modulus (GPa) = 35.41325 52.91782 44.16554
# Shear Modulus (GPa) = -45.65132 25.79439 -9.92847
#
# Velocity S-wave (km/s) = -4.09566 3.07865 -1.91002
# Velocity P-wave (km/s) = 3.05834 5.66409 3.37109
#
# Compressibility (1/GPa) = 0.02823802
#
# Stress axis : x y z
#
# Youngs Moduli (GPa) = 238.04792 132.33499 46.92941
#
# Poissons Ratio (x) = -0.03338 0.10198
# Poissons Ratio (y) = -0.06005 0.02315
# Poissons Ratio (z) = 0.51728 0.06527
#
# Static dielectric constant tensor:
#      x y z
#    x 2.173490 0.000000 0.000000 
#    y 0.000000 2.089670 0.000000 
#    z 0.000000 0.000000 2.100000 
# 
# From -- ./inp_files/22115.got.cif
#   From: 2010.05.17/outbox.cif.g08.bks.cpg/sg74_12_cif.got.tgz:22115.got - 2010.06.03 17:57:02.
