data_PCOD9534200
_publ_section_title
;
Structure prediction by ZEFSAII (Michael W. Deem and Ramdas Pophale) SiO2 
 PCOD9534200
Probable space group: I M M A
;
_chemical_formula_sum "Si O2"
_cell_formula_units_Z 88
_cell_length_a 10.088632
_cell_length_b 13.129874
_cell_length_c 25.610329
_cell_angle_alpha 90.000000
_cell_angle_beta 90.000000
_cell_angle_gamma 90.000000
_cell_volume 3392.407360
_symmetry_space_group_name_H-M "I M M A"
_symmetry_group_IT_number 74
_symmetry_cell_setting 'orthorhombic'
loop_
_space_group_symop_operation_xyz
x,y,z
-x,1/2-y,z
x,-y,-z
-x,1/2+y,-z
-x,-y,-z
x,1/2+y,-z
-x,y,z
x,1/2-y,z
1/2+x,1/2+y,1/2+z
1/2-x,-y,1/2+z
1/2+x,1/2-y,1/2-z
1/2-x,y,1/2-z
1/2-x,1/2-y,1/2-z
1/2+x,y,1/2-z
1/2-x,1/2+y,1/2+z
1/2+x,-y,1/2+z
loop_
_atom_site_type_symbol
_atom_site_label
_atom_site_fract_x
_atom_site_fract_y
_atom_site_fract_z
Si Si1 0.210465 0.134637 0.528977
Si Si2 0.000000 0.074428 0.952334
Si Si3 0.000000 0.076507 0.842774
Si Si4 0.500000 0.625456 0.229403
Si Si5 0.840667 0.368877 0.412817
Si Si6 0.299492 0.132223 0.858876
Si Si7 0.157478 0.126041 0.298262
O O1 0.157124 0.250000 0.524838
O O2 0.366655 0.137529 0.541118
O O3 0.194799 0.090479 0.470660
O O4 0.158085 0.089064 0.584137
O O5 0.000000 0.013303 0.897168
O O6 0.000000 0.000000 0.000000
O O7 0.000000 0.059269 0.781514
O O8 0.857616 0.130027 0.849674
O O9 0.500000 0.750000 0.241315
O O10 0.624684 0.598805 0.192944
O O11 0.795266 0.250000 0.413796
O O12 0.793393 0.410517 0.356100
O O13 0.000000 0.368680 0.409616
O O14 0.338589 0.250000 0.863173
O O15 0.166921 0.250000 0.300231
O O16 0.250000 0.093810 0.250000
O O17 0.000000 0.106260 0.292566
#
# Coordination Sequence:
#
# PCOD9534200 Si02
#       7
#    16   8   8   8  16  16  16
#     4   9  17  30  49  74 103 132 167 210 256 303
#     4  10  21  36  51  68  95 133 176 216 258 300
#     4  10  18  30  45  63  92 136 171 209 247 293
#     4  10  18  26  42  75 113 141 170 203 247 311
#     4   8  14  24  41  65  95 127 155 192 248 305
#     4   9  17  26  41  68 105 141 167 199 246 301
#     4   8  13  22  34  53  85 122 154 190 242 304
#
# _framework density 25.940280000000001
#
# number of rings (size 3 to 8) (size 9 to 14) (size 15 to 20)
#    0.000    3.091    0.000    2.727    1.273    4.364 
#    1.636    0.000    0.000    0.545    0.000    5.091 
#    0.000    0.000    0.000    0.000    0.000    0.000 
#
# Total GULP energy -245555.820376 kJ/mol
# GULP energy per Si atom -5580.814099 kJ/mol
# Density = 2.588124 g / cm^3
# Si number density = 25.940280 Si / 1000 Ang^3
#
#
#
# Elastic Constant Matrix: (Units=GPa)
#
#
# Indices 1 2 3 4 5 6 
#
# 1 123.1775 6.0361 65.4317 0.0000 0.0000 0.0000
# 2 6.0361 62.8359 57.7785 0.0000 0.0000 0.0000
# 3 65.4317 57.7785 362.0117 0.0000 0.0000 0.0000
# 4 0.0000 0.0000 0.0000 40.6328 0.0000 0.0000
# 5 0.0000 0.0000 0.0000 0.0000 42.7906 0.0000
# 6 0.0000 0.0000 0.0000 0.0000 0.0000 4.9189
#
#
#
# Elastic Compliance Matrix: (Units=1/GPa)
#
#
# Indices 1 2 3 4 5 6 
#
# 1 0.009010 0.000741 -0.001747 0.000000 0.000000 0.000000
# 2 0.000741 0.018713 -0.003120 0.000000 0.000000 0.000000
# 3 -0.001747 -0.003120 0.003576 0.000000 0.000000 0.000000
# 4 0.000000 0.000000 0.000000 0.024611 0.000000 0.000000
# 5 0.000000 0.000000 0.000000 0.000000 0.023370 0.000000
# 6 0.000000 0.000000 0.000000 0.000000 0.000000 0.203297
#
#
# Mechanical properties :
#
#
# Convention : Reuss Voigt Hill
#
# Bulk Modulus (GPa) = 43.39237 89.61307 66.50272
# Shear Modulus (GPa) = 16.74979 45.58704 31.16841
#
# Velocity S-wave (km/s) = 2.54383 4.19666 3.47009
# Velocity P-wave (km/s) = 5.03907 7.62257 6.46126
#
# Compressibility (1/GPa) = 0.02304552
#
# Stress axis : x y z
#
# Youngs Moduli (GPa) = 110.98880 53.43985 279.63516
#
# Poissons Ratio (x) = -0.03958 0.48844
# Poissons Ratio (y) = -0.08220 0.87259
# Poissons Ratio (z) = 0.19386 0.16676
#
# Static dielectric constant tensor:
#      x y z
#    x 1.953200 0.000000 0.000000 
#    y 0.000000 2.161670 0.000000 
#    z 0.000000 0.000000 2.095120 
# 
# From -- ./inp_files/41326.got.cif
#   From: 2010.05.17/outbox.cif.g08.bks.cpg/sg74_21_cif.got.tgz:41326.got - 2010.06.03 17:57:02.
