data_PCOD9534607
_publ_section_title
;
Structure prediction by ZEFSAII (Michael W. Deem and Ramdas Pophale) SiO2 
 PCOD9534607
Probable space group: I M M A
;
_chemical_formula_sum "Si O2"
_cell_formula_units_Z 88
_cell_length_a 10.411518
_cell_length_b 17.786493
_cell_length_c 24.281160
_cell_angle_alpha 90.000000
_cell_angle_beta 90.000000
_cell_angle_gamma 90.000000
_cell_volume 4496.491852
_symmetry_space_group_name_H-M "I M M A"
_symmetry_group_IT_number 74
_symmetry_cell_setting 'orthorhombic'
loop_
_space_group_symop_operation_xyz
x,y,z
-x,1/2-y,z
x,-y,-z
-x,1/2+y,-z
-x,-y,-z
x,1/2+y,-z
-x,y,z
x,1/2-y,z
1/2+x,1/2+y,1/2+z
1/2-x,-y,1/2+z
1/2+x,1/2-y,1/2-z
1/2-x,y,1/2-z
1/2-x,1/2-y,1/2-z
1/2+x,y,1/2-z
1/2-x,1/2+y,1/2+z
1/2+x,-y,1/2+z
loop_
_atom_site_type_symbol
_atom_site_label
_atom_site_fract_x
_atom_site_fract_y
_atom_site_fract_z
Si Si1 0.500000 0.668144 0.173237
Si Si2 0.500000 0.998748 0.208351
Si Si3 0.000000 0.125276 0.899198
Si Si4 0.789125 0.165637 0.459514
Si Si5 0.000000 0.664882 0.986986
Si Si6 0.780168 0.633086 0.412790
Si Si7 0.500000 0.971239 0.664789
Si Si8 0.219236 0.038397 0.377550
O O1 0.500000 0.750000 0.201093
O O2 0.500000 0.592792 0.209751
O O3 0.620096 0.661508 0.131935
O O4 0.500000 0.030113 0.269539
O O5 0.375515 0.024950 0.173833
O O6 0.860960 0.162760 0.896335
O O7 0.000000 0.057235 0.856889
O O8 0.000000 0.103285 0.964526
O O9 0.829339 0.250000 0.444229
O O10 0.633416 0.160151 0.455914
O O11 0.815777 0.154031 0.524623
O O12 0.835782 0.100748 0.419123
O O13 0.000000 0.750000 0.011603
O O14 0.774355 0.542338 0.408189
O O15 0.363400 0.941111 0.642540
#
# Coordination Sequence:
#
# PCOD9534607 Si02
#       8
#     8   8   8  16   8  16   8  16
#     4  10  20  35  53  76 107 141 171 201 250 312
#     4  10  22  38  56  75 100 134 176 225 263 294
#     4   8  16  30  51  76  98 126 170 212 245 294
#     4  10  18  30  50  78 111 140 168 206 256 310
#     4   8  15  27  45  74 112 142 159 193 252 311
#     4   9  18  32  52  78 107 139 168 200 248 311
#     4  10  19  36  59  75  93 131 180 223 261 297
#     4  10  20  34  55  79 103 134 176 217 253 306
#
# _framework density 19.570813000000001
#
# number of rings (size 3 to 8) (size 9 to 14) (size 15 to 20)
#    0.000    2.545    0.000    2.182    0.000    1.455 
#    0.000   10.000    0.000   18.545    0.000    0.000 
#    0.000    0.000    0.000    0.000    0.000    0.000 
#
# Total GULP energy -245198.540698 kJ/mol
# GULP energy per Si atom -5572.694107 kJ/mol
# Density = 1.952627 g / cm^3
# Si number density = 19.570813 Si / 1000 Ang^3
#
#
#
# Elastic Constant Matrix: (Units=GPa)
#
#
# Indices 1 2 3 4 5 6 
#
# 1 83.9405 4.2734 4.2354 0.0000 0.0000 0.0000
# 2 4.2734 69.0373 29.1202 0.0000 0.0000 0.0000
# 3 4.2354 29.1202 58.3267 0.0000 0.0000 0.0000
# 4 0.0000 0.0000 0.0000 7.5426 0.0000 0.0000
# 5 0.0000 0.0000 0.0000 0.0000 28.0761 0.0000
# 6 0.0000 0.0000 0.0000 0.0000 0.0000 8.5835
#
#
#
# Elastic Compliance Matrix: (Units=1/GPa)
#
#
# Indices 1 2 3 4 5 6 
#
# 1 0.011969 -0.000474 -0.000632 0.000000 0.000000 0.000000
# 2 -0.000474 0.018368 -0.009136 0.000000 0.000000 0.000000
# 3 -0.000632 -0.009136 0.021752 0.000000 0.000000 0.000000
# 4 0.000000 0.000000 0.000000 0.132580 0.000000 0.000000
# 5 0.000000 0.000000 0.000000 0.000000 0.035617 0.000000
# 6 0.000000 0.000000 0.000000 0.000000 0.000000 0.116502
#
#
# Mechanical properties :
#
#
# Convention : Reuss Voigt Hill
#
# Bulk Modulus (GPa) = 31.64149 31.84028 31.74088
# Shear Modulus (GPa) = 13.59404 20.41882 17.00643
#
# Velocity S-wave (km/s) = 2.63840 3.23357 2.95103
# Velocity P-wave (km/s) = 5.04820 5.49962 5.27874
#
# Compressibility (1/GPa) = 0.03160408
#
# Stress axis : x y z
#
# Youngs Moduli (GPa) = 83.54747 54.44309 45.97295
#
# Poissons Ratio (x) = 0.02581 0.02908
# Poissons Ratio (y) = 0.03961 0.42000
# Poissons Ratio (z) = 0.05284 0.49739
#
# Static dielectric constant tensor:
#      x y z
#    x 1.760740 0.000000 0.000000 
#    y 0.000000 1.706260 0.000000 
#    z 0.000000 0.000000 1.637560 
# 
# From -- ./inp_files/50574.got.cif
#   From: 2010.05.17/outbox.cif.g08.bks.cpg/sg74_26_cif.got.tgz:50574.got - 2010.06.03 17:57:02.
