data_PCOD9534907
_publ_section_title
;
Structure prediction by ZEFSAII (Michael W. Deem and Ramdas Pophale) SiO2 
 PCOD9534907
Probable space group: I M M A
;
_chemical_formula_sum "Si O2"
_cell_formula_units_Z 96
_cell_length_a 14.605789
_cell_length_b 28.503420
_cell_length_c 10.670421
_cell_angle_alpha 90.000000
_cell_angle_beta 90.000000
_cell_angle_gamma 90.000000
_cell_volume 4442.255660
_symmetry_space_group_name_H-M "I M M A"
_symmetry_group_IT_number 74
_symmetry_cell_setting 'orthorhombic'
loop_
_space_group_symop_operation_xyz
x,y,z
-x,1/2-y,z
x,-y,-z
-x,1/2+y,-z
-x,-y,-z
x,1/2+y,-z
-x,y,z
x,1/2-y,z
1/2+x,1/2+y,1/2+z
1/2-x,-y,1/2+z
1/2+x,1/2-y,1/2-z
1/2-x,y,1/2-z
1/2-x,1/2-y,1/2-z
1/2+x,y,1/2-z
1/2-x,1/2+y,1/2+z
1/2+x,-y,1/2+z
loop_
_atom_site_type_symbol
_atom_site_label
_atom_site_fract_x
_atom_site_fract_y
_atom_site_fract_z
Si Si1 0.653512 0.250000 0.087099
Si Si2 0.388573 0.503711 0.354059
Si Si3 0.888002 0.909076 0.717269
Si Si4 0.603504 0.852383 0.545634
Si Si5 0.889576 0.851624 0.477429
Si Si6 0.630889 0.250000 0.370605
Si Si7 0.112079 0.891837 0.213933
O O1 0.632389 0.201847 0.014940
O O2 0.605613 0.250000 0.223664
O O3 0.760411 0.250000 0.116012
O O4 0.358119 0.500000 0.500000
O O5 0.500000 0.502383 0.358418
O O6 0.360513 0.460549 0.265165
O O7 0.362227 0.553705 0.296928
O O8 0.856178 0.874307 0.828255
O O9 0.856690 0.887770 0.585167
O O10 0.000000 0.908724 0.710941
O O11 0.500000 0.872093 0.542297
O O12 0.599216 0.797170 0.563595
O O13 0.644722 0.866881 0.413486
O O14 0.856398 0.867145 0.340768
O O15 0.000000 0.854597 0.476231
O O16 0.000000 0.889657 0.216251
#
# Coordination Sequence:
#
# PCOD9534907 Si02
#       7
#     8  16  16  16  16   8  16
#     4  11  23  38  53  74 102 134 173 220 270 309
#     4   9  14  24  44  74 110 139 165 206 253 296
#     4   9  16  26  47  75 103 136 169 202 249 304
#     4  10  18  32  53  79 104 131 171 213 252 302
#     4  10  20  34  52  76 106 139 172 211 261 311
#     4  11  23  36  55  78  96 130 179 222 262 309
#     4   9  18  30  48  77 111 139 166 207 257 305
#
# _framework density 21.610644000000001
#
# number of rings (size 3 to 8) (size 9 to 14) (size 15 to 20)
#    0.000    2.333    3.333    0.500    0.000    2.000 
#    0.000    7.500    0.000    0.000    0.000    7.000 
#    0.000    0.000    0.000    0.000    0.000    0.000 
#
# Total GULP energy -268052.977668 kJ/mol
# GULP energy per Si atom -5584.437035 kJ/mol
# Density = 2.156146 g / cm^3
# Si number density = 21.610644 Si / 1000 Ang^3
#
#
#
# Elastic Constant Matrix: (Units=GPa)
#
#
# Indices 1 2 3 4 5 6 
#
# 1 50.6426 -31.5059 -9.6931 -0.0004 -0.0001 -0.0002
# 2 -31.5059 158.8271 83.1097 -0.0008 -0.0001 -0.0002
# 3 -9.6931 83.1097 173.7137 -0.0009 -0.0003 0.0005
# 4 -0.0004 -0.0008 -0.0009 26.0333 0.0001 0.0002
# 5 -0.0001 -0.0001 -0.0003 0.0001 0.3847 0.0000
# 6 -0.0002 -0.0002 0.0005 0.0002 0.0000 -30.8244
#
#
#
# Elastic Compliance Matrix: (Units=1/GPa)
#
#
# Indices 1 2 3 4 5 6 
#
# 1 0.022707 0.005124 -0.001185 0.000000 0.000007 0.000000
# 2 0.005124 0.009555 -0.004286 0.000000 0.000000 0.000000
# 3 -0.001185 -0.004286 0.007741 0.000000 0.000004 0.000000
# 4 0.000000 0.000000 0.000000 0.038412 -0.000011 0.000000
# 5 0.000007 0.000000 0.000004 -0.000011 2.599523 -0.000003
# 6 0.000000 0.000000 0.000000 0.000000 -0.000003 -0.032442
#
#
# Mechanical properties :
#
#
# Convention : Reuss Voigt Hill
#
# Bulk Modulus (GPa) = 25.43777 51.88944 38.66360
# Shear Modulus (GPa) = 1.88020 21.87022 11.87521
#
# Velocity S-wave (km/s) = 0.93377 3.18466 2.34670
# Velocity P-wave (km/s) = 3.59987 6.13074 5.02718
#
# Compressibility (1/GPa) = 0.03931163
#
# Stress axis : x y z
#
# Youngs Moduli (GPa) = 44.03855 104.65614 129.18533
#
# Poissons Ratio (x) = -0.53628 0.15302
# Poissons Ratio (y) = -0.22566 0.55363
# Poissons Ratio (z) = 0.05216 0.44851
#
# Static dielectric constant tensor:
#      x y z
#    x 1.852600 0.000000 0.000000 
#    y 0.000000 1.744340 0.000000 
#    z 0.000000 0.000000 1.766890 
# 
# From -- ./inp_files/22716.got.cif
#   From: 2010.05.17/outbox.cif.g08.bks.cpg/sg74_12_cif.got.tgz:22716.got - 2010.06.03 17:57:02.
