data_PCOD9534367
_publ_section_title
;
Structure prediction by ZEFSAII (Michael W. Deem and Ramdas Pophale) SiO2 
 PCOD9534367
Probable space group: I M M A
;
_chemical_formula_sum "Si O2"
_cell_formula_units_Z 104
_cell_length_a 33.398593
_cell_length_b 7.352562
_cell_length_c 20.283525
_cell_angle_alpha 90.000000
_cell_angle_beta 90.000000
_cell_angle_gamma 90.000000
_cell_volume 4980.928396
_symmetry_space_group_name_H-M "I M M A"
_symmetry_group_IT_number 74
_symmetry_cell_setting 'orthorhombic'
loop_
_space_group_symop_operation_xyz
x,y,z
-x,1/2-y,z
x,-y,-z
-x,1/2+y,-z
-x,-y,-z
x,1/2+y,-z
-x,y,z
x,1/2-y,z
1/2+x,1/2+y,1/2+z
1/2-x,-y,1/2+z
1/2+x,1/2-y,1/2-z
1/2-x,y,1/2-z
1/2-x,1/2-y,1/2-z
1/2+x,y,1/2-z
1/2-x,1/2+y,1/2+z
1/2+x,-y,1/2+z
loop_
_atom_site_type_symbol
_atom_site_label
_atom_site_fract_x
_atom_site_fract_y
_atom_site_fract_z
Si Si1 0.545581 0.532929 0.574409
Si Si2 0.690506 0.970956 0.705917
Si Si3 0.500000 0.032768 0.078443
Si Si4 0.400871 0.027654 0.304390
Si Si5 0.078029 0.027650 0.341832
Si Si6 0.845892 0.533442 0.575616
Si Si7 0.771938 0.529192 0.652250
O O1 0.560284 0.500000 0.500000
O O2 0.500000 0.461978 0.579069
O O3 0.543396 0.750000 0.582480
O O4 0.574003 0.465318 0.632546
O O5 0.689476 0.750000 0.704229
O O6 0.645421 0.032440 0.693662
O O7 0.725982 0.032261 0.656999
O O8 0.705968 0.018570 0.779088
O O9 0.500000 0.250000 0.086027
O O10 0.460214 0.966305 0.115956
O O11 0.500000 0.000000 0.000000
O O12 0.400393 0.250000 0.304843
O O13 0.420629 0.973993 0.234711
O O14 0.077897 0.250000 0.342839
O O15 0.118826 0.965832 0.377228
O O16 0.855638 0.500000 0.500000
O O17 0.844861 0.750000 0.585682
O O18 0.801853 0.464982 0.595493
O O19 0.770045 0.750000 0.650028
#
# Coordination Sequence:
#
# PCOD9534367 Si02
#       7
#    16  16   8  16  16  16  16
#     4   9  18  31  48  69  92 118 145 176 219 271
#     4   8  12  21  39  63  88 109 136 181 226 257
#     4  10  20  32  46  64  91 124 152 184 227 268
#     4   9  15  25  44  70  92 111 145 191 227 256
#     4   9  17  28  44  67  91 115 149 192 228 255
#     4  10  18  29  44  64  91 121 151 184 221 261
#     4   8  13  22  38  61  87 112 140 178 222 258
#
# _framework density 20.879640999999999
#
# number of rings (size 3 to 8) (size 9 to 14) (size 15 to 20)
#    0.000    3.077    1.538    1.385    1.077    0.000 
#    0.000    0.769    0.000    1.846    0.000    2.154 
#    0.000    0.000    0.000    0.000    0.000    0.000 
#
# Total GULP energy -290096.335670 kJ/mol
# GULP energy per Si atom -5578.775686 kJ/mol
# Density = 2.083212 g / cm^3
# Si number density = 20.879641 Si / 1000 Ang^3
#
#
#
# Elastic Constant Matrix: (Units=GPa)
#
#
# Indices 1 2 3 4 5 6 
#
# 1 152.8045 5.4638 101.7606 0.0000 0.0000 0.0000
# 2 5.4638 76.4028 -2.1443 0.0000 0.0000 0.0000
# 3 101.7606 -2.1443 164.3120 0.0000 0.0000 0.0000
# 4 0.0000 0.0000 0.0000 6.4812 0.0000 0.0000
# 5 0.0000 0.0000 0.0000 0.0000 26.3636 0.0000
# 6 0.0000 0.0000 0.0000 0.0000 0.0000 -13.1955
#
#
#
# Elastic Compliance Matrix: (Units=1/GPa)
#
#
# Indices 1 2 3 4 5 6 
#
# 1 0.011213 -0.000997 -0.006958 0.000000 0.000000 0.000000
# 2 -0.000997 0.013182 0.000790 0.000000 0.000000 0.000000
# 3 -0.006958 0.000790 0.010405 0.000000 0.000000 0.000000
# 4 0.000000 0.000000 0.000000 0.154292 0.000000 0.000000
# 5 0.000000 0.000000 0.000000 0.000000 0.037931 0.000000
# 6 0.000000 0.000000 0.000000 0.000000 0.000000 -0.075783
#
#
# Mechanical properties :
#
#
# Convention : Reuss Voigt Hill
#
# Bulk Modulus (GPa) = 48.85147 67.07550 57.96348
# Shear Modulus (GPa) = 29.00327 23.15913 26.08120
#
# Velocity S-wave (km/s) = 3.73107 3.33404 3.53812
# Velocity P-wave (km/s) = 6.48141 6.85680 6.67174
#
# Compressibility (1/GPa) = 0.02047021
#
# Stress axis : x y z
#
# Youngs Moduli (GPa) = 89.17886 75.86109 96.10545
#
# Poissons Ratio (x) = 0.07565 0.66867
# Poissons Ratio (y) = 0.08893 -0.07588
# Poissons Ratio (z) = 0.62047 -0.05990
#
# Static dielectric constant tensor:
#      x y z
#    x 1.753260 0.000000 0.000000 
#    y 0.000000 1.835280 0.000000 
#    z 0.000000 0.000000 1.718020 
# 
# From -- ./inp_files/47196.got.cif
#   From: 2010.05.17/outbox.cif.g08.bks.cpg/sg74_24_cif.got.tgz:47196.got - 2010.06.03 17:57:02.
