data_PCOD9534584
_publ_section_title
;
Structure prediction by ZEFSAII (Michael W. Deem and Ramdas Pophale) SiO2 
 PCOD9534584
Probable space group: I M M A
;
_chemical_formula_sum "Si O2"
_cell_formula_units_Z 96
_cell_length_a 22.838299
_cell_length_b 17.306612
_cell_length_c 13.911424
_cell_angle_alpha 90.000000
_cell_angle_beta 90.000000
_cell_angle_gamma 90.000000
_cell_volume 5498.540132
_symmetry_space_group_name_H-M "I M M A"
_symmetry_group_IT_number 74
_symmetry_cell_setting 'orthorhombic'
loop_
_space_group_symop_operation_xyz
x,y,z
-x,1/2-y,z
x,-y,-z
-x,1/2+y,-z
-x,-y,-z
x,1/2+y,-z
-x,y,z
x,1/2-y,z
1/2+x,1/2+y,1/2+z
1/2-x,-y,1/2+z
1/2+x,1/2-y,1/2-z
1/2-x,y,1/2-z
1/2-x,1/2-y,1/2-z
1/2+x,y,1/2-z
1/2-x,1/2+y,1/2+z
1/2+x,-y,1/2+z
loop_
_atom_site_type_symbol
_atom_site_label
_atom_site_fract_x
_atom_site_fract_y
_atom_site_fract_z
Si Si1 0.123951 0.843363 0.812847
Si Si2 0.880492 0.910568 0.470685
Si Si3 0.500000 0.158063 0.997491
Si Si4 0.000000 0.656007 0.721973
Si Si5 0.298495 0.613465 0.862690
Si Si6 0.733786 0.566126 0.140263
Si Si7 0.695713 0.337436 0.486320
O O1 0.125894 0.750000 0.806916
O O2 0.174580 0.874758 0.741894
O O3 0.140140 0.863825 0.922764
O O4 0.060052 0.868771 0.774968
O O5 0.942010 0.873675 0.447804
O O6 0.853060 0.872740 0.566078
O O7 0.830211 0.902932 0.390788
O O8 0.888305 0.000000 0.500000
O O9 0.500000 0.250000 0.997605
O O10 0.500000 0.131584 0.109947
O O11 0.000000 0.750000 0.722575
O O12 0.273858 0.526151 0.873546
O O13 0.247312 0.665065 0.906088
O O14 0.750000 0.581555 0.250000
O O15 0.780647 0.605088 0.068329
O O16 0.686822 0.250000 0.523214
#
# Coordination Sequence:
#
# PCOD9534584 Si02
#       7
#    16  16   8   8  16  16  16
#     4  10  18  30  49  77 108 133 160 198 253 310
#     4   9  19  32  49  74 103 133 165 203 250 301
#     4  11  19  31  51  74 103 133 162 201 251 305
#     4   9  18  29  47  76 106 134 158 194 250 311
#     4  10  18  31  52  78 103 129 162 204 257 311
#     4  10  21  36  52  72  99 137 178 213 249 289
#     4  10  20  31  48  73 101 133 167 207 251 299
#
# _framework density 17.45918
#
# number of rings (size 3 to 8) (size 9 to 14) (size 15 to 20)
#    0.000    2.167    1.667    3.750    0.000    4.333 
#    0.000    0.000    0.000    1.000    0.000    7.000 
#    0.000    0.000    0.000    0.000    0.000    0.000 
#
# Total GULP energy -267493.190239 kJ/mol
# GULP energy per Si atom -5572.774797 kJ/mol
# Density = 1.741944 g / cm^3
# Si number density = 17.459180 Si / 1000 Ang^3
#
#
#
# Elastic Constant Matrix: (Units=GPa)
#
#
# Indices 1 2 3 4 5 6 
#
# 1 53.7172 17.2973 36.3681 0.0000 0.0000 0.0000
# 2 17.2973 34.8720 30.4372 0.0000 0.0000 0.0000
# 3 36.3681 30.4372 95.1925 0.0000 0.0000 0.0000
# 4 0.0000 0.0000 0.0000 20.8957 0.0000 0.0000
# 5 0.0000 0.0000 0.0000 0.0000 190.7851 0.0000
# 6 0.0000 0.0000 0.0000 0.0000 0.0000 15.8779
#
#
#
# Elastic Compliance Matrix: (Units=1/GPa)
#
#
# Indices 1 2 3 4 5 6 
#
# 1 0.025944 -0.005850 -0.008041 0.000000 0.000000 0.000000
# 2 -0.005850 0.041097 -0.010905 0.000000 0.000000 0.000000
# 3 -0.008041 -0.010905 0.017064 0.000000 0.000000 0.000000
# 4 0.000000 0.000000 0.000000 0.047857 0.000000 0.000000
# 5 0.000000 0.000000 0.000000 0.000000 0.005242 0.000000
# 6 0.000000 0.000000 0.000000 0.000000 0.000000 0.062981
#
#
# Mechanical properties :
#
#
# Convention : Reuss Voigt Hill
#
# Bulk Modulus (GPa) = 28.97617 39.10965 34.04291
# Shear Modulus (GPa) = 19.13651 52.15701 35.64676
#
# Velocity S-wave (km/s) = 3.31429 5.47161 4.52344
# Velocity P-wave (km/s) = 5.59272 7.89730 6.84273
#
# Compressibility (1/GPa) = 0.03451112
#
# Stress axis : x y z
#
# Youngs Moduli (GPa) = 38.54463 24.33294 58.60250
#
# Poissons Ratio (x) = 0.14235 0.47124
# Poissons Ratio (y) = 0.22549 0.63908
# Poissons Ratio (z) = 0.30995 0.26536
#
# Static dielectric constant tensor:
#      x y z
#    x 1.616020 0.000000 0.000000 
#    y 0.000000 1.607010 0.000000 
#    z 0.000000 0.000000 1.603750 
# 
# From -- ./inp_files/25226.got.cif
#   From: 2010.05.17/outbox.cif.g08.bks.cpg/sg74_13_cif.got.tgz:25226.got - 2010.06.03 17:57:02.
