data_PCOD9534640
_publ_section_title
;
Structure prediction by ZEFSAII (Michael W. Deem and Ramdas Pophale) SiO2 
 PCOD9534640
Probable space group: I M M A
;
_chemical_formula_sum "Si O2"
_cell_formula_units_Z 96
_cell_length_a 25.439231
_cell_length_b 14.733025
_cell_length_c 12.720946
_cell_angle_alpha 90.000000
_cell_angle_beta 90.000000
_cell_angle_gamma 90.000000
_cell_volume 4767.770188
_symmetry_space_group_name_H-M "I M M A"
_symmetry_group_IT_number 74
_symmetry_cell_setting 'orthorhombic'
loop_
_space_group_symop_operation_xyz
x,y,z
-x,1/2-y,z
x,-y,-z
-x,1/2+y,-z
-x,-y,-z
x,1/2+y,-z
-x,y,z
x,1/2-y,z
1/2+x,1/2+y,1/2+z
1/2-x,-y,1/2+z
1/2+x,1/2-y,1/2-z
1/2-x,y,1/2-z
1/2-x,1/2-y,1/2-z
1/2+x,y,1/2-z
1/2-x,1/2+y,1/2+z
1/2+x,-y,1/2+z
loop_
_atom_site_type_symbol
_atom_site_label
_atom_site_fract_x
_atom_site_fract_y
_atom_site_fract_z
Si Si1 0.123578 0.406911 0.412176
Si Si2 0.207539 0.859382 0.419899
Si Si3 0.673184 0.858604 0.482963
Si Si4 0.437899 0.902484 0.102157
Si Si5 0.691720 0.358935 0.284601
Si Si6 0.360991 0.145443 0.729001
O O1 0.175821 0.404219 0.484715
O O2 0.091454 0.499674 0.393378
O O3 0.083611 0.357545 0.494039
O O4 0.146304 0.374178 0.301614
O O5 0.198518 0.750000 0.427097
O O6 0.268754 0.873124 0.435110
O O7 0.182809 0.893196 0.309996
O O8 0.663788 0.750000 0.495890
O O9 0.674802 0.895932 0.601132
O O10 0.636234 0.893039 0.388446
O O11 0.500000 0.910439 0.100722
O O12 0.414611 0.855762 0.205281
O O13 0.698053 0.250000 0.294511
O O14 0.750000 0.392968 0.250000
O O15 0.344412 0.250000 0.715384
#
# Coordination Sequence:
#
# PCOD9534640 Si02
#       6
#    16  16  16  16  16  16
#     4  10  18  32  52  76 105 138 174 208 253 314
#     4   9  15  26  49  77 106 139 170 202 243 304
#     4   9  16  28  49  77 110 141 165 197 249 306
#     4  10  22  39  56  72  96 134 178 231 285 303
#     4  10  18  30  52  80 113 148 171 194 241 310
#     4   9  18  32  53  78  99 128 176 223 262 308
#
# _framework density 20.135199
#
# number of rings (size 3 to 8) (size 9 to 14) (size 15 to 20)
#    0.000    2.500    1.667    2.000    0.000    3.000 
#    0.000    5.833    0.000    9.000    0.000    4.667 
#    0.000    0.000    0.000    0.000    0.000    0.000 
#
# Total GULP energy -267213.308537 kJ/mol
# GULP energy per Si atom -5566.943928 kJ/mol
# Density = 2.008937 g / cm^3
# Si number density = 20.135199 Si / 1000 Ang^3
#
#
#
# Elastic Constant Matrix: (Units=GPa)
#
#
# Indices 1 2 3 4 5 6 
#
# 1 76.5414 9.4625 53.4974 0.0000 0.0000 0.0000
# 2 9.4625 38.8853 14.0767 0.0000 0.0000 0.0000
# 3 53.4974 14.0767 206.1582 0.0000 0.0000 0.0000
# 4 0.0000 0.0000 0.0000 7.1934 0.0000 0.0000
# 5 0.0000 0.0000 0.0000 0.0000 12.7360 0.0000
# 6 0.0000 0.0000 0.0000 0.0000 0.0000 15.1406
#
#
#
# Elastic Compliance Matrix: (Units=1/GPa)
#
#
# Indices 1 2 3 4 5 6 
#
# 1 0.016189 -0.002480 -0.004032 0.000000 0.000000 0.000000
# 2 -0.002480 0.026748 -0.001183 0.000000 0.000000 0.000000
# 3 -0.004032 -0.001183 0.005978 0.000000 0.000000 0.000000
# 4 0.000000 0.000000 0.000000 0.139017 0.000000 0.000000
# 5 0.000000 0.000000 0.000000 0.000000 0.078517 0.000000
# 6 0.000000 0.000000 0.000000 0.000000 0.000000 0.066048
#
#
# Mechanical properties :
#
#
# Convention : Reuss Voigt Hill
#
# Bulk Modulus (GPa) = 29.82754 52.85089 41.33922
# Shear Modulus (GPa) = 13.92518 23.31723 18.62120
#
# Velocity S-wave (km/s) = 2.63265 3.40668 3.04437
# Velocity P-wave (km/s) = 4.90784 6.46366 5.73872
#
# Compressibility (1/GPa) = 0.03352606
#
# Stress axis : x y z
#
# Youngs Moduli (GPa) = 61.76907 37.38549 167.29034
#
# Poissons Ratio (x) = 0.09272 0.67447
# Poissons Ratio (y) = 0.15319 0.19788
# Poissons Ratio (z) = 0.24904 0.04422
#
# Static dielectric constant tensor:
#      x y z
#    x 1.661190 0.000000 0.000000 
#    y 0.000000 1.815430 0.000000 
#    z 0.000000 0.000000 1.806800 
# 
# From -- ./inp_files/26438.got.cif
#   From: 2010.05.17/outbox.cif.g08.bks.cpg/sg74_14_cif.got.tgz:26438.got - 2010.06.03 17:57:02.
