data_PCOD9534822
_publ_section_title
;
Structure prediction by ZEFSAII (Michael W. Deem and Ramdas Pophale) SiO2 
 PCOD9534822
Probable space group: I M M A
;
_chemical_formula_sum "Si O2"
_cell_formula_units_Z 88
_cell_length_a 15.241028
_cell_length_b 24.222244
_cell_length_c 11.966557
_cell_angle_alpha 90.000000
_cell_angle_beta 90.000000
_cell_angle_gamma 90.000000
_cell_volume 4417.716573
_symmetry_space_group_name_H-M "I M M A"
_symmetry_group_IT_number 74
_symmetry_cell_setting 'orthorhombic'
loop_
_space_group_symop_operation_xyz
x,y,z
-x,1/2-y,z
x,-y,-z
-x,1/2+y,-z
-x,-y,-z
x,1/2+y,-z
-x,y,z
x,1/2-y,z
1/2+x,1/2+y,1/2+z
1/2-x,-y,1/2+z
1/2+x,1/2-y,1/2-z
1/2-x,y,1/2-z
1/2-x,1/2-y,1/2-z
1/2+x,y,1/2-z
1/2-x,1/2+y,1/2+z
1/2+x,-y,1/2+z
loop_
_atom_site_type_symbol
_atom_site_label
_atom_site_fract_x
_atom_site_fract_y
_atom_site_fract_z
Si Si1 0.356661 0.750000 0.262362
Si Si2 0.401687 0.477113 0.812601
Si Si3 0.173920 0.640492 0.345503
Si Si4 0.403150 0.052581 0.555027
Si Si5 0.206175 0.643753 0.953358
Si Si6 0.250000 0.937384 0.750000
Si Si7 0.103196 0.750000 0.971849
O O1 0.250000 0.750000 0.250000
O O2 0.382348 0.691880 0.204031
O O3 0.381674 0.750000 0.392844
O O4 0.500000 0.493998 0.851762
O O5 0.370211 0.419290 0.866228
O O6 0.410406 0.460266 0.683464
O O7 0.326376 0.523926 0.804642
O O8 0.250000 0.631450 0.250000
O O9 0.212866 0.658546 0.465746
O O10 0.500000 0.056925 0.502274
O O11 0.354321 0.108507 0.536421
O O12 0.356233 0.000000 0.500000
O O13 0.221019 0.603261 0.849704
O O14 0.151856 0.697242 0.921902
O O15 0.000000 0.750000 0.951148
#
# Coordination Sequence:
#
# PCOD9534822 Si02
#       7
#     8  16  16  16  16   8   8
#     4  10  18  38  60  91 128 158 182 245 330 391
#     4  11  22  37  60  94 126 161 215 267 321 384
#     4  11  19  36  62  88 125 164 196 254 322 382
#     4  10  18  31  56  87 118 146 189 262 320 358
#     4  12  23  39  60  88 126 163 213 250 319 378
#     4  12  26  41  60  85 126 184 212 258 320 374
#     4  12  24  39  68 102 124 152 211 281 323 365
#
# _framework density 19.919792000000001
#
# number of rings (size 3 to 8) (size 9 to 14) (size 15 to 20)
#    0.000    0.909    8.182    0.545    0.000    3.273 
#    0.000    1.818    0.000    0.000    0.000    2.545 
#    0.000    0.000    0.000    0.000    0.000    0.000 
#
# Total GULP energy -245280.168110 kJ/mol
# GULP energy per Si atom -5574.549275 kJ/mol
# Density = 1.987445 g / cm^3
# Si number density = 19.919792 Si / 1000 Ang^3
#
#
#
# Elastic Constant Matrix: (Units=GPa)
#
#
# Indices 1 2 3 4 5 6 
#
# 1 88.7767 60.2066 16.6439 0.0000 0.0000 -0.0004
# 2 60.2066 150.7888 23.0380 0.0000 0.0000 -0.0002
# 3 16.6439 23.0380 37.6461 -0.0002 -0.0001 -0.0001
# 4 0.0000 0.0000 -0.0002 17.8539 0.0000 0.0011
# 5 0.0000 0.0000 -0.0001 0.0000 34.4880 -0.0003
# 6 -0.0004 -0.0002 -0.0001 0.0011 -0.0003 -836.7111
#
#
#
# Elastic Compliance Matrix: (Units=1/GPa)
#
#
# Indices 1 2 3 4 5 6 
#
# 1 0.015845 -0.005798 -0.003457 0.000000 0.000000 0.000000
# 2 -0.005798 0.009438 -0.003212 0.000000 0.000000 0.000000
# 3 -0.003457 -0.003212 0.030057 0.000000 0.000000 0.000000
# 4 0.000000 0.000000 0.000000 0.056010 0.000000 0.000000
# 5 0.000000 0.000000 0.000000 0.000000 0.028996 0.000000
# 6 0.000000 0.000000 0.000000 0.000000 0.000000 -0.001195
#
#
# Mechanical properties :
#
#
# Convention : Reuss Voigt Hill
#
# Bulk Modulus (GPa) = 32.88912 52.99875 42.94393
# Shear Modulus (GPa) = 28.69948 -145.05233 -58.17642
#
# Velocity S-wave (km/s) = 3.79984 -8.54262 -5.41006
# Velocity P-wave (km/s) = 5.98317 8.40463 4.17370
#
# Compressibility (1/GPa) = 0.03040519
#
# Stress axis : x y z
#
# Youngs Moduli (GPa) = 63.11312 105.95869 33.27002
#
# Poissons Ratio (x) = 0.61437 0.11501
# Poissons Ratio (y) = 0.36595 0.10686
# Poissons Ratio (z) = 0.21817 0.34034
#
# Static dielectric constant tensor:
#      x y z
#    x 1.806660 0.000000 0.000000 
#    y 0.000000 1.787020 0.000000 
#    z 0.000000 0.000000 1.715230 
# 
# From -- ./inp_files/20704.got.cif
#   From: 2010.05.17/outbox.cif.g08.bks.cpg/sg74_11_cif.got.tgz:20704.got - 2010.06.03 17:57:02.
