data_PCOD9534637
_publ_section_title
;
Structure prediction by ZEFSAII (Michael W. Deem and Ramdas Pophale) SiO2 
 PCOD9534637
Probable space group: I M M A
;
_chemical_formula_sum "Si O2"
_cell_formula_units_Z 88
_cell_length_a 9.746797
_cell_length_b 20.916076
_cell_length_c 23.947612
_cell_angle_alpha 90.000000
_cell_angle_beta 90.000000
_cell_angle_gamma 90.000000
_cell_volume 4882.073857
_symmetry_space_group_name_H-M "I M M A"
_symmetry_group_IT_number 74
_symmetry_cell_setting 'orthorhombic'
loop_
_space_group_symop_operation_xyz
x,y,z
-x,1/2-y,z
x,-y,-z
-x,1/2+y,-z
-x,-y,-z
x,1/2+y,-z
-x,y,z
x,1/2-y,z
1/2+x,1/2+y,1/2+z
1/2-x,-y,1/2+z
1/2+x,1/2-y,1/2-z
1/2-x,y,1/2-z
1/2-x,1/2-y,1/2-z
1/2+x,y,1/2-z
1/2-x,1/2+y,1/2+z
1/2+x,-y,1/2+z
loop_
_atom_site_type_symbol
_atom_site_label
_atom_site_fract_x
_atom_site_fract_y
_atom_site_fract_z
Si Si1 0.650794 0.824239 0.796441
Si Si2 0.159911 0.126527 0.115680
Si Si3 0.665645 0.324623 0.505793
Si Si4 0.164197 0.500739 0.807641
Si Si5 0.661908 0.750000 0.305211
Si Si6 0.834920 0.623663 0.123296
O O1 0.500000 0.854139 0.797664
O O2 0.634162 0.750000 0.781952
O O3 0.750000 0.853498 0.750000
O O4 0.732275 0.828412 0.853575
O O5 0.000000 0.145845 0.124455
O O6 0.178211 0.059301 0.148038
O O7 0.188995 0.134132 0.050127
O O8 0.500000 0.320219 0.511346
O O9 0.713220 0.250000 0.501875
O O10 0.717655 0.361317 0.560898
O O11 0.250000 0.505900 0.750000
O O12 0.211917 0.437908 0.842013
O O13 0.000000 0.496028 0.794844
O O14 0.500000 0.750000 0.292111
O O15 0.750000 0.750000 0.250000
O O16 0.691339 0.687265 0.341327
O O17 0.000000 0.615542 0.118581
#
# Coordination Sequence:
#
# PCOD9534637 Si02
#       6
#    16  16  16  16   8  16
#     4  10  20  33  50  72  99 132 173 221 267 308
#     4  10  20  32  50  76 104 137 173 209 255 310
#     4   9  16  29  51  78 105 133 170 217 264 309
#     4  10  21  35  51  75 106 138 174 216 260 310
#     4  10  18  30  52  78 102 132 171 214 263 312
#     4   9  17  31  51  76 104 134 171 215 262 311
#
# _framework density 18.025127000000001
#
# number of rings (size 3 to 8) (size 9 to 14) (size 15 to 20)
#    0.000    2.364    0.909    2.182    0.000    4.727 
#    0.000    3.636    0.000    2.182    0.000    2.545 
#    0.000    0.000    0.000    0.000    0.000    0.000 
#
# Total GULP energy -244985.155741 kJ/mol
# GULP energy per Si atom -5567.844449 kJ/mol
# Density = 1.798410 g / cm^3
# Si number density = 18.025127 Si / 1000 Ang^3
#
#
#
# Elastic Constant Matrix: (Units=GPa)
#
#
# Indices 1 2 3 4 5 6 
#
# 1 63.2515 32.1878 62.9337 0.0000 0.0000 0.0000
# 2 32.1878 98.0414 56.1466 0.0000 0.0000 0.0000
# 3 62.9337 56.1466 173.7599 0.0000 0.0000 0.0000
# 4 0.0000 0.0000 0.0000 9.7557 0.0000 0.0000
# 5 0.0000 0.0000 0.0000 0.0000 22.6369 0.0000
# 6 0.0000 0.0000 0.0000 0.0000 0.0000 8.5020
#
#
#
# Elastic Compliance Matrix: (Units=1/GPa)
#
#
# Indices 1 2 3 4 5 6 
#
# 1 0.025840 -0.003833 -0.008120 0.000000 0.000000 0.000000
# 2 -0.003833 0.013084 -0.002840 0.000000 0.000000 0.000000
# 3 -0.008120 -0.002840 0.009614 0.000000 0.000000 0.000000
# 4 0.000000 0.000000 0.000000 0.102505 0.000000 0.000000
# 5 0.000000 0.000000 0.000000 0.000000 0.044176 0.000000
# 6 0.000000 0.000000 0.000000 0.000000 0.000000 0.117620
#
#
# Mechanical properties :
#
#
# Convention : Reuss Voigt Hill
#
# Bulk Modulus (GPa) = 52.76489 70.84322 61.80405
# Shear Modulus (GPa) = 14.33727 20.43123 17.38425
#
# Velocity S-wave (km/s) = 2.82335 3.37038 3.10892
# Velocity P-wave (km/s) = 6.32178 7.38470 6.87382
#
# Compressibility (1/GPa) = 0.01895200
#
# Stress axis : x y z
#
# Youngs Moduli (GPa) = 38.69956 76.42673 104.01790
#
# Poissons Ratio (x) = 0.29295 0.84466
# Poissons Ratio (y) = 0.14834 0.29537
# Poissons Ratio (z) = 0.31425 0.21702
#
# Static dielectric constant tensor:
#      x y z
#    x 1.628010 0.000000 0.000000 
#    y 0.000000 1.651690 0.000000 
#    z 0.000000 0.000000 1.639660 
# 
# From -- ./inp_files/56995.got.cif
#   From: 2010.05.17/outbox.cif.g08.bks.cpg/sg74_29_cif.got.tgz:56995.got - 2010.06.03 17:57:02.
