data_PCOD9534082
_publ_section_title
;
Structure prediction by ZEFSAII (Michael W. Deem and Ramdas Pophale) SiO2 
 PCOD9534082
Probable space group: I M M A
;
_chemical_formula_sum "Si O2"
_cell_formula_units_Z 96
_cell_length_a 23.910918
_cell_length_b 14.224425
_cell_length_c 14.045905
_cell_angle_alpha 90.000000
_cell_angle_beta 90.000000
_cell_angle_gamma 90.000000
_cell_volume 4777.280002
_symmetry_space_group_name_H-M "I M M A"
_symmetry_group_IT_number 74
_symmetry_cell_setting 'orthorhombic'
loop_
_space_group_symop_operation_xyz
x,y,z
-x,1/2-y,z
x,-y,-z
-x,1/2+y,-z
-x,-y,-z
x,1/2+y,-z
-x,y,z
x,1/2-y,z
1/2+x,1/2+y,1/2+z
1/2-x,-y,1/2+z
1/2+x,1/2-y,1/2-z
1/2-x,y,1/2-z
1/2-x,1/2-y,1/2-z
1/2+x,y,1/2-z
1/2-x,1/2+y,1/2+z
1/2+x,-y,1/2+z
loop_
_atom_site_type_symbol
_atom_site_label
_atom_site_fract_x
_atom_site_fract_y
_atom_site_fract_z
Si Si1 0.912142 0.044842 0.402027
Si Si2 0.701247 0.942490 0.129786
Si Si3 0.326209 0.938823 0.351518
Si Si4 0.409498 0.250000 0.341036
Si Si5 0.836773 0.750000 0.029280
Si Si6 0.790654 0.750000 0.484940
Si Si7 0.615054 0.750000 0.868358
Si Si8 0.940090 0.961583 0.814317
O O1 0.917395 0.156829 0.399886
O O2 0.935951 0.014623 0.299000
O O3 0.934148 0.000000 0.500000
O O4 0.846271 0.016603 0.398626
O O5 0.687407 0.921840 0.240331
O O6 0.765308 0.976827 0.114390
O O7 0.696141 0.843727 0.075291
O O8 0.340257 0.842651 0.405602
O O9 0.381561 0.002617 0.358618
O O10 0.378651 0.250000 0.441505
O O11 0.373092 0.250000 0.244082
O O12 0.440564 0.349320 0.329873
O O13 0.774059 0.750000 0.989941
O O14 0.827195 0.750000 0.577725
O O15 0.000000 0.999794 0.850196
#
# Coordination Sequence:
#
# PCOD9534082 Si02
#       8
#    16  16  16   8   8   8   8  16
#     4  10  19  34  58  88 116 147 183 228 284 355
#     4   9  17  32  56  87 120 150 178 225 292 344
#     4   9  19  36  58  85 114 148 190 236 284 337
#     4  10  23  40  55  76 113 151 197 238 283 334
#     4  10  21  36  56  86 112 150 194 240 277 332
#     4  10  17  29  56  86 117 154 182 222 278 354
#     4  10  20  33  51  82 118 154 177 221 282 344
#     4  10  22  41  61  80 110 151 195 245 285 328
#
# _framework density 20.095116000000001
#
# number of rings (size 3 to 8) (size 9 to 14) (size 15 to 20)
#    0.000    2.333    1.667    0.750    0.000    4.667 
#    0.000    6.250    0.000    0.000    0.000    0.000 
#    0.000    0.000    0.000    0.000    0.000    0.000 
#
# Total GULP energy -267539.763686 kJ/mol
# GULP energy per Si atom -5573.745077 kJ/mol
# Density = 2.004938 g / cm^3
# Si number density = 20.095116 Si / 1000 Ang^3
#
#
#
# Elastic Constant Matrix: (Units=GPa)
#
#
# Indices 1 2 3 4 5 6 
#
# 1 129.3393 36.5970 13.7809 0.0000 0.0000 0.0000
# 2 36.5970 54.7806 4.1114 0.0000 0.0000 0.0000
# 3 13.7809 4.1114 77.4995 0.0000 0.0000 0.0000
# 4 0.0000 0.0000 0.0000 21.5120 0.0000 0.0000
# 5 0.0000 0.0000 0.0000 0.0000 -4.1567 0.0000
# 6 0.0000 0.0000 0.0000 0.0000 0.0000 -4.8570
#
#
#
# Elastic Compliance Matrix: (Units=1/GPa)
#
#
# Indices 1 2 3 4 5 6 
#
# 1 0.009679 -0.006363 -0.001384 0.000000 0.000000 0.000000
# 2 -0.006363 0.022510 -0.000063 0.000000 0.000000 0.000000
# 3 -0.001384 -0.000063 0.013153 0.000000 0.000000 0.000000
# 4 0.000000 0.000000 0.000000 0.046486 0.000000 0.000000
# 5 0.000000 0.000000 0.000000 0.000000 -0.240576 0.000000
# 6 0.000000 0.000000 0.000000 0.000000 0.000000 -0.205887
#
#
# Mechanical properties :
#
#
# Convention : Reuss Voigt Hill
#
# Bulk Modulus (GPa) = 33.64289 41.17757 37.41023
# Shear Modulus (GPa) = -15.19254 16.30834 0.55790
#
# Velocity S-wave (km/s) = -2.75259 2.85187 0.52748
# Velocity P-wave (km/s) = 2.58377 5.60179 4.36211
#
# Compressibility (1/GPa) = 0.02972396
#
# Stress axis : x y z
#
# Youngs Moduli (GPa) = 103.31282 44.42479 76.03019
#
# Poissons Ratio (x) = 0.28266 0.10520
# Poissons Ratio (y) = 0.65734 0.00477
# Poissons Ratio (z) = 0.14295 0.00279
#
# Static dielectric constant tensor:
#      x y z
#    x 1.732220 0.000000 0.000000 
#    y 0.000000 1.702100 0.000000 
#    z 0.000000 0.000000 1.730280 
# 
# From -- ./inp_files/36464.got.cif
#   From: 2010.05.17/outbox.cif.g08.bks.cpg/sg74_19_cif.got.tgz:36464.got - 2010.06.03 17:57:02.
