data_PCOD9534383
_publ_section_title
;
Structure prediction by ZEFSAII (Michael W. Deem and Ramdas Pophale) SiO2 
 PCOD9534383
Probable space group: I M M A
;
_chemical_formula_sum "Si O2"
_cell_formula_units_Z 96
_cell_length_a 20.417401
_cell_length_b 31.780006
_cell_length_c 5.632055
_cell_angle_alpha 90.000000
_cell_angle_beta 90.000000
_cell_angle_gamma 90.000000
_cell_volume 3654.444079
_symmetry_space_group_name_H-M "I M M A"
_symmetry_group_IT_number 74
_symmetry_cell_setting 'orthorhombic'
loop_
_space_group_symop_operation_xyz
x,y,z
-x,1/2-y,z
x,-y,-z
-x,1/2+y,-z
-x,-y,-z
x,1/2+y,-z
-x,y,z
x,1/2-y,z
1/2+x,1/2+y,1/2+z
1/2-x,-y,1/2+z
1/2+x,1/2-y,1/2-z
1/2-x,y,1/2-z
1/2-x,1/2-y,1/2-z
1/2+x,y,1/2-z
1/2-x,1/2+y,1/2+z
1/2+x,-y,1/2+z
loop_
_atom_site_type_symbol
_atom_site_label
_atom_site_fract_x
_atom_site_fract_y
_atom_site_fract_z
Si Si1 0.000000 0.089071 0.999735
Si Si2 0.000000 0.399535 0.500978
Si Si3 0.859124 0.422518 0.980100
Si Si4 0.137661 0.549661 0.511026
Si Si5 0.750000 0.161545 0.250000
Si Si6 0.892704 0.798310 0.693281
Si Si7 0.608887 0.827348 0.312977
Si Si8 0.250000 0.836986 0.250000
O O1 0.065084 0.060943 0.997528
O O2 0.000000 0.118512 0.766835
O O3 0.000000 0.117458 0.234853
O O4 0.066921 0.427021 0.500903
O O5 0.828078 0.439584 0.739863
O O6 0.874585 0.373729 0.918579
O O7 0.832201 0.433873 0.239409
O O8 0.129406 0.500000 0.500000
O O9 0.816515 0.188613 0.263339
O O10 0.754184 0.138078 0.501998
O O11 0.899952 0.750000 0.625542
O O12 0.916837 0.824525 0.459888
O O13 0.921677 0.804586 0.959219
O O14 0.683705 0.810270 0.268967
#
# Coordination Sequence:
#
# PCOD9534383 Si02
#       8
#     8   8  16  16   8  16  16   8
#     4   8  16  28  43  64  89 118 150 178 218 268
#     4   8  15  26  42  64  92 118 141 172 217 276
#     4  10  19  31  46  67  93 121 152 186 223 268
#     4  10  18  29  45  67  93 121 149 182 224 272
#     4   8  15  26  42  64  92 117 139 170 217 277
#     4  10  18  29  45  67  92 120 148 181 224 273
#     4  10  19  31  46  67  93 120 150 185 222 268
#     4   8  16  28  43  64  90 117 147 176 217 267
#
# _framework density 26.269383999999999
#
# number of rings (size 3 to 8) (size 9 to 14) (size 15 to 20)
#    0.000    2.667    0.000    2.500    0.000    0.000 
#    0.000   10.000    0.000    0.000    0.000    5.833 
#    0.000    0.000    0.000    0.000    0.000    0.000 
#
# Total GULP energy -267213.230997 kJ/mol
# GULP energy per Si atom -5566.942312 kJ/mol
# Density = 2.620959 g / cm^3
# Si number density = 26.269384 Si / 1000 Ang^3
#
#
#
# Elastic Constant Matrix: (Units=GPa)
#
#
# Indices 1 2 3 4 5 6 
#
# 1 75.0729 -9.2983 12.4396 0.0000 -0.0005 0.0006
# 2 -9.2983 75.9231 44.5190 0.0000 -0.0001 -0.0001
# 3 12.4396 44.5190 376.0500 0.0002 -0.0027 0.0020
# 4 0.0000 0.0000 0.0002 32.8908 0.0000 -0.0001
# 5 -0.0005 -0.0001 -0.0027 0.0000 23.1419 0.0011
# 6 0.0006 -0.0001 0.0020 -0.0001 0.0011 -10.0956
#
#
#
# Elastic Compliance Matrix: (Units=1/GPa)
#
#
# Indices 1 2 3 4 5 6 
#
# 1 0.013695 0.002088 -0.000700 0.000000 0.000000 0.000001
# 2 0.002088 0.014472 -0.001782 0.000000 0.000000 0.000000
# 3 -0.000700 -0.001782 0.002893 0.000000 0.000000 0.000001
# 4 0.000000 0.000000 0.000000 0.030404 0.000000 0.000000
# 5 0.000000 0.000000 0.000000 0.000000 0.043212 0.000005
# 6 0.000001 0.000000 0.000001 0.000000 0.000005 -0.099054
#
#
# Mechanical properties :
#
#
# Convention : Reuss Voigt Hill
#
# Bulk Modulus (GPa) = 33.03499 69.15185 51.09342
# Shear Modulus (GPa) = 302.99341 41.14647 172.06994
#
# Velocity S-wave (km/s) = 10.75134 3.96198 8.10212
# Velocity P-wave (km/s) = 12.91218 6.87830 10.34494
#
# Compressibility (1/GPa) = 0.03027094
#
# Stress axis : x y z
#
# Youngs Moduli (GPa) = 73.01935 69.09883 345.61565
#
# Poissons Ratio (x) = -0.14426 0.24200
# Poissons Ratio (y) = -0.15245 0.61601
# Poissons Ratio (z) = 0.05113 0.12316
#
# Static dielectric constant tensor:
#      x y z
#    x 2.252570 0.000000 0.000000 
#    y 0.000000 1.987450 0.000000 
#    z 0.000000 0.000000 2.206250 
# 
# From -- ./inp_files/5319.got.cif
#   From: 2010.05.17/outbox.cif.g08.bks.cpg/sg74_3_cif.got.tgz:5319.got - 2010.06.03 17:57:02.
