data_PCOD9534569
_publ_section_title
;
Structure prediction by ZEFSAII (Michael W. Deem and Ramdas Pophale) SiO2 
 PCOD9534569
Probable space group: I M M A
;
_chemical_formula_sum "Si O2"
_cell_formula_units_Z 72
_cell_length_a 8.457291
_cell_length_b 29.968658
_cell_length_c 14.325438
_cell_angle_alpha 90.000000
_cell_angle_beta 90.000000
_cell_angle_gamma 90.000000
_cell_volume 3630.834715
_symmetry_space_group_name_H-M "I M M A"
_symmetry_group_IT_number 74
_symmetry_cell_setting 'orthorhombic'
loop_
_space_group_symop_operation_xyz
x,y,z
-x,1/2-y,z
x,-y,-z
-x,1/2+y,-z
-x,-y,-z
x,1/2+y,-z
-x,y,z
x,1/2-y,z
1/2+x,1/2+y,1/2+z
1/2-x,-y,1/2+z
1/2+x,1/2-y,1/2-z
1/2-x,y,1/2-z
1/2-x,1/2-y,1/2-z
1/2+x,y,1/2-z
1/2-x,1/2+y,1/2+z
1/2+x,-y,1/2+z
loop_
_atom_site_type_symbol
_atom_site_label
_atom_site_fract_x
_atom_site_fract_y
_atom_site_fract_z
Si Si1 0.192592 0.838886 0.462573
Si Si2 0.189930 0.571272 0.356404
Si Si3 0.311232 0.382387 0.145153
Si Si4 0.191916 0.750000 0.356129
Si Si5 0.188397 0.477776 0.142709
O O1 0.240829 0.883743 0.408282
O O2 0.241527 0.845608 0.570030
O O3 0.246368 0.794370 0.410641
O O4 0.000000 0.838052 0.461459
O O5 0.250000 0.574395 0.250000
O O6 0.255478 0.524927 0.398387
O O7 0.000000 0.568667 0.356876
O O8 0.500000 0.382983 0.149022
O O9 0.250000 0.375909 0.250000
O O10 0.257016 0.430965 0.107796
O O11 0.250000 0.750000 0.250000
O O12 0.000000 0.750000 0.355296
O O13 0.250000 0.479077 0.250000
O O14 0.000000 0.475901 0.141366
#
# Coordination Sequence:
#
# PCOD9534569 Si02
#       5
#    16  16  16   8  16
#     4   9  20  35  56  79 105 139 177 213 263 321
#     4  10  18  31  49  75 106 141 177 216 259 312
#     4  10  19  35  54  76 104 141 179 218 259 307
#     4  10  20  40  63  86 110 138 171 212 261 316
#     4  10  18  30  48  74 105 142 177 216 261 308
#
# _framework density 19.830151999999998
#
# number of rings (size 3 to 8) (size 9 to 14) (size 15 to 20)
#    0.000    2.222    0.000    6.667    0.000    0.889 
#    0.000   12.778    0.000    0.000    0.000    0.000 
#    0.000    0.000    0.000    0.000    0.000    0.000 
#
# Total GULP energy -200976.518944 kJ/mol
# GULP energy per Si atom -5582.681082 kJ/mol
# Density = 1.978502 g / cm^3
# Si number density = 19.830152 Si / 1000 Ang^3
#
#
#
# Elastic Constant Matrix: (Units=GPa)
#
#
# Indices 1 2 3 4 5 6 
#
# 1 69.3314 27.6615 22.1778 0.0000 0.0000 0.0000
# 2 27.6615 162.6885 97.6936 -0.0001 0.0000 0.0000
# 3 22.1778 97.6936 132.3502 -0.0001 0.0000 0.0000
# 4 0.0000 -0.0001 -0.0001 38.5872 0.0000 0.0000
# 5 0.0000 0.0000 0.0000 0.0000 16.7270 0.0000
# 6 0.0000 0.0000 0.0000 0.0000 0.0000 18.1915
#
#
#
# Elastic Compliance Matrix: (Units=1/GPa)
#
#
# Indices 1 2 3 4 5 6 
#
# 1 0.015574 -0.001941 -0.001177 0.000000 0.000000 0.000000
# 2 -0.001941 0.011282 -0.008003 0.000000 0.000000 0.000000
# 3 -0.001177 -0.008003 0.013660 0.000000 0.000000 0.000000
# 4 0.000000 0.000000 0.000000 0.025915 0.000000 0.000000
# 5 0.000000 0.000000 0.000000 0.000000 0.059784 0.000000
# 6 0.000000 0.000000 0.000000 0.000000 0.000000 0.054971
#
#
# Mechanical properties :
#
#
# Convention : Reuss Voigt Hill
#
# Bulk Modulus (GPa) = 54.71916 73.27067 63.99491
# Shear Modulus (GPa) = 23.86405 29.15695 26.51050
#
# Velocity S-wave (km/s) = 3.47280 3.83865 3.66030
# Velocity P-wave (km/s) = 6.61319 7.52837 7.08557
#
# Compressibility (1/GPa) = 0.01827514
#
# Stress axis : x y z
#
# Youngs Moduli (GPa) = 64.20753 88.63356 73.20617
#
# Poissons Ratio (x) = 0.17208 0.08614
# Poissons Ratio (y) = 0.12466 0.58585
# Poissons Ratio (z) = 0.07555 0.70931
#
# Static dielectric constant tensor:
#      x y z
#    x 1.677440 0.000000 0.000000 
#    y 0.000000 1.706650 0.000000 
#    z 0.000000 0.000000 1.715480 
# 
# From -- ./inp_files/29400.got.cif
#   From: 2010.05.17/outbox.cif.g08.bks.cpg/sg74_15_cif.got.tgz:29400.got - 2010.06.03 17:57:02.
