data_PCOD9534709
_publ_section_title
;
Structure prediction by ZEFSAII (Michael W. Deem and Ramdas Pophale) SiO2 
 PCOD9534709
Probable space group: I M M A
;
_chemical_formula_sum "Si O2"
_cell_formula_units_Z 80
_cell_length_a 12.008104
_cell_length_b 14.467059
_cell_length_c 18.554885
_cell_angle_alpha 90.000000
_cell_angle_beta 90.000000
_cell_angle_gamma 90.000000
_cell_volume 3223.390787
_symmetry_space_group_name_H-M "I M M A"
_symmetry_group_IT_number 74
_symmetry_cell_setting 'orthorhombic'
loop_
_space_group_symop_operation_xyz
x,y,z
-x,1/2-y,z
x,-y,-z
-x,1/2+y,-z
-x,-y,-z
x,1/2+y,-z
-x,y,z
x,1/2-y,z
1/2+x,1/2+y,1/2+z
1/2-x,-y,1/2+z
1/2+x,1/2-y,1/2-z
1/2-x,y,1/2-z
1/2-x,1/2-y,1/2-z
1/2+x,y,1/2-z
1/2-x,1/2+y,1/2+z
1/2+x,-y,1/2+z
loop_
_atom_site_type_symbol
_atom_site_label
_atom_site_fract_x
_atom_site_fract_y
_atom_site_fract_z
Si Si1 0.877731 0.360123 0.263833
Si Si2 0.122942 0.024044 0.402824
Si Si3 0.292874 0.145297 0.475391
Si Si4 0.000000 0.454420 0.079205
Si Si5 0.731263 0.353239 0.642134
Si Si6 0.500000 0.641554 0.330671
O O1 0.875853 0.250000 0.254300
O O2 0.750000 0.393146 0.250000
O O3 0.887812 0.394054 0.345050
O O4 0.000000 0.390657 0.229982
O O5 0.190351 0.077448 0.464590
O O6 0.000000 0.991370 0.421915
O O7 0.187272 0.939502 0.364182
O O8 0.266348 0.250000 0.456321
O O9 0.389655 0.108050 0.423149
O O10 0.323475 0.144629 0.560405
O O11 0.000000 0.542854 0.129390
O O12 0.000000 0.500000 0.000000
O O13 0.780872 0.250000 0.649180
O O14 0.628189 0.362204 0.698110
O O15 0.500000 0.750000 0.358206
#
# Coordination Sequence:
#
# PCOD9534709 Si02
#       6
#    16  16  16   8  16   8
#     4   9  19  39  63  84 109 140 174 219 277 336
#     4  11  22  36  54  77 107 144 182 222 269 317
#     4  11  21  32  48  75 110 148 185 223 264 317
#     4  12  17  29  48  69 101 140 183 229 270 307
#     4  10  20  34  51  75 109 148 186 223 263 312
#     4  10  18  31  50  69 100 146 188 227 274 309
#
# _framework density 24.818586
#
# number of rings (size 3 to 8) (size 9 to 14) (size 15 to 20)
#    0.000    1.600    4.000    1.500    0.000    3.200 
#    3.600    2.000    0.000    0.600    0.000    0.000 
#    0.000    0.000    0.000    0.000    0.000    0.000 
#
# Total GULP energy -222792.338286 kJ/mol
# GULP energy per Si atom -5569.808457 kJ/mol
# Density = 2.476210 g / cm^3
# Si number density = 24.818586 Si / 1000 Ang^3
#
#
#
# Elastic Constant Matrix: (Units=GPa)
#
#
# Indices 1 2 3 4 5 6 
#
# 1 177.2043 57.2204 0.7870 0.0000 0.0000 0.0000
# 2 57.2204 151.4348 16.0080 0.0000 0.0000 0.0000
# 3 0.7870 16.0080 30.7512 0.0000 0.0000 0.0000
# 4 0.0000 0.0000 0.0000 25.2476 0.0000 0.0000
# 5 0.0000 0.0000 0.0000 0.0000 13.1738 0.0000
# 6 0.0000 0.0000 0.0000 0.0000 0.0000 11.7579
#
#
#
# Elastic Compliance Matrix: (Units=1/GPa)
#
#
# Indices 1 2 3 4 5 6 
#
# 1 0.006467 -0.002567 0.001171 0.000000 0.000000 0.000000
# 2 -0.002567 0.008007 -0.004103 0.000000 0.000000 0.000000
# 3 0.001171 -0.004103 0.034625 0.000000 0.000000 0.000000
# 4 0.000000 0.000000 0.000000 0.039608 0.000000 0.000000
# 5 0.000000 0.000000 0.000000 0.000000 0.075908 0.000000
# 6 0.000000 0.000000 0.000000 0.000000 0.000000 0.085049
#
#
# Mechanical properties :
#
#
# Convention : Reuss Voigt Hill
#
# Bulk Modulus (GPa) = 26.24603 56.38015 41.31309
# Shear Modulus (GPa) = 18.29073 29.06085 23.67579
#
# Velocity S-wave (km/s) = 2.71768 3.42560 3.09197
# Velocity P-wave (km/s) = 4.52170 6.19778 5.42487
#
# Compressibility (1/GPa) = 0.03810100
#
# Stress axis : x y z
#
# Youngs Moduli (GPa) = 154.63057 124.88632 28.88111
#
# Poissons Ratio (x) = 0.32063 -0.03382
# Poissons Ratio (y) = 0.39700 0.11849
# Poissons Ratio (z) = -0.18107 0.51236
#
# Static dielectric constant tensor:
#      x y z
#    x 2.194040 0.000000 0.000000 
#    y 0.000000 1.889650 0.000000 
#    z 0.000000 0.000000 2.257570 
# 
# From -- ./inp_files/65861.got.cif
#   From: 2010.05.17/outbox.cif.g08.bks.cpg/sg74_33_cif.got.tgz:65861.got - 2010.06.03 17:57:02.
