data_PCOD9534855
_publ_section_title
;
Structure prediction by ZEFSAII (Michael W. Deem and Ramdas Pophale) SiO2 
 PCOD9534855
Probable space group: I M M A
;
_chemical_formula_sum "Si O2"
_cell_formula_units_Z 104
_cell_length_a 7.767958
_cell_length_b 27.820442
_cell_length_c 24.373012
_cell_angle_alpha 90.000000
_cell_angle_beta 90.000000
_cell_angle_gamma 90.000000
_cell_volume 5267.203487
_symmetry_space_group_name_H-M "I M M A"
_symmetry_group_IT_number 74
_symmetry_cell_setting 'orthorhombic'
loop_
_space_group_symop_operation_xyz
x,y,z
-x,1/2-y,z
x,-y,-z
-x,1/2+y,-z
-x,-y,-z
x,1/2+y,-z
-x,y,z
x,1/2-y,z
1/2+x,1/2+y,1/2+z
1/2-x,-y,1/2+z
1/2+x,1/2-y,1/2-z
1/2-x,y,1/2-z
1/2-x,1/2-y,1/2-z
1/2+x,y,1/2-z
1/2-x,1/2+y,1/2+z
1/2+x,-y,1/2+z
loop_
_atom_site_type_symbol
_atom_site_label
_atom_site_fract_x
_atom_site_fract_y
_atom_site_fract_z
Si Si1 0.790243 0.542265 0.618235
Si Si2 0.293441 0.631058 0.812869
Si Si3 0.209429 0.394069 0.485981
Si Si4 0.212235 0.933229 0.395893
Si Si5 0.789397 0.804997 0.584312
Si Si6 0.702300 0.250000 0.685376
Si Si7 0.298727 0.145984 0.813716
O O1 0.732356 0.578355 0.666534
O O2 0.741839 0.568412 0.561543
O O3 0.731374 0.487401 0.617302
O O4 0.000000 0.541164 0.620096
O O5 0.500000 0.630593 0.816878
O O6 0.250000 0.641156 0.750000
O O7 0.234666 0.670105 0.858158
O O8 0.267052 0.413038 0.544861
O O9 0.264121 0.341450 0.464351
O O10 0.000000 0.393075 0.487415
O O11 0.277678 0.896205 0.350135
O O12 0.000000 0.933952 0.396625
O O13 0.731343 0.750000 0.579098
O O14 0.000000 0.804424 0.584311
O O15 0.500000 0.250000 0.681735
O O16 0.750000 0.250000 0.750000
O O17 0.765762 0.300694 0.662857
O O18 0.500000 0.138686 0.815070
O O19 0.250000 0.144612 0.750000
#
# Coordination Sequence:
#
# PCOD9534855 Si02
#       7
#    16  16  16  16  16   8  16
#     4   8  14  25  41  60  88 121 149 182 226 272
#     4   9  17  28  43  64  90 121 154 184 219 264
#     4   8  13  23  39  61  88 119 149 181 229 274
#     4   9  16  25  40  65  92 117 147 185 226 267
#     4   8  14  25  40  60  89 120 146 181 231 275
#     4  10  18  32  52  66  82 114 150 178 215 260
#     4  10  19  31  46  67  94 118 146 182 224 267
#
# _framework density 19.744823
#
# number of rings (size 3 to 8) (size 9 to 14) (size 15 to 20)
#    0.000    3.231    0.000    4.385    0.000    2.769 
#    1.385    0.000    0.000    0.923    0.000    8.615 
#    0.000    9.846    0.000    0.000    0.000    0.000 
#
# Total GULP energy -289730.623569 kJ/mol
# GULP energy per Si atom -5571.742761 kJ/mol
# Density = 1.969988 g / cm^3
# Si number density = 19.744823 Si / 1000 Ang^3
#
#
#
# Elastic Constant Matrix: (Units=GPa)
#
#
# Indices 1 2 3 4 5 6 
#
# 1 21.9087 1.4529 2.3391 0.0000 0.0000 0.0000
# 2 1.4529 181.4774 28.7341 0.0000 0.0000 0.0000
# 3 2.3391 28.7341 14.5168 0.0000 0.0000 0.0000
# 4 0.0000 0.0000 0.0000 12.4062 0.0000 0.0000
# 5 0.0000 0.0000 0.0000 0.0000 10.7875 0.0000
# 6 0.0000 0.0000 0.0000 0.0000 0.0000 -2.6258
#
#
#
# Elastic Compliance Matrix: (Units=1/GPa)
#
#
# Indices 1 2 3 4 5 6 
#
# 1 0.046618 0.001189 -0.009864 0.000000 0.000000 0.000000
# 2 0.001189 0.008056 -0.016137 0.000000 0.000000 0.000000
# 3 -0.009864 -0.016137 0.102416 0.000000 0.000000 0.000000
# 4 0.000000 0.000000 0.000000 0.080605 0.000000 0.000000
# 5 0.000000 0.000000 0.000000 0.000000 0.092700 0.000000
# 6 0.000000 0.000000 0.000000 0.000000 0.000000 -0.380832
#
#
# Mechanical properties :
#
#
# Convention : Reuss Voigt Hill
#
# Bulk Modulus (GPa) = 9.30537 31.43946 20.37241
# Shear Modulus (GPa) = 142.81966 16.47203 79.64585
#
# Velocity S-wave (km/s) = 8.51409 2.89146 6.35808
# Velocity P-wave (km/s) = 10.06857 5.20623 8.01501
#
# Compressibility (1/GPa) = 0.10746488
#
# Stress axis : x y z
#
# Youngs Moduli (GPa) = 21.45079 124.13356 9.76412
#
# Poissons Ratio (x) = -0.14755 0.09632
# Poissons Ratio (y) = -0.02550 0.15756
# Poissons Ratio (z) = 0.21159 2.00314
#
# Static dielectric constant tensor:
#      x y z
#    x 1.724680 0.000000 0.000000 
#    y 0.000000 1.676740 0.000000 
#    z 0.000000 0.000000 1.716440 
# 
# From -- ./inp_files/57603.got.cif
#   From: 2010.05.17/outbox.cif.g08.bks.cpg/sg74_29_cif.got.tgz:57603.got - 2010.06.03 17:57:02.
