data_PCOD9534346
_publ_section_title
;
Structure prediction by ZEFSAII (Michael W. Deem and Ramdas Pophale) SiO2 
 PCOD9534346
Probable space group: I M M A
;
_chemical_formula_sum "Si O2"
_cell_formula_units_Z 80
_cell_length_a 8.825861
_cell_length_b 26.779570
_cell_length_c 19.275522
_cell_angle_alpha 90.000000
_cell_angle_beta 90.000000
_cell_angle_gamma 90.000000
_cell_volume 4555.822873
_symmetry_space_group_name_H-M "I M M A"
_symmetry_group_IT_number 74
_symmetry_cell_setting 'orthorhombic'
loop_
_space_group_symop_operation_xyz
x,y,z
-x,1/2-y,z
x,-y,-z
-x,1/2+y,-z
-x,-y,-z
x,1/2+y,-z
-x,y,z
x,1/2-y,z
1/2+x,1/2+y,1/2+z
1/2-x,-y,1/2+z
1/2+x,1/2-y,1/2-z
1/2-x,y,1/2-z
1/2-x,1/2-y,1/2-z
1/2+x,y,1/2-z
1/2-x,1/2+y,1/2+z
1/2+x,-y,1/2+z
loop_
_atom_site_type_symbol
_atom_site_label
_atom_site_fract_x
_atom_site_fract_y
_atom_site_fract_z
Si Si1 0.178650 0.750000 0.080701
Si Si2 0.819346 0.250000 0.428100
Si Si3 0.680658 0.140028 0.082832
Si Si4 0.817540 0.948356 0.326753
Si Si5 0.181353 0.853361 0.419260
Si Si6 0.680444 0.446727 0.326591
O O1 0.245778 0.802091 0.108041
O O2 0.000000 0.750000 0.087950
O O3 0.227840 0.750000 0.999758
O O4 0.788841 0.197019 0.392248
O O5 0.000000 0.250000 0.445864
O O6 0.500000 0.130788 0.089702
O O7 0.770781 0.098762 0.124779
O O8 0.718720 0.139077 0.000727
O O9 0.750000 0.940781 0.250000
O O10 0.775696 0.901891 0.375344
O O11 0.000000 0.951878 0.323200
O O12 0.750475 0.000925 0.352781
O O13 0.000000 0.847531 0.415883
O O14 0.500000 0.450923 0.321599
O O15 0.750000 0.438818 0.250000
#
# Coordination Sequence:
#
# PCOD9534346 Si02
#       6
#     8   8  16  16  16  16
#     4  10  18  28  49  78 107 134 166 210 254 294
#     4   8  16  32  53  74 103 140 170 200 250 308
#     4   9  17  33  55  78 102 132 171 210 247 297
#     4  10  20  36  56  76 100 135 173 211 255 304
#     4   9  19  35  55  76 103 138 172 205 251 308
#     4  11  22  36  53  74 102 136 170 209 256 306
#
# _framework density 17.559944999999999
#
# number of rings (size 3 to 8) (size 9 to 14) (size 15 to 20)
#    0.000    2.400    0.000    5.700    0.000    5.600 
#    0.000    5.000    0.000    0.000    0.000    0.000 
#    0.000    0.000    0.000    0.000    0.000    0.000 
#
# Total GULP energy -223050.349892 kJ/mol
# GULP energy per Si atom -5576.258747 kJ/mol
# Density = 1.751998 g / cm^3
# Si number density = 17.559945 Si / 1000 Ang^3
#
#
#
# Elastic Constant Matrix: (Units=GPa)
#
#
# Indices 1 2 3 4 5 6 
#
# 1 72.9738 73.6909 31.3263 0.0001 0.0000 0.0000
# 2 73.6909 196.8171 68.6372 0.0001 0.0000 0.0000
# 3 31.3263 68.6372 38.8506 0.0004 0.0000 0.0000
# 4 0.0001 0.0001 0.0004 -99.5699 0.0000 0.0000
# 5 0.0000 0.0000 0.0000 0.0000 23.2543 0.0000
# 6 0.0000 0.0000 0.0000 0.0000 0.0000 29.8742
#
#
#
# Elastic Compliance Matrix: (Units=1/GPa)
#
#
# Indices 1 2 3 4 5 6 
#
# 1 0.023116 -0.005613 -0.008723 0.000000 0.000000 0.000000
# 2 -0.005613 0.014598 -0.021265 0.000000 0.000000 0.000000
# 3 -0.008723 -0.021265 0.070341 0.000000 0.000000 0.000000
# 4 0.000000 0.000000 0.000000 -0.010043 0.000000 0.000000
# 5 0.000000 0.000000 0.000000 0.000000 0.043003 0.000000
# 6 0.000000 0.000000 0.000000 0.000000 0.000000 0.033474
#
#
# Mechanical properties :
#
#
# Convention : Reuss Voigt Hill
#
# Bulk Modulus (GPa) = 27.13343 72.88337 50.00840
# Shear Modulus (GPa) = 19.38174 -0.28916 9.54629
#
# Velocity S-wave (km/s) = 3.32587 -0.40624 2.33414
# Velocity P-wave (km/s) = 5.49855 6.43238 5.98371
#
# Compressibility (1/GPa) = 0.03685490
#
# Stress axis : x y z
#
# Youngs Moduli (GPa) = 43.25946 68.50138 14.21644
#
# Poissons Ratio (x) = 0.38451 0.12400
# Poissons Ratio (y) = 0.24282 0.30231
# Poissons Ratio (z) = 0.37733 1.45666
#
# Static dielectric constant tensor:
#      x y z
#    x 1.586210 0.000000 0.000000 
#    y 0.000000 1.622280 0.000000 
#    z 0.000000 0.000000 1.576620 
# 
# From -- ./inp_files/46525.got.cif
#   From: 2010.05.17/outbox.cif.g08.bks.cpg/sg74_24_cif.got.tgz:46525.got - 2010.06.03 17:57:02.
