data_PCOD9534890
_publ_section_title
;
Structure prediction by ZEFSAII (Michael W. Deem and Ramdas Pophale) SiO2 
 PCOD9534890
Probable space group: I M M A
;
_chemical_formula_sum "Si O2"
_cell_formula_units_Z 96
_cell_length_a 8.812083
_cell_length_b 27.212759
_cell_length_c 21.059075
_cell_angle_alpha 90.000000
_cell_angle_beta 90.000000
_cell_angle_gamma 90.000000
_cell_volume 5049.989160
_symmetry_space_group_name_H-M "I M M A"
_symmetry_group_IT_number 74
_symmetry_cell_setting 'orthorhombic'
loop_
_space_group_symop_operation_xyz
x,y,z
-x,1/2-y,z
x,-y,-z
-x,1/2+y,-z
-x,-y,-z
x,1/2+y,-z
-x,y,z
x,1/2-y,z
1/2+x,1/2+y,1/2+z
1/2-x,-y,1/2+z
1/2+x,1/2-y,1/2-z
1/2-x,y,1/2-z
1/2-x,1/2-y,1/2-z
1/2+x,y,1/2-z
1/2-x,1/2+y,1/2+z
1/2+x,-y,1/2+z
loop_
_atom_site_type_symbol
_atom_site_label
_atom_site_fract_x
_atom_site_fract_y
_atom_site_fract_z
Si Si1 0.681953 0.424775 0.818347
Si Si2 0.815314 0.693119 0.945301
Si Si3 0.824625 0.870691 0.061879
Si Si4 0.172940 0.959969 0.665195
Si Si5 0.163278 0.443636 0.482747
Si Si6 0.321302 0.140555 0.314670
O O1 0.500000 0.422721 0.817517
O O2 0.750000 0.410995 0.750000
O O3 0.742471 0.389232 0.874212
O O4 0.722251 0.482968 0.829331
O O5 0.773907 0.750000 0.938741
O O6 0.764528 0.663444 0.881981
O O7 0.000000 0.689334 0.946639
O O8 0.764338 0.671901 0.014098
O O9 0.000000 0.860971 0.076863
O O10 0.802691 0.916525 0.014220
O O11 0.162855 0.944943 0.592000
O O12 0.285530 0.917686 0.688082
O O13 0.000000 0.956183 0.691545
O O14 0.166641 0.500000 0.500000
O O15 0.000000 0.422699 0.506210
O O16 0.500000 0.148672 0.312780
O O17 0.250000 0.162194 0.250000
#
# Coordination Sequence:
#
# PCOD9534890 Si02
#       6
#    16  16  16  16  16  16
#     4  11  23  39  56  82 117 155 189 226 274 330
#     4   9  20  39  60  82 109 141 183 235 288 338
#     4  11  21  35  58  85 109 144 188 232 282 335
#     4  10  20  34  54  79 113 154 190 224 266 317
#     4  10  18  32  52  78 111 148 184 223 274 322
#     4  11  22  36  55  81 113 151 191 233 277 324
#
# _framework density 19.009941000000001
#
# number of rings (size 3 to 8) (size 9 to 14) (size 15 to 20)
#    0.000    1.667    3.333    2.000    0.000    3.333 
#    0.000    0.000    0.000    8.000    0.000    0.000 
#    0.000    0.000    0.000    0.000    0.000    0.000 
#
# Total GULP energy -267301.324650 kJ/mol
# GULP energy per Si atom -5568.777597 kJ/mol
# Density = 1.896667 g / cm^3
# Si number density = 19.009941 Si / 1000 Ang^3
#
#
#
# Elastic Constant Matrix: (Units=GPa)
#
#
# Indices 1 2 3 4 5 6 
#
# 1 33.3061 22.8809 37.0154 0.0000 0.0000 0.0000
# 2 22.8809 87.1467 57.0192 0.0000 0.0000 0.0000
# 3 37.0154 57.0192 151.1394 0.0000 0.0000 0.0000
# 4 0.0000 0.0000 0.0000 12.2578 0.0000 0.0000
# 5 0.0000 0.0000 0.0000 0.0000 44.7126 0.0000
# 6 0.0000 0.0000 0.0000 0.0000 0.0000 12.4576
#
#
#
# Elastic Compliance Matrix: (Units=1/GPa)
#
#
# Indices 1 2 3 4 5 6 
#
# 1 0.043423 -0.005899 -0.008409 0.000000 0.000000 0.000000
# 2 -0.005899 0.016037 -0.004605 0.000000 0.000000 0.000000
# 3 -0.008409 -0.004605 0.010413 0.000000 0.000000 0.000000
# 4 0.000000 0.000000 0.000000 0.081581 0.000000 0.000000
# 5 0.000000 0.000000 0.000000 0.000000 0.022365 0.000000
# 6 0.000000 0.000000 0.000000 0.000000 0.000000 0.080272
#
#
# Mechanical properties :
#
#
# Convention : Reuss Voigt Hill
#
# Bulk Modulus (GPa) = 31.20514 56.15813 43.68163
# Shear Modulus (GPa) = 16.52347 24.19740 20.36043
#
# Velocity S-wave (km/s) = 2.95142 3.57162 3.27623
# Velocity P-wave (km/s) = 5.29767 6.82746 6.11063
#
# Compressibility (1/GPa) = 0.03204600
#
# Stress axis : x y z
#
# Youngs Moduli (GPa) = 23.02948 62.35587 96.03044
#
# Poissons Ratio (x) = 0.36783 0.80754
# Poissons Ratio (y) = 0.13585 0.44227
# Poissons Ratio (z) = 0.19366 0.28718
#
# Static dielectric constant tensor:
#      x y z
#    x 1.711700 0.000000 0.000000 
#    y 0.000000 1.649240 0.000000 
#    z 0.000000 0.000000 1.714380 
# 
# From -- ./inp_files/49067.got.cif
#   From: 2010.05.17/outbox.cif.g08.bks.cpg/sg74_25_cif.got.tgz:49067.got - 2010.06.03 17:57:02.
