data_PCOD9534736
_publ_section_title
;
Structure prediction by ZEFSAII (Michael W. Deem and Ramdas Pophale) SiO2 
 PCOD9534736
Probable space group: I M M A
;
_chemical_formula_sum "Si O2"
_cell_formula_units_Z 96
_cell_length_a 18.326350
_cell_length_b 20.498814
_cell_length_c 14.010342
_cell_angle_alpha 90.000000
_cell_angle_beta 90.000000
_cell_angle_gamma 90.000000
_cell_volume 5263.243322
_symmetry_space_group_name_H-M "I M M A"
_symmetry_group_IT_number 74
_symmetry_cell_setting 'orthorhombic'
loop_
_space_group_symop_operation_xyz
x,y,z
-x,1/2-y,z
x,-y,-z
-x,1/2+y,-z
-x,-y,-z
x,1/2+y,-z
-x,y,z
x,1/2-y,z
1/2+x,1/2+y,1/2+z
1/2-x,-y,1/2+z
1/2+x,1/2-y,1/2-z
1/2-x,y,1/2-z
1/2-x,1/2-y,1/2-z
1/2+x,y,1/2-z
1/2-x,1/2+y,1/2+z
1/2+x,-y,1/2+z
loop_
_atom_site_type_symbol
_atom_site_label
_atom_site_fract_x
_atom_site_fract_y
_atom_site_fract_z
Si Si1 0.704869 0.677371 0.546879
Si Si2 0.837312 0.550515 0.262113
Si Si3 0.875187 0.675157 0.604467
Si Si4 0.664091 0.905302 0.717656
Si Si5 0.420208 0.429827 0.949592
Si Si6 0.180237 0.178284 0.822426
O O1 0.676442 0.750000 0.571316
O O2 0.789558 0.676304 0.576701
O O3 0.664638 0.623464 0.610978
O O4 0.702008 0.670423 0.432954
O O5 0.750000 0.547105 0.250000
O O6 0.864001 0.479199 0.230204
O O7 0.858069 0.566488 0.370451
O O8 0.863931 0.613675 0.204386
O O9 0.901617 0.750000 0.603208
O O10 0.877680 0.641854 0.708507
O O11 0.910555 0.627299 0.526655
O O12 0.750000 0.905023 0.750000
O O13 0.500000 0.422460 0.903274
O O14 0.418353 0.500000 0.000000
O O15 0.145148 0.250000 0.811629
O O16 0.250000 0.179437 0.750000
#
# Coordination Sequence:
#
# PCOD9534736 Si02
#       6
#    16  16  16  16  16  16
#     4   9  17  29  47  75 112 143 170 225 292 332
#     4  10  19  33  52  77 105 138 186 233 271 327
#     4  10  18  31  51  74 104 142 184 224 268 335
#     4   9  17  28  45  74 106 139 178 224 276 330
#     4  11  23  38  54  76 114 153 178 220 287 342
#     4   9  17  29  44  69 104 140 176 221 281 330
#
# _framework density 18.239702999999999
#
# number of rings (size 3 to 8) (size 9 to 14) (size 15 to 20)
#    0.000    2.333    1.667    2.500    0.000    5.000 
#    0.000    0.000    0.000    0.000    0.000    3.500 
#    0.000    2.667    0.000    0.000    0.000    0.000 
#
# Total GULP energy -267220.730938 kJ/mol
# GULP energy per Si atom -5567.098561 kJ/mol
# Density = 1.819819 g / cm^3
# Si number density = 18.239703 Si / 1000 Ang^3
#
#
#
# Elastic Constant Matrix: (Units=GPa)
#
#
# Indices 1 2 3 4 5 6 
#
# 1 28.6370 10.5530 17.8160 0.0000 0.0000 0.0000
# 2 10.5530 182.4338 60.8770 0.0000 0.0000 0.0000
# 3 17.8160 60.8770 108.3291 0.0000 0.0000 0.0000
# 4 0.0000 0.0000 0.0000 30.2428 0.0000 0.0000
# 5 0.0000 0.0000 0.0000 0.0000 5.8345 0.0000
# 6 0.0000 0.0000 0.0000 0.0000 0.0000 24.0619
#
#
#
# Elastic Compliance Matrix: (Units=1/GPa)
#
#
# Indices 1 2 3 4 5 6 
#
# 1 0.038903 -0.000142 -0.006318 0.000000 0.000000 0.000000
# 2 -0.000142 0.006747 -0.003768 0.000000 0.000000 0.000000
# 3 -0.006318 -0.003768 0.012388 0.000000 0.000000 0.000000
# 4 0.000000 0.000000 0.000000 0.033066 0.000000 0.000000
# 5 0.000000 0.000000 0.000000 0.000000 0.171393 0.000000
# 6 0.000000 0.000000 0.000000 0.000000 0.000000 0.041559
#
#
# Mechanical properties :
#
#
# Convention : Reuss Voigt Hill
#
# Bulk Modulus (GPa) = 26.60926 55.32134 40.96530
# Shear Modulus (GPa) = 14.83503 27.37144 21.10323
#
# Velocity S-wave (km/s) = 2.85500 3.87803 3.40515
# Velocity P-wave (km/s) = 5.04860 7.10269 6.16184
#
# Compressibility (1/GPa) = 0.03758090
#
# Stress axis : x y z
#
# Youngs Moduli (GPa) = 25.70495 148.21170 80.72411
#
# Poissons Ratio (x) = 0.02105 0.51004
# Poissons Ratio (y) = 0.00365 0.30419
# Poissons Ratio (z) = 0.16241 0.55850
#
# Static dielectric constant tensor:
#      x y z
#    x 1.611310 0.000000 0.000000 
#    y 0.000000 1.685140 0.000000 
#    z 0.000000 0.000000 1.627870 
# 
# From -- ./inp_files/23908.got.cif
#   From: 2010.05.17/outbox.cif.g08.bks.cpg/sg74_12_cif.got.tgz:23908.got - 2010.06.03 17:57:02.
