data_PCOD9534958
_publ_section_title
;
Structure prediction by ZEFSAII (Michael W. Deem and Ramdas Pophale) SiO2 
 PCOD9534958
Probable space group: I M M A
;
_chemical_formula_sum "Si O2"
_cell_formula_units_Z 120
_cell_length_a 8.670234
_cell_length_b 27.674289
_cell_length_c 28.458388
_cell_angle_alpha 90.000000
_cell_angle_beta 90.000000
_cell_angle_gamma 90.000000
_cell_volume 6828.378510
_symmetry_space_group_name_H-M "I M M A"
_symmetry_group_IT_number 74
_symmetry_cell_setting 'orthorhombic'
loop_
_space_group_symop_operation_xyz
x,y,z
-x,1/2-y,z
x,-y,-z
-x,1/2+y,-z
-x,-y,-z
x,1/2+y,-z
-x,y,z
x,1/2-y,z
1/2+x,1/2+y,1/2+z
1/2-x,-y,1/2+z
1/2+x,1/2-y,1/2-z
1/2-x,y,1/2-z
1/2-x,1/2-y,1/2-z
1/2+x,y,1/2-z
1/2-x,1/2+y,1/2+z
1/2+x,-y,1/2+z
loop_
_atom_site_type_symbol
_atom_site_label
_atom_site_fract_x
_atom_site_fract_y
_atom_site_fract_z
Si Si1 0.313739 0.945421 0.135398
Si Si2 0.815019 0.250000 0.803259
Si Si3 0.686083 0.351890 0.803164
Si Si4 0.684706 0.951660 0.648730
Si Si5 0.185292 0.194674 0.393936
Si Si6 0.683621 0.860549 0.799665
Si Si7 0.683192 0.104845 0.445172
Si Si8 0.314628 0.548095 0.027249
O O1 0.500000 0.947454 0.135690
O O2 0.269514 0.897594 0.164453
O O3 0.260764 0.945705 0.080815
O O4 0.249755 0.995088 0.156835
O O5 0.750000 0.250000 0.750000
O O6 0.751931 0.300939 0.822736
O O7 0.000000 0.250000 0.803051
O O8 0.500000 0.348768 0.801014
O O9 0.750000 0.358361 0.750000
O O10 0.500000 0.952275 0.649927
O O11 0.746567 0.912128 0.685149
O O12 0.734190 0.931632 0.597012
O O13 0.228742 0.250000 0.400912
O O14 0.222247 0.176693 0.341281
O O15 0.269102 0.157722 0.428233
O O16 0.000000 0.190020 0.399760
O O17 0.500000 0.864925 0.797074
O O18 0.750000 0.845069 0.750000
O O19 0.500000 0.100603 0.449557
O O20 0.762957 0.091064 0.493576
O O21 0.500000 0.545418 0.028724
O O22 0.257191 0.500000 0.000000
#
# Coordination Sequence:
#
# PCOD9534958 Si02
#       8
#    16   8  16  16  16  16  16  16
#     4  10  21  35  53  80 109 140 177 220 262 308
#     4  10  18  32  56  80 102 132 172 208 250 300
#     4  10  20  35  55  79 108 138 174 213 256 305
#     4  10  20  33  50  73 104 140 176 213 261 319
#     4   9  19  36  57  78 101 136 182 226 269 323
#     4  10  20  34  52  74 104 139 178 223 271 322
#     4  10  20  33  52  79 107 136 172 218 271 320
#     4  10  19  33  56  80 105 139 180 218 259 311
#
# _framework density 17.573718
#
# number of rings (size 3 to 8) (size 9 to 14) (size 15 to 20)
#    0.000    2.133    1.333    3.000    0.000    4.533 
#    0.000    1.333    1.467    0.000    0.000    0.000 
#    0.000    0.000    0.000    0.000    0.000    0.000 
#
# Total GULP energy -334760.278066 kJ/mol
# GULP energy per Si atom -5579.337968 kJ/mol
# Density = 1.753372 g / cm^3
# Si number density = 17.573718 Si / 1000 Ang^3
#
#
#
# Elastic Constant Matrix: (Units=GPa)
#
#
# Indices 1 2 3 4 5 6 
#
# 1 23.9302 25.1052 12.2215 0.0000 0.0000 0.0000
# 2 25.1052 121.2123 23.9537 0.0000 0.0000 0.0000
# 3 12.2215 23.9537 53.4103 0.0000 0.0000 0.0000
# 4 0.0000 0.0000 0.0000 15.0314 0.0000 0.0000
# 5 0.0000 0.0000 0.0000 0.0000 22.5554 0.0000
# 6 0.0000 0.0000 0.0000 0.0000 0.0000 4.6396
#
#
#
# Elastic Compliance Matrix: (Units=1/GPa)
#
#
# Indices 1 2 3 4 5 6 
#
# 1 0.056665 -0.010066 -0.008452 0.000000 0.000000 0.000000
# 2 -0.010066 0.010840 -0.002558 0.000000 0.000000 0.000000
# 3 -0.008452 -0.002558 0.021804 0.000000 0.000000 0.000000
# 4 0.000000 0.000000 0.000000 0.066527 0.000000 0.000000
# 5 0.000000 0.000000 0.000000 0.000000 0.044335 0.000000
# 6 0.000000 0.000000 0.000000 0.000000 0.000000 0.215535
#
#
# Mechanical properties :
#
#
# Convention : Reuss Voigt Hill
#
# Bulk Modulus (GPa) = 21.20567 35.67929 28.44248
# Shear Modulus (GPa) = 10.55789 17.59677 14.07733
#
# Velocity S-wave (km/s) = 2.45373 3.16778 2.83334
# Velocity P-wave (km/s) = 4.48560 5.80745 5.18879
#
# Compressibility (1/GPa) = 0.04715721
#
# Stress axis : x y z
#
# Youngs Moduli (GPa) = 17.64757 92.24720 45.86239
#
# Poissons Ratio (x) = 0.92857 0.38762
# Poissons Ratio (y) = 0.17764 0.11733
# Poissons Ratio (z) = 0.14915 0.23601
#
# Static dielectric constant tensor:
#      x y z
#    x 1.592410 0.000000 0.000000 
#    y 0.000000 1.600370 0.000000 
#    z 0.000000 0.000000 1.596340 
# 
# From -- ./inp_files/65042.got.cif
#   From: 2010.05.17/outbox.cif.g08.bks.cpg/sg74_33_cif.got.tgz:65042.got - 2010.06.03 17:57:02.
