data_PCOD9534059
_publ_section_title
;
Structure prediction by ZEFSAII (Michael W. Deem and Ramdas Pophale) SiO2 
 PCOD9534059
Probable space group: I M M A
;
_chemical_formula_sum "Si O2"
_cell_formula_units_Z 112
_cell_length_a 17.496432
_cell_length_b 17.587631
_cell_length_c 20.539665
_cell_angle_alpha 90.000000
_cell_angle_beta 90.000000
_cell_angle_gamma 90.000000
_cell_volume 6320.481937
_symmetry_space_group_name_H-M "I M M A"
_symmetry_group_IT_number 74
_symmetry_cell_setting 'orthorhombic'
loop_
_space_group_symop_operation_xyz
x,y,z
-x,1/2-y,z
x,-y,-z
-x,1/2+y,-z
-x,-y,-z
x,1/2+y,-z
-x,y,z
x,1/2-y,z
1/2+x,1/2+y,1/2+z
1/2-x,-y,1/2+z
1/2+x,1/2-y,1/2-z
1/2-x,y,1/2-z
1/2-x,1/2-y,1/2-z
1/2+x,y,1/2-z
1/2-x,1/2+y,1/2+z
1/2+x,-y,1/2+z
loop_
_atom_site_type_symbol
_atom_site_label
_atom_site_fract_x
_atom_site_fract_y
_atom_site_fract_z
Si Si1 0.288302 0.664423 0.117738
Si Si2 0.586268 0.077850 0.808837
Si Si3 0.591621 0.839262 0.787765
Si Si4 0.289824 0.014752 0.572998
Si Si5 0.375787 0.552976 0.904989
Si Si6 0.581423 0.332737 0.989553
Si Si7 0.833126 0.963902 0.787022
O O1 0.259787 0.750000 0.129757
O O2 0.343538 0.634834 0.175944
O O3 0.226357 0.602047 0.095354
O O4 0.347907 0.666644 0.058055
O O5 0.500000 0.107834 0.800200
O O6 0.586351 0.019410 0.870407
O O7 0.612855 0.025703 0.748507
O O8 0.500000 0.852309 0.789179
O O9 0.605496 0.750000 0.788706
O O10 0.627215 0.882441 0.849619
O O11 0.630742 0.881946 0.727737
O O12 0.321749 0.000000 0.500000
O O13 0.206838 0.974489 0.572742
O O14 0.329483 0.978784 0.636324
O O15 0.415506 0.595081 0.964210
O O16 0.500000 0.333983 0.953593
O O17 0.583715 0.250000 0.025164
O O18 0.750000 0.969631 0.750000
#
# Coordination Sequence:
#
# PCOD9534059 Si02
#       7
#    16  16  16  16  16  16  16
#     4  10  20  33  50  73 105 140 175 217 270 321
#     4  10  20  33  53  75 100 133 172 226 275 312
#     4  10  20  34  54  83 116 142 169 213 268 320
#     4  11  21  37  52  74 107 145 182 224 263 313
#     4  10  17  29  48  71 103 145 176 203 247 311
#     4  10  18  26  39  65 102 141 176 207 243 301
#     4  11  19  36  56  78 104 142 185 221 258 316
#
# _framework density 17.720168000000001
#
# number of rings (size 3 to 8) (size 9 to 14) (size 15 to 20)
#    0.000    1.714    5.714    3.429    0.000    2.286 
#    0.000    4.286    0.000    1.714    0.000    0.000 
#    0.000    0.000    0.000    0.000    0.000    0.000 
#
# Total GULP energy -312038.620838 kJ/mol
# GULP energy per Si atom -5572.118229 kJ/mol
# Density = 1.767984 g / cm^3
# Si number density = 17.720168 Si / 1000 Ang^3
#
#
#
# Elastic Constant Matrix: (Units=GPa)
#
#
# Indices 1 2 3 4 5 6 
#
# 1 12.9683 10.2496 10.7297 0.0000 0.0000 0.0000
# 2 10.2496 106.4079 21.8182 0.0000 0.0000 0.0000
# 3 10.7297 21.8182 75.9878 0.0000 0.0000 0.0000
# 4 0.0000 0.0000 0.0000 16.9722 0.0000 0.0000
# 5 0.0000 0.0000 0.0000 0.0000 18.7379 0.0000
# 6 0.0000 0.0000 0.0000 0.0000 0.0000 21.5744
#
#
#
# Elastic Compliance Matrix: (Units=1/GPa)
#
#
# Indices 1 2 3 4 5 6 
#
# 1 0.091407 -0.006543 -0.011028 0.000000 0.000000 0.000000
# 2 -0.006543 0.010454 -0.002078 0.000000 0.000000 0.000000
# 3 -0.011028 -0.002078 0.015314 0.000000 0.000000 0.000000
# 4 0.000000 0.000000 0.000000 0.058920 0.000000 0.000000
# 5 0.000000 0.000000 0.000000 0.000000 0.053368 0.000000
# 6 0.000000 0.000000 0.000000 0.000000 0.000000 0.046351
#
#
# Mechanical properties :
#
#
# Convention : Reuss Voigt Hill
#
# Bulk Modulus (GPa) = 12.84083 31.21767 22.02925
# Shear Modulus (GPa) = 14.65967 21.62800 18.14384
#
# Velocity S-wave (km/s) = 2.87938 3.49740 3.20333
# Velocity P-wave (km/s) = 4.27979 5.82789 5.11278
#
# Compressibility (1/GPa) = 0.07787657
#
# Stress axis : x y z
#
# Youngs Moduli (GPa) = 10.94003 95.65627 65.30057
#
# Poissons Ratio (x) = 0.62592 0.72015
# Poissons Ratio (y) = 0.07159 0.13568
# Poissons Ratio (z) = 0.12065 0.19875
#
# Static dielectric constant tensor:
#      x y z
#    x 1.605040 0.000000 0.000000 
#    y 0.000000 1.655480 0.000000 
#    z 0.000000 0.000000 1.647740 
# 
# From -- ./inp_files/61100.got.cif
#   From: 2010.05.17/outbox.cif.g08.bks.cpg/sg74_31_cif.got.tgz:61100.got - 2010.06.03 17:57:02.
