data_PCOD9534853
_publ_section_title
;
Structure prediction by ZEFSAII (Michael W. Deem and Ramdas Pophale) SiO2 
 PCOD9534853
Probable space group: I M M A
;
_chemical_formula_sum "Si O2"
_cell_formula_units_Z 116
_cell_length_a 16.003404
_cell_length_b 15.514930
_cell_length_c 21.311399
_cell_angle_alpha 90.000000
_cell_angle_beta 90.000000
_cell_angle_gamma 90.000000
_cell_volume 5291.443334
_symmetry_space_group_name_H-M "I M M A"
_symmetry_group_IT_number 74
_symmetry_cell_setting 'orthorhombic'
loop_
_space_group_symop_operation_xyz
x,y,z
-x,1/2-y,z
x,-y,-z
-x,1/2+y,-z
-x,-y,-z
x,1/2+y,-z
-x,y,z
x,1/2-y,z
1/2+x,1/2+y,1/2+z
1/2-x,-y,1/2+z
1/2+x,1/2-y,1/2-z
1/2-x,y,1/2-z
1/2-x,1/2-y,1/2-z
1/2+x,y,1/2-z
1/2-x,1/2+y,1/2+z
1/2+x,-y,1/2+z
loop_
_atom_site_type_symbol
_atom_site_label
_atom_site_fract_x
_atom_site_fract_y
_atom_site_fract_z
Si Si1 0.840656 0.650684 0.608496
Si Si2 0.737436 0.852121 0.493996
Si Si3 0.332772 0.654667 0.687222
Si Si4 0.898757 0.845303 0.257859
Si Si5 0.592564 0.073247 0.423211
Si Si6 0.095741 0.467770 0.290621
Si Si7 0.500000 0.250000 0.584267
Si Si8 0.355711 0.114861 0.618369
O O1 0.870265 0.750000 0.610664
O O2 0.816967 0.626458 0.537093
O O3 0.753628 0.647359 0.648491
O O4 0.897593 0.583483 0.644543
O O5 0.724876 0.750000 0.503863
O O6 0.660333 0.903075 0.524927
O O7 0.729565 0.871684 0.420627
O O8 0.337913 0.750000 0.716002
O O9 0.400180 0.642645 0.632375
O O10 0.348708 0.582827 0.739476
O O11 0.877841 0.750000 0.282996
O O12 0.854154 0.859246 0.190978
O O13 0.000000 0.844347 0.245455
O O14 0.880770 0.931816 0.296408
O O15 0.500000 0.071943 0.449456
O O16 0.615958 0.983344 0.390424
O O17 0.000000 0.464069 0.267554
O O18 0.426476 0.175773 0.588484
#
# Coordination Sequence:
#
# PCOD9534853 Si02
#       8
#    16  16  16  16  16  16   4  16
#     4   9  20  38  51  71 105 150 191 230 279 331
#     4  10  22  34  48  68 100 149 195 222 269 329
#     4  10  20  34  50  73 107 151 186 223 279 337
#     4  10  18  32  51  80 116 146 177 225 278 329
#     4  11  21  29  44  73 109 139 181 225 268 317
#     4  11  21  32  56  82 106 141 189 232 279 332
#     4  12  20  28  54  72 110 158 192 228 266 314
#     4  12  19  32  48  74 107 150 188 221 271 320
#
# _framework density 21.922186
#
# number of rings (size 3 to 8) (size 9 to 14) (size 15 to 20)
#    0.000    1.517    4.138    2.897    0.966    4.414 
#    0.000    0.000    0.000    1.655    5.379    0.000 
#    0.000    8.828    0.000    0.000    0.000    1.517 
#
# Total GULP energy -323482.098145 kJ/mol
# GULP energy per Si atom -5577.277554 kJ/mol
# Density = 2.187229 g / cm^3
# Si number density = 21.922186 Si / 1000 Ang^3
#
#
#
# Elastic Constant Matrix: (Units=GPa)
#
#
# Indices 1 2 3 4 5 6 
#
# 1 18.7450 22.3505 8.0183 0.0000 0.0000 0.0000
# 2 22.3505 140.0915 23.4093 0.0000 0.0000 0.0000
# 3 8.0183 23.4093 54.5529 0.0000 0.0000 0.0000
# 4 0.0000 0.0000 0.0000 14.7156 0.0000 0.0000
# 5 0.0000 0.0000 0.0000 0.0000 16.9289 0.0000
# 6 0.0000 0.0000 0.0000 0.0000 0.0000 16.1145
#
#
#
# Elastic Compliance Matrix: (Units=1/GPa)
#
#
# Indices 1 2 3 4 5 6 
#
# 1 0.067491 -0.009814 -0.005709 0.000000 0.000000 0.000000
# 2 -0.009814 0.009117 -0.002470 0.000000 0.000000 0.000000
# 3 -0.005709 -0.002470 0.020230 0.000000 0.000000 0.000000
# 4 0.000000 0.000000 0.000000 0.067955 0.000000 0.000000
# 5 0.000000 0.000000 0.000000 0.000000 0.059071 0.000000
# 6 0.000000 0.000000 0.000000 0.000000 0.000000 0.062056
#
#
# Mechanical properties :
#
#
# Convention : Reuss Voigt Hill
#
# Bulk Modulus (GPa) = 16.43306 35.66063 26.04684
# Shear Modulus (GPa) = 14.61190 20.19255 17.40222
#
# Velocity S-wave (km/s) = 2.58453 3.03826 2.82053
# Velocity P-wave (km/s) = 4.05201 5.34885 4.74495
#
# Compressibility (1/GPa) = 0.06085294
#
# Stress axis : x y z
#
# Youngs Moduli (GPa) = 14.81684 109.69039 49.43238
#
# Poissons Ratio (x) = 1.07647 0.28220
# Poissons Ratio (y) = 0.14541 0.12208
# Poissons Ratio (z) = 0.08459 0.27089
#
# Static dielectric constant tensor:
#      x y z
#    x 1.808750 0.000000 0.000000 
#    y 0.000000 1.827510 0.000000 
#    z 0.000000 0.000000 1.849930 
# 
# From -- ./inp_files/61039.got.cif
#   From: 2010.05.17/outbox.cif.g08.bks.cpg/sg74_31_cif.got.tgz:61039.got - 2010.06.03 17:57:02.
