data_PCOD9534415
_publ_section_title
;
Structure prediction by ZEFSAII (Michael W. Deem and Ramdas Pophale) SiO2 
 PCOD9534415
Probable space group: I M M A
;
_chemical_formula_sum "Si O2"
_cell_formula_units_Z 112
_cell_length_a 28.196603
_cell_length_b 18.466902
_cell_length_c 12.684190
_cell_angle_alpha 90.000000
_cell_angle_beta 90.000000
_cell_angle_gamma 90.000000
_cell_volume 6604.707256
_symmetry_space_group_name_H-M "I M M A"
_symmetry_group_IT_number 74
_symmetry_cell_setting 'orthorhombic'
loop_
_space_group_symop_operation_xyz
x,y,z
-x,1/2-y,z
x,-y,-z
-x,1/2+y,-z
-x,-y,-z
x,1/2+y,-z
-x,y,z
x,1/2-y,z
1/2+x,1/2+y,1/2+z
1/2-x,-y,1/2+z
1/2+x,1/2-y,1/2-z
1/2-x,y,1/2-z
1/2-x,1/2-y,1/2-z
1/2+x,y,1/2-z
1/2-x,1/2+y,1/2+z
1/2+x,-y,1/2+z
loop_
_atom_site_type_symbol
_atom_site_label
_atom_site_fract_x
_atom_site_fract_y
_atom_site_fract_z
Si Si1 0.082846 0.336085 0.114838
Si Si2 0.790647 0.162397 0.405141
Si Si3 0.944996 0.423608 0.695589
Si Si4 0.688549 0.337468 0.337264
Si Si5 0.944908 0.067098 0.932404
Si Si6 0.948376 0.096766 0.332914
Si Si7 0.625251 0.912323 0.008885
O O1 0.080025 0.250000 0.122978
O O2 0.138084 0.359351 0.116740
O O3 0.059161 0.371043 0.217471
O O4 0.059280 0.365098 0.009181
O O5 0.794032 0.250000 0.414948
O O6 0.735176 0.140375 0.402254
O O7 0.807640 0.141779 0.286110
O O8 0.823699 0.124124 0.491230
O O9 0.926773 0.416421 0.815628
O O10 0.947992 0.509875 0.675248
O O11 0.906226 0.395415 0.612342
O O12 0.000000 0.396159 0.684184
O O13 0.689928 0.250000 0.336372
O O14 0.000000 0.047770 0.912717
O O15 0.924129 0.000000 0.000000
O O16 0.906632 0.116574 0.411786
O O17 0.000000 0.119071 0.374379
O O18 0.629660 0.000000 0.000000
#
# Coordination Sequence:
#
# PCOD9534415 Si02
#       7
#    16  16  16  16  16  16  16
#     4  11  20  31  50  78 103 125 168 225 267 296
#     4   9  16  31  52  72  97 132 169 204 252 312
#     4   9  18  33  50  69  98 140 180 203 237 312
#     4   8  16  30  51  75  97 125 164 209 260 313
#     4  10  19  33  51  69  97 139 180 211 253 313
#     4  10  18  29  47  73 103 133 162 202 254 304
#     4  10  19  30  50  77 107 132 167 210 254 304
#
# _framework density 16.957602000000001
#
# number of rings (size 3 to 8) (size 9 to 14) (size 15 to 20)
#    0.000    2.429    2.857    1.714    0.000    2.857 
#    0.000    1.429    0.000    3.000    0.000    3.000 
#    0.000    0.000    0.000    0.000    0.000    0.000 
#
# Total GULP energy -311788.773723 kJ/mol
# GULP energy per Si atom -5567.656674 kJ/mol
# Density = 1.691901 g / cm^3
# Si number density = 16.957602 Si / 1000 Ang^3
#
#
#
# Elastic Constant Matrix: (Units=GPa)
#
#
# Indices 1 2 3 4 5 6 
#
# 1 70.3270 18.6627 24.1870 0.0000 0.0000 0.0000
# 2 18.6627 18.1616 5.2552 0.0000 0.0000 0.0000
# 3 24.1870 5.2552 81.7183 0.0000 0.0000 0.0000
# 4 0.0000 0.0000 0.0000 14.6668 0.0000 0.0000
# 5 0.0000 0.0000 0.0000 0.0000 26.4539 0.0000
# 6 0.0000 0.0000 0.0000 0.0000 0.0000 22.7409
#
#
#
# Elastic Compliance Matrix: (Units=1/GPa)
#
#
# Indices 1 2 3 4 5 6 
#
# 1 0.021391 -0.020531 -0.005011 0.000000 0.000000 0.000000
# 2 -0.020531 0.075811 0.001201 0.000000 0.000000 0.000000
# 3 -0.005011 0.001201 0.013643 0.000000 0.000000 0.000000
# 4 0.000000 0.000000 0.000000 0.068181 0.000000 0.000000
# 5 0.000000 0.000000 0.000000 0.000000 0.037802 0.000000
# 6 0.000000 0.000000 0.000000 0.000000 0.000000 0.043974
#
#
# Mechanical properties :
#
#
# Convention : Reuss Voigt Hill
#
# Bulk Modulus (GPa) = 16.08650 29.60184 22.84417
# Shear Modulus (GPa) = 15.14213 20.91247 18.02730
#
# Velocity S-wave (km/s) = 2.99145 3.51553 3.26403
# Velocity P-wave (km/s) = 4.63019 5.82863 5.26363
#
# Compressibility (1/GPa) = 0.06216393
#
# Stress axis : x y z
#
# Youngs Moduli (GPa) = 46.74855 13.19064 73.29743
#
# Poissons Ratio (x) = 0.27082 0.36729
# Poissons Ratio (y) = 0.95981 -0.08806
# Poissons Ratio (z) = 0.23426 -0.01585
#
# Static dielectric constant tensor:
#      x y z
#    x 1.605800 0.000000 0.000000 
#    y 0.000000 1.569290 0.000000 
#    z 0.000000 0.000000 1.596810 
# 
# From -- ./inp_files/26493.got.cif
#   From: 2010.05.17/outbox.cif.g08.bks.cpg/sg74_14_cif.got.tgz:26493.got - 2010.06.03 17:57:02.
