data_PCOD9534233
_publ_section_title
;
Structure prediction by ZEFSAII (Michael W. Deem and Ramdas Pophale) SiO2 
 PCOD9534233
Probable space group: I M M A
;
_chemical_formula_sum "Si O2"
_cell_formula_units_Z 88
_cell_length_a 8.183746
_cell_length_b 20.992735
_cell_length_c 31.107770
_cell_angle_alpha 90.000000
_cell_angle_beta 90.000000
_cell_angle_gamma 90.000000
_cell_volume 5344.290345
_symmetry_space_group_name_H-M "I M M A"
_symmetry_group_IT_number 74
_symmetry_cell_setting 'orthorhombic'
loop_
_space_group_symop_operation_xyz
x,y,z
-x,1/2-y,z
x,-y,-z
-x,1/2+y,-z
-x,-y,-z
x,1/2+y,-z
-x,y,z
x,1/2-y,z
1/2+x,1/2+y,1/2+z
1/2-x,-y,1/2+z
1/2+x,1/2-y,1/2-z
1/2-x,y,1/2-z
1/2-x,1/2-y,1/2-z
1/2+x,y,1/2-z
1/2-x,1/2+y,1/2+z
1/2+x,-y,1/2+z
loop_
_atom_site_type_symbol
_atom_site_label
_atom_site_fract_x
_atom_site_fract_y
_atom_site_fract_z
Si Si1 0.197751 0.181400 0.921450
Si Si2 0.692835 0.610635 0.200838
Si Si3 0.299800 0.460095 0.457094
Si Si4 0.302936 0.949137 0.380952
Si Si5 0.193271 0.250000 0.799688
Si Si6 0.802533 0.180646 0.023609
O O1 0.258784 0.250000 0.905337
O O2 0.261550 0.117202 0.900824
O O3 0.000000 0.181071 0.029039
O O4 0.227221 0.178567 0.972438
O O5 0.500000 0.611534 0.200861
O O6 0.750000 0.602747 0.250000
O O7 0.754267 0.555826 0.168720
O O8 0.750873 0.680619 0.184405
O O9 0.251125 0.500000 0.500000
O O10 0.500000 0.459503 0.458153
O O11 0.248333 0.495582 0.413380
O O12 0.242843 0.386796 0.458316
O O13 0.500000 0.818538 0.415798
O O14 0.250000 0.250000 0.750000
O O15 0.000000 0.250000 0.802645
O O16 0.500000 0.948943 0.382836
O O17 0.741771 0.250000 0.039515
#
# Coordination Sequence:
#
# PCOD9534233 Si02
#       6
#    16  16  16  16   8  16
#     4   8  13  20  32  55  84 113 147 185 222 258
#     4  11  22  36  49  64  88 116 151 191 233 276
#     4   9  14  22  36  59  90 120 152 191 230 268
#     4  10  18  27  43  65  87 117 154 192 234 271
#     4  10  18  32  52  70  88 114 150 190 234 272
#     4   8  12  19  32  53  85 120 151 187 228 263
#
# _framework density 16.466170999999999
#
# number of rings (size 3 to 8) (size 9 to 14) (size 15 to 20)
#    0.000    2.727    1.818    4.636    1.273    0.000 
#    0.000    0.000    0.000    0.545    0.000    0.000 
#    0.000    1.455    0.000    1.273    0.000    1.818 
#
# Total GULP energy -245059.687094 kJ/mol
# GULP energy per Si atom -5569.538343 kJ/mol
# Density = 1.642869 g / cm^3
# Si number density = 16.466171 Si / 1000 Ang^3
#
#
#
# Elastic Constant Matrix: (Units=GPa)
#
#
# Indices 1 2 3 4 5 6 
#
# 1 23.6171 12.5736 9.2211 0.0000 0.0000 0.0000
# 2 12.5736 138.8426 68.1458 0.0000 0.0000 0.0000
# 3 9.2211 68.1458 84.5776 0.0000 0.0000 0.0000
# 4 0.0000 0.0000 0.0000 28.5287 0.0000 0.0000
# 5 0.0000 0.0000 0.0000 0.0000 8.7312 0.0000
# 6 0.0000 0.0000 0.0000 0.0000 0.0000 5.9902
#
#
#
# Elastic Compliance Matrix: (Units=1/GPa)
#
#
# Indices 1 2 3 4 5 6 
#
# 1 0.044850 -0.002749 -0.002675 0.000000 0.000000 0.000000
# 2 -0.002749 0.012082 -0.009435 0.000000 0.000000 0.000000
# 3 -0.002675 -0.009435 0.019717 0.000000 0.000000 0.000000
# 4 0.000000 0.000000 0.000000 0.035052 0.000000 0.000000
# 5 0.000000 0.000000 0.000000 0.000000 0.114531 0.000000
# 6 0.000000 0.000000 0.000000 0.000000 0.000000 0.166941
#
#
# Mechanical properties :
#
#
# Convention : Reuss Voigt Hill
#
# Bulk Modulus (GPa) = 21.30767 47.43537 34.37152
# Shear Modulus (GPa) = 11.40158 19.12314 15.26236
#
# Velocity S-wave (km/s) = 2.63425 3.41157 3.04779
# Velocity P-wave (km/s) = 4.71389 6.66249 5.77102
#
# Compressibility (1/GPa) = 0.04693146
#
# Stress axis : x y z
#
# Youngs Moduli (GPa) = 22.29657 82.76598 50.71691
#
# Poissons Ratio (x) = 0.22749 0.13568
# Poissons Ratio (y) = 0.06128 0.47853
# Poissons Ratio (z) = 0.05965 0.78092
#
# Static dielectric constant tensor:
#      x y z
#    x 1.568960 0.000000 0.000000 
#    y 0.000000 1.609740 0.000000 
#    z 0.000000 0.000000 1.585300 
# 
# From -- ./inp_files/70248.got.cif
#   From: 2010.05.17/outbox.cif.g08.bks.cpg/sg74_36_cif.got.tgz:70248.got - 2010.06.03 17:57:02.
