data_PCOD9534126
_publ_section_title
;
Structure prediction by ZEFSAII (Michael W. Deem and Ramdas Pophale) SiO2 
 PCOD9534126
Probable space group: I M M A
;
_chemical_formula_sum "Si O2"
_cell_formula_units_Z 96
_cell_length_a 14.385297
_cell_length_b 21.424676
_cell_length_c 14.939042
_cell_angle_alpha 90.000000
_cell_angle_beta 90.000000
_cell_angle_gamma 90.000000
_cell_volume 4604.217635
_symmetry_space_group_name_H-M "I M M A"
_symmetry_group_IT_number 74
_symmetry_cell_setting 'orthorhombic'
loop_
_space_group_symop_operation_xyz
x,y,z
-x,1/2-y,z
x,-y,-z
-x,1/2+y,-z
-x,-y,-z
x,1/2+y,-z
-x,y,z
x,1/2-y,z
1/2+x,1/2+y,1/2+z
1/2-x,-y,1/2+z
1/2+x,1/2-y,1/2-z
1/2-x,y,1/2-z
1/2-x,1/2-y,1/2-z
1/2+x,y,1/2-z
1/2-x,1/2+y,1/2+z
1/2+x,-y,1/2+z
loop_
_atom_site_type_symbol
_atom_site_label
_atom_site_fract_x
_atom_site_fract_y
_atom_site_fract_z
Si Si1 0.183040 0.679803 0.086417
Si Si2 0.102972 0.847381 0.424444
Si Si3 0.353439 0.565179 0.543567
Si Si4 0.146948 0.545015 0.766968
Si Si5 0.608049 0.094988 0.734601
Si Si6 0.869041 0.054763 0.433584
O O1 0.145938 0.750000 0.073833
O O2 0.295286 0.683591 0.077645
O O3 0.156828 0.651710 0.183366
O O4 0.143185 0.626223 0.019375
O O5 0.111788 0.895248 0.341005
O O6 0.100548 0.882050 0.519016
O O7 0.000000 0.817781 0.410949
O O8 0.388375 0.500000 0.500000
O O9 0.393623 0.574797 0.643201
O O10 0.243296 0.553996 0.560967
O O11 0.250000 0.571044 0.750000
O O12 0.152698 0.471135 0.789508
O O13 0.101551 0.549009 0.669250
O O14 0.500000 0.093090 0.708025
O O15 0.900307 0.000000 0.500000
#
# Coordination Sequence:
#
# PCOD9534126 Si02
#       6
#    16  16  16  16  16  16
#     4  11  23  40  59  81 115 157 196 241 294 343
#     4  10  21  35  55  85 119 152 191 237 289 350
#     4   9  17  32  57  83 110 149 197 241 281 334
#     4  10  17  31  56  83 121 156 188 235 289 341
#     4  11  22  34  54  85 117 154 196 236 285 347
#     4   9  16  27  51  85 119 153 178 227 290 343
#
# _framework density 20.850448
#
# number of rings (size 3 to 8) (size 9 to 14) (size 15 to 20)
#    0.000    2.000    3.333    1.500    0.000    3.000 
#    0.000    3.333    0.000   12.500    0.000    0.000 
#    0.000    0.000    0.000    0.000    0.000    0.000 
#
# Total GULP energy -267477.896839 kJ/mol
# GULP energy per Si atom -5572.456184 kJ/mol
# Density = 2.080299 g / cm^3
# Si number density = 20.850448 Si / 1000 Ang^3
#
#
#
# Elastic Constant Matrix: (Units=GPa)
#
#
# Indices 1 2 3 4 5 6 
#
# 1 86.0142 0.4550 7.2906 0.0000 0.0000 0.0000
# 2 0.4550 81.4510 36.3958 -0.0006 0.0000 0.0001
# 3 7.2906 36.3958 155.3558 -0.0008 0.0000 0.0002
# 4 0.0000 -0.0006 -0.0008 -5.5137 0.0000 0.0001
# 5 0.0000 0.0000 0.0000 0.0000 -3.0583 0.0000
# 6 0.0000 0.0001 0.0002 0.0001 0.0000 -16.0125
#
#
#
# Elastic Compliance Matrix: (Units=1/GPa)
#
#
# Indices 1 2 3 4 5 6 
#
# 1 0.011675 0.000201 -0.000595 0.000000 0.000000 0.000000
# 2 0.000201 0.013716 -0.003223 -0.000001 0.000000 0.000000
# 3 -0.000595 -0.003223 0.007220 -0.000001 0.000000 0.000000
# 4 0.000000 -0.000001 -0.000001 -0.181367 -0.000002 -0.000002
# 5 0.000000 0.000000 0.000000 -0.000002 -0.326984 0.000000
# 6 0.000000 0.000000 0.000000 -0.000002 0.000000 -0.062451
#
#
# Mechanical properties :
#
#
# Convention : Reuss Voigt Hill
#
# Bulk Modulus (GPa) = 39.40539 45.67820 42.54179
# Shear Modulus (GPa) = -9.56942 13.66175 2.04616
#
# Velocity S-wave (km/s) = -2.14465 2.56251 0.99171
# Velocity P-wave (km/s) = 3.57874 5.54170 4.66464
#
# Compressibility (1/GPa) = 0.02537724
#
# Stress axis : x y z
#
# Youngs Moduli (GPa) = 85.65056 72.90606 138.50859
#
# Poissons Ratio (x) = -0.01463 0.08240
# Poissons Ratio (y) = -0.01718 0.44638
# Poissons Ratio (z) = 0.05095 0.23496
#
# Static dielectric constant tensor:
#      x y z
#    x 1.834320 0.000000 0.000000 
#    y 0.000000 1.737110 0.000000 
#    z 0.000000 0.000000 1.773960 
# 
# From -- ./inp_files/32360.got.cif
#   From: 2010.05.17/outbox.cif.g08.bks.cpg/sg74_17_cif.got.tgz:32360.got - 2010.06.03 17:57:02.
