data_PCOD9534261
_publ_section_title
;
Structure prediction by ZEFSAII (Michael W. Deem and Ramdas Pophale) SiO2 
 PCOD9534261
Probable space group: I M M A
;
_chemical_formula_sum "Si O2"
_cell_formula_units_Z 72
_cell_length_a 8.818292
_cell_length_b 32.412901
_cell_length_c 18.930649
_cell_angle_alpha 90.000000
_cell_angle_beta 90.000000
_cell_angle_gamma 90.000000
_cell_volume 5410.879738
_symmetry_space_group_name_H-M "I M M A"
_symmetry_group_IT_number 74
_symmetry_cell_setting 'orthorhombic'
loop_
_space_group_symop_operation_xyz
x,y,z
-x,1/2-y,z
x,-y,-z
-x,1/2+y,-z
-x,-y,-z
x,1/2+y,-z
-x,y,z
x,1/2-y,z
1/2+x,1/2+y,1/2+z
1/2-x,-y,1/2+z
1/2+x,1/2-y,1/2-z
1/2-x,y,1/2-z
1/2-x,1/2-y,1/2-z
1/2+x,y,1/2-z
1/2-x,1/2+y,1/2+z
1/2+x,-y,1/2+z
loop_
_atom_site_type_symbol
_atom_site_label
_atom_site_fract_x
_atom_site_fract_y
_atom_site_fract_z
Si Si1 0.820223 0.920035 0.404854
Si Si2 0.318368 0.250000 0.670497
Si Si3 0.317529 0.999078 0.327216
Si Si4 0.825324 0.454977 0.037644
Si Si5 0.181904 0.334534 0.671368
O O1 0.769811 0.926185 0.485900
O O2 0.784130 0.875025 0.374358
O O3 0.000000 0.926565 0.398737
O O4 0.738441 0.955351 0.358666
O O5 0.500000 0.250000 0.672561
O O6 0.250000 0.250000 0.750000
O O7 0.254942 0.292817 0.639976
O O8 0.500000 0.998582 0.325289
O O9 0.250000 0.005246 0.250000
O O10 0.270747 0.034522 0.383474
O O11 0.000000 0.440914 0.039719
O O12 0.824745 0.500000 0.000000
O O13 0.500000 0.329562 0.823095
O O14 0.250000 0.340514 0.750000
#
# Coordination Sequence:
#
# PCOD9534261 Si02
#       5
#    16   8  16  16  16
#     4  10  19  28  41  59  77 101 131 162 195 230
#     4  10  18  28  42  56  72  98 127 156 193 230
#     4  10  19  29  41  57  77 102 131 164 198 229
#     4   8  16  29  41  54  75 101 127 158 196 231
#     4  10  19  29  40  56  77 100 128 161 194 227
#
# _framework density 13.306524
#
# number of rings (size 3 to 8) (size 9 to 14) (size 15 to 20)
#    0.000    2.444    0.000    6.333    0.000   10.222 
#    0.000    0.000    0.000    0.000    0.000    0.000 
#    0.000    0.000    0.000    1.000    0.000   13.111 
#
# Total GULP energy -200554.963070 kJ/mol
# GULP energy per Si atom -5570.971196 kJ/mol
# Density = 1.327624 g / cm^3
# Si number density = 13.306524 Si / 1000 Ang^3
#
#
#
# Elastic Constant Matrix: (Units=GPa)
#
#
# Indices 1 2 3 4 5 6 
#
# 1 61.2588 45.0311 36.1653 0.0000 0.0000 0.0000
# 2 45.0311 82.4055 48.6735 0.0000 0.0000 0.0000
# 3 36.1653 48.6735 98.4725 0.0001 0.0000 0.0000
# 4 0.0000 0.0000 0.0001 16.4821 0.0000 0.0000
# 5 0.0000 0.0000 0.0000 0.0000 21.0777 0.0000
# 6 0.0000 0.0000 0.0000 0.0000 0.0000 19.7427
#
#
#
# Elastic Compliance Matrix: (Units=1/GPa)
#
#
# Indices 1 2 3 4 5 6 
#
# 1 0.028298 -0.013170 -0.003883 0.000000 0.000000 0.000000
# 2 -0.013170 0.023268 -0.006664 0.000000 0.000000 0.000000
# 3 -0.003883 -0.006664 0.014875 0.000000 0.000000 0.000000
# 4 0.000000 0.000000 0.000000 0.060672 0.000000 0.000000
# 5 0.000000 0.000000 0.000000 0.000000 0.047444 0.000000
# 6 0.000000 0.000000 0.000000 0.000000 0.000000 0.050652
#
#
# Mechanical properties :
#
#
# Convention : Reuss Voigt Hill
#
# Bulk Modulus (GPa) = 52.61296 55.76406 54.18851
# Shear Modulus (GPa) = 17.92252 18.94496 18.43374
#
# Velocity S-wave (km/s) = 3.67399 3.77733 3.72602
# Velocity P-wave (km/s) = 7.59096 7.81170 7.70212
#
# Compressibility (1/GPa) = 0.01900672
#
# Stress axis : x y z
#
# Youngs Moduli (GPa) = 35.33847 42.97692 67.22569
#
# Poissons Ratio (x) = 0.56601 0.26104
# Poissons Ratio (y) = 0.46541 0.44801
# Poissons Ratio (z) = 0.13722 0.28641
#
# Static dielectric constant tensor:
#      x y z
#    x 1.447500 0.000000 0.000000 
#    y 0.000000 1.438480 0.000000 
#    z 0.000000 0.000000 1.439600 
# 
# From -- ./inp_files/39604.got.cif
#   From: 2010.05.17/outbox.cif.g08.bks.cpg/sg74_20_cif.got.tgz:39604.got - 2010.06.03 17:57:02.
