data_PCOD9534182
_publ_section_title
;
Structure prediction by ZEFSAII (Michael W. Deem and Ramdas Pophale) SiO2 
 PCOD9534182
Probable space group: I M M A
;
_chemical_formula_sum "Si O2"
_cell_formula_units_Z 80
_cell_length_a 8.914869
_cell_length_b 38.496142
_cell_length_c 18.681367
_cell_angle_alpha 90.000000
_cell_angle_beta 90.000000
_cell_angle_gamma 90.000000
_cell_volume 6411.222154
_symmetry_space_group_name_H-M "I M M A"
_symmetry_group_IT_number 74
_symmetry_cell_setting 'orthorhombic'
loop_
_space_group_symop_operation_xyz
x,y,z
-x,1/2-y,z
x,-y,-z
-x,1/2+y,-z
-x,-y,-z
x,1/2+y,-z
-x,y,z
x,1/2-y,z
1/2+x,1/2+y,1/2+z
1/2-x,-y,1/2+z
1/2+x,1/2-y,1/2-z
1/2-x,y,1/2-z
1/2-x,1/2-y,1/2-z
1/2+x,y,1/2-z
1/2-x,1/2+y,1/2+z
1/2+x,-y,1/2+z
loop_
_atom_site_type_symbol
_atom_site_label
_atom_site_fract_x
_atom_site_fract_y
_atom_site_fract_z
Si Si1 0.319453 0.636129 0.670207
Si Si2 0.179081 0.072131 0.412991
Si Si3 0.680478 0.212695 0.329383
Si Si4 0.327135 0.036528 0.543398
Si Si5 0.679054 0.000751 0.171851
O O1 0.500000 0.633336 0.675113
O O2 0.250000 0.633033 0.750000
O O3 0.254627 0.605750 0.621386
O O4 0.279135 0.674755 0.640590
O O5 0.242823 0.063182 0.491397
O O6 0.000000 0.075954 0.415559
O O7 0.213054 0.038622 0.362721
O O8 0.500000 0.212720 0.323608
O O9 0.724528 0.250000 0.363471
O O10 0.750000 0.212900 0.250000
O O11 0.500000 0.046522 0.554271
O O12 0.246155 0.027774 0.617693
O O13 0.325424 0.000000 0.500000
O O14 0.500000 0.997384 0.175362
O O15 0.750000 0.998391 0.250000
#
# Coordination Sequence:
#
# PCOD9534182 Si02
#       5
#    16  16  16  16  16
#     4  10  18  26  37  53  72  94 122 155 189 222
#     4  10  19  29  40  54  74  97 121 151 186 222
#     4   8  14  24  36  49  66  89 117 149 183 217
#     4   9  17  29  43  56  71  92 118 148 183 222
#     4  10  19  29  41  56  73  94 121 152 185 219
#
# _framework density 12.478120000000001
#
# number of rings (size 3 to 8) (size 9 to 14) (size 15 to 20)
#    0.000    2.600    0.000    3.000    0.000    7.200 
#    0.000    0.000    0.000    0.000    0.000    0.000 
#    0.000    0.000    0.000    0.000    0.000    1.000 
#
# Total GULP energy -222684.321329 kJ/mol
# GULP energy per Si atom -5567.108033 kJ/mol
# Density = 1.244972 g / cm^3
# Si number density = 12.478120 Si / 1000 Ang^3
#
#
#
# Elastic Constant Matrix: (Units=GPa)
#
#
# Indices 1 2 3 4 5 6 
#
# 1 51.9015 43.5275 41.7203 0.0000 0.0000 0.0000
# 2 43.5275 104.2125 49.4819 0.0000 0.0000 0.0000
# 3 41.7203 49.4819 80.9042 0.0000 0.0000 0.0000
# 4 0.0000 0.0000 0.0000 11.5067 0.0000 0.0000
# 5 0.0000 0.0000 0.0000 0.0000 20.8405 0.0000
# 6 0.0000 0.0000 0.0000 0.0000 0.0000 13.9848
#
#
#
# Elastic Compliance Matrix: (Units=1/GPa)
#
#
# Indices 1 2 3 4 5 6 
#
# 1 0.038461 -0.009367 -0.014104 0.000000 0.000000 0.000000
# 2 -0.009367 0.015804 -0.004836 0.000000 0.000000 0.000000
# 3 -0.014104 -0.004836 0.022591 0.000000 0.000000 0.000000
# 4 0.000000 0.000000 0.000000 0.086906 0.000000 0.000000
# 5 0.000000 0.000000 0.000000 0.000000 0.047983 0.000000
# 6 0.000000 0.000000 0.000000 0.000000 0.000000 0.071506
#
#
# Mechanical properties :
#
#
# Convention : Reuss Voigt Hill
#
# Bulk Modulus (GPa) = 49.40251 56.27529 52.83890
# Shear Modulus (GPa) = 14.42531 16.08563 15.25547
#
# Velocity S-wave (km/s) = 3.40376 3.59431 3.50033
# Velocity P-wave (km/s) = 7.42460 7.90079 7.66639
#
# Compressibility (1/GPa) = 0.02024189
#
# Stress axis : x y z
#
# Youngs Moduli (GPa) = 26.00066 63.27352 44.26570
#
# Poissons Ratio (x) = 0.59271 0.62432
# Poissons Ratio (y) = 0.24356 0.21405
# Poissons Ratio (z) = 0.36671 0.30596
#
# Static dielectric constant tensor:
#      x y z
#    x 1.416210 0.000000 0.000000 
#    y 0.000000 1.427840 0.000000 
#    z 0.000000 0.000000 1.374760 
# 
# From -- ./inp_files/39981.got.cif
#   From: 2010.05.17/outbox.cif.g08.bks.cpg/sg74_20_cif.got.tgz:39981.got - 2010.06.03 17:57:02.
