data_PCOD9534417
_publ_section_title
;
Structure prediction by ZEFSAII (Michael W. Deem and Ramdas Pophale) SiO2 
 PCOD9534417
Probable space group: I M M A
;
_chemical_formula_sum "Si O2"
_cell_formula_units_Z 64
_cell_length_a 10.995205
_cell_length_b 8.608979
_cell_length_c 30.450744
_cell_angle_alpha 90.000000
_cell_angle_beta 90.000000
_cell_angle_gamma 90.000000
_cell_volume 2882.390964
_symmetry_space_group_name_H-M "I M M A"
_symmetry_group_IT_number 74
_symmetry_cell_setting 'orthorhombic'
loop_
_space_group_symop_operation_xyz
x,y,z
-x,1/2-y,z
x,-y,-z
-x,1/2+y,-z
-x,-y,-z
x,1/2+y,-z
-x,y,z
x,1/2-y,z
1/2+x,1/2+y,1/2+z
1/2-x,-y,1/2+z
1/2+x,1/2-y,1/2-z
1/2-x,y,1/2-z
1/2-x,1/2-y,1/2-z
1/2+x,y,1/2-z
1/2-x,1/2+y,1/2+z
1/2+x,-y,1/2+z
loop_
_atom_site_type_symbol
_atom_site_label
_atom_site_fract_x
_atom_site_fract_y
_atom_site_fract_z
Si Si1 0.268256 0.436567 0.358884
Si Si2 0.630034 0.062677 0.725944
Si Si3 0.224539 0.574089 0.044867
Si Si4 0.000000 0.073405 0.349538
Si Si5 0.500000 0.080995 0.935295
O O1 0.265910 0.250000 0.357088
O O2 0.360731 0.505928 0.323972
O O3 0.294707 0.487894 0.408755
O O4 0.134030 0.496999 0.342442
O O5 0.500000 0.012197 0.745613
O O6 0.633339 0.250000 0.727121
O O7 0.750000 0.000995 0.750000
O O8 0.180496 0.750000 0.049226
O O9 0.372211 0.579761 0.040400
O O10 0.175881 0.500000 0.000000
O O11 0.000000 0.250000 0.333425
O O12 0.000000 0.064780 0.402936
O O13 0.500000 0.250000 0.910625
#
# Coordination Sequence:
#
# PCOD9534417 Si02
#       5
#    16  16  16   8   8
#     4  10  20  35  56  84 119 159 203 251 305 361
#     4  10  23  43  66  93 123 157 198 248 304 364
#     4  10  18  29  47  75 113 158 206 254 303 357
#     4   8  16  29  47  76 113 152 194 244 295 349
#     4   8  15  25  39  64 102 150 200 248 298 349
#
# _framework density 22.203789
#
# number of rings (size 3 to 8) (size 9 to 14) (size 15 to 20)
#    0.000    2.500    0.000    1.875    1.750    3.000 
#    0.000    3.750    0.000    0.750    0.000    0.000 
#    0.000    0.000    0.000    0.000    0.000    0.000 
#
# Total GULP energy -178279.563786 kJ/mol
# GULP energy per Si atom -5571.236368 kJ/mol
# Density = 2.215325 g / cm^3
# Si number density = 22.203789 Si / 1000 Ang^3
#
#
#
# Elastic Constant Matrix: (Units=GPa)
#
#
# Indices 1 2 3 4 5 6 
#
# 1 99.5392 21.8212 45.4691 0.0000 0.0000 0.0000
# 2 21.8212 29.9216 1.7812 0.0000 0.0000 0.0000
# 3 45.4691 1.7812 91.0163 0.0000 0.0000 0.0000
# 4 0.0000 0.0000 0.0000 30.9541 0.0000 0.0000
# 5 0.0000 0.0000 0.0000 0.0000 6.0532 0.0000
# 6 0.0000 0.0000 0.0000 0.0000 0.0000 6.5199
#
#
#
# Elastic Compliance Matrix: (Units=1/GPa)
#
#
# Indices 1 2 3 4 5 6 
#
# 1 0.016086 -0.011266 -0.007816 0.000000 0.000000 0.000000
# 2 -0.011266 0.041350 0.004819 0.000000 0.000000 0.000000
# 3 -0.007816 0.004819 0.014797 0.000000 0.000000 0.000000
# 4 0.000000 0.000000 0.000000 0.032306 0.000000 0.000000
# 5 0.000000 0.000000 0.000000 0.000000 0.165203 0.000000
# 6 0.000000 0.000000 0.000000 0.000000 0.000000 0.153377
#
#
# Mechanical properties :
#
#
# Convention : Reuss Voigt Hill
#
# Bulk Modulus (GPa) = 22.87926 39.84670 31.36298
# Shear Modulus (GPa) = 10.72467 18.79914 14.76190
#
# Velocity S-wave (km/s) = 2.20013 2.91290 2.58124
# Velocity P-wave (km/s) = 4.09643 5.41278 4.79994
#
# Compressibility (1/GPa) = 0.04370771
#
# Stress axis : x y z
#
# Youngs Moduli (GPa) = 62.16469 24.18384 67.58001
#
# Poissons Ratio (x) = 0.27246 0.52819
# Poissons Ratio (y) = 0.70036 -0.32567
# Poissons Ratio (z) = 0.48587 -0.11654
#
# Static dielectric constant tensor:
#      x y z
#    x 1.905570 0.000000 0.000000 
#    y 0.000000 1.802750 0.000000 
#    z 0.000000 0.000000 1.808760 
# 
# From -- ./inp_files/71299.got.cif
#   From: 2010.05.17/outbox.cif.g08.bks.cpg/sg74_36_cif.got.tgz:71299.got - 2010.06.03 17:57:02.
