data_PCOD9534605
_publ_section_title
;
Structure prediction by ZEFSAII (Michael W. Deem and Ramdas Pophale) SiO2 
 PCOD9534605
Probable space group: I M M A
;
_chemical_formula_sum "Si O2"
_cell_formula_units_Z 88
_cell_length_a 26.143930
_cell_length_b 8.944186
_cell_length_c 20.800026
_cell_angle_alpha 90.000000
_cell_angle_beta 90.000000
_cell_angle_gamma 90.000000
_cell_volume 4863.798472
_symmetry_space_group_name_H-M "I M M A"
_symmetry_group_IT_number 74
_symmetry_cell_setting 'orthorhombic'
loop_
_space_group_symop_operation_xyz
x,y,z
-x,1/2-y,z
x,-y,-z
-x,1/2+y,-z
-x,-y,-z
x,1/2+y,-z
-x,y,z
x,1/2-y,z
1/2+x,1/2+y,1/2+z
1/2-x,-y,1/2+z
1/2+x,1/2-y,1/2-z
1/2-x,y,1/2-z
1/2-x,1/2-y,1/2-z
1/2+x,y,1/2-z
1/2-x,1/2+y,1/2+z
1/2+x,-y,1/2+z
loop_
_atom_site_type_symbol
_atom_site_label
_atom_site_fract_x
_atom_site_fract_y
_atom_site_fract_z
Si Si1 0.942086 0.932410 0.305107
Si Si2 0.750000 0.506920 0.750000
Si Si3 0.829407 0.930290 0.065776
Si Si4 0.139403 0.577468 0.202803
Si Si5 0.775016 0.080441 0.393577
Si Si6 0.618182 0.070212 0.931362
O O1 0.941508 0.750000 0.302963
O O2 0.901099 0.989459 0.252657
O O3 0.922209 0.971344 0.376022
O O4 0.000000 0.981812 0.293167
O O5 0.802989 0.425107 0.768590
O O6 0.764661 0.586327 0.683189
O O7 0.829611 0.750000 0.063373
O O8 0.858017 0.984848 0.130591
O O9 0.771680 0.989405 0.075644
O O10 0.849793 0.000000 0.000000
O O11 0.124821 0.750000 0.195183
O O12 0.776590 0.250000 0.418732
O O13 0.827326 0.995743 0.408904
O O14 0.621357 0.250000 0.935631
O O15 0.605270 0.000000 0.000000
#
# Coordination Sequence:
#
# PCOD9534605 Si02
#       6
#    16   8  16  16  16  16
#     4   9  18  34  56  80 104 134 178 226 266 308
#     4  10  18  30  50  78 107 138 171 216 265 318
#     4  10  20  33  51  76 109 143 176 212 258 316
#     4   9  17  30  52  80 106 136 174 217 263 312
#     4  11  21  33  50  76 110 144 177 215 262 316
#     4  11  22  36  54  77 105 141 179 222 267 311
#
# _framework density 18.092855
#
# number of rings (size 3 to 8) (size 9 to 14) (size 15 to 20)
#    0.000    2.000    1.818    2.727    0.000    1.818 
#    0.000    0.000    0.000    2.182    0.000    0.000 
#    0.000    0.000    0.000    0.000    0.000    0.727 
#
# Total GULP energy -245233.911909 kJ/mol
# GULP energy per Si atom -5573.497998 kJ/mol
# Density = 1.805168 g / cm^3
# Si number density = 18.092855 Si / 1000 Ang^3
#
#
#
# Elastic Constant Matrix: (Units=GPa)
#
#
# Indices 1 2 3 4 5 6 
#
# 1 108.8383 13.8607 67.3139 0.0000 0.0000 0.0000
# 2 13.8607 56.8742 28.8376 0.0000 0.0000 0.0000
# 3 67.3139 28.8376 165.2030 0.0000 0.0000 0.0000
# 4 0.0000 0.0000 0.0000 19.2622 0.0000 0.0000
# 5 0.0000 0.0000 0.0000 0.0000 13.7597 0.0000
# 6 0.0000 0.0000 0.0000 0.0000 0.0000 16.8712
#
#
#
# Elastic Compliance Matrix: (Units=1/GPa)
#
#
# Indices 1 2 3 4 5 6 
#
# 1 0.012296 -0.000501 -0.004923 0.000000 0.000000 0.000000
# 2 -0.000501 0.019310 -0.003167 0.000000 0.000000 0.000000
# 3 -0.004923 -0.003167 0.008612 0.000000 0.000000 0.000000
# 4 0.000000 0.000000 0.000000 0.051915 0.000000 0.000000
# 5 0.000000 0.000000 0.000000 0.000000 0.072676 0.000000
# 6 0.000000 0.000000 0.000000 0.000000 0.000000 0.059272
#
#
# Mechanical properties :
#
#
# Convention : Reuss Voigt Hill
#
# Bulk Modulus (GPa) = 43.40665 61.21554 52.31110
# Shear Modulus (GPa) = 20.08497 24.70550 22.39523
#
# Velocity S-wave (km/s) = 3.33544 3.69925 3.52205
# Velocity P-wave (km/s) = 6.23512 7.22174 6.74649
#
# Compressibility (1/GPa) = 0.02303794
#
# Stress axis : x y z
#
# Youngs Moduli (GPa) = 81.32448 51.78563 116.11888
#
# Poissons Ratio (x) = 0.02592 0.57165
# Poissons Ratio (y) = 0.04071 0.36773
# Poissons Ratio (z) = 0.40036 0.16400
#
# Static dielectric constant tensor:
#      x y z
#    x 1.600090 0.000000 0.000000 
#    y 0.000000 1.627790 0.000000 
#    z 0.000000 0.000000 1.664010 
# 
# From -- ./inp_files/54529.got.cif
#   From: 2010.05.17/outbox.cif.g08.bks.cpg/sg74_28_cif.got.tgz:54529.got - 2010.06.03 17:57:02.
