data_PCOD9534122
_publ_section_title
;
Structure prediction by ZEFSAII (Michael W. Deem and Ramdas Pophale) SiO2 
 PCOD9534122
Probable space group: I M M A
;
_chemical_formula_sum "Si O2"
_cell_formula_units_Z 104
_cell_length_a 8.616189
_cell_length_b 27.894267
_cell_length_c 23.194294
_cell_angle_alpha 90.000000
_cell_angle_beta 90.000000
_cell_angle_gamma 90.000000
_cell_volume 5574.569422
_symmetry_space_group_name_H-M "I M M A"
_symmetry_group_IT_number 74
_symmetry_cell_setting 'orthorhombic'
loop_
_space_group_symop_operation_xyz
x,y,z
-x,1/2-y,z
x,-y,-z
-x,1/2+y,-z
-x,-y,-z
x,1/2+y,-z
-x,y,z
x,1/2-y,z
1/2+x,1/2+y,1/2+z
1/2-x,-y,1/2+z
1/2+x,1/2-y,1/2-z
1/2-x,y,1/2-z
1/2-x,1/2-y,1/2-z
1/2+x,y,1/2-z
1/2-x,1/2+y,1/2+z
1/2+x,-y,1/2+z
loop_
_atom_site_type_symbol
_atom_site_label
_atom_site_fract_x
_atom_site_fract_y
_atom_site_fract_z
Si Si1 0.814820 0.341718 0.379246
Si Si2 0.189422 0.194466 0.505616
Si Si3 0.178560 0.942198 0.861431
Si Si4 0.683991 0.250000 0.313923
Si Si5 0.187314 0.957526 0.314329
Si Si6 0.682221 0.118628 0.908437
Si Si7 0.329091 0.553814 0.978644
O O1 0.768988 0.334666 0.447120
O O2 0.758103 0.390964 0.349868
O O3 0.743661 0.296753 0.346757
O O4 0.000000 0.338872 0.376487
O O5 0.237928 0.250000 0.501042
O O6 0.245604 0.168259 0.564369
O O7 0.000000 0.193876 0.507371
O O8 0.199101 0.944065 0.930550
O O9 0.000000 0.941676 0.843658
O O10 0.257517 0.990244 0.836841
O O11 0.750000 0.250000 0.250000
O O12 0.000000 0.250000 0.187496
O O13 0.250000 0.950697 0.250000
O O14 0.244247 0.914014 0.356098
O O15 0.000000 0.957492 0.315382
O O16 0.500000 0.126947 0.894806
O O17 0.690763 0.085179 0.964868
O O18 0.500000 0.566442 0.952551
O O19 0.337312 0.500000 0.000000
#
# Coordination Sequence:
#
# PCOD9534122 Si02
#       7
#    16  16  16   8  16  16  16
#     4  11  21  38  63  89 117 156 199 243 292 349
#     4   9  16  29  56  92 119 143 187 240 290 346
#     4  12  24  36  54  87 122 154 190 240 295 348
#     4  12  26  44  62  84 116 156 205 250 293 342
#     4  11  23  41  60  81 112 156 202 246 293 355
#     4   9  17  31  56  85 114 150 192 238 293 352
#     4  10  17  31  54  80 110 149 190 231 283 345
#
# _framework density 18.656148999999999
#
# number of rings (size 3 to 8) (size 9 to 14) (size 15 to 20)
#    0.000    1.538    3.846    3.000    0.000    0.923 
#    0.000    3.077    0.000    0.462    0.000    0.000 
#    0.000    0.000    0.000    0.000    0.000    0.154 
#
# Total GULP energy -289943.458689 kJ/mol
# GULP energy per Si atom -5575.835744 kJ/mol
# Density = 1.861369 g / cm^3
# Si number density = 18.656149 Si / 1000 Ang^3
#
#
#
# Elastic Constant Matrix: (Units=GPa)
#
#
# Indices 1 2 3 4 5 6 
#
# 1 63.7561 26.0744 28.7058 0.0000 0.0000 0.0000
# 2 26.0744 106.0110 51.7174 0.0000 0.0000 0.0000
# 3 28.7058 51.7174 98.6928 0.0000 0.0000 0.0000
# 4 0.0000 0.0000 0.0000 14.0791 0.0000 0.0000
# 5 0.0000 0.0000 0.0000 0.0000 23.1440 0.0000
# 6 0.0000 0.0000 0.0000 0.0000 0.0000 15.9714
#
#
#
# Elastic Compliance Matrix: (Units=1/GPa)
#
#
# Indices 1 2 3 4 5 6 
#
# 1 0.018565 -0.002595 -0.004040 0.000000 0.000000 0.000000
# 2 -0.002595 0.013036 -0.006076 0.000000 0.000000 0.000000
# 3 -0.004040 -0.006076 0.014491 0.000000 0.000000 0.000000
# 4 0.000000 0.000000 0.000000 0.071027 0.000000 0.000000
# 5 0.000000 0.000000 0.000000 0.000000 0.043208 0.000000
# 6 0.000000 0.000000 0.000000 0.000000 0.000000 0.062612
#
#
# Mechanical properties :
#
#
# Convention : Reuss Voigt Hill
#
# Bulk Modulus (GPa) = 48.38022 53.49499 50.93761
# Shear Modulus (GPa) = 19.58856 21.43642 20.51249
#
# Velocity S-wave (km/s) = 3.24385 3.39341 3.31947
# Velocity P-wave (km/s) = 6.32606 6.64003 6.48495
#
# Compressibility (1/GPa) = 0.02066960
#
# Stress axis : x y z
#
# Youngs Moduli (GPa) = 53.86447 76.71338 69.00630
#
# Poissons Ratio (x) = 0.19911 0.27877
# Poissons Ratio (y) = 0.13980 0.41928
# Poissons Ratio (z) = 0.21760 0.46611
#
# Static dielectric constant tensor:
#      x y z
#    x 1.657510 0.000000 0.000000 
#    y 0.000000 1.698460 0.000000 
#    z 0.000000 0.000000 1.646010 
# 
# From -- ./inp_files/57594.got.cif
#   From: 2010.05.17/outbox.cif.g08.bks.cpg/sg74_29_cif.got.tgz:57594.got - 2010.06.03 17:57:02.
