data_PCOD9534090
_publ_section_title
;
Structure prediction by ZEFSAII (Michael W. Deem and Ramdas Pophale) SiO2 
 PCOD9534090
Probable space group: I M M A
;
_chemical_formula_sum "Si O2"
_cell_formula_units_Z 128
_cell_length_a 19.819604
_cell_length_b 21.599229
_cell_length_c 18.222165
_cell_angle_alpha 90.000000
_cell_angle_beta 90.000000
_cell_angle_gamma 90.000000
_cell_volume 7800.693186
_symmetry_space_group_name_H-M "I M M A"
_symmetry_group_IT_number 74
_symmetry_cell_setting 'orthorhombic'
loop_
_space_group_symop_operation_xyz
x,y,z
-x,1/2-y,z
x,-y,-z
-x,1/2+y,-z
-x,-y,-z
x,1/2+y,-z
-x,y,z
x,1/2-y,z
1/2+x,1/2+y,1/2+z
1/2-x,-y,1/2+z
1/2+x,1/2-y,1/2-z
1/2-x,y,1/2-z
1/2-x,1/2-y,1/2-z
1/2+x,y,1/2-z
1/2-x,1/2+y,1/2+z
1/2+x,-y,1/2+z
loop_
_atom_site_type_symbol
_atom_site_label
_atom_site_fract_x
_atom_site_fract_y
_atom_site_fract_z
Si Si1 0.670732 0.319466 0.155045
Si Si2 0.424003 0.820819 0.983874
Si Si3 0.078236 0.625515 0.771743
Si Si4 0.225881 0.432634 0.973065
Si Si5 0.922628 0.485438 0.716363
Si Si6 0.697757 0.043956 0.684640
Si Si7 0.203390 0.098070 0.131905
Si Si8 0.614599 0.945514 0.053636
O O1 0.697499 0.250000 0.154467
O O2 0.631257 0.331260 0.079076
O O3 0.614354 0.327074 0.217309
O O4 0.732982 0.365473 0.164913
O O5 0.500000 0.823322 0.952312
O O6 0.415046 0.750000 0.012648
O O7 0.417417 0.878235 0.039249
O O8 0.080107 0.559297 0.729502
O O9 0.130285 0.618442 0.839021
O O10 0.000000 0.638906 0.789135
O O11 0.200538 0.417856 0.891215
O O12 0.306383 0.437829 0.964199
O O13 0.199801 0.500000 0.000000
O O14 0.208558 0.392346 0.044140
O O15 0.875115 0.456092 0.777978
O O16 0.895513 0.468176 0.636279
O O17 0.000000 0.465794 0.722445
O O18 0.750000 0.060158 0.750000
O O19 0.713135 0.973408 0.657488
O O20 0.587932 0.000000 0.000000
#
# Coordination Sequence:
#
# PCOD9534090 Si02
#       8
#    16  16  16  16  16  16  16  16
#     4  11  21  33  49  70  96 132 173 209 244 290
#     4  10  21  34  47  69 107 146 168 193 246 306
#     4  10  21  34  48  68  99 134 165 208 255 290
#     4   9  18  29  48  73  96 124 164 206 247 292
#     4  10  20  31  47  74 102 129 163 202 249 301
#     4  10  17  30  49  70  98 131 155 201 254 298
#     4  10  19  33  49  68  97 127 168 207 245 297
#     4  11  19  30  50  76 103 132 169 212 248 297
#
# _framework density 16.408798000000001
#
# number of rings (size 3 to 8) (size 9 to 14) (size 15 to 20)
#    0.000    1.875    2.500    3.375    1.750    3.750 
#    0.000    0.625    0.000    3.750    0.000    2.625 
#    0.000    0.000    0.000    0.000    0.000    0.000 
#
# Total GULP energy -356652.434114 kJ/mol
# GULP energy per Si atom -5572.694283 kJ/mol
# Density = 1.637145 g / cm^3
# Si number density = 16.408798 Si / 1000 Ang^3
#
#
#
# Elastic Constant Matrix: (Units=GPa)
#
#
# Indices 1 2 3 4 5 6 
#
# 1 96.3489 29.8319 45.6678 0.0000 0.0000 0.0000
# 2 29.8319 36.2178 23.4699 0.0000 0.0000 0.0000
# 3 45.6678 23.4699 116.0015 0.0000 0.0000 0.0000
# 4 0.0000 0.0000 0.0000 13.4852 0.0000 0.0000
# 5 0.0000 0.0000 0.0000 0.0000 18.7047 0.0000
# 6 0.0000 0.0000 0.0000 0.0000 0.0000 8.8238
#
#
#
# Elastic Compliance Matrix: (Units=1/GPa)
#
#
# Indices 1 2 3 4 5 6 
#
# 1 0.015409 -0.010083 -0.004026 0.000000 0.000000 0.000000
# 2 -0.010083 0.038375 -0.003795 0.000000 0.000000 0.000000
# 3 -0.004026 -0.003795 0.010973 0.000000 0.000000 0.000000
# 4 0.000000 0.000000 0.000000 0.074155 0.000000 0.000000
# 5 0.000000 0.000000 0.000000 0.000000 0.053462 0.000000
# 6 0.000000 0.000000 0.000000 0.000000 0.000000 0.113330
#
#
# Mechanical properties :
#
#
# Convention : Reuss Voigt Hill
#
# Bulk Modulus (GPa) = 34.54289 49.61194 42.07741
# Shear Modulus (GPa) = 14.23838 18.17599 16.20718
#
# Velocity S-wave (km/s) = 2.94892 3.33182 3.14620
# Velocity P-wave (km/s) = 5.71769 6.71580 6.23674
#
# Compressibility (1/GPa) = 0.02894952
#
# Stress axis : x y z
#
# Youngs Moduli (GPa) = 64.89561 26.05858 91.12938
#
# Poissons Ratio (x) = 0.26276 0.36692
# Poissons Ratio (y) = 0.65436 0.34580
# Poissons Ratio (z) = 0.26129 0.09888
#
# Static dielectric constant tensor:
#      x y z
#    x 1.554060 0.000000 0.000000 
#    y 0.000000 1.570720 0.000000 
#    z 0.000000 0.000000 1.577800 
# 
# From -- ./inp_files/45598.got.cif
#   From: 2010.05.17/outbox.cif.g08.bks.cpg/sg74_23_cif.got.tgz:45598.got - 2010.06.03 17:57:02.
