data_PCOD9534863
_publ_section_title
;
Structure prediction by ZEFSAII (Michael W. Deem and Ramdas Pophale) SiO2 
 PCOD9534863
Probable space group: I M M A
;
_chemical_formula_sum "Si O2"
_cell_formula_units_Z 88
_cell_length_a 31.795388
_cell_length_b 8.942852
_cell_length_c 20.139131
_cell_angle_alpha 90.000000
_cell_angle_beta 90.000000
_cell_angle_gamma 90.000000
_cell_volume 5726.389693
_symmetry_space_group_name_H-M "I M M A"
_symmetry_group_IT_number 74
_symmetry_cell_setting 'orthorhombic'
loop_
_space_group_symop_operation_xyz
x,y,z
-x,1/2-y,z
x,-y,-z
-x,1/2+y,-z
-x,-y,-z
x,1/2+y,-z
-x,y,z
x,1/2-y,z
1/2+x,1/2+y,1/2+z
1/2-x,-y,1/2+z
1/2+x,1/2-y,1/2-z
1/2-x,y,1/2-z
1/2-x,1/2-y,1/2-z
1/2+x,y,1/2-z
1/2-x,1/2+y,1/2+z
1/2+x,-y,1/2+z
loop_
_atom_site_type_symbol
_atom_site_label
_atom_site_fract_x
_atom_site_fract_y
_atom_site_fract_z
Si Si1 0.209833 0.570003 0.705261
Si Si2 0.630121 0.429083 0.295006
Si Si3 0.500000 0.571126 0.572321
Si Si4 0.662947 0.927593 0.430068
Si Si5 0.546454 0.426216 0.686754
Si Si6 0.236251 0.573274 0.430448
O O1 0.211365 0.750000 0.698737
O O2 0.250000 0.524377 0.750000
O O3 0.167310 0.529807 0.744169
O O4 0.214169 0.497715 0.633285
O O5 0.628001 0.250000 0.298755
O O6 0.641798 0.495856 0.366870
O O7 0.585071 0.497890 0.276627
O O8 0.500000 0.750000 0.570163
O O9 0.500000 0.500000 0.500000
O O10 0.539122 0.508374 0.615834
O O11 0.655027 0.750000 0.430473
O O12 0.713355 0.952073 0.423589
O O13 0.649664 0.000000 0.500000
O O14 0.500000 0.442949 0.719105
O O15 0.553863 0.250000 0.676696
O O16 0.223136 0.500000 0.500000
O O17 0.229254 0.750000 0.432619
#
# Coordination Sequence:
#
# PCOD9534863 Si02
#       6
#    16  16   8  16  16  16
#     4  10  20  34  51  73 103 134 166 206 249 296
#     4  11  21  33  52  74  97 129 166 208 254 297
#     4  10  18  32  52  72  94 124 163 204 251 300
#     4  10  20  32  46  66  94 128 169 211 250 297
#     4   9  20  36  51  68  92 122 157 203 251 293
#     4  10  20  33  51  71  97 134 171 209 251 295
#
# _framework density 15.367449000000001
#
# number of rings (size 3 to 8) (size 9 to 14) (size 15 to 20)
#    0.545    1.455    1.818    2.727    0.000    4.000 
#    0.000    3.636    0.000    0.000    0.000    0.000 
#    0.000    0.727    0.000    2.364    0.000    3.455 
#
# Total GULP energy -245356.666890 kJ/mol
# GULP energy per Si atom -5576.287884 kJ/mol
# Density = 1.533247 g / cm^3
# Si number density = 15.367449 Si / 1000 Ang^3
#
#
#
# Elastic Constant Matrix: (Units=GPa)
#
#
# Indices 1 2 3 4 5 6 
#
# 1 98.5092 50.6909 49.4183 0.0000 0.0000 0.0000
# 2 50.6909 66.5925 35.4019 0.0000 0.0000 0.0000
# 3 49.4183 35.4019 89.3927 0.0000 0.0000 0.0000
# 4 0.0000 0.0000 0.0000 27.2722 0.0000 0.0000
# 5 0.0000 0.0000 0.0000 0.0000 18.1232 0.0000
# 6 0.0000 0.0000 0.0000 0.0000 0.0000 24.6785
#
#
#
# Elastic Compliance Matrix: (Units=1/GPa)
#
#
# Indices 1 2 3 4 5 6 
#
# 1 0.018951 -0.011218 -0.006034 0.000000 0.000000 0.000000
# 2 -0.011218 0.025662 -0.003961 0.000000 0.000000 0.000000
# 3 -0.006034 -0.003961 0.016091 0.000000 0.000000 0.000000
# 4 0.000000 0.000000 0.000000 0.036667 0.000000 0.000000
# 5 0.000000 0.000000 0.000000 0.000000 0.055178 0.000000
# 6 0.000000 0.000000 0.000000 0.000000 0.000000 0.040521
#
#
# Mechanical properties :
#
#
# Convention : Reuss Voigt Hill
#
# Bulk Modulus (GPa) = 54.71170 58.39074 56.55122
# Shear Modulus (GPa) = 20.69640 21.94702 21.32171
#
# Velocity S-wave (km/s) = 3.67382 3.78319 3.72890
# Velocity P-wave (km/s) = 7.32636 7.56057 7.44438
#
# Compressibility (1/GPa) = 0.01827763
#
# Stress axis : x y z
#
# Youngs Moduli (GPa) = 52.76835 38.96862 62.14645
#
# Poissons Ratio (x) = 0.43714 0.37498
# Poissons Ratio (y) = 0.59194 0.24618
# Poissons Ratio (z) = 0.31840 0.15436
#
# Static dielectric constant tensor:
#      x y z
#    x 1.542850 0.000000 0.000000 
#    y 0.000000 1.508050 0.000000 
#    z 0.000000 0.000000 1.474960 
# 
# From -- ./inp_files/47033.got.cif
#   From: 2010.05.17/outbox.cif.g08.bks.cpg/sg74_24_cif.got.tgz:47033.got - 2010.06.03 17:57:02.
