data_PCOD9534647
_publ_section_title
;
Structure prediction by ZEFSAII (Michael W. Deem and Ramdas Pophale) SiO2 
 PCOD9534647
Probable space group: I M M A
;
_chemical_formula_sum "Si O2"
_cell_formula_units_Z 96
_cell_length_a 24.054572
_cell_length_b 21.244633
_cell_length_c 9.081931
_cell_angle_alpha 90.000000
_cell_angle_beta 90.000000
_cell_angle_gamma 90.000000
_cell_volume 4641.144231
_symmetry_space_group_name_H-M "I M M A"
_symmetry_group_IT_number 74
_symmetry_cell_setting 'orthorhombic'
loop_
_space_group_symop_operation_xyz
x,y,z
-x,1/2-y,z
x,-y,-z
-x,1/2+y,-z
-x,-y,-z
x,1/2+y,-z
-x,y,z
x,1/2-y,z
1/2+x,1/2+y,1/2+z
1/2-x,-y,1/2+z
1/2+x,1/2-y,1/2-z
1/2-x,y,1/2-z
1/2-x,1/2-y,1/2-z
1/2+x,y,1/2-z
1/2-x,1/2+y,1/2+z
1/2+x,-y,1/2+z
loop_
_atom_site_type_symbol
_atom_site_label
_atom_site_fract_x
_atom_site_fract_y
_atom_site_fract_z
Si Si1 0.150364 0.387139 0.031611
Si Si2 0.172607 0.818447 0.677748
Si Si3 0.436097 0.384817 0.710237
Si Si4 0.062332 0.859512 0.548474
Si Si5 0.437070 0.535043 0.724402
Si Si6 0.263688 0.059279 0.079587
O O1 0.171468 0.335659 0.149401
O O2 0.108917 0.433109 0.121954
O O3 0.206316 0.425181 0.993968
O O4 0.112458 0.362843 0.898886
O O5 0.197196 0.750000 0.649059
O O6 0.109052 0.819935 0.627482
O O7 0.201273 0.876664 0.593623
O O8 0.500000 0.371614 0.661085
O O9 0.430369 0.460518 0.725320
O O10 0.429752 0.358859 0.874382
O O11 0.067032 0.930019 0.618079
O O12 0.000000 0.838010 0.582156
O O13 0.500000 0.548049 0.668877
O O14 0.250000 0.042969 0.250000
O O15 0.291610 0.000000 0.000000
#
# Coordination Sequence:
#
# PCOD9534647 Si02
#       6
#    16  16  16  16  16  16
#     4  10  20  33  54  82 113 148 188 232 285 338
#     4  10  23  42  61  81 110 153 199 238 281 343
#     4  10  18  30  52  84 120 150 182 235 294 342
#     4   9  19  34  54  81 111 149 194 235 282 341
#     4   9  16  28  49  80 118 155 189 226 277 344
#     4  10  22  38  60  88 117 150 189 237 286 336
#
# _framework density 20.684553999999999
#
# number of rings (size 3 to 8) (size 9 to 14) (size 15 to 20)
#    0.000    2.333    0.000    2.500    0.000   12.667 
#    0.000    0.833    0.000    4.500    0.000    0.000 
#    0.000    0.000    0.000    0.000    0.000    0.000 
#
# Total GULP energy -267917.809155 kJ/mol
# GULP energy per Si atom -5581.621024 kJ/mol
# Density = 2.063748 g / cm^3
# Si number density = 20.684554 Si / 1000 Ang^3
#
#
#
# Elastic Constant Matrix: (Units=GPa)
#
#
# Indices 1 2 3 4 5 6 
#
# 1 92.2228 25.6322 24.5931 0.0000 0.0000 0.0000
# 2 25.6322 103.2355 13.3106 0.0000 0.0000 0.0000
# 3 24.5931 13.3106 45.5262 0.0000 0.0000 0.0000
# 4 0.0000 0.0000 0.0000 7.7032 0.0000 0.0000
# 5 0.0000 0.0000 0.0000 0.0000 31.9420 0.0000
# 6 0.0000 0.0000 0.0000 0.0000 0.0000 -3.0595
#
#
#
# Elastic Compliance Matrix: (Units=1/GPa)
#
#
# Indices 1 2 3 4 5 6 
#
# 1 0.013243 -0.002458 -0.006435 0.000000 0.000000 0.000000
# 2 -0.002458 0.010522 -0.001748 0.000000 0.000000 0.000000
# 3 -0.006435 -0.001748 0.025953 0.000000 0.000000 0.000000
# 4 0.000000 0.000000 0.000000 0.129816 0.000000 0.000000
# 5 0.000000 0.000000 0.000000 0.000000 0.031307 0.000000
# 6 0.000000 0.000000 0.000000 0.000000 0.000000 -0.326851
#
#
# Mechanical properties :
#
#
# Convention : Reuss Voigt Hill
#
# Bulk Modulus (GPa) = 35.16873 40.89513 38.03193
# Shear Modulus (GPa) = -58.65166 19.14705 -19.75231
#
# Velocity S-wave (km/s) = -5.33075 3.04578 -3.09355
# Velocity P-wave (km/s) = 4.56616 5.67299 2.38044
#
# Compressibility (1/GPa) = 0.02843435
#
# Stress axis : x y z
#
# Youngs Moduli (GPa) = 75.51415 95.03538 38.53169
#
# Poissons Ratio (x) = 0.23363 0.24795
# Poissons Ratio (y) = 0.18564 0.06737
# Poissons Ratio (z) = 0.48592 0.16617
#
# Static dielectric constant tensor:
#      x y z
#    x 1.778340 0.000000 0.000000 
#    y 0.000000 1.769420 0.000000 
#    z 0.000000 0.000000 1.743310 
# 
# From -- ./inp_files/15142.got.cif
#   From: 2010.05.17/outbox.cif.g08.bks.cpg/sg74_8_cif.got.tgz:15142.got - 2010.06.03 17:57:02.
