data_PCOD9534169
_publ_section_title
;
Structure prediction by ZEFSAII (Michael W. Deem and Ramdas Pophale) SiO2 
 PCOD9534169
Probable space group: I M M A
;
_chemical_formula_sum "Si O2"
_cell_formula_units_Z 64
_cell_length_a 37.501117
_cell_length_b 9.858230
_cell_length_c 7.275491
_cell_angle_alpha 90.000000
_cell_angle_beta 90.000000
_cell_angle_gamma 90.000000
_cell_volume 2689.710002
_symmetry_space_group_name_H-M "I M M A"
_symmetry_group_IT_number 74
_symmetry_cell_setting 'orthorhombic'
loop_
_space_group_symop_operation_xyz
x,y,z
-x,1/2-y,z
x,-y,-z
-x,1/2+y,-z
-x,-y,-z
x,1/2+y,-z
-x,y,z
x,1/2-y,z
1/2+x,1/2+y,1/2+z
1/2-x,-y,1/2+z
1/2+x,1/2-y,1/2-z
1/2-x,y,1/2-z
1/2-x,1/2-y,1/2-z
1/2+x,y,1/2-z
1/2-x,1/2+y,1/2+z
1/2+x,-y,1/2+z
loop_
_atom_site_type_symbol
_atom_site_label
_atom_site_fract_x
_atom_site_fract_y
_atom_site_fract_z
Si Si1 0.576846 0.011779 0.275761
Si Si2 0.200151 0.250000 0.679302
Si Si3 0.706125 0.750000 0.614317
Si Si4 0.872254 0.250000 0.175312
Si Si5 0.500000 0.089430 0.313931
Si Si6 0.381592 0.250000 0.772957
Si Si7 0.250000 0.492150 0.750000
O O1 0.606813 0.123265 0.247973
O O2 0.537214 0.053392 0.216099
O O3 0.574624 0.000000 0.500000
O O4 0.593314 0.877756 0.190837
O O5 0.157870 0.250000 0.636110
O O6 0.223827 0.385526 0.639277
O O7 0.200120 0.250000 0.899280
O O8 0.669015 0.750000 0.719393
O O9 0.724345 0.894924 0.656672
O O10 0.875562 0.250000 0.951149
O O11 0.500000 0.250000 0.357754
O O12 0.500000 0.000000 0.500000
#
# Coordination Sequence:
#
# PCOD9534169 Si02
#       7
#    16   8   8   8   8   8   8
#     4   9  16  23  34  49  70  96 135 170 212 244
#     4  10  19  33  47  63  91 112 143 193 231 260
#     4  10  19  31  47  65  87 112 147 187 229 264
#     4   9  15  26  39  53  72 101 134 176 212 249
#     4  10  18  24  32  46  72 100 130 176 215 241
#     4   9  17  26  39  55  70 103 136 174 218 251
#     4  10  20  30  46  68  84 112 144 182 230 282
#
# _framework density 23.794385999999999
#
# number of rings (size 3 to 8) (size 9 to 14) (size 15 to 20)
#    0.000    2.500    1.250    2.250    5.250    4.000 
#    0.000    0.000    0.000    0.000    0.000    0.000 
#    0.000    0.000    0.000    0.000    0.000    0.000 
#
# Total GULP energy -178571.854834 kJ/mol
# GULP energy per Si atom -5580.370464 kJ/mol
# Density = 2.374023 g / cm^3
# Si number density = 23.794386 Si / 1000 Ang^3
#
#
#
# Elastic Constant Matrix: (Units=GPa)
#
#
# Indices 1 2 3 4 5 6 
#
# 1 269.0023 129.0793 19.2248 0.0000 0.0000 0.0000
# 2 129.0793 246.8186 15.2632 -0.0001 0.0000 0.0000
# 3 19.2248 15.2632 66.6288 -0.0001 -0.0001 -0.0001
# 4 0.0000 -0.0001 -0.0001 15.9531 -0.0001 -0.0001
# 5 0.0000 0.0000 -0.0001 -0.0001 2.7163 0.0000
# 6 0.0000 0.0000 -0.0001 -0.0001 0.0000 39.8209
#
#
#
# Elastic Compliance Matrix: (Units=1/GPa)
#
#
# Indices 1 2 3 4 5 6 
#
# 1 0.005011 -0.002567 -0.000858 0.000000 0.000000 0.000000
# 2 -0.002567 0.005425 -0.000502 0.000000 0.000000 0.000000
# 3 -0.000858 -0.000502 0.015371 0.000000 0.000001 0.000000
# 4 0.000000 0.000000 0.000000 0.062684 0.000002 0.000000
# 5 0.000000 0.000000 0.000001 0.000002 0.368151 0.000000
# 6 0.000000 0.000000 0.000000 0.000000 0.000000 0.025112
#
#
# Mechanical properties :
#
#
# Convention : Reuss Voigt Hill
#
# Bulk Modulus (GPa) = 55.70150 101.06490 78.38320
# Shear Modulus (GPa) = 10.08893 39.62356 24.85625
#
# Velocity S-wave (km/s) = 2.06137 4.08517 3.23557
# Velocity P-wave (km/s) = 5.39685 8.05096 6.85361
#
# Compressibility (1/GPa) = 0.01795284
#
# Stress axis : x y z
#
# Youngs Moduli (GPa) = 199.57312 184.32190 65.05766
#
# Poissons Ratio (x) = 0.47323 0.05580
# Poissons Ratio (y) = 0.51239 0.03266
# Poissons Ratio (z) = 0.17116 0.09253
#
# Static dielectric constant tensor:
#      x y z
#    x 1.896840 0.000000 0.000000 
#    y 0.000000 1.557800 0.000000 
#    z 0.000000 0.000000 2.064940 
# 
# From -- ./inp_files/37640.got.cif
#   From: 2010.05.17/outbox.cif.g08.bks.cpg/sg74_19_cif.got.tgz:37640.got - 2010.06.03 17:57:02.
