data_PCOD9534247
_publ_section_title
;
Structure prediction by ZEFSAII (Michael W. Deem and Ramdas Pophale) SiO2 
 PCOD9534247
Probable space group: I M M A
;
_chemical_formula_sum "Si O2"
_cell_formula_units_Z 104
_cell_length_a 9.111065
_cell_length_b 37.957133
_cell_length_c 27.854288
_cell_angle_alpha 90.000000
_cell_angle_beta 90.000000
_cell_angle_gamma 90.000000
_cell_volume 9632.845800
_symmetry_space_group_name_H-M "I M M A"
_symmetry_group_IT_number 74
_symmetry_cell_setting 'orthorhombic'
loop_
_space_group_symop_operation_xyz
x,y,z
-x,1/2-y,z
x,-y,-z
-x,1/2+y,-z
-x,-y,-z
x,1/2+y,-z
-x,y,z
x,1/2-y,z
1/2+x,1/2+y,1/2+z
1/2-x,-y,1/2+z
1/2+x,1/2-y,1/2-z
1/2-x,y,1/2-z
1/2-x,1/2-y,1/2-z
1/2+x,y,1/2-z
1/2-x,1/2+y,1/2+z
1/2+x,-y,1/2+z
loop_
_atom_site_type_symbol
_atom_site_label
_atom_site_fract_x
_atom_site_fract_y
_atom_site_fract_z
Si Si1 0.174154 0.036395 0.301564
Si Si2 0.169166 0.926988 0.945393
Si Si3 0.330235 0.037098 0.970477
Si Si4 0.825664 0.390759 0.359516
Si Si5 0.830929 0.499031 0.886526
Si Si6 0.674856 0.250000 0.301794
Si Si7 0.323266 0.172368 0.302901
O O1 0.250000 0.035184 0.250000
O O2 0.244959 0.008285 0.338038
O O3 0.000000 0.030949 0.297597
O O4 0.197459 0.074944 0.325518
O O5 0.258329 0.900744 0.911133
O O6 0.000000 0.916206 0.951215
O O7 0.168912 0.964366 0.916870
O O8 0.246777 0.935134 0.995839
O O9 0.500000 0.046578 0.963429
O O10 0.249186 0.029047 0.920596
O O11 0.328373 0.000000 0.000000
O O12 0.743971 0.357882 0.335854
O O13 0.000000 0.384799 0.362759
O O14 0.000000 0.489610 0.877414
O O15 0.500000 0.250000 0.295021
O O16 0.750000 0.250000 0.250000
O O17 0.710977 0.288297 0.323273
O O18 0.500000 0.168548 0.298746
O O19 0.250000 0.169728 0.250000
#
# Coordination Sequence:
#
# PCOD9534247 Si02
#       7
#    16  16  16  16  16   8  16
#     4  10  19  28  36  46  62  82 103 127 155 187
#     4   9  16  25  36  49  64  81 100 122 148 179
#     4   9  15  23  35  49  64  80  98 121 148 177
#     4  10  19  28  37  50  66  83 102 124 153 189
#     4   9  16  25  36  48  61  78 101 125 149 179
#     4   8  16  28  40  52  64  78  98 124 152 182
#     4  10  18  28  40  52  65  81 101 125 153 186
#
# _framework density 10.796393999999999
#
# number of rings (size 3 to 8) (size 9 to 14) (size 15 to 20)
#    0.000    2.615    0.000    3.231    0.000    9.231 
#    0.000    0.000    0.000    0.000    0.000    0.000 
#    0.000    0.000    0.000    0.000    0.000    0.000 
#
# Total GULP energy -289580.578193 kJ/mol
# GULP energy per Si atom -5568.857273 kJ/mol
# Density = 1.077182 g / cm^3
# Si number density = 10.796394 Si / 1000 Ang^3
#
#
#
# Elastic Constant Matrix: (Units=GPa)
#
#
# Indices 1 2 3 4 5 6 
#
# 1 91.8853 39.4790 55.8475 0.0000 0.0000 0.0000
# 2 39.4790 47.2803 43.2191 0.0000 0.0000 0.0000
# 3 55.8475 43.2191 67.6242 0.0000 0.0000 0.0000
# 4 0.0000 0.0000 0.0000 11.2180 0.0000 0.0000
# 5 0.0000 0.0000 0.0000 0.0000 19.5405 0.0000
# 6 0.0000 0.0000 0.0000 0.0000 0.0000 12.2245
#
#
#
# Elastic Compliance Matrix: (Units=1/GPa)
#
#
# Indices 1 2 3 4 5 6 
#
# 1 0.022205 -0.004277 -0.015605 0.000000 0.000000 0.000000
# 2 -0.004277 0.051692 -0.029504 0.000000 0.000000 0.000000
# 3 -0.015605 -0.029504 0.046531 0.000000 0.000000 0.000000
# 4 0.000000 0.000000 0.000000 0.089142 0.000000 0.000000
# 5 0.000000 0.000000 0.000000 0.000000 0.051176 0.000000
# 6 0.000000 0.000000 0.000000 0.000000 0.000000 0.081803
#
#
# Mechanical properties :
#
#
# Convention : Reuss Voigt Hill
#
# Bulk Modulus (GPa) = 46.17661 53.76453 49.97057
# Shear Modulus (GPa) = 11.14726 13.14621 12.14673
#
# Velocity S-wave (km/s) = 3.21674 3.49327 3.35785
# Velocity P-wave (km/s) = 7.52727 8.13494 7.83700
#
# Compressibility (1/GPa) = 0.02165598
#
# Stress axis : x y z
#
# Youngs Moduli (GPa) = 45.03424 19.34544 21.49088
#
# Poissons Ratio (x) = 0.08274 0.33536
# Poissons Ratio (y) = 0.19261 0.63408
# Poissons Ratio (z) = 0.70275 0.57078
#
# Static dielectric constant tensor:
#      x y z
#    x 1.360270 0.000000 0.000000 
#    y 0.000000 1.334490 0.000000 
#    z 0.000000 0.000000 1.329250 
# 
# From -- ./inp_files/65235.got.cif
#   From: 2010.05.17/outbox.cif.g08.bks.cpg/sg74_33_cif.got.tgz:65235.got - 2010.06.03 17:57:02.
