data_PCOD9534747
_publ_section_title
;
Structure prediction by ZEFSAII (Michael W. Deem and Ramdas Pophale) SiO2 
 PCOD9534747
Probable space group: I M M A
;
_chemical_formula_sum "Si O2"
_cell_formula_units_Z 80
_cell_length_a 16.190403
_cell_length_b 7.806217
_cell_length_c 29.808451
_cell_angle_alpha 90.000000
_cell_angle_beta 90.000000
_cell_angle_gamma 90.000000
_cell_volume 3767.364901
_symmetry_space_group_name_H-M "I M M A"
_symmetry_group_IT_number 74
_symmetry_cell_setting 'orthorhombic'
loop_
_space_group_symop_operation_xyz
x,y,z
-x,1/2-y,z
x,-y,-z
-x,1/2+y,-z
-x,-y,-z
x,1/2+y,-z
-x,y,z
x,1/2-y,z
1/2+x,1/2+y,1/2+z
1/2-x,-y,1/2+z
1/2+x,1/2-y,1/2-z
1/2-x,y,1/2-z
1/2-x,1/2-y,1/2-z
1/2+x,y,1/2-z
1/2-x,1/2+y,1/2+z
1/2+x,-y,1/2+z
loop_
_atom_site_type_symbol
_atom_site_label
_atom_site_fract_x
_atom_site_fract_y
_atom_site_fract_z
Si Si1 0.829037 0.045357 0.951378
Si Si2 0.089580 0.949573 0.353706
Si Si3 0.861926 0.054269 0.449991
Si Si4 0.248977 0.959953 0.198148
Si Si5 0.908224 0.459231 0.858705
O O1 0.817263 0.250000 0.948888
O O2 0.884026 0.991473 0.909415
O O3 0.737634 0.965313 0.948463
O O4 0.864520 0.000000 0.000000
O O5 0.086569 0.750000 0.340592
O O6 0.170054 0.021707 0.328750
O O7 0.000000 0.026886 0.342803
O O8 0.103016 0.956142 0.407248
O O9 0.885198 0.250000 0.443567
O O10 0.887903 0.000000 0.500000
O O11 0.248887 0.750000 0.196382
O O12 0.250000 0.010047 0.250000
O O13 0.165414 0.016686 0.173555
O O14 0.908904 0.250000 0.857547
O O15 0.000000 0.517926 0.846700
#
# Coordination Sequence:
#
# PCOD9534747 Si02
#       5
#    16  16  16  16  16
#     4  10  18  31  51  76 108 143 180 217 262 313
#     4  10  20  35  55  81 112 144 179 222 269 318
#     4  11  21  34  55  80 109 145 184 221 267 318
#     4   9  17  31  52  78 109 141 175 220 271 318
#     4   9  17  29  48  75 107 139 173 215 264 314
#
# _framework density 21.235001
#
# number of rings (size 3 to 8) (size 9 to 14) (size 15 to 20)
#    0.000    2.200    2.000    3.600    0.000    2.000 
#    0.000    4.000    0.000    2.400    0.000    0.000 
#    0.000    0.000    0.000    0.000    0.000    0.000 
#
# Total GULP energy -223355.215662 kJ/mol
# GULP energy per Si atom -5583.880392 kJ/mol
# Density = 2.118667 g / cm^3
# Si number density = 21.235001 Si / 1000 Ang^3
#
#
#
# Elastic Constant Matrix: (Units=GPa)
#
#
# Indices 1 2 3 4 5 6 
#
# 1 186.3214 -1.1360 103.3069 0.0000 0.0000 0.0000
# 2 -1.1360 34.6576 -6.5760 0.0000 0.0000 0.0000
# 3 103.3069 -6.5760 153.0642 0.0000 0.0000 0.0000
# 4 0.0000 0.0000 0.0000 15.1421 0.0000 0.0000
# 5 0.0000 0.0000 0.0000 0.0000 -24.0817 0.0000
# 6 0.0000 0.0000 0.0000 0.0000 0.0000 0.6460
#
#
#
# Elastic Compliance Matrix: (Units=1/GPa)
#
#
# Indices 1 2 3 4 5 6 
#
# 1 0.008600 -0.000826 -0.005840 0.000000 0.000000 0.000000
# 2 -0.000826 0.029170 0.001811 0.000000 0.000000 0.000000
# 3 -0.005840 0.001811 0.010552 0.000000 0.000000 0.000000
# 4 0.000000 0.000000 0.000000 0.066041 0.000000 0.000000
# 5 0.000000 0.000000 0.000000 0.000000 -0.041525 0.000000
# 6 0.000000 0.000000 0.000000 0.000000 0.000000 1.547912
#
#
# Mechanical properties :
#
#
# Convention : Reuss Voigt Hill
#
# Bulk Modulus (GPa) = 25.89850 62.80368 44.35109
# Shear Modulus (GPa) = 3.04260 16.90451 9.97356
#
# Velocity S-wave (km/s) = 1.19830 2.82453 2.16955
# Velocity P-wave (km/s) = 3.75995 6.34642 5.21604
#
# Compressibility (1/GPa) = 0.03861228
#
# Stress axis : x y z
#
# Youngs Moduli (GPa) = 116.27975 34.28153 94.76479
#
# Poissons Ratio (x) = 0.02832 0.55341
# Poissons Ratio (y) = 0.09607 -0.17160
# Poissons Ratio (z) = 0.67905 -0.06208
#
# Static dielectric constant tensor:
#      x y z
#    x 1.771830 0.000000 0.000000 
#    y 0.000000 1.790630 0.000000 
#    z 0.000000 0.000000 1.753790 
# 
# From -- ./inp_files/72852.got.cif
#   From: 2010.05.17/outbox.cif.g08.bks.cpg/sg74_37_cif.got.tgz:72852.got - 2010.06.03 17:57:02.
