data_PCOD9534582
_publ_section_title
;
Structure prediction by ZEFSAII (Michael W. Deem and Ramdas Pophale) SiO2 
 PCOD9534582
Probable space group: I M M A
;
_chemical_formula_sum "Si O2"
_cell_formula_units_Z 76
_cell_length_a 15.035303
_cell_length_b 8.884950
_cell_length_c 29.254289
_cell_angle_alpha 90.000000
_cell_angle_beta 90.000000
_cell_angle_gamma 90.000000
_cell_volume 3908.019484
_symmetry_space_group_name_H-M "I M M A"
_symmetry_group_IT_number 74
_symmetry_cell_setting 'orthorhombic'
loop_
_space_group_symop_operation_xyz
x,y,z
-x,1/2-y,z
x,-y,-z
-x,1/2+y,-z
-x,-y,-z
x,1/2+y,-z
-x,y,z
x,1/2-y,z
1/2+x,1/2+y,1/2+z
1/2-x,-y,1/2+z
1/2+x,1/2-y,1/2-z
1/2-x,y,1/2-z
1/2-x,1/2-y,1/2-z
1/2+x,y,1/2-z
1/2-x,1/2+y,1/2+z
1/2+x,-y,1/2+z
loop_
_atom_site_type_symbol
_atom_site_label
_atom_site_fract_x
_atom_site_fract_y
_atom_site_fract_z
Si Si1 0.168105 0.084264 0.111354
Si Si2 0.660633 0.927691 0.106102
Si Si3 0.000000 0.570469 0.550099
Si Si4 0.392304 0.427172 0.200461
Si Si5 0.107794 0.576557 0.203690
Si Si6 0.000000 0.250000 0.077855
O O1 0.210656 0.250000 0.118117
O O2 0.241094 0.975244 0.090143
O O3 0.079206 0.120649 0.083020
O O4 0.139714 0.017626 0.160254
O O5 0.647116 0.250000 0.896224
O O6 0.586085 0.011955 0.077057
O O7 0.650241 0.985206 0.158184
O O8 0.000000 0.500000 0.500000
O O9 0.000000 0.750000 0.548221
O O10 0.500000 0.441209 0.196283
O O11 0.371338 0.250000 0.199695
O O12 0.365449 0.500114 0.248665
O O13 0.137901 0.750000 0.201053
O O14 0.000000 0.575898 0.202821
#
# Coordination Sequence:
#
# PCOD9534582 Si02
#       6
#    16  16   8  16  16   4
#     4  10  19  36  57  83 116 162 213 259 308 370
#     4  12  24  39  61  93 126 159 206 256 308 377
#     4  12  26  48  73 100 134 168 198 246 313 373
#     4  10  20  33  52  76 113 164 210 260 315 372
#     4  10  18  30  49  76 114 159 210 266 322 368
#     4   8  20  36  60  80 122 156 208 260 308 352
#
# _framework density 19.447191
#
# number of rings (size 3 to 8) (size 9 to 14) (size 15 to 20)
#    0.632    0.842    2.105    4.737    0.000    2.526 
#    0.000    4.211    0.000    0.000    0.000    0.737 
#    0.000    0.000    0.000    0.000    0.000    0.000 
#
# Total GULP energy -211702.769316 kJ/mol
# GULP energy per Si atom -5571.125508 kJ/mol
# Density = 1.940293 g / cm^3
# Si number density = 19.447191 Si / 1000 Ang^3
#
#
#
# Elastic Constant Matrix: (Units=GPa)
#
#
# Indices 1 2 3 4 5 6 
#
# 1 81.2106 18.3958 9.2350 0.0000 0.0000 0.0000
# 2 18.3958 143.9636 9.9193 0.0000 0.0000 0.0000
# 3 9.2350 9.9193 19.7712 0.0000 0.0000 0.0000
# 4 0.0000 0.0000 0.0000 23.4487 0.0000 0.0000
# 5 0.0000 0.0000 0.0000 0.0000 -9.2918 0.0000
# 6 0.0000 0.0000 0.0000 0.0000 0.0000 33.3077
#
#
#
# Elastic Compliance Matrix: (Units=1/GPa)
#
#
# Indices 1 2 3 4 5 6 
#
# 1 0.013239 -0.001311 -0.005526 0.000000 0.000000 0.000000
# 2 -0.001311 0.007325 -0.003062 0.000000 0.000000 0.000000
# 3 -0.005526 -0.003062 0.054696 0.000000 0.000000 0.000000
# 4 0.000000 0.000000 0.000000 0.042646 0.000000 0.000000
# 5 0.000000 0.000000 0.000000 0.000000 -0.107621 0.000000
# 6 0.000000 0.000000 0.000000 0.000000 0.000000 0.030023
#
#
# Mechanical properties :
#
#
# Convention : Reuss Voigt Hill
#
# Bulk Modulus (GPa) = 18.03073 35.56062 26.79568
# Shear Modulus (GPa) = 63.61781 23.31926 43.46853
#
# Velocity S-wave (km/s) = 5.72574 3.46657 4.73293
# Velocity P-wave (km/s) = 7.28038 5.86074 6.60879
#
# Compressibility (1/GPa) = 0.05546087
#
# Stress axis : x y z
#
# Youngs Moduli (GPa) = 75.53414 136.52399 18.28275
#
# Poissons Ratio (x) = 0.17897 0.10103
# Poissons Ratio (y) = 0.09902 0.05599
# Poissons Ratio (z) = 0.41742 0.41810
#
# Static dielectric constant tensor:
#      x y z
#    x 1.737300 0.000000 0.000000 
#    y 0.000000 1.668400 0.000000 
#    z 0.000000 0.000000 1.660560 
# 
# From -- ./inp_files/67548.got.cif
#   From: 2010.05.17/outbox.cif.g08.bks.cpg/sg74_34_cif.got.tgz:67548.got - 2010.06.03 17:57:02.
