data_PCOD9534888
_publ_section_title
;
Structure prediction by ZEFSAII (Michael W. Deem and Ramdas Pophale) SiO2 
 PCOD9534888
Probable space group: I M M A
;
_chemical_formula_sum "Si O2"
_cell_formula_units_Z 72
_cell_length_a 8.732444
_cell_length_b 15.779635
_cell_length_c 28.768959
_cell_angle_alpha 90.000000
_cell_angle_beta 90.000000
_cell_angle_gamma 90.000000
_cell_volume 3964.212347
_symmetry_space_group_name_H-M "I M M A"
_symmetry_group_IT_number 74
_symmetry_cell_setting 'orthorhombic'
loop_
_space_group_symop_operation_xyz
x,y,z
-x,1/2-y,z
x,-y,-z
-x,1/2+y,-z
-x,-y,-z
x,1/2+y,-z
-x,y,z
x,1/2-y,z
1/2+x,1/2+y,1/2+z
1/2-x,-y,1/2+z
1/2+x,1/2-y,1/2-z
1/2-x,y,1/2-z
1/2-x,1/2-y,1/2-z
1/2+x,y,1/2-z
1/2-x,1/2+y,1/2+z
1/2+x,-y,1/2+z
loop_
_atom_site_type_symbol
_atom_site_label
_atom_site_fract_x
_atom_site_fract_y
_atom_site_fract_z
Si Si1 0.318118 0.652545 0.445900
Si Si2 0.683149 0.846740 0.556618
Si Si3 0.183530 0.250000 0.302473
Si Si4 0.681653 0.573749 0.698520
Si Si5 0.679951 0.502552 0.112988
O O1 0.500000 0.639408 0.438297
O O2 0.281342 0.750000 0.433987
O O3 0.292488 0.642640 0.501228
O O4 0.226097 0.584888 0.416278
O O5 0.500000 0.854444 0.565253
O O6 0.728494 0.750000 0.568941
O O7 0.769512 0.920619 0.583208
O O8 0.250000 0.250000 0.250000
O O9 0.248806 0.162069 0.321402
O O10 0.000000 0.250000 0.302667
O O11 0.500000 0.582215 0.702014
O O12 0.750000 0.560236 0.750000
O O13 0.730843 0.503092 0.661818
O O14 0.500000 0.499904 0.121921
#
# Coordination Sequence:
#
# PCOD9534888 Si02
#       5
#    16  16   8  16  16
#     4   9  19  38  61  82 107 144 189 235 281 334
#     4   9  19  36  57  81 112 149 189 230 275 330
#     4  10  18  32  52  76 106 140 178 218 266 322
#     4  11  22  38  57  78 108 146 186 229 275 327
#     4  12  24  35  53  83 116 149 186 230 278 334
#
# _framework density 18.162497999999999
#
# number of rings (size 3 to 8) (size 9 to 14) (size 15 to 20)
#    0.000    1.778    0.000    8.333    1.556    4.444 
#    0.000    2.222    0.000    0.667    0.000    0.000 
#    0.000    0.000    0.000    0.000    0.000    0.000 
#
# Total GULP energy -201146.651399 kJ/mol
# GULP energy per Si atom -5587.406983 kJ/mol
# Density = 1.812116 g / cm^3
# Si number density = 18.162498 Si / 1000 Ang^3
#
#
#
# Elastic Constant Matrix: (Units=GPa)
#
#
# Indices 1 2 3 4 5 6 
#
# 1 127.1079 45.7371 44.4361 0.0000 0.0000 0.0000
# 2 45.7371 66.5023 43.6610 0.0000 0.0000 0.0000
# 3 44.4361 43.6610 62.4240 0.0000 0.0000 0.0000
# 4 0.0000 0.0000 0.0000 20.5102 0.0000 0.0000
# 5 0.0000 0.0000 0.0000 0.0000 27.8767 0.0000
# 6 0.0000 0.0000 0.0000 0.0000 0.0000 11.7458
#
#
#
# Elastic Compliance Matrix: (Units=1/GPa)
#
#
# Indices 1 2 3 4 5 6 
#
# 1 0.011173 -0.004553 -0.004768 0.000000 0.000000 0.000000
# 2 -0.004553 0.029661 -0.017504 0.000000 0.000000 0.000000
# 3 -0.004768 -0.017504 0.031657 0.000000 0.000000 0.000000
# 4 0.000000 0.000000 0.000000 0.048756 0.000000 0.000000
# 5 0.000000 0.000000 0.000000 0.000000 0.035872 0.000000
# 6 0.000000 0.000000 0.000000 0.000000 0.000000 0.085137
#
#
# Mechanical properties :
#
#
# Convention : Reuss Voigt Hill
#
# Bulk Modulus (GPa) = 53.08381 58.18917 55.63649
# Shear Modulus (GPa) = 16.54600 20.17320 18.35960
#
# Velocity S-wave (km/s) = 3.02155 3.33634 3.18284
# Velocity P-wave (km/s) = 6.43922 6.85195 6.64879
#
# Compressibility (1/GPa) = 0.01883814
#
# Stress axis : x y z
#
# Youngs Moduli (GPa) = 89.50276 33.71442 31.58874
#
# Poissons Ratio (x) = 0.15352 0.15063
# Poissons Ratio (y) = 0.40755 0.55294
# Poissons Ratio (z) = 0.42679 0.59015
#
# Static dielectric constant tensor:
#      x y z
#    x 1.613250 0.000000 0.000000 
#    y 0.000000 1.629950 0.000000 
#    z 0.000000 0.000000 1.294430 
# 
# From -- ./inp_files/63600.got.cif
#   From: 2010.05.17/outbox.cif.g08.bks.cpg/sg74_32_cif.got.tgz:63600.got - 2010.06.03 17:57:02.
