data_PCOD9534390
_publ_section_title
;
Structure prediction by ZEFSAII (Michael W. Deem and Ramdas Pophale) SiO2 
 PCOD9534390
Probable space group: I M M A
;
_chemical_formula_sum "Si O2"
_cell_formula_units_Z 52
_cell_length_a 16.062845
_cell_length_b 17.044178
_cell_length_c 7.771139
_cell_angle_alpha 90.000000
_cell_angle_beta 90.000000
_cell_angle_gamma 90.000000
_cell_volume 2127.566811
_symmetry_space_group_name_H-M "I M M A"
_symmetry_group_IT_number 74
_symmetry_cell_setting 'orthorhombic'
loop_
_space_group_symop_operation_xyz
x,y,z
-x,1/2-y,z
x,-y,-z
-x,1/2+y,-z
-x,-y,-z
x,1/2+y,-z
-x,y,z
x,1/2-y,z
1/2+x,1/2+y,1/2+z
1/2-x,-y,1/2+z
1/2+x,1/2-y,1/2-z
1/2-x,y,1/2-z
1/2-x,1/2-y,1/2-z
1/2+x,y,1/2-z
1/2-x,1/2+y,1/2+z
1/2+x,-y,1/2+z
loop_
_atom_site_type_symbol
_atom_site_label
_atom_site_fract_x
_atom_site_fract_y
_atom_site_fract_z
Si Si1 0.136946 0.119046 0.391243
Si Si2 0.000000 0.250000 0.298444
Si Si3 0.300212 0.164955 0.569180
Si Si4 0.095737 0.042071 0.757081
O O1 0.073513 0.181275 0.312393
O O2 0.228198 0.152219 0.431392
O O3 0.101603 0.092515 0.579651
O O4 0.141371 0.038955 0.283767
O O5 0.341813 0.250000 0.547909
O O6 0.250000 0.166526 0.750000
O O7 0.136428 0.094133 0.905764
O O8 0.000000 0.025352 0.791979
#
# Coordination Sequence:
#
# PCOD9534390 Si02
#       4
#    16   4  16  16
#     4  10  18  29  46  77 107 136 166 227 270 315
#     4  12  16  26  54  76 110 128 176 222 274 314
#     4   9  18  28  45  74 104 134 174 219 272 314
#     4  10  18  29  45  75 107 133 172 219 274 320
#
# _framework density 24.441065999999999
#
# number of rings (size 3 to 8) (size 9 to 14) (size 15 to 20)
#    0.000    2.154    4.615    0.923    2.154    0.615 
#    0.000    0.000    0.000    0.000    8.000   11.846 
#    0.000    0.000    0.000    0.000    0.000    0.000 
#
# Total GULP energy -145087.001409 kJ/mol
# GULP energy per Si atom -5580.269285 kJ/mol
# Density = 2.438544 g / cm^3
# Si number density = 24.441066 Si / 1000 Ang^3
#
#
#
# Elastic Constant Matrix: (Units=GPa)
#
#
# Indices 1 2 3 4 5 6 
#
# 1 58.3458 43.4457 23.1234 0.0000 0.0000 0.0000
# 2 43.4457 169.4296 13.6723 0.0000 0.0000 0.0000
# 3 23.1234 13.6723 99.3287 0.0000 0.0000 0.0000
# 4 0.0000 0.0000 0.0000 9.2839 0.0000 0.0000
# 5 0.0000 0.0000 0.0000 0.0000 -7.0548 0.0000
# 6 0.0000 0.0000 0.0000 0.0000 0.0000 53.6352
#
#
#
# Elastic Compliance Matrix: (Units=1/GPa)
#
#
# Indices 1 2 3 4 5 6 
#
# 1 0.023101 -0.005551 -0.004614 0.000000 0.000000 0.000000
# 2 -0.005551 0.007302 0.000287 0.000000 0.000000 0.000000
# 3 -0.004614 0.000287 0.011102 0.000000 0.000000 0.000000
# 4 0.000000 0.000000 0.000000 0.107713 0.000000 0.000000
# 5 0.000000 0.000000 0.000000 0.000000 -0.141748 0.000000
# 6 0.000000 0.000000 0.000000 0.000000 0.000000 0.018644
#
#
# Mechanical properties :
#
#
# Convention : Reuss Voigt Hill
#
# Bulk Modulus (GPa) = 45.97705 54.17632 50.07669
# Shear Modulus (GPa) = 94.12354 27.63038 60.87696
#
# Velocity S-wave (km/s) = 6.21241 3.36592 4.99617
# Velocity P-wave (km/s) = 8.38516 6.10902 7.33591
#
# Compressibility (1/GPa) = 0.02174998
#
# Stress axis : x y z
#
# Youngs Moduli (GPa) = 43.28738 136.93944 90.07280
#
# Poissons Ratio (x) = 0.76021 0.41558
# Poissons Ratio (y) = 0.24031 -0.02587
# Poissons Ratio (z) = 0.19972 -0.03933
#
# Static dielectric constant tensor:
#      x y z
#    x 1.868610 0.000000 0.000000 
#    y 0.000000 1.905590 0.000000 
#    z 0.000000 0.000000 2.044130 
# 
# From -- ./inp_files/9904.got.cif
#   From: 2010.05.17/outbox.cif.g08.bks.cpg/sg74_5_cif.got.tgz:9904.got - 2010.06.03 17:57:02.
