data_PCOD9534506
_publ_section_title
;
Structure prediction by ZEFSAII (Michael W. Deem and Ramdas Pophale) SiO2 
 PCOD9534506
Probable space group: I M M A
;
_chemical_formula_sum "Si O2"
_cell_formula_units_Z 88
_cell_length_a 28.896066
_cell_length_b 9.782347
_cell_length_c 21.097871
_cell_angle_alpha 90.000000
_cell_angle_beta 90.000000
_cell_angle_gamma 90.000000
_cell_volume 5963.763563
_symmetry_space_group_name_H-M "I M M A"
_symmetry_group_IT_number 74
_symmetry_cell_setting 'orthorhombic'
loop_
_space_group_symop_operation_xyz
x,y,z
-x,1/2-y,z
x,-y,-z
-x,1/2+y,-z
-x,-y,-z
x,1/2+y,-z
-x,y,z
x,1/2-y,z
1/2+x,1/2+y,1/2+z
1/2-x,-y,1/2+z
1/2+x,1/2-y,1/2-z
1/2-x,y,1/2-z
1/2-x,1/2-y,1/2-z
1/2+x,y,1/2-z
1/2-x,1/2+y,1/2+z
1/2+x,-y,1/2+z
loop_
_atom_site_type_symbol
_atom_site_label
_atom_site_fract_x
_atom_site_fract_y
_atom_site_fract_z
Si Si1 0.552853 0.591300 0.678424
Si Si2 0.786460 0.095259 0.120839
Si Si3 0.783172 0.406760 0.687724
Si Si4 0.852800 0.408466 0.242045
Si Si5 0.429714 0.406054 0.556640
Si Si6 0.838762 0.500000 0.000000
O O1 0.500000 0.579217 0.701234
O O2 0.559338 0.750000 0.656102
O O3 0.593096 0.566761 0.729403
O O4 0.560449 0.486399 0.621062
O O5 0.769182 0.250000 0.129570
O O6 0.826546 0.075263 0.174107
O O7 0.808319 0.077024 0.051751
O O8 0.746189 0.987636 0.135322
O O9 0.792617 0.250000 0.670800
O O10 0.750000 0.406984 0.750000
O O11 0.828305 0.490283 0.709151
O O12 0.846026 0.250000 0.260893
O O13 0.449229 0.500000 0.500000
O O14 0.445681 0.250000 0.557215
O O15 0.374748 0.407983 0.540349
#
# Coordination Sequence:
#
# PCOD9534506 Si02
#       6
#    16  16  16  16  16   8
#     4  10  20  33  48  65  85 111 148 190 228 266
#     4  10  18  30  46  63  84 115 149 179 220 268
#     4   9  18  29  43  66  87 106 138 182 223 262
#     4   9  16  31  48  62  83 113 145 179 223 270
#     4  10  20  32  45  59  80 112 149 185 224 262
#     4  10  20  30  47  64  86 116 153 186 220 262
#
# _framework density 14.755782999999999
#
# number of rings (size 3 to 8) (size 9 to 14) (size 15 to 20)
#    0.545    1.818    1.818    1.636    0.000    5.091 
#    0.000    0.000    0.000    0.000    0.000    0.000 
#    0.000    0.000    0.000    0.818    0.000    6.909 
#
# Total GULP energy -245031.808999 kJ/mol
# GULP energy per Si atom -5568.904750 kJ/mol
# Density = 1.472220 g / cm^3
# Si number density = 14.755783 Si / 1000 Ang^3
#
#
#
# Elastic Constant Matrix: (Units=GPa)
#
#
# Indices 1 2 3 4 5 6 
#
# 1 100.5376 64.3720 33.4833 0.0000 0.0000 0.0000
# 2 64.3720 105.9493 22.8138 0.0000 0.0000 0.0000
# 3 33.4833 22.8138 24.4401 0.0000 0.0000 0.0000
# 4 0.0000 0.0000 0.0000 16.3328 0.0000 0.0000
# 5 0.0000 0.0000 0.0000 0.0000 -31.1791 0.0000
# 6 0.0000 0.0000 0.0000 0.0000 0.0000 6.7367
#
#
#
# Elastic Compliance Matrix: (Units=1/GPa)
#
#
# Indices 1 2 3 4 5 6 
#
# 1 0.023975 -0.009379 -0.024091 0.000000 0.000000 0.000000
# 2 -0.009379 0.015482 -0.001602 0.000000 0.000000 0.000000
# 3 -0.024091 -0.001602 0.075417 0.000000 0.000000 0.000000
# 4 0.000000 0.000000 0.000000 0.061227 0.000000 0.000000
# 5 0.000000 0.000000 0.000000 0.000000 -0.032073 0.000000
# 6 0.000000 0.000000 0.000000 0.000000 0.000000 0.148440
#
#
# Mechanical properties :
#
#
# Convention : Reuss Voigt Hill
#
# Bulk Modulus (GPa) = 22.35678 52.47390 37.41534
# Shear Modulus (GPa) = 13.24420 5.72860 9.48640
#
# Velocity S-wave (km/s) = 2.99918 1.97249 2.53829
# Velocity P-wave (km/s) = 5.21321 6.38955 5.83112
#
# Compressibility (1/GPa) = 0.04472917
#
# Stress axis : x y z
#
# Youngs Moduli (GPa) = 41.70974 64.59104 13.25956
#
# Poissons Ratio (x) = 0.60581 0.31944
# Poissons Ratio (y) = 0.39120 0.02125
# Poissons Ratio (z) = 1.00484 0.10349
#
# Static dielectric constant tensor:
#      x y z
#    x 1.507410 0.000000 0.000000 
#    y 0.000000 1.507940 0.000000 
#    z 0.000000 0.000000 1.454560 
# 
# From -- ./inp_files/62614.got.cif
#   From: 2010.05.17/outbox.cif.g08.bks.cpg/sg74_32_cif.got.tgz:62614.got - 2010.06.03 17:57:02.
