data_PCOD9534713
_publ_section_title
;
Structure prediction by ZEFSAII (Michael W. Deem and Ramdas Pophale) SiO2 
 PCOD9534713
Probable space group: I M M A
;
_chemical_formula_sum "Si O2"
_cell_formula_units_Z 88
_cell_length_a 7.680643
_cell_length_b 19.367220
_cell_length_c 29.007751
_cell_angle_alpha 90.000000
_cell_angle_beta 90.000000
_cell_angle_gamma 90.000000
_cell_volume 4314.981361
_symmetry_space_group_name_H-M "I M M A"
_symmetry_group_IT_number 74
_symmetry_cell_setting 'orthorhombic'
loop_
_space_group_symop_operation_xyz
x,y,z
-x,1/2-y,z
x,-y,-z
-x,1/2+y,-z
-x,-y,-z
x,1/2+y,-z
-x,y,z
x,1/2-y,z
1/2+x,1/2+y,1/2+z
1/2-x,-y,1/2+z
1/2+x,1/2-y,1/2-z
1/2-x,y,1/2-z
1/2-x,1/2-y,1/2-z
1/2+x,y,1/2-z
1/2-x,1/2+y,1/2+z
1/2+x,-y,1/2+z
loop_
_atom_site_type_symbol
_atom_site_label
_atom_site_fract_x
_atom_site_fract_y
_atom_site_fract_z
Si Si1 0.195813 0.030719 0.641825
Si Si2 0.790819 0.250000 0.304808
Si Si3 0.208117 0.037997 0.048551
Si Si4 0.289964 0.900332 0.804174
Si Si5 0.712504 0.827701 0.502287
Si Si6 0.707517 0.173115 0.602980
O O1 0.260994 0.108919 0.636501
O O2 0.000000 0.037471 0.659103
O O3 0.201581 0.999827 0.590357
O O4 0.281522 0.969540 0.671797
O O5 0.750000 0.250000 0.250000
O O6 0.725854 0.324972 0.322157
O O7 0.000000 0.250000 0.310080
O O8 0.000000 0.036285 0.058093
O O9 0.269779 0.115556 0.038755
O O10 0.233765 0.000000 0.000000
O O11 0.500000 0.899863 0.810356
O O12 0.250000 0.903410 0.750000
O O13 0.500000 0.831326 0.501735
O O14 0.763588 0.750000 0.513811
O O15 0.770589 0.841980 0.449481
O O16 0.500000 0.178103 0.598918
O O17 0.772322 0.250000 0.616282
#
# Coordination Sequence:
#
# PCOD9534713 Si02
#       6
#    16   8  16  16  16  16
#     4  11  22  33  48  76 109 134 162 203 260 311
#     4   8  14  30  54  74  96 128 166 202 242 290
#     4  10  18  31  50  70  96 134 176 211 246 289
#     4   9  19  35  55  77 100 131 166 207 251 299
#     4   8  14  27  47  67  90 124 169 216 249 277
#     4   9  17  32  54  75  95 129 175 214 247 291
#
# _framework density 20.394062000000002
#
# number of rings (size 3 to 8) (size 9 to 14) (size 15 to 20)
#    0.000    2.727    1.818    1.636    0.000    2.182 
#    1.636    0.000    0.000    0.545    0.000    0.000 
#    0.000    0.000    0.000    0.000    0.000    0.000 
#
# Total GULP energy -245107.190342 kJ/mol
# GULP energy per Si atom -5570.617962 kJ/mol
# Density = 2.034764 g / cm^3
# Si number density = 20.394062 Si / 1000 Ang^3
#
#
#
# Elastic Constant Matrix: (Units=GPa)
#
#
# Indices 1 2 3 4 5 6 
#
# 1 27.1974 7.6629 -2.1636 0.0000 0.0000 0.0000
# 2 7.6629 195.8621 38.7890 0.0000 0.0000 0.0000
# 3 -2.1636 38.7890 27.0563 0.0000 0.0000 0.0000
# 4 0.0000 0.0000 0.0000 29.4972 0.0000 0.0000
# 5 0.0000 0.0000 0.0000 0.0000 34.3230 0.0000
# 6 0.0000 0.0000 0.0000 0.0000 0.0000 23.7538
#
#
#
# Elastic Compliance Matrix: (Units=1/GPa)
#
#
# Indices 1 2 3 4 5 6 
#
# 1 0.038171 -0.002930 0.007252 0.000000 0.000000 0.000000
# 2 -0.002930 0.007355 -0.010778 0.000000 0.000000 0.000000
# 3 0.007252 -0.010778 0.052992 0.000000 0.000000 0.000000
# 4 0.000000 0.000000 0.000000 0.033902 0.000000 0.000000
# 5 0.000000 0.000000 0.000000 0.000000 0.029135 0.000000
# 6 0.000000 0.000000 0.000000 0.000000 0.000000 0.042098
#
#
# Mechanical properties :
#
#
# Convention : Reuss Voigt Hill
#
# Bulk Modulus (GPa) = 11.68135 37.63246 24.65690
# Shear Modulus (GPa) = 20.39986 31.23664 25.81825
#
# Velocity S-wave (km/s) = 3.16616 3.91788 3.56191
# Velocity P-wave (km/s) = 4.37108 6.24172 5.38820
#
# Compressibility (1/GPa) = 0.08560657
#
# Stress axis : x y z
#
# Youngs Moduli (GPa) = 26.19814 135.96477 18.87064
#
# Poissons Ratio (x) = 0.39833 -0.13686
# Poissons Ratio (y) = 0.07675 0.20340
# Poissons Ratio (z) = -0.19000 1.46549
#
# Static dielectric constant tensor:
#      x y z
#    x 1.769330 0.000000 0.000000 
#    y 0.000000 1.817690 0.000000 
#    z 0.000000 0.000000 1.679850 
# 
# From -- ./inp_files/70201.got.cif
#   From: 2010.05.17/outbox.cif.g08.bks.cpg/sg74_36_cif.got.tgz:70201.got - 2010.06.03 17:57:02.
