data_PCOD9534080
_publ_section_title
;
Structure prediction by ZEFSAII (Michael W. Deem and Ramdas Pophale) SiO2 
 PCOD9534080
Probable space group: I M M A
;
_chemical_formula_sum "Si O2"
_cell_formula_units_Z 72
_cell_length_a 14.324570
_cell_length_b 24.993817
_cell_length_c 8.282709
_cell_angle_alpha 90.000000
_cell_angle_beta 90.000000
_cell_angle_gamma 90.000000
_cell_volume 2965.422532
_symmetry_space_group_name_H-M "I M M A"
_symmetry_group_IT_number 74
_symmetry_cell_setting 'orthorhombic'
loop_
_space_group_symop_operation_xyz
x,y,z
-x,1/2-y,z
x,-y,-z
-x,1/2+y,-z
-x,-y,-z
x,1/2+y,-z
-x,y,z
x,1/2-y,z
1/2+x,1/2+y,1/2+z
1/2-x,-y,1/2+z
1/2+x,1/2-y,1/2-z
1/2-x,y,1/2-z
1/2-x,1/2-y,1/2-z
1/2+x,y,1/2-z
1/2-x,1/2+y,1/2+z
1/2+x,-y,1/2+z
loop_
_atom_site_type_symbol
_atom_site_label
_atom_site_fract_x
_atom_site_fract_y
_atom_site_fract_z
Si Si1 0.500000 0.556531 0.916076
Si Si2 0.655201 0.859062 0.916236
Si Si3 0.500000 0.313905 0.323280
Si Si4 0.810371 0.589402 0.099157
Si Si5 0.888720 0.192718 0.728918
Si Si6 0.000000 0.573422 0.964539
O O1 0.412748 0.592434 0.967512
O O2 0.500000 0.554539 0.721212
O O3 0.500000 0.500000 0.000000
O O4 0.595519 0.830256 0.774095
O O5 0.753638 0.890670 0.938677
O O6 0.655315 0.813807 0.052546
O O7 0.500000 0.250000 0.359036
O O8 0.500000 0.360868 0.456516
O O9 0.750000 0.565118 0.250000
O O10 0.847208 0.644206 0.175043
O O11 0.903710 0.558017 0.050971
O O12 0.867511 0.250000 0.803369
O O13 0.000000 0.188861 0.707582
#
# Coordination Sequence:
#
# PCOD9534080 Si02
#       6
#     8  16   8  16  16   8
#     4  10  22  41  68  88 120 169 212 280 333 401
#     4   9  19  35  59  85 118 163 214 266 330 396
#     4  10  20  33  53  81 123 171 215 270 325 391
#     4  10  21  35  61  88 126 165 209 265 326 397
#     4  10  17  29  54  84 120 165 212 258 322 392
#     4  10  22  40  59  92 127 166 218 267 335 380
#
# _framework density 24.279847
#
# number of rings (size 3 to 8) (size 9 to 14) (size 15 to 20)
#    0.000    2.444    3.333    0.667    0.000    9.333 
#    0.000    1.111   14.667    5.333    0.000    0.000 
#    0.000    0.000    0.000    0.000    0.000    0.000 
#
# Total GULP energy -200635.363379 kJ/mol
# GULP energy per Si atom -5573.204538 kJ/mol
# Density = 2.422458 g / cm^3
# Si number density = 24.279847 Si / 1000 Ang^3
#
#
#
# Elastic Constant Matrix: (Units=GPa)
#
#
# Indices 1 2 3 4 5 6 
#
# 1 147.8464 9.3528 38.6197 -0.0008 0.0002 -0.0001
# 2 9.3528 130.9384 3.1730 0.0018 0.0004 0.0004
# 3 38.6197 3.1730 86.8924 0.0150 0.0005 0.0014
# 4 -0.0008 0.0018 0.0150 15.2172 0.0000 0.0007
# 5 0.0002 0.0004 0.0005 0.0000 37.8735 0.0003
# 6 -0.0001 0.0004 0.0014 0.0007 0.0003 -18.6623
#
#
#
# Elastic Compliance Matrix: (Units=1/GPa)
#
#
# Indices 1 2 3 4 5 6 
#
# 1 0.007681 -0.000466 -0.003397 0.000004 0.000000 0.000000
# 2 -0.000466 0.007672 -0.000073 -0.000001 0.000000 0.000000
# 3 -0.003397 -0.000073 0.013021 -0.000013 0.000000 0.000001
# 4 0.000004 -0.000001 -0.000013 0.065715 0.000000 0.000003
# 5 0.000000 0.000000 0.000000 0.000000 0.026404 0.000000
# 6 0.000000 0.000000 0.000001 0.000003 0.000000 -0.053584
#
#
# Mechanical properties :
#
#
# Convention : Reuss Voigt Hill
#
# Bulk Modulus (GPa) = 48.77596 51.99648 50.38622
# Shear Modulus (GPa) = 61.26388 27.85445 44.55917
#
# Velocity S-wave (km/s) = 5.02864 3.39075 4.28861
# Velocity P-wave (km/s) = 7.33818 6.06560 6.73203
#
# Compressibility (1/GPa) = 0.02050190
#
# Stress axis : x y z
#
# Youngs Moduli (GPa) = 130.19944 130.33984 76.80020
#
# Poissons Ratio (x) = 0.06078 0.26086
# Poissons Ratio (y) = 0.06071 0.00560
# Poissons Ratio (z) = 0.44224 0.00950
#
# Static dielectric constant tensor:
#      x y z
#    x 2.037080 0.000000 0.000000 
#    y 0.000000 1.902130 0.000000 
#    z 0.000000 0.000000 2.034030 
# 
# From -- ./inp_files/9200.got.cif
#   From: 2010.05.17/outbox.cif.g08.bks.cpg/sg74_5_cif.got.tgz:9200.got - 2010.06.03 17:57:02.
