data_PCOD9534832
_publ_section_title
;
Structure prediction by ZEFSAII (Michael W. Deem and Ramdas Pophale) SiO2 
 PCOD9534832
Probable space group: I M M A
;
_chemical_formula_sum "Si O2"
_cell_formula_units_Z 100
_cell_length_a 15.658769
_cell_length_b 30.482949
_cell_length_c 9.636157
_cell_angle_alpha 90.000000
_cell_angle_beta 90.000000
_cell_angle_gamma 90.000000
_cell_volume 4599.583042
_symmetry_space_group_name_H-M "I M M A"
_symmetry_group_IT_number 74
_symmetry_cell_setting 'orthorhombic'
loop_
_space_group_symop_operation_xyz
x,y,z
-x,1/2-y,z
x,-y,-z
-x,1/2+y,-z
-x,-y,-z
x,1/2+y,-z
-x,y,z
x,1/2-y,z
1/2+x,1/2+y,1/2+z
1/2-x,-y,1/2+z
1/2+x,1/2-y,1/2-z
1/2-x,y,1/2-z
1/2-x,1/2-y,1/2-z
1/2+x,y,1/2-z
1/2-x,1/2+y,1/2+z
1/2+x,-y,1/2+z
loop_
_atom_site_type_symbol
_atom_site_label
_atom_site_fract_x
_atom_site_fract_y
_atom_site_fract_z
Si Si1 0.500000 0.750000 0.446374
Si Si2 0.834461 0.301085 0.595516
Si Si3 0.147010 0.178034 0.996725
Si Si4 0.903654 0.302078 0.284819
Si Si5 0.767178 0.959153 0.416230
Si Si6 0.092846 0.421283 0.949947
Si Si7 0.094450 0.608397 0.358829
O O1 0.574279 0.711882 0.453206
O O2 0.851280 0.250000 0.635595
O O3 0.733769 0.310167 0.583805
O O4 0.871221 0.307956 0.439973
O O5 0.879628 0.341249 0.674684
O O6 0.158371 0.183401 0.162812
O O7 0.114795 0.128746 0.983999
O O8 0.911598 0.250000 0.264596
O O9 0.000000 0.320550 0.267113
O O10 0.750000 0.966360 0.250000
O O11 0.675170 0.949593 0.485297
O O12 0.827785 0.916335 0.434259
O O13 0.805671 0.000000 0.500000
O O14 0.088013 0.418895 0.782986
O O15 0.000000 0.434564 0.005599
O O16 0.000000 0.608237 0.424955
#
# Coordination Sequence:
#
# PCOD9534832 Si02
#       7
#     4  16  16  16  16  16  16
#     4  12  20  32  54  82 122 160 214 256 294 358
#     4  11  22  34  54  83 120 164 210 249 294 351
#     4  12  19  34  53  81 113 157 207 251 297 354
#     4  10  18  32  49  72 112 157 201 250 299 344
#     4  10  22  44  71  95 124 156 201 257 320 385
#     4  10  21  39  64  86 121 159 193 248 313 364
#     4  10  22  42  61  87 123 165 202 243 307 369
#
# _framework density 21.741102000000001
#
# number of rings (size 3 to 8) (size 9 to 14) (size 15 to 20)
#    0.000    1.440    4.800    0.960    0.000    2.880 
#    4.320    0.800    0.000    0.000    0.000    0.000 
#    0.000    0.000    0.000    0.000    0.000    0.000 
#
# Total GULP energy -278556.246346 kJ/mol
# GULP energy per Si atom -5571.124927 kJ/mol
# Density = 2.169162 g / cm^3
# Si number density = 21.741102 Si / 1000 Ang^3
#
#
#
# Elastic Constant Matrix: (Units=GPa)
#
#
# Indices 1 2 3 4 5 6 
#
# 1 123.5557 34.9873 7.9043 0.0004 -0.0009 -0.0004
# 2 34.9873 91.9799 2.4171 0.0006 0.0001 -0.0006
# 3 7.9043 2.4171 35.2598 0.0007 -0.0038 -0.0108
# 4 0.0004 0.0006 0.0007 24.4568 -0.0002 -0.0029
# 5 -0.0009 0.0001 -0.0038 -0.0002 3.0387 -0.0001
# 6 -0.0004 -0.0006 -0.0108 -0.0029 -0.0001 55.1783
#
#
#
# Elastic Compliance Matrix: (Units=1/GPa)
#
#
# Indices 1 2 3 4 5 6 
#
# 1 0.009186 -0.003446 -0.001823 0.000000 0.000001 0.000000
# 2 -0.003446 0.012184 -0.000063 0.000000 -0.000002 0.000000
# 3 -0.001823 -0.000063 0.028774 -0.000001 0.000036 0.000006
# 4 0.000000 0.000000 -0.000001 0.040888 0.000003 0.000002
# 5 0.000001 -0.000002 0.000036 0.000003 0.329090 0.000001
# 6 0.000000 0.000000 0.000006 0.000002 0.000001 0.018123
#
#
# Mechanical properties :
#
#
# Convention : Reuss Voigt Hill
#
# Bulk Modulus (GPa) = 25.32903 37.93476 31.63189
# Shear Modulus (GPa) = 10.82088 30.23388 20.52738
#
# Velocity S-wave (km/s) = 2.23337 3.73316 3.07607
# Velocity P-wave (km/s) = 4.28091 6.00569 5.21510
#
# Compressibility (1/GPa) = 0.03948040
#
# Stress axis : x y z
#
# Youngs Moduli (GPa) = 108.86103 82.07161 34.75377
#
# Poissons Ratio (x) = 0.28284 0.06336
# Poissons Ratio (y) = 0.37517 0.00218
# Poissons Ratio (z) = 0.19845 0.00515
#
# Static dielectric constant tensor:
#      x y z
#    x 1.844560 0.000000 0.000000 
#    y 0.000000 1.755100 0.000000 
#    z 0.000000 0.000000 1.912420 
# 
# From -- ./inp_files/21082.got.cif
#   From: 2010.05.17/outbox.cif.g08.bks.cpg/sg74_11_cif.got.tgz:21082.got - 2010.06.03 17:57:02.
