data_PCOD9534891
_publ_section_title
;
Structure prediction by ZEFSAII (Michael W. Deem and Ramdas Pophale) SiO2 
 PCOD9534891
Probable space group: I M M A
;
_chemical_formula_sum "Si O2"
_cell_formula_units_Z 96
_cell_length_a 26.348627
_cell_length_b 9.357976
_cell_length_c 20.654472
_cell_angle_alpha 90.000000
_cell_angle_beta 90.000000
_cell_angle_gamma 90.000000
_cell_volume 5092.769425
_symmetry_space_group_name_H-M "I M M A"
_symmetry_group_IT_number 74
_symmetry_cell_setting 'orthorhombic'
loop_
_space_group_symop_operation_xyz
x,y,z
-x,1/2-y,z
x,-y,-z
-x,1/2+y,-z
-x,-y,-z
x,1/2+y,-z
-x,y,z
x,1/2-y,z
1/2+x,1/2+y,1/2+z
1/2-x,-y,1/2+z
1/2+x,1/2-y,1/2-z
1/2-x,y,1/2-z
1/2-x,1/2-y,1/2-z
1/2+x,y,1/2-z
1/2-x,1/2+y,1/2+z
1/2+x,-y,1/2+z
loop_
_atom_site_type_symbol
_atom_site_label
_atom_site_fract_x
_atom_site_fract_y
_atom_site_fract_z
Si Si1 0.772685 0.587023 0.593459
Si Si2 0.940792 0.417195 0.305390
Si Si3 0.799287 0.901622 0.293220
Si Si4 0.611499 0.583156 0.937731
Si Si5 0.331256 0.077324 0.565325
Si Si6 0.607492 0.912865 0.305212
O O1 0.754587 0.750000 0.588510
O O2 0.790366 0.540275 0.664539
O O3 0.827076 0.576374 0.558619
O O4 0.726109 0.482796 0.576094
O O5 0.927584 0.250000 0.297832
O O6 0.908468 0.472116 0.367688
O O7 0.931122 0.492277 0.236265
O O8 0.000000 0.429855 0.322233
O O9 0.804086 0.750000 0.331550
O O10 0.750000 0.890261 0.250000
O O11 0.845516 0.910514 0.244569
O O12 0.597093 0.750000 0.941058
O O13 0.590908 0.500000 0.000000
O O14 0.329431 0.250000 0.559978
O O15 0.367875 0.041220 0.626262
O O16 0.349532 0.000000 0.500000
O O17 0.588616 0.750000 0.313167
#
# Coordination Sequence:
#
# PCOD9534891 Si02
#       6
#    16  16  16  16  16  16
#     4  11  21  33  52  81 115 155 195 231 267 322
#     4  10  22  41  62  84 111 141 182 239 294 342
#     4  10  18  32  52  78 111 149 185 228 279 326
#     4  10  22  37  53  79 113 151 191 231 275 323
#     4  11  23  39  56  83 119 155 191 230 276 334
#     4  10  21  37  59  83 112 147 186 233 284 337
#
# _framework density 18.850254
#
# number of rings (size 3 to 8) (size 9 to 14) (size 15 to 20)
#    0.000    1.667    3.333    1.500    0.000    5.667 
#    0.000    0.000    0.000    0.500    0.000    0.000 
#    0.000    0.000    0.000    0.000    0.000    0.000 
#
# Total GULP energy -267346.902194 kJ/mol
# GULP energy per Si atom -5569.727129 kJ/mol
# Density = 1.880735 g / cm^3
# Si number density = 18.850254 Si / 1000 Ang^3
#
#
#
# Elastic Constant Matrix: (Units=GPa)
#
#
# Indices 1 2 3 4 5 6 
#
# 1 34.4597 23.1300 21.6621 0.0000 0.0000 0.0000
# 2 23.1300 66.0317 58.4381 0.0000 0.0000 0.0000
# 3 21.6621 58.4381 128.6269 0.0000 0.0000 0.0000
# 4 0.0000 0.0000 0.0000 32.1089 0.0000 0.0000
# 5 0.0000 0.0000 0.0000 0.0000 8.8871 0.0000
# 6 0.0000 0.0000 0.0000 0.0000 0.0000 17.6614
#
#
#
# Elastic Compliance Matrix: (Units=1/GPa)
#
#
# Indices 1 2 3 4 5 6 
#
# 1 0.037966 -0.012778 -0.000588 0.000000 0.000000 0.000000
# 2 -0.012778 0.029629 -0.011309 0.000000 0.000000 0.000000
# 3 -0.000588 -0.011309 0.013011 0.000000 0.000000 0.000000
# 4 0.000000 0.000000 0.000000 0.031144 0.000000 0.000000
# 5 0.000000 0.000000 0.000000 0.000000 0.112523 0.000000
# 6 0.000000 0.000000 0.000000 0.000000 0.000000 0.056621
#
#
# Mechanical properties :
#
#
# Convention : Reuss Voigt Hill
#
# Bulk Modulus (GPa) = 31.99482 48.39763 40.19622
# Shear Modulus (GPa) = 14.67723 20.12402 17.40063
#
# Velocity S-wave (km/s) = 2.79341 3.27092 3.04155
# Velocity P-wave (km/s) = 5.23585 6.32422 5.80560
#
# Compressibility (1/GPa) = 0.03125506
#
# Stress axis : x y z
#
# Youngs Moduli (GPa) = 26.33907 33.75095 76.85532
#
# Poissons Ratio (x) = 0.43128 0.04523
# Poissons Ratio (y) = 0.33657 0.86916
# Poissons Ratio (z) = 0.01550 0.38169
#
# Static dielectric constant tensor:
#      x y z
#    x 1.649380 0.000000 0.000000 
#    y 0.000000 1.706800 0.000000 
#    z 0.000000 0.000000 1.686770 
# 
# From -- ./inp_files/49130.got.cif
#   From: 2010.05.17/outbox.cif.g08.bks.cpg/sg74_25_cif.got.tgz:49130.got - 2010.06.03 17:57:02.
