data_PCOD9534461
_publ_section_title
;
Structure prediction by ZEFSAII (Michael W. Deem and Ramdas Pophale) SiO2 
 PCOD9534461
Probable space group: I M M A
;
_chemical_formula_sum "Si O2"
_cell_formula_units_Z 80
_cell_length_a 28.784910
_cell_length_b 17.709559
_cell_length_c 8.262775
_cell_angle_alpha 90.000000
_cell_angle_beta 90.000000
_cell_angle_gamma 90.000000
_cell_volume 4212.098798
_symmetry_space_group_name_H-M "I M M A"
_symmetry_group_IT_number 74
_symmetry_cell_setting 'orthorhombic'
loop_
_space_group_symop_operation_xyz
x,y,z
-x,1/2-y,z
x,-y,-z
-x,1/2+y,-z
-x,-y,-z
x,1/2+y,-z
-x,y,z
x,1/2-y,z
1/2+x,1/2+y,1/2+z
1/2-x,-y,1/2+z
1/2+x,1/2-y,1/2-z
1/2-x,y,1/2-z
1/2-x,1/2-y,1/2-z
1/2+x,y,1/2-z
1/2-x,1/2+y,1/2+z
1/2+x,-y,1/2+z
loop_
_atom_site_type_symbol
_atom_site_label
_atom_site_fract_x
_atom_site_fract_y
_atom_site_fract_z
Si Si1 0.138810 0.607994 0.662042
Si Si2 0.237436 0.915102 0.560420
Si Si3 0.328590 0.165072 0.505623
Si Si4 0.893695 0.457827 0.838707
Si Si5 0.448225 0.589168 0.045977
O O1 0.183636 0.607326 0.546276
O O2 0.152465 0.656418 0.820058
O O3 0.130612 0.523076 0.731378
O O4 0.091702 0.626306 0.565335
O O5 0.250000 0.915634 0.750000
O O6 0.274549 0.857864 0.486294
O O7 0.244804 0.000000 0.500000
O O8 0.336205 0.250000 0.560741
O O9 0.356165 0.102441 0.604628
O O10 0.931573 0.414974 0.731282
O O11 0.912221 0.500000 0.000000
O O12 0.500000 0.620407 0.024831
O O13 0.449885 0.500000 0.000000
#
# Coordination Sequence:
#
# PCOD9534461 Si02
#       5
#    16  16  16  16  16
#     4   9  18  32  53  75 100 132 165 202 246 295
#     4  10  18  29  50  74  99 132 165 198 240 295
#     4  10  20  33  49  72 102 134 168 205 243 287
#     4   9  17  32  52  76 102 131 163 199 248 300
#     4   9  17  31  54  80 100 122 162 213 253 288
#
# _framework density 18.992906999999999
#
# number of rings (size 3 to 8) (size 9 to 14) (size 15 to 20)
#    0.000    2.600    0.000    4.800    0.000    4.000 
#    0.000    4.000    0.000   17.400    0.000    0.000 
#    0.000    0.000    0.000    0.000    0.000    0.000 
#
# Total GULP energy -223014.958755 kJ/mol
# GULP energy per Si atom -5575.373969 kJ/mol
# Density = 1.894968 g / cm^3
# Si number density = 18.992907 Si / 1000 Ang^3
#
#
#
# Elastic Constant Matrix: (Units=GPa)
#
#
# Indices 1 2 3 4 5 6 
#
# 1 152.0052 15.6019 47.7320 0.0000 0.0000 0.0000
# 2 15.6019 44.1302 6.9037 0.0000 0.0000 0.0000
# 3 47.7320 6.9037 54.7877 0.0000 0.0000 0.0000
# 4 0.0000 0.0000 0.0000 5.6923 0.0000 0.0000
# 5 0.0000 0.0000 0.0000 0.0000 19.6694 0.0000
# 6 0.0000 0.0000 0.0000 0.0000 0.0000 -6.9474
#
#
#
# Elastic Compliance Matrix: (Units=1/GPa)
#
#
# Indices 1 2 3 4 5 6 
#
# 1 0.009234 -0.002046 -0.007787 0.000000 0.000000 0.000000
# 2 -0.002046 0.023569 -0.001187 0.000000 0.000000 0.000000
# 3 -0.007787 -0.001187 0.025186 0.000000 0.000000 0.000000
# 4 0.000000 0.000000 0.000000 0.175676 0.000000 0.000000
# 5 0.000000 0.000000 0.000000 0.000000 0.050840 0.000000
# 6 0.000000 0.000000 0.000000 0.000000 0.000000 -0.143940
#
#
# Mechanical properties :
#
#
# Convention : Reuss Voigt Hill
#
# Bulk Modulus (GPa) = 27.81756 43.48871 35.65314
# Shear Modulus (GPa) = 28.63853 15.72857 22.18355
#
# Velocity S-wave (km/s) = 3.88732 2.88084 3.42130
# Velocity P-wave (km/s) = 5.90139 5.83204 5.86682
#
# Compressibility (1/GPa) = 0.03594852
#
# Stress axis : x y z
#
# Youngs Moduli (GPa) = 108.29542 42.42789 39.70461
#
# Poissons Ratio (x) = 0.08683 0.30918
# Poissons Ratio (y) = 0.22162 0.04713
# Poissons Ratio (z) = 0.84329 0.05036
#
# Static dielectric constant tensor:
#      x y z
#    x 1.686930 0.000000 0.000000 
#    y 0.000000 1.615210 0.000000 
#    z 0.000000 0.000000 1.728240 
# 
# From -- ./inp_files/11132.got.cif
#   From: 2010.05.17/outbox.cif.g08.bks.cpg/sg74_6_cif.got.tgz:11132.got - 2010.06.03 17:57:02.
