data_PCOD9534075
_publ_section_title
;
Structure prediction by ZEFSAII (Michael W. Deem and Ramdas Pophale) SiO2 
 PCOD9534075
Probable space group: I M M A
;
_chemical_formula_sum "Si O2"
_cell_formula_units_Z 96
_cell_length_a 7.454707
_cell_length_b 30.562753
_cell_length_c 20.464534
_cell_angle_alpha 90.000000
_cell_angle_beta 90.000000
_cell_angle_gamma 90.000000
_cell_volume 4662.565114
_symmetry_space_group_name_H-M "I M M A"
_symmetry_group_IT_number 74
_symmetry_cell_setting 'orthorhombic'
loop_
_space_group_symop_operation_xyz
x,y,z
-x,1/2-y,z
x,-y,-z
-x,1/2+y,-z
-x,-y,-z
x,1/2+y,-z
-x,y,z
x,1/2-y,z
1/2+x,1/2+y,1/2+z
1/2-x,-y,1/2+z
1/2+x,1/2-y,1/2-z
1/2-x,y,1/2-z
1/2-x,1/2-y,1/2-z
1/2+x,y,1/2-z
1/2-x,1/2+y,1/2+z
1/2+x,-y,1/2+z
loop_
_atom_site_type_symbol
_atom_site_label
_atom_site_fract_x
_atom_site_fract_y
_atom_site_fract_z
Si Si1 0.205078 0.349609 0.551105
Si Si2 0.783112 0.445280 0.558146
Si Si3 0.785511 0.878326 0.673017
Si Si4 0.283432 0.463183 0.094879
Si Si5 0.287266 0.799743 0.320683
Si Si6 0.219600 0.800478 0.578566
O O1 0.286880 0.396550 0.569242
O O2 0.205015 0.322361 0.616959
O O3 0.279558 0.321748 0.490544
O O4 0.000000 0.359139 0.530264
O O5 0.748515 0.452622 0.481138
O O6 0.717234 0.486625 0.600574
O O7 0.000000 0.445773 0.566758
O O8 0.750000 0.876767 0.750000
O O9 0.716387 0.923511 0.640011
O O10 0.722757 0.834860 0.634531
O O11 0.000000 0.878884 0.663984
O O12 0.500000 0.464000 0.102857
O O13 0.500000 0.799090 0.330312
O O14 0.219084 0.750000 0.317782
O O15 0.250000 0.820458 0.250000
O O16 0.278774 0.750000 0.586021
O O17 0.000000 0.798923 0.578733
#
# Coordination Sequence:
#
# PCOD9534075 Si02
#       6
#    16  16  16  16  16  16
#     4  10  17  29  52  80 102 125 160 204 252 298
#     4   8  13  23  46  75  97 119 155 201 242 288
#     4  10  19  32  49  69  96 132 170 208 250 296
#     4   8  13  25  45  70  96 122 159 202 240 285
#     4  10  21  36  52  71  98 133 168 200 240 293
#     4   9  17  29  47  72  99 127 165 211 252 293
#
# _framework density 20.589523
#
# number of rings (size 3 to 8) (size 9 to 14) (size 15 to 20)
#    0.000    2.833    1.667    2.000    0.000    2.000 
#    0.000    1.667    0.000    4.000    0.000    2.333 
#    0.000    0.000    0.000    0.000    0.000    0.000 
#
# Total GULP energy -267464.705131 kJ/mol
# GULP energy per Si atom -5572.181357 kJ/mol
# Density = 2.054266 g / cm^3
# Si number density = 20.589523 Si / 1000 Ang^3
#
#
#
# Elastic Constant Matrix: (Units=GPa)
#
#
# Indices 1 2 3 4 5 6 
#
# 1 61.2207 6.4528 -4.4849 0.0000 0.0000 0.0000
# 2 6.4528 217.2670 105.6569 0.0000 0.0000 0.0000
# 3 -4.4849 105.6569 130.8844 0.0000 0.0000 0.0000
# 4 0.0000 0.0000 0.0000 29.6411 0.0000 0.0000
# 5 0.0000 0.0000 0.0000 0.0000 10.4588 0.0000
# 6 0.0000 0.0000 0.0000 0.0000 0.0000 3.5874
#
#
#
# Elastic Compliance Matrix: (Units=1/GPa)
#
#
# Indices 1 2 3 4 5 6 
#
# 1 0.016584 -0.001266 0.001590 0.000000 0.000000 0.000000
# 2 -0.001266 0.007674 -0.006238 0.000000 0.000000 0.000000
# 3 0.001590 -0.006238 0.012731 0.000000 0.000000 0.000000
# 4 0.000000 0.000000 0.000000 0.033737 0.000000 0.000000
# 5 0.000000 0.000000 0.000000 0.000000 0.095613 0.000000
# 6 0.000000 0.000000 0.000000 0.000000 0.000000 0.278751
#
#
# Mechanical properties :
#
#
# Convention : Reuss Voigt Hill
#
# Bulk Modulus (GPa) = 39.74405 69.40242 54.57323
# Shear Modulus (GPa) = 10.74565 28.85394 19.79979
#
# Velocity S-wave (km/s) = 2.28699 3.74757 3.10440
# Velocity P-wave (km/s) = 5.13018 7.24614 6.27795
#
# Compressibility (1/GPa) = 0.02516100
#
# Stress axis : x y z
#
# Youngs Moduli (GPa) = 60.29821 130.31346 78.55130
#
# Poissons Ratio (x) = 0.16495 -0.12491
# Poissons Ratio (y) = 0.07633 0.49001
# Poissons Ratio (z) = -0.09588 0.81291
#
# Static dielectric constant tensor:
#      x y z
#    x 1.791780 0.000000 0.000000 
#    y 0.000000 1.792020 0.000000 
#    z 0.000000 0.000000 1.684530 
# 
# From -- ./inp_files/49088.got.cif
#   From: 2010.05.17/outbox.cif.g08.bks.cpg/sg74_25_cif.got.tgz:49088.got - 2010.06.03 17:57:02.
