data_PCOD9534512
_publ_section_title
;
Structure prediction by ZEFSAII (Michael W. Deem and Ramdas Pophale) SiO2 
 PCOD9534512
Probable space group: I M M A
;
_chemical_formula_sum "Si O2"
_cell_formula_units_Z 56
_cell_length_a 8.567590
_cell_length_b 14.434611
_cell_length_c 24.619754
_cell_angle_alpha 90.000000
_cell_angle_beta 90.000000
_cell_angle_gamma 90.000000
_cell_volume 3044.720764
_symmetry_space_group_name_H-M "I M M A"
_symmetry_group_IT_number 74
_symmetry_cell_setting 'orthorhombic'
loop_
_space_group_symop_operation_xyz
x,y,z
-x,1/2-y,z
x,-y,-z
-x,1/2+y,-z
-x,-y,-z
x,1/2+y,-z
-x,y,z
x,1/2-y,z
1/2+x,1/2+y,1/2+z
1/2-x,-y,1/2+z
1/2+x,1/2-y,1/2-z
1/2-x,y,1/2-z
1/2-x,1/2-y,1/2-z
1/2+x,y,1/2-z
1/2-x,1/2+y,1/2+z
1/2+x,-y,1/2+z
loop_
_atom_site_type_symbol
_atom_site_label
_atom_site_fract_x
_atom_site_fract_y
_atom_site_fract_z
Si Si1 0.313993 0.750000 0.811504
Si Si2 0.815140 0.054566 0.189154
Si Si3 0.689830 0.853449 0.986764
Si Si4 0.188414 0.027600 0.587020
O O1 0.500000 0.750000 0.812998
O O2 0.250000 0.750000 0.750000
O O3 0.253026 0.652428 0.833286
O O4 0.750000 0.040091 0.250000
O O5 0.000000 0.062341 0.192600
O O6 0.762880 0.977475 0.146210
O O7 0.500000 0.852148 0.984128
O O8 0.746032 0.750000 0.974337
O O9 0.738423 0.935104 0.946115
O O10 0.730300 0.887279 0.047606
O O11 0.000000 0.025595 0.592150
#
# Coordination Sequence:
#
# PCOD9534512 Si02
#       4
#     8  16  16  16
#     4  10  18  30  46  66  94 128 164 198 237 288
#     4  11  21  33  48  70 101 133 167 204 250 298
#     4   8  15  29  50  75 101 131 168 207 246 293
#     4   9  17  30  50  76 101 130 170 206 243 294
#
# _framework density 18.392492000000001
#
# number of rings (size 3 to 8) (size 9 to 14) (size 15 to 20)
#    0.000    2.571    0.000    7.286    2.000    0.000 
#    0.000    2.857    0.000    3.429    0.000    0.000 
#    0.000    0.000    0.000    0.000    0.000    0.000 
#
# Total GULP energy -156098.326478 kJ/mol
# GULP energy per Si atom -5574.940231 kJ/mol
# Density = 1.835063 g / cm^3
# Si number density = 18.392492 Si / 1000 Ang^3
#
#
#
# Elastic Constant Matrix: (Units=GPa)
#
#
# Indices 1 2 3 4 5 6 
#
# 1 79.8656 -1.2252 17.1992 0.0000 0.0000 0.0000
# 2 -1.2252 41.4079 0.1817 0.0000 0.0000 0.0000
# 3 17.1992 0.1817 75.6514 0.0000 0.0000 0.0000
# 4 0.0000 0.0000 0.0000 25.4890 0.0000 0.0000
# 5 0.0000 0.0000 0.0000 0.0000 21.4337 0.0000
# 6 0.0000 0.0000 0.0000 0.0000 0.0000 11.8895
#
#
#
# Elastic Compliance Matrix: (Units=1/GPa)
#
#
# Indices 1 2 3 4 5 6 
#
# 1 0.013172 0.000403 -0.002996 0.000000 0.000000 0.000000
# 2 0.000403 0.024163 -0.000150 0.000000 0.000000 0.000000
# 3 -0.002996 -0.000150 0.013900 0.000000 0.000000 0.000000
# 4 0.000000 0.000000 0.000000 0.039233 0.000000 0.000000
# 5 0.000000 0.000000 0.000000 0.000000 0.046655 0.000000
# 6 0.000000 0.000000 0.000000 0.000000 0.000000 0.084108
#
#
# Mechanical properties :
#
#
# Convention : Reuss Voigt Hill
#
# Bulk Modulus (GPa) = 21.85789 25.47068 23.66429
# Shear Modulus (GPa) = 20.66413 23.81374 22.23894
#
# Velocity S-wave (km/s) = 3.35551 3.60217 3.48103
# Velocity P-wave (km/s) = 5.18870 5.58385 5.38989
#
# Compressibility (1/GPa) = 0.04575007
#
# Stress axis : x y z
#
# Youngs Moduli (GPa) = 75.91665 41.38630 71.94278
#
# Poissons Ratio (x) = -0.01667 0.21552
# Poissons Ratio (y) = -0.03059 0.01077
# Poissons Ratio (z) = 0.22742 0.00619
#
# Static dielectric constant tensor:
#      x y z
#    x 1.619250 0.000000 0.000000 
#    y 0.000000 1.660690 0.000000 
#    z 0.000000 0.000000 1.648130 
# 
# From -- ./inp_files/56274.got.cif
#   From: 2010.05.17/outbox.cif.g08.bks.cpg/sg74_29_cif.got.tgz:56274.got - 2010.06.03 17:57:02.
