data_PCOD9534055
_publ_section_title
;
Structure prediction by ZEFSAII (Michael W. Deem and Ramdas Pophale) SiO2 
 PCOD9534055
Probable space group: I M M A
;
_chemical_formula_sum "Si O2"
_cell_formula_units_Z 112
_cell_length_a 19.871306
_cell_length_b 24.399292
_cell_length_c 13.107575
_cell_angle_alpha 90.000000
_cell_angle_beta 90.000000
_cell_angle_gamma 90.000000
_cell_volume 6355.152654
_symmetry_space_group_name_H-M "I M M A"
_symmetry_group_IT_number 74
_symmetry_cell_setting 'orthorhombic'
loop_
_space_group_symop_operation_xyz
x,y,z
-x,1/2-y,z
x,-y,-z
-x,1/2+y,-z
-x,-y,-z
x,1/2+y,-z
-x,y,z
x,1/2-y,z
1/2+x,1/2+y,1/2+z
1/2-x,-y,1/2+z
1/2+x,1/2-y,1/2-z
1/2-x,y,1/2-z
1/2-x,1/2-y,1/2-z
1/2+x,y,1/2-z
1/2-x,1/2+y,1/2+z
1/2+x,-y,1/2+z
loop_
_atom_site_type_symbol
_atom_site_label
_atom_site_fract_x
_atom_site_fract_y
_atom_site_fract_z
Si Si1 0.696436 0.882411 0.959559
Si Si2 0.831116 0.187125 0.267451
Si Si3 0.310998 0.983263 0.825365
Si Si4 0.579026 0.479901 0.338990
Si Si5 0.814609 0.387014 0.686205
Si Si6 0.421969 0.891070 0.360313
Si Si7 0.355896 0.124463 0.434642
O O1 0.660621 0.848009 0.870055
O O2 0.688405 0.945697 0.924786
O O3 0.776785 0.873459 0.957505
O O4 0.673891 0.865561 0.072389
O O5 0.851759 0.250000 0.279681
O O6 0.750000 0.186210 0.250000
O O7 0.865190 0.160345 0.167692
O O8 0.250000 0.963160 0.750000
O O9 0.382157 0.976936 0.768372
O O10 0.300453 0.048138 0.835725
O O11 0.500000 0.466138 0.334977
O O12 0.584831 0.542774 0.375148
O O13 0.618933 0.436436 0.406777
O O14 0.750000 0.366402 0.750000
O O15 0.877233 0.379484 0.761193
O O16 0.500000 0.879197 0.344238
O O17 0.394700 0.861318 0.461477
#
# Coordination Sequence:
#
# PCOD9534055 Si02
#       7
#    16  16  16  16  16  16  16
#     4  11  18  31  52  76 104 136 175 217 263 313
#     4   9  19  34  54  81 106 129 165 219 274 315
#     4  10  17  29  46  73 105 140 175 215 255 307
#     4  10  19  30  46  74 109 141 173 210 258 315
#     4  10  20  30  48  75 107 141 177 213 247 309
#     4  10  21  34  48  74 110 144 174 209 258 314
#     4  11  18  30  53  76 101 134 173 214 264 314
#
# _framework density 17.623494999999998
#
# number of rings (size 3 to 8) (size 9 to 14) (size 15 to 20)
#    0.000    1.857    4.286    1.714    0.000    2.286 
#    0.000    0.714    0.000    6.429    0.000    0.000 
#    0.000    0.000    0.000    0.000    0.000    0.000 
#
# Total GULP energy -312082.133939 kJ/mol
# GULP energy per Si atom -5572.895249 kJ/mol
# Density = 1.758338 g / cm^3
# Si number density = 17.623495 Si / 1000 Ang^3
#
#
#
# Elastic Constant Matrix: (Units=GPa)
#
#
# Indices 1 2 3 4 5 6 
#
# 1 75.1983 23.5040 50.5210 0.0000 0.0000 0.0000
# 2 23.5040 30.2558 37.8146 0.0000 0.0000 0.0000
# 3 50.5210 37.8146 154.5248 0.0000 0.0000 0.0000
# 4 0.0000 0.0000 0.0000 8.0073 0.0000 0.0000
# 5 0.0000 0.0000 0.0000 0.0000 -2.3536 0.0000
# 6 0.0000 0.0000 0.0000 0.0000 0.0000 -1.7283
#
#
#
# Elastic Compliance Matrix: (Units=1/GPa)
#
#
# Indices 1 2 3 4 5 6 
#
# 1 0.018950 -0.010052 -0.003736 0.000000 0.000000 0.000000
# 2 -0.010052 0.052947 -0.009670 0.000000 0.000000 0.000000
# 3 -0.003736 -0.009670 0.010059 0.000000 0.000000 0.000000
# 4 0.000000 0.000000 0.000000 0.124886 0.000000 0.000000
# 5 0.000000 0.000000 0.000000 0.000000 -0.424885 0.000000
# 6 0.000000 0.000000 0.000000 0.000000 0.000000 -0.578608
#
#
# Mechanical properties :
#
#
# Convention : Reuss Voigt Hill
#
# Bulk Modulus (GPa) = 28.53915 53.73978 41.13946
# Shear Modulus (GPa) = -6.77456 10.66105 1.94325
#
# Velocity S-wave (km/s) = -1.96275 2.46221 1.05121
# Velocity P-wave (km/s) = 3.33053 6.21633 4.98674
#
# Compressibility (1/GPa) = 0.03503958
#
# Stress axis : x y z
#
# Youngs Moduli (GPa) = 52.77108 18.88688 99.41065
#
# Poissons Ratio (x) = 0.18985 0.37136
# Poissons Ratio (y) = 0.53046 0.96134
# Poissons Ratio (z) = 0.19713 0.18264
#
# Static dielectric constant tensor:
#      x y z
#    x 1.576990 0.000000 0.000000 
#    y 0.000000 1.609520 0.000000 
#    z 0.000000 0.000000 1.648270 
# 
# From -- ./inp_files/24372.got.cif
#   From: 2010.05.17/outbox.cif.g08.bks.cpg/sg74_13_cif.got.tgz:24372.got - 2010.06.03 17:57:02.
