data_PCOD9534468
_publ_section_title
;
Structure prediction by ZEFSAII (Michael W. Deem and Ramdas Pophale) SiO2 
 PCOD9534468
Probable space group: I M M A
;
_chemical_formula_sum "Si O2"
_cell_formula_units_Z 64
_cell_length_a 10.759930
_cell_length_b 36.699092
_cell_length_c 8.476238
_cell_angle_alpha 90.000000
_cell_angle_beta 90.000000
_cell_angle_gamma 90.000000
_cell_volume 3347.093988
_symmetry_space_group_name_H-M "I M M A"
_symmetry_group_IT_number 74
_symmetry_cell_setting 'orthorhombic'
loop_
_space_group_symop_operation_xyz
x,y,z
-x,1/2-y,z
x,-y,-z
-x,1/2+y,-z
-x,-y,-z
x,1/2+y,-z
-x,y,z
x,1/2-y,z
1/2+x,1/2+y,1/2+z
1/2-x,-y,1/2+z
1/2+x,1/2-y,1/2-z
1/2-x,y,1/2-z
1/2-x,1/2-y,1/2-z
1/2+x,y,1/2-z
1/2-x,1/2+y,1/2+z
1/2+x,-y,1/2+z
loop_
_atom_site_type_symbol
_atom_site_label
_atom_site_fract_x
_atom_site_fract_y
_atom_site_fract_z
Si Si1 0.500000 0.576979 0.406644
Si Si2 0.738254 0.666751 0.936730
Si Si3 0.000000 0.335354 0.894919
Si Si4 0.000000 0.706779 0.433388
Si Si5 0.264242 0.086142 0.941368
Si Si6 0.500000 0.040519 0.934094
O O1 0.500000 0.620648 0.362011
O O2 0.628873 0.573114 0.499349
O O3 0.500000 0.549934 0.255546
O O4 0.750000 0.665310 0.750000
O O5 0.626663 0.693638 0.982193
O O6 0.706097 0.626673 0.002663
O O7 0.873848 0.674447 0.011846
O O8 0.000000 0.313622 0.733487
O O9 0.000000 0.750000 0.416179
O O10 0.250000 0.086451 0.750000
O O11 0.375051 0.060199 0.990371
O O12 0.500000 0.000000 0.000000
#
# Coordination Sequence:
#
# PCOD9534468 Si02
#       6
#     8  16   8   8  16   8
#     4   8  16  33  57  77 100 138 189 234 273 324
#     4  11  22  39  63  91 119 147 190 252 306 340
#     4  10  21  40  66  89 111 152 201 242 284 347
#     4  12  25  40  60  86 118 160 201 232 280 359
#     4   9  17  34  59  81 105 144 193 235 279 342
#     4  10  18  29  50  80 112 146 183 228 280 332
#
# _framework density 19.121064000000001
#
# number of rings (size 3 to 8) (size 9 to 14) (size 15 to 20)
#    0.000    2.000    0.000    6.750    0.000    2.500 
#    0.000    5.625    0.000    0.000    0.000    0.000 
#    0.000    0.000    0.000    0.000    0.000    0.000 
#
# Total GULP energy -178521.259775 kJ/mol
# GULP energy per Si atom -5578.789368 kJ/mol
# Density = 1.907754 g / cm^3
# Si number density = 19.121064 Si / 1000 Ang^3
#
#
#
# Elastic Constant Matrix: (Units=GPa)
#
#
# Indices 1 2 3 4 5 6 
#
# 1 179.3740 87.6647 35.0495 -0.0004 -0.0001 -0.0001
# 2 87.6647 109.9187 41.2299 -0.0011 -0.0005 0.0000
# 3 35.0495 41.2299 72.7621 -0.0020 -0.0020 0.0018
# 4 -0.0004 -0.0011 -0.0020 1.3148 0.0001 -0.0005
# 5 -0.0001 -0.0005 -0.0020 0.0001 14.4207 -0.0010
# 6 -0.0001 0.0000 0.0018 -0.0005 -0.0010 -13.8334
#
#
#
# Elastic Compliance Matrix: (Units=1/GPa)
#
#
# Indices 1 2 3 4 5 6 
#
# 1 0.009143 -0.007162 -0.000346 -0.000004 0.000000 0.000000
# 2 -0.007162 0.017164 -0.006276 0.000003 0.000000 -0.000001
# 3 -0.000346 -0.006276 0.017466 0.000021 0.000002 0.000002
# 4 -0.000004 0.000003 0.000021 0.760557 -0.000007 -0.000029
# 5 0.000000 0.000000 0.000002 -0.000007 0.069345 -0.000005
# 6 0.000000 -0.000001 0.000002 -0.000029 -0.000005 -0.072289
#
#
# Mechanical properties :
#
#
# Convention : Reuss Voigt Hill
#
# Bulk Modulus (GPa) = 61.70746 76.66033 69.18389
# Shear Modulus (GPa) = 5.99266 13.58782 9.79024
#
# Velocity S-wave (km/s) = 1.77225 2.66864 2.26523
# Velocity P-wave (km/s) = 6.04399 7.04802 6.56523
#
# Compressibility (1/GPa) = 0.01620550
#
# Stress axis : x y z
#
# Youngs Moduli (GPa) = 109.37594 58.26285 57.25408
#
# Poissons Ratio (x) = 0.41728 0.01980
# Poissons Ratio (y) = 0.78335 0.35930
# Poissons Ratio (z) = 0.03782 0.36564
#
# Static dielectric constant tensor:
#      x y z
#    x 1.742250 0.000000 0.000000 
#    y 0.000000 1.622990 0.000000 
#    z 0.000000 0.000000 1.647090 
# 
# From -- ./inp_files/7406.got.cif
#   From: 2010.05.17/outbox.cif.g08.bks.cpg/sg74_4_cif.got.tgz:7406.got - 2010.06.03 17:57:02.
