data_PCOD9534583
_publ_section_title
;
Structure prediction by ZEFSAII (Michael W. Deem and Ramdas Pophale) SiO2 
 PCOD9534583
Probable space group: I M M A
;
_chemical_formula_sum "Si O2"
_cell_formula_units_Z 116
_cell_length_a 7.595009
_cell_length_b 27.924562
_cell_length_c 28.980874
_cell_angle_alpha 90.000000
_cell_angle_beta 90.000000
_cell_angle_gamma 90.000000
_cell_volume 6146.475310
_symmetry_space_group_name_H-M "I M M A"
_symmetry_group_IT_number 74
_symmetry_cell_setting 'orthorhombic'
loop_
_space_group_symop_operation_xyz
x,y,z
-x,1/2-y,z
x,-y,-z
-x,1/2+y,-z
-x,-y,-z
x,1/2+y,-z
-x,y,z
x,1/2-y,z
1/2+x,1/2+y,1/2+z
1/2-x,-y,1/2+z
1/2+x,1/2-y,1/2-z
1/2-x,y,1/2-z
1/2-x,1/2-y,1/2-z
1/2+x,y,1/2-z
1/2-x,1/2+y,1/2+z
1/2+x,-y,1/2+z
loop_
_atom_site_type_symbol
_atom_site_label
_atom_site_fract_x
_atom_site_fract_y
_atom_site_fract_z
Si Si1 0.201790 0.179134 0.803719
Si Si2 0.214030 0.424685 0.660934
Si Si3 0.285442 0.064349 0.040967
Si Si4 0.289067 0.973062 0.802461
Si Si5 0.714174 0.454560 0.939840
Si Si6 0.210068 0.110679 0.368677
Si Si7 0.708359 0.696008 0.698321
Si Si8 0.000000 0.750000 0.335959
O O1 0.250000 0.187315 0.750000
O O2 0.217532 0.123032 0.815369
O O3 0.344626 0.208481 0.832539
O O4 0.000000 0.193942 0.811057
O O5 0.273976 0.473579 0.685703
O O6 0.269793 0.429764 0.607415
O O7 0.000000 0.423065 0.662587
O O8 0.500000 0.065290 0.039183
O O9 0.224935 0.102443 0.079112
O O10 0.236826 0.010816 0.058169
O O11 0.225814 0.068774 0.988025
O O12 0.500000 0.974251 0.808328
O O13 0.250000 0.960389 0.750000
O O14 0.219412 0.932539 0.836890
O O15 0.500000 0.454061 0.939531
O O16 0.238685 0.160058 0.342014
O O17 0.000000 0.104638 0.371185
O O18 0.500000 0.699676 0.695917
O O19 0.783858 0.750000 0.694333
O O20 0.750000 0.677634 0.750000
#
# Coordination Sequence:
#
# PCOD9534583 Si02
#       8
#    16  16  16  16  16  16  16   4
#     4  12  24  38  60  86 112 146 188 234 282 337
#     4  10  18  33  50  77 111 147 181 221 275 325
#     4   8  13  24  45  79 105 137 179 222 261 316
#     4  10  20  30  44  66 104 146 174 209 254 320
#     4   8  13  24  48  74 109 142 177 219 267 315
#     4  10  18  30  49  77 106 136 177 217 263 317
#     4  10  21  36  52  71  97 130 174 222 270 316
#     4  12  24  44  62  86 112 144 186 238 292 322
#
# _framework density 18.872605
#
# number of rings (size 3 to 8) (size 9 to 14) (size 15 to 20)
#    0.000    2.207    2.759    2.483    0.000    4.138 
#    0.000    0.000    0.000    0.828    1.793    1.931 
#    0.000    0.000    0.000    0.000    0.000    0.000 
#
# Total GULP energy -323106.671314 kJ/mol
# GULP energy per Si atom -5570.804678 kJ/mol
# Density = 1.882965 g / cm^3
# Si number density = 18.872605 Si / 1000 Ang^3
#
#
#
# Elastic Constant Matrix: (Units=GPa)
#
#
# Indices 1 2 3 4 5 6 
#
# 1 77.8830 6.0069 -0.3058 0.0000 0.0000 0.0000
# 2 6.0069 61.0671 11.4742 0.0000 0.0000 0.0000
# 3 -0.3058 11.4742 78.9681 0.0000 0.0000 0.0000
# 4 0.0000 0.0000 0.0000 13.9939 0.0000 0.0000
# 5 0.0000 0.0000 0.0000 0.0000 6.6421 0.0000
# 6 0.0000 0.0000 0.0000 0.0000 0.0000 23.3915
#
#
#
# Elastic Compliance Matrix: (Units=1/GPa)
#
#
# Indices 1 2 3 4 5 6 
#
# 1 0.012942 -0.001318 0.000242 0.000000 0.000000 0.000000
# 2 -0.001318 0.016969 -0.002471 0.000000 0.000000 0.000000
# 3 0.000242 -0.002471 0.013023 0.000000 0.000000 0.000000
# 4 0.000000 0.000000 0.000000 0.071460 0.000000 0.000000
# 5 0.000000 0.000000 0.000000 0.000000 0.150554 0.000000
# 6 0.000000 0.000000 0.000000 0.000000 0.000000 0.042751
#
#
# Mechanical properties :
#
#
# Convention : Reuss Voigt Hill
#
# Bulk Modulus (GPa) = 27.90186 28.02986 27.96586
# Shear Modulus (GPa) = 15.30260 22.18836 18.74548
#
# Velocity S-wave (km/s) = 2.85061 3.43256 3.15503
# Velocity P-wave (km/s) = 5.06469 5.53121 5.30308
#
# Compressibility (1/GPa) = 0.03583990
#
# Stress axis : x y z
#
# Youngs Moduli (GPa) = 77.26537 58.92972 76.78557
#
# Poissons Ratio (x) = 0.07770 -0.01856
# Poissons Ratio (y) = 0.10187 0.18972
# Poissons Ratio (z) = -0.01867 0.14560
#
# Static dielectric constant tensor:
#      x y z
#    x 1.715160 0.000000 0.000000 
#    y 0.000000 1.664410 0.000000 
#    z 0.000000 0.000000 1.685790 
# 
# From -- ./inp_files/71072.got.cif
#   From: 2010.05.17/outbox.cif.g08.bks.cpg/sg74_36_cif.got.tgz:71072.got - 2010.06.03 17:57:02.
