data_PCOD9534289
_publ_section_title
;
Structure prediction by ZEFSAII (Michael W. Deem and Ramdas Pophale) SiO2 
 PCOD9534289
Probable space group: I M M A
;
_chemical_formula_sum "Si O2"
_cell_formula_units_Z 96
_cell_length_a 13.181149
_cell_length_b 18.322540
_cell_length_c 22.362235
_cell_angle_alpha 90.000000
_cell_angle_beta 90.000000
_cell_angle_gamma 90.000000
_cell_volume 5400.751002
_symmetry_space_group_name_H-M "I M M A"
_symmetry_group_IT_number 74
_symmetry_cell_setting 'orthorhombic'
loop_
_space_group_symop_operation_xyz
x,y,z
-x,1/2-y,z
x,-y,-z
-x,1/2+y,-z
-x,-y,-z
x,1/2+y,-z
-x,y,z
x,1/2-y,z
1/2+x,1/2+y,1/2+z
1/2-x,-y,1/2+z
1/2+x,1/2-y,1/2-z
1/2-x,y,1/2-z
1/2-x,1/2-y,1/2-z
1/2+x,y,1/2-z
1/2-x,1/2+y,1/2+z
1/2+x,-y,1/2+z
loop_
_atom_site_type_symbol
_atom_site_label
_atom_site_fract_x
_atom_site_fract_y
_atom_site_fract_z
Si Si1 0.111894 0.139798 0.095569
Si Si2 0.386943 0.950629 0.891105
Si Si3 0.887938 0.167969 0.497061
Si Si4 0.666874 0.169749 0.542239
Si Si5 0.795463 0.830621 0.684239
Si Si6 0.815768 0.015981 0.928874
O O1 0.201840 0.167532 0.137352
O O2 0.000000 0.162794 0.114507
O O3 0.120564 0.051800 0.095824
O O4 0.130499 0.163659 0.026839
O O5 0.500000 0.981790 0.890385
O O6 0.379438 0.894632 0.947423
O O7 0.366593 0.897279 0.835207
O O8 0.295598 0.007113 0.899733
O O9 0.883795 0.250000 0.469661
O O10 0.789689 0.164265 0.538446
O O11 0.000000 0.160868 0.525058
O O12 0.637829 0.250000 0.564843
O O13 0.636191 0.096063 0.576064
O O14 0.843675 0.750000 0.681298
O O15 0.750000 0.840705 0.750000
O O16 0.804677 0.000000 0.000000
#
# Coordination Sequence:
#
# PCOD9534289 Si02
#       6
#    16  16  16  16  16  16
#     4  10  20  33  47  62  86 120 154 186 220 257
#     4  10  18  28  44  63  86 116 149 184 221 261
#     4   9  15  23  38  59  84 113 142 175 214 252
#     4  10  18  29  44  65  91 118 152 185 216 258
#     4  10  20  33  47  65  90 117 150 190 225 260
#     4   9  17  30  43  63  87 117 151 184 217 258
#
# _framework density 17.775306
#
# number of rings (size 3 to 8) (size 9 to 14) (size 15 to 20)
#    0.000    2.333    5.000    1.000    0.000    7.000 
#    0.000    1.667    0.000    0.000    0.000    0.000 
#    0.000   10.667    0.000   12.000    0.000    0.000 
#
# Total GULP energy -267500.519357 kJ/mol
# GULP energy per Si atom -5572.927487 kJ/mol
# Density = 1.773485 g / cm^3
# Si number density = 17.775306 Si / 1000 Ang^3
#
#
#
# Elastic Constant Matrix: (Units=GPa)
#
#
# Indices 1 2 3 4 5 6 
#
# 1 65.2724 -4.8944 -6.5298 0.0000 0.0000 0.0000
# 2 -4.8944 121.0273 9.8542 0.0000 0.0000 0.0000
# 3 -6.5298 9.8542 20.2855 0.0000 0.0000 0.0000
# 4 0.0000 0.0000 0.0000 6.4403 0.0000 0.0000
# 5 0.0000 0.0000 0.0000 0.0000 4.8330 0.0000
# 6 0.0000 0.0000 0.0000 0.0000 0.0000 0.6039
#
#
#
# Elastic Compliance Matrix: (Units=1/GPa)
#
#
# Indices 1 2 3 4 5 6 
#
# 1 0.015837 0.000235 0.004984 0.000000 0.000000 0.000000
# 2 0.000235 0.008606 -0.004105 0.000000 0.000000 0.000000
# 3 0.004984 -0.004105 0.052895 0.000000 0.000000 0.000000
# 4 0.000000 0.000000 0.000000 0.155271 0.000000 0.000001
# 5 0.000000 0.000000 0.000000 0.000000 0.206912 0.000000
# 6 0.000000 0.000000 0.000000 0.000001 0.000000 1.655776
#
#
# Mechanical properties :
#
#
# Convention : Reuss Voigt Hill
#
# Bulk Modulus (GPa) = 12.56849 22.60503 17.58676
# Shear Modulus (GPa) = 2.35894 16.25246 9.30570
#
# Velocity S-wave (km/s) = 1.15324 3.02707 2.29054
# Velocity P-wave (km/s) = 2.97648 4.99622 4.11228
#
# Compressibility (1/GPa) = 0.07956405
#
# Stress axis : x y z
#
# Youngs Moduli (GPa) = 63.14501 116.19345 18.90543
#
# Poissons Ratio (x) = -0.02727 -0.09422
# Poissons Ratio (y) = -0.01482 0.07761
# Poissons Ratio (z) = -0.31470 0.47700
#
# Static dielectric constant tensor:
#      x y z
#    x 1.647270 0.000000 0.000000 
#    y 0.000000 1.669270 0.000000 
#    z 0.000000 0.000000 1.570550 
# 
# From -- ./inp_files/52260.got.cif
#   From: 2010.05.17/outbox.cif.g08.bks.cpg/sg74_27_cif.got.tgz:52260.got - 2010.06.03 17:57:02.
