data_PCOD9534307
_publ_section_title
;
Structure prediction by ZEFSAII (Michael W. Deem and Ramdas Pophale) SiO2 
 PCOD9534307
Probable space group: I M M A
;
_chemical_formula_sum "Si O2"
_cell_formula_units_Z 80
_cell_length_a 8.286797
_cell_length_b 25.730699
_cell_length_c 21.098799
_cell_angle_alpha 90.000000
_cell_angle_beta 90.000000
_cell_angle_gamma 90.000000
_cell_volume 4498.793090
_symmetry_space_group_name_H-M "I M M A"
_symmetry_group_IT_number 74
_symmetry_cell_setting 'orthorhombic'
loop_
_space_group_symop_operation_xyz
x,y,z
-x,1/2-y,z
x,-y,-z
-x,1/2+y,-z
-x,-y,-z
x,1/2+y,-z
-x,y,z
x,1/2-y,z
1/2+x,1/2+y,1/2+z
1/2-x,-y,1/2+z
1/2+x,1/2-y,1/2-z
1/2-x,y,1/2-z
1/2-x,1/2-y,1/2-z
1/2+x,y,1/2-z
1/2-x,1/2+y,1/2+z
1/2+x,-y,1/2+z
loop_
_atom_site_type_symbol
_atom_site_label
_atom_site_fract_x
_atom_site_fract_y
_atom_site_fract_z
Si Si1 0.807866 0.142653 0.993000
Si Si2 0.196795 0.637687 0.858561
Si Si3 0.306994 0.535427 0.058800
Si Si4 0.811628 0.750000 0.849353
Si Si5 0.313427 0.750000 0.990104
Si Si6 0.692981 0.525189 0.682248
O O1 0.759273 0.133559 0.066882
O O2 0.727136 0.196997 0.973969
O O3 0.000000 0.148480 0.991657
O O4 0.757507 0.093264 0.952284
O O5 0.257494 0.693286 0.831613
O O6 0.253272 0.584854 0.826011
O O7 0.000000 0.639330 0.855804
O O8 0.500000 0.536781 0.056449
O O9 0.253350 0.508995 0.123846
O O10 0.247541 0.500000 0.000000
O O11 0.795580 0.750000 0.926252
O O12 0.000000 0.750000 0.831470
O O13 0.500000 0.750000 0.970415
O O14 0.500000 0.526477 0.680066
O O15 0.750000 0.505090 0.750000
#
# Coordination Sequence:
#
# PCOD9534307 Si02
#       6
#    16  16  16   8   8  16
#     4  10  18  32  53  77 104 141 180 216 263 323
#     4   8  15  28  49  71  97 133 178 221 262 311
#     4  11  22  35  54  82 110 137 175 227 277 323
#     4   8  14  28  47  69  93 133 181 220 261 317
#     4  10  18  28  44  75 112 139 167 216 271 313
#     4  11  22  37  53  74 104 144 184 225 273 325
#
# _framework density 17.782547000000001
#
# number of rings (size 3 to 8) (size 9 to 14) (size 15 to 20)
#    0.000    2.200    2.000    3.900    0.000    0.800 
#    0.000    1.500    0.000    0.000    0.000    0.700 
#    0.000    0.000    0.000    0.000    0.000    0.000 
#
# Total GULP energy -223145.181456 kJ/mol
# GULP energy per Si atom -5578.629536 kJ/mol
# Density = 1.774207 g / cm^3
# Si number density = 17.782547 Si / 1000 Ang^3
#
#
#
# Elastic Constant Matrix: (Units=GPa)
#
#
# Indices 1 2 3 4 5 6 
#
# 1 37.7806 15.1467 9.4055 0.0000 0.0000 0.0000
# 2 15.1467 129.6578 50.4594 0.0000 0.0000 0.0000
# 3 9.4055 50.4594 84.6642 0.0000 0.0000 0.0000
# 4 0.0000 0.0000 0.0000 12.1234 0.0000 0.0000
# 5 0.0000 0.0000 0.0000 0.0000 12.8246 0.0000
# 6 0.0000 0.0000 0.0000 0.0000 0.0000 17.1863
#
#
#
# Elastic Compliance Matrix: (Units=1/GPa)
#
#
# Indices 1 2 3 4 5 6 
#
# 1 0.027916 -0.002675 -0.001507 0.000000 0.000000 0.000000
# 2 -0.002675 0.010298 -0.005840 0.000000 0.000000 0.000000
# 3 -0.001507 -0.005840 0.015460 0.000000 0.000000 0.000000
# 4 0.000000 0.000000 0.000000 0.082485 0.000000 0.000000
# 5 0.000000 0.000000 0.000000 0.000000 0.077975 0.000000
# 6 0.000000 0.000000 0.000000 0.000000 0.000000 0.058186
#
#
# Mechanical properties :
#
#
# Convention : Reuss Voigt Hill
#
# Bulk Modulus (GPa) = 29.73597 44.68064 37.20830
# Shear Modulus (GPa) = 16.47042 20.23292 18.35167
#
# Velocity S-wave (km/s) = 3.04668 3.37678 3.21597
# Velocity P-wave (km/s) = 5.39765 6.35486 5.89571
#
# Compressibility (1/GPa) = 0.03362930
#
# Stress axis : x y z
#
# Youngs Moduli (GPa) = 35.82165 97.10617 64.68441
#
# Poissons Ratio (x) = 0.25972 0.09749
# Poissons Ratio (y) = 0.09581 0.37779
# Poissons Ratio (z) = 0.05399 0.56714
#
# Static dielectric constant tensor:
#      x y z
#    x 1.605920 0.000000 0.000000 
#    y 0.000000 1.650070 0.000000 
#    z 0.000000 0.000000 1.582350 
# 
# From -- ./inp_files/48599.got.cif
#   From: 2010.05.17/outbox.cif.g08.bks.cpg/sg74_25_cif.got.tgz:48599.got - 2010.06.03 17:57:02.
