data_PCOD9534563
_publ_section_title
;
Structure prediction by ZEFSAII (Michael W. Deem and Ramdas Pophale) SiO2 
 PCOD9534563
Probable space group: I M M A
;
_chemical_formula_sum "Si O2"
_cell_formula_units_Z 80
_cell_length_a 12.182475
_cell_length_b 14.063394
_cell_length_c 28.998210
_cell_angle_alpha 90.000000
_cell_angle_beta 90.000000
_cell_angle_gamma 90.000000
_cell_volume 4968.174754
_symmetry_space_group_name_H-M "I M M A"
_symmetry_group_IT_number 74
_symmetry_cell_setting 'orthorhombic'
loop_
_space_group_symop_operation_xyz
x,y,z
-x,1/2-y,z
x,-y,-z
-x,1/2+y,-z
-x,-y,-z
x,1/2+y,-z
-x,y,z
x,1/2-y,z
1/2+x,1/2+y,1/2+z
1/2-x,-y,1/2+z
1/2+x,1/2-y,1/2-z
1/2-x,y,1/2-z
1/2-x,1/2-y,1/2-z
1/2+x,y,1/2-z
1/2-x,1/2+y,1/2+z
1/2+x,-y,1/2+z
loop_
_atom_site_type_symbol
_atom_site_label
_atom_site_fract_x
_atom_site_fract_y
_atom_site_fract_z
Si Si1 0.266006 0.364654 0.196262
Si Si2 0.129432 0.859561 0.065488
Si Si3 0.742751 0.635258 0.972795
Si Si4 0.130174 0.547779 0.885490
Si Si5 0.000000 0.134270 0.450682
Si Si6 0.500000 0.634869 0.844316
O O1 0.255548 0.250000 0.190511
O O2 0.250000 0.386255 0.250000
O O3 0.180807 0.414427 0.161921
O O4 0.388226 0.393704 0.180611
O O5 0.156394 0.750000 0.076942
O O6 0.000000 0.863230 0.053475
O O7 0.147153 0.935195 0.105969
O O8 0.197385 0.889830 0.020404
O O9 0.744879 0.750000 0.969642
O O10 0.806871 0.597132 0.928196
O O11 0.615598 0.604290 0.972328
O O12 0.000000 0.567594 0.888007
O O13 0.000000 0.250000 0.451373
O O14 0.000000 0.103408 0.397302
O O15 0.500000 0.750000 0.844833
#
# Coordination Sequence:
#
# PCOD9534563 Si02
#       6
#    16  16  16  16   8   8
#     4  10  21  34  51  75 103 132 160 194 240 293
#     4   9  19  35  52  69  94 129 165 206 251 288
#     4  10  18  30  48  72 102 133 164 197 240 293
#     4  11  21  32  49  74 100 126 165 207 243 289
#     4   9  16  28  46  68  98 136 168 189 225 288
#     4   9  16  32  49  65  99 139 163 187 231 288
#
# _framework density 16.102494
#
# number of rings (size 3 to 8) (size 9 to 14) (size 15 to 20)
#    0.000    2.200    2.000    1.800    1.400    4.000 
#    0.000    3.000    0.000    0.600    0.000    0.000 
#    0.000    0.000    0.000    0.000    0.000    0.000 
#
# Total GULP energy -223080.716206 kJ/mol
# GULP energy per Si atom -5577.017905 kJ/mol
# Density = 1.606584 g / cm^3
# Si number density = 16.102494 Si / 1000 Ang^3
#
#
#
# Elastic Constant Matrix: (Units=GPa)
#
#
# Indices 1 2 3 4 5 6 
#
# 1 103.8360 41.0675 53.6000 0.0000 0.0000 0.0000
# 2 41.0675 54.1802 49.2904 0.0000 0.0000 0.0000
# 3 53.6000 49.2904 99.1101 0.0000 0.0000 0.0000
# 4 0.0000 0.0000 0.0000 22.2142 0.0000 0.0000
# 5 0.0000 0.0000 0.0000 0.0000 6.1010 0.0000
# 6 0.0000 0.0000 0.0000 0.0000 0.0000 12.3441
#
#
#
# Elastic Compliance Matrix: (Units=1/GPa)
#
#
# Indices 1 2 3 4 5 6 
#
# 1 0.014739 -0.007159 -0.004410 0.000000 0.000000 0.000000
# 2 -0.007159 0.037186 -0.014622 0.000000 0.000000 0.000000
# 3 -0.004410 -0.014622 0.019747 0.000000 0.000000 0.000000
# 4 0.000000 0.000000 0.000000 0.045016 0.000000 0.000000
# 5 0.000000 0.000000 0.000000 0.000000 0.163908 0.000000
# 6 0.000000 0.000000 0.000000 0.000000 0.000000 0.081011
#
#
# Mechanical properties :
#
#
# Convention : Reuss Voigt Hill
#
# Bulk Modulus (GPa) = 51.84461 60.56023 56.20242
# Shear Modulus (GPa) = 11.89293 15.67641 13.78467
#
# Velocity S-wave (km/s) = 2.72063 3.12354 2.92902
# Velocity P-wave (km/s) = 6.49119 7.12036 6.81305
#
# Compressibility (1/GPa) = 0.01928841
#
# Stress axis : x y z
#
# Youngs Moduli (GPa) = 67.84848 26.89215 50.64133
#
# Poissons Ratio (x) = 0.19253 0.22335
# Poissons Ratio (y) = 0.48575 0.74046
# Poissons Ratio (z) = 0.29923 0.39321
#
# Static dielectric constant tensor:
#      x y z
#    x 1.548430 0.000000 0.000000 
#    y 0.000000 1.555500 0.000000 
#    z 0.000000 0.000000 1.504970 
# 
# From -- ./inp_files/59750.got.cif
#   From: 2010.05.17/outbox.cif.g08.bks.cpg/sg74_30_cif.got.tgz:59750.got - 2010.06.03 17:57:02.
