data_PCOD9534942
_publ_section_title
;
Structure prediction by ZEFSAII (Michael W. Deem and Ramdas Pophale) SiO2 
 PCOD9534942
Probable space group: I M M A
;
_chemical_formula_sum "Si O2"
_cell_formula_units_Z 56
_cell_length_a 7.561913
_cell_length_b 27.093445
_cell_length_c 14.448654
_cell_angle_alpha 90.000000
_cell_angle_beta 90.000000
_cell_angle_gamma 90.000000
_cell_volume 2960.215293
_symmetry_space_group_name_H-M "I M M A"
_symmetry_group_IT_number 74
_symmetry_cell_setting 'orthorhombic'
loop_
_space_group_symop_operation_xyz
x,y,z
-x,1/2-y,z
x,-y,-z
-x,1/2+y,-z
-x,-y,-z
x,1/2+y,-z
-x,y,z
x,1/2-y,z
1/2+x,1/2+y,1/2+z
1/2-x,-y,1/2+z
1/2+x,1/2-y,1/2-z
1/2-x,y,1/2-z
1/2-x,1/2-y,1/2-z
1/2+x,y,1/2-z
1/2-x,1/2+y,1/2+z
1/2+x,-y,1/2+z
loop_
_atom_site_type_symbol
_atom_site_label
_atom_site_fract_x
_atom_site_fract_y
_atom_site_fract_z
Si Si1 0.712188 0.853075 0.054207
Si Si2 0.000000 0.539855 0.875864
Si Si3 0.500000 0.569032 0.407958
Si Si4 0.789133 0.750000 0.358549
Si Si5 0.706488 0.382175 0.154122
O O1 0.500000 0.859393 0.068678
O O2 0.827251 0.896484 0.100803
O O3 0.772652 0.800667 0.094721
O O4 0.745665 0.855492 0.943339
O O5 0.000000 0.482123 0.852226
O O6 0.171887 0.569350 0.842672
O O7 0.000000 0.550116 0.985973
O O8 0.750000 0.750000 0.250000
O O9 0.000000 0.750000 0.371139
O O10 0.500000 0.394256 0.152222
O O11 0.750000 0.354177 0.250000
#
# Coordination Sequence:
#
# PCOD9534942 Si02
#       5
#    16   8   8   8  16
#     4   9  20  36  56  82 107 143 180 224 274 323
#     4   9  18  32  50  82 106 145 183 217 261 312
#     4   9  18  33  56  76 108 138 185 226 259 313
#     4  10  22  40  61  80 106 137 182 228 280 325
#     4  10  18  32  55  79 113 148 180 214 264 322
#
# _framework density 18.917542000000001
#
# number of rings (size 3 to 8) (size 9 to 14) (size 15 to 20)
#    0.000    2.571    1.429    0.000    2.000    1.143 
#    0.000    7.857    0.000    0.000    0.000    0.000 
#    0.000    0.000    0.000    0.000    0.000    0.000 
#
# Total GULP energy -155969.073342 kJ/mol
# GULP energy per Si atom -5570.324048 kJ/mol
# Density = 1.887448 g / cm^3
# Si number density = 18.917542 Si / 1000 Ang^3
#
#
#
# Elastic Constant Matrix: (Units=GPa)
#
#
# Indices 1 2 3 4 5 6 
#
# 1 91.9886 51.9370 31.7443 0.0000 0.0000 0.0000
# 2 51.9370 149.9218 63.2535 0.0000 0.0000 0.0000
# 3 31.7443 63.2535 86.5083 -0.0001 0.0000 0.0000
# 4 0.0000 0.0000 -0.0001 17.0501 0.0000 0.0000
# 5 0.0000 0.0000 0.0000 0.0000 20.2863 0.0000
# 6 0.0000 0.0000 0.0000 0.0000 0.0000 8.8770
#
#
#
# Elastic Compliance Matrix: (Units=1/GPa)
#
#
# Indices 1 2 3 4 5 6 
#
# 1 0.013816 -0.003828 -0.002271 0.000000 0.000000 0.000000
# 2 -0.003828 0.010707 -0.006424 0.000000 0.000000 0.000000
# 3 -0.002271 -0.006424 0.017090 0.000000 0.000000 0.000000
# 4 0.000000 0.000000 0.000000 0.058651 0.000000 0.000000
# 5 0.000000 0.000000 0.000000 0.000000 0.049294 0.000000
# 6 0.000000 0.000000 0.000000 0.000000 0.000000 0.112651
#
#
# Mechanical properties :
#
#
# Convention : Reuss Voigt Hill
#
# Bulk Modulus (GPa) = 60.36065 69.14313 64.75189
# Shear Modulus (GPa) = 17.07792 21.34159 19.20975
#
# Velocity S-wave (km/s) = 3.00785 3.36242 3.19006
# Velocity P-wave (km/s) = 6.63622 7.19052 6.91892
#
# Compressibility (1/GPa) = 0.01656709
#
# Stress axis : x y z
#
# Youngs Moduli (GPa) = 72.38044 93.40058 58.51471
#
# Poissons Ratio (x) = 0.35756 0.13287
# Poissons Ratio (y) = 0.27709 0.37588
# Poissons Ratio (z) = 0.16435 0.59998
#
# Static dielectric constant tensor:
#      x y z
#    x 1.666380 0.000000 0.000000 
#    y 0.000000 1.646180 0.000000 
#    z 0.000000 0.000000 1.685490 
# 
# From -- ./inp_files/28560.got.cif
#   From: 2010.05.17/outbox.cif.g08.bks.cpg/sg74_15_cif.got.tgz:28560.got - 2010.06.03 17:57:02.
