data_PCOD9534579
_publ_section_title
;
Structure prediction by ZEFSAII (Michael W. Deem and Ramdas Pophale) SiO2 
 PCOD9534579
Probable space group: I M M A
;
_chemical_formula_sum "Si O2"
_cell_formula_units_Z 128
_cell_length_a 19.854652
_cell_length_b 18.156371
_cell_length_c 20.286224
_cell_angle_alpha 90.000000
_cell_angle_beta 90.000000
_cell_angle_gamma 90.000000
_cell_volume 7312.948996
_symmetry_space_group_name_H-M "I M M A"
_symmetry_group_IT_number 74
_symmetry_cell_setting 'orthorhombic'
loop_
_space_group_symop_operation_xyz
x,y,z
-x,1/2-y,z
x,-y,-z
-x,1/2+y,-z
-x,-y,-z
x,1/2+y,-z
-x,y,z
x,1/2-y,z
1/2+x,1/2+y,1/2+z
1/2-x,-y,1/2+z
1/2+x,1/2-y,1/2-z
1/2-x,y,1/2-z
1/2-x,1/2-y,1/2-z
1/2+x,y,1/2-z
1/2-x,1/2+y,1/2+z
1/2+x,-y,1/2+z
loop_
_atom_site_type_symbol
_atom_site_label
_atom_site_fract_x
_atom_site_fract_y
_atom_site_fract_z
Si Si1 0.425305 0.378263 0.136928
Si Si2 0.141320 0.166852 0.730230
Si Si3 0.573042 0.086296 0.985070
Si Si4 0.774915 0.130000 0.854290
Si Si5 0.797031 0.026723 0.188074
Si Si6 0.924109 0.011973 0.730222
Si Si7 0.276605 0.333949 0.130348
Si Si8 0.798034 0.666708 0.476356
O O1 0.500000 0.351181 0.159529
O O2 0.427281 0.376847 0.057737
O O3 0.419112 0.461623 0.164676
O O4 0.354286 0.341224 0.155675
O O5 0.116356 0.250000 0.718657
O O6 0.166318 0.159060 0.806392
O O7 0.207272 0.153105 0.685209
O O8 0.093906 0.096976 0.717635
O O9 0.500000 0.101153 0.953056
O O10 0.640970 0.114883 0.952253
O O11 0.577426 0.000000 0.000000
O O12 0.764379 0.160593 0.927041
O O13 0.783890 0.041895 0.859942
O O14 0.750000 0.006935 0.250000
O O15 0.770903 0.104725 0.162515
O O16 0.871899 0.021667 0.217052
O O17 0.000000 0.006226 0.754539
O O18 0.254265 0.250000 0.141156
O O19 0.278993 0.349602 0.051805
O O20 0.824285 0.750000 0.475248
#
# Coordination Sequence:
#
# PCOD9534579 Si02
#       8
#    16  16  16  16  16  16  16  16
#     4   9  17  32  49  67  98 136 172 208 246 291
#     4  10  18  30  49  74 102 135 168 204 258 302
#     4   9  19  30  44  64  92 136 178 207 239 283
#     4  10  18  32  52  74 102 136 170 208 246 302
#     4  11  19  35  55  76  98 134 172 207 257 304
#     4  10  20  34  51  72 100 132 169 213 250 298
#     4  10  21  34  50  77 105 131 169 215 259 301
#     4  10  21  32  48  74 102 130 167 214 253 293
#
# _framework density 17.503198999999999
#
# number of rings (size 3 to 8) (size 9 to 14) (size 15 to 20)
#    0.000    2.125    3.750    1.500    5.250    1.000 
#    0.000    2.500    0.000    1.875    0.000    7.000 
#    0.000    4.000    0.000    0.000    0.000    0.000 
#
# Total GULP energy -356551.206031 kJ/mol
# GULP energy per Si atom -5571.112594 kJ/mol
# Density = 1.746336 g / cm^3
# Si number density = 17.503199 Si / 1000 Ang^3
#
#
#
# Elastic Constant Matrix: (Units=GPa)
#
#
# Indices 1 2 3 4 5 6 
#
# 1 62.6441 16.0627 16.2660 0.0000 0.0000 0.0000
# 2 16.0627 70.0536 15.2459 0.0000 0.0000 0.0000
# 3 16.2660 15.2459 34.6637 0.0000 0.0000 0.0000
# 4 0.0000 0.0000 0.0000 20.2963 0.0000 0.0000
# 5 0.0000 0.0000 0.0000 0.0000 14.6358 0.0000
# 6 0.0000 0.0000 0.0000 0.0000 0.0000 -7.4902
#
#
#
# Elastic Compliance Matrix: (Units=1/GPa)
#
#
# Indices 1 2 3 4 5 6 
#
# 1 0.018602 -0.002616 -0.007578 0.000000 0.000000 0.000000
# 2 -0.002616 0.016154 -0.005877 0.000000 0.000000 0.000000
# 3 -0.007578 -0.005877 0.034990 0.000000 0.000000 0.000000
# 4 0.000000 0.000000 0.000000 0.049270 0.000000 0.000000
# 5 0.000000 0.000000 0.000000 0.000000 0.068326 0.000000
# 6 0.000000 0.000000 0.000000 0.000000 0.000000 -0.133509
#
#
# Mechanical properties :
#
#
# Convention : Reuss Voigt Hill
#
# Bulk Modulus (GPa) = 26.59426 29.16785 27.88105
# Shear Modulus (GPa) = 50.75655 13.47416 32.11536
#
# Velocity S-wave (km/s) = 5.39086 2.77756 4.28814
# Velocity P-wave (km/s) = 7.34680 5.19489 6.36248
#
# Compressibility (1/GPa) = 0.03760210
#
# Stress axis : x y z
#
# Youngs Moduli (GPa) = 53.75844 61.90550 28.57981
#
# Poissons Ratio (x) = 0.16194 0.21659
# Poissons Ratio (y) = 0.14063 0.16797
# Poissons Ratio (z) = 0.40740 0.36383
#
# Static dielectric constant tensor:
#      x y z
#    x 1.623160 0.000000 0.000000 
#    y 0.000000 1.625420 0.000000 
#    z 0.000000 0.000000 1.628810 
# 
# From -- ./inp_files/54187.got.cif
#   From: 2010.05.17/outbox.cif.g08.bks.cpg/sg74_28_cif.got.tgz:54187.got - 2010.06.03 17:57:02.
