data_PCOD9534375
_publ_section_title
;
Structure prediction by ZEFSAII (Michael W. Deem and Ramdas Pophale) SiO2 
 PCOD9534375
Probable space group: I M M A
;
_chemical_formula_sum "Si O2"
_cell_formula_units_Z 120
_cell_length_a 13.716620
_cell_length_b 20.305062
_cell_length_c 25.960555
_cell_angle_alpha 90.000000
_cell_angle_beta 90.000000
_cell_angle_gamma 90.000000
_cell_volume 7230.451212
_symmetry_space_group_name_H-M "I M M A"
_symmetry_group_IT_number 74
_symmetry_cell_setting 'orthorhombic'
loop_
_space_group_symop_operation_xyz
x,y,z
-x,1/2-y,z
x,-y,-z
-x,1/2+y,-z
-x,-y,-z
x,1/2+y,-z
-x,y,z
x,1/2-y,z
1/2+x,1/2+y,1/2+z
1/2-x,-y,1/2+z
1/2+x,1/2-y,1/2-z
1/2-x,y,1/2-z
1/2-x,1/2-y,1/2-z
1/2+x,y,1/2-z
1/2-x,1/2+y,1/2+z
1/2+x,-y,1/2+z
loop_
_atom_site_type_symbol
_atom_site_label
_atom_site_fract_x
_atom_site_fract_y
_atom_site_fract_z
Si Si1 0.383327 0.593410 0.693467
Si Si2 0.881926 0.677329 0.709092
Si Si3 0.116927 0.057613 0.659979
Si Si4 0.250000 0.487392 0.750000
Si Si5 0.201692 0.173806 0.470856
Si Si6 0.883282 0.416923 0.383010
Si Si7 0.615290 0.326032 0.918242
Si Si8 0.387252 0.675098 0.592665
O O1 0.500000 0.579091 0.697667
O O2 0.361316 0.651934 0.733889
O O3 0.319736 0.532976 0.714235
O O4 0.365174 0.621269 0.636470
O O5 0.843497 0.750000 0.698536
O O6 0.849461 0.624560 0.666921
O O7 0.000000 0.679944 0.705219
O O8 0.136797 0.122563 0.626765
O O9 0.000000 0.054121 0.670690
O O10 0.179586 0.052733 0.711866
O O11 0.143315 0.992869 0.625975
O O12 0.169517 0.250000 0.459727
O O13 0.151688 0.121240 0.433339
O O14 0.175724 0.160795 0.529878
O O15 0.314757 0.169778 0.455210
O O16 0.000000 0.415032 0.383556
O O17 0.500000 0.332906 0.931101
O O18 0.631633 0.250000 0.902949
O O19 0.500000 0.667927 0.578083
O O20 0.375421 0.750000 0.613873
#
# Coordination Sequence:
#
# PCOD9534375 Si02
#       8
#    16  16  16   8  16  16  16  16
#     4  10  19  31  45  64  96 137 179 215 247 287
#     4   9  16  26  40  60  93 136 174 210 246 278
#     4  10  21  36  54  77 104 132 162 197 244 302
#     4  12  20  32  52  74  98 132 168 208 248 292
#     4  10  19  31  49  74 101 133 173 209 244 290
#     4  10  18  29  44  70 105 134 165 205 247 291
#     4   9  19  37  59  80 101 124 152 195 255 316
#     4   9  18  31  45  64  94 135 179 215 243 275
#
# _framework density 16.596475000000002
#
# number of rings (size 3 to 8) (size 9 to 14) (size 15 to 20)
#    0.000    2.267    1.333    2.400    0.000    3.467 
#    0.000    3.000    0.000    1.600    0.000    2.800 
#    0.000    0.000    0.000    0.000    0.000    0.000 
#
# Total GULP energy -334703.609194 kJ/mol
# GULP energy per Si atom -5578.393487 kJ/mol
# Density = 1.655870 g / cm^3
# Si number density = 16.596475 Si / 1000 Ang^3
#
#
#
# Elastic Constant Matrix: (Units=GPa)
#
#
# Indices 1 2 3 4 5 6 
#
# 1 77.8018 43.4094 55.6659 0.0000 0.0000 0.0000
# 2 43.4094 94.2018 75.0481 0.0000 0.0000 0.0000
# 3 55.6659 75.0481 101.1980 0.0000 0.0000 0.0000
# 4 0.0000 0.0000 0.0000 25.0441 0.0000 0.0000
# 5 0.0000 0.0000 0.0000 0.0000 29.7757 0.0000
# 6 0.0000 0.0000 0.0000 0.0000 0.0000 14.2566
#
#
#
# Elastic Compliance Matrix: (Units=1/GPa)
#
#
# Indices 1 2 3 4 5 6 
#
# 1 0.021248 -0.001173 -0.010818 0.000000 0.000000 0.000000
# 2 -0.001173 0.026008 -0.018642 0.000000 0.000000 0.000000
# 3 -0.010818 -0.018642 0.029657 0.000000 0.000000 0.000000
# 4 0.000000 0.000000 0.000000 0.039930 0.000000 0.000000
# 5 0.000000 0.000000 0.000000 0.000000 0.033584 0.000000
# 6 0.000000 0.000000 0.000000 0.000000 0.000000 0.070143
#
#
# Mechanical properties :
#
#
# Convention : Reuss Voigt Hill
#
# Bulk Modulus (GPa) = 63.91087 69.04981 66.48034
# Shear Modulus (GPa) = 17.41859 20.42051 18.91955
#
# Velocity S-wave (km/s) = 3.24317 3.51153 3.38001
# Velocity P-wave (km/s) = 7.25372 7.62473 7.44154
#
# Compressibility (1/GPa) = 0.01564679
#
# Stress axis : x y z
#
# Youngs Moduli (GPa) = 47.06424 38.45039 33.71887
#
# Poissons Ratio (x) = 0.04510 0.36477
# Poissons Ratio (y) = 0.05520 0.62859
# Poissons Ratio (z) = 0.50913 0.71679
#
# Static dielectric constant tensor:
#      x y z
#    x 1.602310 0.000000 0.000000 
#    y 0.000000 1.557110 0.000000 
#    z 0.000000 0.000000 1.531290 
# 
# From -- ./inp_files/52357.got.cif
#   From: 2010.05.17/outbox.cif.g08.bks.cpg/sg74_27_cif.got.tgz:52357.got - 2010.06.03 17:57:02.
