data_PCOD9534959
_publ_section_title
;
Structure prediction by ZEFSAII (Michael W. Deem and Ramdas Pophale) SiO2 
 PCOD9534959
Probable space group: I M M A
;
_chemical_formula_sum "Si O2"
_cell_formula_units_Z 104
_cell_length_a 21.214146
_cell_length_b 8.594803
_cell_length_c 30.537611
_cell_angle_alpha 90.000000
_cell_angle_beta 90.000000
_cell_angle_gamma 90.000000
_cell_volume 5567.965540
_symmetry_space_group_name_H-M "I M M A"
_symmetry_group_IT_number 74
_symmetry_cell_setting 'orthorhombic'
loop_
_space_group_symop_operation_xyz
x,y,z
-x,1/2-y,z
x,-y,-z
-x,1/2+y,-z
-x,-y,-z
x,1/2+y,-z
-x,y,z
x,1/2-y,z
1/2+x,1/2+y,1/2+z
1/2-x,-y,1/2+z
1/2+x,1/2-y,1/2-z
1/2-x,y,1/2-z
1/2-x,1/2-y,1/2-z
1/2+x,y,1/2-z
1/2-x,1/2+y,1/2+z
1/2+x,-y,1/2+z
loop_
_atom_site_type_symbol
_atom_site_label
_atom_site_fract_x
_atom_site_fract_y
_atom_site_fract_z
Si Si1 0.132180 0.567452 0.367803
Si Si2 0.928780 0.062424 0.280589
Si Si3 0.633199 0.562913 0.549523
Si Si4 0.812168 0.060435 0.222777
Si Si5 0.000000 0.563935 0.049707
Si Si6 0.575961 0.928323 0.954058
Si Si7 0.273059 0.561968 0.626627
O O1 0.131624 0.750000 0.359233
O O2 0.095522 0.483008 0.328600
O O3 0.099160 0.527971 0.413490
O O4 0.203370 0.506616 0.371308
O O5 0.930149 0.250000 0.278007
O O6 0.875838 0.006311 0.246427
O O7 0.000000 0.005182 0.273059
O O8 0.642758 0.500000 0.500000
O O9 0.630146 0.750000 0.547278
O O10 0.566087 0.500245 0.567567
O O11 0.687869 0.516338 0.583458
O O12 0.812089 0.250000 0.224186
O O13 0.750000 0.010262 0.250000
O O14 0.806768 0.015399 0.172075
O O15 0.000000 0.750000 0.049808
O O16 0.000000 0.500000 0.000000
O O17 0.500000 0.927716 0.954348
O O18 0.597735 0.750000 0.949423
O O19 0.597695 0.000000 0.000000
O O20 0.268406 0.750000 0.626399
#
# Coordination Sequence:
#
# PCOD9534959 Si02
#       7
#    16  16  16  16   8  16  16
#     4  12  24  36  55  82 114 152 192 232 278 338
#     4  10  20  36  60  87 112 143 187 237 288 344
#     4  10  20  35  57  84 114 147 187 233 282 336
#     4   9  16  33  61  85 109 142 185 238 289 338
#     4  10  18  32  56  80 110 148 188 228 276 332
#     4  10  21  38  59  82 111 147 187 233 283 334
#     4  10  21  38  59  83 111 147 190 239 288 339
#
# _framework density 18.678277000000001
#
# number of rings (size 3 to 8) (size 9 to 14) (size 15 to 20)
#    0.000    1.846    1.538    4.385    0.000    4.923 
#    1.385    3.077    0.000    0.000    0.000    0.000 
#    0.000    0.000    0.000    0.000    0.000    0.000 
#
# Total GULP energy -290276.679018 kJ/mol
# GULP energy per Si atom -5582.243827 kJ/mol
# Density = 1.863576 g / cm^3
# Si number density = 18.678277 Si / 1000 Ang^3
#
#
#
# Elastic Constant Matrix: (Units=GPa)
#
#
# Indices 1 2 3 4 5 6 
#
# 1 121.3156 24.1868 47.8250 0.0000 0.0000 0.0000
# 2 24.1868 30.3465 10.1723 0.0000 0.0000 0.0000
# 3 47.8250 10.1723 101.5765 0.0000 0.0000 0.0000
# 4 0.0000 0.0000 0.0000 18.5710 0.0000 0.0000
# 5 0.0000 0.0000 0.0000 0.0000 27.4003 0.0000
# 6 0.0000 0.0000 0.0000 0.0000 0.0000 15.2995
#
#
#
# Elastic Compliance Matrix: (Units=1/GPa)
#
#
# Indices 1 2 3 4 5 6 
#
# 1 0.011632 -0.007693 -0.004706 0.000000 0.000000 0.000000
# 2 -0.007693 0.039186 -0.000302 0.000000 0.000000 0.000000
# 3 -0.004706 -0.000302 0.012091 0.000000 0.000000 0.000000
# 4 0.000000 0.000000 0.000000 0.053848 0.000000 0.000000
# 5 0.000000 0.000000 0.000000 0.000000 0.036496 0.000000
# 6 0.000000 0.000000 0.000000 0.000000 0.000000 0.065362
#
#
# Mechanical properties :
#
#
# Convention : Reuss Voigt Hill
#
# Bulk Modulus (GPa) = 26.66282 46.40077 36.53179
# Shear Modulus (GPa) = 19.49174 23.65778 21.57476
#
# Velocity S-wave (km/s) = 3.23391 3.56278 3.40232
# Velocity P-wave (km/s) = 5.31507 6.46689 5.91906
#
# Compressibility (1/GPa) = 0.03750541
#
# Stress axis : x y z
#
# Youngs Moduli (GPa) = 85.96892 25.51947 82.70699
#
# Poissons Ratio (x) = 0.19633 0.38924
# Poissons Ratio (y) = 0.66140 0.02497
# Poissons Ratio (z) = 0.40459 0.00771
#
# Static dielectric constant tensor:
#      x y z
#    x 1.653340 0.000000 0.000000 
#    y 0.000000 1.644450 0.000000 
#    z 0.000000 0.000000 1.605080 
# 
# From -- ./inp_files/73402.got.cif
#   From: 2010.05.17/outbox.cif.g08.bks.cpg/sg74_37_cif.got.tgz:73402.got - 2010.06.03 17:57:02.
