data_PCOD9534798
_publ_section_title
;
Structure prediction by ZEFSAII (Michael W. Deem and Ramdas Pophale) SiO2 
 PCOD9534798
Probable space group: I M M A
;
_chemical_formula_sum "Si O2"
_cell_formula_units_Z 72
_cell_length_a 20.224157
_cell_length_b 17.109970
_cell_length_c 11.641337
_cell_angle_alpha 90.000000
_cell_angle_beta 90.000000
_cell_angle_gamma 90.000000
_cell_volume 4028.306784
_symmetry_space_group_name_H-M "I M M A"
_symmetry_group_IT_number 74
_symmetry_cell_setting 'orthorhombic'
loop_
_space_group_symop_operation_xyz
x,y,z
-x,1/2-y,z
x,-y,-z
-x,1/2+y,-z
-x,-y,-z
x,1/2+y,-z
-x,y,z
x,1/2-y,z
1/2+x,1/2+y,1/2+z
1/2-x,-y,1/2+z
1/2+x,1/2-y,1/2-z
1/2-x,y,1/2-z
1/2-x,1/2-y,1/2-z
1/2+x,y,1/2-z
1/2-x,1/2+y,1/2+z
1/2+x,-y,1/2+z
loop_
_atom_site_type_symbol
_atom_site_label
_atom_site_fract_x
_atom_site_fract_y
_atom_site_fract_z
Si Si1 0.767237 0.661258 0.886228
Si Si2 0.000000 0.834262 0.969000
Si Si3 0.500000 0.451675 0.677735
Si Si4 0.105522 0.087020 0.176116
Si Si5 0.500000 0.656157 0.096772
Si Si6 0.621788 0.156960 0.073727
O O1 0.789045 0.750000 0.918366
O O2 0.750000 0.665767 0.750000
O O3 0.824006 0.595906 0.886782
O O4 0.699418 0.643159 0.953884
O O5 0.000000 0.898558 0.066292
O O6 0.000000 0.750000 0.023596
O O7 0.061940 0.847818 0.887059
O O8 0.564444 0.507235 0.670471
O O9 0.500000 0.397990 0.791006
O O10 0.109506 0.109897 0.309618
O O11 0.500000 0.750000 0.122262
O O12 0.434132 0.639465 0.020615
O O13 0.616677 0.250000 0.098699
#
# Coordination Sequence:
#
# PCOD9534798 Si02
#       6
#    16   8   8  16   8  16
#     4   8  14  27  50  80 109 132 162 215 272 318
#     4  11  21  35  55  74  94 137 186 222 266 312
#     4  11  24  35  49  71 114 149 176 214 264 325
#     4  10  18  31  54  80 106 131 168 229 284 311
#     4  10  20  36  55  76 109 150 185 217 256 321
#     4   9  17  30  55  86 108 135 178 220 265 316
#
# _framework density 17.873515000000001
#
# number of rings (size 3 to 8) (size 9 to 14) (size 15 to 20)
#    0.000    2.444    0.000    6.333    0.000    2.667 
#    0.000    0.000   29.333    0.000    0.000    6.222 
#    0.000    0.000    0.000    0.000    0.000    0.000 
#
# Total GULP energy -200470.527795 kJ/mol
# GULP energy per Si atom -5568.625772 kJ/mol
# Density = 1.783283 g / cm^3
# Si number density = 17.873515 Si / 1000 Ang^3
#
#
#
# Elastic Constant Matrix: (Units=GPa)
#
#
# Indices 1 2 3 4 5 6 
#
# 1 125.8262 48.5990 31.9004 0.0000 0.0000 0.0000
# 2 48.5990 83.7721 29.0732 0.0000 0.0000 0.0000
# 3 31.9004 29.0732 41.5249 0.0000 0.0000 0.0000
# 4 0.0000 0.0000 0.0000 32.1442 0.0000 0.0000
# 5 0.0000 0.0000 0.0000 0.0000 -20.0133 0.0000
# 6 0.0000 0.0000 0.0000 0.0000 0.0000 271.2789
#
#
#
# Elastic Compliance Matrix: (Units=1/GPa)
#
#
# Indices 1 2 3 4 5 6 
#
# 1 0.011057 -0.004579 -0.005288 0.000000 0.000000 0.000000
# 2 -0.004579 0.017665 -0.008850 0.000000 0.000000 0.000000
# 3 -0.005288 -0.008850 0.034341 0.000000 0.000000 0.000000
# 4 0.000000 0.000000 0.000000 0.031110 0.000000 0.000000
# 5 0.000000 0.000000 0.000000 0.000000 -0.049967 0.000000
# 6 0.000000 0.000000 0.000000 0.000000 0.000000 0.003686
#
#
# Mechanical properties :
#
#
# Convention : Reuss Voigt Hill
#
# Bulk Modulus (GPa) = 39.02013 52.25204 45.63608
# Shear Modulus (GPa) = 53.26548 66.11868 59.69208
#
# Velocity S-wave (km/s) = 5.46498 6.08875 5.78528
# Velocity P-wave (km/s) = 7.85494 8.87290 8.37939
#
# Compressibility (1/GPa) = 0.02562780
#
# Stress axis : x y z
#
# Youngs Moduli (GPa) = 90.44211 56.60853 29.11992
#
# Poissons Ratio (x) = 0.25922 0.15399
# Poissons Ratio (y) = 0.41415 0.25772
# Poissons Ratio (z) = 0.47826 0.50100
#
# Static dielectric constant tensor:
#      x y z
#    x 1.686990 0.000000 0.000000 
#    y 0.000000 1.610000 0.000000 
#    z 0.000000 0.000000 1.566190 
# 
# From -- ./inp_files/23567.got.cif
#   From: 2010.05.17/outbox.cif.g08.bks.cpg/sg74_12_cif.got.tgz:23567.got - 2010.06.03 17:57:02.
