data_PCOD9534457
_publ_section_title
;
Structure prediction by ZEFSAII (Michael W. Deem and Ramdas Pophale) SiO2 
 PCOD9534457
Probable space group: I M M A
;
_chemical_formula_sum "Si O2"
_cell_formula_units_Z 64
_cell_length_a 10.387731
_cell_length_b 22.763047
_cell_length_c 17.213993
_cell_angle_alpha 90.000000
_cell_angle_beta 90.000000
_cell_angle_gamma 90.000000
_cell_volume 4070.358969
_symmetry_space_group_name_H-M "I M M A"
_symmetry_group_IT_number 74
_symmetry_cell_setting 'orthorhombic'
loop_
_space_group_symop_operation_xyz
x,y,z
-x,1/2-y,z
x,-y,-z
-x,1/2+y,-z
-x,-y,-z
x,1/2+y,-z
-x,y,z
x,1/2-y,z
1/2+x,1/2+y,1/2+z
1/2-x,-y,1/2+z
1/2+x,1/2-y,1/2-z
1/2-x,y,1/2-z
1/2-x,1/2-y,1/2-z
1/2+x,y,1/2-z
1/2-x,1/2+y,1/2+z
1/2+x,-y,1/2+z
loop_
_atom_site_type_symbol
_atom_site_label
_atom_site_fract_x
_atom_site_fract_y
_atom_site_fract_z
Si Si1 0.354633 0.428709 0.309769
Si Si2 0.352111 0.750000 0.180786
Si Si3 0.250000 0.545371 0.250000
Si Si4 0.350441 0.070149 0.490381
Si Si5 0.148066 0.622561 0.390116
O O1 0.500000 0.411148 0.291097
O O2 0.250000 0.403432 0.250000
O O3 0.340822 0.499405 0.296390
O O4 0.327890 0.415825 0.399588
O O5 0.500000 0.750000 0.210786
O O6 0.250000 0.750000 0.250000
O O7 0.336114 0.690912 0.131024
O O8 0.176613 0.585275 0.311969
O O9 0.500000 0.084292 0.509045
O O10 0.249801 0.102227 0.545685
O O11 0.335206 0.000000 0.500000
O O12 0.000000 0.612053 0.414138
#
# Coordination Sequence:
#
# PCOD9534457 Si02
#       5
#    16   8   8  16  16
#     4   9  18  30  46  70 100 131 160 196 245 298
#     4  10  22  38  52  72  99 134 179 216 251 290
#     4  10  18  29  50  70 100 131 166 206 244 292
#     4  10  19  32  49  72 102 133 164 204 254 303
#     4  11  22  34  51  73 100 136 174 211 248 296
#
# _framework density 15.72343
#
# number of rings (size 3 to 8) (size 9 to 14) (size 15 to 20)
#    0.750    1.250    3.750    0.750    0.000    3.500 
#    0.000    0.000    0.000    0.000    0.000    0.875 
#    0.000    0.000    0.000    0.000    0.000    0.000 
#
# Total GULP energy -178239.283248 kJ/mol
# GULP energy per Si atom -5569.977601 kJ/mol
# Density = 1.568764 g / cm^3
# Si number density = 15.723430 Si / 1000 Ang^3
#
#
#
# Elastic Constant Matrix: (Units=GPa)
#
#
# Indices 1 2 3 4 5 6 
#
# 1 154.6674 47.3512 97.2313 0.0000 0.0000 0.0000
# 2 47.3512 45.8299 34.6421 0.0000 0.0000 0.0000
# 3 97.2313 34.6421 104.8678 0.0000 0.0000 0.0000
# 4 0.0000 0.0000 0.0000 12.2409 0.0000 0.0000
# 5 0.0000 0.0000 0.0000 0.0000 34.6217 0.0000
# 6 0.0000 0.0000 0.0000 0.0000 0.0000 19.8211
#
#
#
# Elastic Compliance Matrix: (Units=1/GPa)
#
#
# Indices 1 2 3 4 5 6 
#
# 1 0.017310 -0.007668 -0.013517 0.000000 0.000000 0.000000
# 2 -0.007668 0.032478 -0.003619 0.000000 0.000000 0.000000
# 3 -0.013517 -0.003619 0.023264 0.000000 0.000000 0.000000
# 4 0.000000 0.000000 0.000000 0.081693 0.000000 0.000000
# 5 0.000000 0.000000 0.000000 0.000000 0.028884 0.000000
# 6 0.000000 0.000000 0.000000 0.000000 0.000000 0.050451
#
#
# Mechanical properties :
#
#
# Convention : Reuss Voigt Hill
#
# Bulk Modulus (GPa) = 42.65428 73.75713 58.20570
# Shear Modulus (GPa) = 17.15252 21.74612 19.44932
#
# Velocity S-wave (km/s) = 3.30644 3.72296 3.52087
# Velocity P-wave (km/s) = 6.46247 8.09268 7.32308
#
# Compressibility (1/GPa) = 0.02344431
#
# Stress axis : x y z
#
# Youngs Moduli (GPa) = 57.76949 30.79013 42.98516
#
# Poissons Ratio (x) = 0.23609 0.58102
# Poissons Ratio (y) = 0.44296 0.15558
# Poissons Ratio (z) = 0.78085 0.11144
#
# Static dielectric constant tensor:
#      x y z
#    x 1.530250 0.000000 0.000000 
#    y 0.000000 1.500530 0.000000 
#    z 0.000000 0.000000 1.513900 
# 
# From -- ./inp_files/28870.got.cif
#   From: 2010.05.17/outbox.cif.g08.bks.cpg/sg74_15_cif.got.tgz:28870.got - 2010.06.03 17:57:02.
