data_PCOD9534828
_publ_section_title
;
Structure prediction by ZEFSAII (Michael W. Deem and Ramdas Pophale) SiO2 
 PCOD9534828
Probable space group: I M M A
;
_chemical_formula_sum "Si O2"
_cell_formula_units_Z 96
_cell_length_a 14.435908
_cell_length_b 11.496314
_cell_length_c 27.677922
_cell_angle_alpha 90.000000
_cell_angle_beta 90.000000
_cell_angle_gamma 90.000000
_cell_volume 4593.420496
_symmetry_space_group_name_H-M "I M M A"
_symmetry_group_IT_number 74
_symmetry_cell_setting 'orthorhombic'
loop_
_space_group_symop_operation_xyz
x,y,z
-x,1/2-y,z
x,-y,-z
-x,1/2+y,-z
-x,-y,-z
x,1/2+y,-z
-x,y,z
x,1/2-y,z
1/2+x,1/2+y,1/2+z
1/2-x,-y,1/2+z
1/2+x,1/2-y,1/2-z
1/2-x,y,1/2-z
1/2-x,1/2-y,1/2-z
1/2+x,y,1/2-z
1/2-x,1/2+y,1/2+z
1/2+x,-y,1/2+z
loop_
_atom_site_type_symbol
_atom_site_label
_atom_site_fract_x
_atom_site_fract_y
_atom_site_fract_z
Si Si1 0.353165 0.618851 0.726695
Si Si2 0.275715 0.881862 0.623478
Si Si3 0.649532 0.379437 0.483952
Si Si4 0.140007 0.624372 0.479091
Si Si5 0.894522 0.055517 0.627609
Si Si6 0.858413 0.124435 0.734487
O O1 0.392414 0.750000 0.733971
O O2 0.250000 0.624570 0.750000
O O3 0.340090 0.596440 0.669666
O O4 0.396343 0.500890 0.748105
O O5 0.243484 0.750000 0.628251
O O6 0.328256 0.892073 0.572883
O O7 0.185016 0.959416 0.624559
O O8 0.603059 0.500000 0.500000
O O9 0.608460 0.250000 0.491806
O O10 0.749340 0.377498 0.511338
O O11 0.105923 0.500000 0.500000
O O12 0.108386 0.750000 0.500003
O O13 0.116143 0.623201 0.422676
O O14 0.872566 0.122930 0.676909
O O15 0.000000 0.011847 0.630447
O O16 0.894210 0.250000 0.752789
O O17 0.750000 0.122356 0.750000
#
# Coordination Sequence:
#
# PCOD9534828 Si02
#       6
#    16  16  16  16  16  16
#     4   9  16  29  52  69  84 109 143 189 240 284
#     4  10  18  32  47  67  92 117 153 200 242 273
#     4   9  16  28  45  61  83 115 155 194 228 263
#     4  10  20  34  48  62  86 123 161 195 232 271
#     4  12  23  34  47  68  96 123 155 199 247 280
#     4  10  20  34  51  69  86 110 150 193 232 283
#
# _framework density 20.899457999999999
#
# number of rings (size 3 to 8) (size 9 to 14) (size 15 to 20)
#    0.000    2.000    6.667    0.500    0.000    2.000 
#    0.000    0.833    0.000    0.000    0.000    0.000 
#    0.000    0.000    0.000    0.000    0.000   13.333 
#
# Total GULP energy -267308.542534 kJ/mol
# GULP energy per Si atom -5568.927969 kJ/mol
# Density = 2.085189 g / cm^3
# Si number density = 20.899458 Si / 1000 Ang^3
#
#
#
# Elastic Constant Matrix: (Units=GPa)
#
#
# Indices 1 2 3 4 5 6 
#
# 1 66.7600 27.5843 17.8968 0.0000 0.0000 0.0000
# 2 27.5843 248.8072 55.4924 0.0000 0.0000 0.0000
# 3 17.8968 55.4924 96.2336 0.0000 0.0000 0.0000
# 4 0.0000 0.0000 0.0000 27.4446 0.0000 0.0000
# 5 0.0000 0.0000 0.0000 0.0000 -11.1654 0.0000
# 6 0.0000 0.0000 0.0000 0.0000 0.0000 -35.3320
#
#
#
# Elastic Compliance Matrix: (Units=1/GPa)
#
#
# Indices 1 2 3 4 5 6 
#
# 1 0.016114 -0.001283 -0.002257 0.000000 0.000000 0.000000
# 2 -0.001283 0.004715 -0.002480 0.000000 0.000000 0.000000
# 3 -0.002257 -0.002480 0.012241 0.000000 0.000000 0.000000
# 4 0.000000 0.000000 0.000000 0.036437 0.000000 0.000000
# 5 0.000000 0.000000 0.000000 0.000000 -0.089562 0.000000
# 6 0.000000 0.000000 0.000000 0.000000 0.000000 -0.028303
#
#
# Mechanical properties :
#
#
# Convention : Reuss Voigt Hill
#
# Bulk Modulus (GPa) = 47.55132 68.19419 57.87275
# Shear Modulus (GPa) = -170.60069 16.91125 -76.84472
#
# Velocity S-wave (km/s) = -9.04469 2.84768 -6.07030
# Velocity P-wave (km/s) = 9.28835 6.59643 4.62388
#
# Compressibility (1/GPa) = 0.02102991
#
# Stress axis : x y z
#
# Youngs Moduli (GPa) = 62.05697 212.10903 81.69154
#
# Poissons Ratio (x) = 0.27217 0.18437
# Poissons Ratio (y) = 0.07963 0.20259
# Poissons Ratio (z) = 0.14005 0.52603
#
# Static dielectric constant tensor:
#      x y z
#    x 1.710020 0.000000 0.000000 
#    y 0.000000 1.838980 0.000000 
#    z 0.000000 0.000000 1.760920 
# 
# From -- ./inp_files/60784.got.cif
#   From: 2010.05.17/outbox.cif.g08.bks.cpg/sg74_31_cif.got.tgz:60784.got - 2010.06.03 17:57:02.
