data_PCOD9534705
_publ_section_title
;
Structure prediction by ZEFSAII (Michael W. Deem and Ramdas Pophale) SiO2 
 PCOD9534705
Probable space group: I M M A
;
_chemical_formula_sum "Si O2"
_cell_formula_units_Z 112
_cell_length_a 27.509078
_cell_length_b 13.785797
_cell_length_c 16.284612
_cell_angle_alpha 90.000000
_cell_angle_beta 90.000000
_cell_angle_gamma 90.000000
_cell_volume 6175.687747
_symmetry_space_group_name_H-M "I M M A"
_symmetry_group_IT_number 74
_symmetry_cell_setting 'orthorhombic'
loop_
_space_group_symop_operation_xyz
x,y,z
-x,1/2-y,z
x,-y,-z
-x,1/2+y,-z
-x,-y,-z
x,1/2+y,-z
-x,y,z
x,1/2-y,z
1/2+x,1/2+y,1/2+z
1/2-x,-y,1/2+z
1/2+x,1/2-y,1/2-z
1/2-x,y,1/2-z
1/2-x,1/2-y,1/2-z
1/2+x,y,1/2-z
1/2-x,1/2+y,1/2+z
1/2+x,-y,1/2+z
loop_
_atom_site_type_symbol
_atom_site_label
_atom_site_fract_x
_atom_site_fract_y
_atom_site_fract_z
Si Si1 0.446419 0.867803 0.152462
Si Si2 0.658302 0.632172 0.942793
Si Si3 0.252940 0.359889 0.347320
Si Si4 0.852660 0.367237 0.756153
Si Si5 0.286133 0.866594 0.106094
Si Si6 0.446856 0.631874 0.959850
Si Si7 0.815691 0.474408 0.910465
O O1 0.500000 0.896819 0.183028
O O2 0.444734 0.750000 0.152210
O O3 0.401288 0.898185 0.207939
O O4 0.443274 0.894319 0.056319
O O5 0.656946 0.750000 0.938365
O O6 0.702509 0.600575 0.885086
O O7 0.674344 0.608234 0.035891
O O8 0.604040 0.598787 0.921102
O O9 0.258618 0.250000 0.378101
O O10 0.250000 0.358875 0.250000
O O11 0.297739 0.424473 0.373308
O O12 0.852852 0.250000 0.765309
O O13 0.807145 0.391413 0.695992
O O14 0.847432 0.417860 0.843868
O O15 0.280746 0.750000 0.104598
O O16 0.234742 0.913164 0.082645
O O17 0.500000 0.599710 0.928766
O O18 0.447325 0.750000 0.955849
O O19 0.836063 0.500000 0.000000
#
# Coordination Sequence:
#
# PCOD9534705 Si02
#       7
#    16  16  16  16  16  16  16
#     4   8  13  23  42  70 103 134 157 182 231 302
#     4   9  15  26  45  68  97 130 164 197 239 286
#     4  10  21  36  50  64  89 130 179 217 241 280
#     4  10  19  31  50  76 105 130 159 198 247 305
#     4  10  18  31  49  72 101 131 157 195 247 302
#     4   8  12  20  39  70 104 132 157 187 233 300
#     4  12  23  33  47  68  97 129 166 207 250 298
#
# _framework density 18.135632999999999
#
# number of rings (size 3 to 8) (size 9 to 14) (size 15 to 20)
#    0.000    2.429    2.857    2.571    0.000    1.714 
#    0.000    0.000    0.000    0.429    0.000    6.000 
#    0.000    1.714    0.000    0.571    0.000    0.143 
#
# Total GULP energy -312596.912371 kJ/mol
# GULP energy per Si atom -5582.087721 kJ/mol
# Density = 1.809436 g / cm^3
# Si number density = 18.135633 Si / 1000 Ang^3
#
#
#
# Elastic Constant Matrix: (Units=GPa)
#
#
# Indices 1 2 3 4 5 6 
#
# 1 67.3455 2.7531 17.9697 0.0000 0.0000 0.0000
# 2 2.7531 62.8640 14.6132 0.0000 0.0000 0.0000
# 3 17.9697 14.6132 79.0719 0.0000 0.0000 0.0000
# 4 0.0000 0.0000 0.0000 25.5542 0.0000 0.0000
# 5 0.0000 0.0000 0.0000 0.0000 22.5958 0.0000
# 6 0.0000 0.0000 0.0000 0.0000 0.0000 5.4606
#
#
#
# Elastic Compliance Matrix: (Units=1/GPa)
#
#
# Indices 1 2 3 4 5 6 
#
# 1 0.015809 0.000149 -0.003620 0.000000 0.000000 0.000000
# 2 0.000149 0.016623 -0.003106 0.000000 0.000000 0.000000
# 3 -0.003620 -0.003106 0.014043 0.000000 0.000000 0.000000
# 4 0.000000 0.000000 0.000000 0.039133 0.000000 0.000000
# 5 0.000000 0.000000 0.000000 0.000000 0.044256 0.000000
# 6 0.000000 0.000000 0.000000 0.000000 0.000000 0.183131
#
#
# Mechanical properties :
#
#
# Convention : Reuss Voigt Hill
#
# Bulk Modulus (GPa) = 30.01109 31.10594 30.55851
# Shear Modulus (GPa) = 14.82557 22.31847 18.57202
#
# Velocity S-wave (km/s) = 2.86227 3.51186 3.20357
# Velocity P-wave (km/s) = 5.24476 5.79942 5.52905
#
# Compressibility (1/GPa) = 0.03332101
#
# Stress axis : x y z
#
# Youngs Moduli (GPa) = 63.25642 60.15826 71.20761
#
# Poissons Ratio (x) = -0.00898 0.25779
# Poissons Ratio (y) = -0.00944 0.22117
# Poissons Ratio (z) = 0.22900 0.18685
#
# Static dielectric constant tensor:
#      x y z
#    x 1.632090 0.000000 0.000000 
#    y 0.000000 1.703860 0.000000 
#    z 0.000000 0.000000 1.617810 
# 
# From -- ./inp_files/37954.got.cif
#   From: 2010.05.17/outbox.cif.g08.bks.cpg/sg74_19_cif.got.tgz:37954.got - 2010.06.03 17:57:02.
