data_PCOD9534299
_publ_section_title
;
Structure prediction by ZEFSAII (Michael W. Deem and Ramdas Pophale) SiO2 
 PCOD9534299
Probable space group: I M M A
;
_chemical_formula_sum "Si O2"
_cell_formula_units_Z 112
_cell_length_a 14.306870
_cell_length_b 30.786140
_cell_length_c 10.643947
_cell_angle_alpha 90.000000
_cell_angle_beta 90.000000
_cell_angle_gamma 90.000000
_cell_volume 4688.161611
_symmetry_space_group_name_H-M "I M M A"
_symmetry_group_IT_number 74
_symmetry_cell_setting 'orthorhombic'
loop_
_space_group_symop_operation_xyz
x,y,z
-x,1/2-y,z
x,-y,-z
-x,1/2+y,-z
-x,-y,-z
x,1/2+y,-z
-x,y,z
x,1/2-y,z
1/2+x,1/2+y,1/2+z
1/2-x,-y,1/2+z
1/2+x,1/2-y,1/2-z
1/2-x,y,1/2-z
1/2-x,1/2-y,1/2-z
1/2+x,y,1/2-z
1/2-x,1/2+y,1/2+z
1/2+x,-y,1/2+z
loop_
_atom_site_type_symbol
_atom_site_label
_atom_site_fract_x
_atom_site_fract_y
_atom_site_fract_z
Si Si1 0.606597 0.802935 0.440959
Si Si2 0.723342 0.801505 0.912425
Si Si3 0.890125 0.870767 0.695972
Si Si4 0.356226 0.508525 0.210715
Si Si5 0.394277 0.557968 0.584221
Si Si6 0.104982 0.197762 0.663498
Si Si7 0.681504 0.937145 0.997364
O O1 0.500000 0.816096 0.461663
O O2 0.610213 0.750000 0.443314
O O3 0.675142 0.818651 0.547655
O O4 0.636113 0.817831 0.301287
O O5 0.726209 0.750000 0.888205
O O6 0.664356 0.825590 0.806934
O O7 0.668445 0.808084 0.044101
O O8 0.876611 0.904146 0.811535
O O9 0.847904 0.893467 0.571133
O O10 0.000000 0.863812 0.683952
O O11 0.250000 0.511002 0.250000
O O12 0.401105 0.487014 0.334227
O O13 0.359879 0.472197 0.101865
O O14 0.368144 0.552929 0.131149
O O15 0.500000 0.564919 0.529453
O O16 0.296225 0.557794 0.504808
O O17 0.099185 0.250000 0.678151
O O18 0.000000 0.181394 0.640744
#
# Coordination Sequence:
#
# PCOD9534299 Si02
#       7
#    16  16  16  16  16  16  16
#     4   8  14  25  41  61  86 121 168 219 273 338
#     4  10  18  28  44  66  95 132 175 231 291 332
#     4  10  20  32  48  72 100 134 180 229 273 321
#     4   8  15  30  53  82 112 140 171 211 252 301
#     4   9  18  34  58  85 111 143 185 225 262 315
#     4   8  13  22  38  60  85 116 160 212 264 324
#     4   9  17  33  55  76 108 147 177 209 259 317
#
# _framework density 23.889961
#
# number of rings (size 3 to 8) (size 9 to 14) (size 15 to 20)
#    0.000    3.143    0.000    3.000    0.000    3.143 
#    0.000   10.714    0.000    3.429    0.000    2.000 
#    0.000    0.000    0.000    0.000    0.000    5.000 
#
# Total GULP energy -312158.258211 kJ/mol
# GULP energy per Si atom -5574.254611 kJ/mol
# Density = 2.383559 g / cm^3
# Si number density = 23.889961 Si / 1000 Ang^3
#
#
#
# Elastic Constant Matrix: (Units=GPa)
#
#
# Indices 1 2 3 4 5 6 
#
# 1 116.6092 15.0154 47.8191 -0.0001 -0.0011 0.0001
# 2 15.0154 55.0164 13.3994 -0.0004 -0.0020 0.0000
# 3 47.8191 13.3994 101.4506 -0.0009 -0.0067 -0.0004
# 4 -0.0001 -0.0004 -0.0009 21.6308 -0.0007 -0.0003
# 5 -0.0011 -0.0020 -0.0067 -0.0007 1136.1039 0.0000
# 6 0.0001 0.0000 -0.0004 -0.0003 0.0000 20.0438
#
#
#
# Elastic Compliance Matrix: (Units=1/GPa)
#
#
# Indices 1 2 3 4 5 6 
#
# 1 0.010794 -0.001763 -0.004855 0.000000 0.000000 0.000000
# 2 -0.001763 0.019069 -0.001687 0.000000 0.000000 0.000000
# 3 -0.004855 -0.001687 0.012368 0.000000 0.000000 0.000000
# 4 0.000000 0.000000 0.000000 0.046230 0.000000 0.000001
# 5 0.000000 0.000000 0.000000 0.000000 0.000880 0.000000
# 6 0.000000 0.000000 0.000000 0.000001 0.000000 0.049891
#
#
# Mechanical properties :
#
#
# Convention : Reuss Voigt Hill
#
# Bulk Modulus (GPa) = 39.03291 47.28266 43.15778
# Shear Modulus (GPa) = 30.41690 248.67853 139.54772
#
# Velocity S-wave (km/s) = 3.57208 10.21368 7.65111
# Velocity P-wave (km/s) = 5.77815 12.60663 9.80597
#
# Compressibility (1/GPa) = 0.02561941
#
# Stress axis : x y z
#
# Youngs Moduli (GPa) = 92.64819 52.44211 80.85302
#
# Poissons Ratio (x) = 0.09248 0.39251
# Poissons Ratio (y) = 0.16338 0.13643
# Poissons Ratio (z) = 0.44977 0.08849
#
# Static dielectric constant tensor:
#      x y z
#    x 1.932100 0.000000 0.000000 
#    y 0.000000 2.046390 0.000000 
#    z 0.000000 0.000000 2.003900 
# 
# From -- ./inp_files/21109.got.cif
#   From: 2010.05.17/outbox.cif.g08.bks.cpg/sg74_11_cif.got.tgz:21109.got - 2010.06.03 17:57:02.
