data_PCOD9534895
_publ_section_title
;
Structure prediction by ZEFSAII (Michael W. Deem and Ramdas Pophale) SiO2 
 PCOD9534895
Probable space group: I M M A
;
_chemical_formula_sum "Si O2"
_cell_formula_units_Z 96
_cell_length_a 8.060999
_cell_length_b 22.901978
_cell_length_c 28.023254
_cell_angle_alpha 90.000000
_cell_angle_beta 90.000000
_cell_angle_gamma 90.000000
_cell_volume 5173.451996
_symmetry_space_group_name_H-M "I M M A"
_symmetry_group_IT_number 74
_symmetry_cell_setting 'orthorhombic'
loop_
_space_group_symop_operation_xyz
x,y,z
-x,1/2-y,z
x,-y,-z
-x,1/2+y,-z
-x,-y,-z
x,1/2+y,-z
-x,y,z
x,1/2-y,z
1/2+x,1/2+y,1/2+z
1/2-x,-y,1/2+z
1/2+x,1/2-y,1/2-z
1/2-x,y,1/2-z
1/2-x,1/2-y,1/2-z
1/2+x,y,1/2-z
1/2-x,1/2+y,1/2+z
1/2+x,-y,1/2+z
loop_
_atom_site_type_symbol
_atom_site_label
_atom_site_fract_x
_atom_site_fract_y
_atom_site_fract_z
Si Si1 0.193813 0.250000 0.859299
Si Si2 0.698975 0.496665 0.697134
Si Si3 0.687287 0.250000 0.965920
Si Si4 0.201631 0.555471 0.899229
Si Si5 0.797575 0.622452 0.149738
Si Si6 0.807083 0.563532 0.447741
Si Si7 0.189748 0.857275 0.973153
O O1 0.261918 0.188242 0.840458
O O2 0.000000 0.250000 0.846733
O O3 0.206175 0.250000 0.917330
O O4 0.500000 0.495985 0.694939
O O5 0.750000 0.513544 0.750000
O O6 0.755997 0.539454 0.654504
O O7 0.754798 0.430313 0.684518
O O8 0.500000 0.250000 0.948219
O O9 0.717715 0.305854 0.999391
O O10 0.264079 0.501315 0.930881
O O11 0.255745 0.616083 0.923501
O O12 0.000000 0.555119 0.900515
O O13 0.731044 0.603967 0.097941
O O14 0.000000 0.622453 0.147549
O O15 0.698661 0.588115 0.490626
O O16 0.000000 0.567391 0.460970
O O17 0.000000 0.838192 0.966763
#
# Coordination Sequence:
#
# PCOD9534895 Si02
#       7
#     8  16   8  16  16  16  16
#     4  10  18  32  53  69  91 139 185 211 241 289
#     4   9  18  34  53  75  99 125 162 213 264 309
#     4  12  24  34  48  75 108 137 169 213 250 289
#     4   9  20  36  53  72  97 132 173 208 244 304
#     4   9  18  32  50  70  96 133 179 214 245 299
#     4  11  20  29  46  74 106 133 163 209 259 295
#     4  11  21  35  52  70  98 139 177 203 239 297
#
# _framework density 18.556277000000001
#
# number of rings (size 3 to 8) (size 9 to 14) (size 15 to 20)
#    0.000    2.000    1.667    4.250    0.000    6.000 
#    0.000    0.417    0.000    0.000    0.000    0.583 
#    0.000    0.000    0.000    0.000    0.000    0.000 
#
# Total GULP energy -267739.039901 kJ/mol
# GULP energy per Si atom -5577.896665 kJ/mol
# Density = 1.851404 g / cm^3
# Si number density = 18.556277 Si / 1000 Ang^3
#
#
#
# Elastic Constant Matrix: (Units=GPa)
#
#
# Indices 1 2 3 4 5 6 
#
# 1 20.9474 -3.8937 -6.9347 0.0000 0.0000 0.0000
# 2 -3.8937 19.7142 18.4374 0.0000 0.0000 0.0000
# 3 -6.9347 18.4374 73.3839 0.0000 0.0000 0.0000
# 4 0.0000 0.0000 0.0000 9.7534 0.0000 0.0000
# 5 0.0000 0.0000 0.0000 0.0000 16.9898 0.0000
# 6 0.0000 0.0000 0.0000 0.0000 0.0000 28.3613
#
#
#
# Elastic Compliance Matrix: (Units=1/GPa)
#
#
# Indices 1 2 3 4 5 6 
#
# 1 0.050037 0.007137 0.002935 0.000000 0.000000 0.000000
# 2 0.007137 0.067323 -0.016240 0.000000 0.000000 0.000000
# 3 0.002935 -0.016240 0.017985 0.000000 0.000000 0.000000
# 4 0.000000 0.000000 0.000000 0.102528 0.000000 0.000000
# 5 0.000000 0.000000 0.000000 0.000000 0.058859 0.000000
# 6 0.000000 0.000000 0.000000 0.000000 0.000000 0.035259
#
#
# Mechanical properties :
#
#
# Convention : Reuss Voigt Hill
#
# Bulk Modulus (GPa) = 8.12945 14.36262 11.24603
# Shear Modulus (GPa) = 12.97593 18.11667 15.54630
#
# Velocity S-wave (km/s) = 2.64725 3.12798 2.89760
# Velocity P-wave (km/s) = 3.70599 4.56098 4.15553
#
# Compressibility (1/GPa) = 0.12300953
#
# Stress axis : x y z
#
# Youngs Moduli (GPa) = 19.98522 14.85380 55.60310
#
# Poissons Ratio (x) = -0.10602 -0.16321
# Poissons Ratio (y) = -0.14264 0.90300
# Poissons Ratio (z) = -0.05866 0.24123
#
# Static dielectric constant tensor:
#      x y z
#    x 1.652550 0.000000 0.000000 
#    y 0.000000 1.681290 0.000000 
#    z 0.000000 0.000000 1.647380 
# 
# From -- ./inp_files/64718.got.cif
#   From: 2010.05.17/outbox.cif.g08.bks.cpg/sg74_33_cif.got.tgz:64718.got - 2010.06.03 17:57:02.
