data_PCOD9534052
_publ_section_title
;
Structure prediction by ZEFSAII (Michael W. Deem and Ramdas Pophale) SiO2 
 PCOD9534052
Probable space group: I M M A
;
_chemical_formula_sum "Si O2"
_cell_formula_units_Z 80
_cell_length_a 13.275548
_cell_length_b 24.506110
_cell_length_c 15.547208
_cell_angle_alpha 90.000000
_cell_angle_beta 90.000000
_cell_angle_gamma 90.000000
_cell_volume 5058.004889
_symmetry_space_group_name_H-M "I M M A"
_symmetry_group_IT_number 74
_symmetry_cell_setting 'orthorhombic'
loop_
_space_group_symop_operation_xyz
x,y,z
-x,1/2-y,z
x,-y,-z
-x,1/2+y,-z
-x,-y,-z
x,1/2+y,-z
-x,y,z
x,1/2-y,z
1/2+x,1/2+y,1/2+z
1/2-x,-y,1/2+z
1/2+x,1/2-y,1/2-z
1/2-x,y,1/2-z
1/2-x,1/2-y,1/2-z
1/2+x,y,1/2-z
1/2-x,1/2+y,1/2+z
1/2+x,-y,1/2+z
loop_
_atom_site_type_symbol
_atom_site_label
_atom_site_fract_x
_atom_site_fract_y
_atom_site_fract_z
Si Si1 0.877302 0.188699 0.976900
Si Si2 0.617141 0.423435 0.806509
Si Si3 0.185578 0.027588 0.872926
Si Si4 0.617983 0.078364 0.449511
Si Si5 0.120817 0.188293 0.778941
O O1 0.846955 0.250000 0.001158
O O2 0.844780 0.179372 0.877607
O O3 0.000000 0.186977 0.976286
O O4 0.844951 0.140381 0.039974
O O5 0.500000 0.426370 0.832766
O O6 0.700003 0.450476 0.868098
O O7 0.632303 0.453920 0.714903
O O8 0.646472 0.360631 0.785175
O O9 0.177831 0.962878 0.888378
O O10 0.129468 0.054516 0.953823
O O11 0.500000 0.077155 0.425604
O O12 0.146109 0.250000 0.751577
O O13 0.000000 0.186242 0.784135
#
# Coordination Sequence:
#
# PCOD9534052 Si02
#       5
#    16  16  16  16  16
#     4   8  13  22  40  64  86 110 139 173 215 256
#     4  10  18  30  42  59  88 116 142 179 212 248
#     4  10  19  27  42  64  82 112 152 173 207 260
#     4  10  17  29  45  61  85 112 141 184 219 251
#     4   8  13  23  40  60  85 117 145 168 204 249
#
# _framework density 15.816514
#
# number of rings (size 3 to 8) (size 9 to 14) (size 15 to 20)
#    0.000    2.800    2.000    3.600    0.000    0.000 
#    0.000    5.000    0.000    0.000    0.000    2.800 
#    0.000    4.000    0.000    0.000    0.000    3.200 
#
# Total GULP energy -222704.966657 kJ/mol
# GULP energy per Si atom -5567.624166 kJ/mol
# Density = 1.578051 g / cm^3
# Si number density = 15.816514 Si / 1000 Ang^3
#
#
#
# Elastic Constant Matrix: (Units=GPa)
#
#
# Indices 1 2 3 4 5 6 
#
# 1 76.4253 35.8441 6.7129 0.0000 0.0000 -0.0001
# 2 35.8441 152.8495 27.5604 0.0001 0.0000 -0.0001
# 3 6.7129 27.5604 19.9503 0.0001 0.0000 -0.0002
# 4 0.0000 0.0001 0.0001 24.5919 0.0000 -0.0001
# 5 0.0000 0.0000 0.0000 0.0000 17.1003 0.0001
# 6 -0.0001 -0.0001 -0.0002 -0.0001 0.0001 -31.3905
#
#
#
# Elastic Compliance Matrix: (Units=1/GPa)
#
#
# Indices 1 2 3 4 5 6 
#
# 1 0.014703 -0.003404 -0.000245 0.000000 0.000000 0.000000
# 2 -0.003404 0.009501 -0.011979 0.000000 0.000000 0.000000
# 3 -0.000245 -0.011979 0.066756 0.000000 0.000000 0.000000
# 4 0.000000 0.000000 0.000000 0.040664 0.000000 0.000000
# 5 0.000000 0.000000 0.000000 0.000000 0.058479 0.000000
# 6 0.000000 0.000000 0.000000 0.000000 0.000000 -0.031857
#
#
# Mechanical properties :
#
#
# Convention : Reuss Voigt Hill
#
# Bulk Modulus (GPa) = 16.74965 43.27333 30.01149
# Shear Modulus (GPa) = 23.87757 14.00086 18.93921
#
# Velocity S-wave (km/s) = 3.88965 2.97847 3.46415
# Velocity P-wave (km/s) = 5.54847 6.26477 5.91747
#
# Compressibility (1/GPa) = 0.05970274
#
# Stress axis : x y z
#
# Youngs Moduli (GPa) = 68.01550 105.25708 14.97995
#
# Poissons Ratio (x) = 0.35826 0.00367
# Poissons Ratio (y) = 0.23150 0.17945
# Poissons Ratio (z) = 0.01668 1.26091
#
# Static dielectric constant tensor:
#      x y z
#    x 1.572120 0.000000 0.000000 
#    y 0.000000 1.597560 0.000000 
#    z 0.000000 0.000000 1.499300 
# 
# From -- ./inp_files/43051.got.cif
#   From: 2010.05.17/outbox.cif.g08.bks.cpg/sg74_22_cif.got.tgz:43051.got - 2010.06.03 17:57:02.
