data_PCOD9534999
_publ_section_title
;
Structure prediction by ZEFSAII (Michael W. Deem and Ramdas Pophale) SiO2 
 PCOD9534999
Probable space group: I M M A
;
_chemical_formula_sum "Si O2"
_cell_formula_units_Z 104
_cell_length_a 21.801428
_cell_length_b 27.266865
_cell_length_c 9.459145
_cell_angle_alpha 90.000000
_cell_angle_beta 90.000000
_cell_angle_gamma 90.000000
_cell_volume 5623.051120
_symmetry_space_group_name_H-M "I M M A"
_symmetry_group_IT_number 74
_symmetry_cell_setting 'orthorhombic'
loop_
_space_group_symop_operation_xyz
x,y,z
-x,1/2-y,z
x,-y,-z
-x,1/2+y,-z
-x,-y,-z
x,1/2+y,-z
-x,y,z
x,1/2-y,z
1/2+x,1/2+y,1/2+z
1/2-x,-y,1/2+z
1/2+x,1/2-y,1/2-z
1/2-x,y,1/2-z
1/2-x,1/2-y,1/2-z
1/2+x,y,1/2-z
1/2-x,1/2+y,1/2+z
1/2+x,-y,1/2+z
loop_
_atom_site_type_symbol
_atom_site_label
_atom_site_fract_x
_atom_site_fract_y
_atom_site_fract_z
Si Si1 0.430021 0.194294 0.324575
Si Si2 0.356811 0.642088 0.907883
Si Si3 0.639239 0.452546 0.404526
Si Si4 0.250000 0.397849 0.250000
Si Si5 0.427946 0.455075 0.108871
Si Si6 0.930024 0.628932 0.087326
Si Si7 0.927307 0.693226 0.354873
O O1 0.500000 0.191045 0.270953
O O2 0.409363 0.250000 0.310936
O O3 0.388214 0.157847 0.238376
O O4 0.430549 0.175978 0.484132
O O5 0.286255 0.633964 0.867593
O O6 0.387548 0.590253 0.947041
O O7 0.380695 0.682016 0.018193
O O8 0.651127 0.500000 0.500000
O O9 0.700072 0.430858 0.330920
O O10 0.594678 0.464413 0.270273
O O11 0.610142 0.412132 0.510398
O O12 0.500000 0.442000 0.112420
O O13 0.420313 0.500000 0.000000
O O14 0.912953 0.652135 0.237265
O O15 0.000000 0.610058 0.096700
O O16 0.920852 0.750000 0.308039
O O17 0.000000 0.687344 0.394234
#
# Coordination Sequence:
#
# PCOD9534999 Si02
#       7
#    16  16  16   8  16  16  16
#     4  10  18  32  60  90 116 151 190 236 298 360
#     4  11  21  38  60  82 119 159 205 249 287 346
#     4  11  24  42  63  86 114 159 203 252 296 356
#     4  10  24  44  61  80 114 158 217 252 294 334
#     4  10  21  36  59  92 125 152 187 244 314 370
#     4  10  20  37  61  92 127 152 183 238 305 370
#     4  10  21  37  61  95 129 157 188 237 305 370
#
# _framework density 18.495297000000001
#
# number of rings (size 3 to 8) (size 9 to 14) (size 15 to 20)
#    0.000    1.692    3.077    2.769    2.154    6.769 
#    0.000    1.538    0.000    0.923    0.000    0.000 
#    0.000    0.000    0.000    0.000    0.000    0.000 
#
# Total GULP energy -289921.687258 kJ/mol
# GULP energy per Si atom -5575.417063 kJ/mol
# Density = 1.845320 g / cm^3
# Si number density = 18.495297 Si / 1000 Ang^3
#
#
#
# Elastic Constant Matrix: (Units=GPa)
#
#
# Indices 1 2 3 4 5 6 
#
# 1 84.5599 34.4225 33.1595 0.0000 0.0000 0.0000
# 2 34.4225 81.7811 22.3067 0.0000 0.0000 0.0000
# 3 33.1595 22.3067 80.4125 0.0000 0.0000 0.0000
# 4 0.0000 0.0000 0.0000 30.1018 0.0000 0.0000
# 5 0.0000 0.0000 0.0000 0.0000 8.6820 0.0000
# 6 0.0000 0.0000 0.0000 0.0000 0.0000 43.2981
#
#
#
# Elastic Compliance Matrix: (Units=1/GPa)
#
#
# Indices 1 2 3 4 5 6 
#
# 1 0.016008 -0.005342 -0.005119 0.000000 0.000000 0.000000
# 2 -0.005342 0.015011 -0.001961 0.000000 0.000000 0.000000
# 3 -0.005119 -0.001961 0.015091 0.000000 0.000000 0.000000
# 4 0.000000 0.000000 0.000000 0.033221 0.000000 0.000000
# 5 0.000000 0.000000 0.000000 0.000000 0.115180 0.000000
# 6 0.000000 0.000000 0.000000 0.000000 0.000000 0.023096
#
#
# Mechanical properties :
#
#
# Convention : Reuss Voigt Hill
#
# Bulk Modulus (GPa) = 47.02493 47.39232 47.20863
# Shear Modulus (GPa) = 20.03690 26.87404 23.45547
#
# Velocity S-wave (km/s) = 3.29500 3.81599 3.56502
# Velocity P-wave (km/s) = 6.32112 6.71530 6.52119
#
# Compressibility (1/GPa) = 0.02126532
#
# Stress axis : x y z
#
# Youngs Moduli (GPa) = 62.46931 66.61749 66.26450
#
# Poissons Ratio (x) = 0.35584 0.33923
# Poissons Ratio (y) = 0.33368 0.12997
# Poissons Ratio (z) = 0.31980 0.13067
#
# Static dielectric constant tensor:
#      x y z
#    x 1.644720 0.000000 0.000000 
#    y 0.000000 1.644030 0.000000 
#    z 0.000000 0.000000 1.655160 
# 
# From -- ./inp_files/12916.got.cif
#   From: 2010.05.17/outbox.cif.g08.bks.cpg/sg74_7_cif.got.tgz:12916.got - 2010.06.03 17:57:02.
