data_PCOD9534700
_publ_section_title
;
Structure prediction by ZEFSAII (Michael W. Deem and Ramdas Pophale) SiO2 
 PCOD9534700
Probable space group: I M M A
;
_chemical_formula_sum "Si O2"
_cell_formula_units_Z 88
_cell_length_a 7.571811
_cell_length_b 20.894340
_cell_length_c 30.845115
_cell_angle_alpha 90.000000
_cell_angle_beta 90.000000
_cell_angle_gamma 90.000000
_cell_volume 4879.943752
_symmetry_space_group_name_H-M "I M M A"
_symmetry_group_IT_number 74
_symmetry_cell_setting 'orthorhombic'
loop_
_space_group_symop_operation_xyz
x,y,z
-x,1/2-y,z
x,-y,-z
-x,1/2+y,-z
-x,-y,-z
x,1/2+y,-z
-x,y,z
x,1/2-y,z
1/2+x,1/2+y,1/2+z
1/2-x,-y,1/2+z
1/2+x,1/2-y,1/2-z
1/2-x,y,1/2-z
1/2-x,1/2-y,1/2-z
1/2+x,y,1/2-z
1/2-x,1/2+y,1/2+z
1/2+x,-y,1/2+z
loop_
_atom_site_type_symbol
_atom_site_label
_atom_site_fract_x
_atom_site_fract_y
_atom_site_fract_z
Si Si1 0.787188 0.890232 0.199299
Si Si2 0.288732 0.750000 0.301505
Si Si3 0.288012 0.820350 0.078784
Si Si4 0.794502 0.542001 0.539535
Si Si5 0.201226 0.455185 0.881711
Si Si6 0.213109 0.180799 0.475388
O O1 0.750000 0.899930 0.250000
O O2 0.718762 0.819639 0.184827
O O3 0.721270 0.944319 0.166305
O O4 0.000000 0.888485 0.194897
O O5 0.500000 0.750000 0.307972
O O6 0.250000 0.750000 0.250000
O O7 0.500000 0.823990 0.084498
O O8 0.227974 0.750000 0.094855
O O9 0.204877 0.883141 0.099142
O O10 0.255356 0.822329 0.027136
O O11 0.715792 0.500000 0.500000
O O12 0.788131 0.501566 0.583483
O O13 0.719413 0.613645 0.543449
O O14 0.000000 0.551663 0.527569
O O15 0.000000 0.477405 0.878009
O O16 0.281756 0.250000 0.459841
O O17 0.000000 0.182999 0.469290
#
# Coordination Sequence:
#
# PCOD9534700 Si02
#       6
#    16   8  16  16  16  16
#     4   9  19  33  47  62  84 115 150 191 231 272
#     4   8  14  28  46  60  78 108 146 186 228 264
#     4   9  17  30  46  64  87 119 161 199 227 264
#     4  10  18  31  49  67  91 123 159 192 223 266
#     4  11  22  31  44  67  95 123 150 189 240 282
#     4   8  14  27  47  66  86 116 155 196 227 253
#
# _framework density 18.032993999999999
#
# number of rings (size 3 to 8) (size 9 to 14) (size 15 to 20)
#    0.000    2.727    1.818    1.636    1.273    2.182 
#    0.000    0.000    0.000    0.545    0.000    0.000 
#    0.000    0.727    0.000    1.636    0.000    2.545 
#
# Total GULP energy -245237.474474 kJ/mol
# GULP energy per Si atom -5573.578965 kJ/mol
# Density = 1.799195 g / cm^3
# Si number density = 18.032994 Si / 1000 Ang^3
#
#
#
# Elastic Constant Matrix: (Units=GPa)
#
#
# Indices 1 2 3 4 5 6 
#
# 1 41.6300 3.9400 -1.1189 0.0000 0.0000 0.0000
# 2 3.9400 139.9667 56.7278 0.0000 0.0000 0.0000
# 3 -1.1189 56.7278 74.1368 0.0000 0.0000 0.0000
# 4 0.0000 0.0000 0.0000 27.1214 0.0000 0.0000
# 5 0.0000 0.0000 0.0000 0.0000 9.0710 0.0000
# 6 0.0000 0.0000 0.0000 0.0000 0.0000 10.3722
#
#
#
# Elastic Compliance Matrix: (Units=1/GPa)
#
#
# Indices 1 2 3 4 5 6 
#
# 1 0.024169 -0.001200 0.001283 0.000000 0.000000 0.000000
# 2 -0.001200 0.010416 -0.007988 0.000000 0.000000 0.000000
# 3 0.001283 -0.007988 0.019620 0.000000 0.000000 0.000000
# 4 0.000000 0.000000 0.000000 0.036871 0.000000 0.000000
# 5 0.000000 0.000000 0.000000 0.000000 0.110242 0.000000
# 6 0.000000 0.000000 0.000000 0.000000 0.000000 0.096411
#
#
# Mechanical properties :
#
#
# Convention : Reuss Voigt Hill
#
# Bulk Modulus (GPa) = 26.04512 41.64791 33.84652
# Shear Modulus (GPa) = 15.32151 22.39189 18.85670
#
# Velocity S-wave (km/s) = 2.91802 3.52762 3.23720
# Velocity P-wave (km/s) = 5.08208 6.30379 5.72561
#
# Compressibility (1/GPa) = 0.03839490
#
# Stress axis : x y z
#
# Youngs Moduli (GPa) = 41.37490 96.00721 50.96771
#
# Poissons Ratio (x) = 0.11525 -0.06541
# Poissons Ratio (y) = 0.04967 0.40714
# Poissons Ratio (z) = -0.05310 0.76692
#
# Static dielectric constant tensor:
#      x y z
#    x 1.657560 0.000000 0.000000 
#    y 0.000000 1.655240 0.000000 
#    z 0.000000 0.000000 1.611530 
# 
# From -- ./inp_files/70428.got.cif
#   From: 2010.05.17/outbox.cif.g08.bks.cpg/sg74_36_cif.got.tgz:70428.got - 2010.06.03 17:57:02.
