data_PCOD9534689
_publ_section_title
;
Structure prediction by ZEFSAII (Michael W. Deem and Ramdas Pophale) SiO2 
 PCOD9534689
Probable space group: I M M A
;
_chemical_formula_sum "Si O2"
_cell_formula_units_Z 104
_cell_length_a 13.936703
_cell_length_b 22.962737
_cell_length_c 21.636038
_cell_angle_alpha 90.000000
_cell_angle_beta 90.000000
_cell_angle_gamma 90.000000
_cell_volume 6924.069721
_symmetry_space_group_name_H-M "I M M A"
_symmetry_group_IT_number 74
_symmetry_cell_setting 'orthorhombic'
loop_
_space_group_symop_operation_xyz
x,y,z
-x,1/2-y,z
x,-y,-z
-x,1/2+y,-z
-x,-y,-z
x,1/2+y,-z
-x,y,z
x,1/2-y,z
1/2+x,1/2+y,1/2+z
1/2-x,-y,1/2+z
1/2+x,1/2-y,1/2-z
1/2-x,y,1/2-z
1/2-x,1/2-y,1/2-z
1/2+x,y,1/2-z
1/2-x,1/2+y,1/2+z
1/2+x,-y,1/2+z
loop_
_atom_site_type_symbol
_atom_site_label
_atom_site_fract_x
_atom_site_fract_y
_atom_site_fract_z
Si Si1 0.308055 0.931551 0.980025
Si Si2 0.609585 0.893789 0.106258
Si Si3 0.388478 0.470276 0.147355
Si Si4 0.389841 0.421473 0.665273
Si Si5 0.605422 0.933363 0.479792
Si Si6 0.250000 0.000806 0.750000
Si Si7 0.732312 0.816270 0.323238
O O1 0.353192 0.933862 0.912154
O O2 0.367049 0.898478 0.033252
O O3 0.198336 0.909261 0.984913
O O4 0.306458 0.000000 0.000000
O O5 0.500000 0.874828 0.116428
O O6 0.684784 0.852773 0.141668
O O7 0.618147 0.960382 0.130839
O O8 0.500000 0.458000 0.160465
O O9 0.317426 0.463593 0.204875
O O10 0.500000 0.433401 0.681588
O O11 0.373503 0.435677 0.593292
O O12 0.319081 0.458108 0.708650
O O13 0.364132 0.353587 0.669561
O O14 0.500000 0.905632 0.489131
O O15 0.597516 0.000000 0.500000
O O16 0.727481 0.750000 0.345838
O O17 0.750000 0.815266 0.250000
#
# Coordination Sequence:
#
# PCOD9534689 Si02
#       7
#    16  16  16  16  16   8  16
#     4   9  15  28  45  65  87 107 137 183 221 266
#     4  10  18  31  48  64  83 110 146 189 233 269
#     4  10  19  28  44  67  89 115 146 178 218 267
#     4  11  20  32  47  61  83 116 150 183 221 263
#     4   9  16  26  43  65  84 106 139 177 218 263
#     4  12  18  30  43  64  92 118 147 182 214 262
#     4  11  22  35  45  59  84 113 154 199 231 260
#
# _framework density 15.020068999999999
#
# number of rings (size 3 to 8) (size 9 to 14) (size 15 to 20)
#    0.000    1.846    3.846    2.769    0.000    4.308 
#    0.000    2.308    0.000    0.000    0.000    0.000 
#    0.000    0.000    0.000    0.692    0.308    0.769 
#
# Total GULP energy -289707.567433 kJ/mol
# GULP energy per Si atom -5571.299374 kJ/mol
# Density = 1.498588 g / cm^3
# Si number density = 15.020069 Si / 1000 Ang^3
#
#
#
# Elastic Constant Matrix: (Units=GPa)
#
#
# Indices 1 2 3 4 5 6 
#
# 1 114.7625 5.7485 52.5009 0.0000 0.0000 0.0000
# 2 5.7485 21.6317 24.4583 0.0000 0.0000 0.0000
# 3 52.5009 24.4583 90.5648 0.0000 0.0000 0.0000
# 4 0.0000 0.0000 0.0000 12.3229 0.0000 0.0000
# 5 0.0000 0.0000 0.0000 0.0000 1489.5381 0.0000
# 6 0.0000 0.0000 0.0000 0.0000 0.0000 9.4564
#
#
#
# Elastic Compliance Matrix: (Units=1/GPa)
#
#
# Indices 1 2 3 4 5 6 
#
# 1 0.012563 0.007048 -0.009186 0.000000 0.000000 0.000000
# 2 0.007048 0.070504 -0.023126 0.000000 0.000000 0.000000
# 3 -0.009186 -0.023126 0.022613 0.000000 0.000000 0.000000
# 4 0.000000 0.000000 0.000000 0.081149 0.000000 0.000000
# 5 0.000000 0.000000 0.000000 0.000000 0.000671 0.000000
# 6 0.000000 0.000000 0.000000 0.000000 0.000000 0.105748
#
#
# Mechanical properties :
#
#
# Convention : Reuss Voigt Hill
#
# Bulk Modulus (GPa) = 18.13221 43.59714 30.86468
# Shear Modulus (GPa) = 13.80601 311.88024 162.84313
#
# Velocity S-wave (km/s) = 3.03507 14.42543 10.42365
# Velocity P-wave (km/s) = 4.93765 17.50847 12.86326
#
# Compressibility (1/GPa) = 0.05515047
#
# Stress axis : x y z
#
# Youngs Moduli (GPa) = 79.59803 14.18365 44.22274
#
# Poissons Ratio (x) = -0.09997 0.40625
# Poissons Ratio (y) = -0.56102 1.02271
# Poissons Ratio (z) = 0.73122 0.32802
#
# Static dielectric constant tensor:
#      x y z
#    x 1.561430 0.000000 0.000000 
#    y 0.000000 1.469180 0.000000 
#    z 0.000000 0.000000 1.491080 
# 
# From -- ./inp_files/52292.got.cif
#   From: 2010.05.17/outbox.cif.g08.bks.cpg/sg74_27_cif.got.tgz:52292.got - 2010.06.03 17:57:02.
