data_PCOD9534701
_publ_section_title
;
Structure prediction by ZEFSAII (Michael W. Deem and Ramdas Pophale) SiO2 
 PCOD9534701
Probable space group: I M M A
;
_chemical_formula_sum "Si O2"
_cell_formula_units_Z 96
_cell_length_a 20.087268
_cell_length_b 17.779000
_cell_length_c 16.949616
_cell_angle_alpha 90.000000
_cell_angle_beta 90.000000
_cell_angle_gamma 90.000000
_cell_volume 6053.242427
_symmetry_space_group_name_H-M "I M M A"
_symmetry_group_IT_number 74
_symmetry_cell_setting 'orthorhombic'
loop_
_space_group_symop_operation_xyz
x,y,z
-x,1/2-y,z
x,-y,-z
-x,1/2+y,-z
-x,-y,-z
x,1/2+y,-z
-x,y,z
x,1/2-y,z
1/2+x,1/2+y,1/2+z
1/2-x,-y,1/2+z
1/2+x,1/2-y,1/2-z
1/2-x,y,1/2-z
1/2-x,1/2-y,1/2-z
1/2+x,y,1/2-z
1/2-x,1/2+y,1/2+z
1/2+x,-y,1/2+z
loop_
_atom_site_type_symbol
_atom_site_label
_atom_site_fract_x
_atom_site_fract_y
_atom_site_fract_z
Si Si1 0.778199 0.065999 0.554360
Si Si2 0.924405 0.413142 0.984830
Si Si3 0.681510 0.161871 0.800869
Si Si4 0.577125 0.075581 0.700432
Si Si5 0.696896 0.528617 0.679834
Si Si6 0.694797 0.337760 0.432386
O O1 0.818541 0.110819 0.620757
O O2 0.746417 0.126106 0.494802
O O3 0.809765 0.000000 0.500000
O O4 0.721967 0.023287 0.606733
O O5 0.923402 0.401107 0.891319
O O6 0.000000 0.406671 0.013920
O O7 0.903811 0.500000 0.000000
O O8 0.876325 0.356509 0.028742
O O9 0.680238 0.250000 0.820156
O O10 0.750000 0.149101 0.750000
O O11 0.618378 0.137172 0.749152
O O12 0.500000 0.065002 0.724450
O O13 0.624383 0.001593 0.704933
O O14 0.750000 0.520991 0.750000
O O15 0.697365 0.612824 0.646772
O O16 0.705437 0.250000 0.421163
#
# Coordination Sequence:
#
# PCOD9534701 Si02
#       6
#    16  16  16  16  16  16
#     4  10  18  32  54  76  98 132 171 209 251 305
#     4  10  18  31  49  69 101 140 172 198 236 301
#     4  11  20  33  53  78 107 137 169 208 260 310
#     4  11  20  32  52  77 104 137 173 205 247 300
#     4  11  19  35  54  72  99 137 177 210 247 301
#     4  11  21  31  48  77 105 130 166 213 260 299
#
# _framework density 15.859268999999999
#
# number of rings (size 3 to 8) (size 9 to 14) (size 15 to 20)
#    0.000    1.333    6.667    1.000    0.000    3.000 
#    0.000    1.667    0.000    0.500    0.000    0.000 
#    0.000    0.000    0.000    0.000    0.000    0.000 
#
# Total GULP energy -267584.775481 kJ/mol
# GULP energy per Si atom -5574.682823 kJ/mol
# Density = 1.582317 g / cm^3
# Si number density = 15.859269 Si / 1000 Ang^3
#
#
#
# Elastic Constant Matrix: (Units=GPa)
#
#
# Indices 1 2 3 4 5 6 
#
# 1 80.1590 25.6084 35.1221 0.0000 0.0000 0.0000
# 2 25.6084 123.1624 36.0957 0.0000 0.0000 0.0000
# 3 35.1221 36.0957 63.8972 0.0000 0.0000 0.0000
# 4 0.0000 0.0000 0.0000 24.4215 0.0000 0.0000
# 5 0.0000 0.0000 0.0000 0.0000 21.8332 0.0000
# 6 0.0000 0.0000 0.0000 0.0000 0.0000 14.6434
#
#
#
# Elastic Compliance Matrix: (Units=1/GPa)
#
#
# Indices 1 2 3 4 5 6 
#
# 1 0.016521 -0.000927 -0.008557 0.000000 0.000000 0.000000
# 2 -0.000927 0.009782 -0.005016 0.000000 0.000000 0.000000
# 3 -0.008557 -0.005016 0.023187 0.000000 0.000000 0.000000
# 4 0.000000 0.000000 0.000000 0.040948 0.000000 0.000000
# 5 0.000000 0.000000 0.000000 0.000000 0.045802 0.000000
# 6 0.000000 0.000000 0.000000 0.000000 0.000000 0.068290
#
#
# Mechanical properties :
#
#
# Convention : Reuss Voigt Hill
#
# Bulk Modulus (GPa) = 48.80642 51.20789 50.00716
# Shear Modulus (GPa) = 20.80200 23.53909 22.17054
#
# Velocity S-wave (km/s) = 3.62562 3.85677 3.74298
# Velocity P-wave (km/s) = 6.95473 7.22440 7.09085
#
# Compressibility (1/GPa) = 0.02048911
#
# Stress axis : x y z
#
# Youngs Moduli (GPa) = 60.52983 102.22518 43.12669
#
# Poissons Ratio (x) = 0.09478 0.36904
# Poissons Ratio (y) = 0.05612 0.21634
# Poissons Ratio (z) = 0.51796 0.51280
#
# Static dielectric constant tensor:
#      x y z
#    x 1.532390 0.000000 0.000000 
#    y 0.000000 1.545950 0.000000 
#    z 0.000000 0.000000 1.538070 
# 
# From -- ./inp_files/44127.got.cif
#   From: 2010.05.17/outbox.cif.g08.bks.cpg/sg74_23_cif.got.tgz:44127.got - 2010.06.03 17:57:02.
