data_PCOD9534349
_publ_section_title
;
Structure prediction by ZEFSAII (Michael W. Deem and Ramdas Pophale) SiO2 
 PCOD9534349
Probable space group: I M M A
;
_chemical_formula_sum "Si O2"
_cell_formula_units_Z 80
_cell_length_a 10.060929
_cell_length_b 19.807975
_cell_length_c 30.303226
_cell_angle_alpha 90.000000
_cell_angle_beta 90.000000
_cell_angle_gamma 90.000000
_cell_volume 6039.027791
_symmetry_space_group_name_H-M "I M M A"
_symmetry_group_IT_number 74
_symmetry_cell_setting 'orthorhombic'
loop_
_space_group_symop_operation_xyz
x,y,z
-x,1/2-y,z
x,-y,-z
-x,1/2+y,-z
-x,-y,-z
x,1/2+y,-z
-x,y,z
x,1/2-y,z
1/2+x,1/2+y,1/2+z
1/2-x,-y,1/2+z
1/2+x,1/2-y,1/2-z
1/2-x,y,1/2-z
1/2-x,1/2-y,1/2-z
1/2+x,y,1/2-z
1/2-x,1/2+y,1/2+z
1/2+x,-y,1/2+z
loop_
_atom_site_type_symbol
_atom_site_label
_atom_site_fract_x
_atom_site_fract_y
_atom_site_fract_z
Si Si1 0.734112 0.873742 0.857280
Si Si2 0.838854 0.250000 0.993014
Si Si3 0.500000 0.332847 0.204445
Si Si4 0.162125 0.468169 0.070843
Si Si5 0.659674 0.898543 0.477773
Si Si6 0.657260 0.750000 0.920566
Si Si7 0.500000 0.669694 0.691113
O O1 0.624821 0.867671 0.819156
O O2 0.760191 0.939649 0.887077
O O3 0.691587 0.815103 0.891266
O O4 0.871830 0.857598 0.833575
O O5 0.803755 0.179141 0.969720
O O6 0.000000 0.250000 0.001108
O O7 0.755613 0.250000 0.038003
O O8 0.500000 0.250000 0.197152
O O9 0.500000 0.344354 0.256713
O O10 0.202628 0.543833 0.056453
O O11 0.000000 0.464827 0.077239
O O12 0.194159 0.422217 0.027614
O O13 0.500000 0.901712 0.476668
O O14 0.500000 0.750000 0.931816
O O15 0.500000 0.750000 0.686436
#
# Coordination Sequence:
#
# PCOD9534349 Si02
#       7
#    16   8   8  16  16   8   8
#     4  12  19  31  46  60  82 115 150 177 216 256
#     4  10  18  28  50  65  83 115 152 181 207 253
#     4  11  22  36  40  59  90 113 135 188 235 243
#     4   9  16  26  42  64  87 108 139 182 213 241
#     4   8  15  25  40  67  90 104 136 183 216 236
#     4  12  22  30  39  64  91 117 146 185 219 245
#     4  11  22  30  48  63  78 107 151 188 213 261
#
# _framework density 13.247165000000001
#
# number of rings (size 3 to 8) (size 9 to 14) (size 15 to 20)
#    0.000    1.800    6.000    1.800    1.400    1.600 
#    0.000    0.000    2.200    2.400    0.000    0.000 
#    0.000    0.000    0.000    5.400    0.000    0.100 
#
# Total GULP energy -222673.228229 kJ/mol
# GULP energy per Si atom -5566.830706 kJ/mol
# Density = 1.321701 g / cm^3
# Si number density = 13.247165 Si / 1000 Ang^3
#
#
#
# Elastic Constant Matrix: (Units=GPa)
#
#
# Indices 1 2 3 4 5 6 
#
# 1 62.7458 18.4811 22.4968 0.0000 0.0000 0.0000
# 2 18.4811 100.1699 41.1980 0.0000 0.0000 0.0000
# 3 22.4968 41.1980 62.7096 0.0000 0.0000 0.0000
# 4 0.0000 0.0000 0.0000 25.1183 0.0000 0.0000
# 5 0.0000 0.0000 0.0000 0.0000 2.5334 0.0000
# 6 0.0000 0.0000 0.0000 0.0000 0.0000 11.8161
#
#
#
# Elastic Compliance Matrix: (Units=1/GPa)
#
#
# Indices 1 2 3 4 5 6 
#
# 1 0.018353 -0.000929 -0.005973 0.000000 0.000000 0.000000
# 2 -0.000929 0.013726 -0.008684 0.000000 0.000000 0.000000
# 3 -0.005973 -0.008684 0.023795 0.000000 0.000000 0.000000
# 4 0.000000 0.000000 0.000000 0.039812 0.000000 0.000000
# 5 0.000000 0.000000 0.000000 0.000000 0.394721 0.000000
# 6 0.000000 0.000000 0.000000 0.000000 0.000000 0.084630
#
#
# Mechanical properties :
#
#
# Convention : Reuss Voigt Hill
#
# Bulk Modulus (GPa) = 40.48634 43.33078 41.90856
# Shear Modulus (GPa) = 8.13744 17.45687 12.79716
#
# Velocity S-wave (km/s) = 2.48115 3.63406 3.11147
# Velocity P-wave (km/s) = 6.23192 7.09852 6.67929
#
# Compressibility (1/GPa) = 0.02469969
#
# Stress axis : x y z
#
# Youngs Moduli (GPa) = 54.48772 72.85369 42.02613
#
# Poissons Ratio (x) = 0.06770 0.25104
# Poissons Ratio (y) = 0.05063 0.36496
# Poissons Ratio (z) = 0.32548 0.63268
#
# Static dielectric constant tensor:
#      x y z
#    x 1.420440 0.000000 0.000000 
#    y 0.000000 1.450820 0.000000 
#    z 0.000000 0.000000 1.422730 
# 
# From -- ./inp_files/70421.got.cif
#   From: 2010.05.17/outbox.cif.g08.bks.cpg/sg74_36_cif.got.tgz:70421.got - 2010.06.03 17:57:02.
