data_PCOD9534981
_publ_section_title
;
Structure prediction by ZEFSAII (Michael W. Deem and Ramdas Pophale) SiO2 
 PCOD9534981
Probable space group: I M M A
;
_chemical_formula_sum "Si O2"
_cell_formula_units_Z 104
_cell_length_a 30.819086
_cell_length_b 20.928773
_cell_length_c 9.128806
_cell_angle_alpha 90.000000
_cell_angle_beta 90.000000
_cell_angle_gamma 90.000000
_cell_volume 5888.131493
_symmetry_space_group_name_H-M "I M M A"
_symmetry_group_IT_number 74
_symmetry_cell_setting 'orthorhombic'
loop_
_space_group_symop_operation_xyz
x,y,z
-x,1/2-y,z
x,-y,-z
-x,1/2+y,-z
-x,-y,-z
x,1/2+y,-z
-x,y,z
x,1/2-y,z
1/2+x,1/2+y,1/2+z
1/2-x,-y,1/2+z
1/2+x,1/2-y,1/2-z
1/2-x,y,1/2-z
1/2-x,1/2-y,1/2-z
1/2+x,y,1/2-z
1/2-x,1/2+y,1/2+z
1/2+x,-y,1/2+z
loop_
_atom_site_type_symbol
_atom_site_label
_atom_site_fract_x
_atom_site_fract_y
_atom_site_fract_z
Si Si1 0.666420 0.491308 0.669750
Si Si2 0.253050 0.824508 0.982381
Si Si3 0.000000 0.440503 0.613031
Si Si4 0.595928 0.559822 0.112524
Si Si5 0.000000 0.323327 0.394833
Si Si6 0.595837 0.176600 0.115991
Si Si7 0.250000 0.087321 0.750000
Si Si8 0.820259 0.862248 0.770854
O O1 0.654038 0.500000 0.500000
O O2 0.631697 0.452042 0.764332
O O3 0.712106 0.455891 0.684936
O O4 0.673276 0.561927 0.734720
O O5 0.252950 0.750000 0.017980
O O6 0.205640 0.843660 0.918204
O O7 0.288177 0.838213 0.856488
O O8 0.265579 0.867485 0.119392
O O9 0.000000 0.500000 0.500000
O O10 0.047589 0.442210 0.684010
O O11 0.000000 0.374474 0.523769
O O12 0.598691 0.500000 0.000000
O O13 0.601570 0.623993 0.013703
O O14 0.953062 0.332726 0.320346
O O15 0.000000 0.250000 0.447089
O O16 0.598915 0.250000 0.061704
O O17 0.632852 0.167048 0.237220
#
# Coordination Sequence:
#
# PCOD9534981 Si02
#       8
#    16  16   8  16   8  16   8  16
#     4  12  25  39  55  81 112 146 188 229 276 329
#     4  11  23  39  58  82 109 142 182 227 281 338
#     4   8  16  30  53  84 111 142 177 230 275 310
#     4  10  19  35  59  84 114 145 187 228 272 325
#     4   8  16  28  48  84 120 142 178 226 276 326
#     4  10  18  32  57  88 116 147 183 231 280 328
#     4  12  25  38  58  80 111 142 182 232 278 326
#     4  11  21  37  58  80 110 146 184 227 276 330
#
# _framework density 17.662648999999998
#
# number of rings (size 3 to 8) (size 9 to 14) (size 15 to 20)
#    0.000    1.538    3.077    3.923    0.000    0.000 
#    0.000    1.154    0.000    0.000    0.000    0.000 
#    0.000    0.000    0.000    0.000    0.000    0.000 
#
# Total GULP energy -289809.765471 kJ/mol
# GULP energy per Si atom -5573.264721 kJ/mol
# Density = 1.762245 g / cm^3
# Si number density = 17.662649 Si / 1000 Ang^3
#
#
#
# Elastic Constant Matrix: (Units=GPa)
#
#
# Indices 1 2 3 4 5 6 
#
# 1 99.6415 20.2674 10.8858 0.0000 0.0000 0.0000
# 2 20.2674 102.0148 5.3885 0.0000 0.0000 0.0000
# 3 10.8858 5.3885 38.9690 0.0000 0.0000 0.0000
# 4 0.0000 0.0000 0.0000 35.4797 0.0000 0.0000
# 5 0.0000 0.0000 0.0000 0.0000 22.5561 0.0000
# 6 0.0000 0.0000 0.0000 0.0000 0.0000 35.8995
#
#
#
# Elastic Compliance Matrix: (Units=1/GPa)
#
#
# Indices 1 2 3 4 5 6 
#
# 1 0.010738 -0.001989 -0.002725 0.000000 0.000000 0.000000
# 2 -0.001989 0.010243 -0.000861 0.000000 0.000000 0.000000
# 3 -0.002725 -0.000861 0.026542 0.000000 0.000000 0.000000
# 4 0.000000 0.000000 0.000000 0.028185 0.000000 0.000000
# 5 0.000000 0.000000 0.000000 0.000000 0.044334 0.000000
# 6 0.000000 0.000000 0.000000 0.000000 0.000000 0.027856
#
#
# Mechanical properties :
#
#
# Convention : Reuss Voigt Hill
#
# Bulk Modulus (GPa) = 27.49247 34.85653 31.17450
# Shear Modulus (GPa) = 29.21046 32.39264 30.80155
#
# Velocity S-wave (km/s) = 4.07110 4.28713 4.18051
# Velocity P-wave (km/s) = 6.13984 6.65457 6.40238
#
# Compressibility (1/GPa) = 0.03637359
#
# Stress axis : x y z
#
# Youngs Moduli (GPa) = 93.12449 97.62564 37.67682
#
# Poissons Ratio (x) = 0.19422 0.10265
# Poissons Ratio (y) = 0.18527 0.03243
# Poissons Ratio (z) = 0.25373 0.08402
#
# Static dielectric constant tensor:
#      x y z
#    x 1.639320 0.000000 0.000000 
#    y 0.000000 1.604890 0.000000 
#    z 0.000000 0.000000 1.581750 
# 
# From -- ./inp_files/16231.got.cif
#   From: 2010.05.17/outbox.cif.g08.bks.cpg/sg74_9_cif.got.tgz:16231.got - 2010.06.03 17:57:02.
