data_PCOD9534927
_publ_section_title
;
Structure prediction by ZEFSAII (Michael W. Deem and Ramdas Pophale) SiO2 
 PCOD9534927
Probable space group: I M M A
;
_chemical_formula_sum "Si O2"
_cell_formula_units_Z 56
_cell_length_a 10.107793
_cell_length_b 8.976033
_cell_length_c 39.466785
_cell_angle_alpha 90.000000
_cell_angle_beta 90.000000
_cell_angle_gamma 90.000000
_cell_volume 3580.737873
_symmetry_space_group_name_H-M "I M M A"
_symmetry_group_IT_number 74
_symmetry_cell_setting 'orthorhombic'
loop_
_space_group_symop_operation_xyz
x,y,z
-x,1/2-y,z
x,-y,-z
-x,1/2+y,-z
-x,-y,-z
x,1/2+y,-z
-x,y,z
x,1/2-y,z
1/2+x,1/2+y,1/2+z
1/2-x,-y,1/2+z
1/2+x,1/2-y,1/2-z
1/2-x,y,1/2-z
1/2-x,1/2-y,1/2-z
1/2+x,y,1/2-z
1/2-x,1/2+y,1/2+z
1/2+x,-y,1/2+z
loop_
_atom_site_type_symbol
_atom_site_label
_atom_site_fract_x
_atom_site_fract_y
_atom_site_fract_z
Si Si1 0.655810 0.427262 0.352934
Si Si2 0.647863 0.424021 0.905560
Si Si3 0.654288 0.428746 0.719338
Si Si4 0.000000 0.572148 0.536887
O O1 0.500000 0.458147 0.358701
O O2 0.675408 0.250000 0.353391
O O3 0.744808 0.503842 0.381394
O O4 0.688904 0.491952 0.315876
O O5 0.500000 0.433243 0.889262
O O6 0.675256 0.250000 0.911825
O O7 0.623928 0.511273 0.940821
O O8 0.500000 0.461502 0.727087
O O9 0.665945 0.250000 0.714743
O O10 0.750000 0.473038 0.750000
O O11 0.000000 0.500000 0.500000
O O12 0.000000 0.750000 0.535348
#
# Coordination Sequence:
#
# PCOD9534927 Si02
#       4
#    16  16  16   8
#     4  10  20  33  50  73 102 135 170 211 260 311
#     4   9  19  33  51  77 102 132 172 209 249 298
#     4   9  18  32  48  66  91 127 168 211 258 307
#     4  10  18  32  54  80 110 138 168 208 252 300
#
# _framework density 15.639234999999999
#
# number of rings (size 3 to 8) (size 9 to 14) (size 15 to 20)
#    0.857    1.714    0.000    2.571    0.000    3.429 
#    0.000    2.857    0.000    0.857    0.000    0.000 
#    0.000    0.000    0.000    0.000    0.000    0.000 
#
# Total GULP energy -155894.446169 kJ/mol
# GULP energy per Si atom -5567.658792 kJ/mol
# Density = 1.560364 g / cm^3
# Si number density = 15.639235 Si / 1000 Ang^3
#
#
#
# Elastic Constant Matrix: (Units=GPa)
#
#
# Indices 1 2 3 4 5 6 
#
# 1 62.1038 60.2008 81.9949 0.0000 0.0000 0.0000
# 2 60.2008 107.8498 89.9021 0.0000 0.0000 0.0000
# 3 81.9949 89.9021 158.0793 0.0000 0.0000 0.0000
# 4 0.0000 0.0000 0.0000 30.6032 0.0000 0.0000
# 5 0.0000 0.0000 0.0000 0.0000 27.7873 0.0000
# 6 0.0000 0.0000 0.0000 0.0000 0.0000 22.7611
#
#
#
# Elastic Compliance Matrix: (Units=1/GPa)
#
#
# Indices 1 2 3 4 5 6 
#
# 1 0.061247 -0.014652 -0.023436 0.000000 0.000000 0.000000
# 2 -0.014652 0.021135 -0.004420 0.000000 0.000000 0.000000
# 3 -0.023436 -0.004420 0.020996 0.000000 0.000000 0.000000
# 4 0.000000 0.000000 0.000000 0.032676 0.000000 0.000000
# 5 0.000000 0.000000 0.000000 0.000000 0.035988 0.000000
# 6 0.000000 0.000000 0.000000 0.000000 0.000000 0.043935
#
#
# Mechanical properties :
#
#
# Convention : Reuss Voigt Hill
#
# Bulk Modulus (GPa) = 54.45882 88.02538 71.24210
# Shear Modulus (GPa) = 16.28072 22.62599 19.45335
#
# Velocity S-wave (km/s) = 3.22998 3.80774 3.53070
# Velocity P-wave (km/s) = 6.98626 8.70281 7.89135
#
# Compressibility (1/GPa) = 0.01836250
#
# Stress axis : x y z
#
# Youngs Moduli (GPa) = 16.32745 47.31453 47.62883
#
# Poissons Ratio (x) = 0.69324 1.11621
# Poissons Ratio (y) = 0.23922 0.21053
# Poissons Ratio (z) = 0.38264 0.20914
#
# Static dielectric constant tensor:
#      x y z
#    x 1.513040 0.000000 0.000000 
#    y 0.000000 1.520010 0.000000 
#    z 0.000000 0.000000 1.490240 
# 
# From -- ./inp_files/71201.got.cif
#   From: 2010.05.17/outbox.cif.g08.bks.cpg/sg74_36_cif.got.tgz:71201.got - 2010.06.03 17:57:02.
