data_PCOD9534131
_publ_section_title
;
Structure prediction by ZEFSAII (Michael W. Deem and Ramdas Pophale) SiO2 
 PCOD9534131
Probable space group: I M M A
;
_chemical_formula_sum "Si O2"
_cell_formula_units_Z 48
_cell_length_a 25.380940
_cell_length_b 9.273321
_cell_length_c 8.184419
_cell_angle_alpha 90.000000
_cell_angle_beta 90.000000
_cell_angle_gamma 90.000000
_cell_volume 1926.330721
_symmetry_space_group_name_H-M "I M M A"
_symmetry_group_IT_number 74
_symmetry_cell_setting 'orthorhombic'
loop_
_space_group_symop_operation_xyz
x,y,z
-x,1/2-y,z
x,-y,-z
-x,1/2+y,-z
-x,-y,-z
x,1/2+y,-z
-x,y,z
x,1/2-y,z
1/2+x,1/2+y,1/2+z
1/2-x,-y,1/2+z
1/2+x,1/2-y,1/2-z
1/2-x,y,1/2-z
1/2-x,1/2-y,1/2-z
1/2+x,y,1/2-z
1/2-x,1/2+y,1/2+z
1/2+x,-y,1/2+z
loop_
_atom_site_type_symbol
_atom_site_label
_atom_site_fract_x
_atom_site_fract_y
_atom_site_fract_z
Si Si1 0.099779 0.750000 0.922847
Si Si2 0.132614 0.003550 0.296068
Si Si3 0.790951 0.750000 0.599132
Si Si4 0.196181 0.250000 0.876448
Si Si5 0.938805 0.750000 0.298785
O O1 0.095275 0.895822 0.819386
O O2 0.162284 0.750000 0.957509
O O3 0.071526 0.750000 0.099453
O O4 0.170610 0.113524 0.389810
O O5 0.173742 0.896502 0.203260
O O6 0.091304 0.888952 0.368197
O O7 0.750000 0.750000 0.750000
O O8 0.756510 0.750000 0.432257
O O9 0.000000 0.750000 0.332150
#
# Coordination Sequence:
#
# PCOD9534131 Si02
#       5
#     8  16   8   8   8
#     4   9  16  28  47  66 103 131 185 207 236 310
#     4   9  19  33  47  77 107 135 192 212 235 337
#     4  11  20  30  55  72  98 157 178 200 281 305
#     4  10  17  32  50  65 109 147 171 216 264 294
#     4  10  19  31  48  65 103 150 173 215 264 289
#
# _framework density 24.917839000000001
#
# number of rings (size 3 to 8) (size 9 to 14) (size 15 to 20)
#    0.000    2.667    3.333    4.000    0.000    2.667 
#    0.000   12.500    0.000    0.000    0.000    0.000 
#    0.000    0.000    0.000  141.000    0.000    0.000 
#
# Total GULP energy -134103.687146 kJ/mol
# GULP energy per Si atom -5587.653631 kJ/mol
# Density = 2.486112 g / cm^3
# Si number density = 24.917839 Si / 1000 Ang^3
#
#
#
# Elastic Constant Matrix: (Units=GPa)
#
#
# Indices 1 2 3 4 5 6 
#
# 1 190.7929 87.0003 43.2607 0.0000 0.0000 0.0000
# 2 87.0003 245.7430 54.3345 0.0000 0.0000 0.0000
# 3 43.2607 54.3345 68.3385 0.0000 0.0000 0.0000
# 4 0.0000 0.0000 0.0000 42.4696 0.0000 0.0000
# 5 0.0000 0.0000 0.0000 0.0000 29.2102 0.0000
# 6 0.0000 0.0000 0.0000 0.0000 0.0000 10.4356
#
#
#
# Elastic Compliance Matrix: (Units=1/GPa)
#
#
# Indices 1 2 3 4 5 6 
#
# 1 0.006678 -0.001734 -0.002848 0.000000 0.000000 0.000000
# 2 -0.001734 0.005388 -0.003186 0.000000 0.000000 0.000000
# 3 -0.002848 -0.003186 0.018969 0.000000 0.000000 0.000000
# 4 0.000000 0.000000 0.000000 0.023546 0.000000 0.000000
# 5 0.000000 0.000000 0.000000 0.000000 0.034235 0.000000
# 6 0.000000 0.000000 0.000000 0.000000 0.000000 0.095825
#
#
# Mechanical properties :
#
#
# Convention : Reuss Voigt Hill
#
# Bulk Modulus (GPa) = 64.52567 97.11837 80.82202
# Shear Modulus (GPa) = 24.34937 37.77502 31.06219
#
# Velocity S-wave (km/s) = 3.12939 3.89779 3.53453
# Velocity P-wave (km/s) = 6.24572 7.70176 7.01164
#
# Compressibility (1/GPa) = 0.01549771
#
# Stress axis : x y z
#
# Youngs Moduli (GPa) = 149.74485 185.60818 52.71745
#
# Poissons Ratio (x) = 0.32192 0.15016
# Poissons Ratio (y) = 0.25972 0.16794
# Poissons Ratio (z) = 0.42654 0.59129
#
# Static dielectric constant tensor:
#      x y z
#    x 1.881510 0.000000 0.000000 
#    y 0.000000 1.977900 0.000000 
#    z 0.000000 0.000000 2.217460 
# 
# From -- ./inp_files/17100.got.cif
#   From: 2010.05.17/outbox.cif.g08.bks.cpg/sg74_9_cif.got.tgz:17100.got - 2010.06.03 17:57:02.
