data_PCOD9534559
_publ_section_title
;
Structure prediction by ZEFSAII (Michael W. Deem and Ramdas Pophale) SiO2 
 PCOD9534559
Probable space group: I M M A
;
_chemical_formula_sum "Si O2"
_cell_formula_units_Z 96
_cell_length_a 7.416942
_cell_length_b 20.025927
_cell_length_c 30.330513
_cell_angle_alpha 90.000000
_cell_angle_beta 90.000000
_cell_angle_gamma 90.000000
_cell_volume 4505.025644
_symmetry_space_group_name_H-M "I M M A"
_symmetry_group_IT_number 74
_symmetry_cell_setting 'orthorhombic'
loop_
_space_group_symop_operation_xyz
x,y,z
-x,1/2-y,z
x,-y,-z
-x,1/2+y,-z
-x,-y,-z
x,1/2+y,-z
-x,y,z
x,1/2-y,z
1/2+x,1/2+y,1/2+z
1/2-x,-y,1/2+z
1/2+x,1/2-y,1/2-z
1/2-x,y,1/2-z
1/2-x,1/2-y,1/2-z
1/2+x,y,1/2-z
1/2-x,1/2+y,1/2+z
1/2+x,-y,1/2+z
loop_
_atom_site_type_symbol
_atom_site_label
_atom_site_fract_x
_atom_site_fract_y
_atom_site_fract_z
Si Si1 0.715846 0.326321 0.699655
Si Si2 0.218949 0.429453 0.977724
Si Si3 0.279588 0.826418 0.551754
Si Si4 0.704091 0.423774 0.372387
Si Si5 0.786308 0.177304 0.301755
Si Si6 0.279442 0.927362 0.376199
O O1 0.500000 0.323276 0.695041
O O2 0.784838 0.250000 0.695836
O O3 0.750000 0.349601 0.750000
O O4 0.782963 0.374885 0.660795
O O5 0.274805 0.417910 0.927224
O O6 0.000000 0.432371 0.977566
O O7 0.277931 0.500000 0.000000
O O8 0.271412 0.367202 0.008128
O O9 0.500000 0.823891 0.553426
O O10 0.217450 0.750000 0.553706
O O11 0.215180 0.872797 0.592101
O O12 0.500000 0.435902 0.388737
O O13 0.701301 0.383423 0.327337
O O14 0.781548 0.497013 0.366017
O O15 0.720064 0.250000 0.317893
O O16 0.750000 0.174022 0.250000
O O17 0.000000 0.174718 0.308760
O O18 0.500000 0.924430 0.374797
#
# Coordination Sequence:
#
# PCOD9534559 Si02
#       6
#    16  16  16  16  16  16
#     4   9  18  33  51  71  97 129 165 207 254 301
#     4   9  14  24  40  62  96 132 159 192 244 293
#     4   9  16  24  39  66  96 127 163 200 240 290
#     4  10  18  30  48  71 100 130 160 199 246 296
#     4  10  21  36  52  70  94 126 163 202 244 289
#     4   9  17  28  46  71  99 132 166 201 248 300
#
# _framework density 21.309535
#
# number of rings (size 3 to 8) (size 9 to 14) (size 15 to 20)
#    0.000    2.667    1.667    1.000    0.000    3.000 
#    0.000    5.833    0.000    0.000    0.000    3.500 
#    0.000    2.667    0.000    0.000    0.000    0.000 
#
# Total GULP energy -267828.617130 kJ/mol
# GULP energy per Si atom -5579.762857 kJ/mol
# Density = 2.126103 g / cm^3
# Si number density = 21.309535 Si / 1000 Ang^3
#
#
#
# Elastic Constant Matrix: (Units=GPa)
#
#
# Indices 1 2 3 4 5 6 
#
# 1 71.3551 7.0455 -1.4232 0.0000 0.0000 0.0000
# 2 7.0455 172.9830 108.0947 0.0000 0.0000 0.0000
# 3 -1.4232 108.0947 157.2604 0.0000 0.0000 0.0000
# 4 0.0000 0.0000 0.0000 44.5048 0.0000 0.0000
# 5 0.0000 0.0000 0.0000 0.0000 -0.9993 0.0000
# 6 0.0000 0.0000 0.0000 0.0000 0.0000 -9.3140
#
#
#
# Elastic Compliance Matrix: (Units=1/GPa)
#
#
# Indices 1 2 3 4 5 6 
#
# 1 0.014146 -0.001150 0.000919 0.000000 0.000000 0.000000
# 2 -0.001150 0.010227 -0.007040 0.000000 0.000000 0.000000
# 3 0.000919 -0.007040 0.011206 0.000000 0.000000 0.000000
# 4 0.000000 0.000000 0.000000 0.022469 0.000000 0.000000
# 5 0.000000 0.000000 0.000000 0.000000 -1.000679 0.000000
# 6 0.000000 0.000000 0.000000 0.000000 0.000000 -0.107365
#
#
# Mechanical properties :
#
#
# Convention : Reuss Voigt Hill
#
# Bulk Modulus (GPa) = 47.53689 69.89251 58.71470
# Shear Modulus (GPa) = -4.86173 26.03038 10.58432
#
# Velocity S-wave (km/s) = -1.51210 3.49884 2.23108
# Velocity P-wave (km/s) = 4.39405 7.01373 5.85235
#
# Compressibility (1/GPa) = 0.02103630
#
# Stress axis : x y z
#
# Youngs Moduli (GPa) = 70.68980 97.78040 89.23590
#
# Poissons Ratio (x) = 0.11247 -0.08198
# Poissons Ratio (y) = 0.08131 0.62823
# Poissons Ratio (z) = -0.06494 0.68838
#
# Static dielectric constant tensor:
#      x y z
#    x 1.879880 0.000000 0.000000 
#    y 0.000000 1.751670 0.000000 
#    z 0.000000 0.000000 1.746700 
# 
# From -- ./inp_files/64288.got.cif
#   From: 2010.05.17/outbox.cif.g08.bks.cpg/sg74_33_cif.got.tgz:64288.got - 2010.06.03 17:57:02.
