data_PCOD9534028
_publ_section_title
;
Structure prediction by ZEFSAII (Michael W. Deem and Ramdas Pophale) SiO2 
 PCOD9534028
Probable space group: I M M A
;
_chemical_formula_sum "Si O2"
_cell_formula_units_Z 96
_cell_length_a 16.984721
_cell_length_b 14.694455
_cell_length_c 27.474677
_cell_angle_alpha 90.000000
_cell_angle_beta 90.000000
_cell_angle_gamma 90.000000
_cell_volume 6857.163361
_symmetry_space_group_name_H-M "I M M A"
_symmetry_group_IT_number 74
_symmetry_cell_setting 'orthorhombic'
loop_
_space_group_symop_operation_xyz
x,y,z
-x,1/2-y,z
x,-y,-z
-x,1/2+y,-z
-x,-y,-z
x,1/2+y,-z
-x,y,z
x,1/2-y,z
1/2+x,1/2+y,1/2+z
1/2-x,-y,1/2+z
1/2+x,1/2-y,1/2-z
1/2-x,y,1/2-z
1/2-x,1/2-y,1/2-z
1/2+x,y,1/2-z
1/2-x,1/2+y,1/2+z
1/2+x,-y,1/2+z
loop_
_atom_site_type_symbol
_atom_site_label
_atom_site_fract_x
_atom_site_fract_y
_atom_site_fract_z
Si Si1 0.594776 0.451225 0.551154
Si Si2 0.404708 0.750000 0.421038
Si Si3 0.404232 0.250000 0.691933
Si Si4 0.593033 0.557062 0.265546
Si Si5 0.592932 0.250000 0.335225
Si Si6 0.807670 0.073760 0.295750
Si Si7 0.093191 0.250000 0.282397
Si Si8 0.341384 0.554965 0.643895
O O1 0.610583 0.500000 0.500000
O O2 0.500000 0.456124 0.559819
O O3 0.618008 0.344660 0.553464
O O4 0.637751 0.503841 0.594584
O O5 0.500000 0.750000 0.419979
O O6 0.378107 0.750000 0.364448
O O7 0.500000 0.250000 0.690619
O O8 0.380571 0.158235 0.719568
O O9 0.500000 0.556720 0.255574
O O10 0.641576 0.512275 0.221880
O O11 0.610251 0.494339 0.312646
O O12 0.500000 0.250000 0.345178
O O13 0.603142 0.250000 0.276518
O O14 0.631363 0.159317 0.356429
O O15 0.750000 0.096221 0.250000
O O16 0.864161 0.160000 0.302248
O O17 0.749715 0.052773 0.340109
O O18 0.000000 0.250000 0.292118
#
# Coordination Sequence:
#
# PCOD9534028 Si02
#       8
#    16   8   8  16   8  16   8  16
#     4  10  20  33  49  66  85 115 156 193 221 256
#     4   9  16  29  46  63  84 111 147 187 222 253
#     4   9  16  26  45  63  81 113 149 182 218 253
#     4  10  17  28  44  62  83 114 151 180 213 260
#     4  11  19  26  43  63  86 120 154 181 208 258
#     4  10  19  28  40  62  91 118 148 182 217 265
#     4  11  18  28  44  63  88 125 157 178 211 262
#     4  11  20  30  43  62  91 118 145 184 229 263
#
# _framework density 13.999957999999999
#
# number of rings (size 3 to 8) (size 9 to 14) (size 15 to 20)
#    0.000    1.833    5.000    2.750    0.000    0.667 
#    0.000    6.250    0.000    0.000    0.000    0.000 
#    0.000    2.667    0.000    2.167    0.000    0.000 
#
# Total GULP energy -267654.193641 kJ/mol
# GULP energy per Si atom -5576.129034 kJ/mol
# Density = 1.396809 g / cm^3
# Si number density = 13.999958 Si / 1000 Ang^3
#
#
#
# Elastic Constant Matrix: (Units=GPa)
#
#
# Indices 1 2 3 4 5 6 
#
# 1 65.8122 43.0038 37.4253 0.0000 0.0000 0.0000
# 2 43.0038 151.7654 54.4388 0.0000 0.0000 0.0000
# 3 37.4253 54.4388 73.7185 0.0000 0.0000 0.0000
# 4 0.0000 0.0000 0.0000 0.5305 0.0000 0.0000
# 5 0.0000 0.0000 0.0000 0.0000 -6.2352 0.0000
# 6 0.0000 0.0000 0.0000 0.0000 0.0000 -7.7177
#
#
#
# Elastic Compliance Matrix: (Units=1/GPa)
#
#
# Indices 1 2 3 4 5 6 
#
# 1 0.022374 -0.003082 -0.009083 0.000000 0.000000 0.000000
# 2 -0.003082 0.009388 -0.005368 0.000000 0.000000 0.000000
# 3 -0.009083 -0.005368 0.022141 0.000000 0.000000 0.000000
# 4 0.000000 0.000000 0.000000 1.884935 0.000000 0.000000
# 5 0.000000 0.000000 0.000000 0.000000 -0.160379 0.000000
# 6 0.000000 0.000000 0.000000 0.000000 0.000000 -0.129572
#
#
# Mechanical properties :
#
#
# Convention : Reuss Voigt Hill
#
# Bulk Modulus (GPa) = 53.08821 62.33686 57.71253
# Shear Modulus (GPa) = 2.95818 7.74406 5.35112
#
# Velocity S-wave (km/s) = 1.45519 2.35446 1.95718
# Velocity P-wave (km/s) = 6.38952 7.21210 6.81324
#
# Compressibility (1/GPa) = 0.01883658
#
# Stress axis : x y z
#
# Youngs Moduli (GPa) = 44.69570 106.51995 45.16604
#
# Poissons Ratio (x) = 0.32826 0.41024
# Poissons Ratio (y) = 0.13774 0.24246
# Poissons Ratio (z) = 0.40596 0.57182
#
# Static dielectric constant tensor:
#      x y z
#    x 1.455000 0.000000 0.000000 
#    y 0.000000 1.481240 0.000000 
#    z 0.000000 0.000000 1.433710 
# 
# From -- ./inp_files/72639.got.cif
#   From: 2010.05.17/outbox.cif.g08.bks.cpg/sg74_37_cif.got.tgz:72639.got - 2010.06.03 17:57:02.
