data_PCOD9534595
_publ_section_title
;
Structure prediction by ZEFSAII (Michael W. Deem and Ramdas Pophale) SiO2 
 PCOD9534595
Probable space group: I M M A
;
_chemical_formula_sum "Si O2"
_cell_formula_units_Z 80
_cell_length_a 17.356784
_cell_length_b 20.747773
_cell_length_c 13.105822
_cell_angle_alpha 90.000000
_cell_angle_beta 90.000000
_cell_angle_gamma 90.000000
_cell_volume 4719.598036
_symmetry_space_group_name_H-M "I M M A"
_symmetry_group_IT_number 74
_symmetry_cell_setting 'orthorhombic'
loop_
_space_group_symop_operation_xyz
x,y,z
-x,1/2-y,z
x,-y,-z
-x,1/2+y,-z
-x,-y,-z
x,1/2+y,-z
-x,y,z
x,1/2-y,z
1/2+x,1/2+y,1/2+z
1/2-x,-y,1/2+z
1/2+x,1/2-y,1/2-z
1/2-x,y,1/2-z
1/2-x,1/2-y,1/2-z
1/2+x,y,1/2-z
1/2-x,1/2+y,1/2+z
1/2+x,-y,1/2+z
loop_
_atom_site_type_symbol
_atom_site_label
_atom_site_fract_x
_atom_site_fract_y
_atom_site_fract_z
Si Si1 0.906069 0.823041 0.885037
Si Si2 0.906952 0.569116 0.046248
Si Si3 0.593434 0.903585 0.809253
Si Si4 0.589300 0.576063 0.030045
Si Si5 0.159149 0.454739 0.737228
O O1 0.879807 0.750000 0.900831
O O2 0.883766 0.851243 0.774606
O O3 0.000000 0.822751 0.886784
O O4 0.881292 0.873459 0.971819
O O5 0.876948 0.575010 0.160838
O O6 0.000000 0.568556 0.047992
O O7 0.881702 0.500000 0.000000
O O8 0.500000 0.908654 0.810133
O O9 0.625196 0.972995 0.774913
O O10 0.617093 0.889934 0.926136
O O11 0.500000 0.592920 0.049596
O O12 0.636490 0.582508 0.133677
O O13 0.590910 0.500000 0.000000
O O14 0.250000 0.458457 0.750000
#
# Coordination Sequence:
#
# PCOD9534595 Si02
#       5
#    16  16  16  16  16
#     4   9  17  30  52  79 101 125 161 203 250 302
#     4  10  18  30  50  74 102 132 162 202 252 299
#     4   9  16  31  50  69  97 129 161 201 251 296
#     4   8  15  28  46  65  90 125 160 195 242 294
#     4  11  20  28  44  73 102 132 162 207 246 287
#
# _framework density 16.950596999999998
#
# number of rings (size 3 to 8) (size 9 to 14) (size 15 to 20)
#    0.000    2.600    2.000    3.000    0.000    2.400 
#    0.000    0.000    0.000    2.400    0.000    5.600 
#    0.000    0.000    0.000    0.000    0.000    0.000 
#
# Total GULP energy -222885.601420 kJ/mol
# GULP energy per Si atom -5572.140036 kJ/mol
# Density = 1.691202 g / cm^3
# Si number density = 16.950597 Si / 1000 Ang^3
#
#
#
# Elastic Constant Matrix: (Units=GPa)
#
#
# Indices 1 2 3 4 5 6 
#
# 1 21.2410 15.3416 35.8785 0.0000 0.0000 0.0000
# 2 15.3416 93.3752 71.7748 0.0000 0.0000 0.0000
# 3 35.8785 71.7748 185.0123 0.0000 0.0000 0.0000
# 4 0.0000 0.0000 0.0000 19.1546 0.0000 0.0000
# 5 0.0000 0.0000 0.0000 0.0000 -5.8315 0.0000
# 6 0.0000 0.0000 0.0000 0.0000 0.0000 2.3779
#
#
#
# Elastic Compliance Matrix: (Units=1/GPa)
#
#
# Indices 1 2 3 4 5 6 
#
# 1 0.070164 -0.001523 -0.013016 0.000000 0.000000 0.000000
# 2 -0.001523 0.015293 -0.005638 0.000000 0.000000 0.000000
# 3 -0.013016 -0.005638 0.010116 0.000000 0.000000 0.000000
# 4 0.000000 0.000000 0.000000 0.052207 0.000000 0.000000
# 5 0.000000 0.000000 0.000000 0.000000 -0.171483 0.000000
# 6 0.000000 0.000000 0.000000 0.000000 0.000000 0.420542
#
#
# Mechanical properties :
#
#
# Convention : Reuss Voigt Hill
#
# Bulk Modulus (GPa) = 18.10926 60.62424 39.36675
# Shear Modulus (GPa) = 10.97456 14.91577 12.94516
#
# Velocity S-wave (km/s) = 2.54725 2.96962 2.76651
# Velocity P-wave (km/s) = 4.39978 6.89936 5.78615
#
# Compressibility (1/GPa) = 0.05522037
#
# Stress axis : x y z
#
# Youngs Moduli (GPa) = 14.25237 65.38872 98.85196
#
# Poissons Ratio (x) = 0.09961 1.28661
# Poissons Ratio (y) = 0.02171 0.55728
# Poissons Ratio (z) = 0.18550 0.36863
#
# Static dielectric constant tensor:
#      x y z
#    x 1.568170 0.000000 0.000000 
#    y 0.000000 1.557290 0.000000 
#    z 0.000000 0.000000 1.603480 
# 
# From -- ./inp_files/20530.got.cif
#   From: 2010.05.17/outbox.cif.g08.bks.cpg/sg74_11_cif.got.tgz:20530.got - 2010.06.03 17:57:02.
