data_PCOD9534845
_publ_section_title
;
Structure prediction by ZEFSAII (Michael W. Deem and Ramdas Pophale) SiO2 
 PCOD9534845
Probable space group: I M M A
;
_chemical_formula_sum "Si O2"
_cell_formula_units_Z 80
_cell_length_a 13.405555
_cell_length_b 24.748877
_cell_length_c 9.082727
_cell_angle_alpha 90.000000
_cell_angle_beta 90.000000
_cell_angle_gamma 90.000000
_cell_volume 3013.398424
_symmetry_space_group_name_H-M "I M M A"
_symmetry_group_IT_number 74
_symmetry_cell_setting 'orthorhombic'
loop_
_space_group_symop_operation_xyz
x,y,z
-x,1/2-y,z
x,-y,-z
-x,1/2+y,-z
-x,-y,-z
x,1/2+y,-z
-x,y,z
x,1/2-y,z
1/2+x,1/2+y,1/2+z
1/2-x,-y,1/2+z
1/2+x,1/2-y,1/2-z
1/2-x,y,1/2-z
1/2-x,1/2-y,1/2-z
1/2+x,y,1/2-z
1/2-x,1/2+y,1/2+z
1/2+x,-y,1/2+z
loop_
_atom_site_type_symbol
_atom_site_label
_atom_site_fract_x
_atom_site_fract_y
_atom_site_fract_z
Si Si1 0.185076 0.685754 0.006288
Si Si2 0.891852 0.435053 0.475327
Si Si3 0.887010 0.814678 0.336893
Si Si4 0.865685 0.035948 0.782202
Si Si5 0.341394 0.922412 0.602522
O O1 0.174942 0.750000 0.970682
O O2 0.134319 0.673616 0.164586
O O3 0.300613 0.670887 0.045483
O O4 0.143352 0.642256 0.887609
O O5 0.895683 0.500000 0.500000
O O6 0.897075 0.423437 0.652676
O O7 0.780825 0.426429 0.408319
O O8 0.000000 0.416189 0.415109
O O9 0.874750 0.750000 0.335258
O O10 0.000000 0.824495 0.381618
O O11 0.750000 0.034287 0.750000
O O12 0.881165 0.060609 0.941634
O O13 0.888205 0.971256 0.799407
#
# Coordination Sequence:
#
# PCOD9534845 Si02
#       5
#    16  16  16  16  16
#     4   9  18  29  44  68  97 131 171 208 245 304
#     4  10  19  32  52  77  98 123 167 210 249 302
#     4   8  15  28  43  63  96 132 164 206 252 291
#     4   9  17  33  49  69  94 133 160 198 252 303
#     4  10  18  32  51  69 100 136 164 194 257 304
#
# _framework density 26.548096999999999
#
# number of rings (size 3 to 8) (size 9 to 14) (size 15 to 20)
#    0.000    2.800    4.000    1.200    8.400    0.800 
#    0.000    3.000    0.000    0.600    0.000    0.000 
#    0.000    0.000    0.000    0.000    0.000    0.000 
#
# Total GULP energy -222683.103247 kJ/mol
# GULP energy per Si atom -5567.077581 kJ/mol
# Density = 2.648767 g / cm^3
# Si number density = 26.548097 Si / 1000 Ang^3
#
#
#
# Elastic Constant Matrix: (Units=GPa)
#
#
# Indices 1 2 3 4 5 6 
#
# 1 138.1781 11.4832 14.1398 -0.0001 0.0000 -0.0014
# 2 11.4832 153.7411 11.5881 0.0010 0.0000 0.0420
# 3 14.1398 11.5881 45.2312 0.0015 0.0002 0.0461
# 4 -0.0001 0.0010 0.0015 58.3551 0.0002 0.0546
# 5 0.0000 0.0000 0.0002 0.0002 24.9620 0.0168
# 6 -0.0014 0.0420 0.0461 0.0546 0.0168-2042.1452
#
#
#
# Elastic Compliance Matrix: (Units=1/GPa)
#
#
# Indices 1 2 3 4 5 6 
#
# 1 0.007499 -0.000391 -0.002244 0.000000 0.000000 0.000000
# 2 -0.000391 0.006653 -0.001582 0.000000 0.000000 0.000000
# 3 -0.002244 -0.001582 0.023216 -0.000001 0.000000 0.000000
# 4 0.000000 0.000000 -0.000001 0.017136 0.000000 0.000000
# 5 0.000000 0.000000 0.000000 0.000000 0.040061 0.000000
# 6 0.000000 0.000000 0.000000 0.000000 0.000000 -0.000490
#
#
# Mechanical properties :
#
#
# Convention : Reuss Voigt Hill
#
# Bulk Modulus (GPa) = 34.56274 45.73029 40.14652
# Shear Modulus (GPa) = 44.58140 -371.76969 -163.59414
#
# Velocity S-wave (km/s) = 4.10233 -11.84653 -7.85847
# Velocity P-wave (km/s) = 5.95702 13.03294 8.19669
#
# Compressibility (1/GPa) = 0.02893289
#
# Stress axis : x y z
#
# Youngs Moduli (GPa) = 133.34803 150.31030 43.07458
#
# Poissons Ratio (x) = 0.05877 0.09667
# Poissons Ratio (y) = 0.05214 0.06815
# Poissons Ratio (z) = 0.29925 0.23783
#
# Static dielectric constant tensor:
#      x y z
#    x 1.103820 0.000000 0.000000 
#    y 0.000000 2.323270 0.000000 
#    z 0.000000 0.000000 2.508390 
# 
# From -- ./inp_files/20778.got.cif
#   From: 2010.05.17/outbox.cif.g08.bks.cpg/sg74_11_cif.got.tgz:20778.got - 2010.06.03 17:57:02.
