data_PCOD9534014
_publ_section_title
;
Structure prediction by ZEFSAII (Michael W. Deem and Ramdas Pophale) SiO2 
 PCOD9534014
Probable space group: I M M A
;
_chemical_formula_sum "Si O2"
_cell_formula_units_Z 80
_cell_length_a 8.843560
_cell_length_b 17.435697
_cell_length_c 26.625566
_cell_angle_alpha 90.000000
_cell_angle_beta 90.000000
_cell_angle_gamma 90.000000
_cell_volume 4105.492741
_symmetry_space_group_name_H-M "I M M A"
_symmetry_group_IT_number 74
_symmetry_cell_setting 'orthorhombic'
loop_
_space_group_symop_operation_xyz
x,y,z
-x,1/2-y,z
x,-y,-z
-x,1/2+y,-z
-x,-y,-z
x,1/2+y,-z
-x,y,z
x,1/2-y,z
1/2+x,1/2+y,1/2+z
1/2-x,-y,1/2+z
1/2+x,1/2-y,1/2-z
1/2-x,y,1/2-z
1/2-x,1/2-y,1/2-z
1/2+x,y,1/2-z
1/2-x,1/2+y,1/2+z
1/2+x,-y,1/2+z
loop_
_atom_site_type_symbol
_atom_site_label
_atom_site_fract_x
_atom_site_fract_y
_atom_site_fract_z
Si Si1 0.680039 0.548000 0.699762
Si Si2 0.322637 0.557154 0.902631
Si Si3 0.677352 0.663051 0.515514
Si Si4 0.178676 0.373687 0.588388
Si Si5 0.681758 0.375984 0.800549
O O1 0.500000 0.543113 0.703909
O O2 0.750000 0.585043 0.750000
O O3 0.729762 0.582799 0.646586
O O4 0.752421 0.462520 0.698205
O O5 0.500000 0.568071 0.892820
O O6 0.270783 0.603728 0.951125
O O7 0.299659 0.466088 0.911234
O O8 0.500000 0.645295 0.519663
O O9 0.703226 0.750000 0.533395
O O10 0.727608 0.658376 0.457672
O O11 0.219254 0.344007 0.644222
O O12 0.000000 0.358659 0.580611
O O13 0.500000 0.378738 0.796680
O O14 0.750000 0.340028 0.750000
#
# Coordination Sequence:
#
# PCOD9534014 Si02
#       5
#    16  16  16  16  16
#     4  10  17  27  46  74 107 138 168 205 251 300
#     4  10  20  35  55  79 105 134 172 214 256 305
#     4  11  24  38  52  74 103 135 173 215 259 309
#     4   9  19  34  53  78 105 134 171 213 254 302
#     4   9  16  27  45  73 106 135 167 207 252 303
#
# _framework density 19.486090000000001
#
# number of rings (size 3 to 8) (size 9 to 14) (size 15 to 20)
#    0.000    2.200    0.000    6.600    0.000    8.800 
#    0.000    0.000    0.000    1.200    0.000    0.000 
#    0.000    0.000    0.000    0.000    0.000    0.000 
#
# Total GULP energy -223214.006847 kJ/mol
# GULP energy per Si atom -5580.350171 kJ/mol
# Density = 1.944174 g / cm^3
# Si number density = 19.486090 Si / 1000 Ang^3
#
#
#
# Elastic Constant Matrix: (Units=GPa)
#
#
# Indices 1 2 3 4 5 6 
#
# 1 69.2924 27.9475 38.2197 0.0000 0.0000 0.0000
# 2 27.9475 32.2282 26.0781 0.0000 0.0000 0.0000
# 3 38.2197 26.0781 119.3179 0.0000 0.0000 0.0000
# 4 0.0000 0.0000 0.0000 -22.1176 0.0000 0.0000
# 5 0.0000 0.0000 0.0000 0.0000 41.8015 0.0000
# 6 0.0000 0.0000 0.0000 0.0000 0.0000 -25.0776
#
#
#
# Elastic Compliance Matrix: (Units=1/GPa)
#
#
# Indices 1 2 3 4 5 6 
#
# 1 0.023487 -0.017347 -0.003732 0.000000 0.000000 0.000000
# 2 -0.017347 0.050508 -0.005482 0.000000 0.000000 0.000000
# 3 -0.003732 -0.005482 0.010775 0.000000 0.000000 0.000000
# 4 0.000000 0.000000 0.000000 -0.045213 0.000000 0.000000
# 5 0.000000 0.000000 0.000000 0.000000 0.023923 0.000000
# 6 0.000000 0.000000 0.000000 0.000000 0.000000 -0.039876
#
#
# Mechanical properties :
#
#
# Convention : Reuss Voigt Hill
#
# Bulk Modulus (GPa) = 31.59927 45.03655 38.31791
# Shear Modulus (GPa) = 57.29048 7.49414 32.39231
#
# Velocity S-wave (km/s) = 5.42812 1.96322 4.08159
# Velocity P-wave (km/s) = 7.45235 5.31990 6.47452
#
# Compressibility (1/GPa) = 0.03164630
#
# Stress axis : x y z
#
# Youngs Moduli (GPa) = 42.57747 19.79880 92.81135
#
# Poissons Ratio (x) = 0.34346 0.34635
# Poissons Ratio (y) = 0.73861 0.50882
# Poissons Ratio (z) = 0.15889 0.10854
#
# Static dielectric constant tensor:
#      x y z
#    x 1.643040 0.000000 0.000000 
#    y 0.000000 1.670250 0.000000 
#    z 0.000000 0.000000 1.732950 
# 
# From -- ./inp_files/63898.got.cif
#   From: 2010.05.17/outbox.cif.g08.bks.cpg/sg74_32_cif.got.tgz:63898.got - 2010.06.03 17:57:02.
