data_PCOD9534732
_publ_section_title
;
Structure prediction by ZEFSAII (Michael W. Deem and Ramdas Pophale) SiO2 
 PCOD9534732
Probable space group: I M M A
;
_chemical_formula_sum "Si O2"
_cell_formula_units_Z 96
_cell_length_a 18.187684
_cell_length_b 26.050263
_cell_length_c 12.342642
_cell_angle_alpha 90.000000
_cell_angle_beta 90.000000
_cell_angle_gamma 90.000000
_cell_volume 5847.869126
_symmetry_space_group_name_H-M "I M M A"
_symmetry_group_IT_number 74
_symmetry_cell_setting 'orthorhombic'
loop_
_space_group_symop_operation_xyz
x,y,z
-x,1/2-y,z
x,-y,-z
-x,1/2+y,-z
-x,-y,-z
x,1/2+y,-z
-x,y,z
x,1/2-y,z
1/2+x,1/2+y,1/2+z
1/2-x,-y,1/2+z
1/2+x,1/2-y,1/2-z
1/2-x,y,1/2-z
1/2-x,1/2-y,1/2-z
1/2+x,y,1/2-z
1/2-x,1/2+y,1/2+z
1/2+x,-y,1/2+z
loop_
_atom_site_type_symbol
_atom_site_label
_atom_site_fract_x
_atom_site_fract_y
_atom_site_fract_z
Si Si1 0.081765 0.132972 0.636651
Si Si2 0.167475 0.452734 0.224714
Si Si3 0.913014 0.943647 0.160331
Si Si4 0.729828 0.689946 0.125390
Si Si5 0.202432 0.400499 0.008078
Si Si6 0.362657 0.557484 0.967714
O O1 0.098229 0.094551 0.737271
O O2 0.144066 0.175289 0.620840
O O3 0.087466 0.097041 0.531636
O O4 0.000000 0.153786 0.651892
O O5 0.250000 0.473240 0.250000
O O6 0.117527 0.499704 0.185562
O O7 0.178785 0.409381 0.132858
O O8 0.136416 0.434036 0.339332
O O9 0.000000 0.945085 0.136963
O O10 0.863609 0.922211 0.063481
O O11 0.742969 0.750000 0.107436
O O12 0.750000 0.677046 0.250000
O O13 0.774420 0.654817 0.040012
O O14 0.277950 0.433113 0.994661
O O15 0.383567 0.500000 0.000000
#
# Coordination Sequence:
#
# PCOD9534732 Si02
#       6
#    16  16  16  16  16  16
#     4  10  21  33  51  78 110 137 166 217 267 312
#     4  10  20  32  50  74 107 146 180 209 252 303
#     4  11  21  32  48  76 111 144 171 205 260 320
#     4  10  20  36  59  79  98 133 180 226 275 321
#     4  10  20  33  51  74 105 134 177 222 259 313
#     4  10  18  31  51  73 103 146 179 209 246 305
#
# _framework density 16.416236000000001
#
# number of rings (size 3 to 8) (size 9 to 14) (size 15 to 20)
#    0.000    1.833    3.333    2.500    2.333    2.667 
#    0.000    0.000    0.000   13.000    0.000    0.000 
#    0.000    0.000    0.000    0.000    0.000    0.000 
#
# Total GULP energy -267617.961490 kJ/mol
# GULP energy per Si atom -5575.374198 kJ/mol
# Density = 1.637887 g / cm^3
# Si number density = 16.416236 Si / 1000 Ang^3
#
#
#
# Elastic Constant Matrix: (Units=GPa)
#
#
# Indices 1 2 3 4 5 6 
#
# 1 76.0780 29.0807 42.0260 0.0000 0.0000 0.0000
# 2 29.0807 54.0289 30.5157 0.0000 0.0000 0.0000
# 3 42.0260 30.5157 100.6764 0.0000 0.0000 0.0000
# 4 0.0000 0.0000 0.0000 14.1653 0.0000 0.0000
# 5 0.0000 0.0000 0.0000 0.0000 9.0420 0.0000
# 6 0.0000 0.0000 0.0000 0.0000 0.0000 12.2165
#
#
#
# Elastic Compliance Matrix: (Units=1/GPa)
#
#
# Indices 1 2 3 4 5 6 
#
# 1 0.019022 -0.006942 -0.005836 0.000000 0.000000 0.000000
# 2 -0.006942 0.024865 -0.004639 0.000000 0.000000 0.000000
# 3 -0.005836 -0.004639 0.013775 0.000000 0.000000 0.000000
# 4 0.000000 0.000000 0.000000 0.070595 0.000000 0.000000
# 5 0.000000 0.000000 0.000000 0.000000 0.110595 0.000000
# 6 0.000000 0.000000 0.000000 0.000000 0.000000 0.081856
#
#
# Mechanical properties :
#
#
# Convention : Reuss Voigt Hill
#
# Bulk Modulus (GPa) = 43.80630 48.22537 46.01584
# Shear Modulus (GPa) = 13.76831 15.69549 14.73190
#
# Velocity S-wave (km/s) = 2.89918 3.09543 2.99891
# Velocity P-wave (km/s) = 6.16033 6.49739 6.33110
#
# Compressibility (1/GPa) = 0.02282777
#
# Stress axis : x y z
#
# Youngs Moduli (GPa) = 52.57065 40.21674 72.59436
#
# Poissons Ratio (x) = 0.27919 0.42368
# Poissons Ratio (y) = 0.36495 0.33676
# Poissons Ratio (z) = 0.30682 0.18656
#
# Static dielectric constant tensor:
#      x y z
#    x 1.568460 0.000000 0.000000 
#    y 0.000000 1.522820 0.000000 
#    z 0.000000 0.000000 1.575160 
# 
# From -- ./inp_files/22437.got.cif
#   From: 2010.05.17/outbox.cif.g08.bks.cpg/sg74_12_cif.got.tgz:22437.got - 2010.06.03 17:57:02.
