data_PCOD9534410
_publ_section_title
;
Structure prediction by ZEFSAII (Michael W. Deem and Ramdas Pophale) SiO2 
 PCOD9534410
Probable space group: I M M A
;
_chemical_formula_sum "Si O2"
_cell_formula_units_Z 80
_cell_length_a 27.995330
_cell_length_b 16.889894
_cell_length_c 7.260528
_cell_angle_alpha 90.000000
_cell_angle_beta 90.000000
_cell_angle_gamma 90.000000
_cell_volume 3433.054673
_symmetry_space_group_name_H-M "I M M A"
_symmetry_group_IT_number 74
_symmetry_cell_setting 'orthorhombic'
loop_
_space_group_symop_operation_xyz
x,y,z
-x,1/2-y,z
x,-y,-z
-x,1/2+y,-z
-x,-y,-z
x,1/2+y,-z
-x,y,z
x,1/2-y,z
1/2+x,1/2+y,1/2+z
1/2-x,-y,1/2+z
1/2+x,1/2-y,1/2-z
1/2-x,y,1/2-z
1/2-x,1/2-y,1/2-z
1/2+x,y,1/2-z
1/2-x,1/2+y,1/2+z
1/2+x,-y,1/2+z
loop_
_atom_site_type_symbol
_atom_site_label
_atom_site_fract_x
_atom_site_fract_y
_atom_site_fract_z
Si Si1 0.000000 0.093534 0.033762
Si Si2 0.900425 0.843896 0.946573
Si Si3 0.801157 0.093146 0.031216
Si Si4 0.298021 0.656339 0.949684
Si Si5 0.396949 0.405866 0.028579
Si Si6 0.500000 0.095161 0.027604
O O1 0.950068 0.128767 0.963251
O O2 0.000000 0.110525 0.253201
O O3 0.000000 0.000000 0.000000
O O4 0.900590 0.750000 0.919706
O O5 0.850720 0.869652 0.039017
O O6 0.899238 0.886432 0.746669
O O7 0.751090 0.127776 0.958955
O O8 0.799834 0.114658 0.248993
O O9 0.802220 0.000000 0.000000
O O10 0.296061 0.750000 0.921781
O O11 0.348207 0.633231 0.041414
O O12 0.448559 0.376486 0.955735
O O13 0.393730 0.500000 0.000000
O O14 0.500000 0.000000 0.000000
#
# Coordination Sequence:
#
# PCOD9534410 Si02
#       6
#     8  16  16  16  16   8
#     4  10  19  31  50  79 103 128 169 216 250 289
#     4  10  19  32  49  74 101 130 166 208 248 294
#     4  10  18  29  47  71  94 122 158 200 243 291
#     4  10  19  32  48  72  97 121 157 204 247 292
#     4   9  16  28  47  72  98 126 162 206 246 289
#     4   8  16  29  46  71 100 128 159 200 245 291
#
# _framework density 23.302862999999999
#
# number of rings (size 3 to 8) (size 9 to 14) (size 15 to 20)
#    0.000    2.400    0.000    5.700    0.000    0.000 
#    0.000    1.500    0.000    0.000    0.000  224.000 
#    0.000    0.000    0.000    0.000    0.000    0.000 
#
# Total GULP energy -223317.710187 kJ/mol
# GULP energy per Si atom -5582.942755 kJ/mol
# Density = 2.324982 g / cm^3
# Si number density = 23.302863 Si / 1000 Ang^3
#
#
#
# Elastic Constant Matrix: (Units=GPa)
#
#
# Indices 1 2 3 4 5 6 
#
# 1 318.3401 71.7146 23.7669 0.0000 0.0000 0.0000
# 2 71.7146 171.6027 23.4293 0.0000 0.0000 0.0000
# 3 23.7669 23.4293 105.5901 0.0000 0.0000 0.0000
# 4 0.0000 0.0000 0.0000 28.9567 0.0000 0.0000
# 5 0.0000 0.0000 0.0000 0.0000 -25.2697 0.0000
# 6 0.0000 0.0000 0.0000 0.0000 0.0000 49.4620
#
#
#
# Elastic Compliance Matrix: (Units=1/GPa)
#
#
# Indices 1 2 3 4 5 6 
#
# 1 0.003491 -0.001394 -0.000476 0.000000 0.000000 0.000000
# 2 -0.001394 0.006566 -0.001143 0.000000 0.000000 0.000000
# 3 -0.000476 -0.001143 0.009831 0.000000 0.000000 0.000000
# 4 0.000000 0.000000 0.000000 0.034534 0.000000 0.000000
# 5 0.000000 0.000000 0.000000 0.000000 -0.039573 0.000000
# 6 0.000000 0.000000 0.000000 0.000000 0.000000 0.020218
#
#
# Mechanical properties :
#
#
# Convention : Reuss Voigt Hill
#
# Bulk Modulus (GPa) = 72.14287 92.59494 82.36890
# Shear Modulus (GPa) = 109.37449 42.40462 75.88955
#
# Velocity S-wave (km/s) = 6.85842 4.27044 5.71291
# Velocity P-wave (km/s) = 9.68211 8.00857 8.88483
#
# Compressibility (1/GPa) = 0.01386138
#
# Stress axis : x y z
#
# Youngs Moduli (GPa) = 286.46220 152.30003 101.71392
#
# Poissons Ratio (x) = 0.21228 0.04846
# Poissons Ratio (y) = 0.39928 0.11628
# Poissons Ratio (z) = 0.13649 0.17411
#
# Static dielectric constant tensor:
#      x y z
#    x 2.010240 0.000000 0.000000 
#    y 0.000000 1.762280 0.000000 
#    z 0.000000 0.000000 1.827000 
# 
# From -- ./inp_files/16051.got.cif
#   From: 2010.05.17/outbox.cif.g08.bks.cpg/sg74_9_cif.got.tgz:16051.got - 2010.06.03 17:57:02.
