data_PCOD9534678
_publ_section_title
;
Structure prediction by ZEFSAII (Michael W. Deem and Ramdas Pophale) SiO2 
 PCOD9534678
Probable space group: I M M A
;
_chemical_formula_sum "Si O2"
_cell_formula_units_Z 96
_cell_length_a 9.165584
_cell_length_b 26.141245
_cell_length_c 29.516702
_cell_angle_alpha 90.000000
_cell_angle_beta 90.000000
_cell_angle_gamma 90.000000
_cell_volume 7072.195214
_symmetry_space_group_name_H-M "I M M A"
_symmetry_group_IT_number 74
_symmetry_cell_setting 'orthorhombic'
loop_
_space_group_symop_operation_xyz
x,y,z
-x,1/2-y,z
x,-y,-z
-x,1/2+y,-z
-x,-y,-z
x,1/2+y,-z
-x,y,z
x,1/2-y,z
1/2+x,1/2+y,1/2+z
1/2-x,-y,1/2+z
1/2+x,1/2-y,1/2-z
1/2-x,y,1/2-z
1/2-x,1/2-y,1/2-z
1/2+x,y,1/2-z
1/2-x,1/2+y,1/2+z
1/2+x,-y,1/2+z
loop_
_atom_site_type_symbol
_atom_site_label
_atom_site_fract_x
_atom_site_fract_y
_atom_site_fract_z
Si Si1 0.668020 0.053692 0.972169
Si Si2 0.172430 0.106888 0.051476
Si Si3 0.326225 0.843096 0.703017
Si Si4 0.828145 0.309149 0.388124
Si Si5 0.673324 0.465604 0.296268
Si Si6 0.326831 0.000377 0.393842
O O1 0.500000 0.069485 0.967675
O O2 0.740885 0.040115 0.924296
O O3 0.759106 0.092743 0.002958
O O4 0.670412 0.000000 0.000000
O O5 0.254603 0.153013 0.075944
O O6 0.190842 0.056181 0.082776
O O7 0.000000 0.116857 0.048145
O O8 0.500000 0.833678 0.704268
O O9 0.250000 0.827298 0.750000
O O10 0.251958 0.817258 0.659882
O O11 0.303118 0.904481 0.698023
O O12 0.813737 0.250000 0.401721
O O13 0.000000 0.321107 0.383237
O O14 0.500000 0.472800 0.292154
O O15 0.750000 0.481822 0.250000
O O16 0.722692 0.493813 0.341969
O O17 0.500000 0.989177 0.394937
#
# Coordination Sequence:
#
# PCOD9534678 Si02
#       6
#    16  16  16  16  16  16
#     4   9  17  27  41  64  85 103 129 160 200 245
#     4  10  18  31  47  61  80 105 132 167 209 250
#     4  10  19  33  48  62  77 101 135 174 218 259
#     4  11  23  35  46  61  80 104 135 174 218 259
#     4   9  17  28  41  60  82 106 136 168 205 246
#     4   9  16  28  43  61  83 106 133 165 202 245
#
# _framework density 13.574286000000001
#
# number of rings (size 3 to 8) (size 9 to 14) (size 15 to 20)
#    0.000    2.333    1.667    2.000    0.000    5.667 
#    0.000    0.000    0.000    0.000    0.000    0.000 
#    0.000    0.000    0.000    0.000    0.000    0.833 
#
# Total GULP energy -267656.062354 kJ/mol
# GULP energy per Si atom -5576.167966 kJ/mol
# Density = 1.354339 g / cm^3
# Si number density = 13.574286 Si / 1000 Ang^3
#
#
#
# Elastic Constant Matrix: (Units=GPa)
#
#
# Indices 1 2 3 4 5 6 
#
# 1 87.6888 42.9457 59.7379 0.0000 0.0000 0.0000
# 2 42.9457 40.3748 39.9934 0.0000 0.0000 0.0000
# 3 59.7379 39.9934 99.5255 0.0000 0.0000 0.0000
# 4 0.0000 0.0000 0.0000 9.3648 0.0000 0.0000
# 5 0.0000 0.0000 0.0000 0.0000 27.3323 0.0000
# 6 0.0000 0.0000 0.0000 0.0000 0.0000 16.2778
#
#
#
# Elastic Compliance Matrix: (Units=1/GPa)
#
#
# Indices 1 2 3 4 5 6 
#
# 1 0.026975 -0.021022 -0.007743 0.000000 0.000000 0.000000
# 2 -0.021022 0.057529 -0.010499 0.000000 0.000000 0.000000
# 3 -0.007743 -0.010499 0.018915 0.000000 0.000000 0.000000
# 4 0.000000 0.000000 0.000000 0.106783 0.000000 0.000000
# 5 0.000000 0.000000 0.000000 0.000000 0.036587 0.000000
# 6 0.000000 0.000000 0.000000 0.000000 0.000000 0.061433
#
#
# Mechanical properties :
#
#
# Convention : Reuss Voigt Hill
#
# Bulk Modulus (GPa) = 40.17955 56.99367 48.58661
# Shear Modulus (GPa) = 12.65673 16.25578 14.45625
#
# Velocity S-wave (km/s) = 3.05684 3.46431 3.26693
# Velocity P-wave (km/s) = 6.49023 7.62099 7.07823
#
# Compressibility (1/GPa) = 0.02488829
#
# Stress axis : x y z
#
# Youngs Moduli (GPa) = 37.07169 17.38263 52.86917
#
# Poissons Ratio (x) = 0.36542 0.40939
# Poissons Ratio (y) = 0.77932 0.55509
# Poissons Ratio (z) = 0.28706 0.18251
#
# Static dielectric constant tensor:
#      x y z
#    x 1.452070 0.000000 0.000000 
#    y 0.000000 1.418080 0.000000 
#    z 0.000000 0.000000 1.441090 
# 
# From -- ./inp_files/64677.got.cif
#   From: 2010.05.17/outbox.cif.g08.bks.cpg/sg74_33_cif.got.tgz:64677.got - 2010.06.03 17:57:02.
