data_PCOD9534884
_publ_section_title
;
Structure prediction by ZEFSAII (Michael W. Deem and Ramdas Pophale) SiO2 
 PCOD9534884
Probable space group: I M M A
;
_chemical_formula_sum "Si O2"
_cell_formula_units_Z 88
_cell_length_a 22.712137
_cell_length_b 8.785160
_cell_length_c 25.462477
_cell_angle_alpha 90.000000
_cell_angle_beta 90.000000
_cell_angle_gamma 90.000000
_cell_volume 5080.521861
_symmetry_space_group_name_H-M "I M M A"
_symmetry_group_IT_number 74
_symmetry_cell_setting 'orthorhombic'
loop_
_space_group_symop_operation_xyz
x,y,z
-x,1/2-y,z
x,-y,-z
-x,1/2+y,-z
-x,-y,-z
x,1/2+y,-z
-x,y,z
x,1/2-y,z
1/2+x,1/2+y,1/2+z
1/2-x,-y,1/2+z
1/2+x,1/2-y,1/2-z
1/2-x,y,1/2-z
1/2-x,1/2-y,1/2-z
1/2+x,y,1/2-z
1/2-x,1/2+y,1/2+z
1/2+x,-y,1/2+z
loop_
_atom_site_type_symbol
_atom_site_label
_atom_site_fract_x
_atom_site_fract_y
_atom_site_fract_z
Si Si1 0.290787 0.072056 0.632947
Si Si2 0.000000 0.431413 0.940723
Si Si3 0.381684 0.429449 0.442297
Si Si4 0.320007 0.077570 0.262830
Si Si5 0.568205 0.066482 0.056952
Si Si6 0.338199 0.433861 0.146666
O O1 0.294316 0.250000 0.620847
O O2 0.324800 0.972643 0.590502
O O3 0.322335 0.035743 0.688538
O O4 0.223160 0.017932 0.635269
O O5 0.939675 0.494113 0.916820
O O6 0.000000 0.250000 0.942874
O O7 0.000000 0.500000 0.000000
O O8 0.375064 0.500000 0.500000
O O9 0.390550 0.250000 0.446237
O O10 0.337547 0.250000 0.278315
O O11 0.250000 0.083888 0.250000
O O12 0.351620 0.034970 0.208281
O O13 0.500000 0.020638 0.066825
O O14 0.569602 0.250000 0.053488
O O15 0.611896 0.023049 0.104475
O O16 0.585654 0.000000 0.000000
O O17 0.329088 0.250000 0.143550
#
# Coordination Sequence:
#
# PCOD9534884 Si02
#       6
#    16   8  16  16  16  16
#     4  11  21  32  49  76 105 134 168 212 262 310
#     4  10  18  32  52  74  98 128 166 202 239 288
#     4  11  21  35  53  74 101 134 172 209 251 301
#     4   8  15  30  50  70  95 130 167 206 252 304
#     4   9  18  33  53  76 102 134 172 211 256 309
#     4   9  18  33  52  73 100 135 171 212 260 310
#
# _framework density 17.321055000000001
#
# number of rings (size 3 to 8) (size 9 to 14) (size 15 to 20)
#    0.000    2.364    0.000    6.273    0.000    4.727 
#    0.000    1.818    2.000    0.000    0.000    0.000 
#    0.000    0.000    0.000    0.000    0.000    0.000 
#
# Total GULP energy -245198.837965 kJ/mol
# GULP energy per Si atom -5572.700863 kJ/mol
# Density = 1.728163 g / cm^3
# Si number density = 17.321055 Si / 1000 Ang^3
#
#
#
# Elastic Constant Matrix: (Units=GPa)
#
#
# Indices 1 2 3 4 5 6 
#
# 1 60.0537 23.7917 43.4895 0.0000 0.0000 0.0000
# 2 23.7917 90.1494 23.4114 0.0000 0.0000 0.0000
# 3 43.4895 23.4114 89.2962 0.0000 0.0000 0.0000
# 4 0.0000 0.0000 0.0000 26.9140 0.0000 0.0000
# 5 0.0000 0.0000 0.0000 0.0000 16.7518 0.0000
# 6 0.0000 0.0000 0.0000 0.0000 0.0000 14.6938
#
#
#
# Elastic Compliance Matrix: (Units=1/GPa)
#
#
# Indices 1 2 3 4 5 6 
#
# 1 0.026993 -0.003981 -0.012103 0.000000 0.000000 0.000000
# 2 -0.003981 0.012490 -0.001336 0.000000 0.000000 0.000000
# 3 -0.012103 -0.001336 0.017443 0.000000 0.000000 0.000000
# 4 0.000000 0.000000 0.000000 0.037155 0.000000 0.000000
# 5 0.000000 0.000000 0.000000 0.000000 0.059695 0.000000
# 6 0.000000 0.000000 0.000000 0.000000 0.000000 0.068056
#
#
# Mechanical properties :
#
#
# Convention : Reuss Voigt Hill
#
# Bulk Modulus (GPa) = 45.27375 46.76497 46.01936
# Shear Modulus (GPa) = 18.93689 21.59237 20.26463
#
# Velocity S-wave (km/s) = 3.31008 3.53455 3.42415
# Velocity P-wave (km/s) = 6.38776 6.61172 6.50071
#
# Compressibility (1/GPa) = 0.02208786
#
# Stress axis : x y z
#
# Youngs Moduli (GPa) = 37.04596 80.06260 57.32864
#
# Poissons Ratio (x) = 0.31872 0.69384
# Poissons Ratio (y) = 0.14748 0.07658
# Poissons Ratio (z) = 0.44836 0.10695
#
# Static dielectric constant tensor:
#      x y z
#    x 1.610610 0.000000 0.000000 
#    y 0.000000 1.593440 0.000000 
#    z 0.000000 0.000000 1.610300 
# 
# From -- ./inp_files/68109.got.cif
#   From: 2010.05.17/outbox.cif.g08.bks.cpg/sg74_35_cif.got.tgz:68109.got - 2010.06.03 17:57:02.
