data_PCOD9534350
_publ_section_title
;
Structure prediction by ZEFSAII (Michael W. Deem and Ramdas Pophale) SiO2 
 PCOD9534350
Probable space group: I M M A
;
_chemical_formula_sum "Si O2"
_cell_formula_units_Z 80
_cell_length_a 19.282583
_cell_length_b 11.289812
_cell_length_c 19.352500
_cell_angle_alpha 90.000000
_cell_angle_beta 90.000000
_cell_angle_gamma 90.000000
_cell_volume 4212.976102
_symmetry_space_group_name_H-M "I M M A"
_symmetry_group_IT_number 74
_symmetry_cell_setting 'orthorhombic'
loop_
_space_group_symop_operation_xyz
x,y,z
-x,1/2-y,z
x,-y,-z
-x,1/2+y,-z
-x,-y,-z
x,1/2+y,-z
-x,y,z
x,1/2-y,z
1/2+x,1/2+y,1/2+z
1/2-x,-y,1/2+z
1/2+x,1/2-y,1/2-z
1/2-x,y,1/2-z
1/2-x,1/2-y,1/2-z
1/2+x,y,1/2-z
1/2-x,1/2+y,1/2+z
1/2+x,-y,1/2+z
loop_
_atom_site_type_symbol
_atom_site_label
_atom_site_fract_x
_atom_site_fract_y
_atom_site_fract_z
Si Si1 0.274817 0.515907 0.328819
Si Si2 0.763554 0.619985 0.469530
Si Si3 0.229708 0.250000 0.330756
Si Si4 0.577304 0.050065 0.326582
Si Si5 0.603725 0.873897 0.522398
Si Si6 0.078178 0.750000 0.710003
O O1 0.250000 0.528915 0.250000
O O2 0.242159 0.598557 0.387233
O O3 0.259365 0.378418 0.352801
O O4 0.357365 0.536176 0.327841
O O5 0.796994 0.500000 0.500000
O O6 0.793944 0.750000 0.485196
O O7 0.684955 0.622928 0.500577
O O8 0.250000 0.250000 0.250000
O O9 0.146332 0.250000 0.337347
O O10 0.500000 0.999194 0.326835
O O11 0.588664 0.124981 0.396210
O O12 0.583880 0.136434 0.260675
O O13 0.577017 0.750000 0.493002
O O14 0.574957 0.000000 0.500000
O O15 0.000000 0.750000 0.679922
#
# Coordination Sequence:
#
# PCOD9534350 Si02
#       6
#    16  16   8  16  16   8
#     4  11  20  33  51  75 108 147 187 229 280 324
#     4  10  21  35  54  76 107 148 187 233 276 323
#     4  10  18  28  50  76 106 138 184 223 282 316
#     4  11  19  30  47  74 107 145 184 224 265 315
#     4  10  19  31  47  66  97 135 180 218 255 296
#     4  10  18  30  48  76 110 140 184 227 271 322
#
# _framework density 18.988952000000001
#
# number of rings (size 3 to 8) (size 9 to 14) (size 15 to 20)
#    0.000    1.600    9.000    0.000    1.400    0.800 
#    0.000    0.000    0.000    0.600    0.000    0.000 
#    0.000    4.000    0.000    0.000    0.000    0.800 
#
# Total GULP energy -222705.974639 kJ/mol
# GULP energy per Si atom -5567.649366 kJ/mol
# Density = 1.894573 g / cm^3
# Si number density = 18.988952 Si / 1000 Ang^3
#
#
#
# Elastic Constant Matrix: (Units=GPa)
#
#
# Indices 1 2 3 4 5 6 
#
# 1 76.6682 8.3266 16.9405 0.0000 0.0000 0.0000
# 2 8.3266 127.3278 21.3078 0.0000 0.0000 0.0000
# 3 16.9405 21.3078 71.3693 0.0000 0.0000 0.0000
# 4 0.0000 0.0000 0.0000 20.8639 0.0000 0.0000
# 5 0.0000 0.0000 0.0000 0.0000 13.4421 0.0000
# 6 0.0000 0.0000 0.0000 0.0000 0.0000 -18.6899
#
#
#
# Elastic Compliance Matrix: (Units=1/GPa)
#
#
# Indices 1 2 3 4 5 6 
#
# 1 0.013782 -0.000372 -0.003160 0.000000 0.000000 0.000000
# 2 -0.000372 0.008277 -0.002383 0.000000 0.000000 0.000000
# 3 -0.003160 -0.002383 0.015473 0.000000 0.000000 0.000000
# 4 0.000000 0.000000 0.000000 0.047930 0.000000 0.000000
# 5 0.000000 0.000000 0.000000 0.000000 0.074393 0.000000
# 6 0.000000 0.000000 0.000000 0.000000 0.000000 -0.053505
#
#
# Mechanical properties :
#
#
# Convention : Reuss Voigt Hill
#
# Bulk Modulus (GPa) = 38.90855 40.94615 39.92735
# Shear Modulus (GPa) = 39.44856 18.37592 28.91224
#
# Velocity S-wave (km/s) = 4.56285 3.11419 3.90626
# Velocity P-wave (km/s) = 6.94939 5.87715 6.43564
#
# Compressibility (1/GPa) = 0.02570129
#
# Stress axis : x y z
#
# Youngs Moduli (GPa) = 72.55883 120.81914 64.62826
#
# Poissons Ratio (x) = 0.04500 0.20423
# Poissons Ratio (y) = 0.02702 0.15399
# Poissons Ratio (z) = 0.22930 0.28788
#
# Static dielectric constant tensor:
#      x y z
#    x 1.678550 0.000000 0.000000 
#    y 0.000000 1.998260 0.000000 
#    z 0.000000 0.000000 1.691950 
# 
# From -- ./inp_files/52796.got.cif
#   From: 2010.05.17/outbox.cif.g08.bks.cpg/sg74_27_cif.got.tgz:52796.got - 2010.06.03 17:57:02.
