data_PCOD9534011
_publ_section_title
;
Structure prediction by ZEFSAII (Michael W. Deem and Ramdas Pophale) SiO2 
 PCOD9534011
Probable space group: I M M A
;
_chemical_formula_sum "Si O2"
_cell_formula_units_Z 128
_cell_length_a 22.398419
_cell_length_b 28.707745
_cell_length_c 12.740087
_cell_angle_alpha 90.000000
_cell_angle_beta 90.000000
_cell_angle_gamma 90.000000
_cell_volume 8191.979149
_symmetry_space_group_name_H-M "I M M A"
_symmetry_group_IT_number 74
_symmetry_cell_setting 'orthorhombic'
loop_
_space_group_symop_operation_xyz
x,y,z
-x,1/2-y,z
x,-y,-z
-x,1/2+y,-z
-x,-y,-z
x,1/2+y,-z
-x,y,z
x,1/2-y,z
1/2+x,1/2+y,1/2+z
1/2-x,-y,1/2+z
1/2+x,1/2-y,1/2-z
1/2-x,y,1/2-z
1/2-x,1/2-y,1/2-z
1/2+x,y,1/2-z
1/2-x,1/2+y,1/2+z
1/2+x,-y,1/2+z
loop_
_atom_site_type_symbol
_atom_site_label
_atom_site_fract_x
_atom_site_fract_y
_atom_site_fract_z
Si Si1 0.070919 0.064182 0.309391
Si Si2 0.070490 0.613896 0.464886
Si Si3 0.072129 0.543086 0.284658
Si Si4 0.772747 0.303742 0.129801
Si Si5 0.856715 0.303839 0.452427
Si Si6 0.064479 0.803682 0.751004
Si Si7 0.928121 0.447815 0.956529
Si Si8 0.379408 0.376413 0.377287
O O1 0.075726 0.087007 0.423814
O O2 0.112197 0.090461 0.225025
O O3 0.000000 0.067321 0.277067
O O4 0.087984 0.009992 0.312457
O O5 0.091494 0.580049 0.371659
O O6 0.110051 0.660001 0.473465
O O7 0.000000 0.624613 0.450369
O O8 0.089794 0.554010 0.165434
O O9 0.000000 0.544102 0.286624
O O10 0.795532 0.250000 0.113936
O O11 0.750000 0.305305 0.250000
O O12 0.714055 0.310140 0.058459
O O13 0.819509 0.345560 0.113893
O O14 0.869074 0.250000 0.479250
O O15 0.885195 0.311470 0.336222
O O16 0.067046 0.750000 0.781450
O O17 0.072440 0.836503 0.849970
O O18 0.000000 0.813007 0.700040
O O19 0.000000 0.440949 0.965249
O O20 0.916182 0.500000 0.000000
O O21 0.895169 0.408852 0.025059
#
# Coordination Sequence:
#
# PCOD9534011 Si02
#       8
#    16  16  16  16  16  16  16  16
#     4  10  17  27  45  75 105 129 161 202 251 300
#     4  10  18  29  49  77 105 129 160 206 259 307
#     4   9  18  31  47  71 104 137 167 200 242 300
#     4  10  19  33  50  71 101 136 171 206 250 307
#     4  10  19  31  48  71  99 131 165 204 251 306
#     4  10  18  27  43  73 107 129 151 197 257 306
#     4  10  19  32  50  74 103 136 171 206 245 296
#     4  12  19  28  50  74 102 132 171 207 245 290
#
# _framework density 15.62504
#
# number of rings (size 3 to 8) (size 9 to 14) (size 15 to 20)
#    0.000    1.875    3.750    2.250    0.000    2.250 
#    0.000    0.000    0.000    5.250    0.000    5.250 
#    0.000    0.000    0.000    0.000    0.000    0.000 
#
# Total GULP energy -356581.532388 kJ/mol
# GULP energy per Si atom -5571.586444 kJ/mol
# Density = 1.558948 g / cm^3
# Si number density = 15.625040 Si / 1000 Ang^3
#
#
#
# Elastic Constant Matrix: (Units=GPa)
#
#
# Indices 1 2 3 4 5 6 
#
# 1 70.2869 55.8485 29.2091 0.0000 0.0000 0.0000
# 2 55.8485 152.7728 66.0667 0.0000 0.0000 0.0000
# 3 29.2091 66.0667 74.8544 0.0000 0.0000 0.0000
# 4 0.0000 0.0000 0.0000 24.0533 0.0000 0.0000
# 5 0.0000 0.0000 0.0000 0.0000 11.7309 0.0000
# 6 0.0000 0.0000 0.0000 0.0000 0.0000 29.3928
#
#
#
# Elastic Compliance Matrix: (Units=1/GPa)
#
#
# Indices 1 2 3 4 5 6 
#
# 1 0.020277 -0.006454 -0.002216 0.000000 0.000000 0.000000
# 2 -0.006454 0.012641 -0.008638 0.000000 0.000000 0.000000
# 3 -0.002216 -0.008638 0.021848 0.000000 0.000000 0.000000
# 4 0.000000 0.000000 0.000000 0.041574 0.000000 0.000000
# 5 0.000000 0.000000 0.000000 0.000000 0.085245 0.000000
# 6 0.000000 0.000000 0.000000 0.000000 0.000000 0.034022
#
#
# Mechanical properties :
#
#
# Convention : Reuss Voigt Hill
#
# Bulk Modulus (GPa) = 49.63013 66.68474 58.15743
# Shear Modulus (GPa) = 19.45987 22.82137 21.14062
#
# Velocity S-wave (km/s) = 3.53289 3.82588 3.68230
# Velocity P-wave (km/s) = 6.96232 7.89223 7.44181
#
# Compressibility (1/GPa) = 0.02014905
#
# Stress axis : x y z
#
# Youngs Moduli (GPa) = 49.31794 79.10940 45.77094
#
# Poissons Ratio (x) = 0.51059 0.10141
# Poissons Ratio (y) = 0.31831 0.39538
# Poissons Ratio (z) = 0.10927 0.68336
#
# Static dielectric constant tensor:
#      x y z
#    x 1.538270 0.000000 0.000000 
#    y 0.000000 1.544100 0.000000 
#    z 0.000000 0.000000 1.517020 
# 
# From -- ./inp_files/25666.got.cif
#   From: 2010.05.17/outbox.cif.g08.bks.cpg/sg74_13_cif.got.tgz:25666.got - 2010.06.03 17:57:02.
