data_PCOD9534894
_publ_section_title
;
Structure prediction by ZEFSAII (Michael W. Deem and Ramdas Pophale) SiO2 
 PCOD9534894
Probable space group: I M M A
;
_chemical_formula_sum "Si O2"
_cell_formula_units_Z 104
_cell_length_a 8.566807
_cell_length_b 27.730618
_cell_length_c 23.246749
_cell_angle_alpha 90.000000
_cell_angle_beta 90.000000
_cell_angle_gamma 90.000000
_cell_volume 5522.564001
_symmetry_space_group_name_H-M "I M M A"
_symmetry_group_IT_number 74
_symmetry_cell_setting 'orthorhombic'
loop_
_space_group_symop_operation_xyz
x,y,z
-x,1/2-y,z
x,-y,-z
-x,1/2+y,-z
-x,-y,-z
x,1/2+y,-z
-x,y,z
x,1/2-y,z
1/2+x,1/2+y,1/2+z
1/2-x,-y,1/2+z
1/2+x,1/2-y,1/2-z
1/2-x,y,1/2-z
1/2-x,1/2-y,1/2-z
1/2+x,y,1/2-z
1/2-x,1/2+y,1/2+z
1/2+x,-y,1/2+z
loop_
_atom_site_type_symbol
_atom_site_label
_atom_site_fract_x
_atom_site_fract_y
_atom_site_fract_z
Si Si1 0.810715 0.343321 0.379351
Si Si2 0.187789 0.194295 0.503444
Si Si3 0.319962 0.946953 0.858130
Si Si4 0.686304 0.250000 0.314264
Si Si5 0.313075 0.951832 0.313913
Si Si6 0.814214 0.120253 0.913398
Si Si7 0.174511 0.553756 0.977108
O O1 0.759738 0.335508 0.446255
O O2 0.758526 0.392583 0.347290
O O3 0.750747 0.296981 0.346256
O O4 0.000000 0.344508 0.379556
O O5 0.240059 0.250000 0.498416
O O6 0.241488 0.169713 0.562947
O O7 0.000000 0.193995 0.502257
O O8 0.500000 0.950366 0.840336
O O9 0.300755 0.946554 0.927124
O O10 0.235273 0.994364 0.834521
O O11 0.500000 0.250000 0.314905
O O12 0.750000 0.250000 0.250000
O O13 0.500000 0.950186 0.314199
O O14 0.250000 0.943967 0.250000
O O15 0.256619 0.909891 0.357998
O O16 0.000000 0.127198 0.906545
O O17 0.787799 0.085392 0.967797
O O18 0.000000 0.567243 0.954694
O O19 0.163350 0.500000 0.000000
#
# Coordination Sequence:
#
# PCOD9534894 Si02
#       7
#    16  16  16   8  16  16  16
#     4  10  21  39  59  84 121 155 191 243 293 339
#     4  10  20  36  59  88 122 154 186 238 299 351
#     4  11  22  35  57  88 118 155 194 235 284 341
#     4  12  26  42  62  82 106 152 205 248 291 344
#     4  11  24  43  61  83 117 158 199 245 292 346
#     4  10  21  36  58  86 118 153 191 237 295 353
#     4  10  18  32  52  80 118 153 182 228 283 335
#
# _framework density 18.831831999999999
#
# number of rings (size 3 to 8) (size 9 to 14) (size 15 to 20)
#    0.000    1.538    3.846    1.615    0.000    4.308 
#    0.000    0.000    0.000    0.462    0.000    0.000 
#    0.000    0.000    0.000    0.000    0.000    0.000 
#
# Total GULP energy -289960.684963 kJ/mol
# GULP energy per Si atom -5576.167019 kJ/mol
# Density = 1.878897 g / cm^3
# Si number density = 18.831832 Si / 1000 Ang^3
#
#
#
# Elastic Constant Matrix: (Units=GPa)
#
#
# Indices 1 2 3 4 5 6 
#
# 1 11.3258 11.5277 24.0798 0.0000 0.0000 0.0000
# 2 11.5277 88.8567 52.1455 0.0000 0.0000 0.0000
# 3 24.0798 52.1455 90.2289 0.0000 0.0000 0.0000
# 4 0.0000 0.0000 0.0000 12.1297 0.0000 0.0000
# 5 0.0000 0.0000 0.0000 0.0000 26.2784 0.0000
# 6 0.0000 0.0000 0.0000 0.0000 0.0000 30.7911
#
#
#
# Elastic Compliance Matrix: (Units=1/GPa)
#
#
# Indices 1 2 3 4 5 6 
#
# 1 0.208231 0.008470 -0.060467 0.000000 0.000000 0.000000
# 2 0.008470 0.017374 -0.012302 0.000000 0.000000 0.000000
# 3 -0.060467 -0.012302 0.034329 0.000000 0.000000 0.000000
# 4 0.000000 0.000000 0.000000 0.082443 0.000000 0.000000
# 5 0.000000 0.000000 0.000000 0.000000 0.038054 0.000000
# 6 0.000000 0.000000 0.000000 0.000000 0.000000 0.032477
#
#
# Mechanical properties :
#
#
# Convention : Reuss Voigt Hill
#
# Bulk Modulus (GPa) = 7.61391 40.65749 24.13570
# Shear Modulus (GPa) = 8.54286 20.68372 14.61329
#
# Velocity S-wave (km/s) = 2.13219 3.31771 2.78868
# Velocity P-wave (km/s) = 3.18018 6.02602 4.81801
#
# Compressibility (1/GPa) = 0.13133857
#
# Stress axis : x y z
#
# Youngs Moduli (GPa) = 4.80236 57.55613 29.12959
#
# Poissons Ratio (x) = -0.48751 1.76137
# Poissons Ratio (y) = -0.04068 0.35834
# Poissons Ratio (z) = 0.29038 0.70803
#
# Static dielectric constant tensor:
#      x y z
#    x 1.676700 0.000000 0.000000 
#    y 0.000000 1.695350 0.000000 
#    z 0.000000 0.000000 1.648560 
# 
# From -- ./inp_files/49264.got.cif
#   From: 2010.05.17/outbox.cif.g08.bks.cpg/sg74_25_cif.got.tgz:49264.got - 2010.06.03 17:57:02.
