data_PCOD9534334
_publ_section_title
;
Structure prediction by ZEFSAII (Michael W. Deem and Ramdas Pophale) SiO2 
 PCOD9534334
Probable space group: I M M A
;
_chemical_formula_sum "Si O2"
_cell_formula_units_Z 80
_cell_length_a 7.674069
_cell_length_b 25.863337
_cell_length_c 21.329127
_cell_angle_alpha 90.000000
_cell_angle_beta 90.000000
_cell_angle_gamma 90.000000
_cell_volume 4233.341837
_symmetry_space_group_name_H-M "I M M A"
_symmetry_group_IT_number 74
_symmetry_cell_setting 'orthorhombic'
loop_
_space_group_symop_operation_xyz
x,y,z
-x,1/2-y,z
x,-y,-z
-x,1/2+y,-z
-x,-y,-z
x,1/2+y,-z
-x,y,z
x,1/2-y,z
1/2+x,1/2+y,1/2+z
1/2-x,-y,1/2+z
1/2+x,1/2-y,1/2-z
1/2-x,y,1/2-z
1/2-x,1/2-y,1/2-z
1/2+x,y,1/2-z
1/2-x,1/2+y,1/2+z
1/2+x,-y,1/2+z
loop_
_atom_site_type_symbol
_atom_site_label
_atom_site_fract_x
_atom_site_fract_y
_atom_site_fract_z
Si Si1 0.297927 0.750000 0.155785
Si Si2 0.792511 0.031986 0.440883
Si Si3 0.706754 0.362205 0.851995
Si Si4 0.788487 0.750000 0.009962
Si Si5 0.708096 0.861929 0.499247
Si Si6 0.290595 0.974136 0.181737
O O1 0.500000 0.750000 0.176157
O O2 0.219556 0.806605 0.171070
O O3 0.289954 0.750000 0.079866
O O4 0.765669 0.091879 0.456272
O O5 0.000000 0.023201 0.439866
O O6 0.719864 0.000000 0.500000
O O7 0.724413 0.008946 0.375736
O O8 0.500000 0.359868 0.839580
O O9 0.778984 0.415207 0.823550
O O10 0.727593 0.367989 0.927436
O O11 0.737750 0.804341 0.979552
O O12 0.000000 0.750000 0.016898
O O13 0.500000 0.863522 0.496095
O O14 0.500000 0.970658 0.176109
O O15 0.250000 0.995580 0.250000
#
# Coordination Sequence:
#
# PCOD9534334 Si02
#       6
#     8  16  16   8  16  16
#     4   8  14  24  45  67  85 119 169 205 226 273
#     4  10  19  34  52  70  97 129 162 200 244 287
#     4   9  16  30  47  66  93 128 164 200 242 280
#     4   8  16  28  40  65 104 129 145 187 249 287
#     4  10  18  28  47  74 100 126 158 198 239 285
#     4  10  21  35  50  67  95 130 161 200 245 289
#
# _framework density 18.897597999999999
#
# number of rings (size 3 to 8) (size 9 to 14) (size 15 to 20)
#    0.000    2.600    2.000    0.600    0.000    2.800 
#    0.000    0.500    0.000    0.000    0.000    0.700 
#    0.000    0.000    0.000    0.000    0.000    0.000 
#
# Total GULP energy -222961.685202 kJ/mol
# GULP energy per Si atom -5574.042130 kJ/mol
# Density = 1.885459 g / cm^3
# Si number density = 18.897598 Si / 1000 Ang^3
#
#
#
# Elastic Constant Matrix: (Units=GPa)
#
#
# Indices 1 2 3 4 5 6 
#
# 1 34.0623 0.7578 -0.7539 0.0000 0.0000 0.0000
# 2 0.7578 122.8441 78.8333 0.0000 0.0000 0.0000
# 3 -0.7539 78.8333 98.0626 0.0000 0.0000 0.0000
# 4 0.0000 0.0000 0.0000 11.4872 0.0000 0.0000
# 5 0.0000 0.0000 0.0000 0.0000 8.8140 0.0000
# 6 0.0000 0.0000 0.0000 0.0000 0.0000 7.8381
#
#
#
# Elastic Compliance Matrix: (Units=1/GPa)
#
#
# Indices 1 2 3 4 5 6 
#
# 1 0.029390 -0.000674 0.000768 0.000000 0.000000 0.000000
# 2 -0.000674 0.016831 -0.013536 0.000000 0.000000 0.000000
# 3 0.000768 -0.013536 0.021085 0.000000 0.000000 0.000000
# 4 0.000000 0.000000 0.000000 0.087053 0.000000 0.000000
# 5 0.000000 0.000000 0.000000 0.000000 0.113456 0.000000
# 6 0.000000 0.000000 0.000000 0.000000 0.000000 0.127582
#
#
# Mechanical properties :
#
#
# Convention : Reuss Voigt Hill
#
# Bulk Modulus (GPa) = 24.73903 45.84926 35.29414
# Shear Modulus (GPa) = 11.47436 17.37000 14.42218
#
# Velocity S-wave (km/s) = 2.46679 3.03506 2.76556
# Velocity P-wave (km/s) = 4.60792 6.04952 5.37725
#
# Compressibility (1/GPa) = 0.04042196
#
# Stress axis : x y z
#
# Youngs Moduli (GPa) = 34.02526 59.41484 47.42744
#
# Poissons Ratio (x) = 0.04005 -0.03641
# Poissons Ratio (y) = 0.02293 0.64196
# Poissons Ratio (z) = -0.02612 0.80422
#
# Static dielectric constant tensor:
#      x y z
#    x 1.713060 0.000000 0.000000 
#    y 0.000000 1.726750 0.000000 
#    z 0.000000 0.000000 1.635160 
# 
# From -- ./inp_files/39774.got.cif
#   From: 2010.05.17/outbox.cif.g08.bks.cpg/sg74_20_cif.got.tgz:39774.got - 2010.06.03 17:57:02.
