data_PCOD9534016
_publ_section_title
;
Structure prediction by ZEFSAII (Michael W. Deem and Ramdas Pophale) SiO2 
 PCOD9534016
Probable space group: I M M A
;
_chemical_formula_sum "Si O2"
_cell_formula_units_Z 88
_cell_length_a 7.605953
_cell_length_b 21.265919
_cell_length_c 23.995056
_cell_angle_alpha 90.000000
_cell_angle_beta 90.000000
_cell_angle_gamma 90.000000
_cell_volume 3881.142250
_symmetry_space_group_name_H-M "I M M A"
_symmetry_group_IT_number 74
_symmetry_cell_setting 'orthorhombic'
loop_
_space_group_symop_operation_xyz
x,y,z
-x,1/2-y,z
x,-y,-z
-x,1/2+y,-z
-x,-y,-z
x,1/2+y,-z
-x,y,z
x,1/2-y,z
1/2+x,1/2+y,1/2+z
1/2-x,-y,1/2+z
1/2+x,1/2-y,1/2-z
1/2-x,y,1/2-z
1/2-x,1/2-y,1/2-z
1/2+x,y,1/2-z
1/2-x,1/2+y,1/2+z
1/2+x,-y,1/2+z
loop_
_atom_site_type_symbol
_atom_site_label
_atom_site_fract_x
_atom_site_fract_y
_atom_site_fract_z
Si Si1 0.707457 0.616333 0.901606
Si Si2 0.700058 0.250000 0.119102
Si Si3 0.701962 0.611389 0.027058
Si Si4 0.213173 0.750000 0.009654
Si Si5 0.704591 0.886465 0.351619
Si Si6 0.290933 0.514510 0.688973
Si Si7 0.288626 0.250000 0.684229
O O1 0.500000 0.629540 0.910767
O O2 0.780202 0.680309 0.872108
O O3 0.724500 0.558922 0.860107
O O4 0.777624 0.602035 0.964363
O O5 0.500000 0.250000 0.141541
O O6 0.707922 0.250000 0.051998
O O7 0.500000 0.589973 0.026995
O O8 0.718508 0.686355 0.035528
O O9 0.786912 0.588854 0.084320
O O10 0.000000 0.750000 0.009104
O O11 0.500000 0.880806 0.336470
O O12 0.779528 0.816678 0.340413
O O13 0.783700 0.943785 0.316484
O O14 0.500000 0.511508 0.682588
O O15 0.250000 0.540357 0.750000
O O16 0.500000 0.250000 0.673814
O O17 0.250000 0.250000 0.750000
#
# Coordination Sequence:
#
# PCOD9534016 Si02
#       7
#    16   8  16   8  16  16   8
#     4   9  19  37  60  86 117 150 187 232 282 339
#     4   8  16  33  56  83 113 145 182 224 271 329
#     4  10  20  34  55  84 116 151 191 234 284 343
#     4  10  17  27  48  78 116 154 183 220 272 330
#     4  10  22  38  57  84 116 150 190 240 292 341
#     4  11  24  41  60  82 111 149 193 238 289 348
#     4  10  21  38  59  83 113 151 196 242 285 327
#
# _framework density 22.673736999999999
#
# number of rings (size 3 to 8) (size 9 to 14) (size 15 to 20)
#    0.000    2.182    0.000    4.091    0.000    7.273 
#    0.000    4.091    0.000    0.000    0.000    0.000 
#    0.000    0.000    0.000    0.000    0.000    0.000 
#
# Total GULP energy -245200.260273 kJ/mol
# GULP energy per Si atom -5572.733188 kJ/mol
# Density = 2.262213 g / cm^3
# Si number density = 22.673737 Si / 1000 Ang^3
#
#
#
# Elastic Constant Matrix: (Units=GPa)
#
#
# Indices 1 2 3 4 5 6 
#
# 1 55.3711 -1.5491 -18.0346 0.0000 0.0000 0.0000
# 2 -1.5491 102.9710 53.1855 0.0000 0.0000 0.0000
# 3 -18.0346 53.1855 120.0371 0.0000 0.0000 0.0000
# 4 0.0000 0.0000 0.0000 26.7970 0.0000 0.0000
# 5 0.0000 0.0000 0.0000 0.0000 22.2885 0.0000
# 6 0.0000 0.0000 0.0000 0.0000 0.0000 65.9233
#
#
#
# Elastic Compliance Matrix: (Units=1/GPa)
#
#
# Indices 1 2 3 4 5 6 
#
# 1 0.019180 -0.001556 0.003571 0.000000 0.000000 0.000000
# 2 -0.001556 0.012720 -0.005870 0.000000 0.000000 0.000000
# 3 0.003571 -0.005870 0.011468 0.000000 0.000000 0.000000
# 4 0.000000 0.000000 0.000000 0.037318 0.000000 0.000000
# 5 0.000000 0.000000 0.000000 0.000000 0.044866 0.000000
# 6 0.000000 0.000000 0.000000 0.000000 0.000000 0.015169
#
#
# Mechanical properties :
#
#
# Convention : Reuss Voigt Hill
#
# Bulk Modulus (GPa) = 28.04409 38.39810 33.22109
# Shear Modulus (GPa) = 31.18858 39.32027 35.25442
#
# Velocity S-wave (km/s) = 3.71285 4.16886 3.94745
# Velocity P-wave (km/s) = 5.54759 6.33596 5.95483
#
# Compressibility (1/GPa) = 0.03565814
#
# Stress axis : x y z
#
# Youngs Moduli (GPa) = 52.13900 78.61788 87.19973
#
# Poissons Ratio (x) = 0.12232 -0.31138
# Poissons Ratio (y) = 0.08112 0.51183
# Poissons Ratio (z) = -0.18619 0.46145
#
# Static dielectric constant tensor:
#      x y z
#    x 1.917660 0.000000 0.000000 
#    y 0.000000 1.967630 0.000000 
#    z 0.000000 0.000000 1.816070 
# 
# From -- ./inp_files/57070.got.cif
#   From: 2010.05.17/outbox.cif.g08.bks.cpg/sg74_29_cif.got.tgz:57070.got - 2010.06.03 17:57:02.
