data_PCOD9534469
_publ_section_title
;
Structure prediction by ZEFSAII (Michael W. Deem and Ramdas Pophale) SiO2 
 PCOD9534469
Probable space group: I M M A
;
_chemical_formula_sum "Si O2"
_cell_formula_units_Z 96
_cell_length_a 19.821634
_cell_length_b 18.498735
_cell_length_c 13.883715
_cell_angle_alpha 90.000000
_cell_angle_beta 90.000000
_cell_angle_gamma 90.000000
_cell_volume 5090.813345
_symmetry_space_group_name_H-M "I M M A"
_symmetry_group_IT_number 74
_symmetry_cell_setting 'orthorhombic'
loop_
_space_group_symop_operation_xyz
x,y,z
-x,1/2-y,z
x,-y,-z
-x,1/2+y,-z
-x,-y,-z
x,1/2+y,-z
-x,y,z
x,1/2-y,z
1/2+x,1/2+y,1/2+z
1/2-x,-y,1/2+z
1/2+x,1/2-y,1/2-z
1/2-x,y,1/2-z
1/2-x,1/2-y,1/2-z
1/2+x,y,1/2-z
1/2-x,1/2+y,1/2+z
1/2+x,-y,1/2+z
loop_
_atom_site_type_symbol
_atom_site_label
_atom_site_fract_x
_atom_site_fract_y
_atom_site_fract_z
Si Si1 0.792889 0.328242 0.651740
Si Si2 0.759329 0.481957 0.896713
Si Si3 0.581183 0.164441 0.328445
Si Si4 0.922841 0.610676 0.253008
Si Si5 0.418375 0.332379 0.545675
Si Si6 0.856270 0.467000 0.275980
O O1 0.787600 0.250000 0.603082
O O2 0.750000 0.325018 0.750000
O O3 0.763024 0.398364 0.600670
O O4 0.869495 0.345198 0.683499
O O5 0.809941 0.501568 0.810927
O O6 0.691420 0.526979 0.869359
O O7 0.788132 0.500000 0.000000
O O8 0.500000 0.155061 0.321788
O O9 0.594981 0.250000 0.315163
O O10 0.603038 0.144700 0.438454
O O11 0.617432 0.111168 0.254268
O O12 0.914861 0.526821 0.281296
O O13 0.000000 0.634959 0.263500
O O14 0.902809 0.621848 0.140382
O O15 0.500000 0.330228 0.540168
O O16 0.394599 0.250000 0.562464
#
# Coordination Sequence:
#
# PCOD9534469 Si02
#       6
#    16  16  16  16  16  16
#     4  10  19  35  55  78 108 145 181 215 269 330
#     4  10  21  39  55  76 108 140 182 231 266 312
#     4   9  18  32  50  74 107 142 173 213 265 321
#     4  10  18  29  50  81 111 138 173 222 273 326
#     4   8  15  26  40  69 109 139 164 201 256 319
#     4  10  20  35  53  78 101 140 181 217 269 328
#
# _framework density 18.857498
#
# number of rings (size 3 to 8) (size 9 to 14) (size 15 to 20)
#    0.000    2.500    3.333    2.000    2.333    1.000 
#    0.000    5.833    0.000   12.500    0.000    0.000 
#    0.000    0.000    0.000    0.000    0.000    0.000 
#
# Total GULP energy -267497.804972 kJ/mol
# GULP energy per Si atom -5572.870937 kJ/mol
# Density = 1.881458 g / cm^3
# Si number density = 18.857498 Si / 1000 Ang^3
#
#
#
# Elastic Constant Matrix: (Units=GPa)
#
#
# Indices 1 2 3 4 5 6 
#
# 1 66.5672 20.7114 -5.4561 0.0000 0.0000 0.0000
# 2 20.7114 88.2563 -0.1198 0.0000 0.0000 0.0000
# 3 -5.4561 -0.1198 13.8006 0.0000 0.0000 0.0000
# 4 0.0000 0.0000 0.0000 11.6445 0.0000 0.0000
# 5 0.0000 0.0000 0.0000 0.0000 16.1069 0.0000
# 6 0.0000 0.0000 0.0000 0.0000 0.0000 5.2952
#
#
#
# Elastic Compliance Matrix: (Units=1/GPa)
#
#
# Indices 1 2 3 4 5 6 
#
# 1 0.016786 -0.003930 0.006602 0.000000 0.000000 0.000000
# 2 -0.003930 0.012251 -0.001448 0.000000 0.000000 0.000000
# 3 0.006602 -0.001448 0.075058 0.000000 0.000000 0.000000
# 4 0.000000 0.000000 0.000000 0.085877 0.000000 0.000000
# 5 0.000000 0.000000 0.000000 0.000000 0.062085 0.000000
# 6 0.000000 0.000000 0.000000 0.000000 0.000000 0.188852
#
#
# Mechanical properties :
#
#
# Convention : Reuss Voigt Hill
#
# Bulk Modulus (GPa) = 9.38570 22.09945 15.74258
# Shear Modulus (GPa) = 10.54906 16.84189 13.69547
#
# Velocity S-wave (km/s) = 2.36775 2.99174 2.69785
# Velocity P-wave (km/s) = 3.53029 4.86607 4.25098
#
# Compressibility (1/GPa) = 0.10654504
#
# Stress axis : x y z
#
# Youngs Moduli (GPa) = 59.57190 81.62585 13.32295
#
# Poissons Ratio (x) = 0.32082 -0.08796
# Poissons Ratio (y) = 0.23414 0.01929
# Poissons Ratio (z) = -0.39332 0.11815
#
# Static dielectric constant tensor:
#      x y z
#    x 1.674420 0.000000 0.000000 
#    y 0.000000 1.688750 0.000000 
#    z 0.000000 0.000000 1.637220 
# 
# From -- ./inp_files/44103.got.cif
#   From: 2010.05.17/outbox.cif.g08.bks.cpg/sg74_23_cif.got.tgz:44103.got - 2010.06.03 17:57:02.
