data_PCOD9534238
_publ_section_title
;
Structure prediction by ZEFSAII (Michael W. Deem and Ramdas Pophale) SiO2 
 PCOD9534238
Probable space group: I M M A
;
_chemical_formula_sum "Si O2"
_cell_formula_units_Z 104
_cell_length_a 36.784974
_cell_length_b 7.271153
_cell_length_c 14.291217
_cell_angle_alpha 90.000000
_cell_angle_beta 90.000000
_cell_angle_gamma 90.000000
_cell_volume 3822.460007
_symmetry_space_group_name_H-M "I M M A"
_symmetry_group_IT_number 74
_symmetry_cell_setting 'orthorhombic'
loop_
_space_group_symop_operation_xyz
x,y,z
-x,1/2-y,z
x,-y,-z
-x,1/2+y,-z
-x,-y,-z
x,1/2+y,-z
-x,y,z
x,1/2-y,z
1/2+x,1/2+y,1/2+z
1/2-x,-y,1/2+z
1/2+x,1/2-y,1/2-z
1/2-x,y,1/2-z
1/2-x,1/2-y,1/2-z
1/2+x,y,1/2-z
1/2-x,1/2+y,1/2+z
1/2+x,-y,1/2+z
loop_
_atom_site_type_symbol
_atom_site_label
_atom_site_fract_x
_atom_site_fract_y
_atom_site_fract_z
Si Si1 0.381119 0.448886 0.397235
Si Si2 0.961159 0.469436 0.869811
Si Si3 0.197633 0.532037 0.611704
Si Si4 0.620181 0.030487 0.110354
Si Si5 0.778230 0.969932 0.886713
Si Si6 0.960538 0.965884 0.648731
Si Si7 0.338576 0.250000 0.694656
O O1 0.366235 0.500000 0.500000
O O2 0.367383 0.250000 0.371125
O O3 0.424465 0.444849 0.406862
O O4 0.371004 0.593503 0.320112
O O5 0.959301 0.250000 0.882188
O O6 0.961647 0.514042 0.759975
O O7 0.000000 0.537511 0.905712
O O8 0.198513 0.500000 0.500000
O O9 0.195887 0.750000 0.627913
O O10 0.159189 0.449212 0.648022
O O11 0.237304 0.470193 0.642903
O O12 0.619575 0.250000 0.132485
O O13 0.579420 0.957444 0.125612
O O14 0.624909 0.000000 0.000000
O O15 0.781204 0.750000 0.870141
O O16 0.807992 0.088303 0.833005
O O17 0.781212 0.000000 0.000000
O O18 0.959752 0.750000 0.622340
O O19 0.000000 0.039008 0.613878
#
# Coordination Sequence:
#
# PCOD9534238 Si02
#       7
#    16  16  16  16  16  16   8
#     4  12  24  38  57  83 116 149 179 226 280 333
#     4  10  21  40  61  81 107 140 185 233 271 323
#     4   8  15  26  40  65  98 138 180 221 269 318
#     4   9  17  30  48  74 114 149 179 231 279 326
#     4  10  18  27  45  69 101 146 182 221 269 326
#     4   9  18  33  54  79 106 144 189 227 273 333
#     4  12  22  34  49  78 113 146 178 222 280 330
#
# _framework density 27.207609000000001
#
# number of rings (size 3 to 8) (size 9 to 14) (size 15 to 20)
#    0.000    2.154    2.308    1.385    1.077    2.154 
#    0.000    0.000    0.000    0.000    0.000    2.154 
#    0.000    6.154    0.000    0.000    0.000    0.000 
#
# Total GULP energy -289863.271459 kJ/mol
# GULP energy per Si atom -5574.293682 kJ/mol
# Density = 2.714568 g / cm^3
# Si number density = 27.207609 Si / 1000 Ang^3
#
#
#
# Elastic Constant Matrix: (Units=GPa)
#
#
# Indices 1 2 3 4 5 6 
#
# 1 274.2410 5.9803 3.5201 0.0000 0.0000 0.0000
# 2 5.9803 172.1492 -48.3047 0.0000 0.0000 0.0000
# 3 3.5201 -48.3047 68.2975 0.0000 0.0000 0.0000
# 4 0.0000 0.0000 0.0000 -43.9385 0.0000 0.0000
# 5 0.0000 0.0000 0.0000 0.0000 19.5927 0.0000
# 6 0.0000 0.0000 0.0000 0.0000 0.0000 1.4695
#
#
#
# Elastic Compliance Matrix: (Units=1/GPa)
#
#
# Indices 1 2 3 4 5 6 
#
# 1 0.003656 -0.000224 -0.000347 0.000000 0.000000 0.000000
# 2 -0.000224 0.007261 0.005147 0.000000 0.000000 0.000000
# 3 -0.000347 0.005147 0.018300 0.000000 0.000000 0.000000
# 4 0.000000 0.000000 0.000000 -0.022759 0.000000 0.000000
# 5 0.000000 0.000000 0.000000 0.000000 0.051039 0.000000
# 6 0.000000 0.000000 0.000000 0.000000 0.000000 0.680519
#
#
# Mechanical properties :
#
#
# Convention : Reuss Voigt Hill
#
# Bulk Modulus (GPa) = 26.06359 48.56435 37.31397
# Shear Modulus (GPa) = 6.74168 32.32420 19.53294
#
# Velocity S-wave (km/s) = 1.57583 3.45056 2.68231
# Velocity P-wave (km/s) = 3.59323 5.81063 4.83088
#
# Compressibility (1/GPa) = 0.03836771
#
# Stress axis : x y z
#
# Youngs Moduli (GPa) = 273.53964 137.72297 54.64472
#
# Poissons Ratio (x) = 0.03091 0.01897
# Poissons Ratio (y) = 0.06138 -0.28126
# Poissons Ratio (z) = 0.09496 -0.70886
#
# Static dielectric constant tensor:
#      x y z
#    x 2.158890 0.000000 0.000000 
#    y 0.000000 2.027440 0.000000 
#    z 0.000000 0.000000 2.179070 
# 
# From -- ./inp_files/55644.got.cif
#   From: 2010.05.17/outbox.cif.g08.bks.cpg/sg74_28_cif.got.tgz:55644.got - 2010.06.03 17:57:02.
