data_PCOD9534649
_publ_section_title
;
Structure prediction by ZEFSAII (Michael W. Deem and Ramdas Pophale) SiO2 
 PCOD9534649
Probable space group: I M M A
;
_chemical_formula_sum "Si O2"
_cell_formula_units_Z 96
_cell_length_a 24.527329
_cell_length_b 7.495131
_cell_length_c 23.785921
_cell_angle_alpha 90.000000
_cell_angle_beta 90.000000
_cell_angle_gamma 90.000000
_cell_volume 4372.697725
_symmetry_space_group_name_H-M "I M M A"
_symmetry_group_IT_number 74
_symmetry_cell_setting 'orthorhombic'
loop_
_space_group_symop_operation_xyz
x,y,z
-x,1/2-y,z
x,-y,-z
-x,1/2+y,-z
-x,-y,-z
x,1/2+y,-z
-x,y,z
x,1/2-y,z
1/2+x,1/2+y,1/2+z
1/2-x,-y,1/2+z
1/2+x,1/2-y,1/2-z
1/2-x,y,1/2-z
1/2-x,1/2-y,1/2-z
1/2+x,y,1/2-z
1/2-x,1/2+y,1/2+z
1/2+x,-y,1/2+z
loop_
_atom_site_type_symbol
_atom_site_label
_atom_site_fract_x
_atom_site_fract_y
_atom_site_fract_z
Si Si1 0.275775 0.036225 0.434291
Si Si2 0.000000 0.047139 0.857106
Si Si3 0.500000 0.449286 0.230884
Si Si4 0.381589 0.031796 0.241350
Si Si5 0.168650 0.031727 0.369976
Si Si6 0.940029 0.963577 0.566549
Si Si7 0.881713 0.535211 0.870269
O O1 0.276272 0.250000 0.427116
O O2 0.223232 0.968787 0.400357
O O3 0.332841 0.968640 0.409032
O O4 0.270579 0.000000 0.500000
O O5 0.000000 0.250000 0.837575
O O6 0.000000 0.936135 0.799315
O O7 0.943128 0.014176 0.888091
O O8 0.500000 0.250000 0.205876
O O9 0.558927 0.530079 0.219256
O O10 0.384101 0.250000 0.242549
O O11 0.337180 0.980965 0.195333
O O12 0.373816 0.973670 0.305511
O O13 0.168909 0.250000 0.371982
O O14 0.113910 0.970979 0.402043
O O15 0.940718 0.750000 0.574070
O O16 0.000000 0.030904 0.585188
O O17 0.935280 0.000000 0.500000
O O18 0.879880 0.750000 0.869538
#
# Coordination Sequence:
#
# PCOD9534649 Si02
#       7
#    16   8   8  16  16  16  16
#     4  10  21  36  54  74 100 134 174 215 256 302
#     4  10  18  30  53  81 106 131 158 196 248 306
#     4   8  14  26  46  73 106 141 171 200 242 296
#     4   8  14  25  46  75 103 130 162 205 254 297
#     4   9  17  28  46  75 102 129 169 215 254 294
#     4   9  17  28  43  64  93 129 170 212 250 287
#     4   9  18  34  54  77 104 134 166 205 252 306
#
# _framework density 21.954409999999999
#
# number of rings (size 3 to 8) (size 9 to 14) (size 15 to 20)
#    0.000    3.000    0.000    2.250    1.167    1.333 
#    0.000    3.750    0.000    8.000    0.000    5.833 
#    0.000    0.000    0.000    0.000    0.000    0.000 
#
# Total GULP energy -267844.996549 kJ/mol
# GULP energy per Si atom -5580.104095 kJ/mol
# Density = 2.190444 g / cm^3
# Si number density = 21.954410 Si / 1000 Ang^3
#
#
#
# Elastic Constant Matrix: (Units=GPa)
#
#
# Indices 1 2 3 4 5 6 
#
# 1 144.0419 12.1232 28.3552 0.0000 0.0000 0.0000
# 2 12.1232 69.0011 3.9169 0.0000 0.0000 0.0000
# 3 28.3552 3.9169 24.3741 0.0000 0.0000 0.0000
# 4 0.0000 0.0000 0.0000 11.1510 0.0000 0.0000
# 5 0.0000 0.0000 0.0000 0.0000 42.4244 0.0000
# 6 0.0000 0.0000 0.0000 0.0000 0.0000 -33.3682
#
#
#
# Elastic Compliance Matrix: (Units=1/GPa)
#
#
# Indices 1 2 3 4 5 6 
#
# 1 0.009073 -0.001004 -0.010394 0.000000 0.000000 0.000000
# 2 -0.001004 0.014737 -0.001200 0.000000 0.000000 0.000000
# 3 -0.010394 -0.001200 0.053311 0.000000 0.000000 0.000000
# 4 0.000000 0.000000 0.000000 0.089678 0.000000 0.000000
# 5 0.000000 0.000000 0.000000 0.000000 0.023571 0.000000
# 6 0.000000 0.000000 0.000000 0.000000 0.000000 -0.029969
#
#
# Mechanical properties :
#
#
# Convention : Reuss Voigt Hill
#
# Bulk Modulus (GPa) = 19.25826 36.24529 27.75177
# Shear Modulus (GPa) = 24.64196 16.90956 20.77576
#
# Velocity S-wave (km/s) = 3.35388 2.77828 3.07956
# Velocity P-wave (km/s) = 4.87740 5.18044 5.03120
#
# Compressibility (1/GPa) = 0.05192578
#
# Stress axis : x y z
#
# Youngs Moduli (GPa) = 110.21786 67.85612 18.75776
#
# Poissons Ratio (x) = 0.06813 0.19496
# Poissons Ratio (y) = 0.11067 0.02251
# Poissons Ratio (z) = 1.14555 0.08144
#
# Static dielectric constant tensor:
#      x y z
#    x 1.815760 0.000000 0.000000 
#    y 0.000000 1.877810 0.000000 
#    z 0.000000 0.000000 1.775010 
# 
# From -- ./inp_files/61937.got.cif
#   From: 2010.05.17/outbox.cif.g08.bks.cpg/sg74_31_cif.got.tgz:61937.got - 2010.06.03 17:57:02.
