data_PCOD9534207
_publ_section_title
;
Structure prediction by ZEFSAII (Michael W. Deem and Ramdas Pophale) SiO2 
 PCOD9534207
Probable space group: I M M A
;
_chemical_formula_sum "Si O2"
_cell_formula_units_Z 104
_cell_length_a 8.491988
_cell_length_b 38.405181
_cell_length_c 14.843212
_cell_angle_alpha 90.000000
_cell_angle_beta 90.000000
_cell_angle_gamma 90.000000
_cell_volume 4840.910779
_symmetry_space_group_name_H-M "I M M A"
_symmetry_group_IT_number 74
_symmetry_cell_setting 'orthorhombic'
loop_
_space_group_symop_operation_xyz
x,y,z
-x,1/2-y,z
x,-y,-z
-x,1/2+y,-z
-x,-y,-z
x,1/2+y,-z
-x,y,z
x,1/2-y,z
1/2+x,1/2+y,1/2+z
1/2-x,-y,1/2+z
1/2+x,1/2-y,1/2-z
1/2-x,y,1/2-z
1/2-x,1/2-y,1/2-z
1/2+x,y,1/2-z
1/2-x,1/2+y,1/2+z
1/2+x,-y,1/2+z
loop_
_atom_site_type_symbol
_atom_site_label
_atom_site_fract_x
_atom_site_fract_y
_atom_site_fract_z
Si Si1 0.815381 0.788736 0.847935
Si Si2 0.000000 0.400186 0.845686
Si Si3 0.190459 0.576315 0.651917
Si Si4 0.000000 0.064657 0.031174
Si Si5 0.500000 0.977606 0.354468
Si Si6 0.673871 0.648125 0.931062
Si Si7 0.172765 0.480935 0.597660
Si Si8 0.172129 0.396236 0.614683
O O1 0.751543 0.750000 0.870947
O O2 0.750000 0.798997 0.750000
O O3 0.784580 0.819202 0.919094
O O4 0.000000 0.785768 0.837696
O O5 0.172305 0.385813 0.831601
O O6 0.000000 0.404399 0.957129
O O7 0.000000 0.439794 0.807771
O O8 0.250000 0.565748 0.750000
O O9 0.337288 0.565118 0.586862
O O10 0.196887 0.618154 0.642921
O O11 0.000000 0.567627 0.633868
O O12 0.000000 0.032843 0.961281
O O13 0.674294 0.992765 0.345904
O O14 0.500000 0.663083 0.919780
O O15 0.675541 0.626210 0.023474
O O16 0.173317 0.500000 0.500000
O O17 0.182047 0.438291 0.593844
O O18 0.000000 0.488697 0.638134
O O19 0.000000 0.390553 0.656840
#
# Coordination Sequence:
#
# PCOD9534207 Si02
#       8
#    16   8  16   8   8  16  16  16
#     4  10  21  33  43  52  62  76  96 125 159 196
#     4   8  14  23  36  44  58  83  95 116 141 158
#     4  11  20  27  36  50  65  77  99 123 152 188
#     4  10  18  27  36  48  60  89  97 124 152 167
#     4   8  15  24  34  44  62  80 107 116 137 169
#     4  10  19  28  40  52  61  80  97 120 149 183
#     4   9  15  23  36  52  69  86 101 120 140 163
#     4   9  16  25  35  51  68  81 102 118 138 172
#
# _framework density 21.483561000000002
#
# number of rings (size 3 to 8) (size 9 to 14) (size 15 to 20)
#    0.462    2.000    2.308    1.154    2.154    2.769 
#    0.000    0.000    0.000    0.000    0.000    0.000 
#    0.000    0.000    0.000    0.000    0.000    0.000 
#
# Total GULP energy -289715.699127 kJ/mol
# GULP energy per Si atom -5571.455752 kJ/mol
# Density = 2.143466 g / cm^3
# Si number density = 21.483561 Si / 1000 Ang^3
#
#
#
# Elastic Constant Matrix: (Units=GPa)
#
#
# Indices 1 2 3 4 5 6 
#
# 1 199.7940 26.3092 48.7672 0.0000 0.0000 0.0000
# 2 26.3092 91.1013 17.9364 0.0000 0.0000 0.0000
# 3 48.7672 17.9364 80.1346 -0.0001 0.0000 0.0000
# 4 0.0000 0.0000 -0.0001 15.8936 0.0000 0.0000
# 5 0.0000 0.0000 0.0000 0.0000 35.7506 0.0000
# 6 0.0000 0.0000 0.0000 0.0000 0.0000 -72.3469
#
#
#
# Elastic Compliance Matrix: (Units=1/GPa)
#
#
# Indices 1 2 3 4 5 6 
#
# 1 0.005974 -0.001056 -0.003399 0.000000 0.000000 0.000000
# 2 -0.001056 0.011669 -0.001969 0.000000 0.000000 0.000000
# 3 -0.003399 -0.001969 0.014988 0.000000 0.000000 0.000000
# 4 0.000000 0.000000 0.000000 0.062918 0.000000 0.000000
# 5 0.000000 0.000000 0.000000 0.000000 0.027972 0.000000
# 6 0.000000 0.000000 0.000000 0.000000 0.000000 -0.013822
#
#
# Mechanical properties :
#
#
# Convention : Reuss Voigt Hill
#
# Bulk Modulus (GPa) = 50.54881 61.89505 56.22193
# Shear Modulus (GPa) = 38.71691 14.39393 26.55542
#
# Velocity S-wave (km/s) = 4.24980 2.59124 3.51961
# Velocity P-wave (km/s) = 6.90371 6.15026 6.53784
#
# Compressibility (1/GPa) = 0.01978286
#
# Stress axis : x y z
#
# Youngs Moduli (GPa) = 167.39495 85.69369 66.71819
#
# Poissons Ratio (x) = 0.09049 0.22679
# Poissons Ratio (y) = 0.17676 0.13139
# Poissons Ratio (z) = 0.56900 0.16876
#
# Static dielectric constant tensor:
#      x y z
#    x 1.945350 0.000000 0.000000 
#    y 0.000000 1.753590 0.000000 
#    z 0.000000 0.000000 1.887290 
# 
# From -- ./inp_files/57888.got.cif
#   From: 2010.05.17/outbox.cif.g08.bks.cpg/sg74_29_cif.got.tgz:57888.got - 2010.06.03 17:57:02.
