data_PCOD9534437
_publ_section_title
;
Structure prediction by ZEFSAII (Michael W. Deem and Ramdas Pophale) SiO2 
 PCOD9534437
Probable space group: I M M A
;
_chemical_formula_sum "Si O2"
_cell_formula_units_Z 96
_cell_length_a 26.048981
_cell_length_b 8.470296
_cell_length_c 24.343337
_cell_angle_alpha 90.000000
_cell_angle_beta 90.000000
_cell_angle_gamma 90.000000
_cell_volume 5371.176671
_symmetry_space_group_name_H-M "I M M A"
_symmetry_group_IT_number 74
_symmetry_cell_setting 'orthorhombic'
loop_
_space_group_symop_operation_xyz
x,y,z
-x,1/2-y,z
x,-y,-z
-x,1/2+y,-z
-x,-y,-z
x,1/2+y,-z
-x,y,z
x,1/2-y,z
1/2+x,1/2+y,1/2+z
1/2-x,-y,1/2+z
1/2+x,1/2-y,1/2-z
1/2-x,y,1/2-z
1/2-x,1/2-y,1/2-z
1/2+x,y,1/2-z
1/2-x,1/2+y,1/2+z
1/2+x,-y,1/2+z
loop_
_atom_site_type_symbol
_atom_site_label
_atom_site_fract_x
_atom_site_fract_y
_atom_site_fract_z
Si Si1 0.308813 0.437962 0.061052
Si Si2 0.500000 0.061546 0.062076
Si Si3 0.194487 0.060174 0.939026
Si Si4 0.098678 0.557355 0.132686
Si Si5 0.440218 0.057407 0.750478
Si Si6 0.902702 0.439726 0.630453
Si Si7 0.000000 0.059326 0.938032
O O1 0.308741 0.250000 0.059450
O O2 0.251470 0.498498 0.073437
O O3 0.350176 0.498367 0.104515
O O4 0.322484 0.500000 0.000000
O O5 0.500000 0.250000 0.062048
O O6 0.449898 0.999475 0.093632
O O7 0.500000 0.000000 0.000000
O O8 0.195780 0.250000 0.940297
O O9 0.151791 0.007392 0.895304
O O10 0.180521 0.000000 0.000000
O O11 0.098782 0.750000 0.133174
O O12 0.088077 0.505151 0.194953
O O13 0.050748 0.507888 0.094845
O O14 0.500000 0.008060 0.749920
O O15 0.440571 0.250000 0.750073
O O16 0.413265 0.007888 0.806935
O O17 0.902453 0.250000 0.629353
O O18 0.000000 0.250000 0.938478
O O19 0.000000 0.000000 0.000000
#
# Coordination Sequence:
#
# PCOD9534437 Si02
#       7
#    16   8  16  16  16  16   8
#     4  11  22  38  58  80 108 144 180 224 274 329
#     4  12  24  37  54  80 114 145 177 218 267 326
#     4  10  19  33  54  81 110 144 183 227 272 324
#     4   9  17  30  52  80 109 141 182 225 268 315
#     4   9  16  31  55  81 107 141 183 225 266 311
#     4  11  21  36  58  84 109 139 180 227 273 322
#     4  10  18  29  48  76 110 141 173 218 269 322
#
# _framework density 17.873177999999999
#
# number of rings (size 3 to 8) (size 9 to 14) (size 15 to 20)
#    0.000    1.833    1.667    5.250    0.000    0.000 
#    0.000    1.667    0.000   12.000    0.000    0.000 
#    0.000    0.000    0.000    0.000    0.000    0.000 
#
# Total GULP energy -268065.072115 kJ/mol
# GULP energy per Si atom -5584.689002 kJ/mol
# Density = 1.783250 g / cm^3
# Si number density = 17.873178 Si / 1000 Ang^3
#
#
#
# Elastic Constant Matrix: (Units=GPa)
#
#
# Indices 1 2 3 4 5 6 
#
# 1 141.5276 34.5527 122.0066 0.0000 0.0000 0.0000
# 2 34.5527 66.9795 37.3512 0.0000 0.0000 0.0000
# 3 122.0066 37.3512 201.0202 0.0000 0.0000 0.0000
# 4 0.0000 0.0000 0.0000 22.6327 0.0000 0.0000
# 5 0.0000 0.0000 0.0000 0.0000 32.4980 0.0000
# 6 0.0000 0.0000 0.0000 0.0000 0.0000 10.4293
#
#
#
# Elastic Compliance Matrix: (Units=1/GPa)
#
#
# Indices 1 2 3 4 5 6 
#
# 1 0.015355 -0.003039 -0.008755 0.000000 0.000000 0.000000
# 2 -0.003039 0.017257 -0.001362 0.000000 0.000000 0.000000
# 3 -0.008755 -0.001362 0.010541 0.000000 0.000000 0.000000
# 4 0.000000 0.000000 0.000000 0.044184 0.000000 0.000000
# 5 0.000000 0.000000 0.000000 0.000000 0.030771 0.000000
# 6 0.000000 0.000000 0.000000 0.000000 0.000000 0.095884
#
#
# Mechanical properties :
#
#
# Convention : Reuss Voigt Hill
#
# Bulk Modulus (GPa) = 59.37624 88.59425 73.98524
# Shear Modulus (GPa) = 20.33197 27.48646 23.90921
#
# Velocity S-wave (km/s) = 3.37645 3.92581 3.66145
# Velocity P-wave (km/s) = 6.96373 8.38005 7.70450
#
# Compressibility (1/GPa) = 0.01684175
#
# Stress axis : x y z
#
# Youngs Moduli (GPa) = 65.12552 57.94673 94.86474
#
# Poissons Ratio (x) = 0.17610 0.83052
# Poissons Ratio (y) = 0.19792 0.12921
# Poissons Ratio (z) = 0.57016 0.07893
#
# Static dielectric constant tensor:
#      x y z
#    x 1.578450 0.000000 0.000000 
#    y 0.000000 1.618700 0.000000 
#    z 0.000000 0.000000 1.583250 
# 
# From -- ./inp_files/61973.got.cif
#   From: 2010.05.17/outbox.cif.g08.bks.cpg/sg74_31_cif.got.tgz:61973.got - 2010.06.03 17:57:02.
