data_PCOD9534081
_publ_section_title
;
Structure prediction by ZEFSAII (Michael W. Deem and Ramdas Pophale) SiO2 
 PCOD9534081
Probable space group: I M M A
;
_chemical_formula_sum "Si O2"
_cell_formula_units_Z 104
_cell_length_a 15.453676
_cell_length_b 20.298142
_cell_length_c 19.135676
_cell_angle_alpha 90.000000
_cell_angle_beta 90.000000
_cell_angle_gamma 90.000000
_cell_volume 6002.496259
_symmetry_space_group_name_H-M "I M M A"
_symmetry_group_IT_number 74
_symmetry_cell_setting 'orthorhombic'
loop_
_space_group_symop_operation_xyz
x,y,z
-x,1/2-y,z
x,-y,-z
-x,1/2+y,-z
-x,-y,-z
x,1/2+y,-z
-x,y,z
x,1/2-y,z
1/2+x,1/2+y,1/2+z
1/2-x,-y,1/2+z
1/2+x,1/2-y,1/2-z
1/2-x,y,1/2-z
1/2-x,1/2-y,1/2-z
1/2+x,y,1/2-z
1/2-x,1/2+y,1/2+z
1/2+x,-y,1/2+z
loop_
_atom_site_type_symbol
_atom_site_label
_atom_site_fract_x
_atom_site_fract_y
_atom_site_fract_z
Si Si1 0.500000 0.579240 0.226891
Si Si2 0.401688 0.097942 0.554283
Si Si3 0.340075 0.173438 0.788085
Si Si4 0.271351 0.173968 0.943031
Si Si5 0.139553 0.049578 0.100664
Si Si6 0.500000 0.941508 0.710046
Si Si7 0.675934 0.436744 0.050762
Si Si8 0.000000 0.457274 0.366346
O O1 0.583994 0.624354 0.232387
O O2 0.500000 0.521152 0.283193
O O3 0.500000 0.535101 0.155474
O O4 0.500000 0.117442 0.570672
O O5 0.326679 0.149566 0.571557
O O6 0.393361 0.083294 0.471076
O O7 0.378958 0.028098 0.590012
O O8 0.361020 0.250000 0.771972
O O9 0.250000 0.157358 0.750000
O O10 0.323667 0.167851 0.870942
O O11 0.271095 0.250000 0.964594
O O12 0.311515 0.126775 0.001789
O O13 0.084678 0.075871 0.165587
O O14 0.242241 0.060175 0.102995
O O15 0.500000 0.920830 0.790894
O O16 0.585527 0.440682 0.090420
O O17 0.684603 0.500000 0.000000
#
# Coordination Sequence:
#
# PCOD9534081 Si02
#       8
#     8  16  16  16  16   8  16   8
#     4  10  23  33  54  78 107 142 189 231 274 319
#     4  10  17  29  55  80 114 146 179 221 280 333
#     4  10  22  39  53  72 112 156 190 224 267 329
#     4  10  22  36  55  83 108 146 194 228 273 330
#     4  10  17  32  54  83 111 150 175 221 288 342
#     4  10  22  31  52  87 117 134 186 230 278 349
#     4  11  20  37  59  77 110 149 182 236 286 328
#     4  10  25  35  49  87 106 136 187 243 287 323
#
# _framework density 17.326125000000001
#
# number of rings (size 3 to 8) (size 9 to 14) (size 15 to 20)
#    0.462    1.385    4.615    1.846    2.154    1.538 
#    0.000    1.154    0.000    0.000    0.000   12.923 
#    0.000    0.000    0.000    0.000    0.000    0.000 
#
# Total GULP energy -290049.432358 kJ/mol
# GULP energy per Si atom -5577.873699 kJ/mol
# Density = 1.728669 g / cm^3
# Si number density = 17.326125 Si / 1000 Ang^3
#
#
#
# Elastic Constant Matrix: (Units=GPa)
#
#
# Indices 1 2 3 4 5 6 
#
# 1 97.6353 -4.4093 20.5198 0.0000 0.0000 0.0000
# 2 -4.4093 39.5216 4.8941 0.0000 0.0000 0.0000
# 3 20.5198 4.8941 41.2326 0.0000 0.0000 0.0000
# 4 0.0000 0.0000 0.0000 19.0852 0.0000 0.0000
# 5 0.0000 0.0000 0.0000 0.0000 29.4840 0.0000
# 6 0.0000 0.0000 0.0000 0.0000 0.0000 11.0653
#
#
#
# Elastic Compliance Matrix: (Units=1/GPa)
#
#
# Indices 1 2 3 4 5 6 
#
# 1 0.011598 0.002039 -0.006014 0.000000 0.000000 0.000000
# 2 0.002039 0.026038 -0.004105 0.000000 0.000000 0.000000
# 3 -0.006014 -0.004105 0.027733 0.000000 0.000000 0.000000
# 4 0.000000 0.000000 0.000000 0.052397 0.000000 0.000000
# 5 0.000000 0.000000 0.000000 0.000000 0.033917 0.000000
# 6 0.000000 0.000000 0.000000 0.000000 0.000000 0.090373
#
#
# Mechanical properties :
#
#
# Convention : Reuss Voigt Hill
#
# Bulk Modulus (GPa) = 20.32164 24.48872 22.40518
# Shear Modulus (GPa) = 18.20702 22.41923 20.31312
#
# Velocity S-wave (km/s) = 3.24519 3.60106 3.42775
# Velocity P-wave (km/s) = 5.07898 5.60846 5.35027
#
# Compressibility (1/GPa) = 0.04920862
#
# Stress axis : x y z
#
# Youngs Moduli (GPa) = 86.22025 38.40472 36.05834
#
# Poissons Ratio (x) = -0.07830 0.21685
# Poissons Ratio (y) = -0.17578 0.14803
# Poissons Ratio (z) = 0.51852 0.15766
#
# Static dielectric constant tensor:
#      x y z
#    x 1.589680 0.000000 0.000000 
#    y 0.000000 1.564610 0.000000 
#    z 0.000000 0.000000 1.601860 
# 
# From -- ./inp_files/52166.got.cif
#   From: 2010.05.17/outbox.cif.g08.bks.cpg/sg74_27_cif.got.tgz:52166.got - 2010.06.03 17:57:02.
