data_PCOD9534557
_publ_section_title
;
Structure prediction by ZEFSAII (Michael W. Deem and Ramdas Pophale) SiO2 
 PCOD9534557
Probable space group: I M M A
;
_chemical_formula_sum "Si O2"
_cell_formula_units_Z 56
_cell_length_a 8.800760
_cell_length_b 18.135077
_cell_length_c 18.821295
_cell_angle_alpha 90.000000
_cell_angle_beta 90.000000
_cell_angle_gamma 90.000000
_cell_volume 3003.924987
_symmetry_space_group_name_H-M "I M M A"
_symmetry_group_IT_number 74
_symmetry_cell_setting 'orthorhombic'
loop_
_space_group_symop_operation_xyz
x,y,z
-x,1/2-y,z
x,-y,-z
-x,1/2+y,-z
-x,-y,-z
x,1/2+y,-z
-x,y,z
x,1/2-y,z
1/2+x,1/2+y,1/2+z
1/2-x,-y,1/2+z
1/2+x,1/2-y,1/2-z
1/2-x,y,1/2-z
1/2-x,1/2-y,1/2-z
1/2+x,y,1/2-z
1/2-x,1/2+y,1/2+z
1/2+x,-y,1/2+z
loop_
_atom_site_type_symbol
_atom_site_label
_atom_site_fract_x
_atom_site_fract_y
_atom_site_fract_z
Si Si1 0.680241 0.750000 0.669856
Si Si2 0.823848 0.395830 0.326630
Si Si3 0.321243 0.464684 0.928344
Si Si4 0.683817 0.835828 0.172316
O O1 0.500000 0.750000 0.672869
O O2 0.750000 0.750000 0.750000
O O3 0.741580 0.674065 0.637458
O O4 0.750000 0.408413 0.250000
O O5 0.814028 0.469683 0.371516
O O6 0.000000 0.376110 0.317062
O O7 0.500000 0.448533 0.944208
O O8 0.260957 0.391412 0.889341
O O9 0.253139 0.500000 0.000000
O O10 0.500000 0.841904 0.176332
O O11 0.721830 0.750000 0.158209
O O12 0.750000 0.855385 0.250000
#
# Coordination Sequence:
#
# PCOD9534557 Si02
#       4
#     8  16  16  16
#     4  10  18  30  48  70  98 124 159 202 241 288
#     4  10  18  30  50  73  98 129 167 206 248 291
#     4   9  18  32  48  73 105 131 165 209 249 298
#     4   9  17  31  53  78 101 130 168 211 256 297
#
# _framework density 18.642278000000001
#
# number of rings (size 3 to 8) (size 9 to 14) (size 15 to 20)
#    0.000    2.571    0.000    4.714    0.000    0.000 
#    2.571    1.429    0.000    7.714    0.000    0.000 
#    0.000    0.000    0.000    0.000    0.000    0.000 
#
# Total GULP energy -155992.705732 kJ/mol
# GULP energy per Si atom -5571.168062 kJ/mol
# Density = 1.859985 g / cm^3
# Si number density = 18.642278 Si / 1000 Ang^3
#
#
#
# Elastic Constant Matrix: (Units=GPa)
#
#
# Indices 1 2 3 4 5 6 
#
# 1 69.0528 29.0777 18.0845 0.0000 0.0000 0.0000
# 2 29.0777 97.4279 55.0582 0.0000 0.0000 0.0000
# 3 18.0845 55.0582 93.4634 0.0000 0.0000 0.0000
# 4 0.0000 0.0000 0.0000 30.0035 0.0000 0.0000
# 5 0.0000 0.0000 0.0000 0.0000 15.3710 0.0000
# 6 0.0000 0.0000 0.0000 0.0000 0.0000 26.9486
#
#
#
# Elastic Compliance Matrix: (Units=1/GPa)
#
#
# Indices 1 2 3 4 5 6 
#
# 1 0.016575 -0.004699 -0.000439 0.000000 0.000000 0.000000
# 2 -0.004699 0.016718 -0.008939 0.000000 0.000000 0.000000
# 3 -0.000439 -0.008939 0.016050 0.000000 0.000000 0.000000
# 4 0.000000 0.000000 0.000000 0.033329 0.000000 0.000000
# 5 0.000000 0.000000 0.000000 0.000000 0.065058 0.000000
# 6 0.000000 0.000000 0.000000 0.000000 0.000000 0.037108
#
#
# Mechanical properties :
#
#
# Convention : Reuss Voigt Hill
#
# Bulk Modulus (GPa) = 47.19360 51.59832 49.39596
# Shear Modulus (GPa) = 22.72150 24.97954 23.85052
#
# Velocity S-wave (km/s) = 3.49494 3.66449 3.58072
# Velocity P-wave (km/s) = 6.45418 6.75595 6.60679
#
# Compressibility (1/GPa) = 0.02118931
#
# Stress axis : x y z
#
# Youngs Moduli (GPa) = 60.33072 59.81552 62.30386
#
# Poissons Ratio (x) = 0.28106 0.02737
# Poissons Ratio (y) = 0.28348 0.55695
# Poissons Ratio (z) = 0.02650 0.53471
#
# Static dielectric constant tensor:
#      x y z
#    x 1.649680 0.000000 0.000000 
#    y 0.000000 1.692350 0.000000 
#    z 0.000000 0.000000 1.651490 
# 
# From -- ./inp_files/28535.got.cif
#   From: 2010.05.17/outbox.cif.g08.bks.cpg/sg74_15_cif.got.tgz:28535.got - 2010.06.03 17:57:02.
