data_PCOD9534172
_publ_section_title
;
Structure prediction by ZEFSAII (Michael W. Deem and Ramdas Pophale) SiO2 
 PCOD9534172
Probable space group: I M M A
;
_chemical_formula_sum "Si O2"
_cell_formula_units_Z 68
_cell_length_a 24.411637
_cell_length_b 14.934817
_cell_length_c 6.863335
_cell_angle_alpha 90.000000
_cell_angle_beta 90.000000
_cell_angle_gamma 90.000000
_cell_volume 2502.257538
_symmetry_space_group_name_H-M "I M M A"
_symmetry_group_IT_number 74
_symmetry_cell_setting 'orthorhombic'
loop_
_space_group_symop_operation_xyz
x,y,z
-x,1/2-y,z
x,-y,-z
-x,1/2+y,-z
-x,-y,-z
x,1/2+y,-z
-x,y,z
x,1/2-y,z
1/2+x,1/2+y,1/2+z
1/2-x,-y,1/2+z
1/2+x,1/2-y,1/2-z
1/2-x,y,1/2-z
1/2-x,1/2-y,1/2-z
1/2+x,y,1/2-z
1/2-x,1/2+y,1/2+z
1/2+x,-y,1/2+z
loop_
_atom_site_type_symbol
_atom_site_label
_atom_site_fract_x
_atom_site_fract_y
_atom_site_fract_z
Si Si1 0.175973 0.146891 0.959662
Si Si2 0.295559 0.605448 0.009594
Si Si3 0.500000 0.750000 0.799396
Si Si4 0.560080 0.355440 0.575749
Si Si5 0.915481 0.109445 0.472955
O O1 0.163946 0.250000 0.982846
O O2 0.234690 0.131115 0.056601
O O3 0.192079 0.130870 0.733655
O O4 0.117083 0.101943 0.000151
O O5 0.352686 0.632641 0.912610
O O6 0.294392 0.500000 0.000000
O O7 0.453347 0.668406 0.834066
O O8 0.500000 0.396664 0.540123
O O9 0.553249 0.250000 0.520649
O O10 0.569770 0.356412 0.809561
O O11 0.921498 0.000000 0.500000
#
# Coordination Sequence:
#
# PCOD9534172 Si02
#       5
#    16  16   4  16  16
#     4   9  17  27  45  65  86 110 146 179 208 257
#     4   9  17  27  40  61  87 111 139 176 217 249
#     4  12  18  24  36  52  88 118 134 170 198 256
#     4   9  14  24  39  59  84 110 131 167 218 255
#     4  10  18  25  36  56  83 114 141 165 208 257
#
# _framework density 27.175460999999999
#
# number of rings (size 3 to 8) (size 9 to 14) (size 15 to 20)
#    0.000    2.588    2.353    1.765    3.294    0.000 
#    0.000    0.000    0.000    0.706    0.000   13.176 
#    7.059    0.000    0.000   14.118    0.000    3.765 
#
# Total GULP energy -189319.996655 kJ/mol
# GULP energy per Si atom -5568.235196 kJ/mol
# Density = 2.711361 g / cm^3
# Si number density = 27.175461 Si / 1000 Ang^3
#
#
#
# Elastic Constant Matrix: (Units=GPa)
#
#
# Indices 1 2 3 4 5 6 
#
# 1 407.7100 48.5914 21.4997 0.0000 0.0000 0.0000
# 2 48.5914 142.6180 -11.4842 0.0000 0.0000 0.0000
# 3 21.4997 -11.4842 92.1631 0.0000 0.0000 0.0000
# 4 0.0000 0.0000 0.0000 72.8104 0.0000 0.0000
# 5 0.0000 0.0000 0.0000 0.0000 64.3576 0.0000
# 6 0.0000 0.0000 0.0000 0.0000 0.0000 42.3858
#
#
#
# Elastic Compliance Matrix: (Units=1/GPa)
#
#
# Indices 1 2 3 4 5 6 
#
# 1 0.002604 -0.000945 -0.000725 0.000000 0.000000 0.000000
# 2 -0.000945 0.007426 0.001146 0.000000 0.000000 0.000000
# 3 -0.000725 0.001146 0.011162 0.000000 0.000000 0.000000
# 4 0.000000 0.000000 0.000000 0.013734 0.000000 0.000000
# 5 0.000000 0.000000 0.000000 0.000000 0.015538 0.000000
# 6 0.000000 0.000000 0.000000 0.000000 0.000000 0.023593
#
#
# Mechanical properties :
#
#
# Convention : Reuss Voigt Hill
#
# Bulk Modulus (GPa) = 49.64612 84.41166 67.02889
# Shear Modulus (GPa) = 61.10893 74.83636 67.97264
#
# Velocity S-wave (km/s) = 4.74717 5.25338 5.00668
# Velocity P-wave (km/s) = 6.95384 8.24175 7.62504
#
# Compressibility (1/GPa) = 0.02014256
#
# Stress axis : x y z
#
# Youngs Moduli (GPa) = 384.07628 134.65931 89.58734
#
# Poissons Ratio (x) = 0.12732 0.06497
# Poissons Ratio (y) = 0.36314 -0.10266
# Poissons Ratio (z) = 0.27853 -0.15431
#
# Static dielectric constant tensor:
#      x y z
#    x 2.160050 0.000000 0.000000 
#    y 0.000000 2.015430 0.000000 
#    z 0.000000 0.000000 2.277520 
# 
# From -- ./inp_files/20753.got.cif
#   From: 2010.05.17/outbox.cif.g08.bks.cpg/sg74_11_cif.got.tgz:20753.got - 2010.06.03 17:57:02.
