data_PCOD9534954
_publ_section_title
;
Structure prediction by ZEFSAII (Michael W. Deem and Ramdas Pophale) SiO2 
 PCOD9534954
Probable space group: I M M A
;
_chemical_formula_sum "Si O2"
_cell_formula_units_Z 96
_cell_length_a 14.695290
_cell_length_b 12.044663
_cell_length_c 25.747139
_cell_angle_alpha 90.000000
_cell_angle_beta 90.000000
_cell_angle_gamma 90.000000
_cell_volume 4557.238859
_symmetry_space_group_name_H-M "I M M A"
_symmetry_group_IT_number 74
_symmetry_cell_setting 'orthorhombic'
loop_
_space_group_symop_operation_xyz
x,y,z
-x,1/2-y,z
x,-y,-z
-x,1/2+y,-z
-x,-y,-z
x,1/2+y,-z
-x,y,z
x,1/2-y,z
1/2+x,1/2+y,1/2+z
1/2-x,-y,1/2+z
1/2+x,1/2-y,1/2-z
1/2-x,y,1/2-z
1/2-x,1/2-y,1/2-z
1/2+x,y,1/2-z
1/2-x,1/2+y,1/2+z
1/2+x,-y,1/2+z
loop_
_atom_site_type_symbol
_atom_site_label
_atom_site_fract_x
_atom_site_fract_y
_atom_site_fract_z
Si Si1 0.861493 0.008757 0.753442
Si Si2 0.388744 0.750000 0.111123
Si Si3 0.606625 0.380864 0.475212
Si Si4 0.105285 0.967313 0.444860
Si Si5 0.146253 0.250000 0.731677
Si Si6 0.857200 0.624890 0.853895
Si Si7 0.362486 0.376898 0.150313
O O1 0.750000 0.008108 0.750000
O O2 0.894148 0.134699 0.750504
O O3 0.888754 0.953857 0.807581
O O4 0.891330 0.942797 0.701911
O O5 0.500000 0.750000 0.113410
O O6 0.354071 0.858766 0.081735
O O7 0.356065 0.750000 0.169688
O O8 0.640798 0.500000 0.500000
O O9 0.500000 0.375164 0.489589
O O10 0.642227 0.250000 0.484935
O O11 0.614955 0.397996 0.412967
O O12 0.000000 0.937391 0.455412
O O13 0.146484 0.000000 0.500000
O O14 0.106893 0.063792 0.402377
O O15 0.250000 0.250000 0.750000
O O16 0.886428 0.750000 0.841303
O O17 0.747303 0.621773 0.851995
O O18 0.392244 0.250000 0.152838
#
# Coordination Sequence:
#
# PCOD9534954 Si02
#       7
#    16   8  16  16   8  16  16
#     4   9  17  31  51  76 104 135 169 208 257 312
#     4  10  20  38  58  78 108 144 179 224 280 325
#     4   9  18  35  58  79 105 141 178 220 271 325
#     4  10  22  37  54  74 102 141 180 219 265 318
#     4  10  18  32  56  78 106 140 180 214 264 326
#     4   9  18  33  53  77 108 137 172 214 265 319
#     4  10  19  32  53  77 104 135 173 218 262 307
#
# _framework density 21.065387999999999
#
# number of rings (size 3 to 8) (size 9 to 14) (size 15 to 20)
#    0.000    2.500    1.667    0.500    1.167    3.000 
#    1.500    1.667    0.000    2.000    0.000    0.000 
#    0.000    0.000    0.000    0.000    0.000    0.000 
#
# Total GULP energy -267661.718055 kJ/mol
# GULP energy per Si atom -5576.285793 kJ/mol
# Density = 2.101744 g / cm^3
# Si number density = 21.065388 Si / 1000 Ang^3
#
#
#
# Elastic Constant Matrix: (Units=GPa)
#
#
# Indices 1 2 3 4 5 6 
#
# 1 60.2565 5.0622 4.1817 0.0000 0.0000 0.0000
# 2 5.0622 211.8016 115.0931 0.0000 0.0000 0.0000
# 3 4.1817 115.0931 161.8375 0.0000 0.0000 0.0000
# 4 0.0000 0.0000 0.0000 36.3242 0.0000 0.0000
# 5 0.0000 0.0000 0.0000 0.0000 15.9010 0.0000
# 6 0.0000 0.0000 0.0000 0.0000 0.0000 5.7091
#
#
#
# Elastic Compliance Matrix: (Units=1/GPa)
#
#
# Indices 1 2 3 4 5 6 
#
# 1 0.016635 -0.000267 -0.000240 0.000000 0.000000 0.000000
# 2 -0.000267 0.007699 -0.005469 0.000000 0.000000 0.000000
# 3 -0.000240 -0.005469 0.010074 0.000000 0.000000 0.000000
# 4 0.000000 0.000000 0.000000 0.027530 0.000000 0.000000
# 5 0.000000 0.000000 0.000000 0.000000 0.062889 0.000000
# 6 0.000000 0.000000 0.000000 0.000000 0.000000 0.175159
#
#
# Mechanical properties :
#
#
# Convention : Reuss Voigt Hill
#
# Bulk Modulus (GPa) = 44.52911 75.84106 60.18508
# Shear Modulus (GPa) = 15.65320 32.22410 23.93865
#
# Velocity S-wave (km/s) = 2.72890 3.91540 3.37471
# Velocity P-wave (km/s) = 5.57796 7.51807 6.61948
#
# Compressibility (1/GPa) = 0.02245722
#
# Stress axis : x y z
#
# Youngs Moduli (GPa) = 60.11486 129.87905 99.26187
#
# Poissons Ratio (x) = 0.03472 0.02379
# Poissons Ratio (y) = 0.01607 0.54283
# Poissons Ratio (z) = 0.01441 0.71027
#
# Static dielectric constant tensor:
#      x y z
#    x 1.799930 0.000000 0.000000 
#    y 0.000000 1.800860 0.000000 
#    z 0.000000 0.000000 1.694290 
# 
# From -- ./inp_files/50803.got.cif
#   From: 2010.05.17/outbox.cif.g08.bks.cpg/sg74_26_cif.got.tgz:50803.got - 2010.06.03 17:57:02.
