data_PCOD9534936
_publ_section_title
;
Structure prediction by ZEFSAII (Michael W. Deem and Ramdas Pophale) SiO2 
 PCOD9534936
Probable space group: I M M A
;
_chemical_formula_sum "Si O2"
_cell_formula_units_Z 48
_cell_length_a 11.429952
_cell_length_b 13.916272
_cell_length_c 14.469333
_cell_angle_alpha 90.000000
_cell_angle_beta 90.000000
_cell_angle_gamma 90.000000
_cell_volume 2301.525690
_symmetry_space_group_name_H-M "I M M A"
_symmetry_group_IT_number 74
_symmetry_cell_setting 'orthorhombic'
loop_
_space_group_symop_operation_xyz
x,y,z
-x,1/2-y,z
x,-y,-z
-x,1/2+y,-z
-x,-y,-z
x,1/2+y,-z
-x,y,z
x,1/2-y,z
1/2+x,1/2+y,1/2+z
1/2-x,-y,1/2+z
1/2+x,1/2-y,1/2-z
1/2-x,y,1/2-z
1/2-x,1/2-y,1/2-z
1/2+x,y,1/2-z
1/2-x,1/2+y,1/2+z
1/2+x,-y,1/2+z
loop_
_atom_site_type_symbol
_atom_site_label
_atom_site_fract_x
_atom_site_fract_y
_atom_site_fract_z
Si Si1 0.000000 0.750000 0.774878
Si Si2 0.813940 0.250000 0.391133
Si Si3 0.249485 0.540745 0.862072
Si Si4 0.000000 0.250000 0.553031
Si Si5 0.500000 0.029835 0.347987
Si Si6 0.000000 0.543526 0.360918
O O1 0.891738 0.750000 0.702545
O O2 0.000000 0.853494 0.827063
O O3 0.745138 0.151793 0.389198
O O4 0.892088 0.250000 0.482471
O O5 0.250000 0.533536 0.750000
O O6 0.123849 0.499305 0.892179
O O7 0.375789 0.501104 0.894662
O O8 0.000000 0.154632 0.613764
O O9 0.500000 0.979992 0.247364
#
# Coordination Sequence:
#
# PCOD9534936 Si02
#       6
#     4   8  16   4   8   8
#     4  11  14  28  48  86 114 126 157 204 288 325
#     4  11  18  30  52  83 112 139 166 219 271 322
#     4  10  18  32  54  83 112 135 172 226 280 321
#     4  11  26  36  52  76 108 156 195 214 248 317
#     4  10  19  31  58  85 114 133 166 228 288 330
#     4  10  20  37  52  76 109 145 190 221 257 313
#
# _framework density 20.855730999999999
#
# number of rings (size 3 to 8) (size 9 to 14) (size 15 to 20)
#    0.000    1.667    6.667    2.500    0.000    2.667 
#    0.000    7.500    0.000    6.000    0.000    0.000 
#    0.000    0.000    0.000    0.000    0.000    0.000 
#
# Total GULP energy -133797.561295 kJ/mol
# GULP energy per Si atom -5574.898387 kJ/mol
# Density = 2.080826 g / cm^3
# Si number density = 20.855731 Si / 1000 Ang^3
#
#
#
# Elastic Constant Matrix: (Units=GPa)
#
#
# Indices 1 2 3 4 5 6 
#
# 1 224.7665 49.7658 24.6295 0.0000 0.0000 0.0000
# 2 49.7658 98.0455 20.2044 0.0000 0.0000 0.0000
# 3 24.6295 20.2044 69.5622 0.0000 0.0000 0.0000
# 4 0.0000 0.0000 0.0000 -0.9887 0.0000 0.0000
# 5 0.0000 0.0000 0.0000 0.0000 -10.8026 0.0000
# 6 0.0000 0.0000 0.0000 0.0000 0.0000 14.3109
#
#
#
# Elastic Compliance Matrix: (Units=1/GPa)
#
#
# Indices 1 2 3 4 5 6 
#
# 1 0.005093 -0.002354 -0.001119 0.000000 0.000000 0.000000
# 2 -0.002354 0.011937 -0.002634 0.000000 0.000000 0.000000
# 3 -0.001119 -0.002634 0.015537 0.000000 0.000000 0.000000
# 4 0.000000 0.000000 0.000000 -1.011400 0.000000 0.000000
# 5 0.000000 0.000000 0.000000 0.000000 -0.092570 0.000000
# 6 0.000000 0.000000 0.000000 0.000000 0.000000 0.069877
#
#
# Mechanical properties :
#
#
# Convention : Reuss Voigt Hill
#
# Bulk Modulus (GPa) = 49.13458 64.61930 56.87694
# Shear Modulus (GPa) = -5.08891 20.35554 7.63331
#
# Velocity S-wave (km/s) = -1.56376 3.12752 1.91520
# Velocity P-wave (km/s) = 4.51109 6.64026 5.67640
#
# Compressibility (1/GPa) = 0.02035227
#
# Stress axis : x y z
#
# Youngs Moduli (GPa) = 196.34704 83.77245 64.36298
#
# Poissons Ratio (x) = 0.19724 0.07205
# Poissons Ratio (y) = 0.46229 0.16950
# Poissons Ratio (z) = 0.21979 0.22062
#
# Static dielectric constant tensor:
#      x y z
#    x 1.907610 0.000000 0.000000 
#    y 0.000000 1.701930 0.000000 
#    z 0.000000 0.000000 1.722050 
# 
# From -- ./inp_files/29860.got.cif
#   From: 2010.05.17/outbox.cif.g08.bks.cpg/sg74_15_cif.got.tgz:29860.got - 2010.06.03 17:57:02.
