data_PCOD9534754
_publ_section_title
;
Structure prediction by ZEFSAII (Michael W. Deem and Ramdas Pophale) SiO2 
 PCOD9534754
Probable space group: I M M A
;
_chemical_formula_sum "Si O2"
_cell_formula_units_Z 112
_cell_length_a 17.910532
_cell_length_b 17.325456
_cell_length_c 20.676444
_cell_angle_alpha 90.000000
_cell_angle_beta 90.000000
_cell_angle_gamma 90.000000
_cell_volume 6416.068758
_symmetry_space_group_name_H-M "I M M A"
_symmetry_group_IT_number 74
_symmetry_cell_setting 'orthorhombic'
loop_
_space_group_symop_operation_xyz
x,y,z
-x,1/2-y,z
x,-y,-z
-x,1/2+y,-z
-x,-y,-z
x,1/2+y,-z
-x,y,z
x,1/2-y,z
1/2+x,1/2+y,1/2+z
1/2-x,-y,1/2+z
1/2+x,1/2-y,1/2-z
1/2-x,y,1/2-z
1/2-x,1/2-y,1/2-z
1/2+x,y,1/2-z
1/2-x,1/2+y,1/2+z
1/2+x,-y,1/2+z
loop_
_atom_site_type_symbol
_atom_site_label
_atom_site_fract_x
_atom_site_fract_y
_atom_site_fract_z
Si Si1 0.213373 0.485879 0.076810
Si Si2 0.416100 0.337654 0.001580
Si Si3 0.912423 0.472736 0.826179
Si Si4 0.915279 0.076982 0.299657
Si Si5 0.160864 0.839887 0.255812
Si Si6 0.799386 0.661592 0.618850
Si Si7 0.634477 0.566432 0.118484
O O1 0.137239 0.508184 0.112033
O O2 0.235876 0.399486 0.099552
O O3 0.281697 0.537939 0.103592
O O4 0.210220 0.500000 0.000000
O O5 0.500000 0.347357 0.026854
O O6 0.410092 0.250000 0.974864
O O7 0.400168 0.399620 0.946406
O O8 0.357492 0.343690 0.059112
O O9 0.902172 0.537706 0.770142
O O10 0.881679 0.393987 0.794689
O O11 0.000000 0.467190 0.839897
O O12 0.848887 0.134315 0.319856
O O13 0.000000 0.108482 0.301862
O O14 0.908310 0.006520 0.351135
O O15 0.145576 0.750000 0.246020
O O16 0.250000 0.852710 0.250000
O O17 0.136561 0.868278 0.326683
O O18 0.774466 0.750000 0.625610
#
# Coordination Sequence:
#
# PCOD9534754 Si02
#       7
#    16  16  16  16  16  16  16
#     4  11  21  38  59  81 107 146 195 238 280 335
#     4  10  19  30  46  75 115 150 180 219 268 325
#     4  10  22  40  59  83 114 145 188 242 286 330
#     4   9  19  33  53  78 109 147 183 227 278 332
#     4  10  19  33  57  87 117 149 181 220 276 339
#     4  10  21  35  55  82 112 146 186 232 281 336
#     4  10  18  31  51  79 111 151 188 221 261 327
#
# _framework density 17.456171999999999
#
# number of rings (size 3 to 8) (size 9 to 14) (size 15 to 20)
#    0.000    2.000    2.857    1.286    0.000    2.000 
#    0.000    4.286    0.000    1.286    0.000    0.000 
#    0.000    0.000    0.000    0.000    0.000    0.000 
#
# Total GULP energy -312536.708010 kJ/mol
# GULP energy per Si atom -5581.012643 kJ/mol
# Density = 1.741644 g / cm^3
# Si number density = 17.456172 Si / 1000 Ang^3
#
#
#
# Elastic Constant Matrix: (Units=GPa)
#
#
# Indices 1 2 3 4 5 6 
#
# 1 95.0104 45.7895 41.1225 0.0000 0.0000 0.0000
# 2 45.7895 80.9397 28.4157 0.0000 0.0000 0.0000
# 3 41.1225 28.4157 57.0560 0.0000 0.0000 0.0000
# 4 0.0000 0.0000 0.0000 11.7618 0.0000 0.0000
# 5 0.0000 0.0000 0.0000 0.0000 16.5613 0.0000
# 6 0.0000 0.0000 0.0000 0.0000 0.0000 12.6942
#
#
#
# Elastic Compliance Matrix: (Units=1/GPa)
#
#
# Indices 1 2 3 4 5 6 
#
# 1 0.017927 -0.006794 -0.009537 0.000000 0.000000 0.000000
# 2 -0.006794 0.017547 -0.003843 0.000000 0.000000 0.000000
# 3 -0.009537 -0.003843 0.026314 0.000000 0.000000 0.000000
# 4 0.000000 0.000000 0.000000 0.085021 0.000000 0.000000
# 5 0.000000 0.000000 0.000000 0.000000 0.060382 0.000000
# 6 0.000000 0.000000 0.000000 0.000000 0.000000 0.078776
#
#
# Mechanical properties :
#
#
# Convention : Reuss Voigt Hill
#
# Bulk Modulus (GPa) = 46.63857 51.51797 49.07827
# Shear Modulus (GPa) = 14.99420 16.04870 15.52145
#
# Velocity S-wave (km/s) = 2.93399 3.03540 2.98513
# Velocity P-wave (km/s) = 6.18492 6.47006 6.32910
#
# Compressibility (1/GPa) = 0.02144148
#
# Stress axis : x y z
#
# Youngs Moduli (GPa) = 55.78096 56.98915 38.00193
#
# Poissons Ratio (x) = 0.38716 0.36244
# Poissons Ratio (y) = 0.37895 0.14603
# Poissons Ratio (z) = 0.53201 0.21899
#
# Static dielectric constant tensor:
#      x y z
#    x 1.572920 0.000000 0.000000 
#    y 0.000000 1.605280 0.000000 
#    z 0.000000 0.000000 1.577760 
# 
# From -- ./inp_files/53270.got.cif
#   From: 2010.05.17/outbox.cif.g08.bks.cpg/sg74_27_cif.got.tgz:53270.got - 2010.06.03 17:57:02.
