data_PCOD9534497
_publ_section_title
;
Structure prediction by ZEFSAII (Michael W. Deem and Ramdas Pophale) SiO2 
 PCOD9534497
Probable space group: I M M A
;
_chemical_formula_sum "Si O2"
_cell_formula_units_Z 88
_cell_length_a 19.687344
_cell_length_b 8.449189
_cell_length_c 28.174278
_cell_angle_alpha 90.000000
_cell_angle_beta 90.000000
_cell_angle_gamma 90.000000
_cell_volume 4686.568297
_symmetry_space_group_name_H-M "I M M A"
_symmetry_group_IT_number 74
_symmetry_cell_setting 'orthorhombic'
loop_
_space_group_symop_operation_xyz
x,y,z
-x,1/2-y,z
x,-y,-z
-x,1/2+y,-z
-x,-y,-z
x,1/2+y,-z
-x,y,z
x,1/2-y,z
1/2+x,1/2+y,1/2+z
1/2-x,-y,1/2+z
1/2+x,1/2-y,1/2-z
1/2-x,y,1/2-z
1/2-x,1/2-y,1/2-z
1/2+x,y,1/2-z
1/2-x,1/2+y,1/2+z
1/2+x,-y,1/2+z
loop_
_atom_site_type_symbol
_atom_site_label
_atom_site_fract_x
_atom_site_fract_y
_atom_site_fract_z
Si Si1 0.189989 0.566042 0.692364
Si Si2 0.828541 0.061492 0.847149
Si Si3 0.500000 0.442452 0.053294
Si Si4 0.213019 0.560196 0.949429
Si Si5 0.922783 0.941077 0.234903
Si Si6 0.644133 0.063803 0.084147
O O1 0.201371 0.750000 0.703796
O O2 0.263244 0.484155 0.685582
O O3 0.133886 0.497495 0.727741
O O4 0.159598 0.554995 0.639557
O O5 0.828537 0.250000 0.852564
O O6 0.894469 0.011921 0.817011
O O7 0.822225 0.988721 0.899774
O O8 0.500000 0.750000 0.942756
O O9 0.429794 0.504467 0.074893
O O10 0.500000 0.500000 0.000000
O O11 0.214215 0.750000 0.950458
O O12 0.290690 0.496165 0.943247
O O13 0.185583 0.500000 0.000000
O O14 0.923702 0.750000 0.236492
O O15 0.000000 0.997436 0.243932
O O16 0.641625 0.250000 0.071061
#
# Coordination Sequence:
#
# PCOD9534497 Si02
#       6
#    16  16   8  16  16  16
#     4  10  20  34  54  80 107 140 181 224 268 318
#     4  10  20  36  57  79 107 144 179 220 273 321
#     4  10  18  30  44  60  90 130 170 208 251 298
#     4  10  19  33  53  79 106 134 174 222 269 321
#     4  10  22  38  55  78 109 143 180 222 271 329
#     4   8  17  30  46  68  98 133 170 212 254 303
#
# _framework density 18.777066000000001
#
# number of rings (size 3 to 8) (size 9 to 14) (size 15 to 20)
#    0.000    2.364    0.000    3.818    1.273    4.000 
#    0.000    4.545    0.000    0.545    0.000    0.000 
#    0.000    0.000    0.000    0.000    0.000    0.000 
#
# Total GULP energy -245222.163736 kJ/mol
# GULP energy per Si atom -5573.230994 kJ/mol
# Density = 1.873433 g / cm^3
# Si number density = 18.777066 Si / 1000 Ang^3
#
#
#
# Elastic Constant Matrix: (Units=GPa)
#
#
# Indices 1 2 3 4 5 6 
#
# 1 45.2441 11.5549 32.3083 0.0000 0.0000 0.0000
# 2 11.5549 34.6670 19.9093 0.0000 0.0000 0.0000
# 3 32.3083 19.9093 90.3413 0.0000 0.0000 0.0000
# 4 0.0000 0.0000 0.0000 30.2230 0.0000 0.0000
# 5 0.0000 0.0000 0.0000 0.0000 9.0245 0.0000
# 6 0.0000 0.0000 0.0000 0.0000 0.0000 11.1776
#
#
#
# Elastic Compliance Matrix: (Units=1/GPa)
#
#
# Indices 1 2 3 4 5 6 
#
# 1 0.030266 -0.004433 -0.009847 0.000000 0.000000 0.000000
# 2 -0.004433 0.033675 -0.005836 0.000000 0.000000 0.000000
# 3 -0.009847 -0.005836 0.015877 0.000000 0.000000 0.000000
# 4 0.000000 0.000000 0.000000 0.033087 0.000000 0.000000
# 5 0.000000 0.000000 0.000000 0.000000 0.110809 0.000000
# 6 0.000000 0.000000 0.000000 0.000000 0.000000 0.089464
#
#
# Mechanical properties :
#
#
# Convention : Reuss Voigt Hill
#
# Bulk Modulus (GPa) = 25.26130 33.08859 29.17494
# Shear Modulus (GPa) = 13.63863 17.18369 15.41116
#
# Velocity S-wave (km/s) = 2.69800 3.02841 2.86797
# Velocity P-wave (km/s) = 4.81540 5.46703 5.15153
#
# Compressibility (1/GPa) = 0.03958625
#
# Stress axis : x y z
#
# Youngs Moduli (GPa) = 33.04033 29.69560 62.98510
#
# Poissons Ratio (x) = 0.13164 0.62021
# Poissons Ratio (y) = 0.14646 0.36758
# Poissons Ratio (z) = 0.32535 0.17330
#
# Static dielectric constant tensor:
#      x y z
#    x 1.667690 0.000000 0.000000 
#    y 0.000000 1.651220 0.000000 
#    z 0.000000 0.000000 1.653410 
# 
# From -- ./inp_files/72969.got.cif
#   From: 2010.05.17/outbox.cif.g08.bks.cpg/sg74_37_cif.got.tgz:72969.got - 2010.06.03 17:57:02.
