data_PCOD9534680
_publ_section_title
;
Structure prediction by ZEFSAII (Michael W. Deem and Ramdas Pophale) SiO2 
 PCOD9534680
Probable space group: I M M A
;
_chemical_formula_sum "Si O2"
_cell_formula_units_Z 80
_cell_length_a 19.729779
_cell_length_b 8.482761
_cell_length_c 33.932320
_cell_angle_alpha 90.000000
_cell_angle_beta 90.000000
_cell_angle_gamma 90.000000
_cell_volume 5679.014867
_symmetry_space_group_name_H-M "I M M A"
_symmetry_group_IT_number 74
_symmetry_cell_setting 'orthorhombic'
loop_
_space_group_symop_operation_xyz
x,y,z
-x,1/2-y,z
x,-y,-z
-x,1/2+y,-z
-x,-y,-z
x,1/2+y,-z
-x,y,z
x,1/2-y,z
1/2+x,1/2+y,1/2+z
1/2-x,-y,1/2+z
1/2+x,1/2-y,1/2-z
1/2-x,y,1/2-z
1/2-x,1/2-y,1/2-z
1/2+x,y,1/2-z
1/2-x,1/2+y,1/2+z
1/2+x,-y,1/2+z
loop_
_atom_site_type_symbol
_atom_site_label
_atom_site_fract_x
_atom_site_fract_y
_atom_site_fract_z
Si Si1 0.636287 0.561075 0.121991
Si Si2 0.000000 0.942192 0.242555
Si Si3 0.500000 0.058310 0.833236
Si Si4 0.350562 0.438396 0.730701
Si Si5 0.281574 0.063963 0.191421
Si Si6 0.578415 0.561130 0.956441
O O1 0.639695 0.750000 0.123134
O O2 0.567384 0.507452 0.144205
O O3 0.696654 0.491538 0.148180
O O4 0.627112 0.504698 0.077366
O O5 0.000000 0.994447 0.288130
O O6 0.928127 0.990458 0.224307
O O7 0.000000 0.750000 0.242771
O O8 0.500000 0.250000 0.833049
O O9 0.345996 0.250000 0.725872
O O10 0.328240 0.478115 0.775628
O O11 0.295024 0.519175 0.703047
O O12 0.291228 0.250000 0.195669
O O13 0.500000 0.509690 0.948371
O O14 0.579823 0.750000 0.956014
O O15 0.595517 0.500000 0.000000
#
# Coordination Sequence:
#
# PCOD9534680 Si02
#       6
#    16   8   8  16  16  16
#     4  11  19  31  48  63  82 113 149 186 222 261
#     4   9  16  28  46  65  81 104 145 188 220 257
#     4   9  16  26  41  63  82 104 145 186 219 254
#     4  10  18  31  47  62  81 111 145 181 221 264
#     4  11  21  31  41  61  88 113 142 181 221 263
#     4  10  20  32  45  64  88 114 144 180 221 262
#
# _framework density 14.086949000000001
#
# number of rings (size 3 to 8) (size 9 to 14) (size 15 to 20)
#    0.000    1.800    3.000    4.800    0.000    0.800 
#    0.000    3.000    0.000    0.000    0.000    0.000 
#    0.000    0.000    0.000    0.900    0.000   11.400 
#
# Total GULP energy -223170.563865 kJ/mol
# GULP energy per Si atom -5579.264097 kJ/mol
# Density = 1.405489 g / cm^3
# Si number density = 14.086949 Si / 1000 Ang^3
#
#
#
# Elastic Constant Matrix: (Units=GPa)
#
#
# Indices 1 2 3 4 5 6 
#
# 1 77.8879 3.9385 33.8245 0.0000 0.0000 0.0000
# 2 3.9385 35.0087 11.9252 0.0000 0.0000 0.0000
# 3 33.8245 11.9252 84.9580 0.0000 0.0000 0.0000
# 4 0.0000 0.0000 0.0000 21.0186 0.0000 0.0000
# 5 0.0000 0.0000 0.0000 0.0000 23.8428 0.0000
# 6 0.0000 0.0000 0.0000 0.0000 0.0000 5.2968
#
#
#
# Elastic Compliance Matrix: (Units=1/GPa)
#
#
# Indices 1 2 3 4 5 6 
#
# 1 0.015528 0.000377 -0.006235 0.000000 0.000000 0.000000
# 2 0.000377 0.030008 -0.004362 0.000000 0.000000 0.000000
# 3 -0.006235 -0.004362 0.014865 0.000000 0.000000 0.000000
# 4 0.000000 0.000000 0.000000 0.047577 0.000000 0.000000
# 5 0.000000 0.000000 0.000000 0.000000 0.041941 0.000000
# 6 0.000000 0.000000 0.000000 0.000000 0.000000 0.188792
#
#
# Mechanical properties :
#
#
# Convention : Reuss Voigt Hill
#
# Bulk Modulus (GPa) = 25.02483 33.02568 29.02526
# Shear Modulus (GPa) = 13.42385 19.90942 16.66663
#
# Velocity S-wave (km/s) = 3.09030 3.76350 3.44339
# Velocity P-wave (km/s) = 5.52598 6.51001 6.03807
#
# Compressibility (1/GPa) = 0.03996031
#
# Stress axis : x y z
#
# Youngs Moduli (GPa) = 64.40160 33.32462 67.27144
#
# Poissons Ratio (x) = -0.01256 0.41943
# Poissons Ratio (y) = -0.02428 0.29345
# Poissons Ratio (z) = 0.40154 0.14537
#
# Static dielectric constant tensor:
#      x y z
#    x 1.472550 0.000000 0.000000 
#    y 0.000000 1.470440 0.000000 
#    z 0.000000 0.000000 1.450120 
# 
# From -- ./inp_files/73249.got.cif
#   From: 2010.05.17/outbox.cif.g08.bks.cpg/sg74_37_cif.got.tgz:73249.got - 2010.06.03 17:57:02.
