data_PCOD9534268
_publ_section_title
;
Structure prediction by ZEFSAII (Michael W. Deem and Ramdas Pophale) SiO2 
 PCOD9534268
Probable space group: I M M A
;
_chemical_formula_sum "Si O2"
_cell_formula_units_Z 104
_cell_length_a 26.945996
_cell_length_b 7.336751
_cell_length_c 24.326129
_cell_angle_alpha 90.000000
_cell_angle_beta 90.000000
_cell_angle_gamma 90.000000
_cell_volume 4809.179934
_symmetry_space_group_name_H-M "I M M A"
_symmetry_group_IT_number 74
_symmetry_cell_setting 'orthorhombic'
loop_
_space_group_symop_operation_xyz
x,y,z
-x,1/2-y,z
x,-y,-z
-x,1/2+y,-z
-x,-y,-z
x,1/2+y,-z
-x,y,z
x,1/2-y,z
1/2+x,1/2+y,1/2+z
1/2-x,-y,1/2+z
1/2+x,1/2-y,1/2-z
1/2-x,y,1/2-z
1/2-x,1/2-y,1/2-z
1/2+x,y,1/2-z
1/2-x,1/2+y,1/2+z
1/2+x,-y,1/2+z
loop_
_atom_site_type_symbol
_atom_site_label
_atom_site_fract_x
_atom_site_fract_y
_atom_site_fract_z
Si Si1 0.500000 0.467414 0.935486
Si Si2 0.057277 0.467916 0.935583
Si Si3 0.297939 0.034080 0.940913
Si Si4 0.751899 0.972440 0.171213
Si Si5 0.867318 0.528702 0.160699
Si Si6 0.103549 0.972579 0.393418
Si Si7 0.350455 0.971264 0.221985
O O1 0.500000 0.250000 0.926757
O O2 0.549987 0.540216 0.909148
O O3 0.500000 0.500000 0.000000
O O4 0.055388 0.250000 0.929088
O O5 0.097196 0.534275 0.889470
O O6 0.000000 0.534979 0.927955
O O7 0.071082 0.500000 0.000000
O O8 0.299137 0.250000 0.934042
O O9 0.270065 0.967491 0.887457
O O10 0.354343 0.967180 0.936338
O O11 0.275111 0.000000 0.000000
O O12 0.753525 0.750000 0.175914
O O13 0.809293 0.027984 0.164698
O O14 0.707899 0.027245 0.214398
O O15 0.867422 0.750000 0.156532
O O16 0.880754 0.476127 0.223455
O O17 0.102585 0.750000 0.393887
O O18 0.121897 0.027143 0.333253
O O19 0.348501 0.750000 0.222711
#
# Coordination Sequence:
#
# PCOD9534268 Si02
#       7
#     8  16  16  16  16  16  16
#     4  10  18  28  42  60  82 110 143 172 202 242
#     4   9  18  32  47  65  90 116 142 176 216 257
#     4   9  16  26  39  56  81 109 138 170 205 243
#     4   8  14  23  37  58  85 113 138 169 210 255
#     4   9  15  24  41  64  86 110 141 173 207 251
#     4   8  15  26  38  56  82 109 135 169 210 247
#     4   8  13  23  38  59  87 113 135 167 215 258
#
# _framework density 21.625309000000001
#
# number of rings (size 3 to 8) (size 9 to 14) (size 15 to 20)
#    0.000    3.385    0.000    2.769    0.000    2.462 
#    1.385    0.000    0.000    0.000    0.000    5.385 
#    0.000    6.154    0.000    0.000    0.000    0.000 
#
# Total GULP energy -289489.092240 kJ/mol
# GULP energy per Si atom -5567.097928 kJ/mol
# Density = 2.157609 g / cm^3
# Si number density = 21.625309 Si / 1000 Ang^3
#
#
#
# Elastic Constant Matrix: (Units=GPa)
#
#
# Indices 1 2 3 4 5 6 
#
# 1 120.3997 2.4979 80.2124 0.0000 0.0000 0.0000
# 2 2.4979 79.9830 -5.3864 0.0000 0.0000 0.0000
# 3 80.2124 -5.3864 164.0617 0.0000 0.0000 0.0000
# 4 0.0000 0.0000 0.0000 9.0540 0.0000 0.0000
# 5 0.0000 0.0000 0.0000 0.0000 22.8234 0.0000
# 6 0.0000 0.0000 0.0000 0.0000 0.0000 -14.2412
#
#
#
# Elastic Compliance Matrix: (Units=1/GPa)
#
#
# Indices 1 2 3 4 5 6 
#
# 1 0.012368 -0.000795 -0.006073 0.000000 0.000000 0.000000
# 2 -0.000795 0.012582 0.000802 0.000000 0.000000 0.000000
# 3 -0.006073 0.000802 0.009091 0.000000 0.000000 0.000000
# 4 0.000000 0.000000 0.000000 0.110449 0.000000 0.000000
# 5 0.000000 0.000000 0.000000 0.000000 0.043815 0.000000
# 6 0.000000 0.000000 0.000000 0.000000 0.000000 -0.070219
#
#
# Mechanical properties :
#
#
# Convention : Reuss Voigt Hill
#
# Bulk Modulus (GPa) = 45.64637 57.67693 51.66165
# Shear Modulus (GPa) = 36.35823 22.66861 29.51342
#
# Velocity S-wave (km/s) = 4.10479 3.24117 3.69828
# Velocity P-wave (km/s) = 6.60450 6.38247 6.49443
#
# Compressibility (1/GPa) = 0.02190755
#
# Stress axis : x y z
#
# Youngs Moduli (GPa) = 80.85255 79.48177 110.00083
#
# Poissons Ratio (x) = 0.06321 0.66805
# Poissons Ratio (y) = 0.06430 -0.08821
# Poissons Ratio (z) = 0.49103 -0.06374
#
# Static dielectric constant tensor:
#      x y z
#    x 1.792930 0.000000 0.000000 
#    y 0.000000 1.858160 0.000000 
#    z 0.000000 0.000000 1.820320 
# 
# From -- ./inp_files/55735.got.cif
#   From: 2010.05.17/outbox.cif.g08.bks.cpg/sg74_28_cif.got.tgz:55735.got - 2010.06.03 17:57:02.
