data_PCOD9534089
_publ_section_title
;
Structure prediction by ZEFSAII (Michael W. Deem and Ramdas Pophale) SiO2 
 PCOD9534089
Probable space group: I M M A
;
_chemical_formula_sum "Si O2"
_cell_formula_units_Z 120
_cell_length_a 15.386626
_cell_length_b 14.488413
_cell_length_c 27.202027
_cell_angle_alpha 90.000000
_cell_angle_beta 90.000000
_cell_angle_gamma 90.000000
_cell_volume 6064.087822
_symmetry_space_group_name_H-M "I M M A"
_symmetry_group_IT_number 74
_symmetry_cell_setting 'orthorhombic'
loop_
_space_group_symop_operation_xyz
x,y,z
-x,1/2-y,z
x,-y,-z
-x,1/2+y,-z
-x,-y,-z
x,1/2+y,-z
-x,y,z
x,1/2-y,z
1/2+x,1/2+y,1/2+z
1/2-x,-y,1/2+z
1/2+x,1/2-y,1/2-z
1/2-x,y,1/2-z
1/2-x,1/2-y,1/2-z
1/2+x,y,1/2-z
1/2-x,1/2+y,1/2+z
1/2+x,-y,1/2+z
loop_
_atom_site_type_symbol
_atom_site_label
_atom_site_fract_x
_atom_site_fract_y
_atom_site_fract_z
Si Si1 0.096892 0.005438 0.171184
Si Si2 0.895609 0.352498 0.749067
Si Si3 0.276036 0.859991 0.617616
Si Si4 0.138804 0.854623 0.096402
Si Si5 0.834513 0.648323 0.359693
Si Si6 0.858738 0.500000 0.500000
Si Si7 0.212527 0.141820 0.004080
Si Si8 0.906478 0.956319 0.606385
O O1 0.124139 0.938536 0.215985
O O2 0.092164 0.934097 0.125830
O O3 0.000000 0.042472 0.181024
O O4 0.164578 0.083685 0.155466
O O5 0.881337 0.250000 0.771958
O O6 0.839803 0.355555 0.699461
O O7 0.000000 0.357121 0.737651
O O8 0.281610 0.750000 0.624093
O O9 0.305214 0.882617 0.560971
O O10 0.176660 0.895337 0.620964
O O11 0.107230 0.750000 0.104552
O O12 0.237792 0.858250 0.117969
O O13 0.140933 0.872396 0.037881
O O14 0.869133 0.750000 0.373941
O O15 0.889112 0.560772 0.376652
O O16 0.794201 0.582987 0.486019
O O17 0.907448 0.463691 0.452646
O O18 0.234068 0.250000 0.003442
O O19 0.000000 0.922912 0.624623
#
# Coordination Sequence:
#
# PCOD9534089 Si02
#       8
#    16  16  16  16  16   8  16  16
#     4  11  22  38  59  83 111 150 195 243 296 347
#     4   9  19  35  56  87 124 156 186 227 283 349
#     4  10  22  41  60  79 107 148 198 250 296 336
#     4  10  18  32  55  86 118 152 188 222 276 347
#     4  10  19  34  58  87 121 156 186 217 269 344
#     4  10  17  30  48  78 115 150 195 234 270 330
#     4   9  17  32  55  77 110 153 188 232 286 336
#     4  11  21  34  55  83 117 155 192 233 282 339
#
# _framework density 19.788630999999999
#
# number of rings (size 3 to 8) (size 9 to 14) (size 15 to 20)
#    0.000    2.000    2.667    1.800    0.000    2.667 
#    0.000    3.333    0.000    6.400    0.000    1.867 
#    0.000    0.000    0.000    0.000    0.000    0.000 
#
# Total GULP energy -334685.833795 kJ/mol
# GULP energy per Si atom -5578.097230 kJ/mol
# Density = 1.974359 g / cm^3
# Si number density = 19.788631 Si / 1000 Ang^3
#
#
#
# Elastic Constant Matrix: (Units=GPa)
#
#
# Indices 1 2 3 4 5 6 
#
# 1 73.1805 38.1025 32.0749 0.0000 0.0000 0.0000
# 2 38.1025 85.3618 35.9193 0.0000 0.0000 0.0000
# 3 32.0749 35.9193 67.1702 0.0000 0.0000 0.0000
# 4 0.0000 0.0000 0.0000 32.8054 0.0000 0.0000
# 5 0.0000 0.0000 0.0000 0.0000 43.7433 0.0000
# 6 0.0000 0.0000 0.0000 0.0000 0.0000 33.1248
#
#
#
# Elastic Compliance Matrix: (Units=1/GPa)
#
#
# Indices 1 2 3 4 5 6 
#
# 1 0.019520 -0.006182 -0.006015 0.000000 0.000000 0.000000
# 2 -0.006182 0.017074 -0.006178 0.000000 0.000000 0.000000
# 3 -0.006015 -0.006178 0.021064 0.000000 0.000000 0.000000
# 4 0.000000 0.000000 0.000000 0.030483 0.000000 0.000000
# 5 0.000000 0.000000 0.000000 0.000000 0.022861 0.000000
# 6 0.000000 0.000000 0.000000 0.000000 0.000000 0.030189
#
#
# Mechanical properties :
#
#
# Convention : Reuss Voigt Hill
#
# Bulk Modulus (GPa) = 47.83164 48.65622 48.24393
# Shear Modulus (GPa) = 27.04012 29.90909 28.47460
#
# Velocity S-wave (km/s) = 3.70056 3.89193 3.79745
# Velocity P-wave (km/s) = 6.51787 6.69608 6.60757
#
# Compressibility (1/GPa) = 0.02090666
#
# Stress axis : x y z
#
# Youngs Moduli (GPa) = 51.22939 58.56858 47.47458
#
# Poissons Ratio (x) = 0.36206 0.28558
# Poissons Ratio (y) = 0.31669 0.29332
# Poissons Ratio (z) = 0.30817 0.36186
#
# Static dielectric constant tensor:
#      x y z
#    x 1.734740 0.000000 0.000000 
#    y 0.000000 1.676090 0.000000 
#    z 0.000000 0.000000 1.732430 
# 
# From -- ./inp_files/72745.got.cif
#   From: 2010.05.17/outbox.cif.g08.bks.cpg/sg74_37_cif.got.tgz:72745.got - 2010.06.03 17:57:02.
