data_PCOD9534901
_publ_section_title
;
Structure prediction by ZEFSAII (Michael W. Deem and Ramdas Pophale) SiO2 
 PCOD9534901
Probable space group: I M M A
;
_chemical_formula_sum "Si O2"
_cell_formula_units_Z 72
_cell_length_a 8.780037
_cell_length_b 16.201861
_cell_length_c 27.965901
_cell_angle_alpha 90.000000
_cell_angle_beta 90.000000
_cell_angle_gamma 90.000000
_cell_volume 3978.231610
_symmetry_space_group_name_H-M "I M M A"
_symmetry_group_IT_number 74
_symmetry_cell_setting 'orthorhombic'
loop_
_space_group_symop_operation_xyz
x,y,z
-x,1/2-y,z
x,-y,-z
-x,1/2+y,-z
-x,-y,-z
x,1/2+y,-z
-x,y,z
x,1/2-y,z
1/2+x,1/2+y,1/2+z
1/2-x,-y,1/2+z
1/2+x,1/2-y,1/2-z
1/2-x,y,1/2-z
1/2-x,1/2-y,1/2-z
1/2+x,y,1/2-z
1/2-x,1/2+y,1/2+z
1/2+x,-y,1/2+z
loop_
_atom_site_type_symbol
_atom_site_label
_atom_site_fract_x
_atom_site_fract_y
_atom_site_fract_z
Si Si1 0.182189 0.078849 0.471022
Si Si2 0.817920 0.424231 0.357895
Si Si3 0.824578 0.250000 0.027159
Si Si4 0.322332 0.250000 0.356557
Si Si5 0.317645 0.420041 0.696505
Si Si6 0.816958 0.250000 0.695874
O O1 0.215689 0.070130 0.414656
O O2 0.247527 0.165473 0.489019
O O3 0.000000 0.082216 0.475737
O O4 0.240224 0.000000 0.500000
O O5 0.758492 0.334619 0.340876
O O6 0.734930 0.499319 0.331906
O O7 0.000000 0.429696 0.351227
O O8 0.813549 0.250000 0.085305
O O9 0.000000 0.250000 0.013815
O O10 0.500000 0.250000 0.343174
O O11 0.500000 0.413185 0.698568
O O12 0.250000 0.427574 0.750000
O O13 0.246614 0.335620 0.674805
O O14 0.750000 0.250000 0.750000
O O15 0.000000 0.250000 0.696853
#
# Coordination Sequence:
#
# PCOD9534901 Si02
#       6
#    16  16   8   8  16   8
#     4   9  18  33  53  75 100 133 171 208 247 296
#     4  10  19  33  53  77 103 133 170 210 252 298
#     4   9  17  29  48  73 100 131 167 207 250 298
#     4   9  17  31  50  73 100 133 170 206 249 302
#     4  11  21  35  54  77 104 134 169 208 252 300
#     4  10  18  32  53  76 101 132 170 207 247 298
#
# _framework density 18.098493999999999
#
# number of rings (size 3 to 8) (size 9 to 14) (size 15 to 20)
#    0.000    2.222    0.000    5.667    0.000    4.000 
#    0.000    1.667    0.000    2.667    0.000    0.000 
#    0.000    0.000    0.000    0.000    0.000    0.000 
#
# Total GULP energy -200813.510923 kJ/mol
# GULP energy per Si atom -5578.153081 kJ/mol
# Density = 1.805730 g / cm^3
# Si number density = 18.098494 Si / 1000 Ang^3
#
#
#
# Elastic Constant Matrix: (Units=GPa)
#
#
# Indices 1 2 3 4 5 6 
#
# 1 111.9997 86.6570 37.6836 0.0000 0.0000 0.0000
# 2 86.6570 219.5559 50.1408 0.0000 0.0000 0.0000
# 3 37.6836 50.1408 20.3451 0.0000 0.0000 0.0000
# 4 0.0000 0.0000 0.0000 23.9892 0.0000 0.0000
# 5 0.0000 0.0000 0.0000 0.0000 16.4551 0.0000
# 6 0.0000 0.0000 0.0000 0.0000 0.0000 27.0332
#
#
#
# Elastic Compliance Matrix: (Units=1/GPa)
#
#
# Indices 1 2 3 4 5 6 
#
# 1 0.023924 0.001549 -0.048130 0.000000 0.000000 0.000000
# 2 0.001549 0.010519 -0.028793 0.000000 0.000000 0.000000
# 3 -0.048130 -0.028793 0.209260 0.000000 0.000000 0.000000
# 4 0.000000 0.000000 0.000000 0.041685 0.000000 0.000000
# 5 0.000000 0.000000 0.000000 0.000000 0.060771 0.000000
# 6 0.000000 0.000000 0.000000 0.000000 0.000000 0.036992
#
#
# Mechanical properties :
#
#
# Convention : Reuss Voigt Hill
#
# Bulk Modulus (GPa) = 10.75795 77.87374 44.31584
# Shear Modulus (GPa) = 8.85138 25.32345 17.08742
#
# Velocity S-wave (km/s) = 2.21389 3.74465 3.07601
# Velocity P-wave (km/s) = 3.53441 7.86242 6.09548
#
# Compressibility (1/GPa) = 0.09295455
#
# Stress axis : x y z
#
# Youngs Moduli (GPa) = 41.79898 95.06801 4.77875
#
# Poissons Ratio (x) = -0.14726 0.23000
# Poissons Ratio (y) = -0.06475 0.13759
# Poissons Ratio (z) = 2.01179 2.73728
#
# Static dielectric constant tensor:
#      x y z
#    x 1.602710 0.000000 0.000000 
#    y 0.000000 1.640260 0.000000 
#    z 0.000000 0.000000 1.617630 
# 
# From -- ./inp_files/63666.got.cif
#   From: 2010.05.17/outbox.cif.g08.bks.cpg/sg74_32_cif.got.tgz:63666.got - 2010.06.03 17:57:02.
