data_PCOD9534326
_publ_section_title
;
Structure prediction by ZEFSAII (Michael W. Deem and Ramdas Pophale) SiO2 
 PCOD9534326
Probable space group: I M M A
;
_chemical_formula_sum "Si O2"
_cell_formula_units_Z 72
_cell_length_a 16.383162
_cell_length_b 8.650021
_cell_length_c 21.195389
_cell_angle_alpha 90.000000
_cell_angle_beta 90.000000
_cell_angle_gamma 90.000000
_cell_volume 3003.698095
_symmetry_space_group_name_H-M "I M M A"
_symmetry_group_IT_number 74
_symmetry_cell_setting 'orthorhombic'
loop_
_space_group_symop_operation_xyz
x,y,z
-x,1/2-y,z
x,-y,-z
-x,1/2+y,-z
-x,-y,-z
x,1/2+y,-z
-x,y,z
x,1/2-y,z
1/2+x,1/2+y,1/2+z
1/2-x,-y,1/2+z
1/2+x,1/2-y,1/2-z
1/2-x,y,1/2-z
1/2-x,1/2-y,1/2-z
1/2+x,y,1/2-z
1/2-x,1/2+y,1/2+z
1/2+x,-y,1/2+z
loop_
_atom_site_type_symbol
_atom_site_label
_atom_site_fract_x
_atom_site_fract_y
_atom_site_fract_z
Si Si1 0.849449 0.416563 0.251780
Si Si2 0.337234 0.427538 0.431568
Si Si3 0.347818 0.250000 0.756622
Si Si4 0.403190 0.250000 0.902650
Si Si5 0.500000 0.932210 0.428395
Si Si6 0.654905 0.421912 0.101945
O O1 0.875393 0.250000 0.223273
O O2 0.750000 0.416125 0.250000
O O3 0.877648 0.586030 0.229683
O O4 0.875033 0.414830 0.325753
O O5 0.320523 0.500000 0.500000
O O6 0.358204 0.250000 0.441578
O O7 0.415115 0.507744 0.401468
O O8 0.253037 0.437221 0.394425
O O9 0.250000 0.250000 0.750000
O O10 0.367960 0.250000 0.831194
O O11 0.500000 0.250000 0.901285
O O12 0.375265 0.417882 0.929122
O O13 0.500000 0.750000 0.430354
O O14 0.500000 0.000000 0.500000
O O15 0.637387 0.250000 0.073580
#
# Coordination Sequence:
#
# PCOD9534326 Si02
#       6
#    16  16   8   8   8  16
#     4   8  13  24  43  68  92 118 156 197 237 285
#     4  10  19  31  49  74 102 134 170 211 252 309
#     4   8  14  26  44  70  94 123 155 196 244 291
#     4  10  20  32  52  77 101 132 174 220 261 307
#     4  10  18  28  46  72 104 134 168 208 252 296
#     4   9  19  32  49  76 100 131 173 213 257 308
#
# _framework density 23.97045
#
# number of rings (size 3 to 8) (size 9 to 14) (size 15 to 20)
#    0.000    2.889    0.000    3.000    3.111    0.444 
#    0.000    0.000    0.000    0.667   46.222    0.000 
#    0.000    0.000    0.000    0.000    0.000    0.000 
#
# Total GULP energy -200797.102109 kJ/mol
# GULP energy per Si atom -5577.697281 kJ/mol
# Density = 2.391589 g / cm^3
# Si number density = 23.970450 Si / 1000 Ang^3
#
#
#
# Elastic Constant Matrix: (Units=GPa)
#
#
# Indices 1 2 3 4 5 6 
#
# 1 75.1446 60.5176 3.4064 0.0000 0.0000 0.0000
# 2 60.5176 323.7435 31.3082 0.0000 0.0000 0.0000
# 3 3.4064 31.3082 69.9623 0.0000 0.0000 0.0000
# 4 0.0000 0.0000 0.0000 11.6124 0.0000 0.0000
# 5 0.0000 0.0000 0.0000 0.0000 14.8040 0.0000
# 6 0.0000 0.0000 0.0000 0.0000 0.0000 19.9006
#
#
#
# Elastic Compliance Matrix: (Units=1/GPa)
#
#
# Indices 1 2 3 4 5 6 
#
# 1 0.015688 -0.002988 0.000573 0.000000 0.000000 0.000000
# 2 -0.002988 0.003798 -0.001554 0.000000 0.000000 0.000000
# 3 0.000573 -0.001554 0.014961 0.000000 0.000000 0.000000
# 4 0.000000 0.000000 0.000000 0.086115 0.000000 0.000000
# 5 0.000000 0.000000 0.000000 0.000000 0.067549 0.000000
# 6 0.000000 0.000000 0.000000 0.000000 0.000000 0.050250
#
#
# Mechanical properties :
#
#
# Convention : Reuss Voigt Hill
#
# Bulk Modulus (GPa) = 37.72266 73.25720 55.48993
# Shear Modulus (GPa) = 19.59750 34.17128 26.88439
#
# Velocity S-wave (km/s) = 2.86242 3.77975 3.35261
# Velocity P-wave (km/s) = 5.16681 7.04816 6.17950
#
# Compressibility (1/GPa) = 0.02650927
#
# Stress axis : x y z
#
# Youngs Moduli (GPa) = 63.74264 263.31720 66.84089
#
# Poissons Ratio (x) = 0.78680 -0.03832
# Poissons Ratio (y) = 0.19046 0.10387
# Poissons Ratio (z) = -0.03654 0.40919
#
# Static dielectric constant tensor:
#      x y z
#    x 1.863260 0.000000 0.000000 
#    y 0.000000 1.977510 0.000000 
#    z 0.000000 0.000000 1.901270 
# 
# From -- ./inp_files/66773.got.cif
#   From: 2010.05.17/outbox.cif.g08.bks.cpg/sg74_34_cif.got.tgz:66773.got - 2010.06.03 17:57:02.
