data_PCOD9534533
_publ_section_title
;
Structure prediction by ZEFSAII (Michael W. Deem and Ramdas Pophale) SiO2 
 PCOD9534533
Probable space group: I M M A
;
_chemical_formula_sum "Si O2"
_cell_formula_units_Z 96
_cell_length_a 21.397189
_cell_length_b 8.549069
_cell_length_c 31.766384
_cell_angle_alpha 90.000000
_cell_angle_beta 90.000000
_cell_angle_gamma 90.000000
_cell_volume 5810.898994
_symmetry_space_group_name_H-M "I M M A"
_symmetry_group_IT_number 74
_symmetry_cell_setting 'orthorhombic'
loop_
_space_group_symop_operation_xyz
x,y,z
-x,1/2-y,z
x,-y,-z
-x,1/2+y,-z
-x,-y,-z
x,1/2+y,-z
-x,y,z
x,1/2-y,z
1/2+x,1/2+y,1/2+z
1/2-x,-y,1/2+z
1/2+x,1/2-y,1/2-z
1/2-x,y,1/2-z
1/2-x,1/2-y,1/2-z
1/2+x,y,1/2-z
1/2-x,1/2+y,1/2+z
1/2+x,-y,1/2+z
loop_
_atom_site_type_symbol
_atom_site_label
_atom_site_fract_x
_atom_site_fract_y
_atom_site_fract_z
Si Si1 0.595593 0.432986 0.345907
Si Si2 0.930933 0.937383 0.245941
Si Si3 0.704461 0.936526 0.456346
Si Si4 0.566737 0.436677 0.564772
Si Si5 0.259209 0.433341 0.368191
Si Si6 0.696852 0.439498 0.216147
O O1 0.578979 0.250000 0.349620
O O2 0.573986 0.500217 0.301719
O O3 0.569708 0.526984 0.385592
O O4 0.670694 0.444860 0.349376
O O5 0.926642 0.750000 0.245593
O O6 0.000000 0.981587 0.262548
O O7 0.871440 0.005284 0.270254
O O8 0.701881 0.750000 0.457965
O O9 0.632585 0.000245 0.452531
O O10 0.731381 0.000000 0.500000
O O11 0.739279 0.985334 0.413555
O O12 0.500000 0.500399 0.548871
O O13 0.566988 0.250000 0.558251
O O14 0.246162 0.250000 0.375151
O O15 0.214981 0.493641 0.330877
O O16 0.698341 0.250000 0.216141
O O17 0.750000 0.490396 0.250000
#
# Coordination Sequence:
#
# PCOD9534533 Si02
#       6
#    16  16  16  16  16  16
#     4  10  18  30  47  67  92 125 166 210 251 292
#     4  11  23  34  45  68 103 138 171 208 248 293
#     4  10  20  33  49  68  91 121 158 201 251 299
#     4   9  18  31  44  61  88 121 159 204 251 298
#     4   9  18  33  52  72  96 123 158 206 252 296
#     4  10  19  35  55  76 100 130 169 212 253 297
#
# _framework density 16.520679999999999
#
# number of rings (size 3 to 8) (size 9 to 14) (size 15 to 20)
#    0.000    2.167    1.667    2.000    0.000    6.333 
#    0.000    0.000    0.000    0.000    0.000    0.000 
#    0.000    0.667    0.000    2.167    0.000    3.167 
#
# Total GULP energy -267719.040109 kJ/mol
# GULP energy per Si atom -5577.480002 kJ/mol
# Density = 1.648308 g / cm^3
# Si number density = 16.520680 Si / 1000 Ang^3
#
#
#
# Elastic Constant Matrix: (Units=GPa)
#
#
# Indices 1 2 3 4 5 6 
#
# 1 74.2484 12.0649 51.9852 0.0000 0.0000 0.0000
# 2 12.0649 19.7466 21.0173 0.0000 0.0000 0.0000
# 3 51.9852 21.0173 124.1330 0.0000 0.0000 0.0000
# 4 0.0000 0.0000 0.0000 20.8979 0.0000 0.0000
# 5 0.0000 0.0000 0.0000 0.0000 15.3989 0.0000
# 6 0.0000 0.0000 0.0000 0.0000 0.0000 17.8347
#
#
#
# Elastic Compliance Matrix: (Units=1/GPa)
#
#
# Indices 1 2 3 4 5 6 
#
# 1 0.019298 -0.003890 -0.007423 0.000000 0.000000 0.000000
# 2 -0.003890 0.062558 -0.008963 0.000000 0.000000 0.000000
# 3 -0.007423 -0.008963 0.012682 0.000000 0.000000 0.000000
# 4 0.000000 0.000000 0.000000 0.047852 0.000000 0.000000
# 5 0.000000 0.000000 0.000000 0.000000 0.064940 0.000000
# 6 0.000000 0.000000 0.000000 0.000000 0.000000 0.056070
#
#
# Mechanical properties :
#
#
# Convention : Reuss Voigt Hill
#
# Bulk Modulus (GPa) = 18.52327 43.14032 30.83180
# Shear Modulus (GPa) = 15.53056 19.69703 17.61380
#
# Velocity S-wave (km/s) = 3.06938 3.45667 3.26876
# Velocity P-wave (km/s) = 4.87832 6.48853 5.74016
#
# Compressibility (1/GPa) = 0.05398614
#
# Stress axis : x y z
#
# Youngs Moduli (GPa) = 51.81999 15.98517 78.85182
#
# Poissons Ratio (x) = 0.06218 0.58531
# Poissons Ratio (y) = 0.20158 0.70673
# Poissons Ratio (z) = 0.38466 0.14327
#
# Static dielectric constant tensor:
#      x y z
#    x 1.588040 0.000000 0.000000 
#    y 0.000000 1.562620 0.000000 
#    z 0.000000 0.000000 1.558560 
# 
# From -- ./inp_files/68127.got.cif
#   From: 2010.05.17/outbox.cif.g08.bks.cpg/sg74_35_cif.got.tgz:68127.got - 2010.06.03 17:57:02.
