data_PCOD9534097
_publ_section_title
;
Structure prediction by ZEFSAII (Michael W. Deem and Ramdas Pophale) SiO2 
 PCOD9534097
Probable space group: I M M A
;
_chemical_formula_sum "Si O2"
_cell_formula_units_Z 80
_cell_length_a 15.769365
_cell_length_b 23.681251
_cell_length_c 12.046752
_cell_angle_alpha 90.000000
_cell_angle_beta 90.000000
_cell_angle_gamma 90.000000
_cell_volume 4498.718475
_symmetry_space_group_name_H-M "I M M A"
_symmetry_group_IT_number 74
_symmetry_cell_setting 'orthorhombic'
loop_
_space_group_symop_operation_xyz
x,y,z
-x,1/2-y,z
x,-y,-z
-x,1/2+y,-z
-x,-y,-z
x,1/2+y,-z
-x,y,z
x,1/2-y,z
1/2+x,1/2+y,1/2+z
1/2-x,-y,1/2+z
1/2+x,1/2-y,1/2-z
1/2-x,y,1/2-z
1/2-x,1/2-y,1/2-z
1/2+x,y,1/2-z
1/2-x,1/2+y,1/2+z
1/2+x,-y,1/2+z
loop_
_atom_site_type_symbol
_atom_site_label
_atom_site_fract_x
_atom_site_fract_y
_atom_site_fract_z
Si Si1 0.347024 0.000000 0.000000
Si Si2 0.250000 0.603311 0.750000
Si Si3 0.658983 0.186025 0.813051
Si Si4 0.404289 0.897749 0.365757
Si Si5 0.903609 0.983965 0.746148
Si Si6 0.741122 0.378871 0.007608
O O1 0.398054 0.999278 0.884685
O O2 0.291186 0.943415 0.999362
O O3 0.167994 0.562855 0.766164
O O4 0.260194 0.637257 0.863627
O O5 0.627087 0.250000 0.819941
O O6 0.750000 0.187118 0.750000
O O7 0.602537 0.144873 0.738375
O O8 0.679874 0.158943 0.931839
O O9 0.500000 0.898288 0.409390
O O10 0.334650 0.878837 0.454618
O O11 0.383947 0.960052 0.317766
O O12 0.000000 0.966035 0.771861
#
# Coordination Sequence:
#
# PCOD9534097 Si02
#       6
#     8   8  16  16  16  16
#     4  10  17  30  51  72 106 144 173 208 256 316
#     4  10  22  34  49  74 107 150 178 212 256 316
#     4   9  18  33  53  74  97 129 170 215 263 313
#     4  10  19  31  51  77 103 131 168 219 272 316
#     4  10  19  30  47  75 106 139 176 212 259 318
#     4  10  19  33  52  72 104 140 179 212 261 314
#
# _framework density 17.782843
#
# number of rings (size 3 to 8) (size 9 to 14) (size 15 to 20)
#    0.000    2.200    2.000    2.700    1.400    1.200 
#    0.000    3.000    0.000    0.000    0.000    0.000 
#    0.000    2.000    0.000    0.000    0.000    0.000 
#
# Total GULP energy -223122.253832 kJ/mol
# GULP energy per Si atom -5578.056346 kJ/mol
# Density = 1.774237 g / cm^3
# Si number density = 17.782843 Si / 1000 Ang^3
#
#
#
# Elastic Constant Matrix: (Units=GPa)
#
#
# Indices 1 2 3 4 5 6 
#
# 1 61.2098 5.5734 14.1705 0.0000 0.0000 0.0000
# 2 5.5734 39.8118 23.5139 0.0000 0.0000 0.0000
# 3 14.1705 23.5139 92.6761 -0.0001 0.0000 0.0000
# 4 0.0000 0.0000 -0.0001 18.5212 0.0000 0.0000
# 5 0.0000 0.0000 0.0000 0.0000 14.4351 0.0000
# 6 0.0000 0.0000 0.0000 0.0000 0.0000 3.5971
#
#
#
# Elastic Compliance Matrix: (Units=1/GPa)
#
#
# Indices 1 2 3 4 5 6 
#
# 1 0.016970 -0.000992 -0.002343 0.000000 0.000000 0.000000
# 2 -0.000992 0.029604 -0.007359 0.000000 0.000000 0.000000
# 3 -0.002343 -0.007359 0.013016 0.000000 0.000000 0.000000
# 4 0.000000 0.000000 0.000000 0.053992 0.000000 0.000000
# 5 0.000000 0.000000 0.000000 0.000000 0.069276 0.000000
# 6 0.000000 0.000000 0.000000 0.000000 0.000000 0.278006
#
#
# Mechanical properties :
#
#
# Convention : Reuss Voigt Hill
#
# Bulk Modulus (GPa) = 26.17747 31.13480 28.65613
# Shear Modulus (GPa) = 10.10131 17.34000 13.72065
#
# Velocity S-wave (km/s) = 2.38594 3.12604 2.78072
# Velocity P-wave (km/s) = 4.72682 5.52954 5.14387
#
# Compressibility (1/GPa) = 0.03820079
#
# Stress axis : x y z
#
# Youngs Moduli (GPa) = 58.92750 33.77960 76.82976
#
# Poissons Ratio (x) = 0.03350 0.18002
# Poissons Ratio (y) = 0.05844 0.56542
# Poissons Ratio (z) = 0.13808 0.24860
#
# Static dielectric constant tensor:
#      x y z
#    x 1.613330 0.000000 0.000000 
#    y 0.000000 1.581560 0.000000 
#    z 0.000000 0.000000 1.634150 
# 
# From -- ./inp_files/20550.got.cif
#   From: 2010.05.17/outbox.cif.g08.bks.cpg/sg74_11_cif.got.tgz:20550.got - 2010.06.03 17:57:02.
