data_PCOD9534125
_publ_section_title
;
Structure prediction by ZEFSAII (Michael W. Deem and Ramdas Pophale) SiO2 
 PCOD9534125
Probable space group: I M M A
;
_chemical_formula_sum "Si O2"
_cell_formula_units_Z 80
_cell_length_a 15.459092
_cell_length_b 28.704108
_cell_length_c 9.890036
_cell_angle_alpha 90.000000
_cell_angle_beta 90.000000
_cell_angle_gamma 90.000000
_cell_volume 4388.599099
_symmetry_space_group_name_H-M "I M M A"
_symmetry_group_IT_number 74
_symmetry_cell_setting 'orthorhombic'
loop_
_space_group_symop_operation_xyz
x,y,z
-x,1/2-y,z
x,-y,-z
-x,1/2+y,-z
-x,-y,-z
x,1/2+y,-z
-x,y,z
x,1/2-y,z
1/2+x,1/2+y,1/2+z
1/2-x,-y,1/2+z
1/2+x,1/2-y,1/2-z
1/2-x,y,1/2-z
1/2-x,1/2-y,1/2-z
1/2+x,y,1/2-z
1/2-x,1/2+y,1/2+z
1/2+x,-y,1/2+z
loop_
_atom_site_type_symbol
_atom_site_label
_atom_site_fract_x
_atom_site_fract_y
_atom_site_fract_z
Si Si1 0.403715 0.377160 0.541506
Si Si2 0.600490 0.696906 0.929021
Si Si3 0.264280 0.382135 0.106535
Si Si4 0.222834 0.955101 0.095463
Si Si5 0.353520 0.802707 0.244897
O O1 0.500000 0.379488 0.485996
O O2 0.328924 0.361680 0.437618
O O3 0.368503 0.427434 0.590782
O O4 0.398627 0.341071 0.664202
O O5 0.500000 0.687772 0.897575
O O6 0.621317 0.750000 0.885576
O O7 0.613936 0.695565 0.091514
O O8 0.665573 0.657900 0.876383
O O9 0.250000 0.407120 0.250000
O O10 0.284339 0.417700 0.983928
O O11 0.250000 0.963229 0.250000
O O12 0.219689 0.000000 0.000000
O O13 0.368139 0.750000 0.295982
O O14 0.250000 0.811489 0.250000
#
# Coordination Sequence:
#
# PCOD9534125 Si02
#       5
#    16  16  16  16  16
#     4  10  21  35  57  87 118 155 194 239 295 345
#     4  10  20  34  56  84 118 159 199 241 289 339
#     4  10  22  38  58  85 117 157 195 240 290 347
#     4  10  21  39  65  87 115 150 194 240 297 354
#     4  10  17  31  55  84 118 156 198 243 288 339
#
# _framework density 18.229050999999998
#
# number of rings (size 3 to 8) (size 9 to 14) (size 15 to 20)
#    1.200    0.800    2.000    3.000    0.000    2.800 
#    0.000    0.000    0.000    1.200    0.000    0.000 
#    0.000    0.000    0.000    0.000    0.000    0.000 
#
# Total GULP energy -222670.148968 kJ/mol
# GULP energy per Si atom -5566.753724 kJ/mol
# Density = 1.818756 g / cm^3
# Si number density = 18.229051 Si / 1000 Ang^3
#
#
#
# Elastic Constant Matrix: (Units=GPa)
#
#
# Indices 1 2 3 4 5 6 
#
# 1 95.1492 50.3813 13.5331 -0.0001 0.0000 -0.0001
# 2 50.3813 101.7543 38.6974 -0.0004 0.0002 -0.0002
# 3 13.5331 38.6974 93.1939 -0.0001 -0.0003 0.0004
# 4 -0.0001 -0.0004 -0.0001 21.9938 0.0000 0.0001
# 5 0.0000 0.0002 -0.0003 0.0000 -5.3985 0.0002
# 6 -0.0001 -0.0002 0.0004 0.0001 0.0002 10.3813
#
#
#
# Elastic Compliance Matrix: (Units=1/GPa)
#
#
# Indices 1 2 3 4 5 6 
#
# 1 0.014327 -0.007484 0.001027 0.000000 0.000000 0.000000
# 2 -0.007484 0.015580 -0.005383 0.000000 0.000001 0.000000
# 3 0.001027 -0.005383 0.012816 0.000000 -0.000001 -0.000001
# 4 0.000000 0.000000 0.000000 0.045467 0.000000 -0.000001
# 5 0.000000 0.000001 -0.000001 0.000000 -0.185237 0.000003
# 6 0.000000 0.000000 -0.000001 -0.000001 0.000003 0.096327
#
#
# Mechanical properties :
#
#
# Convention : Reuss Voigt Hill
#
# Bulk Modulus (GPa) = 52.51023 55.03566 53.77294
# Shear Modulus (GPa) = 170.60199 17.89436 94.24817
#
# Velocity S-wave (km/s) = 9.68458 3.13651 7.19822
# Velocity P-wave (km/s) = 12.40658 6.58587 9.93219
#
# Compressibility (1/GPa) = 0.01904391
#
# Stress axis : x y z
#
# Youngs Moduli (GPa) = 69.80068 64.18403 78.02625
#
# Poissons Ratio (x) = 0.48036 -0.08015
# Poissons Ratio (y) = 0.52239 0.41999
# Poissons Ratio (z) = -0.07170 0.34548
#
# Static dielectric constant tensor:
#      x y z
#    x 1.632070 0.000000 0.000000 
#    y 0.000000 1.643730 0.000000 
#    z 0.000000 0.000000 1.633660 
# 
# From -- ./inp_files/20479.got.cif
#   From: 2010.05.17/outbox.cif.g08.bks.cpg/sg74_11_cif.got.tgz:20479.got - 2010.06.03 17:57:02.
