data_PCOD9534577
_publ_section_title
;
Structure prediction by ZEFSAII (Michael W. Deem and Ramdas Pophale) SiO2 
 PCOD9534577
Probable space group: I M M A
;
_chemical_formula_sum "Si O2"
_cell_formula_units_Z 72
_cell_length_a 8.404283
_cell_length_b 16.422615
_cell_length_c 28.591892
_cell_angle_alpha 90.000000
_cell_angle_beta 90.000000
_cell_angle_gamma 90.000000
_cell_volume 3946.261627
_symmetry_space_group_name_H-M "I M M A"
_symmetry_group_IT_number 74
_symmetry_cell_setting 'orthorhombic'
loop_
_space_group_symop_operation_xyz
x,y,z
-x,1/2-y,z
x,-y,-z
-x,1/2+y,-z
-x,-y,-z
x,1/2+y,-z
-x,y,z
x,1/2-y,z
1/2+x,1/2+y,1/2+z
1/2-x,-y,1/2+z
1/2+x,1/2-y,1/2-z
1/2-x,y,1/2-z
1/2-x,1/2-y,1/2-z
1/2+x,y,1/2-z
1/2-x,1/2+y,1/2+z
1/2+x,-y,1/2+z
loop_
_atom_site_type_symbol
_atom_site_label
_atom_site_fract_x
_atom_site_fract_y
_atom_site_fract_z
Si Si1 0.805403 0.074660 0.531263
Si Si2 0.190728 0.921468 0.359708
Si Si3 0.188526 0.250000 0.528803
Si Si4 0.689473 0.750000 0.803731
Si Si5 0.310468 0.077477 0.303440
Si Si6 0.188113 0.750000 0.134085
O O1 0.760669 0.067508 0.585762
O O2 0.748376 0.162698 0.512603
O O3 0.000000 0.075057 0.530184
O O4 0.749750 0.000000 0.500000
O O5 0.263386 0.835450 0.342505
O O6 0.000000 0.915315 0.357887
O O7 0.246721 0.999653 0.331162
O O8 0.216592 0.250000 0.584818
O O9 0.000000 0.250000 0.519746
O O10 0.500000 0.750000 0.803995
O O11 0.750000 0.750000 0.750000
O O12 0.750712 0.664274 0.823832
O O13 0.500000 0.077766 0.303285
O O14 0.250000 0.072328 0.250000
O O15 0.000000 0.750000 0.125094
#
# Coordination Sequence:
#
# PCOD9534577 Si02
#       6
#    16  16   8   8  16   8
#     4   8  14  26  46  71  96 124 162 205 245 290
#     4  10  19  33  52  75 103 134 169 209 253 300
#     4   8  14  26  45  66  91 125 163 202 245 294
#     4  10  18  32  53  76 101 133 171 207 247 296
#     4  11  21  35  54  77 104 134 169 208 251 298
#     4  10  18  30  49  72  97 130 171 209 250 302
#
# _framework density 18.245115999999999
#
# number of rings (size 3 to 8) (size 9 to 14) (size 15 to 20)
#    0.000    2.444    0.000    7.333    0.000    0.000 
#    0.000    1.667    0.000   20.667    0.000    0.000 
#    0.000    0.000    0.000    0.000    0.000    0.000 
#
# Total GULP energy -200600.759808 kJ/mol
# GULP energy per Si atom -5572.243328 kJ/mol
# Density = 1.820359 g / cm^3
# Si number density = 18.245116 Si / 1000 Ang^3
#
#
#
# Elastic Constant Matrix: (Units=GPa)
#
#
# Indices 1 2 3 4 5 6 
#
# 1 63.9513 32.8423 15.3229 0.0000 0.0000 0.0000
# 2 32.8423 233.3096 61.2924 0.0000 0.0000 0.0000
# 3 15.3229 61.2924 36.9314 0.0000 0.0000 0.0000
# 4 0.0000 0.0000 0.0000 33.2055 0.0000 0.0000
# 5 0.0000 0.0000 0.0000 0.0000 8.3586 0.0000
# 6 0.0000 0.0000 0.0000 0.0000 0.0000 27.5370
#
#
#
# Elastic Compliance Matrix: (Units=1/GPa)
#
#
# Indices 1 2 3 4 5 6 
#
# 1 0.017490 -0.000985 -0.005622 0.000000 0.000000 0.000000
# 2 -0.000985 0.007655 -0.012296 0.000000 0.000000 0.000000
# 3 -0.005622 -0.012296 0.049816 0.000000 0.000000 0.000000
# 4 0.000000 0.000000 0.000000 0.030116 0.000000 0.000000
# 5 0.000000 0.000000 0.000000 0.000000 0.119638 0.000000
# 6 0.000000 0.000000 0.000000 0.000000 0.000000 0.036315
#
#
# Mechanical properties :
#
#
# Convention : Reuss Voigt Hill
#
# Bulk Modulus (GPa) = 26.91361 61.45637 44.18499
# Shear Modulus (GPa) = 16.06585 28.80252 22.43418
#
# Velocity S-wave (km/s) = 2.97064 3.97752 3.51037
# Velocity P-wave (km/s) = 5.15261 7.40615 6.37968
#
# Compressibility (1/GPa) = 0.03715592
#
# Stress axis : x y z
#
# Youngs Moduli (GPa) = 57.17635 130.63309 20.07388
#
# Poissons Ratio (x) = 0.12869 0.11285
# Poissons Ratio (y) = 0.05633 0.24682
# Poissons Ratio (z) = 0.32142 1.60623
#
# Static dielectric constant tensor:
#      x y z
#    x 1.652980 0.000000 0.000000 
#    y 0.000000 1.685670 0.000000 
#    z 0.000000 0.000000 1.606680 
# 
# From -- ./inp_files/70007.got.cif
#   From: 2010.05.17/outbox.cif.g08.bks.cpg/sg74_36_cif.got.tgz:70007.got - 2010.06.03 17:57:02.
