data_PCOD9534065
_publ_section_title
;
Structure prediction by ZEFSAII (Michael W. Deem and Ramdas Pophale) SiO2 
 PCOD9534065
Probable space group: I M M A
;
_chemical_formula_sum "Si O2"
_cell_formula_units_Z 48
_cell_length_a 34.352986
_cell_length_b 9.124844
_cell_length_c 8.578306
_cell_angle_alpha 90.000000
_cell_angle_beta 90.000000
_cell_angle_gamma 90.000000
_cell_volume 2689.004165
_symmetry_space_group_name_H-M "I M M A"
_symmetry_group_IT_number 74
_symmetry_cell_setting 'orthorhombic'
loop_
_space_group_symop_operation_xyz
x,y,z
-x,1/2-y,z
x,-y,-z
-x,1/2+y,-z
-x,-y,-z
x,1/2+y,-z
-x,y,z
x,1/2-y,z
1/2+x,1/2+y,1/2+z
1/2-x,-y,1/2+z
1/2+x,1/2-y,1/2-z
1/2-x,y,1/2-z
1/2-x,1/2-y,1/2-z
1/2+x,y,1/2-z
1/2-x,1/2+y,1/2+z
1/2+x,-y,1/2+z
loop_
_atom_site_type_symbol
_atom_site_label
_atom_site_fract_x
_atom_site_fract_y
_atom_site_fract_z
Si Si1 0.577735 0.500000 0.500000
Si Si2 0.456237 0.250000 0.286941
Si Si3 0.295194 0.250000 0.789575
Si Si4 0.132856 0.250000 0.940522
Si Si5 0.373890 0.250000 0.184758
Si Si6 0.170059 0.500000 0.500000
O O1 0.552034 0.392856 0.394243
O O2 0.606671 0.607036 0.403396
O O3 0.500000 0.250000 0.227173
O O4 0.420500 0.250000 0.167294
O O5 0.250000 0.250000 0.750000
O O6 0.326047 0.250000 0.646123
O O7 0.304802 0.393779 0.890951
O O8 0.135522 0.250000 0.129699
O O9 0.355753 0.107907 0.104821
#
# Coordination Sequence:
#
# PCOD9534065 Si02
#       6
#     8   8   8   8   8   8
#     4   8  17  29  50  76 103 136 175 220 264 309
#     4  10  17  29  49  78 106 134 174 224 265 305
#     4  11  23  37  57  83 110 138 176 225 265 305
#     4  10  18  35  57  78 102 144 184 212 256 325
#     4   9  20  37  58  77 104 146 182 213 262 325
#     4  10  22  39  55  78 111 144 175 214 269 323
#
# _framework density 17.850473999999998
#
# number of rings (size 3 to 8) (size 9 to 14) (size 15 to 20)
#    0.000    2.667    0.000    4.500    0.000    4.000 
#    0.000    4.167    0.000    0.000    0.000    0.000 
#    0.000    0.000    0.000    0.000    0.000    0.000 
#
# Total GULP energy -133800.832126 kJ/mol
# GULP energy per Si atom -5575.034672 kJ/mol
# Density = 1.780985 g / cm^3
# Si number density = 17.850474 Si / 1000 Ang^3
#
#
#
# Elastic Constant Matrix: (Units=GPa)
#
#
# Indices 1 2 3 4 5 6 
#
# 1 183.7756 64.6976 56.8406 0.0000 0.0000 0.0000
# 2 64.6976 145.3949 39.2377 0.0000 0.0000 0.0000
# 3 56.8406 39.2377 74.4722 0.0000 0.0000 0.0000
# 4 0.0000 0.0000 0.0000 20.5343 0.0000 0.0000
# 5 0.0000 0.0000 0.0000 0.0000 22.1544 0.0000
# 6 0.0000 0.0000 0.0000 0.0000 0.0000 18.5371
#
#
#
# Elastic Compliance Matrix: (Units=1/GPa)
#
#
# Indices 1 2 3 4 5 6 
#
# 1 0.007650 -0.002132 -0.004716 0.000000 0.000000 0.000000
# 2 -0.002132 0.008612 -0.002910 0.000000 0.000000 0.000000
# 3 -0.004716 -0.002910 0.018561 0.000000 0.000000 0.000000
# 4 0.000000 0.000000 0.000000 0.048699 0.000000 0.000000
# 5 0.000000 0.000000 0.000000 0.000000 0.045138 0.000000
# 6 0.000000 0.000000 0.000000 0.000000 0.000000 0.053946
#
#
# Mechanical properties :
#
#
# Convention : Reuss Voigt Hill
#
# Bulk Modulus (GPa) = 65.33031 80.57717 72.95374
# Shear Modulus (GPa) = 24.12843 28.43627 26.28235
#
# Velocity S-wave (km/s) = 3.68053 3.99560 3.84130
# Velocity P-wave (km/s) = 7.39864 8.15626 7.78667
#
# Compressibility (1/GPa) = 0.01530683
#
# Stress axis : x y z
#
# Youngs Moduli (GPa) = 130.71041 116.12028 53.87690
#
# Poissons Ratio (x) = 0.24752 0.25409
# Poissons Ratio (y) = 0.27862 0.15680
# Poissons Ratio (z) = 0.61645 0.33796
#
# Static dielectric constant tensor:
#      x y z
#    x 1.592340 0.000000 0.000000 
#    y 0.000000 1.625800 0.000000 
#    z 0.000000 0.000000 1.612480 
# 
# From -- ./inp_files/6196.got.cif
#   From: 2010.05.17/outbox.cif.g08.bks.cpg/sg74_4_cif.got.tgz:6196.got - 2010.06.03 17:57:02.
