data_PCOD9534386
_publ_section_title
;
Structure prediction by ZEFSAII (Michael W. Deem and Ramdas Pophale) SiO2 
 PCOD9534386
Probable space group: I M M A
;
_chemical_formula_sum "Si O2"
_cell_formula_units_Z 104
_cell_length_a 9.684365
_cell_length_b 28.942402
_cell_length_c 22.869897
_cell_angle_alpha 90.000000
_cell_angle_beta 90.000000
_cell_angle_gamma 90.000000
_cell_volume 6410.175642
_symmetry_space_group_name_H-M "I M M A"
_symmetry_group_IT_number 74
_symmetry_cell_setting 'orthorhombic'
loop_
_space_group_symop_operation_xyz
x,y,z
-x,1/2-y,z
x,-y,-z
-x,1/2+y,-z
-x,-y,-z
x,1/2+y,-z
-x,y,z
x,1/2-y,z
1/2+x,1/2+y,1/2+z
1/2-x,-y,1/2+z
1/2+x,1/2-y,1/2-z
1/2-x,y,1/2-z
1/2-x,1/2-y,1/2-z
1/2+x,y,1/2-z
1/2-x,1/2+y,1/2+z
1/2+x,-y,1/2+z
loop_
_atom_site_type_symbol
_atom_site_label
_atom_site_fract_x
_atom_site_fract_y
_atom_site_fract_z
Si Si1 0.158129 0.250000 0.423944
Si Si2 0.159712 0.161790 0.934293
Si Si3 0.839064 0.497017 0.692029
Si Si4 0.248594 0.000000 0.000000
Si Si5 0.153092 0.424367 0.589624
Si Si6 0.839853 0.750000 0.433422
Si Si7 0.842141 0.441195 0.109106
Si Si8 0.157501 0.336058 0.075650
O O1 0.159152 0.250000 0.495271
O O2 0.238756 0.296065 0.405117
O O3 0.000000 0.250000 0.404800
O O4 0.229793 0.114003 0.915546
O O5 0.254421 0.204704 0.914827
O O6 0.000000 0.165912 0.915633
O O7 0.160549 0.162231 0.005037
O O8 0.750000 0.490073 0.750000
O O9 0.834932 0.452249 0.650014
O O10 0.765910 0.536904 0.653898
O O11 0.000000 0.507157 0.704268
O O12 0.167309 0.970051 0.951627
O O13 0.331657 0.037521 0.961798
O O14 0.000000 0.403170 0.584937
O O15 0.000000 0.750000 0.414618
O O16 0.810575 0.387564 0.097354
O O17 0.000000 0.445139 0.130618
O O18 0.000000 0.324514 0.092724
#
# Coordination Sequence:
#
# PCOD9534386 Si02
#       8
#     8  16  16   8  16   8  16  16
#     4   9  17  27  41  63  90 129 166 199 235 276
#     4  10  18  29  45  69  98 131 167 200 238 289
#     4  10  22  38  53  71  95 128 168 209 250 290
#     4  10  18  30  46  72 100 130 164 198 240 292
#     4  10  20  32  48  71  99 130 163 202 248 292
#     4   9  17  29  43  63  94 133 166 199 241 284
#     4  10  19  31  50  73  99 130 163 200 244 292
#     4   9  17  29  43  66  97 131 162 194 236 287
#
# _framework density 16.224204
#
# number of rings (size 3 to 8) (size 9 to 14) (size 15 to 20)
#    0.000    2.308    1.538    1.846    0.000    6.769 
#    0.000    0.000    0.000    0.000    0.000    1.077 
#    0.000    0.000    0.000    0.000    0.000    0.000 
#
# Total GULP energy -289802.398128 kJ/mol
# GULP energy per Si atom -5573.123041 kJ/mol
# Density = 1.618728 g / cm^3
# Si number density = 16.224204 Si / 1000 Ang^3
#
#
#
# Elastic Constant Matrix: (Units=GPa)
#
#
# Indices 1 2 3 4 5 6 
#
# 1 154.9368 80.7836 36.6288 0.0000 0.0000 0.0000
# 2 80.7836 109.7122 16.4177 0.0000 0.0000 0.0000
# 3 36.6288 16.4177 52.0155 0.0000 0.0000 0.0000
# 4 0.0000 0.0000 0.0000 8.1691 0.0000 0.0000
# 5 0.0000 0.0000 0.0000 0.0000 13.1632 0.0000
# 6 0.0000 0.0000 0.0000 0.0000 0.0000 27.5132
#
#
#
# Elastic Compliance Matrix: (Units=1/GPa)
#
#
# Indices 1 2 3 4 5 6 
#
# 1 0.012004 -0.007950 -0.005944 0.000000 0.000000 0.000000
# 2 -0.007950 0.014831 0.000917 0.000000 0.000000 0.000000
# 3 -0.005944 0.000917 0.023122 0.000000 0.000000 0.000000
# 4 0.000000 0.000000 0.000000 0.122412 0.000000 0.000000
# 5 0.000000 0.000000 0.000000 0.000000 0.075969 0.000000
# 6 0.000000 0.000000 0.000000 0.000000 0.000000 0.036346
#
#
# Mechanical properties :
#
#
# Convention : Reuss Voigt Hill
#
# Bulk Modulus (GPa) = 41.66136 64.92496 53.29316
# Shear Modulus (GPa) = 15.69170 21.95806 18.82488
#
# Velocity S-wave (km/s) = 3.11332 3.68287 3.41001
# Velocity P-wave (km/s) = 6.21755 7.62817 6.95870
#
# Compressibility (1/GPa) = 0.02400305
#
# Stress axis : x y z
#
# Youngs Moduli (GPa) = 83.30244 67.42614 43.24973
#
# Poissons Ratio (x) = 0.53601 0.25709
# Poissons Ratio (y) = 0.66222 -0.03966
# Poissons Ratio (z) = 0.49517 -0.06182
#
# Static dielectric constant tensor:
#      x y z
#    x 1.556520 0.000000 0.000000 
#    y 0.000000 1.536910 0.000000 
#    z 0.000000 0.000000 1.511720 
# 
# From -- ./inp_files/57883.got.cif
#   From: 2010.05.17/outbox.cif.g08.bks.cpg/sg74_29_cif.got.tgz:57883.got - 2010.06.03 17:57:02.
