data_PCOD9534775
_publ_section_title
;
Structure prediction by ZEFSAII (Michael W. Deem and Ramdas Pophale) SiO2 
 PCOD9534775
Probable space group: I M M A
;
_chemical_formula_sum "Si O2"
_cell_formula_units_Z 96
_cell_length_a 21.231704
_cell_length_b 8.600508
_cell_length_c 27.200598
_cell_angle_alpha 90.000000
_cell_angle_beta 90.000000
_cell_angle_gamma 90.000000
_cell_volume 4966.922768
_symmetry_space_group_name_H-M "I M M A"
_symmetry_group_IT_number 74
_symmetry_cell_setting 'orthorhombic'
loop_
_space_group_symop_operation_xyz
x,y,z
-x,1/2-y,z
x,-y,-z
-x,1/2+y,-z
-x,-y,-z
x,1/2+y,-z
-x,y,z
x,1/2-y,z
1/2+x,1/2+y,1/2+z
1/2-x,-y,1/2+z
1/2+x,1/2-y,1/2-z
1/2-x,y,1/2-z
1/2-x,1/2-y,1/2-z
1/2+x,y,1/2-z
1/2-x,1/2+y,1/2+z
1/2+x,-y,1/2+z
loop_
_atom_site_type_symbol
_atom_site_label
_atom_site_fract_x
_atom_site_fract_y
_atom_site_fract_z
Si Si1 0.689575 0.430862 0.610516
Si Si2 0.571479 0.062693 0.332999
Si Si3 0.785912 0.581305 0.300356
Si Si4 0.907047 0.927946 0.720266
Si Si5 0.190110 0.560984 0.445869
Si Si6 0.067462 0.064232 0.616228
O O1 0.676186 0.250000 0.599362
O O2 0.624516 0.506701 0.628691
O O3 0.735224 0.438943 0.657688
O O4 0.739095 0.493143 0.569748
O O5 0.500000 0.016758 0.346466
O O6 0.574718 0.250000 0.331622
O O7 0.582907 0.010152 0.275926
O O8 0.818607 0.750000 0.309882
O O9 0.750000 0.595030 0.250000
O O10 0.833594 0.442687 0.292363
O O11 0.928310 0.750000 0.719473
O O12 0.933914 0.018937 0.673667
O O13 0.175872 0.500000 0.500000
O O14 0.191689 0.750000 0.444488
O O15 0.132755 0.510084 0.409530
O O16 0.067704 0.250000 0.611272
O O17 0.000000 0.006792 0.594766
#
# Coordination Sequence:
#
# PCOD9534775 Si02
#       6
#    16  16  16  16  16  16
#     4  10  20  36  58  80 107 142 184 232 274 323
#     4  10  22  37  52  78 118 154 183 222 272 326
#     4  10  18  31  52  77 108 144 184 226 268 316
#     4  11  21  32  51  80 117 153 188 225 264 314
#     4  10  22  40  60  84 109 136 178 233 286 334
#     4  10  21  38  58  79 110 153 193 228 269 319
#
# _framework density 19.327863000000001
#
# number of rings (size 3 to 8) (size 9 to 14) (size 15 to 20)
#    0.000    1.833    3.333    1.000    0.000    4.667 
#    0.000    0.000    0.000    0.500    0.000    0.000 
#    0.000    0.000    0.000    0.000    0.000    0.000 
#
# Total GULP energy -267215.220783 kJ/mol
# GULP energy per Si atom -5566.983766 kJ/mol
# Density = 1.928387 g / cm^3
# Si number density = 19.327863 Si / 1000 Ang^3
#
#
#
# Elastic Constant Matrix: (Units=GPa)
#
#
# Indices 1 2 3 4 5 6 
#
# 1 151.4979 31.7265 43.6308 0.0000 0.0000 0.0000
# 2 31.7265 19.1146 5.5617 0.0000 0.0000 0.0000
# 3 43.6308 5.5617 64.8061 0.0000 0.0000 0.0000
# 4 0.0000 0.0000 0.0000 23.0167 0.0000 0.0000
# 5 0.0000 0.0000 0.0000 0.0000 9.5661 0.0000
# 6 0.0000 0.0000 0.0000 0.0000 0.0000 2.8132
#
#
#
# Elastic Compliance Matrix: (Units=1/GPa)
#
#
# Indices 1 2 3 4 5 6 
#
# 1 0.012483 -0.018742 -0.006796 0.000000 0.000000 0.000000
# 2 -0.018742 0.081795 0.005598 0.000000 0.000000 0.000000
# 3 -0.006796 0.005598 0.019525 0.000000 0.000000 0.000000
# 4 0.000000 0.000000 0.000000 0.043447 0.000000 0.000000
# 5 0.000000 0.000000 0.000000 0.000000 0.104536 0.000000
# 6 0.000000 0.000000 0.000000 0.000000 0.000000 0.355469
#
#
# Mechanical properties :
#
#
# Convention : Reuss Voigt Hill
#
# Bulk Modulus (GPa) = 13.52729 44.13961 28.83345
# Shear Modulus (GPa) = 7.33381 17.37917 12.35649
#
# Velocity S-wave (km/s) = 1.95004 3.00188 2.53120
# Velocity P-wave (km/s) = 3.47624 5.90779 4.84697
#
# Compressibility (1/GPa) = 0.07392464
#
# Stress axis : x y z
#
# Youngs Moduli (GPa) = 80.11098 12.22574 51.21556
#
# Poissons Ratio (x) = 0.22913 0.34804
# Poissons Ratio (y) = 1.50141 -0.28671
# Poissons Ratio (z) = 0.54440 -0.06844
#
# Static dielectric constant tensor:
#      x y z
#    x 1.750390 0.000000 0.000000 
#    y 0.000000 1.718850 0.000000 
#    z 0.000000 0.000000 1.696580 
# 
# From -- ./inp_files/68158.got.cif
#   From: 2010.05.17/outbox.cif.g08.bks.cpg/sg74_35_cif.got.tgz:68158.got - 2010.06.03 17:57:02.
