data_PCOD9534573
_publ_section_title
;
Structure prediction by ZEFSAII (Michael W. Deem and Ramdas Pophale) SiO2 
 PCOD9534573
Probable space group: I M M A
;
_chemical_formula_sum "Si O2"
_cell_formula_units_Z 80
_cell_length_a 14.034060
_cell_length_b 7.694668
_cell_length_c 38.020187
_cell_angle_alpha 90.000000
_cell_angle_beta 90.000000
_cell_angle_gamma 90.000000
_cell_volume 4105.702373
_symmetry_space_group_name_H-M "I M M A"
_symmetry_group_IT_number 74
_symmetry_cell_setting 'orthorhombic'
loop_
_space_group_symop_operation_xyz
x,y,z
-x,1/2-y,z
x,-y,-z
-x,1/2+y,-z
-x,-y,-z
x,1/2+y,-z
-x,y,z
x,1/2-y,z
1/2+x,1/2+y,1/2+z
1/2-x,-y,1/2+z
1/2+x,1/2-y,1/2-z
1/2-x,y,1/2-z
1/2-x,1/2-y,1/2-z
1/2+x,y,1/2-z
1/2-x,1/2+y,1/2+z
1/2+x,-y,1/2+z
loop_
_atom_site_type_symbol
_atom_site_label
_atom_site_fract_x
_atom_site_fract_y
_atom_site_fract_z
Si Si1 0.891928 0.545561 0.350876
Si Si2 0.608747 0.457977 0.539918
Si Si3 0.167272 0.952624 0.727306
Si Si4 0.500000 0.445120 0.642049
Si Si5 0.500000 0.058181 0.282840
Si Si6 0.299578 0.962999 0.389269
O O1 0.897830 0.750000 0.359337
O O2 0.864740 0.529404 0.309677
O O3 0.800423 0.474857 0.372584
O O4 0.000000 0.472963 0.356107
O O5 0.636171 0.500000 0.500000
O O6 0.500000 0.524501 0.545853
O O7 0.604032 0.250000 0.542612
O O8 0.680631 0.515611 0.570378
O O9 0.192538 0.750000 0.719534
O O10 0.250000 0.039277 0.750000
O O11 0.085744 0.955840 0.756129
O O12 0.500000 0.250000 0.626342
O O13 0.500000 0.435898 0.684002
O O14 0.602537 0.520453 0.630405
O O15 0.500000 0.250000 0.299339
O O16 0.296501 0.750000 0.386836
#
# Coordination Sequence:
#
# PCOD9534573 Si02
#       6
#    16  16  16   8   8  16
#     4  10  20  33  50  72  96 125 166 207 241 285
#     4   9  16  29  50  74 101 129 155 188 236 290
#     4  10  20  34  50  66  89 124 162 202 252 299
#     4  10  18  30  49  71  93 124 162 199 243 290
#     4  10  20  32  44  63  93 122 152 195 246 292
#     4   9  17  31  50  72  99 128 158 196 243 290
#
# _framework density 19.485095000000001
#
# number of rings (size 3 to 8) (size 9 to 14) (size 15 to 20)
#    0.000    2.400    2.000    1.200    0.000    1.200 
#    0.000    2.000    0.000    0.600    0.000    0.000 
#    0.000    0.000    0.000    0.000    0.000    0.000 
#
# Total GULP energy -222752.928943 kJ/mol
# GULP energy per Si atom -5568.823224 kJ/mol
# Density = 1.944075 g / cm^3
# Si number density = 19.485095 Si / 1000 Ang^3
#
#
#
# Elastic Constant Matrix: (Units=GPa)
#
#
# Indices 1 2 3 4 5 6 
#
# 1 171.3564 15.3051 77.7293 0.0000 0.0000 0.0000
# 2 15.3051 32.7951 7.1586 0.0000 0.0000 0.0000
# 3 77.7293 7.1586 140.5724 0.0000 0.0000 0.0000
# 4 0.0000 0.0000 0.0000 18.9551 0.0000 0.0000
# 5 0.0000 0.0000 0.0000 0.0000 76.1131 0.0000
# 6 0.0000 0.0000 0.0000 0.0000 0.0000 1.1699
#
#
#
# Elastic Compliance Matrix: (Units=1/GPa)
#
#
# Indices 1 2 3 4 5 6 
#
# 1 0.008038 -0.002812 -0.004301 0.000000 0.000000 0.000000
# 2 -0.002812 0.031819 -0.000065 0.000000 0.000000 0.000000
# 3 -0.004301 -0.000065 0.009496 0.000000 0.000000 0.000000
# 4 0.000000 0.000000 0.000000 0.052756 0.000000 0.000000
# 5 0.000000 0.000000 0.000000 0.000000 0.013138 0.000000
# 6 0.000000 0.000000 0.000000 0.000000 0.000000 0.854801
#
#
# Mechanical properties :
#
#
# Convention : Reuss Voigt Hill
#
# Bulk Modulus (GPa) = 28.57581 60.56775 44.57178
# Shear Modulus (GPa) = 5.01972 35.54968 20.28470
#
# Velocity S-wave (km/s) = 1.60679 4.27600 3.23001
# Velocity P-wave (km/s) = 4.25907 7.45188 6.06919
#
# Compressibility (1/GPa) = 0.03499463
#
# Stress axis : x y z
#
# Youngs Moduli (GPa) = 124.40618 31.42763 105.31200
#
# Poissons Ratio (x) = 0.08839 0.45300
# Poissons Ratio (y) = 0.34988 0.00687
# Poissons Ratio (z) = 0.53513 0.00205
#
# Static dielectric constant tensor:
#      x y z
#    x 1.685210 0.000000 0.000000 
#    y 0.000000 1.768190 0.000000 
#    z 0.000000 0.000000 1.652240 
# 
# From -- ./inp_files/71555.got.cif
#   From: 2010.05.17/outbox.cif.g08.bks.cpg/sg74_36_cif.got.tgz:71555.got - 2010.06.03 17:57:02.
