data_PCOD9534282
_publ_section_title
;
Structure prediction by ZEFSAII (Michael W. Deem and Ramdas Pophale) SiO2 
 PCOD9534282
Probable space group: I M M A
;
_chemical_formula_sum "Si O2"
_cell_formula_units_Z 80
_cell_length_a 26.700022
_cell_length_b 14.257294
_cell_length_c 10.262177
_cell_angle_alpha 90.000000
_cell_angle_beta 90.000000
_cell_angle_gamma 90.000000
_cell_volume 3906.503570
_symmetry_space_group_name_H-M "I M M A"
_symmetry_group_IT_number 74
_symmetry_cell_setting 'orthorhombic'
loop_
_space_group_symop_operation_xyz
x,y,z
-x,1/2-y,z
x,-y,-z
-x,1/2+y,-z
-x,-y,-z
x,1/2+y,-z
-x,y,z
x,1/2-y,z
1/2+x,1/2+y,1/2+z
1/2-x,-y,1/2+z
1/2+x,1/2-y,1/2-z
1/2-x,y,1/2-z
1/2-x,1/2-y,1/2-z
1/2+x,y,1/2-z
1/2-x,1/2+y,1/2+z
1/2+x,-y,1/2+z
loop_
_atom_site_type_symbol
_atom_site_label
_atom_site_fract_x
_atom_site_fract_y
_atom_site_fract_z
Si Si1 0.808202 0.635551 0.897305
Si Si2 0.890550 0.364138 0.597957
Si Si3 0.500000 0.592107 0.413802
Si Si4 0.805437 0.635669 0.600170
Si Si5 0.000000 0.636097 0.383027
Si Si6 0.888135 0.641244 0.106440
O O1 0.809393 0.750000 0.894849
O O2 0.816840 0.605223 0.748104
O O3 0.751459 0.608287 0.933958
O O4 0.849894 0.603412 0.999264
O O5 0.888404 0.250000 0.601668
O O6 0.846911 0.395192 0.502410
O O7 0.884693 0.398853 0.746983
O O8 0.947126 0.386179 0.550985
O O9 0.500000 0.500000 0.500000
O O10 0.500000 0.585113 0.256747
O O11 0.554118 0.638052 0.439961
O O12 0.805954 0.750000 0.600973
O O13 0.000000 0.750000 0.355564
O O14 0.874506 0.750000 0.121476
#
# Coordination Sequence:
#
# PCOD9534282 Si02
#       6
#    16  16   8  16   8  16
#     4   8  14  23  36  56  87 114 133 165 211 249
#     4   8  13  21  36  56  82 112 142 171 203 239
#     4  10  18  28  43  62  82 108 138 170 212 258
#     4   8  13  22  35  57  86 114 138 166 205 247
#     4   8  14  26  41  60  85 112 140 178 218 248
#     4   9  16  27  42  62  84 107 136 175 211 243
#
# _framework density 20.478670000000001
#
# number of rings (size 3 to 8) (size 9 to 14) (size 15 to 20)
#    0.000    3.600    0.000    3.300    0.000    0.800 
#    0.000    5.000    0.000    4.800    0.000   22.400 
#    0.000    0.000    0.000    0.000    0.000    0.000 
#
# Total GULP energy -222776.263411 kJ/mol
# GULP energy per Si atom -5569.406585 kJ/mol
# Density = 2.043206 g / cm^3
# Si number density = 20.478670 Si / 1000 Ang^3
#
#
#
# Elastic Constant Matrix: (Units=GPa)
#
#
# Indices 1 2 3 4 5 6 
#
# 1 216.5656 5.0121 125.9604 0.0000 0.0000 0.0000
# 2 5.0121 51.5056 9.5065 0.0000 0.0000 0.0000
# 3 125.9604 9.5065 105.0052 0.0000 0.0000 0.0000
# 4 0.0000 0.0000 0.0000 -1.1492 0.0000 0.0000
# 5 0.0000 0.0000 0.0000 0.0000 62.5066 0.0000
# 6 0.0000 0.0000 0.0000 0.0000 0.0000 -20.9636
#
#
#
# Elastic Compliance Matrix: (Units=1/GPa)
#
#
# Indices 1 2 3 4 5 6 
#
# 1 0.015465 0.001952 -0.018728 0.000000 0.000000 0.000000
# 2 0.001952 0.019992 -0.004151 0.000000 0.000000 0.000000
# 3 -0.018728 -0.004151 0.032365 0.000000 0.000000 0.000000
# 4 0.000000 0.000000 0.000000 -0.870193 0.000000 0.000000
# 5 0.000000 0.000000 0.000000 0.000000 0.015998 0.000000
# 6 0.000000 0.000000 0.000000 0.000000 0.000000 -0.047702
#
#
# Mechanical properties :
#
#
# Convention : Reuss Voigt Hill
#
# Bulk Modulus (GPa) = 38.51128 72.67050 55.59089
# Shear Modulus (GPa) = -6.38110 23.58525 8.60207
#
# Velocity S-wave (km/s) = -1.76713 3.39735 2.05174
# Velocity P-wave (km/s) = 3.83181 7.13809 5.72866
#
# Compressibility (1/GPa) = 0.02596642
#
# Stress axis : x y z
#
# Youngs Moduli (GPa) = 64.66153 50.02098 30.89784
#
# Poissons Ratio (x) = -0.09763 0.57866
# Poissons Ratio (y) = -0.12620 0.12826
# Poissons Ratio (z) = 1.21099 0.20764
#
# Static dielectric constant tensor:
#      x y z
#    x 1.734380 0.000000 0.000000 
#    y 0.000000 1.762360 0.000000 
#    z 0.000000 0.000000 1.714770 
# 
# From -- ./inp_files/24922.got.cif
#   From: 2010.05.17/outbox.cif.g08.bks.cpg/sg74_13_cif.got.tgz:24922.got - 2010.06.03 17:57:02.
