data_PCOD9534063
_publ_section_title
;
Structure prediction by ZEFSAII (Michael W. Deem and Ramdas Pophale) SiO2 
 PCOD9534063
Probable space group: I M M A
;
_chemical_formula_sum "Si O2"
_cell_formula_units_Z 96
_cell_length_a 18.791019
_cell_length_b 11.081415
_cell_length_c 25.869956
_cell_angle_alpha 90.000000
_cell_angle_beta 90.000000
_cell_angle_gamma 90.000000
_cell_volume 5386.928873
_symmetry_space_group_name_H-M "I M M A"
_symmetry_group_IT_number 74
_symmetry_cell_setting 'orthorhombic'
loop_
_space_group_symop_operation_xyz
x,y,z
-x,1/2-y,z
x,-y,-z
-x,1/2+y,-z
-x,-y,-z
x,1/2+y,-z
-x,y,z
x,1/2-y,z
1/2+x,1/2+y,1/2+z
1/2-x,-y,1/2+z
1/2+x,1/2-y,1/2-z
1/2-x,y,1/2-z
1/2-x,1/2-y,1/2-z
1/2+x,y,1/2-z
1/2-x,1/2+y,1/2+z
1/2+x,-y,1/2+z
loop_
_atom_site_type_symbol
_atom_site_label
_atom_site_fract_x
_atom_site_fract_y
_atom_site_fract_z
Si Si1 0.919237 0.750000 0.074284
Si Si2 0.916935 0.981972 0.922195
Si Si3 0.418380 0.750000 0.300603
Si Si4 0.421405 0.107933 0.200708
Si Si5 0.221760 0.385558 0.035875
Si Si6 0.723012 0.607232 0.848146
Si Si7 0.367795 0.989351 0.694643
O O1 0.890261 0.882529 0.062266
O O2 0.921828 0.750000 0.136775
O O3 0.000000 0.750000 0.054398
O O4 0.908128 0.972506 0.860184
O O5 0.000000 0.967903 0.935464
O O6 0.861847 0.892867 0.948578
O O7 0.500000 0.750000 0.281852
O O8 0.379373 0.873398 0.286932
O O9 0.500000 0.055033 0.191299
O O10 0.425324 0.250000 0.189061
O O11 0.354447 0.060195 0.168141
O O12 0.400814 0.091867 0.260658
O O13 0.237049 0.250000 0.015695
O O14 0.261741 0.402168 0.090847
O O15 0.238885 0.500000 0.000000
O O16 0.727813 0.750000 0.834926
O O17 0.786208 0.541437 0.817472
#
# Coordination Sequence:
#
# PCOD9534063 Si02
#       7
#     8  16   8  16  16  16  16
#     4   7  12  24  42  63  89 130 172 205 240 276
#     4   9  17  29  46  70 102 137 173 210 247 294
#     4   9  16  26  41  65 102 142 181 215 237 272
#     4  10  19  31  52  79 104 134 170 206 250 305
#     4  10  22  37  54  73  95 128 168 213 269 312
#     4   9  19  36  53  74 105 132 163 213 261 302
#     4  10  17  29  49  74 106 144 177 202 242 294
#
# _framework density 17.820914999999999
#
# number of rings (size 3 to 8) (size 9 to 14) (size 15 to 20)
#    0.000    2.667    0.000    3.500    1.167    2.667 
#    1.500    1.667    0.000    0.500    0.000    0.000 
#    0.000    0.000    0.000    0.000    0.000    0.000 
#
# Total GULP energy -267524.562701 kJ/mol
# GULP energy per Si atom -5573.428390 kJ/mol
# Density = 1.778035 g / cm^3
# Si number density = 17.820915 Si / 1000 Ang^3
#
#
#
# Elastic Constant Matrix: (Units=GPa)
#
#
# Indices 1 2 3 4 5 6 
#
# 1 132.8189 35.8499 39.4072 0.0000 0.0000 0.0000
# 2 35.8499 71.6667 15.4503 0.0000 0.0000 0.0000
# 3 39.4072 15.4503 53.7914 0.0000 0.0000 0.0000
# 4 0.0000 0.0000 0.0000 23.9315 0.0000 0.0000
# 5 0.0000 0.0000 0.0000 0.0000 3.6746 0.0000
# 6 0.0000 0.0000 0.0000 0.0000 0.0000 14.2548
#
#
#
# Elastic Compliance Matrix: (Units=1/GPa)
#
#
# Indices 1 2 3 4 5 6 
#
# 1 0.010526 -0.003841 -0.006608 0.000000 0.000000 0.000000
# 2 -0.003841 0.016276 -0.001861 0.000000 0.000000 0.000000
# 3 -0.006608 -0.001861 0.023966 0.000000 0.000000 0.000000
# 4 0.000000 0.000000 0.000000 0.041786 0.000000 0.000000
# 5 0.000000 0.000000 0.000000 0.000000 0.272139 0.000000
# 6 0.000000 0.000000 0.000000 0.000000 0.000000 0.070152
#
#
# Mechanical properties :
#
#
# Convention : Reuss Voigt Hill
#
# Bulk Modulus (GPa) = 38.24406 48.85465 43.54935
# Shear Modulus (GPa) = 10.67959 19.54348 15.11154
#
# Velocity S-wave (km/s) = 2.45066 3.31518 2.91515
# Velocity P-wave (km/s) = 5.43272 6.49058 5.98507
#
# Compressibility (1/GPa) = 0.02614785
#
# Stress axis : x y z
#
# Youngs Moduli (GPa) = 94.99836 61.43987 41.72557
#
# Poissons Ratio (x) = 0.23599 0.27574
# Poissons Ratio (y) = 0.36489 0.07765
# Poissons Ratio (z) = 0.62779 0.11434
#
# Static dielectric constant tensor:
#      x y z
#    x 1.621290 0.000000 0.000000 
#    y 0.000000 1.656770 0.000000 
#    z 0.000000 0.000000 1.621420 
# 
# From -- ./inp_files/60838.got.cif
#   From: 2010.05.17/outbox.cif.g08.bks.cpg/sg74_31_cif.got.tgz:60838.got - 2010.06.03 17:57:02.
