data_PCOD9534145
_publ_section_title
;
Structure prediction by ZEFSAII (Michael W. Deem and Ramdas Pophale) SiO2 
 PCOD9534145
Probable space group: I M M A
;
_chemical_formula_sum "Si O2"
_cell_formula_units_Z 76
_cell_length_a 19.525576
_cell_length_b 14.314075
_cell_length_c 11.269081
_cell_angle_alpha 90.000000
_cell_angle_beta 90.000000
_cell_angle_gamma 90.000000
_cell_volume 3149.601751
_symmetry_space_group_name_H-M "I M M A"
_symmetry_group_IT_number 74
_symmetry_cell_setting 'orthorhombic'
loop_
_space_group_symop_operation_xyz
x,y,z
-x,1/2-y,z
x,-y,-z
-x,1/2+y,-z
-x,-y,-z
x,1/2+y,-z
-x,y,z
x,1/2-y,z
1/2+x,1/2+y,1/2+z
1/2-x,-y,1/2+z
1/2+x,1/2-y,1/2-z
1/2-x,y,1/2-z
1/2-x,1/2-y,1/2-z
1/2+x,y,1/2-z
1/2-x,1/2+y,1/2+z
1/2+x,-y,1/2+z
loop_
_atom_site_type_symbol
_atom_site_label
_atom_site_fract_x
_atom_site_fract_y
_atom_site_fract_z
Si Si1 0.104304 0.400846 0.439902
Si Si2 0.105008 0.855988 0.067284
Si Si3 0.104557 0.553567 0.822988
Si Si4 0.250000 0.993420 0.750000
Si Si5 0.000000 0.250000 0.525592
Si Si6 0.229993 0.352563 0.569541
O O1 0.096276 0.500000 0.500000
O O2 0.081876 0.407188 0.303283
O O3 0.183916 0.369518 0.453776
O O4 0.059353 0.329916 0.513538
O O5 0.083754 0.750000 0.100020
O O6 0.188110 0.855705 0.059253
O O7 0.086658 0.944303 0.151226
O O8 0.081490 0.886115 0.935629
O O9 0.187895 0.557571 0.814623
O O10 0.212696 0.064099 0.658710
O O11 0.212286 0.250000 0.617912
#
# Coordination Sequence:
#
# PCOD9534145 Si02
#       6
#    16  16  16   8   4  16
#     4  12  24  44  65  90 125 174 217 278 318 370
#     4   9  20  35  57  97 140 167 198 251 313 421
#     4  10  20  34  60  92 126 171 207 249 328 387
#     4  10  17  32  55  92 136 170 200 241 305 414
#     4  12  30  48  64  88 122 174 246 276 318 346
#     4  10  19  33  56  92 133 173 205 242 319 386
#
# _framework density 24.130033999999998
#
# number of rings (size 3 to 8) (size 9 to 14) (size 15 to 20)
#    0.000    1.684    3.158    1.895    4.421    0.842 
#    1.895    2.632    0.000    2.526    0.000    0.000 
#    0.000    0.000    0.000    0.000    0.000    0.000 
#
# Total GULP energy -211900.249228 kJ/mol
# GULP energy per Si atom -5576.322348 kJ/mol
# Density = 2.407511 g / cm^3
# Si number density = 24.130034 Si / 1000 Ang^3
#
#
#
# Elastic Constant Matrix: (Units=GPa)
#
#
# Indices 1 2 3 4 5 6 
#
# 1 97.4105 14.6809 -8.6776 0.0000 0.0000 0.0000
# 2 14.6809 94.8005 -31.7691 0.0000 0.0000 0.0000
# 3 -8.6776 -31.7691 48.1988 0.0000 0.0000 0.0000
# 4 0.0000 0.0000 0.0000 -2.3408 0.0000 0.0000
# 5 0.0000 0.0000 0.0000 0.0000 -32.9749 0.0000
# 6 0.0000 0.0000 0.0000 0.0000 0.0000 15.8453
#
#
#
# Elastic Compliance Matrix: (Units=1/GPa)
#
#
# Indices 1 2 3 4 5 6 
#
# 1 0.010553 -0.001280 0.001056 0.000000 0.000000 0.000000
# 2 -0.001280 0.013694 0.008796 0.000000 0.000000 0.000000
# 3 0.001056 0.008796 0.026735 0.000000 0.000000 0.000000
# 4 0.000000 0.000000 0.000000 -0.427211 0.000000 0.000000
# 5 0.000000 0.000000 0.000000 0.000000 -0.030326 0.000000
# 6 0.000000 0.000000 0.000000 0.000000 0.000000 0.063110
#
#
# Mechanical properties :
#
#
# Convention : Reuss Voigt Hill
#
# Bulk Modulus (GPa) = 14.67885 20.98647 17.83266
# Shear Modulus (GPa) = -14.79819 13.85096 -0.47361
#
# Velocity S-wave (km/s) = -2.47911 2.39846 -0.44351
# Velocity P-wave (km/s) = 1.44853 4.04799 2.67283
#
# Compressibility (1/GPa) = 0.06812525
#
# Stress axis : x y z
#
# Youngs Moduli (GPa) = 94.76094 73.02277 37.40402
#
# Poissons Ratio (x) = 0.09349 -0.03950
# Poissons Ratio (y) = 0.12133 -0.32900
# Poissons Ratio (z) = -0.10007 -0.64229
#
# Static dielectric constant tensor:
#      x y z
#    x 1.982600 0.000000 0.000000 
#    y 0.000000 1.998820 0.000000 
#    z 0.000000 0.000000 1.959750 
# 
# From -- ./inp_files/24904.got.cif
#   From: 2010.05.17/outbox.cif.g08.bks.cpg/sg74_13_cif.got.tgz:24904.got - 2010.06.03 17:57:02.
