data_PCOD9534499
_publ_section_title
;
Structure prediction by ZEFSAII (Michael W. Deem and Ramdas Pophale) SiO2 
 PCOD9534499
Probable space group: I M M A
;
_chemical_formula_sum "Si O2"
_cell_formula_units_Z 80
_cell_length_a 28.921811
_cell_length_b 11.738896
_cell_length_c 15.010890
_cell_angle_alpha 90.000000
_cell_angle_beta 90.000000
_cell_angle_gamma 90.000000
_cell_volume 5096.349237
_symmetry_space_group_name_H-M "I M M A"
_symmetry_group_IT_number 74
_symmetry_cell_setting 'orthorhombic'
loop_
_space_group_symop_operation_xyz
x,y,z
-x,1/2-y,z
x,-y,-z
-x,1/2+y,-z
-x,-y,-z
x,1/2+y,-z
-x,y,z
x,1/2-y,z
1/2+x,1/2+y,1/2+z
1/2-x,-y,1/2+z
1/2+x,1/2-y,1/2-z
1/2-x,y,1/2-z
1/2-x,1/2-y,1/2-z
1/2+x,y,1/2-z
1/2-x,1/2+y,1/2+z
1/2+x,-y,1/2+z
loop_
_atom_site_type_symbol
_atom_site_label
_atom_site_fract_x
_atom_site_fract_y
_atom_site_fract_z
Si Si1 0.181169 0.000000 0.500000
Si Si2 0.099672 0.383980 0.151412
Si Si3 0.750000 0.450756 0.250000
Si Si4 0.262083 0.123616 0.589418
Si Si5 0.000000 0.613666 0.934212
Si Si6 0.841058 0.500000 0.000000
Si Si7 0.347415 0.619777 0.826212
O O1 0.216404 0.099361 0.531276
O O2 0.153678 0.041667 0.413738
O O3 0.112081 0.250000 0.141071
O O4 0.115809 0.415905 0.250824
O O5 0.046021 0.395221 0.125701
O O6 0.127936 0.458989 0.081344
O O7 0.736857 0.530676 0.332967
O O8 0.703815 0.386130 0.218993
O O9 0.261617 0.250000 0.626020
O O10 0.306702 0.101006 0.529041
O O11 0.000000 0.750000 0.969664
O O12 0.000000 0.500000 0.000000
O O13 0.356662 0.750000 0.851818
#
# Coordination Sequence:
#
# PCOD9534499 Si02
#       7
#     8  16   8  16   8   8  16
#     4   9  20  32  48  66  94 134 174 216 253 294
#     4  10  20  33  53  76 100 133 168 208 253 308
#     4  10  18  30  44  68  96 134 168 204 250 298
#     4  10  19  29  42  65  99 135 170 208 248 292
#     4  10  20  36  58  81 110 138 172 213 264 317
#     4  11  18  31  46  69 102 133 168 203 241 304
#     4  10  19  33  51  71  98 130 172 213 251 302
#
# _framework density 15.697511
#
# number of rings (size 3 to 8) (size 9 to 14) (size 15 to 20)
#    0.000    2.000    3.000    1.800    0.000    0.000 
#    0.000    0.000    0.000    0.600    0.000    0.000 
#    0.000    0.000    0.000    0.000    0.000    0.000 
#
# Total GULP energy -222823.128346 kJ/mol
# GULP energy per Si atom -5570.578209 kJ/mol
# Density = 1.566178 g / cm^3
# Si number density = 15.697511 Si / 1000 Ang^3
#
#
#
# Elastic Constant Matrix: (Units=GPa)
#
#
# Indices 1 2 3 4 5 6 
#
# 1 74.5384 29.4435 48.9106 0.0000 0.0000 0.0000
# 2 29.4435 64.8913 37.2505 0.0000 0.0000 0.0000
# 3 48.9106 37.2505 107.3452 0.0000 0.0000 0.0000
# 4 0.0000 0.0000 0.0000 8.0772 0.0000 0.0000
# 5 0.0000 0.0000 0.0000 0.0000 23.9882 0.0000
# 6 0.0000 0.0000 0.0000 0.0000 0.0000 0.9885
#
#
#
# Elastic Compliance Matrix: (Units=1/GPa)
#
#
# Indices 1 2 3 4 5 6 
#
# 1 0.020300 -0.004872 -0.007559 0.000000 0.000000 0.000000
# 2 -0.004872 0.020413 -0.004864 0.000000 0.000000 0.000000
# 3 -0.007559 -0.004864 0.014448 0.000000 0.000000 0.000000
# 4 0.000000 0.000000 0.000000 0.123805 0.000000 0.000000
# 5 0.000000 0.000000 0.000000 0.000000 0.041687 0.000000
# 6 0.000000 0.000000 0.000000 0.000000 0.000000 1.011652
#
#
# Mechanical properties :
#
#
# Convention : Reuss Voigt Hill
#
# Bulk Modulus (GPa) = 48.61033 53.10932 50.85983
# Shear Modulus (GPa) = 3.92541 15.35548 9.64045
#
# Velocity S-wave (km/s) = 1.58306 3.13103 2.48087
# Velocity P-wave (km/s) = 5.86307 6.85402 6.37782
#
# Compressibility (1/GPa) = 0.02057176
#
# Stress axis : x y z
#
# Youngs Moduli (GPa) = 49.26007 48.98845 69.21485
#
# Poissons Ratio (x) = 0.23866 0.52320
# Poissons Ratio (y) = 0.23999 0.33665
# Poissons Ratio (z) = 0.37236 0.23827
#
# Static dielectric constant tensor:
#      x y z
#    x 1.512010 0.000000 0.000000 
#    y 0.000000 1.533900 0.000000 
#    z 0.000000 0.000000 1.533340 
# 
# From -- ./inp_files/37185.got.cif
#   From: 2010.05.17/outbox.cif.g08.bks.cpg/sg74_19_cif.got.tgz:37185.got - 2010.06.03 17:57:02.
