data_PCOD9534581
_publ_section_title
;
Structure prediction by ZEFSAII (Michael W. Deem and Ramdas Pophale) SiO2 
 PCOD9534581
Probable space group: I M M A
;
_chemical_formula_sum "Si O2"
_cell_formula_units_Z 72
_cell_length_a 21.066710
_cell_length_b 11.075571
_cell_length_c 16.313030
_cell_angle_alpha 90.000000
_cell_angle_beta 90.000000
_cell_angle_gamma 90.000000
_cell_volume 3806.251466
_symmetry_space_group_name_H-M "I M M A"
_symmetry_group_IT_number 74
_symmetry_cell_setting 'orthorhombic'
loop_
_space_group_symop_operation_xyz
x,y,z
-x,1/2-y,z
x,-y,-z
-x,1/2+y,-z
-x,-y,-z
x,1/2+y,-z
-x,y,z
x,1/2-y,z
1/2+x,1/2+y,1/2+z
1/2-x,-y,1/2+z
1/2+x,1/2-y,1/2-z
1/2-x,y,1/2-z
1/2-x,1/2-y,1/2-z
1/2+x,y,1/2-z
1/2-x,1/2+y,1/2+z
1/2+x,-y,1/2+z
loop_
_atom_site_type_symbol
_atom_site_label
_atom_site_fract_x
_atom_site_fract_y
_atom_site_fract_z
Si Si1 0.000000 0.122109 0.329177
Si Si2 0.174221 0.384989 0.741248
Si Si3 0.000000 0.122439 0.572373
Si Si4 0.000000 0.615491 0.942627
Si Si5 0.144282 0.116370 0.547678
Si Si6 0.391536 0.117685 0.306655
O O1 0.061232 0.121435 0.271061
O O2 0.000000 0.250000 0.375939
O O3 0.000000 0.999265 0.377233
O O4 0.151280 0.250000 0.766311
O O5 0.250000 0.384816 0.750000
O O6 0.154468 0.399582 0.645447
O O7 0.148772 0.497243 0.793746
O O8 0.068526 0.121934 0.529264
O O9 0.000000 0.250000 0.621017
O O10 0.938115 0.609389 0.884416
O O11 0.000000 0.750000 0.981847
O O12 0.000000 0.500000 0.000000
O O13 0.170315 0.250000 0.525850
O O14 0.170327 0.000000 0.500000
O O15 0.358490 0.250000 0.309828
#
# Coordination Sequence:
#
# PCOD9534581 Si02
#       6
#     8  16   8   8  16  16
#     4   9  16  27  48  76 103 131 162 203 255 306
#     4  10  21  37  56  78 104 138 184 227 262 309
#     4  10  18  30  49  76 105 134 169 205 250 313
#     4   9  19  35  54  82 114 141 175 220 273 331
#     4  10  21  35  52  77 108 138 172 214 261 315
#     4   9  18  33  53  78 107 137 173 219 266 315
#
# _framework density 18.916249000000001
#
# number of rings (size 3 to 8) (size 9 to 14) (size 15 to 20)
#    0.000    2.444    2.222    1.667    0.000    3.111 
#    0.000    3.333    0.000    5.333    0.000    0.000 
#    0.000    0.000    0.000    0.000    0.000    0.000 
#
# Total GULP energy -200436.370681 kJ/mol
# GULP energy per Si atom -5567.676963 kJ/mol
# Density = 1.887319 g / cm^3
# Si number density = 18.916249 Si / 1000 Ang^3
#
#
#
# Elastic Constant Matrix: (Units=GPa)
#
#
# Indices 1 2 3 4 5 6 
#
# 1 43.3226 28.9224 5.1800 0.0000 0.0000 0.0000
# 2 28.9224 250.2179 63.1859 0.0000 0.0000 0.0000
# 3 5.1800 63.1859 42.8575 0.0000 0.0000 0.0000
# 4 0.0000 0.0000 0.0000 35.7230 0.0000 0.0000
# 5 0.0000 0.0000 0.0000 0.0000 -3.9599 0.0000
# 6 0.0000 0.0000 0.0000 0.0000 0.0000 29.6952
#
#
#
# Elastic Compliance Matrix: (Units=1/GPa)
#
#
# Indices 1 2 3 4 5 6 
#
# 1 0.025118 -0.003404 0.001983 0.000000 0.000000 0.000000
# 2 -0.003404 0.006828 -0.009656 0.000000 0.000000 0.000000
# 3 0.001983 -0.009656 0.037329 0.000000 0.000000 0.000000
# 4 0.000000 0.000000 0.000000 0.027993 0.000000 0.000000
# 5 0.000000 0.000000 0.000000 0.000000 -0.252531 0.000000
# 6 0.000000 0.000000 0.000000 0.000000 0.000000 0.033675
#
#
# Mechanical properties :
#
#
# Convention : Reuss Voigt Hill
#
# Bulk Modulus (GPa) = 21.22170 58.99717 40.10944
# Shear Modulus (GPa) = -59.71863 28.23229 -15.74317
#
# Velocity S-wave (km/s) = -5.62482 3.86747 -2.88802
# Velocity P-wave (km/s) = 5.56252 7.15537 3.18259
#
# Compressibility (1/GPa) = 0.04712158
#
# Stress axis : x y z
#
# Youngs Moduli (GPa) = 39.81183 146.45005 26.78877
#
# Poissons Ratio (x) = 0.49853 -0.05312
# Poissons Ratio (y) = 0.13552 0.25866
# Poissons Ratio (z) = -0.07894 1.41407
#
# Static dielectric constant tensor:
#      x y z
#    x 1.657790 0.000000 0.000000 
#    y 0.000000 1.725970 0.000000 
#    z 0.000000 0.000000 1.668850 
# 
# From -- ./inp_files/48424.got.cif
#   From: 2010.05.17/outbox.cif.g08.bks.cpg/sg74_25_cif.got.tgz:48424.got - 2010.06.03 17:57:02.
