data_PCOD9534834
_publ_section_title
;
Structure prediction by ZEFSAII (Michael W. Deem and Ramdas Pophale) SiO2 
 PCOD9534834
Probable space group: I M M A
;
_chemical_formula_sum "Si O2"
_cell_formula_units_Z 84
_cell_length_a 27.367407
_cell_length_b 7.724576
_cell_length_c 25.197061
_cell_angle_alpha 90.000000
_cell_angle_beta 90.000000
_cell_angle_gamma 90.000000
_cell_volume 5326.699396
_symmetry_space_group_name_H-M "I M M A"
_symmetry_group_IT_number 74
_symmetry_cell_setting 'orthorhombic'
loop_
_space_group_symop_operation_xyz
x,y,z
-x,1/2-y,z
x,-y,-z
-x,1/2+y,-z
-x,-y,-z
x,1/2+y,-z
-x,y,z
x,1/2-y,z
1/2+x,1/2+y,1/2+z
1/2-x,-y,1/2+z
1/2+x,1/2-y,1/2-z
1/2-x,y,1/2-z
1/2-x,1/2-y,1/2-z
1/2+x,y,1/2-z
1/2-x,1/2+y,1/2+z
1/2+x,-y,1/2+z
loop_
_atom_site_type_symbol
_atom_site_label
_atom_site_fract_x
_atom_site_fract_y
_atom_site_fract_z
Si Si1 0.168203 0.458510 0.658556
Si Si2 0.555363 0.250000 0.283827
Si Si3 0.500000 0.250000 0.180315
Si Si4 0.393490 0.956672 0.058351
Si Si5 0.229428 0.955176 0.806619
Si Si6 0.371915 0.949272 0.275304
Si Si7 0.500000 0.459602 0.906586
O O1 0.166808 0.250000 0.658526
O O2 0.136972 0.524751 0.608661
O O3 0.225011 0.511532 0.655010
O O4 0.145771 0.509390 0.716021
O O5 0.500000 0.250000 0.306435
O O6 0.545483 0.250000 0.220371
O O7 0.586808 0.420424 0.295424
O O8 0.500000 0.424238 0.146117
O O9 0.392996 0.750000 0.062989
O O10 0.450226 0.009368 0.063483
O O11 0.374381 0.000000 0.000000
O O12 0.221404 0.750000 0.802761
O O13 0.250000 0.021022 0.750000
O O14 0.176456 0.038977 0.812032
O O15 0.388167 0.750000 0.271521
O O16 0.500000 0.250000 0.897114
#
# Coordination Sequence:
#
# PCOD9534834 Si02
#       7
#    16   8   4  16  16  16   8
#     4   9  18  30  45  66  86 112 149 187 238 287
#     4  10  22  32  41  69  94 114 156 183 223 280
#     4  10  22  32  50  66  84 120 148 204 234 280
#     4  10  21  34  47  63  86 115 155 204 244 292
#     4   9  16  27  46  69  89 109 140 184 227 279
#     4  10  18  32  50  65  91 118 144 189 233 272
#     4  10  21  37  50  64  82 112 162 206 248 286
#
# _framework density 15.769615999999999
#
# number of rings (size 3 to 8) (size 9 to 14) (size 15 to 20)
#    0.286    2.095    0.952    2.000    2.667    5.714 
#    0.000    0.000    0.000    0.000    0.000    0.000 
#    0.000    0.000    0.000    0.000    0.000    0.952 
#
# Total GULP energy -233906.201109 kJ/mol
# GULP energy per Si atom -5569.195264 kJ/mol
# Density = 1.573372 g / cm^3
# Si number density = 15.769616 Si / 1000 Ang^3
#
#
#
# Elastic Constant Matrix: (Units=GPa)
#
#
# Indices 1 2 3 4 5 6 
#
# 1 117.8801 32.0927 27.4843 0.0000 0.0000 0.0000
# 2 32.0927 55.8342 -1.9101 0.0000 0.0000 0.0000
# 3 27.4843 -1.9101 36.1747 0.0000 0.0000 0.0000
# 4 0.0000 0.0000 0.0000 14.2433 0.0000 0.0000
# 5 0.0000 0.0000 0.0000 0.0000 2.5539 0.0000
# 6 0.0000 0.0000 0.0000 0.0000 0.0000 20.9313
#
#
#
# Elastic Compliance Matrix: (Units=1/GPa)
#
#
# Indices 1 2 3 4 5 6 
#
# 1 0.013019 -0.007836 -0.010305 0.000000 0.000000 0.000000
# 2 -0.007836 0.022659 0.007150 0.000000 0.000000 0.000000
# 3 -0.010305 0.007150 0.035851 0.000000 0.000000 0.000000
# 4 0.000000 0.000000 0.000000 0.070208 0.000000 0.000000
# 5 0.000000 0.000000 0.000000 0.000000 0.391558 0.000000
# 6 0.000000 0.000000 0.000000 0.000000 0.000000 0.047775
#
#
# Mechanical properties :
#
#
# Convention : Reuss Voigt Hill
#
# Bulk Modulus (GPa) = 20.18328 36.13588 28.15958
# Shear Modulus (GPa) = 8.07014 17.69385 12.88199
#
# Velocity S-wave (km/s) = 2.26465 3.35329 2.86122
# Velocity P-wave (km/s) = 4.43450 6.16096 5.36760
#
# Compressibility (1/GPa) = 0.04954595
#
# Stress axis : x y z
#
# Youngs Moduli (GPa) = 76.80962 44.13324 27.89346
#
# Poissons Ratio (x) = 0.34582 0.28745
# Poissons Ratio (y) = 0.60186 -0.19943
# Poissons Ratio (z) = 0.79154 -0.31554
#
# Static dielectric constant tensor:
#      x y z
#    x 1.567730 0.000000 0.000000 
#    y 0.000000 1.570490 0.000000 
#    z 0.000000 0.000000 1.507500 
# 
# From -- ./inp_files/62232.got.cif
#   From: 2010.05.17/outbox.cif.g08.bks.cpg/sg74_32_cif.got.tgz:62232.got - 2010.06.03 17:57:02.
