data_PCOD9534191
_publ_section_title
;
Structure prediction by ZEFSAII (Michael W. Deem and Ramdas Pophale) SiO2 
 PCOD9534191
Probable space group: I M M A
;
_chemical_formula_sum "Si O2"
_cell_formula_units_Z 96
_cell_length_a 14.349245
_cell_length_b 13.909921
_cell_length_c 27.778113
_cell_angle_alpha 90.000000
_cell_angle_beta 90.000000
_cell_angle_gamma 90.000000
_cell_volume 5544.424253
_symmetry_space_group_name_H-M "I M M A"
_symmetry_group_IT_number 74
_symmetry_cell_setting 'orthorhombic'
loop_
_space_group_symop_operation_xyz
x,y,z
-x,1/2-y,z
x,-y,-z
-x,1/2+y,-z
-x,-y,-z
x,1/2+y,-z
-x,y,z
x,1/2-y,z
1/2+x,1/2+y,1/2+z
1/2-x,-y,1/2+z
1/2+x,1/2-y,1/2-z
1/2-x,y,1/2-z
1/2-x,1/2-y,1/2-z
1/2+x,y,1/2-z
1/2-x,1/2+y,1/2+z
1/2+x,-y,1/2+z
loop_
_atom_site_type_symbol
_atom_site_label
_atom_site_fract_x
_atom_site_fract_y
_atom_site_fract_z
Si Si1 0.113687 0.141151 0.180217
Si Si2 0.112119 0.553937 0.221307
Si Si3 0.390611 0.132911 0.530728
Si Si4 0.393687 0.365915 0.825051
Si Si5 0.108638 0.866823 0.925448
Si Si6 0.789181 0.633980 0.126895
O O1 0.144674 0.250000 0.190440
O O2 0.147987 0.108194 0.127034
O O3 0.000000 0.144104 0.177579
O O4 0.138297 0.058384 0.217540
O O5 0.138436 0.598552 0.272436
O O6 0.154304 0.605018 0.174607
O O7 0.000000 0.562155 0.217930
O O8 0.500000 0.107725 0.534640
O O9 0.387217 0.250000 0.531252
O O10 0.354344 0.102953 0.477758
O O11 0.335829 0.097828 0.577612
O O12 0.500000 0.398834 0.833587
O O13 0.394876 0.250000 0.823878
O O14 0.317382 0.396997 0.864007
O O15 0.109692 0.750000 0.925109
O O16 0.000000 0.895770 0.925406
O O17 0.790184 0.750000 0.124382
#
# Coordination Sequence:
#
# PCOD9534191 Si02
#       6
#    16  16  16  16  16  16
#     4   8  14  25  40  57  80 112 142 162 186 225
#     4  10  18  26  39  60  83 107 136 166 194 231
#     4   8  13  21  35  57  84 111 134 156 187 228
#     4   9  18  31  44  57  75 103 138 172 206 242
#     4   7  10  19  35  53  77 110 139 158 181 219
#     4  10  18  27  40  57  79 107 136 166 200 238
#
# _framework density 17.314692000000001
#
# number of rings (size 3 to 8) (size 9 to 14) (size 15 to 20)
#    0.000    3.333    0.000    3.500    0.000    3.000 
#    0.000    0.833    0.000    6.000    0.000    0.000 
#    0.000    2.667    0.000    4.833    0.000    3.667 
#
# Total GULP energy -267329.387068 kJ/mol
# GULP energy per Si atom -5569.362231 kJ/mol
# Density = 1.727528 g / cm^3
# Si number density = 17.314692 Si / 1000 Ang^3
#
#
#
# Elastic Constant Matrix: (Units=GPa)
#
#
# Indices 1 2 3 4 5 6 
#
# 1 47.4226 5.7770 34.6882 0.0000 0.0000 0.0000
# 2 5.7770 28.3678 2.4988 0.0000 0.0000 0.0000
# 3 34.6882 2.4988 58.3606 0.0000 0.0000 0.0000
# 4 0.0000 0.0000 0.0000 19.7108 0.0000 0.0000
# 5 0.0000 0.0000 0.0000 0.0000 -1.4766 0.0000
# 6 0.0000 0.0000 0.0000 0.0000 0.0000 5.8388
#
#
#
# Elastic Compliance Matrix: (Units=1/GPa)
#
#
# Indices 1 2 3 4 5 6 
#
# 1 0.038237 -0.005807 -0.022478 0.000000 0.000000 0.000000
# 2 -0.005807 0.036266 0.001899 0.000000 0.000000 0.000000
# 3 -0.022478 0.001899 0.030414 0.000000 0.000000 0.000000
# 4 0.000000 0.000000 0.000000 0.050734 0.000000 0.000000
# 5 0.000000 0.000000 0.000000 0.000000 -0.677240 0.000000
# 6 0.000000 0.000000 0.000000 0.000000 0.000000 0.171268
#
#
# Mechanical properties :
#
#
# Convention : Reuss Voigt Hill
#
# Bulk Modulus (GPa) = 19.17757 24.45324 21.81540
# Shear Modulus (GPa) = -17.84653 10.89374 -3.47640
#
# Velocity S-wave (km/s) = -3.21396 2.51103 -1.41850
# Velocity P-wave (km/s) = 1.63486 4.74979 3.15339
#
# Compressibility (1/GPa) = 0.05214426
#
# Stress axis : x y z
#
# Youngs Moduli (GPa) = 26.15293 27.57366 32.87942
#
# Poissons Ratio (x) = 0.16011 0.73908
# Poissons Ratio (y) = 0.15186 -0.06243
# Poissons Ratio (z) = 0.58787 -0.05235
#
# Static dielectric constant tensor:
#      x y z
#    x 1.590510 0.000000 0.000000 
#    y 0.000000 1.644730 0.000000 
#    z 0.000000 0.000000 1.609840 
# 
# From -- ./inp_files/72558.got.cif
#   From: 2010.05.17/outbox.cif.g08.bks.cpg/sg74_37_cif.got.tgz:72558.got - 2010.06.03 17:57:02.
