data_PCOD9534868
_publ_section_title
;
Structure prediction by ZEFSAII (Michael W. Deem and Ramdas Pophale) SiO2 
 PCOD9534868
Probable space group: I M M A
;
_chemical_formula_sum "Si O2"
_cell_formula_units_Z 64
_cell_length_a 12.847494
_cell_length_b 17.160465
_cell_length_c 12.911344
_cell_angle_alpha 90.000000
_cell_angle_beta 90.000000
_cell_angle_gamma 90.000000
_cell_volume 2846.550728
_symmetry_space_group_name_H-M "I M M A"
_symmetry_group_IT_number 74
_symmetry_cell_setting 'orthorhombic'
loop_
_space_group_symop_operation_xyz
x,y,z
-x,1/2-y,z
x,-y,-z
-x,1/2+y,-z
-x,-y,-z
x,1/2+y,-z
-x,y,z
x,1/2-y,z
1/2+x,1/2+y,1/2+z
1/2-x,-y,1/2+z
1/2+x,1/2-y,1/2-z
1/2-x,y,1/2-z
1/2-x,1/2-y,1/2-z
1/2+x,y,1/2-z
1/2-x,1/2+y,1/2+z
1/2+x,-y,1/2+z
loop_
_atom_site_type_symbol
_atom_site_label
_atom_site_fract_x
_atom_site_fract_y
_atom_site_fract_z
Si Si1 0.730618 0.659270 0.592695
Si Si2 0.000000 0.660300 0.885922
Si Si3 0.383624 0.523006 0.878819
Si Si4 0.500000 0.427223 0.581202
Si Si5 0.778336 0.612859 0.147173
O O1 0.742371 0.750000 0.619309
O O2 0.617334 0.629862 0.635214
O O3 0.823297 0.604553 0.630590
O O4 0.732353 0.651188 0.466715
O O5 0.000000 0.750000 0.853280
O O6 0.000000 0.650605 0.010582
O O7 0.500000 0.525706 0.833904
O O8 0.305657 0.456004 0.844236
O O9 0.394264 0.500000 0.000000
O O10 0.500000 0.500000 0.500000
O O11 0.605878 0.423057 0.644036
O O12 0.750000 0.661387 0.250000
#
# Coordination Sequence:
#
# PCOD9534868 Si02
#       5
#    16   8  16   8  16
#     4   9  17  31  51  75 100 135 176 213 257 311
#     4   8  14  26  46  70  96 119 159 212 246 285
#     4   9  18  32  49  69  99 135 176 213 252 310
#     4  10  18  32  52  72  97 131 183 212 247 313
#     4  10  20  31  50  76 107 137 168 219 272 311
#
# _framework density 22.483352
#
# number of rings (size 3 to 8) (size 9 to 14) (size 15 to 20)
#    0.000    2.750    0.000    3.750    1.750    1.000 
#    0.000    0.000    0.000    0.750    0.000    0.000 
#    0.000    0.000    0.000    0.000    0.000    0.000 
#
# Total GULP energy -178297.177638 kJ/mol
# GULP energy per Si atom -5571.786801 kJ/mol
# Density = 2.243218 g / cm^3
# Si number density = 22.483352 Si / 1000 Ang^3
#
#
#
# Elastic Constant Matrix: (Units=GPa)
#
#
# Indices 1 2 3 4 5 6 
#
# 1 218.4223 60.5334 30.3621 0.0000 0.0000 0.0000
# 2 60.5334 100.8100 1.2497 0.0000 0.0000 0.0000
# 3 30.3621 1.2497 101.2047 0.0000 0.0000 0.0000
# 4 0.0000 0.0000 0.0000 -4.0991 0.0000 0.0000
# 5 0.0000 0.0000 0.0000 0.0000 22.6779 0.0000
# 6 0.0000 0.0000 0.0000 0.0000 0.0000 24.1719
#
#
#
# Elastic Compliance Matrix: (Units=1/GPa)
#
#
# Indices 1 2 3 4 5 6 
#
# 1 0.005767 -0.003442 -0.001688 0.000000 0.000000 0.000000
# 2 -0.003442 0.011975 0.000885 0.000000 0.000000 0.000000
# 3 -0.001688 0.000885 0.010376 0.000000 0.000000 0.000000
# 4 0.000000 0.000000 0.000000 -0.243957 0.000000 0.000000
# 5 0.000000 0.000000 0.000000 0.000000 0.044096 0.000000
# 6 0.000000 0.000000 0.000000 0.000000 0.000000 0.041370
#
#
# Mechanical properties :
#
#
# Convention : Reuss Voigt Hill
#
# Bulk Modulus (GPa) = 50.94485 67.19193 59.06839
# Shear Modulus (GPa) = -43.35023 30.43626 -6.45698
#
# Velocity S-wave (km/s) = -4.39578 3.68329 -1.69651
# Velocity P-wave (km/s) = 1.74807 6.93101 4.74253
#
# Compressibility (1/GPa) = 0.01962907
#
# Stress axis : x y z
#
# Youngs Moduli (GPa) = 173.40830 83.50452 96.37325
#
# Poissons Ratio (x) = 0.28741 0.16264
# Poissons Ratio (y) = 0.59684 -0.08526
# Poissons Ratio (z) = 0.29264 -0.07388
#
# Static dielectric constant tensor:
#      x y z
#    x 1.832280 0.000000 0.000000 
#    y 0.000000 1.833490 0.000000 
#    z 0.000000 0.000000 1.899410 
# 
# From -- ./inp_files/30232.got.cif
#   From: 2010.05.17/outbox.cif.g08.bks.cpg/sg74_16_cif.got.tgz:30232.got - 2010.06.03 17:57:02.
