data_PCOD9534576
_publ_section_title
;
Structure prediction by ZEFSAII (Michael W. Deem and Ramdas Pophale) SiO2 
 PCOD9534576
Probable space group: I M M A
;
_chemical_formula_sum "Si O2"
_cell_formula_units_Z 112
_cell_length_a 26.376904
_cell_length_b 7.707964
_cell_length_c 30.035447
_cell_angle_alpha 90.000000
_cell_angle_beta 90.000000
_cell_angle_gamma 90.000000
_cell_volume 6106.573602
_symmetry_space_group_name_H-M "I M M A"
_symmetry_group_IT_number 74
_symmetry_cell_setting 'orthorhombic'
loop_
_space_group_symop_operation_xyz
x,y,z
-x,1/2-y,z
x,-y,-z
-x,1/2+y,-z
-x,-y,-z
x,1/2+y,-z
-x,y,z
x,1/2-y,z
1/2+x,1/2+y,1/2+z
1/2-x,-y,1/2+z
1/2+x,1/2-y,1/2-z
1/2-x,y,1/2-z
1/2-x,1/2-y,1/2-z
1/2+x,y,1/2-z
1/2-x,1/2+y,1/2+z
1/2+x,-y,1/2+z
loop_
_atom_site_type_symbol
_atom_site_label
_atom_site_fract_x
_atom_site_fract_y
_atom_site_fract_z
Si Si1 0.348657 0.041471 0.642509
Si Si2 0.557116 0.043675 0.297588
Si Si3 0.809802 0.041646 0.950835
Si Si4 0.806661 0.958088 0.450816
Si Si5 0.057053 0.955467 0.302840
Si Si6 0.748731 0.037957 0.698777
Si Si7 0.652420 0.037240 0.857565
O O1 0.344838 0.250000 0.641464
O O2 0.340686 0.977992 0.591981
O O3 0.301722 0.979419 0.672971
O O4 0.401655 0.999433 0.665441
O O5 0.500000 0.978065 0.307116
O O6 0.554726 0.250000 0.293871
O O7 0.572480 0.975823 0.248806
O O8 0.807495 0.250000 0.947960
O O9 0.751545 0.976259 0.947939
O O10 0.829770 0.000000 0.000000
O O11 0.804132 0.750000 0.447398
O O12 0.838229 0.019613 0.408304
O O13 0.826479 0.000000 0.500000
O O14 0.053811 0.750000 0.311504
O O15 0.100647 0.025589 0.334958
O O16 0.000000 0.028520 0.307765
O O17 0.748095 0.250000 0.698931
O O18 0.750000 0.981086 0.750000
O O19 0.798938 0.985782 0.671888
O O20 0.651496 0.250000 0.857073
#
# Coordination Sequence:
#
# PCOD9534576 Si02
#       7
#    16  16  16  16  16  16  16
#     4  10  18  30  49  72  93 118 157 197 228 270
#     4  10  21  35  49  67  94 127 157 187 230 280
#     4   9  17  29  46  69  95 121 153 191 231 278
#     4   9  16  28  45  66  93 123 156 191 230 278
#     4   9  17  30  50  73  92 118 162 205 233 264
#     4   9  15  23  40  67  94 119 147 182 229 278
#     4   9  15  26  45  69  95 122 153 194 237 275
#
# _framework density 18.340890999999999
#
# number of rings (size 3 to 8) (size 9 to 14) (size 15 to 20)
#    0.000    2.714    1.429    1.286    0.000    3.714 
#    0.000    0.714    0.000    4.714    0.000    0.000 
#    0.000    0.000    0.000    0.000    0.000    0.000 
#
# Total GULP energy -312294.035604 kJ/mol
# GULP energy per Si atom -5576.679207 kJ/mol
# Density = 1.829915 g / cm^3
# Si number density = 18.340891 Si / 1000 Ang^3
#
#
#
# Elastic Constant Matrix: (Units=GPa)
#
#
# Indices 1 2 3 4 5 6 
#
# 1 106.4079 3.6943 100.1415 0.0000 0.0000 0.0000
# 2 3.6943 27.8558 2.9475 0.0000 0.0000 0.0000
# 3 100.1415 2.9475 193.4700 0.0000 0.0000 0.0000
# 4 0.0000 0.0000 0.0000 15.4962 0.0000 0.0000
# 5 0.0000 0.0000 0.0000 0.0000 1.9696 0.0000
# 6 0.0000 0.0000 0.0000 0.0000 0.0000 -3.2785
#
#
#
# Elastic Compliance Matrix: (Units=1/GPa)
#
#
# Indices 1 2 3 4 5 6 
#
# 1 0.018381 -0.001433 -0.009492 0.000000 0.000000 0.000000
# 2 -0.001433 0.036069 0.000192 0.000000 0.000000 0.000000
# 3 -0.009492 0.000192 0.010079 0.000000 0.000000 0.000000
# 4 0.000000 0.000000 0.000000 0.064532 0.000000 0.000000
# 5 0.000000 0.000000 0.000000 0.000000 0.507706 0.000000
# 6 0.000000 0.000000 0.000000 0.000000 0.000000 -0.305022
#
#
# Mechanical properties :
#
#
# Convention : Reuss Voigt Hill
#
# Bulk Modulus (GPa) = 23.22209 60.14448 41.68329
# Shear Modulus (GPa) = 13.60303 17.56751 15.58527
#
# Velocity S-wave (km/s) = 2.72633 3.09825 2.91822
# Velocity P-wave (km/s) = 4.75388 6.75741 5.84217
#
# Compressibility (1/GPa) = 0.04306245
#
# Stress axis : x y z
#
# Youngs Moduli (GPa) = 54.40485 27.72475 99.21585
#
# Poissons Ratio (x) = 0.03974 0.94177
# Poissons Ratio (y) = 0.07798 -0.01909
# Poissons Ratio (z) = 0.51642 -0.00533
#
# Static dielectric constant tensor:
#      x y z
#    x 1.635230 0.000000 0.000000 
#    y 0.000000 1.693470 0.000000 
#    z 0.000000 0.000000 1.634260 
# 
# From -- ./inp_files/62046.got.cif
#   From: 2010.05.17/outbox.cif.g08.bks.cpg/sg74_32_cif.got.tgz:62046.got - 2010.06.03 17:57:02.
