data_PCOD9534679
_publ_section_title
;
Structure prediction by ZEFSAII (Michael W. Deem and Ramdas Pophale) SiO2 
 PCOD9534679
Probable space group: I M M A
;
_chemical_formula_sum "Si O2"
_cell_formula_units_Z 96
_cell_length_a 29.742284
_cell_length_b 8.994521
_cell_length_c 26.130099
_cell_angle_alpha 90.000000
_cell_angle_beta 90.000000
_cell_angle_gamma 90.000000
_cell_volume 6990.261321
_symmetry_space_group_name_H-M "I M M A"
_symmetry_group_IT_number 74
_symmetry_cell_setting 'orthorhombic'
loop_
_space_group_symop_operation_xyz
x,y,z
-x,1/2-y,z
x,-y,-z
-x,1/2+y,-z
-x,-y,-z
x,1/2+y,-z
-x,y,z
x,1/2-y,z
1/2+x,1/2+y,1/2+z
1/2-x,-y,1/2+z
1/2+x,1/2-y,1/2-z
1/2-x,y,1/2-z
1/2-x,1/2-y,1/2-z
1/2+x,y,1/2-z
1/2-x,1/2+y,1/2+z
1/2+x,-y,1/2+z
loop_
_atom_site_type_symbol
_atom_site_label
_atom_site_fract_x
_atom_site_fract_y
_atom_site_fract_z
Si Si1 0.049745 0.569459 0.216113
Si Si2 0.305588 0.075001 0.644606
Si Si3 0.856148 0.426442 0.746450
Si Si4 0.775622 0.078940 0.304968
Si Si5 0.448363 0.572048 0.404632
Si Si6 0.360218 0.926952 0.553231
O O1 0.049891 0.750000 0.218457
O O2 0.092621 0.518664 0.248403
O O3 0.055760 0.534691 0.155878
O O4 0.000000 0.517990 0.231999
O O5 0.305175 0.250000 0.632778
O O6 0.334411 0.055991 0.696903
O O7 0.255910 0.015079 0.657383
O O8 0.329401 0.985772 0.599464
O O9 0.855564 0.250000 0.735307
O O10 0.824247 0.510169 0.706694
O O11 0.778345 0.250000 0.321266
O O12 0.750000 0.075199 0.250000
O O13 0.500000 0.541853 0.419893
O O14 0.440570 0.750000 0.409688
O O15 0.410769 0.483530 0.434954
O O16 0.359106 0.750000 0.550212
O O17 0.345534 0.000000 0.500000
#
# Coordination Sequence:
#
# PCOD9534679 Si02
#       6
#    16  16  16  16  16  16
#     4   8  13  23  41  62  82 106 136 168 204 246
#     4  10  18  31  47  62  80 102 132 169 209 251
#     4   9  15  25  43  63  82 106 135 165 201 245
#     4   9  17  27  40  61  85 106 129 160 202 244
#     4   9  17  32  50  63  77 101 135 175 217 257
#     4  12  24  35  47  61  80 104 135 172 216 260
#
# _framework density 13.733392
#
# number of rings (size 3 to 8) (size 9 to 14) (size 15 to 20)
#    0.000    2.500    1.667    3.500    0.000    3.333 
#    0.000    0.000    0.000    0.500    0.000    0.000 
#    0.000    0.000    0.000    0.000    0.000    0.833 
#
# Total GULP energy -267529.643956 kJ/mol
# GULP energy per Si atom -5573.534249 kJ/mol
# Density = 1.370213 g / cm^3
# Si number density = 13.733392 Si / 1000 Ang^3
#
#
#
# Elastic Constant Matrix: (Units=GPa)
#
#
# Indices 1 2 3 4 5 6 
#
# 1 85.6451 39.9357 28.4400 0.0000 0.0000 0.0000
# 2 39.9357 70.4551 30.8237 0.0000 0.0000 0.0000
# 3 28.4400 30.8237 32.0912 0.0000 0.0000 0.0000
# 4 0.0000 0.0000 0.0000 16.8866 0.0000 0.0000
# 5 0.0000 0.0000 0.0000 0.0000 9.5812 0.0000
# 6 0.0000 0.0000 0.0000 0.0000 0.0000 19.6449
#
#
#
# Elastic Compliance Matrix: (Units=1/GPa)
#
#
# Indices 1 2 3 4 5 6 
#
# 1 0.017686 -0.005463 -0.010426 0.000000 0.000000 0.000000
# 2 -0.005463 0.026168 -0.020293 0.000000 0.000000 0.000000
# 3 -0.010426 -0.020293 0.059892 0.000000 0.000000 0.000000
# 4 0.000000 0.000000 0.000000 0.059219 0.000000 0.000000
# 5 0.000000 0.000000 0.000000 0.000000 0.104371 0.000000
# 6 0.000000 0.000000 0.000000 0.000000 0.000000 0.050904
#
#
# Mechanical properties :
#
#
# Convention : Reuss Voigt Hill
#
# Bulk Modulus (GPa) = 31.86551 42.95446 37.40999
# Shear Modulus (GPa) = 12.46682 15.15533 13.81107
#
# Velocity S-wave (km/s) = 3.01620 3.32556 3.17465
# Velocity P-wave (km/s) = 5.94838 6.78904 6.38257
#
# Compressibility (1/GPa) = 0.03138189
#
# Stress axis : x y z
#
# Youngs Moduli (GPa) = 56.54265 38.21425 16.69665
#
# Poissons Ratio (x) = 0.20878 0.17408
# Poissons Ratio (y) = 0.30892 0.33882
# Poissons Ratio (z) = 0.58951 0.77548
#
# Static dielectric constant tensor:
#      x y z
#    x 1.470580 0.000000 0.000000 
#    y 0.000000 1.454670 0.000000 
#    z 0.000000 0.000000 1.424170 
# 
# From -- ./inp_files/62263.got.cif
#   From: 2010.05.17/outbox.cif.g08.bks.cpg/sg74_32_cif.got.tgz:62263.got - 2010.06.03 17:57:02.
