data_PCOD9534239
_publ_section_title
;
Structure prediction by ZEFSAII (Michael W. Deem and Ramdas Pophale) SiO2 
 PCOD9534239
Probable space group: I M M A
;
_chemical_formula_sum "Si O2"
_cell_formula_units_Z 112
_cell_length_a 14.553565
_cell_length_b 14.914825
_cell_length_c 26.597760
_cell_angle_alpha 90.000000
_cell_angle_beta 90.000000
_cell_angle_gamma 90.000000
_cell_volume 5773.412855
_symmetry_space_group_name_H-M "I M M A"
_symmetry_group_IT_number 74
_symmetry_cell_setting 'orthorhombic'
loop_
_space_group_symop_operation_xyz
x,y,z
-x,1/2-y,z
x,-y,-z
-x,1/2+y,-z
-x,-y,-z
x,1/2+y,-z
-x,y,z
x,1/2-y,z
1/2+x,1/2+y,1/2+z
1/2-x,-y,1/2+z
1/2+x,1/2-y,1/2-z
1/2-x,y,1/2-z
1/2-x,1/2-y,1/2-z
1/2+x,y,1/2-z
1/2-x,1/2+y,1/2+z
1/2+x,-y,1/2+z
loop_
_atom_site_type_symbol
_atom_site_label
_atom_site_fract_x
_atom_site_fract_y
_atom_site_fract_z
Si Si1 0.104447 0.396104 0.719017
Si Si2 0.278019 0.141664 0.879702
Si Si3 0.897699 0.354424 0.829488
Si Si4 0.395560 0.359862 0.087983
Si Si5 0.258927 0.148523 0.171735
Si Si6 0.896277 0.640505 0.472376
Si Si7 0.894648 0.901083 0.756392
O O1 0.161478 0.376942 0.669600
O O2 0.138133 0.356481 0.772086
O O3 0.103131 0.501071 0.731597
O O4 0.000000 0.363813 0.711382
O O5 0.272575 0.250000 0.884130
O O6 0.176827 0.105630 0.867004
O O7 0.325886 0.108136 0.930335
O O8 0.906910 0.250000 0.842523
O O9 0.000000 0.395814 0.829746
O O10 0.500000 0.387262 0.102813
O O11 0.394944 0.250000 0.090351
O O12 0.315236 0.391654 0.124935
O O13 0.379798 0.386268 0.030081
O O14 0.229362 0.250000 0.159527
O O15 0.170173 0.098680 0.194313
O O16 0.335795 0.153620 0.215734
O O17 0.895001 0.750000 0.472268
O O18 0.000000 0.613013 0.458584
O O19 0.000000 0.871580 0.764433
#
# Coordination Sequence:
#
# PCOD9534239 Si02
#       7
#    16  16  16  16  16  16  16
#     4  10  20  31  44  65  95 128 159 193 235 281
#     4  10  18  27  46  71  96 130 166 199 229 264
#     4   9  18  30  43  63  92 128 167 200 230 266
#     4   8  14  27  48  72  97 121 148 189 239 289
#     4  10  20  32  51  73  90 120 158 192 234 291
#     4   8  14  25  43  70  99 123 152 192 236 278
#     4  10  21  33  46  69  98 126 152 189 239 285
#
# _framework density 19.399270999999999
#
# number of rings (size 3 to 8) (size 9 to 14) (size 15 to 20)
#    0.000    2.714    0.000    3.429    4.000    4.286 
#    0.000    0.000    0.000    1.714    0.000    8.000 
#    0.000    3.429    0.000    0.000    0.000    0.000 
#
# Total GULP energy -312308.014554 kJ/mol
# GULP energy per Si atom -5576.928831 kJ/mol
# Density = 1.935512 g / cm^3
# Si number density = 19.399271 Si / 1000 Ang^3
#
#
#
# Elastic Constant Matrix: (Units=GPa)
#
#
# Indices 1 2 3 4 5 6 
#
# 1 117.9341 -2.7526 67.9364 0.0000 0.0000 0.0000
# 2 -2.7526 27.9006 -5.1763 0.0000 0.0000 0.0000
# 3 67.9364 -5.1763 96.4648 0.0000 0.0000 0.0000
# 4 0.0000 0.0000 0.0000 24.8082 0.0000 0.0000
# 5 0.0000 0.0000 0.0000 0.0000 36.5935 0.0000
# 6 0.0000 0.0000 0.0000 0.0000 0.0000 3.9203
#
#
#
# Elastic Compliance Matrix: (Units=1/GPa)
#
#
# Indices 1 2 3 4 5 6 
#
# 1 0.014273 -0.000461 -0.010077 0.000000 0.000000 0.000000
# 2 -0.000461 0.036217 0.002268 0.000000 0.000000 0.000000
# 3 -0.010077 0.002268 0.017585 0.000000 0.000000 0.000000
# 4 0.000000 0.000000 0.000000 0.040309 0.000000 0.000000
# 5 0.000000 0.000000 0.000000 0.000000 0.027327 0.000000
# 6 0.000000 0.000000 0.000000 0.000000 0.000000 0.255084
#
#
# Mechanical properties :
#
#
# Convention : Reuss Voigt Hill
#
# Bulk Modulus (GPa) = 19.40417 40.25715 29.83066
# Shear Modulus (GPa) = 11.77816 25.21720 18.49768
#
# Velocity S-wave (km/s) = 2.46670 3.60933 3.09127
# Velocity P-wave (km/s) = 4.25876 6.17791 5.30583
#
# Compressibility (1/GPa) = 0.05153532
#
# Stress axis : x y z
#
# Youngs Moduli (GPa) = 70.06034 27.61141 56.86668
#
# Poissons Ratio (x) = 0.01274 0.57304
# Poissons Ratio (y) = 0.03233 -0.12899
# Poissons Ratio (z) = 0.70599 -0.06263
#
# Static dielectric constant tensor:
#      x y z
#    x 1.709510 0.000000 0.000000 
#    y 0.000000 1.770570 0.000000 
#    z 0.000000 0.000000 1.668170 
# 
# From -- ./inp_files/67209.got.cif
#   From: 2010.05.17/outbox.cif.g08.bks.cpg/sg74_34_cif.got.tgz:67209.got - 2010.06.03 17:57:02.
