data_PCOD9534281
_publ_section_title
;
Structure prediction by ZEFSAII (Michael W. Deem and Ramdas Pophale) SiO2 
 PCOD9534281
Probable space group: I M M A
;
_chemical_formula_sum "Si O2"
_cell_formula_units_Z 128
_cell_length_a 14.207189
_cell_length_b 24.294305
_cell_length_c 18.948842
_cell_angle_alpha 90.000000
_cell_angle_beta 90.000000
_cell_angle_gamma 90.000000
_cell_volume 6540.264495
_symmetry_space_group_name_H-M "I M M A"
_symmetry_group_IT_number 74
_symmetry_cell_setting 'orthorhombic'
loop_
_space_group_symop_operation_xyz
x,y,z
-x,1/2-y,z
x,-y,-z
-x,1/2+y,-z
-x,-y,-z
x,1/2+y,-z
-x,y,z
x,1/2-y,z
1/2+x,1/2+y,1/2+z
1/2-x,-y,1/2+z
1/2+x,1/2-y,1/2-z
1/2-x,y,1/2-z
1/2-x,1/2-y,1/2-z
1/2+x,y,1/2-z
1/2-x,1/2+y,1/2+z
1/2+x,-y,1/2+z
loop_
_atom_site_type_symbol
_atom_site_label
_atom_site_fract_x
_atom_site_fract_y
_atom_site_fract_z
Si Si1 0.884926 0.185972 0.772742
Si Si2 0.615015 0.883486 0.137762
Si Si3 0.110114 0.316980 0.927150
Si Si4 0.113657 0.186823 0.077658
Si Si5 0.141308 0.812940 0.766390
Si Si6 0.891397 0.381631 0.370811
Si Si7 0.885188 0.999410 0.583224
Si Si8 0.615235 0.312110 0.998403
O O1 0.859183 0.250000 0.759824
O O2 0.855218 0.146440 0.709532
O O3 0.850440 0.168063 0.850532
O O4 0.000000 0.185595 0.774686
O O5 0.500000 0.884178 0.139328
O O6 0.647478 0.945677 0.123261
O O7 0.641315 0.847437 0.069561
O O8 0.112351 0.250000 0.929506
O O9 0.000000 0.333194 0.925245
O O10 0.148784 0.336737 0.002790
O O11 0.148082 0.250000 0.082960
O O12 0.131544 0.162805 0.154957
O O13 0.000000 0.188876 0.071193
O O14 0.101647 0.750000 0.763282
O O15 0.250000 0.807427 0.750000
O O16 0.107217 0.853633 0.705412
O O17 0.851326 0.442854 0.380275
O O18 0.851110 0.339565 0.428781
O O19 0.000000 0.388311 0.392461
O O20 0.000000 0.001481 0.585028
O O21 0.859673 0.000000 0.500000
O O22 0.500000 0.309804 0.999692
O O23 0.649657 0.250000 0.991714
#
# Coordination Sequence:
#
# PCOD9534281 Si02
#       8
#    16  16  16  16  16  16  16  16
#     4   8  12  17  27  48  80 111 135 163 205 257
#     4   9  14  20  31  50  81 114 138 167 208 247
#     4   7  10  17  30  50  75 102 132 162 191 232
#     4   8  13  23  40  59  80 108 138 166 202 252
#     4  10  20  31  42  61  89 113 136 174 221 265
#     4  10  18  28  43  61  83 115 151 180 210 252
#     4   9  15  25  38  55  80 110 145 182 207 236
#     4   9  15  21  32  53  82 114 141 164 200 253
#
# _framework density 19.571073999999999
#
# number of rings (size 3 to 8) (size 9 to 14) (size 15 to 20)
#    0.000    3.250    1.250    2.625    0.000    2.750 
#    0.000    0.000    0.000    0.000    0.000    2.625 
#    0.000    6.125    0.000    9.375    0.000    8.750 
#
# Total GULP energy -356526.690897 kJ/mol
# GULP energy per Si atom -5570.729545 kJ/mol
# Density = 1.952653 g / cm^3
# Si number density = 19.571074 Si / 1000 Ang^3
#
#
#
# Elastic Constant Matrix: (Units=GPa)
#
#
# Indices 1 2 3 4 5 6 
#
# 1 43.6980 -1.9484 4.3614 0.0000 0.0000 0.0000
# 2 -1.9484 123.5347 76.7924 0.0000 0.0000 0.0000
# 3 4.3614 76.7924 187.2404 0.0000 0.0000 0.0000
# 4 0.0000 0.0000 0.0000 -4.9471 0.0000 0.0000
# 5 0.0000 0.0000 0.0000 0.0000 14.6336 0.0000
# 6 0.0000 0.0000 0.0000 0.0000 0.0000 -1.1440
#
#
#
# Elastic Compliance Matrix: (Units=1/GPa)
#
#
# Indices 1 2 3 4 5 6 
#
# 1 0.023018 0.000935 -0.000919 0.000000 0.000000 0.000000
# 2 0.000935 0.010903 -0.004493 0.000000 0.000000 0.000000
# 3 -0.000919 -0.004493 0.007205 0.000000 0.000000 0.000000
# 4 0.000000 0.000000 0.000000 -0.202137 0.000000 0.000000
# 5 0.000000 0.000000 0.000000 0.000000 0.068336 0.000000
# 6 0.000000 0.000000 0.000000 0.000000 0.000000 -0.874153
#
#
# Mechanical properties :
#
#
# Convention : Reuss Voigt Hill
#
# Bulk Modulus (GPa) = 31.08562 56.98711 44.03636
# Shear Modulus (GPa) = -5.27900 20.05967 7.39034
#
# Velocity S-wave (km/s) = -1.64414 3.20498 1.94534
# Velocity P-wave (km/s) = 3.50908 6.54806 5.25313
#
# Compressibility (1/GPa) = 0.03216922
#
# Stress axis : x y z
#
# Youngs Moduli (GPa) = 43.44466 91.71966 138.79302
#
# Poissons Ratio (x) = -0.08572 0.12761
# Poissons Ratio (y) = -0.04060 0.62364
# Poissons Ratio (z) = 0.03995 0.41212
#
# Static dielectric constant tensor:
#      x y z
#    x 1.715070 0.000000 0.000000 
#    y 0.000000 1.670800 0.000000 
#    z 0.000000 0.000000 1.722120 
# 
# From -- ./inp_files/44651.got.cif
#   From: 2010.05.17/outbox.cif.g08.bks.cpg/sg74_23_cif.got.tgz:44651.got - 2010.06.03 17:57:02.
