data_PCOD9534114
_publ_section_title
;
Structure prediction by ZEFSAII (Michael W. Deem and Ramdas Pophale) SiO2 
 PCOD9534114
Probable space group: I M M A
;
_chemical_formula_sum "Si O2"
_cell_formula_units_Z 80
_cell_length_a 7.800634
_cell_length_b 27.475433
_cell_length_c 26.568533
_cell_angle_alpha 90.000000
_cell_angle_beta 90.000000
_cell_angle_gamma 90.000000
_cell_volume 5694.322006
_symmetry_space_group_name_H-M "I M M A"
_symmetry_group_IT_number 74
_symmetry_cell_setting 'orthorhombic'
loop_
_space_group_symop_operation_xyz
x,y,z
-x,1/2-y,z
x,-y,-z
-x,1/2+y,-z
-x,-y,-z
x,1/2+y,-z
-x,y,z
x,1/2-y,z
1/2+x,1/2+y,1/2+z
1/2-x,-y,1/2+z
1/2+x,1/2-y,1/2-z
1/2-x,y,1/2-z
1/2-x,1/2-y,1/2-z
1/2+x,y,1/2-z
1/2-x,1/2+y,1/2+z
1/2+x,-y,1/2+z
loop_
_atom_site_type_symbol
_atom_site_label
_atom_site_fract_x
_atom_site_fract_y
_atom_site_fract_z
Si Si1 0.792049 0.442943 0.606553
Si Si2 0.799461 0.034342 0.450407
Si Si3 0.500000 0.193289 0.851722
Si Si4 0.000000 0.693199 0.473180
Si Si5 0.808743 0.123131 0.989478
Si Si6 0.801289 0.872748 0.192291
O O1 0.738120 0.498164 0.593449
O O2 0.728635 0.407855 0.561468
O O3 0.725350 0.420648 0.658221
O O4 0.000000 0.441563 0.605677
O O5 0.707544 0.083968 0.465372
O O6 0.000000 0.045645 0.442499
O O7 0.789975 0.000000 0.500000
O O8 0.500000 0.250000 0.837893
O O9 0.500000 0.189275 0.912221
O O10 0.668167 0.166478 0.830284
O O11 0.833879 0.664450 0.492525
O O12 0.000000 0.750000 0.486262
O O13 0.000000 0.142946 0.986891
O O14 0.750000 0.881291 0.250000
O O15 0.000000 0.857378 0.189219
#
# Coordination Sequence:
#
# PCOD9534114 Si02
#       6
#    16  16   8   8  16  16
#     4  10  17  31  48  66  91 111 140 179 220 271
#     4   8  15  26  45  67  89 114 134 170 217 259
#     4  11  24  40  51  63  81 107 153 205 243 272
#     4  11  22  36  48  62  90 116 148 195 235 264
#     4  11  18  29  48  66  88 113 145 178 220 267
#     4  12  22  36  52  66  85 112 145 186 237 280
#
# _framework density 14.049082
#
# number of rings (size 3 to 8) (size 9 to 14) (size 15 to 20)
#    0.000    1.600    6.000    1.800    0.000    5.600 
#    0.000    2.000    0.000    0.000    0.000    0.000 
#    0.000    0.000    0.000    0.000    0.000    1.000 
#
# Total GULP energy -223052.619343 kJ/mol
# GULP energy per Si atom -5576.315484 kJ/mol
# Density = 1.401711 g / cm^3
# Si number density = 14.049082 Si / 1000 Ang^3
#
#
#
# Elastic Constant Matrix: (Units=GPa)
#
#
# Indices 1 2 3 4 5 6 
#
# 1 121.9100 51.2387 23.1812 0.0000 0.0000 0.0000
# 2 51.2387 93.9984 42.2455 0.0000 0.0000 0.0000
# 3 23.1812 42.2455 41.9465 0.0000 0.0000 0.0000
# 4 0.0000 0.0000 0.0000 17.0767 0.0000 0.0000
# 5 0.0000 0.0000 0.0000 0.0000 8.6728 0.0000
# 6 0.0000 0.0000 0.0000 0.0000 0.0000 -0.4192
#
#
#
# Elastic Compliance Matrix: (Units=1/GPa)
#
#
# Indices 1 2 3 4 5 6 
#
# 1 0.010641 -0.005768 -0.000071 0.000000 0.000000 0.000000
# 2 -0.005768 0.022563 -0.019536 0.000000 0.000000 0.000000
# 3 -0.000071 -0.019536 0.043554 0.000000 0.000000 0.000000
# 4 0.000000 0.000000 0.000000 0.058559 0.000000 0.000000
# 5 0.000000 0.000000 0.000000 0.000000 0.115303 0.000000
# 6 0.000000 0.000000 0.000000 0.000000 0.000000 -2.385327
#
#
# Mechanical properties :
#
#
# Convention : Reuss Voigt Hill
#
# Bulk Modulus (GPa) = 38.45060 54.57618 46.51339
# Shear Modulus (GPa) = -2.40930 14.47870 6.03470
#
# Velocity S-wave (km/s) = -1.31097 3.21375 2.07479
# Velocity P-wave (km/s) = 5.01365 7.25962 6.23854
#
# Compressibility (1/GPa) = 0.02600739
#
# Stress axis : x y z
#
# Youngs Moduli (GPa) = 93.97867 44.32083 22.95995
#
# Poissons Ratio (x) = 0.25566 0.00163
# Poissons Ratio (y) = 0.54211 0.44854
# Poissons Ratio (z) = 0.00667 0.86584
#
# Static dielectric constant tensor:
#      x y z
#    x 1.488670 0.000000 0.000000 
#    y 0.000000 1.463050 0.000000 
#    z 0.000000 0.000000 1.453710 
# 
# From -- ./inp_files/57431.got.cif
#   From: 2010.05.17/outbox.cif.g08.bks.cpg/sg74_29_cif.got.tgz:57431.got - 2010.06.03 17:57:02.
