data_PCOD9534133
_publ_section_title
;
Structure prediction by ZEFSAII (Michael W. Deem and Ramdas Pophale) SiO2 
 PCOD9534133
Probable space group: I M M A
;
_chemical_formula_sum "Si O2"
_cell_formula_units_Z 48
_cell_length_a 10.647999
_cell_length_b 18.770021
_cell_length_c 9.695032
_cell_angle_alpha 90.000000
_cell_angle_beta 90.000000
_cell_angle_gamma 90.000000
_cell_volume 1937.679779
_symmetry_space_group_name_H-M "I M M A"
_symmetry_group_IT_number 74
_symmetry_cell_setting 'orthorhombic'
loop_
_space_group_symop_operation_xyz
x,y,z
-x,1/2-y,z
x,-y,-z
-x,1/2+y,-z
-x,-y,-z
x,1/2+y,-z
-x,y,z
x,1/2-y,z
1/2+x,1/2+y,1/2+z
1/2-x,-y,1/2+z
1/2+x,1/2-y,1/2-z
1/2-x,y,1/2-z
1/2-x,1/2-y,1/2-z
1/2+x,y,1/2-z
1/2-x,1/2+y,1/2+z
1/2+x,-y,1/2+z
loop_
_atom_site_type_symbol
_atom_site_label
_atom_site_fract_x
_atom_site_fract_y
_atom_site_fract_z
Si Si1 0.000000 0.445067 0.307726
Si Si2 0.500000 0.563249 0.386681
Si Si3 0.777015 0.827952 0.060869
Si Si4 0.000000 0.165972 0.555898
Si Si5 0.250000 0.867970 0.750000
O O1 0.126701 0.415625 0.242134
O O2 0.000000 0.527480 0.265513
O O3 0.000000 0.402910 0.453251
O O4 0.500000 0.500000 0.500000
O O5 0.376474 0.610672 0.410772
O O6 0.827687 0.750000 0.096765
O O7 0.637735 0.837460 0.125139
O O8 0.748880 0.827778 0.895252
O O9 0.000000 0.250000 0.499332
#
# Coordination Sequence:
#
# PCOD9534133 Si02
#       5
#     8   8  16   8   8
#     4  10  20  32  50  74 111 146 173 212 260 320
#     4  12  21  34  45  78 120 142 173 210 266 330
#     4  10  19  32  53  76 104 138 176 221 265 313
#     4   8  18  36  57  83 107 137 180 218 266 321
#     4  10  17  32  50  74 107 136 178 212 263 318
#
# _framework density 24.771895000000001
#
# number of rings (size 3 to 8) (size 9 to 14) (size 15 to 20)
#    0.000    2.000    3.333    1.000    0.000    1.333 
#    0.000    2.500    0.000    0.000    0.000    4.667 
#    0.000    0.000    0.000    0.000    0.000    0.000 
#
# Total GULP energy -133983.057939 kJ/mol
# GULP energy per Si atom -5582.627414 kJ/mol
# Density = 2.471551 g / cm^3
# Si number density = 24.771895 Si / 1000 Ang^3
#
#
#
# Elastic Constant Matrix: (Units=GPa)
#
#
# Indices 1 2 3 4 5 6 
#
# 1 220.5571 105.0554 8.7998 0.0000 0.0000 0.0000
# 2 105.0554 206.5262 66.6086 0.0002 0.0000 0.0000
# 3 8.7998 66.6086 133.1458 0.0005 0.0001 0.0000
# 4 0.0000 0.0002 0.0005 42.6882 0.0000 0.0000
# 5 0.0000 0.0000 0.0001 0.0000 -12.7308 0.0000
# 6 0.0000 0.0000 0.0000 0.0000 0.0000 60.0435
#
#
#
# Elastic Compliance Matrix: (Units=1/GPa)
#
#
# Indices 1 2 3 4 5 6 
#
# 1 0.006193 -0.003599 0.001391 0.000000 0.000000 0.000000
# 2 -0.003599 0.007865 -0.003697 0.000000 0.000000 0.000000
# 3 0.001391 -0.003697 0.009268 0.000000 0.000000 0.000000
# 4 0.000000 0.000000 0.000000 0.023426 0.000000 0.000000
# 5 0.000000 0.000000 0.000000 0.000000 -0.078549 0.000000
# 6 0.000000 0.000000 0.000000 0.000000 0.000000 0.016655
#
#
# Mechanical properties :
#
#
# Convention : Reuss Voigt Hill
#
# Bulk Modulus (GPa) = 86.83028 102.35075 94.59052
# Shear Modulus (GPa) = 9925.11514 43.31785 4984.21650
#
# Velocity S-wave (km/s) = 63.36640 4.18625 44.90449
# Velocity P-wave (km/s) = 73.40887 8.04818 52.21894
#
# Compressibility (1/GPa) = 0.01151672
#
# Stress axis : x y z
#
# Youngs Moduli (GPa) = 161.48340 127.14865 107.89864
#
# Poissons Ratio (x) = 0.45757 -0.15009
# Poissons Ratio (y) = 0.58112 0.39887
# Poissons Ratio (z) = -0.22463 0.47003
#
# Static dielectric constant tensor:
#      x y z
#    x 1.883300 0.000000 0.000000 
#    y 0.000000 1.922280 0.000000 
#    z 0.000000 0.000000 2.128080 
# 
# From -- ./inp_files/18214.got.cif
#   From: 2010.05.17/outbox.cif.g08.bks.cpg/sg74_10_cif.got.tgz:18214.got - 2010.06.03 17:57:02.
