data_PCOD9534612
_publ_section_title
;
Structure prediction by ZEFSAII (Michael W. Deem and Ramdas Pophale) SiO2 
 PCOD9534612
Probable space group: I M M A
;
_chemical_formula_sum "Si O2"
_cell_formula_units_Z 88
_cell_length_a 9.087723
_cell_length_b 20.640285
_cell_length_c 25.415680
_cell_angle_alpha 90.000000
_cell_angle_beta 90.000000
_cell_angle_gamma 90.000000
_cell_volume 4767.300243
_symmetry_space_group_name_H-M "I M M A"
_symmetry_group_IT_number 74
_symmetry_cell_setting 'orthorhombic'
loop_
_space_group_symop_operation_xyz
x,y,z
-x,1/2-y,z
x,-y,-z
-x,1/2+y,-z
-x,-y,-z
x,1/2+y,-z
-x,y,z
x,1/2-y,z
1/2+x,1/2+y,1/2+z
1/2-x,-y,1/2+z
1/2+x,1/2-y,1/2-z
1/2-x,y,1/2-z
1/2-x,1/2-y,1/2-z
1/2+x,y,1/2-z
1/2-x,1/2+y,1/2+z
1/2+x,-y,1/2+z
loop_
_atom_site_type_symbol
_atom_site_label
_atom_site_fract_x
_atom_site_fract_y
_atom_site_fract_z
Si Si1 0.167708 0.642061 0.028304
Si Si2 0.667399 0.951885 0.886430
Si Si3 0.823237 0.045103 0.804721
Si Si4 0.322297 0.677418 0.586043
Si Si5 0.679476 0.677604 0.356283
Si Si6 0.751486 0.500000 0.500000
O O1 0.233727 0.661143 0.084409
O O2 0.167904 0.564598 0.019299
O O3 0.000000 0.665403 0.030600
O O4 0.229875 0.672437 0.974962
O O5 0.500000 0.950618 0.867441
O O6 0.741231 0.881052 0.885162
O O7 0.764017 0.000359 0.851680
O O8 0.667690 0.975984 0.947260
O O9 0.750000 0.025352 0.750000
O O10 0.777265 0.118906 0.818621
O O11 0.000000 0.041565 0.802060
O O12 0.500000 0.666443 0.586688
O O13 0.294285 0.750000 0.605701
O O14 0.500000 0.676706 0.357341
O O15 0.726159 0.750000 0.341291
#
# Coordination Sequence:
#
# PCOD9534612 Si02
#       6
#    16  16  16  16  16   8
#     4   9  15  25  47  79 114 147 186 232 277 328
#     4  11  22  36  56  83 115 152 189 233 282 337
#     4  11  23  40  60  83 109 146 191 242 289 339
#     4   9  18  32  53  83 117 151 186 226 275 336
#     4   9  17  30  51  79 109 144 188 236 284 332
#     4  10  18  30  50  80 113 152 187 230 281 336
#
# _framework density 18.459085999999999
#
# number of rings (size 3 to 8) (size 9 to 14) (size 15 to 20)
#    0.000    2.182    1.818    2.182    0.000    4.364 
#    0.000    0.000    0.000    2.182    0.000    0.000 
#    0.000    0.000    0.000    0.000    0.000    0.000 
#
# Total GULP energy -245165.668401 kJ/mol
# GULP energy per Si atom -5571.947009 kJ/mol
# Density = 1.841707 g / cm^3
# Si number density = 18.459086 Si / 1000 Ang^3
#
#
#
# Elastic Constant Matrix: (Units=GPa)
#
#
# Indices 1 2 3 4 5 6 
#
# 1 57.8098 32.2558 25.0858 0.0000 0.0000 0.0000
# 2 32.2558 128.2972 26.8029 0.0000 0.0000 0.0000
# 3 25.0858 26.8029 69.4161 0.0000 0.0000 0.0000
# 4 0.0000 0.0000 0.0000 13.6734 0.0000 0.0000
# 5 0.0000 0.0000 0.0000 0.0000 15.7567 0.0000
# 6 0.0000 0.0000 0.0000 0.0000 0.0000 -1.5652
#
#
#
# Elastic Compliance Matrix: (Units=1/GPa)
#
#
# Indices 1 2 3 4 5 6 
#
# 1 0.022510 -0.004307 -0.006471 0.000000 0.000000 0.000000
# 2 -0.004307 0.009303 -0.002035 0.000000 0.000000 0.000000
# 3 -0.006471 -0.002035 0.017530 0.000000 0.000000 0.000000
# 4 0.000000 0.000000 0.000000 0.073135 0.000000 0.000000
# 5 0.000000 0.000000 0.000000 0.000000 0.063465 0.000000
# 6 0.000000 0.000000 0.000000 0.000000 0.000000 -0.638900
#
#
# Mechanical properties :
#
#
# Convention : Reuss Voigt Hill
#
# Bulk Modulus (GPa) = 42.16835 47.09022 44.62929
# Shear Modulus (GPa) = -11.92111 16.99821 2.53855
#
# Velocity S-wave (km/s) = -2.54404 3.03786 1.17397
# Velocity P-wave (km/s) = 3.77681 6.15392 5.10564
#
# Compressibility (1/GPa) = 0.02371447
#
# Stress axis : x y z
#
# Youngs Moduli (GPa) = 44.42543 107.49779 57.04364
#
# Poissons Ratio (x) = 0.46302 0.36916
# Poissons Ratio (y) = 0.19135 0.11610
# Poissons Ratio (z) = 0.28750 0.21879
#
# Static dielectric constant tensor:
#      x y z
#    x 1.635170 0.000000 0.000000 
#    y 0.000000 1.645660 0.000000 
#    z 0.000000 0.000000 1.635010 
# 
# From -- ./inp_files/56986.got.cif
#   From: 2010.05.17/outbox.cif.g08.bks.cpg/sg74_29_cif.got.tgz:56986.got - 2010.06.03 17:57:02.
