data_PCOD9534508
_publ_section_title
;
Structure prediction by ZEFSAII (Michael W. Deem and Ramdas Pophale) SiO2 
 PCOD9534508
Probable space group: I M M A
;
_chemical_formula_sum "Si O2"
_cell_formula_units_Z 104
_cell_length_a 8.751620
_cell_length_b 28.373260
_cell_length_c 24.541475
_cell_angle_alpha 90.000000
_cell_angle_beta 90.000000
_cell_angle_gamma 90.000000
_cell_volume 6093.942487
_symmetry_space_group_name_H-M "I M M A"
_symmetry_group_IT_number 74
_symmetry_cell_setting 'orthorhombic'
loop_
_space_group_symop_operation_xyz
x,y,z
-x,1/2-y,z
x,-y,-z
-x,1/2+y,-z
-x,-y,-z
x,1/2+y,-z
-x,y,z
x,1/2-y,z
1/2+x,1/2+y,1/2+z
1/2-x,-y,1/2+z
1/2+x,1/2-y,1/2-z
1/2-x,y,1/2-z
1/2-x,1/2-y,1/2-z
1/2+x,y,1/2-z
1/2-x,1/2+y,1/2+z
1/2+x,-y,1/2+z
loop_
_atom_site_type_symbol
_atom_site_label
_atom_site_fract_x
_atom_site_fract_y
_atom_site_fract_z
Si Si1 0.316548 0.552690 0.986346
Si Si2 0.180033 0.380848 0.588890
Si Si3 0.184903 0.304172 0.189317
Si Si4 0.817378 0.750000 0.310879
Si Si5 0.680963 0.695052 0.001309
Si Si6 0.319925 0.151673 0.690500
Si Si7 0.818887 0.369509 0.090125
O O1 0.500000 0.551235 0.978925
O O2 0.251147 0.582195 0.934931
O O3 0.261643 0.500000 0.000000
O O4 0.285217 0.581975 0.041438
O O5 0.208692 0.331684 0.557700
O O6 0.275840 0.385217 0.643811
O O7 0.000000 0.383650 0.602404
O O8 0.228313 0.250000 0.172440
O O9 0.250000 0.311606 0.250000
O O10 0.235078 0.344795 0.146643
O O11 0.000000 0.305233 0.191236
O O12 0.750000 0.750000 0.250000
O O13 0.753788 0.700519 0.331263
O O14 0.000000 0.750000 0.312425
O O15 0.500000 0.688188 0.988618
O O16 0.712456 0.750000 0.005001
O O17 0.778379 0.669676 0.955159
O O18 0.500000 0.157460 0.696435
O O19 0.250000 0.141362 0.750000
O O20 0.000000 0.376114 0.094216
#
# Coordination Sequence:
#
# PCOD9534508 Si02
#       7
#    16  16  16   8  16  16  16
#     4   9  19  37  59  79  99 127 164 205 254 312
#     4   9  18  32  50  73  98 126 162 204 248 295
#     4   9  18  31  47  71 105 144 181 212 246 291
#     4  10  18  30  46  64  90 126 166 202 235 272
#     4   9  18  31  47  69  98 135 171 202 243 296
#     4  11  21  33  48  69  96 129 167 203 243 289
#     4  10  19  31  49  75 105 134 166 210 258 302
#
# _framework density 17.066127999999999
#
# number of rings (size 3 to 8) (size 9 to 14) (size 15 to 20)
#    0.000    2.462    0.000    4.846    1.077    4.923 
#    0.000    1.538    0.000    0.923    0.000    2.154 
#    0.000    0.000    0.000    0.000    0.000    0.000 
#
# Total GULP energy -289609.293069 kJ/mol
# GULP energy per Si atom -5569.409482 kJ/mol
# Density = 1.702728 g / cm^3
# Si number density = 17.066128 Si / 1000 Ang^3
#
#
#
# Elastic Constant Matrix: (Units=GPa)
#
#
# Indices 1 2 3 4 5 6 
#
# 1 56.3508 26.2587 39.0477 0.0000 0.0000 0.0000
# 2 26.2587 91.8845 46.0758 0.0000 0.0000 0.0000
# 3 39.0477 46.0758 102.0917 0.0000 0.0000 0.0000
# 4 0.0000 0.0000 0.0000 14.8561 0.0000 0.0000
# 5 0.0000 0.0000 0.0000 0.0000 27.3491 0.0000
# 6 0.0000 0.0000 0.0000 0.0000 0.0000 18.2379
#
#
#
# Elastic Compliance Matrix: (Units=1/GPa)
#
#
# Indices 1 2 3 4 5 6 
#
# 1 0.024773 -0.003009 -0.008117 0.000000 0.000000 0.000000
# 2 -0.003009 0.014432 -0.005363 0.000000 0.000000 0.000000
# 3 -0.008117 -0.005363 0.015320 0.000000 0.000000 0.000000
# 4 0.000000 0.000000 0.000000 0.067313 0.000000 0.000000
# 5 0.000000 0.000000 0.000000 0.000000 0.036564 0.000000
# 6 0.000000 0.000000 0.000000 0.000000 0.000000 0.054831
#
#
# Mechanical properties :
#
#
# Convention : Reuss Voigt Hill
#
# Bulk Modulus (GPa) = 46.40923 52.56573 49.48748
# Shear Modulus (GPa) = 19.73223 21.35160 20.54191
#
# Velocity S-wave (km/s) = 3.40402 3.54094 3.47315
# Velocity P-wave (km/s) = 6.53472 6.89824 6.71894
#
# Compressibility (1/GPa) = 0.02154744
#
# Stress axis : x y z
#
# Youngs Moduli (GPa) = 40.36693 69.28896 65.27484
#
# Poissons Ratio (x) = 0.20851 0.52983
# Poissons Ratio (y) = 0.12148 0.35004
# Poissons Ratio (z) = 0.32765 0.37157
#
# Static dielectric constant tensor:
#      x y z
#    x 1.581350 0.000000 0.000000 
#    y 0.000000 1.620530 0.000000 
#    z 0.000000 0.000000 1.573800 
# 
# From -- ./inp_files/57827.got.cif
#   From: 2010.05.17/outbox.cif.g08.bks.cpg/sg74_29_cif.got.tgz:57827.got - 2010.06.03 17:57:02.
