data_PCOD9534913
_publ_section_title
;
Structure prediction by ZEFSAII (Michael W. Deem and Ramdas Pophale) SiO2 
 PCOD9534913
Probable space group: I M M A
;
_chemical_formula_sum "Si O2"
_cell_formula_units_Z 120
_cell_length_a 14.499754
_cell_length_b 20.399031
_cell_length_c 22.144920
_cell_angle_alpha 90.000000
_cell_angle_beta 90.000000
_cell_angle_gamma 90.000000
_cell_volume 6550.045062
_symmetry_space_group_name_H-M "I M M A"
_symmetry_group_IT_number 74
_symmetry_cell_setting 'orthorhombic'
loop_
_space_group_symop_operation_xyz
x,y,z
-x,1/2-y,z
x,-y,-z
-x,1/2+y,-z
-x,-y,-z
x,1/2+y,-z
-x,y,z
x,1/2-y,z
1/2+x,1/2+y,1/2+z
1/2-x,-y,1/2+z
1/2+x,1/2-y,1/2-z
1/2-x,y,1/2-z
1/2-x,1/2-y,1/2-z
1/2+x,y,1/2-z
1/2-x,1/2+y,1/2+z
1/2+x,-y,1/2+z
loop_
_atom_site_type_symbol
_atom_site_label
_atom_site_fract_x
_atom_site_fract_y
_atom_site_fract_z
Si Si1 0.105484 0.111475 0.895419
Si Si2 0.603500 0.038554 0.345707
Si Si3 0.703905 0.825210 0.118766
Si Si4 0.107585 0.450926 0.668390
Si Si5 0.638674 0.931614 0.525909
Si Si6 0.146331 0.043991 0.445454
Si Si7 0.102963 0.322950 0.493930
Si Si8 0.750000 0.477851 0.250000
O O1 0.189844 0.154526 0.871143
O O2 0.000000 0.130137 0.881058
O O3 0.119161 0.036815 0.869839
O O4 0.118683 0.113706 0.968551
O O5 0.500000 0.041370 0.318495
O O6 0.601751 0.081166 0.407304
O O7 0.689090 0.057550 0.302264
O O8 0.687353 0.750000 0.135769
O O9 0.640486 0.878518 0.151122
O O10 0.675703 0.832038 0.047910
O O11 0.128692 0.501109 0.613344
O O12 0.171588 0.477111 0.721149
O O13 0.000000 0.452377 0.682163
O O14 0.746316 0.944564 0.539291
O O15 0.600171 0.000000 0.500000
O O16 0.107652 0.117326 0.447470
O O17 0.107598 0.000000 0.500000
O O18 0.115925 0.250000 0.467850
O O19 0.000000 0.324870 0.521596
#
# Coordination Sequence:
#
# PCOD9534913 Si02
#       8
#    16  16  16  16  16  16  16   8
#     4  10  18  32  54  76  99 135 179 222 272 327
#     4  10  19  32  52  73 101 136 170 222 276 319
#     4  11  21  36  53  75 110 144 181 228 273 324
#     4  12  24  38  58  81 106 144 187 229 278 329
#     4   9  15  29  49  76 105 131 168 215 269 327
#     4  11  18  32  56  82 115 142 173 224 276 326
#     4  10  20  32  50  79 114 147 174 208 266 333
#     4  12  22  38  51  76 107 140 180 238 276 316
#
# _framework density 18.320485000000001
#
# number of rings (size 3 to 8) (size 9 to 14) (size 15 to 20)
#    0.000    1.467    5.333    2.400    0.000    3.200 
#    0.000    0.333    0.000    0.000    0.000    0.467 
#    0.000    0.000    0.000    0.000    0.000    0.133 
#
# Total GULP energy -334264.405937 kJ/mol
# GULP energy per Si atom -5571.073432 kJ/mol
# Density = 1.827879 g / cm^3
# Si number density = 18.320485 Si / 1000 Ang^3
#
#
#
# Elastic Constant Matrix: (Units=GPa)
#
#
# Indices 1 2 3 4 5 6 
#
# 1 137.5372 5.1796 11.6738 0.0000 0.0000 0.0000
# 2 5.1796 35.3305 -7.1286 0.0000 0.0000 0.0000
# 3 11.6738 -7.1286 47.3677 0.0000 0.0000 0.0000
# 4 0.0000 0.0000 0.0000 11.1733 0.0000 0.0000
# 5 0.0000 0.0000 0.0000 0.0000 17.5328 0.0000
# 6 0.0000 0.0000 0.0000 0.0000 0.0000 -18.8209
#
#
#
# Elastic Compliance Matrix: (Units=1/GPa)
#
#
# Indices 1 2 3 4 5 6 
#
# 1 0.007504 -0.001519 -0.002078 0.000000 0.000000 0.000000
# 2 -0.001519 0.029498 0.004814 0.000000 0.000000 0.000000
# 3 -0.002078 0.004814 0.022348 0.000000 0.000000 0.000000
# 4 0.000000 0.000000 0.000000 0.089499 0.000000 0.000000
# 5 0.000000 0.000000 0.000000 0.000000 0.057036 0.000000
# 6 0.000000 0.000000 0.000000 0.000000 0.000000 -0.053132
#
#
# Mechanical properties :
#
#
# Convention : Reuss Voigt Hill
#
# Bulk Modulus (GPa) = 16.18565 26.63166 21.40865
# Shear Modulus (GPa) = 29.25423 16.01106 22.63265
#
# Velocity S-wave (km/s) = 4.00034 2.95946 3.51860
# Velocity P-wave (km/s) = 5.49462 5.12308 5.31210
#
# Compressibility (1/GPa) = 0.06178313
#
# Stress axis : x y z
#
# Youngs Moduli (GPa) = 133.25568 33.90032 44.74659
#
# Poissons Ratio (x) = 0.05151 0.09299
# Poissons Ratio (y) = 0.20248 -0.21540
# Poissons Ratio (z) = 0.27692 -0.16319
#
# Static dielectric constant tensor:
#      x y z
#    x 1.699810 0.000000 0.000000 
#    y 0.000000 1.626620 0.000000 
#    z 0.000000 0.000000 1.703340 
# 
# From -- ./inp_files/52360.got.cif
#   From: 2010.05.17/outbox.cif.g08.bks.cpg/sg74_27_cif.got.tgz:52360.got - 2010.06.03 17:57:02.
