data_PCOD9534364
_publ_section_title
;
Structure prediction by ZEFSAII (Michael W. Deem and Ramdas Pophale) SiO2 
 PCOD9534364
Probable space group: I M M A
;
_chemical_formula_sum "Si O2"
_cell_formula_units_Z 104
_cell_length_a 26.916518
_cell_length_b 8.923368
_cell_length_c 29.710242
_cell_angle_alpha 90.000000
_cell_angle_beta 90.000000
_cell_angle_gamma 90.000000
_cell_volume 7135.984048
_symmetry_space_group_name_H-M "I M M A"
_symmetry_group_IT_number 74
_symmetry_cell_setting 'orthorhombic'
loop_
_space_group_symop_operation_xyz
x,y,z
-x,1/2-y,z
x,-y,-z
-x,1/2+y,-z
-x,-y,-z
x,1/2+y,-z
-x,y,z
x,1/2-y,z
1/2+x,1/2+y,1/2+z
1/2-x,-y,1/2+z
1/2+x,1/2-y,1/2-z
1/2-x,y,1/2-z
1/2-x,1/2-y,1/2-z
1/2+x,y,1/2-z
1/2-x,1/2+y,1/2+z
1/2+x,-y,1/2+z
loop_
_atom_site_type_symbol
_atom_site_label
_atom_site_fract_x
_atom_site_fract_y
_atom_site_fract_z
Si Si1 0.000000 0.568470 0.050581
Si Si2 0.259365 0.930015 0.140706
Si Si3 0.193249 0.421568 0.731613
Si Si4 0.771525 0.920055 0.545536
Si Si5 0.092635 0.073943 0.885580
Si Si6 0.652663 0.919815 0.543984
Si Si7 0.341673 0.427280 0.317753
O O1 0.046959 0.526188 0.082312
O O2 0.000000 0.750000 0.045575
O O3 0.000000 0.500000 0.000000
O O4 0.252605 0.750000 0.139678
O O5 0.299921 0.964938 0.179600
O O6 0.276508 0.990487 0.092277
O O7 0.207430 0.003218 0.157692
O O8 0.175169 0.250000 0.735001
O O9 0.250000 0.421584 0.750000
O O10 0.163193 0.525456 0.765647
O O11 0.790503 0.750000 0.549374
O O12 0.711701 0.909287 0.539739
O O13 0.790385 0.000000 0.500000
O O14 0.087973 0.250000 0.877334
O O15 0.139482 0.031518 0.916377
O O16 0.107705 0.990312 0.839906
O O17 0.633597 0.750000 0.550632
O O18 0.631456 0.000000 0.500000
O O19 0.339575 0.250000 0.323838
#
# Coordination Sequence:
#
# PCOD9534364 Si02
#       7
#     8  16  16  16  16  16  16
#     4  10  24  40  52  66  80 102 134 172 221 270
#     4  10  18  29  44  60  82 108 133 162 200 241
#     4   8  16  29  43  60  81 106 130 156 195 241
#     4  10  19  28  39  56  80 104 133 165 197 236
#     4  11  21  34  49  61  78 100 126 164 208 257
#     4  10  19  29  41  58  75  95 124 158 198 243
#     4  11  20  29  43  64  82 101 129 161 201 247
#
# _framework density 14.574024
#
# number of rings (size 3 to 8) (size 9 to 14) (size 15 to 20)
#    0.000    2.000    1.538    4.615    0.000    7.077 
#    0.000    0.000    0.000    0.000    0.000    0.000 
#    0.000    0.000    0.000    0.000    0.000    0.000 
#
# Total GULP energy -289506.077745 kJ/mol
# GULP energy per Si atom -5567.424572 kJ/mol
# Density = 1.454085 g / cm^3
# Si number density = 14.574024 Si / 1000 Ang^3
#
#
#
# Elastic Constant Matrix: (Units=GPa)
#
#
# Indices 1 2 3 4 5 6 
#
# 1 27.1460 23.6168 27.9273 0.0000 0.0000 0.0000
# 2 23.6168 80.1845 58.5145 0.0000 0.0000 0.0000
# 3 27.9273 58.5145 126.7668 0.0000 0.0000 0.0000
# 4 0.0000 0.0000 0.0000 22.5395 0.0000 0.0000
# 5 0.0000 0.0000 0.0000 0.0000 28.2493 0.0000
# 6 0.0000 0.0000 0.0000 0.0000 0.0000 2.8871
#
#
#
# Elastic Compliance Matrix: (Units=1/GPa)
#
#
# Indices 1 2 3 4 5 6 
#
# 1 0.053107 -0.010712 -0.006755 0.000000 0.000000 0.000000
# 2 -0.010712 0.020967 -0.007318 0.000000 0.000000 0.000000
# 3 -0.006755 -0.007318 0.012755 0.000000 0.000000 0.000000
# 4 0.000000 0.000000 0.000000 0.044366 0.000000 0.000000
# 5 0.000000 0.000000 0.000000 0.000000 0.035399 0.000000
# 6 0.000000 0.000000 0.000000 0.000000 0.000000 0.346363
#
#
# Mechanical properties :
#
#
# Convention : Reuss Voigt Hill
#
# Bulk Modulus (GPa) = 26.84024 50.46828 38.65426
# Shear Modulus (GPa) = 8.69647 19.00444 13.85046
#
# Velocity S-wave (km/s) = 2.44542 3.61500 3.08612
# Velocity P-wave (km/s) = 5.14100 7.22000 6.26731
#
# Compressibility (1/GPa) = 0.03725749
#
# Stress axis : x y z
#
# Youngs Moduli (GPa) = 18.83004 47.69472 78.40277
#
# Poissons Ratio (x) = 0.51091 0.52961
# Poissons Ratio (y) = 0.20171 0.57376
# Poissons Ratio (z) = 0.12720 0.34904
#
# Static dielectric constant tensor:
#      x y z
#    x 1.475450 0.000000 0.000000 
#    y 0.000000 1.503600 0.000000 
#    z 0.000000 0.000000 1.219570 
# 
# From -- ./inp_files/70803.got.cif
#   From: 2010.05.17/outbox.cif.g08.bks.cpg/sg74_36_cif.got.tgz:70803.got - 2010.06.03 17:57:02.
