data_PCOD9534995
_publ_section_title
;
Structure prediction by ZEFSAII (Michael W. Deem and Ramdas Pophale) SiO2 
 PCOD9534995
Probable space group: I M M A
;
_chemical_formula_sum "Si O2"
_cell_formula_units_Z 68
_cell_length_a 25.599773
_cell_length_b 15.500574
_cell_length_c 9.239306
_cell_angle_alpha 90.000000
_cell_angle_beta 90.000000
_cell_angle_gamma 90.000000
_cell_volume 3666.259877
_symmetry_space_group_name_H-M "I M M A"
_symmetry_group_IT_number 74
_symmetry_cell_setting 'orthorhombic'
loop_
_space_group_symop_operation_xyz
x,y,z
-x,1/2-y,z
x,-y,-z
-x,1/2+y,-z
-x,-y,-z
x,1/2+y,-z
-x,y,z
x,1/2-y,z
1/2+x,1/2+y,1/2+z
1/2-x,-y,1/2+z
1/2+x,1/2-y,1/2-z
1/2-x,y,1/2-z
1/2-x,1/2-y,1/2-z
1/2+x,y,1/2-z
1/2-x,1/2+y,1/2+z
1/2+x,-y,1/2+z
loop_
_atom_site_type_symbol
_atom_site_label
_atom_site_fract_x
_atom_site_fract_y
_atom_site_fract_z
Si Si1 0.558682 0.750000 0.994995
Si Si2 0.500000 0.250000 0.292202
Si Si3 0.807089 0.647646 0.688644
Si Si4 0.000000 0.556339 0.855299
Si Si5 0.884587 0.985934 0.828228
Si Si6 0.868142 0.591355 0.430120
O O1 0.500000 0.750000 0.057290
O O2 0.590164 0.665894 0.041759
O O3 0.548472 0.750000 0.821607
O O4 0.500000 0.159969 0.376854
O O5 0.815010 0.750000 0.698671
O O6 0.750000 0.626839 0.750000
O O7 0.849688 0.595003 0.780266
O O8 0.817204 0.619192 0.522105
O O9 0.055033 0.531585 0.783187
O O10 0.000000 0.500000 0.000000
O O11 0.863327 0.067982 0.738144
O O12 0.882492 0.000000 0.000000
O O13 0.884586 0.500000 0.500000
#
# Coordination Sequence:
#
# PCOD9534995 Si02
#       6
#     8   4  16   8  16  16
#     4  10  22  32  58  97 120 162 216 261 315 365
#     4  10  18  32  60  80 112 170 210 258 294 380
#     4  10  21  40  63  89 121 157 208 266 319 369
#     4  10  22  37  56  89 131 168 205 252 315 376
#     4  10  23  40  60  89 126 168 205 254 314 379
#     4  10  20  38  61  91 124 159 212 259 310 374
#
# _framework density 18.547512999999999
#
# number of rings (size 3 to 8) (size 9 to 14) (size 15 to 20)
#    0.353    1.647    1.176    2.824    3.294    3.294 
#    2.118    1.176    0.000    2.824    0.000    0.000 
#    0.000    0.000    0.000    0.000    0.000    0.000 
#
# Total GULP energy -189416.636324 kJ/mol
# GULP energy per Si atom -5571.077539 kJ/mol
# Density = 1.850530 g / cm^3
# Si number density = 18.547513 Si / 1000 Ang^3
#
#
#
# Elastic Constant Matrix: (Units=GPa)
#
#
# Indices 1 2 3 4 5 6 
#
# 1 137.3457 48.3443 53.3914 0.0000 0.0000 0.0000
# 2 48.3443 124.7222 41.4982 0.0000 0.0000 0.0000
# 3 53.3914 41.4982 108.9595 0.0000 0.0000 0.0000
# 4 0.0000 0.0000 0.0000 16.6051 0.0000 0.0000
# 5 0.0000 0.0000 0.0000 0.0000 16.0396 0.0000
# 6 0.0000 0.0000 0.0000 0.0000 0.0000 27.5879
#
#
#
# Elastic Compliance Matrix: (Units=1/GPa)
#
#
# Indices 1 2 3 4 5 6 
#
# 1 0.009617 -0.002473 -0.003771 0.000000 0.000000 0.000000
# 2 -0.002473 0.009817 -0.002527 0.000000 0.000000 0.000000
# 3 -0.003771 -0.002527 0.011988 0.000000 0.000000 0.000000
# 4 0.000000 0.000000 0.000000 0.060222 0.000000 0.000000
# 5 0.000000 0.000000 0.000000 0.000000 0.062346 0.000000
# 6 0.000000 0.000000 0.000000 0.000000 0.000000 0.036248
#
#
# Mechanical properties :
#
#
# Convention : Reuss Voigt Hill
#
# Bulk Modulus (GPa) = 72.04345 73.05504 72.54924
# Shear Modulus (GPa) = 23.53971 27.23275 25.38623
#
# Velocity S-wave (km/s) = 3.56639 3.83596 3.70363
# Velocity P-wave (km/s) = 7.47568 7.68720 7.58218
#
# Compressibility (1/GPa) = 0.01388051
#
# Stress axis : x y z
#
# Youngs Moduli (GPa) = 103.98019 101.86100 83.41793
#
# Poissons Ratio (x) = 0.25192 0.31454
# Poissons Ratio (y) = 0.25716 0.21081
# Poissons Ratio (z) = 0.39207 0.25741
#
# Static dielectric constant tensor:
#      x y z
#    x 1.666990 0.000000 0.000000 
#    y 0.000000 1.620100 0.000000 
#    z 0.000000 0.000000 1.693170 
# 
# From -- ./inp_files/9069.got.cif
#   From: 2010.05.17/outbox.cif.g08.bks.cpg/sg74_5_cif.got.tgz:9069.got - 2010.06.03 17:57:02.
