data_PCOD9534560
_publ_section_title
;
Structure prediction by ZEFSAII (Michael W. Deem and Ramdas Pophale) SiO2 
 PCOD9534560
Probable space group: I M M A
;
_chemical_formula_sum "Si O2"
_cell_formula_units_Z 96
_cell_length_a 8.576251
_cell_length_b 21.792636
_cell_length_c 31.564108
_cell_angle_alpha 90.000000
_cell_angle_beta 90.000000
_cell_angle_gamma 90.000000
_cell_volume 5899.303892
_symmetry_space_group_name_H-M "I M M A"
_symmetry_group_IT_number 74
_symmetry_cell_setting 'orthorhombic'
loop_
_space_group_symop_operation_xyz
x,y,z
-x,1/2-y,z
x,-y,-z
-x,1/2+y,-z
-x,-y,-z
x,1/2+y,-z
-x,y,z
x,1/2-y,z
1/2+x,1/2+y,1/2+z
1/2-x,-y,1/2+z
1/2+x,1/2-y,1/2-z
1/2-x,y,1/2-z
1/2-x,1/2-y,1/2-z
1/2+x,y,1/2-z
1/2-x,1/2+y,1/2+z
1/2+x,-y,1/2+z
loop_
_atom_site_type_symbol
_atom_site_label
_atom_site_fract_x
_atom_site_fract_y
_atom_site_fract_z
Si Si1 0.183683 0.513004 0.385926
Si Si2 0.812247 0.948247 0.965919
Si Si3 0.189016 0.683486 0.998290
Si Si4 0.815718 0.683220 0.185428
Si Si5 0.185555 0.949387 0.294311
Si Si6 0.817320 0.641823 0.091071
O O1 0.264622 0.467678 0.418799
O O2 0.242934 0.517144 0.337277
O O3 0.215591 0.581017 0.404124
O O4 0.000000 0.500544 0.385166
O O5 0.754753 0.879910 0.977458
O O6 0.000000 0.947719 0.968897
O O7 0.757652 0.000000 0.000000
O O8 0.246480 0.750000 0.982780
O O9 0.000000 0.683822 0.993837
O O10 0.221346 0.677350 0.048415
O O11 0.756409 0.750000 0.199481
O O12 0.733287 0.622309 0.202049
O O13 0.802228 0.679339 0.134359
O O14 0.000000 0.678990 0.195685
O O15 0.250000 0.973778 0.250000
O O16 0.000000 0.952868 0.294136
O O17 0.000000 0.622593 0.087689
#
# Coordination Sequence:
#
# PCOD9534560 Si02
#       6
#    16  16  16  16  16  16
#     4  10  20  32  47  68  92 119 152 191 237 279
#     4  10  18  30  48  71  94 124 163 194 224 269
#     4   9  16  26  43  67  94 122 156 197 230 258
#     4   9  17  28  44  65  87 116 154 193 236 281
#     4  10  21  35  49  65  85 113 149 192 241 286
#     4   9  15  27  45  64  88 119 158 197 230 266
#
# _framework density 16.273105999999999
#
# number of rings (size 3 to 8) (size 9 to 14) (size 15 to 20)
#    0.000    2.500    1.667    1.500    0.000    5.000 
#    0.000    0.000    0.000    3.000    0.000    0.000 
#    0.000    0.667    0.000    1.500    0.000    2.333 
#
# Total GULP energy -267504.534920 kJ/mol
# GULP energy per Si atom -5573.011144 kJ/mol
# Density = 1.623607 g / cm^3
# Si number density = 16.273106 Si / 1000 Ang^3
#
#
#
# Elastic Constant Matrix: (Units=GPa)
#
#
# Indices 1 2 3 4 5 6 
#
# 1 7.3895 11.6000 15.0728 0.0000 0.0000 0.0000
# 2 11.6000 93.7665 54.3967 0.0000 0.0000 0.0000
# 3 15.0728 54.3967 107.2763 0.0000 0.0000 0.0000
# 4 0.0000 0.0000 0.0000 2.3341 0.0000 0.0000
# 5 0.0000 0.0000 0.0000 0.0000 20.6829 0.0000
# 6 0.0000 0.0000 0.0000 0.0000 0.0000 3.9933
#
#
#
# Elastic Compliance Matrix: (Units=1/GPa)
#
#
# Indices 1 2 3 4 5 6 
#
# 1 0.198606 -0.011874 -0.021884 0.000000 0.000000 0.000000
# 2 -0.011874 0.015819 -0.006353 0.000000 0.000000 0.000000
# 3 -0.021884 -0.006353 0.015618 0.000000 0.000000 0.000000
# 4 0.000000 0.000000 0.000000 0.428434 0.000000 0.000000
# 5 0.000000 0.000000 0.000000 0.000000 0.048349 0.000000
# 6 0.000000 0.000000 0.000000 0.000000 0.000000 0.250420
#
#
# Mechanical properties :
#
#
# Convention : Reuss Voigt Hill
#
# Bulk Modulus (GPa) = 6.67464 41.17461 23.92462
# Shear Modulus (GPa) = 4.59808 13.89290 9.24549
#
# Velocity S-wave (km/s) = 1.68277 2.92504 2.38617
# Velocity P-wave (km/s) = 2.80823 6.06341 4.72499
#
# Compressibility (1/GPa) = 0.14982082
#
# Stress axis : x y z
#
# Youngs Moduli (GPa) = 5.03508 63.21324 64.02854
#
# Poissons Ratio (x) = 0.75062 1.40120
# Poissons Ratio (y) = 0.05979 0.40679
# Poissons Ratio (z) = 0.11019 0.40161
#
# Static dielectric constant tensor:
#      x y z
#    x 1.553110 0.000000 0.000000 
#    y 0.000000 1.552410 0.000000 
#    z 0.000000 0.000000 1.572280 
# 
# From -- ./inp_files/64673.got.cif
#   From: 2010.05.17/outbox.cif.g08.bks.cpg/sg74_33_cif.got.tgz:64673.got - 2010.06.03 17:57:02.
