data_PCOD9534292
_publ_section_title
;
Structure prediction by ZEFSAII (Michael W. Deem and Ramdas Pophale) SiO2 
 PCOD9534292
Probable space group: I M M A
;
_chemical_formula_sum "Si O2"
_cell_formula_units_Z 80
_cell_length_a 33.828354
_cell_length_b 7.423651
_cell_length_c 15.391775
_cell_angle_alpha 90.000000
_cell_angle_beta 90.000000
_cell_angle_gamma 90.000000
_cell_volume 3865.334824
_symmetry_space_group_name_H-M "I M M A"
_symmetry_group_IT_number 74
_symmetry_cell_setting 'orthorhombic'
loop_
_space_group_symop_operation_xyz
x,y,z
-x,1/2-y,z
x,-y,-z
-x,1/2+y,-z
-x,-y,-z
x,1/2+y,-z
-x,y,z
x,1/2-y,z
1/2+x,1/2+y,1/2+z
1/2-x,-y,1/2+z
1/2+x,1/2-y,1/2-z
1/2-x,y,1/2-z
1/2-x,1/2-y,1/2-z
1/2+x,y,1/2-z
1/2-x,1/2+y,1/2+z
1/2+x,-y,1/2+z
loop_
_atom_site_type_symbol
_atom_site_label
_atom_site_fract_x
_atom_site_fract_y
_atom_site_fract_z
Si Si1 0.178939 0.964260 0.905990
Si Si2 0.651187 0.465212 0.099633
Si Si3 0.612980 0.970602 0.727085
Si Si4 0.455070 0.534401 0.598992
Si Si5 0.738439 0.468996 0.151102
O O1 0.181473 0.750000 0.894292
O O2 0.151138 0.029126 0.828864
O O3 0.223670 0.035008 0.902541
O O4 0.161028 0.000000 0.000000
O O5 0.653117 0.250000 0.109605
O O6 0.620842 0.528708 0.174034
O O7 0.695645 0.534536 0.120308
O O8 0.640577 0.500000 0.000000
O O9 0.611896 0.750000 0.726137
O O10 0.574717 0.032068 0.673219
O O11 0.441323 0.500000 0.500000
O O12 0.500000 0.464546 0.606692
O O13 0.456730 0.750000 0.608016
O O14 0.736729 0.250000 0.146373
O O15 0.750000 0.513541 0.250000
#
# Coordination Sequence:
#
# PCOD9534292 Si02
#       5
#    16  16  16  16  16
#     4  10  18  28  44  65  88 115 147 181 220 265
#     4  10  19  32  49  66  87 118 157 194 227 264
#     4   9  17  30  48  67  89 120 153 181 216 270
#     4   9  17  30  49  73  98 122 148 178 217 268
#     4   9  15  27  46  63  82 116 155 185 218 266
#
# _framework density 20.696783
#
# number of rings (size 3 to 8) (size 9 to 14) (size 15 to 20)
#    0.000    2.600    2.000    1.200    0.000    0.000 
#    0.000    2.000    0.000    1.800    0.000    0.000 
#    0.000    0.000    0.000    0.000    0.000    0.000 
#
# Total GULP energy -223220.861179 kJ/mol
# GULP energy per Si atom -5580.521529 kJ/mol
# Density = 2.064968 g / cm^3
# Si number density = 20.696783 Si / 1000 Ang^3
#
#
#
# Elastic Constant Matrix: (Units=GPa)
#
#
# Indices 1 2 3 4 5 6 
#
# 1 122.5521 7.4628 88.9026 0.0000 0.0000 0.0000
# 2 7.4628 65.8620 -3.7519 0.0000 0.0000 0.0000
# 3 88.9026 -3.7519 194.7913 0.0000 0.0000 0.0000
# 4 0.0000 0.0000 0.0000 17.0691 0.0000 0.0000
# 5 0.0000 0.0000 0.0000 0.0000 30.7869 0.0000
# 6 0.0000 0.0000 0.0000 0.0000 0.0000 -6.8790
#
#
#
# Elastic Compliance Matrix: (Units=1/GPa)
#
#
# Indices 1 2 3 4 5 6 
#
# 1 0.012392 -0.001728 -0.005689 0.000000 0.000000 0.000000
# 2 -0.001728 0.015441 0.001086 0.000000 0.000000 0.000000
# 3 -0.005689 0.001086 0.007751 0.000000 0.000000 0.000000
# 4 0.000000 0.000000 0.000000 0.058586 0.000000 0.000000
# 5 0.000000 0.000000 0.000000 0.000000 0.032481 0.000000
# 6 0.000000 0.000000 0.000000 0.000000 0.000000 -0.145370
#
#
# Mechanical properties :
#
#
# Convention : Reuss Voigt Hill
#
# Bulk Modulus (GPa) = 43.62630 63.15915 53.39273
# Shear Modulus (GPa) = 3156.56791 27.56818 1592.06804
#
# Velocity S-wave (km/s) = 39.09552 3.65362 27.76517
# Velocity P-wave (km/s) = 45.37699 6.95566 32.46115
#
# Compressibility (1/GPa) = 0.02292195
#
# Stress axis : x y z
#
# Youngs Moduli (GPa) = 80.69752 64.76284 129.01463
#
# Poissons Ratio (x) = 0.11192 0.73396
# Poissons Ratio (y) = 0.13946 -0.14013
# Poissons Ratio (z) = 0.45909 -0.07034
#
# Static dielectric constant tensor:
#      x y z
#    x 1.745390 0.000000 0.000000 
#    y 0.000000 1.846940 0.000000 
#    z 0.000000 0.000000 1.747510 
# 
# From -- ./inp_files/26905.got.cif
#   From: 2010.05.17/outbox.cif.g08.bks.cpg/sg74_14_cif.got.tgz:26905.got - 2010.06.03 17:57:02.
