data_PCOD9534315
_publ_section_title
;
Structure prediction by ZEFSAII (Michael W. Deem and Ramdas Pophale) SiO2 
 PCOD9534315
Probable space group: I M M A
;
_chemical_formula_sum "Si O2"
_cell_formula_units_Z 80
_cell_length_a 27.022799
_cell_length_b 14.777584
_cell_length_c 9.450728
_cell_angle_alpha 90.000000
_cell_angle_beta 90.000000
_cell_angle_gamma 90.000000
_cell_volume 3773.975110
_symmetry_space_group_name_H-M "I M M A"
_symmetry_group_IT_number 74
_symmetry_cell_setting 'orthorhombic'
loop_
_space_group_symop_operation_xyz
x,y,z
-x,1/2-y,z
x,-y,-z
-x,1/2+y,-z
-x,-y,-z
x,1/2+y,-z
-x,y,z
x,1/2-y,z
1/2+x,1/2+y,1/2+z
1/2-x,-y,1/2+z
1/2+x,1/2-y,1/2-z
1/2-x,y,1/2-z
1/2-x,1/2-y,1/2-z
1/2+x,y,1/2-z
1/2-x,1/2+y,1/2+z
1/2+x,-y,1/2+z
loop_
_atom_site_type_symbol
_atom_site_label
_atom_site_fract_x
_atom_site_fract_y
_atom_site_fract_z
Si Si1 0.500000 0.410599 0.902363
Si Si2 0.000000 0.150311 0.294991
Si Si3 0.796617 0.860530 0.843962
Si Si4 0.894948 0.640537 0.348362
Si Si5 0.799673 0.860508 0.169174
Si Si6 0.393290 0.139662 0.177001
O O1 0.550348 0.397035 0.816903
O O2 0.500000 0.500000 0.000000
O O3 0.500000 0.340328 0.033547
O O4 0.946659 0.107275 0.266017
O O5 0.000000 0.250000 0.228743
O O6 0.795851 0.750000 0.843884
O O7 0.750000 0.889704 0.750000
O O8 0.847238 0.889280 0.769612
O O9 0.795981 0.889235 0.006543
O O10 0.897143 0.750000 0.341937
O O11 0.849787 0.610895 0.249294
O O12 0.885927 0.614483 0.512827
O O13 0.800335 0.750000 0.170685
O O14 0.750000 0.888656 0.250000
O O15 0.395363 0.250000 0.179424
#
# Coordination Sequence:
#
# PCOD9534315 Si02
#       6
#     8   8  16  16  16  16
#     4  10  18  28  45  70  92 120 160 198 232 280
#     4   8  14  26  43  62  85 112 142 178 222 268
#     4   9  15  22  34  57  89 119 147 182 223 268
#     4   9  16  28  45  66  94 124 154 192 239 286
#     4   9  16  25  39  63  95 126 151 182 233 288
#     4   8  13  22  37  56  80 111 143 176 214 258
#
# _framework density 21.197808999999999
#
# number of rings (size 3 to 8) (size 9 to 14) (size 15 to 20)
#    0.000    3.200    0.000    3.300    0.000    4.800 
#    0.000    1.000    0.000    4.800    0.000   22.400 
#    0.000    0.000    0.000    0.000    0.000    0.200 
#
# Total GULP energy -223105.242638 kJ/mol
# GULP energy per Si atom -5577.631066 kJ/mol
# Density = 2.114956 g / cm^3
# Si number density = 21.197809 Si / 1000 Ang^3
#
#
#
# Elastic Constant Matrix: (Units=GPa)
#
#
# Indices 1 2 3 4 5 6 
#
# 1 280.2990 13.2852 133.3805 0.0000 0.0000 0.0000
# 2 13.2852 78.8771 8.3842 0.0000 0.0000 0.0000
# 3 133.3805 8.3842 140.6402 0.0000 0.0000 0.0000
# 4 0.0000 0.0000 0.0000 -0.8648 0.0000 0.0000
# 5 0.0000 0.0000 0.0000 0.0000 42.6828 0.0000
# 6 0.0000 0.0000 0.0000 0.0000 0.0000 -22.7795
#
#
#
# Elastic Compliance Matrix: (Units=1/GPa)
#
#
# Indices 1 2 3 4 5 6 
#
# 1 0.006517 -0.000444 -0.006154 0.000000 0.000000 0.000000
# 2 -0.000444 0.012789 -0.000342 0.000000 0.000000 0.000000
# 3 -0.006154 -0.000342 0.012967 0.000000 0.000000 0.000000
# 4 0.000000 0.000000 0.000000 -1.156274 0.000000 0.000000
# 5 0.000000 0.000000 0.000000 0.000000 0.023429 0.000000
# 6 0.000000 0.000000 0.000000 0.000000 0.000000 -0.043899
#
#
# Mechanical properties :
#
#
# Convention : Reuss Voigt Hill
#
# Bulk Modulus (GPa) = 54.36476 89.99066 72.17771
# Shear Modulus (GPa) = -4.44658 26.79212 11.17277
#
# Velocity S-wave (km/s) = -1.44990 3.55901 2.29830
# Velocity P-wave (km/s) = 4.78530 7.70932 6.41611
#
# Compressibility (1/GPa) = 0.01839427
#
# Stress axis : x y z
#
# Youngs Moduli (GPa) = 153.44046 78.19231 77.11661
#
# Poissons Ratio (x) = 0.03468 0.47460
# Poissons Ratio (y) = 0.06805 0.02636
# Poissons Ratio (z) = 0.94432 0.02673
#
# Static dielectric constant tensor:
#      x y z
#    x 1.776290 0.000000 0.000000 
#    y 0.000000 1.821680 0.000000 
#    z 0.000000 0.000000 1.703450 
# 
# From -- ./inp_files/16039.got.cif
#   From: 2010.05.17/outbox.cif.g08.bks.cpg/sg74_9_cif.got.tgz:16039.got - 2010.06.03 17:57:02.
