data_PCOD9534776
_publ_section_title
;
Structure prediction by ZEFSAII (Michael W. Deem and Ramdas Pophale) SiO2 
 PCOD9534776
Probable space group: I M M A
;
_chemical_formula_sum "Si O2"
_cell_formula_units_Z 64
_cell_length_a 25.870290
_cell_length_b 8.178636
_cell_length_c 15.086528
_cell_angle_alpha 90.000000
_cell_angle_beta 90.000000
_cell_angle_gamma 90.000000
_cell_volume 3192.063190
_symmetry_space_group_name_H-M "I M M A"
_symmetry_group_IT_number 74
_symmetry_cell_setting 'orthorhombic'
loop_
_space_group_symop_operation_xyz
x,y,z
-x,1/2-y,z
x,-y,-z
-x,1/2+y,-z
-x,-y,-z
x,1/2+y,-z
-x,y,z
x,1/2-y,z
1/2+x,1/2+y,1/2+z
1/2-x,-y,1/2+z
1/2+x,1/2-y,1/2-z
1/2-x,y,1/2-z
1/2-x,1/2-y,1/2-z
1/2+x,y,1/2-z
1/2-x,1/2+y,1/2+z
1/2+x,-y,1/2+z
loop_
_atom_site_type_symbol
_atom_site_label
_atom_site_fract_x
_atom_site_fract_y
_atom_site_fract_z
Si Si1 0.387478 0.552381 0.398147
Si Si2 0.111070 0.555394 0.398179
Si Si3 0.309199 0.450388 0.751367
Si Si4 0.000000 0.943519 0.602846
Si Si5 0.500000 0.052880 0.602937
O O1 0.381217 0.500000 0.500000
O O2 0.388030 0.750000 0.396245
O O3 0.341420 0.496896 0.334937
O O4 0.444087 0.494980 0.363566
O O5 0.115620 0.500000 0.500000
O O6 0.112412 0.750000 0.397998
O O7 0.157639 0.495054 0.336533
O O8 0.054618 0.506141 0.360991
O O9 0.308671 0.250000 0.752216
O O10 0.250000 0.505272 0.750000
O O11 0.000000 0.750000 0.605552
O O12 0.000000 0.000000 0.500000
O O13 0.500000 0.250000 0.609294
O O14 0.500000 0.000000 0.500000
#
# Coordination Sequence:
#
# PCOD9534776 Si02
#       5
#    16  16  16   8   8
#     4   9  17  31  51  73  98 127 161 201 246 295
#     4  10  19  33  54  77 104 137 172 212 258 307
#     4   9  19  34  51  73 101 135 175 212 247 297
#     4  10  18  31  52  78 107 133 165 209 259 315
#     4   8  14  25  44  70  95 119 150 191 237 287
#
# _framework density 20.049728999999999
#
# number of rings (size 3 to 8) (size 9 to 14) (size 15 to 20)
#    0.000    2.750    0.000    3.375    0.000    2.000 
#    0.000    6.250    0.000   11.250    0.000    0.000 
#    0.000    0.000    0.000    0.000    0.000    0.000 
#
# Total GULP energy -178423.723888 kJ/mol
# GULP energy per Si atom -5575.741371 kJ/mol
# Density = 2.000409 g / cm^3
# Si number density = 20.049729 Si / 1000 Ang^3
#
#
#
# Elastic Constant Matrix: (Units=GPa)
#
#
# Indices 1 2 3 4 5 6 
#
# 1 250.0474 18.8188 100.3549 0.0000 0.0000 0.0000
# 2 18.8188 27.6648 7.6229 0.0000 0.0000 0.0000
# 3 100.3549 7.6229 110.2621 0.0000 0.0000 0.0000
# 4 0.0000 0.0000 0.0000 14.1909 0.0000 0.0000
# 5 0.0000 0.0000 0.0000 0.0000 35.6789 0.0000
# 6 0.0000 0.0000 0.0000 0.0000 0.0000 18.9200
#
#
#
# Elastic Compliance Matrix: (Units=1/GPa)
#
#
# Indices 1 2 3 4 5 6 
#
# 1 0.006514 -0.002852 -0.005732 0.000000 0.000000 0.000000
# 2 -0.002852 0.038098 -0.000038 0.000000 0.000000 0.000000
# 3 -0.005732 -0.000038 0.014289 0.000000 0.000000 0.000000
# 4 0.000000 0.000000 0.000000 0.070468 0.000000 0.000000
# 5 0.000000 0.000000 0.000000 0.000000 0.028028 0.000000
# 6 0.000000 0.000000 0.000000 0.000000 0.000000 0.052854
#
#
# Mechanical properties :
#
#
# Convention : Reuss Voigt Hill
#
# Bulk Modulus (GPa) = 24.00569 71.28529 47.64549
# Shear Modulus (GPa) = 20.71425 31.16981 25.94203
#
# Velocity S-wave (km/s) = 3.21774 3.94715 3.60096
# Velocity P-wave (km/s) = 5.07979 7.51031 6.41128
#
# Compressibility (1/GPa) = 0.04165679
#
# Stress axis : x y z
#
# Youngs Moduli (GPa) = 153.50815 26.24836 69.98513
#
# Poissons Ratio (x) = 0.07486 0.40114
# Poissons Ratio (y) = 0.43780 0.00267
# Poissons Ratio (z) = 0.87988 0.00100
#
# Static dielectric constant tensor:
#      x y z
#    x 1.740720 0.000000 0.000000 
#    y 0.000000 1.695490 0.000000 
#    z 0.000000 0.000000 1.701120 
# 
# From -- ./inp_files/29068.got.cif
#   From: 2010.05.17/outbox.cif.g08.bks.cpg/sg74_15_cif.got.tgz:29068.got - 2010.06.03 17:57:02.
