data_PCOD9534517
_publ_section_title
;
Structure prediction by ZEFSAII (Michael W. Deem and Ramdas Pophale) SiO2 
 PCOD9534517
Probable space group: I M M A
;
_chemical_formula_sum "Si O2"
_cell_formula_units_Z 96
_cell_length_a 9.132647
_cell_length_b 26.545617
_cell_length_c 23.455344
_cell_angle_alpha 90.000000
_cell_angle_beta 90.000000
_cell_angle_gamma 90.000000
_cell_volume 5686.320080
_symmetry_space_group_name_H-M "I M M A"
_symmetry_group_IT_number 74
_symmetry_cell_setting 'orthorhombic'
loop_
_space_group_symop_operation_xyz
x,y,z
-x,1/2-y,z
x,-y,-z
-x,1/2+y,-z
-x,-y,-z
x,1/2+y,-z
-x,y,z
x,1/2-y,z
1/2+x,1/2+y,1/2+z
1/2-x,-y,1/2+z
1/2+x,1/2-y,1/2-z
1/2-x,y,1/2-z
1/2-x,1/2-y,1/2-z
1/2+x,y,1/2-z
1/2-x,1/2+y,1/2+z
1/2+x,-y,1/2+z
loop_
_atom_site_type_symbol
_atom_site_label
_atom_site_fract_x
_atom_site_fract_y
_atom_site_fract_z
Si Si1 0.162920 0.945744 0.844617
Si Si2 0.677449 0.250000 0.313830
Si Si3 0.674747 0.151087 0.188008
Si Si4 0.673666 0.193915 0.688447
Si Si5 0.335253 0.401032 0.851739
Si Si6 0.831269 0.008898 0.567056
Si Si7 0.250000 0.523684 0.250000
O O1 0.281756 0.901766 0.839212
O O2 0.000000 0.924056 0.848437
O O3 0.211329 0.976993 0.899458
O O4 0.165083 0.984481 0.791085
O O5 0.500000 0.250000 0.311148
O O6 0.750000 0.250000 0.250000
O O7 0.744683 0.199112 0.340252
O O8 0.500000 0.158406 0.191981
O O9 0.750000 0.146943 0.250000
O O10 0.500000 0.191174 0.696031
O O11 0.709418 0.250000 0.665184
O O12 0.750000 0.189967 0.750000
O O13 0.727352 0.145777 0.653496
O O14 0.500000 0.381010 0.851371
O O15 0.313031 0.434726 0.908133
O O16 0.321168 0.438831 0.796945
O O17 0.000000 0.994883 0.583476
O O18 0.818090 0.000000 0.500000
#
# Coordination Sequence:
#
# PCOD9534517 Si02
#       7
#    16   8  16  16  16  16   8
#     4  11  21  32  50  75 104 135 169 209 252 304
#     4  10  18  30  46  66  96 132 168 202 242 293
#     4  11  20  31  47  70 101 133 167 202 246 295
#     4  10  20  32  47  71 105 141 173 207 251 302
#     4  10  19  31  51  76 102 135 171 207 252 303
#     4   9  20  38  55  74 102 135 171 213 262 311
#     4  10  20  30  47  71 108 136 166 200 252 300
#
# _framework density 16.882622000000001
#
# number of rings (size 3 to 8) (size 9 to 14) (size 15 to 20)
#    0.000    1.833    1.667    4.750    0.000    5.333 
#    0.000    0.000    0.000    0.000    2.167    0.000 
#    0.000    0.000    0.000    0.000    0.000    0.000 
#
# Total GULP energy -267288.459846 kJ/mol
# GULP energy per Si atom -5568.509580 kJ/mol
# Density = 1.684420 g / cm^3
# Si number density = 16.882622 Si / 1000 Ang^3
#
#
#
# Elastic Constant Matrix: (Units=GPa)
#
#
# Indices 1 2 3 4 5 6 
#
# 1 116.7598 47.4736 22.1274 0.0000 0.0000 0.0000
# 2 47.4736 99.6288 23.0083 0.0000 0.0000 0.0000
# 3 22.1274 23.0083 62.0040 0.0000 0.0000 0.0000
# 4 0.0000 0.0000 0.0000 10.7041 0.0000 0.0000
# 5 0.0000 0.0000 0.0000 0.0000 11.0093 0.0000
# 6 0.0000 0.0000 0.0000 0.0000 0.0000 62.1206
#
#
#
# Elastic Compliance Matrix: (Units=1/GPa)
#
#
# Indices 1 2 3 4 5 6 
#
# 1 0.010877 -0.004688 -0.002142 0.000000 0.000000 0.000000
# 2 -0.004688 0.012999 -0.003150 0.000000 0.000000 0.000000
# 3 -0.002142 -0.003150 0.018061 0.000000 0.000000 0.000000
# 4 0.000000 0.000000 0.000000 0.093422 0.000000 0.000000
# 5 0.000000 0.000000 0.000000 0.000000 0.090832 0.000000
# 6 0.000000 0.000000 0.000000 0.000000 0.000000 0.016098
#
#
# Mechanical properties :
#
#
# Convention : Reuss Voigt Hill
#
# Bulk Modulus (GPa) = 45.50456 51.51235 48.50845
# Shear Modulus (GPa) = 18.54774 29.15238 23.85006
#
# Velocity S-wave (km/s) = 3.31815 4.15995 3.76267
# Velocity P-wave (km/s) = 6.45695 7.32474 6.90449
#
# Compressibility (1/GPa) = 0.02197582
#
# Stress axis : x y z
#
# Youngs Moduli (GPa) = 91.93998 76.93050 55.36661
#
# Poissons Ratio (x) = 0.36066 0.11859
# Poissons Ratio (y) = 0.43103 0.17443
# Poissons Ratio (z) = 0.19693 0.24237
#
# Static dielectric constant tensor:
#      x y z
#    x 1.587480 0.000000 0.000000 
#    y 0.000000 1.638330 0.000000 
#    z 0.000000 0.000000 1.545750 
# 
# From -- ./inp_files/57518.got.cif
#   From: 2010.05.17/outbox.cif.g08.bks.cpg/sg74_29_cif.got.tgz:57518.got - 2010.06.03 17:57:02.
