data_PCOD9534279
_publ_section_title
;
Structure prediction by ZEFSAII (Michael W. Deem and Ramdas Pophale) SiO2 
 PCOD9534279
Probable space group: I M M A
;
_chemical_formula_sum "Si O2"
_cell_formula_units_Z 104
_cell_length_a 23.073018
_cell_length_b 8.657597
_cell_length_c 31.185466
_cell_angle_alpha 90.000000
_cell_angle_beta 90.000000
_cell_angle_gamma 90.000000
_cell_volume 6229.511746
_symmetry_space_group_name_H-M "I M M A"
_symmetry_group_IT_number 74
_symmetry_cell_setting 'orthorhombic'
loop_
_space_group_symop_operation_xyz
x,y,z
-x,1/2-y,z
x,-y,-z
-x,1/2+y,-z
-x,-y,-z
x,1/2+y,-z
-x,y,z
x,1/2-y,z
1/2+x,1/2+y,1/2+z
1/2-x,-y,1/2+z
1/2+x,1/2-y,1/2-z
1/2-x,y,1/2-z
1/2-x,1/2-y,1/2-z
1/2+x,y,1/2-z
1/2-x,1/2+y,1/2+z
1/2+x,-y,1/2+z
loop_
_atom_site_type_symbol
_atom_site_label
_atom_site_fract_x
_atom_site_fract_y
_atom_site_fract_z
Si Si1 0.888029 0.938488 0.603871
Si Si2 0.851495 0.435219 0.046877
Si Si3 0.432684 0.935638 0.805461
Si Si4 0.067556 0.062845 0.878721
Si Si5 0.281958 0.563602 0.953267
Si Si6 0.000000 0.063305 0.451910
Si Si7 0.429664 0.070207 0.715748
O O1 0.887935 0.750000 0.604486
O O2 0.898246 0.990518 0.652668
O O3 0.828404 0.989038 0.581865
O O4 0.942754 0.984604 0.574484
O O5 0.854099 0.250000 0.045795
O O6 0.893240 0.498401 0.083543
O O7 0.784538 0.482613 0.055397
O O8 0.867316 0.500000 0.000000
O O9 0.500000 0.986698 0.809805
O O10 0.433094 0.750000 0.806078
O O11 0.410111 0.988132 0.759143
O O12 0.069356 0.250000 0.878720
O O13 0.088139 0.010406 0.831211
O O14 0.000000 0.018179 0.884321
O O15 0.283510 0.750000 0.954971
O O16 0.298358 0.500000 0.000000
O O17 0.000000 0.250000 0.453654
O O18 0.000000 0.000000 0.500000
O O19 0.500000 0.060984 0.715154
O O20 0.413978 0.250000 0.718679
#
# Coordination Sequence:
#
# PCOD9534279 Si02
#       7
#    16  16  16  16  16   8  16
#     4   9  16  28  45  64  90 122 155 193 235 276
#     4  10  20  33  50  71  94 122 156 190 224 265
#     4   9  15  25  43  66  90 119 155 190 228 274
#     4   9  18  33  52  73  97 123 148 178 226 278
#     4   9  18  32  48  65  88 121 159 195 229 269
#     4  10  18  28  42  62  90 122 154 192 239 282
#     4   8  15  28  45  66  93 121 145 178 226 274
#
# _framework density 16.694725999999999
#
# number of rings (size 3 to 8) (size 9 to 14) (size 15 to 20)
#    0.000    2.923    0.769    1.846    0.000    1.846 
#    0.000    3.077    0.000    0.923    0.000    6.462 
#    0.000    0.000    0.000    0.000    0.000    0.000 
#
# Total GULP energy -289654.078983 kJ/mol
# GULP energy per Si atom -5570.270750 kJ/mol
# Density = 1.665673 g / cm^3
# Si number density = 16.694726 Si / 1000 Ang^3
#
#
#
# Elastic Constant Matrix: (Units=GPa)
#
#
# Indices 1 2 3 4 5 6 
#
# 1 68.6202 17.5040 88.1215 0.0000 0.0000 0.0000
# 2 17.5040 7.7095 30.7119 0.0000 0.0000 0.0000
# 3 88.1215 30.7119 198.9653 0.0000 0.0000 0.0000
# 4 0.0000 0.0000 0.0000 30.2290 0.0000 0.0000
# 5 0.0000 0.0000 0.0000 0.0000 19.1150 0.0000
# 6 0.0000 0.0000 0.0000 0.0000 0.0000 10.5201
#
#
#
# Elastic Compliance Matrix: (Units=1/GPa)
#
#
# Indices 1 2 3 4 5 6 
#
# 1 0.040877 -0.053721 -0.009812 0.000000 0.000000 0.000000
# 2 -0.053721 0.407425 -0.039096 0.000000 0.000000 0.000000
# 3 -0.009812 -0.039096 0.015407 0.000000 0.000000 0.000000
# 4 0.000000 0.000000 0.000000 0.033081 0.000000 0.000000
# 5 0.000000 0.000000 0.000000 0.000000 0.052315 0.000000
# 6 0.000000 0.000000 0.000000 0.000000 0.000000 0.095056
#
#
# Mechanical properties :
#
#
# Convention : Reuss Voigt Hill
#
# Bulk Modulus (GPa) = 3.86922 60.88554 32.37738
# Shear Modulus (GPa) = 5.34434 21.23667 13.29050
#
# Velocity S-wave (km/s) = 1.79113 3.57046 2.82457
# Velocity P-wave (km/s) = 2.56909 7.31756 5.48393
#
# Compressibility (1/GPa) = 0.25844977
#
# Stress axis : x y z
#
# Youngs Moduli (GPa) = 24.46357 2.45444 64.90697
#
# Poissons Ratio (x) = 0.13185 0.63688
# Poissons Ratio (y) = 1.31420 2.53764
# Poissons Ratio (z) = 0.24004 0.09596
#
# Static dielectric constant tensor:
#      x y z
#    x 1.553680 0.000000 0.000000 
#    y 0.000000 1.573600 0.000000 
#    z 0.000000 0.000000 1.566100 
# 
# From -- ./inp_files/73679.got.cif
#   From: 2010.05.17/outbox.cif.g08.bks.cpg/sg74_37_cif.got.tgz:73679.got - 2010.06.03 17:57:02.
