data_PCOD9534153
_publ_section_title
;
Structure prediction by ZEFSAII (Michael W. Deem and Ramdas Pophale) SiO2 
 PCOD9534153
Probable space group: I M M A
;
_chemical_formula_sum "Si O2"
_cell_formula_units_Z 88
_cell_length_a 14.989418
_cell_length_b 23.337952
_cell_length_c 12.791454
_cell_angle_alpha 90.000000
_cell_angle_beta 90.000000
_cell_angle_gamma 90.000000
_cell_volume 4474.736086
_symmetry_space_group_name_H-M "I M M A"
_symmetry_group_IT_number 74
_symmetry_cell_setting 'orthorhombic'
loop_
_space_group_symop_operation_xyz
x,y,z
-x,1/2-y,z
x,-y,-z
-x,1/2+y,-z
-x,-y,-z
x,1/2+y,-z
-x,y,z
x,1/2-y,z
1/2+x,1/2+y,1/2+z
1/2-x,-y,1/2+z
1/2+x,1/2-y,1/2-z
1/2-x,y,1/2-z
1/2-x,1/2-y,1/2-z
1/2+x,y,1/2-z
1/2-x,1/2+y,1/2+z
1/2+x,-y,1/2+z
loop_
_atom_site_type_symbol
_atom_site_label
_atom_site_fract_x
_atom_site_fract_y
_atom_site_fract_z
Si Si1 0.500000 0.919266 0.648565
Si Si2 0.864003 0.750000 0.125137
Si Si3 0.603586 0.368631 0.973451
Si Si4 0.500000 0.541384 0.292766
Si Si5 0.665266 0.901826 0.804676
Si Si6 0.152046 0.750000 0.373364
Si Si7 0.857274 0.021209 0.613138
Si Si8 0.000000 0.652408 0.064570
O O1 0.586349 0.908182 0.721076
O O2 0.500000 0.879697 0.546779
O O3 0.500000 0.987723 0.628094
O O4 0.871539 0.750000 0.250913
O O5 0.758452 0.750000 0.106436
O O6 0.914950 0.805819 0.080584
O O7 0.500000 0.387727 0.959925
O O8 0.627269 0.369135 0.095234
O O9 0.613441 0.307053 0.923881
O O10 0.670346 0.414451 0.917921
O O11 0.418569 0.532625 0.212999
O O12 0.500000 0.602159 0.348835
O O13 0.750000 0.874276 0.750000
O O14 0.695861 0.964763 0.850197
O O15 0.896306 0.000000 0.500000
#
# Coordination Sequence:
#
# PCOD9534153 Si02
#       8
#     8   8  16   8  16   8  16   8
#     4  10  22  40  62  90 131 162 202 249 302 381
#     4  10  26  45  60  84 125 164 201 251 306 368
#     4  11  21  38  69  93 119 158 207 266 314 356
#     4  10  17  33  60  95 119 155 205 247 294 363
#     4  10  22  40  61  95 130 161 200 252 311 373
#     4  11  25  44  62  94 121 148 211 270 304 358
#     4   9  18  33  60  93 122 154 192 251 316 362
#     4  11  23  41  64  83 119 178 206 230 306 377
#
# _framework density 19.665963999999999
#
# number of rings (size 3 to 8) (size 9 to 14) (size 15 to 20)
#    0.000    1.818    1.818    1.909    7.636    0.000 
#    9.818    5.909    0.000    0.000    0.000    0.000 
#    0.000    0.000    0.000    0.000    0.000    0.000 
#
# Total GULP energy -245064.834875 kJ/mol
# GULP energy per Si atom -5569.655338 kJ/mol
# Density = 1.962120 g / cm^3
# Si number density = 19.665964 Si / 1000 Ang^3
#
#
#
# Elastic Constant Matrix: (Units=GPa)
#
#
# Indices 1 2 3 4 5 6 
#
# 1 57.2073 13.2541 27.0447 0.0000 0.0000 0.0000
# 2 13.2541 117.8550 56.6977 0.0000 0.0000 0.0000
# 3 27.0447 56.6977 118.3669 0.0002 0.0000 0.0004
# 4 0.0000 0.0000 0.0002 35.3336 0.0000 0.0002
# 5 0.0000 0.0000 0.0000 0.0000 16.3957 0.0001
# 6 0.0000 0.0000 0.0004 0.0002 0.0001 -37.7299
#
#
#
# Elastic Compliance Matrix: (Units=1/GPa)
#
#
# Indices 1 2 3 4 5 6 
#
# 1 0.019597 -0.000065 -0.004447 0.000000 0.000000 0.000000
# 2 -0.000065 0.011026 -0.005267 0.000000 0.000000 0.000000
# 3 -0.004447 -0.005267 0.011987 0.000000 0.000000 0.000000
# 4 0.000000 0.000000 0.000000 0.028302 0.000000 0.000000
# 5 0.000000 0.000000 0.000000 0.000000 0.060992 0.000000
# 6 0.000000 0.000000 0.000000 0.000000 0.000000 -0.026504
#
#
# Mechanical properties :
#
#
# Convention : Reuss Voigt Hill
#
# Bulk Modulus (GPa) = 43.37579 54.15802 48.76691
# Shear Modulus (GPa) = 37.69591 15.89540 26.79565
#
# Velocity S-wave (km/s) = 4.38289 2.84609 3.69526
# Velocity P-wave (km/s) = 6.90776 6.19670 6.56187
#
# Compressibility (1/GPa) = 0.02305433
#
# Stress axis : x y z
#
# Youngs Moduli (GPa) = 51.02709 90.69499 83.42369
#
# Poissons Ratio (x) = 0.00587 0.37096
# Poissons Ratio (y) = 0.00330 0.43936
# Poissons Ratio (z) = 0.22690 0.47766
#
# Static dielectric constant tensor:
#      x y z
#    x 1.689250 0.000000 0.000000 
#    y 0.000000 1.714660 0.000000 
#    z 0.000000 0.000000 1.669250 
# 
# From -- ./inp_files/20715.got.cif
#   From: 2010.05.17/outbox.cif.g08.bks.cpg/sg74_11_cif.got.tgz:20715.got - 2010.06.03 17:57:02.
