data_PCOD9534269
_publ_section_title
;
Structure prediction by ZEFSAII (Michael W. Deem and Ramdas Pophale) SiO2 
 PCOD9534269
Probable space group: I M M A
;
_chemical_formula_sum "Si O2"
_cell_formula_units_Z 104
_cell_length_a 24.505122
_cell_length_b 8.238342
_cell_length_c 26.307531
_cell_angle_alpha 90.000000
_cell_angle_beta 90.000000
_cell_angle_gamma 90.000000
_cell_volume 5311.005813
_symmetry_space_group_name_H-M "I M M A"
_symmetry_group_IT_number 74
_symmetry_cell_setting 'orthorhombic'
loop_
_space_group_symop_operation_xyz
x,y,z
-x,1/2-y,z
x,-y,-z
-x,1/2+y,-z
-x,-y,-z
x,1/2+y,-z
-x,y,z
x,1/2-y,z
1/2+x,1/2+y,1/2+z
1/2-x,-y,1/2+z
1/2+x,1/2-y,1/2-z
1/2-x,y,1/2-z
1/2-x,1/2-y,1/2-z
1/2+x,y,1/2-z
1/2-x,1/2+y,1/2+z
1/2+x,-y,1/2+z
loop_
_atom_site_type_symbol
_atom_site_label
_atom_site_fract_x
_atom_site_fract_y
_atom_site_fract_z
Si Si1 0.500000 0.445880 0.442221
Si Si2 0.600392 0.553116 0.626330
Si Si3 0.322758 0.555555 0.055083
Si Si4 0.881973 0.934546 0.767312
Si Si5 0.725074 0.070793 0.694535
Si Si6 0.661287 0.056268 0.160690
Si Si7 0.303782 0.056208 0.554919
O O1 0.500000 0.250000 0.441020
O O2 0.500000 0.500000 0.500000
O O3 0.553624 0.502122 0.412222
O O4 0.599663 0.750000 0.628984
O O5 0.587105 0.491652 0.683887
O O6 0.657947 0.503199 0.600691
O O7 0.322127 0.750000 0.057631
O O8 0.355841 0.489868 0.103753
O O9 0.259133 0.496396 0.057533
O O10 0.343635 0.500000 0.000000
O O11 0.900903 0.750000 0.760088
O O12 0.872792 0.005014 0.710456
O O13 0.822044 0.942286 0.793768
O O14 0.705111 0.250000 0.677749
O O15 0.750000 0.092086 0.750000
O O16 0.777454 0.014499 0.663732
O O17 0.664147 0.250000 0.166210
O O18 0.302757 0.250000 0.555282
O O19 0.326003 0.000000 0.500000
#
# Coordination Sequence:
#
# PCOD9534269 Si02
#       7
#     8  16  16  16  16  16  16
#     4  10  22  38  54  70  88 112 143 182 229 276
#     4  10  20  34  50  67  87 111 142 182 227 274
#     4  10  20  32  45  63  88 119 153 186 218 252
#     4   9  18  30  44  62  84 111 141 175 218 265
#     4   9  16  25  38  58  84 112 142 176 213 253
#     4  10  18  28  42  60  84 114 146 178 213 255
#     4  10  20  32  46  64  85 112 147 186 225 262
#
# _framework density 19.581979
#
# number of rings (size 3 to 8) (size 9 to 14) (size 15 to 20)
#    0.000    2.308    0.000    3.231    0.000    9.231 
#    0.000    0.000    0.000    0.000    0.000    0.000 
#    0.000    0.000    0.000    0.692    0.000    4.923 
#
# Total GULP energy -289486.929438 kJ/mol
# GULP energy per Si atom -5567.056335 kJ/mol
# Density = 1.953741 g / cm^3
# Si number density = 19.581979 Si / 1000 Ang^3
#
#
#
# Elastic Constant Matrix: (Units=GPa)
#
#
# Indices 1 2 3 4 5 6 
#
# 1 15.2183 -2.2641 19.8235 0.0000 0.0000 0.0000
# 2 -2.2641 28.9628 6.5951 0.0000 0.0000 0.0000
# 3 19.8235 6.5951 207.5620 0.0000 0.0000 0.0000
# 4 0.0000 0.0000 0.0000 18.0408 0.0000 0.0000
# 5 0.0000 0.0000 0.0000 0.0000 23.0838 0.0000
# 6 0.0000 0.0000 0.0000 0.0000 0.0000 2.7997
#
#
#
# Elastic Compliance Matrix: (Units=1/GPa)
#
#
# Indices 1 2 3 4 5 6 
#
# 1 0.076724 0.007722 -0.007573 0.000000 0.000000 0.000000
# 2 0.007722 0.035556 -0.001867 0.000000 0.000000 0.000000
# 3 -0.007573 -0.001867 0.005600 0.000000 0.000000 0.000000
# 4 0.000000 0.000000 0.000000 0.055430 0.000000 0.000000
# 5 0.000000 0.000000 0.000000 0.000000 0.043320 0.000000
# 6 0.000000 0.000000 0.000000 0.000000 0.000000 0.357184
#
#
# Mechanical properties :
#
#
# Convention : Reuss Voigt Hill
#
# Bulk Modulus (GPa) = 8.73792 33.33914 21.03853
# Shear Modulus (GPa) = 8.12482 23.95743 16.04112
#
# Velocity S-wave (km/s) = 2.03915 3.50157 2.86523
# Velocity P-wave (km/s) = 3.16482 5.78017 4.65975
#
# Compressibility (1/GPa) = 0.11444374
#
# Stress axis : x y z
#
# Youngs Moduli (GPa) = 13.03378 28.12469 178.55748
#
# Poissons Ratio (x) = -0.21718 1.35221
# Poissons Ratio (y) = -0.10065 0.33342
# Poissons Ratio (z) = 0.09870 0.05252
#
# Static dielectric constant tensor:
#      x y z
#    x 1.724430 0.000000 0.000000 
#    y 0.000000 1.728670 0.000000 
#    z 0.000000 0.000000 1.799880 
# 
# From -- ./inp_files/68943.got.cif
#   From: 2010.05.17/outbox.cif.g08.bks.cpg/sg74_35_cif.got.tgz:68943.got - 2010.06.03 17:57:02.
