data_PCOD9534280
_publ_section_title
;
Structure prediction by ZEFSAII (Michael W. Deem and Ramdas Pophale) SiO2 
 PCOD9534280
Probable space group: I M M A
;
_chemical_formula_sum "Si O2"
_cell_formula_units_Z 88
_cell_length_a 8.151855
_cell_length_b 31.991387
_cell_length_c 18.322523
_cell_angle_alpha 90.000000
_cell_angle_beta 90.000000
_cell_angle_gamma 90.000000
_cell_volume 4778.315164
_symmetry_space_group_name_H-M "I M M A"
_symmetry_group_IT_number 74
_symmetry_cell_setting 'orthorhombic'
loop_
_space_group_symop_operation_xyz
x,y,z
-x,1/2-y,z
x,-y,-z
-x,1/2+y,-z
-x,-y,-z
x,1/2+y,-z
-x,y,z
x,1/2-y,z
1/2+x,1/2+y,1/2+z
1/2-x,-y,1/2+z
1/2+x,1/2-y,1/2-z
1/2-x,y,1/2-z
1/2-x,1/2-y,1/2-z
1/2+x,y,1/2-z
1/2-x,1/2+y,1/2+z
1/2+x,-y,1/2+z
loop_
_atom_site_type_symbol
_atom_site_label
_atom_site_fract_x
_atom_site_fract_y
_atom_site_fract_z
Si Si1 0.299887 0.836743 0.893779
Si Si2 0.302376 0.368269 0.947846
Si Si3 0.698332 0.202456 0.834146
Si Si4 0.195791 0.578660 0.671354
Si Si5 0.698361 0.250000 0.166925
Si Si6 0.804547 0.453360 0.013816
O O1 0.500000 0.836342 0.894014
O O2 0.248278 0.873146 0.838476
O O3 0.239685 0.791792 0.870779
O O4 0.247830 0.848593 0.975068
O O5 0.500000 0.367582 0.944866
O O6 0.243854 0.336706 0.883983
O O7 0.254975 0.417053 0.958040
O O8 0.500000 0.202588 0.837708
O O9 0.751737 0.250000 0.856734
O O10 0.750000 0.196869 0.750000
O O11 0.250000 0.562051 0.750000
O O12 0.259668 0.557598 0.597383
O O13 0.000000 0.577277 0.668559
O O14 0.500000 0.250000 0.162461
O O15 0.750000 0.250000 0.250000
O O16 0.000000 0.454008 0.007303
O O17 0.739038 0.500000 0.000000
#
# Coordination Sequence:
#
# PCOD9534280 Si02
#       6
#    16  16  16  16   8  16
#     4   8  16  28  45  69  95 128 166 203 241 285
#     4   9  18  33  53  77 101 133 175 214 260 312
#     4   9  18  32  52  78 108 142 178 219 266 320
#     4  10  19  33  53  77 103 134 172 211 255 305
#     4  10  18  28  42  62  93 128 160 196 235 276
#     4  10  21  37  56  78 104 135 172 218 272 322
#
# _framework density 18.416533999999999
#
# number of rings (size 3 to 8) (size 9 to 14) (size 15 to 20)
#    0.000    2.727    0.000    2.727    1.273    2.182 
#    0.000    4.545    0.000    2.182    0.000    0.000 
#    0.000    0.000    0.000    0.000    0.000    0.000 
#
# Total GULP energy -245041.121516 kJ/mol
# GULP energy per Si atom -5569.116398 kJ/mol
# Density = 1.837462 g / cm^3
# Si number density = 18.416534 Si / 1000 Ang^3
#
#
#
# Elastic Constant Matrix: (Units=GPa)
#
#
# Indices 1 2 3 4 5 6 
#
# 1 14.3511 14.4169 6.5881 0.0000 0.0000 0.0000
# 2 14.4169 170.5984 74.1061 0.0000 0.0000 0.0000
# 3 6.5881 74.1061 94.0785 0.0000 0.0000 0.0000
# 4 0.0000 0.0000 0.0000 19.2510 0.0000 0.0000
# 5 0.0000 0.0000 0.0000 0.0000 25.2591 0.0000
# 6 0.0000 0.0000 0.0000 0.0000 0.0000 12.5180
#
#
#
# Elastic Compliance Matrix: (Units=1/GPa)
#
#
# Indices 1 2 3 4 5 6 
#
# 1 0.076155 -0.006262 -0.000401 0.000000 0.000000 0.000000
# 2 -0.006262 0.009426 -0.006986 0.000000 0.000000 0.000000
# 3 -0.000401 -0.006986 0.016160 0.000000 0.000000 0.000000
# 4 0.000000 0.000000 0.000000 0.051945 0.000000 0.000000
# 5 0.000000 0.000000 0.000000 0.000000 0.039590 0.000000
# 6 0.000000 0.000000 0.000000 0.000000 0.000000 0.079885
#
#
# Mechanical properties :
#
#
# Convention : Reuss Voigt Hill
#
# Bulk Modulus (GPa) = 13.43285 52.13892 32.78588
# Shear Modulus (GPa) = 15.37173 23.66677 19.51925
#
# Velocity S-wave (km/s) = 2.89220 3.58869 3.25911
# Velocity P-wave (km/s) = 4.29684 6.74863 5.65716
#
# Compressibility (1/GPa) = 0.07444438
#
# Stress axis : x y z
#
# Youngs Moduli (GPa) = 13.13109 106.09481 61.87963
#
# Poissons Ratio (x) = 0.66433 0.02479
# Poissons Ratio (y) = 0.08222 0.43229
# Poissons Ratio (z) = 0.00526 0.74118
#
# Static dielectric constant tensor:
#      x y z
#    x 1.649360 0.000000 0.000000 
#    y 0.000000 1.669440 0.000000 
#    z 0.000000 0.000000 1.636260 
# 
# From -- ./inp_files/40075.got.cif
#   From: 2010.05.17/outbox.cif.g08.bks.cpg/sg74_21_cif.got.tgz:40075.got - 2010.06.03 17:57:02.
