data_PCOD9534333
_publ_section_title
;
Structure prediction by ZEFSAII (Michael W. Deem and Ramdas Pophale) SiO2 
 PCOD9534333
Probable space group: I M M A
;
_chemical_formula_sum "Si O2"
_cell_formula_units_Z 80
_cell_length_a 15.331046
_cell_length_b 7.476980
_cell_length_c 30.440608
_cell_angle_alpha 90.000000
_cell_angle_beta 90.000000
_cell_angle_gamma 90.000000
_cell_volume 3489.404591
_symmetry_space_group_name_H-M "I M M A"
_symmetry_group_IT_number 74
_symmetry_cell_setting 'orthorhombic'
loop_
_space_group_symop_operation_xyz
x,y,z
-x,1/2-y,z
x,-y,-z
-x,1/2+y,-z
-x,-y,-z
x,1/2+y,-z
-x,y,z
x,1/2-y,z
1/2+x,1/2+y,1/2+z
1/2-x,-y,1/2+z
1/2+x,1/2-y,1/2-z
1/2-x,y,1/2-z
1/2-x,1/2-y,1/2-z
1/2+x,y,1/2-z
1/2-x,1/2+y,1/2+z
1/2+x,-y,1/2+z
loop_
_atom_site_type_symbol
_atom_site_label
_atom_site_fract_x
_atom_site_fract_y
_atom_site_fract_z
Si Si1 0.901161 0.532069 0.677798
Si Si2 0.591264 0.536022 0.051760
Si Si3 0.279576 0.463436 0.357192
Si Si4 0.099619 0.467793 0.221554
Si Si5 0.783236 0.039727 0.950361
O O1 0.904003 0.750000 0.675579
O O2 0.820608 0.468450 0.647956
O O3 0.879334 0.482769 0.728263
O O4 0.000000 0.468786 0.668626
O O5 0.500000 0.465059 0.071789
O O6 0.592371 0.750000 0.059442
O O7 0.687233 0.456304 0.058550
O O8 0.583656 0.500000 0.000000
O O9 0.274361 0.250000 0.352700
O O10 0.335231 0.531558 0.315951
O O11 0.327282 0.498095 0.403802
O O12 0.101578 0.250000 0.220985
O O13 0.000000 0.522059 0.212642
O O14 0.772227 0.250000 0.951345
O O15 0.815104 0.000000 0.000000
#
# Coordination Sequence:
#
# PCOD9534333 Si02
#       5
#    16  16  16  16  16
#     4   8  14  25  43  71 104 131 156 189 228 274
#     4   8  14  25  40  56  75 104 143 183 221 262
#     4  10  18  28  47  73  97 124 159 197 237 280
#     4   8  14  26  46  72  99 125 156 195 235 277
#     4  10  20  33  47  64  90 124 161 201 242 283
#
# _framework density 22.926546999999999
#
# number of rings (size 3 to 8) (size 9 to 14) (size 15 to 20)
#    0.000    3.200    0.000    2.400    0.000    4.000 
#    0.000    0.000    0.000    8.400    0.000    2.800 
#    0.000    0.000    0.000    0.000    0.000    0.000 
#
# Total GULP energy -222707.885580 kJ/mol
# GULP energy per Si atom -5567.697140 kJ/mol
# Density = 2.287437 g / cm^3
# Si number density = 22.926547 Si / 1000 Ang^3
#
#
#
# Elastic Constant Matrix: (Units=GPa)
#
#
# Indices 1 2 3 4 5 6 
#
# 1 34.3668 2.8464 48.1510 0.0000 0.0000 0.0000
# 2 2.8464 77.7730 -3.7612 0.0000 0.0000 0.0000
# 3 48.1510 -3.7612 193.7991 0.0000 0.0000 0.0000
# 4 0.0000 0.0000 0.0000 9.5395 0.0000 0.0000
# 5 0.0000 0.0000 0.0000 0.0000 -0.7853 0.0000
# 6 0.0000 0.0000 0.0000 0.0000 0.0000 -1.8640
#
#
#
# Elastic Compliance Matrix: (Units=1/GPa)
#
#
# Indices 1 2 3 4 5 6 
#
# 1 0.045006 -0.002190 -0.011225 0.000000 0.000000 0.000000
# 2 -0.002190 0.012977 0.000796 0.000000 0.000000 0.000000
# 3 -0.011225 0.000796 0.007964 0.000000 0.000000 0.000000
# 4 0.000000 0.000000 0.000000 0.104827 0.000000 0.000000
# 5 0.000000 0.000000 0.000000 0.000000 -1.273362 0.000000
# 6 0.000000 0.000000 0.000000 0.000000 0.000000 -0.536483
#
#
# Mechanical properties :
#
#
# Convention : Reuss Voigt Hill
#
# Bulk Modulus (GPa) = 24.56428 44.49012 34.52720
# Shear Modulus (GPa) = -3.12448 18.62489 7.75021
#
# Velocity S-wave (km/s) = -1.16867 2.85331 1.84059
# Velocity P-wave (km/s) = 2.98606 5.50480 4.42828
#
# Compressibility (1/GPa) = 0.04070952
#
# Stress axis : x y z
#
# Youngs Moduli (GPa) = 22.21935 77.06190 125.56083
#
# Poissons Ratio (x) = 0.16876 1.40937
# Poissons Ratio (y) = 0.04866 -0.09994
# Poissons Ratio (z) = 0.24940 -0.06134
#
# Static dielectric constant tensor:
#      x y z
#    x 1.930680 0.000000 0.000000 
#    y 0.000000 1.685610 0.000000 
#    z 0.000000 0.000000 2.445540 
# 
# From -- ./inp_files/67538.got.cif
#   From: 2010.05.17/outbox.cif.g08.bks.cpg/sg74_34_cif.got.tgz:67538.got - 2010.06.03 17:57:02.
