data_PCOD9534062
_publ_section_title
;
Structure prediction by ZEFSAII (Michael W. Deem and Ramdas Pophale) SiO2 
 PCOD9534062
Probable space group: I M M A
;
_chemical_formula_sum "Si O2"
_cell_formula_units_Z 116
_cell_length_a 28.348415
_cell_length_b 7.817906
_cell_length_c 34.348181
_cell_angle_alpha 90.000000
_cell_angle_beta 90.000000
_cell_angle_gamma 90.000000
_cell_volume 7612.423985
_symmetry_space_group_name_H-M "I M M A"
_symmetry_group_IT_number 74
_symmetry_cell_setting 'orthorhombic'
loop_
_space_group_symop_operation_xyz
x,y,z
-x,1/2-y,z
x,-y,-z
-x,1/2+y,-z
-x,-y,-z
x,1/2+y,-z
-x,y,z
x,1/2-y,z
1/2+x,1/2+y,1/2+z
1/2-x,-y,1/2+z
1/2+x,1/2-y,1/2-z
1/2-x,y,1/2-z
1/2-x,1/2-y,1/2-z
1/2+x,y,1/2-z
1/2-x,1/2+y,1/2+z
1/2+x,-y,1/2+z
loop_
_atom_site_type_symbol
_atom_site_label
_atom_site_fract_x
_atom_site_fract_y
_atom_site_fract_z
Si Si1 0.568612 0.950049 0.239493
Si Si2 0.654326 0.052553 0.956856
Si Si3 0.325148 0.551684 0.750341
Si Si4 0.745791 0.050822 0.688855
Si Si5 0.917832 0.544554 0.349232
Si Si6 0.686016 0.040153 0.874774
Si Si7 0.500000 0.750000 0.735657
Si Si8 0.551071 0.449571 0.066754
O O1 0.554840 0.750000 0.245029
O O2 0.562708 0.994394 0.193373
O O3 0.624160 0.965005 0.248586
O O4 0.540559 0.096148 0.262139
O O5 0.687272 0.250000 0.874286
O O6 0.679308 0.973928 0.918795
O O7 0.598019 0.030200 0.951056
O O8 0.667926 0.000000 0.000000
O O9 0.330096 0.750000 0.761183
O O10 0.298410 0.539225 0.708954
O O11 0.289313 0.464968 0.780778
O O12 0.834944 0.750000 0.453988
O O13 0.768146 0.982520 0.648801
O O14 0.919991 0.750000 0.353993
O O15 0.862774 0.493329 0.352872
O O16 0.943851 0.467086 0.386469
O O17 0.766340 0.250000 0.815552
O O18 0.500000 0.521595 0.054944
O O19 0.552275 0.250000 0.056532
#
# Coordination Sequence:
#
# PCOD9534062 Si02
#       8
#    16  16  16  16  16  16   4  16
#     4  11  22  37  51  66  91 125 158 197 246 285
#     4  10  20  35  50  64  82 107 140 178 228 279
#     4  11  20  31  45  70  99 123 151 188 233 285
#     4  10  17  29  49  71  93 122 151 180 232 293
#     4   9  18  31  46  62  85 113 142 179 230 285
#     4   8  15  29  47  66  86 109 142 179 218 278
#     4  12  26  36  48  68  88 120 168 208 232 280
#     4  10  21  32  45  62  80 102 137 183 233 282
#
# _framework density 15.238246999999999
#
# number of rings (size 3 to 8) (size 9 to 14) (size 15 to 20)
#    0.000    2.069    2.069    4.345    1.931    1.379 
#    0.000    2.069    0.000    0.000    0.000    0.000 
#    0.000    0.000    0.000    0.000    0.000    0.000 
#
# Total GULP energy -322924.261332 kJ/mol
# GULP energy per Si atom -5567.659678 kJ/mol
# Density = 1.520356 g / cm^3
# Si number density = 15.238247 Si / 1000 Ang^3
#
#
#
# Elastic Constant Matrix: (Units=GPa)
#
#
# Indices 1 2 3 4 5 6 
#
# 1 54.6392 6.2129 19.1096 0.0000 0.0000 0.0000
# 2 6.2129 45.9118 -1.1489 0.0000 0.0000 0.0000
# 3 19.1096 -1.1489 57.1337 0.0000 0.0000 0.0000
# 4 0.0000 0.0000 0.0000 14.3273 0.0000 0.0000
# 5 0.0000 0.0000 0.0000 0.0000 -1.9288 0.0000
# 6 0.0000 0.0000 0.0000 0.0000 0.0000 18.0370
#
#
#
# Elastic Compliance Matrix: (Units=1/GPa)
#
#
# Indices 1 2 3 4 5 6 
#
# 1 0.021142 -0.003039 -0.007133 0.000000 0.000000 0.000000
# 2 -0.003039 0.022229 0.001464 0.000000 0.000000 0.000000
# 3 -0.007133 0.001464 0.019918 0.000000 0.000000 0.000000
# 4 0.000000 0.000000 0.000000 0.069797 0.000000 0.000000
# 5 0.000000 0.000000 0.000000 0.000000 -0.518450 0.000000
# 6 0.000000 0.000000 0.000000 0.000000 0.000000 0.055442
#
#
# Mechanical properties :
#
#
# Convention : Reuss Voigt Hill
#
# Bulk Modulus (GPa) = 21.79980 22.89242 22.34611
# Shear Modulus (GPa) = -16.82280 14.98785 -0.91748
#
# Velocity S-wave (km/s) = -3.32623 3.13959 -0.77679
# Velocity P-wave (km/s) = 0.64399 5.31021 3.72717
#
# Compressibility (1/GPa) = 0.04587198
#
# Stress axis : x y z
#
# Youngs Moduli (GPa) = 47.29910 44.98664 50.20611
#
# Poissons Ratio (x) = 0.13674 0.35810
# Poissons Ratio (y) = 0.14376 -0.07348
# Poissons Ratio (z) = 0.33736 -0.06584
#
# Static dielectric constant tensor:
#      x y z
#    x 1.513900 0.000000 0.000000 
#    y 0.000000 1.543060 0.000000 
#    z 0.000000 0.000000 1.552500 
# 
# From -- ./inp_files/73968.got.cif
#   From: 2010.05.17/outbox.cif.g08.bks.cpg/sg74_37_cif.got.tgz:73968.got - 2010.06.03 17:57:02.
