data_PCOD9534782
_publ_section_title
;
Structure prediction by ZEFSAII (Michael W. Deem and Ramdas Pophale) SiO2 
 PCOD9534782
Probable space group: I M M A
;
_chemical_formula_sum "Si O2"
_cell_formula_units_Z 116
_cell_length_a 26.329685
_cell_length_b 7.616211
_cell_length_c 29.748398
_cell_angle_alpha 90.000000
_cell_angle_beta 90.000000
_cell_angle_gamma 90.000000
_cell_volume 5965.518734
_symmetry_space_group_name_H-M "I M M A"
_symmetry_group_IT_number 74
_symmetry_cell_setting 'orthorhombic'
loop_
_space_group_symop_operation_xyz
x,y,z
-x,1/2-y,z
x,-y,-z
-x,1/2+y,-z
-x,-y,-z
x,1/2+y,-z
-x,y,z
x,1/2-y,z
1/2+x,1/2+y,1/2+z
1/2-x,-y,1/2+z
1/2+x,1/2-y,1/2-z
1/2-x,y,1/2-z
1/2-x,1/2-y,1/2-z
1/2+x,y,1/2-z
1/2-x,1/2+y,1/2+z
1/2+x,-y,1/2+z
loop_
_atom_site_type_symbol
_atom_site_label
_atom_site_fract_x
_atom_site_fract_y
_atom_site_fract_z
Si Si1 0.257063 0.461235 0.052165
Si Si2 0.643535 0.042016 0.447841
Si Si3 0.679787 0.452155 0.133087
Si Si4 0.943706 0.959038 0.122780
Si Si5 0.084569 0.547164 0.309209
Si Si6 0.500000 0.750000 0.827312
Si Si7 0.231516 0.038006 0.800277
Si Si8 0.116690 0.963589 0.207946
O O1 0.256051 0.250000 0.057643
O O2 0.200065 0.529552 0.063239
O O3 0.300244 0.527754 0.085813
O O4 0.266525 0.500000 0.000000
O O5 0.646776 0.250000 0.443795
O O6 0.633050 0.000000 0.500000
O O7 0.598565 0.985064 0.415286
O O8 0.664148 0.250000 0.126758
O O9 0.634043 0.544275 0.158902
O O10 0.729560 0.458900 0.164511
O O11 0.948096 0.750000 0.128091
O O12 0.922505 0.027668 0.170322
O O13 0.000000 0.028187 0.111869
O O14 0.066087 0.750000 0.306792
O O15 0.101762 0.491646 0.258738
O O16 0.044063 0.405857 0.325556
O O17 0.233349 0.250000 0.805385
O O18 0.250000 0.997182 0.750000
O O19 0.173460 0.978363 0.804687
O O20 0.117754 0.750000 0.206814
#
# Coordination Sequence:
#
# PCOD9534782 Si02
#       8
#    16  16  16  16  16   4  16  16
#     4   9  20  36  58  87 123 152 185 234 292 360
#     4  10  20  37  57  80 108 147 190 240 303 362
#     4  11  21  36  56  89 127 157 197 246 295 357
#     4  10  21  36  53  75 103 146 200 255 302 345
#     4  11  23  42  64  87 120 163 204 252 301 356
#     4  12  26  44  60  92 118 156 214 252 306 346
#     4  10  18  31  52  80 115 156 198 241 290 360
#     4   9  19  36  56  79 114 156 202 245 299 358
#
# _framework density 19.445081999999999
#
# number of rings (size 3 to 8) (size 9 to 14) (size 15 to 20)
#    0.000    1.931    2.069    1.862    0.966    2.483 
#    2.483    0.000    0.000    0.000    0.000    0.483 
#    0.000    0.000    0.000    0.000    0.000    0.000 
#
# Total GULP energy -323335.061550 kJ/mol
# GULP energy per Si atom -5574.742441 kJ/mol
# Density = 1.940082 g / cm^3
# Si number density = 19.445082 Si / 1000 Ang^3
#
#
#
# Elastic Constant Matrix: (Units=GPa)
#
#
# Indices 1 2 3 4 5 6 
#
# 1 104.0951 23.7559 76.8201 0.0000 0.0000 0.0000
# 2 23.7559 67.8512 9.1397 0.0000 0.0000 0.0000
# 3 76.8201 9.1397 99.0731 0.0000 0.0000 0.0000
# 4 0.0000 0.0000 0.0000 7.9372 0.0000 0.0000
# 5 0.0000 0.0000 0.0000 0.0000 -10.4936 0.0000
# 6 0.0000 0.0000 0.0000 0.0000 0.0000 15.3467
#
#
#
# Elastic Compliance Matrix: (Units=1/GPa)
#
#
# Indices 1 2 3 4 5 6 
#
# 1 0.024763 -0.006160 -0.018633 0.000000 0.000000 0.000000
# 2 -0.006160 0.016456 0.003258 0.000000 0.000000 0.000000
# 3 -0.018633 0.003258 0.024240 0.000000 0.000000 0.000000
# 4 0.000000 0.000000 0.000000 0.125989 0.000000 0.000000
# 5 0.000000 0.000000 0.000000 0.000000 -0.095297 0.000000
# 6 0.000000 0.000000 0.000000 0.000000 0.000000 0.065161
#
#
# Mechanical properties :
#
#
# Convention : Reuss Voigt Hill
#
# Bulk Modulus (GPa) = 44.66137 54.49453 49.57795
# Shear Modulus (GPa) = 23.60220 13.31164 18.45692
#
# Velocity S-wave (km/s) = 3.48773 2.61928 3.08422
# Velocity P-wave (km/s) = 6.26393 6.10190 6.18344
#
# Compressibility (1/GPa) = 0.02239071
#
# Stress axis : x y z
#
# Youngs Moduli (GPa) = 40.38304 60.76823 41.25336
#
# Poissons Ratio (x) = 0.37434 0.76866
# Poissons Ratio (y) = 0.24876 -0.13442
# Poissons Ratio (z) = 0.75244 -0.19800
#
# Static dielectric constant tensor:
#      x y z
#    x 1.691130 0.000000 0.000000 
#    y 0.000000 1.780230 0.000000 
#    z 0.000000 0.000000 1.664800 
# 
# From -- ./inp_files/73770.got.cif
#   From: 2010.05.17/outbox.cif.g08.bks.cpg/sg74_37_cif.got.tgz:73770.got - 2010.06.03 17:57:02.
