data_PCOD9534743
_publ_section_title
;
Structure prediction by ZEFSAII (Michael W. Deem and Ramdas Pophale) SiO2 
 PCOD9534743
Probable space group: I M M A
;
_chemical_formula_sum "Si O2"
_cell_formula_units_Z 80
_cell_length_a 28.568560
_cell_length_b 7.942424
_cell_length_c 20.470499
_cell_angle_alpha 90.000000
_cell_angle_beta 90.000000
_cell_angle_gamma 90.000000
_cell_volume 4644.830256
_symmetry_space_group_name_H-M "I M M A"
_symmetry_group_IT_number 74
_symmetry_cell_setting 'orthorhombic'
loop_
_space_group_symop_operation_xyz
x,y,z
-x,1/2-y,z
x,-y,-z
-x,1/2+y,-z
-x,-y,-z
x,1/2+y,-z
-x,y,z
x,1/2-y,z
1/2+x,1/2+y,1/2+z
1/2-x,-y,1/2+z
1/2+x,1/2-y,1/2-z
1/2-x,y,1/2-z
1/2-x,1/2-y,1/2-z
1/2+x,y,1/2-z
1/2-x,1/2+y,1/2+z
1/2+x,-y,1/2+z
loop_
_atom_site_type_symbol
_atom_site_label
_atom_site_fract_x
_atom_site_fract_y
_atom_site_fract_z
Si Si1 0.786546 0.447106 0.195634
Si Si2 0.945859 0.250000 0.401788
Si Si3 0.446855 0.250000 0.257482
Si Si4 0.728328 0.450636 0.927679
Si Si5 0.615112 0.564784 0.260707
Si Si6 0.878153 0.554075 0.396968
O O1 0.795823 0.250000 0.209152
O O2 0.750000 0.510065 0.250000
O O3 0.761032 0.467588 0.126773
O O4 0.835273 0.541547 0.204105
O O5 0.947107 0.250000 0.322138
O O6 0.916643 0.418314 0.419862
O O7 0.000000 0.250000 0.424396
O O8 0.500000 0.250000 0.279756
O O9 0.419390 0.415440 0.279269
O O10 0.730110 0.250000 0.918642
O O11 0.673714 0.499754 0.919298
O O12 0.743449 0.500000 0.000000
O O13 0.595695 0.750000 0.273760
O O14 0.623026 0.551224 0.182293
O O15 0.887023 0.750000 0.416401
#
# Coordination Sequence:
#
# PCOD9534743 Si02
#       6
#    16   8   8  16  16  16
#     4  11  21  32  54  80 108 143 180 220 264 322
#     4   9  18  30  51  73  97 131 171 228 280 313
#     4   9  18  32  46  74 110 136 172 220 271 317
#     4  11  23  36  51  76 106 143 179 220 269 321
#     4  10  18  31  51  76 104 139 178 216 264 315
#     4   9  19  32  50  73  99 134 179 218 263 321
#
# _framework density 17.223448999999999
#
# number of rings (size 3 to 8) (size 9 to 14) (size 15 to 20)
#    0.000    2.000    3.000    1.200    2.800    1.600 
#    0.000    4.000    0.000    0.600    0.000    0.000 
#    0.000    0.800    0.400    0.000    0.000    0.000 
#
# Total GULP energy -223310.740109 kJ/mol
# GULP energy per Si atom -5582.768503 kJ/mol
# Density = 1.718425 g / cm^3
# Si number density = 17.223449 Si / 1000 Ang^3
#
#
#
# Elastic Constant Matrix: (Units=GPa)
#
#
# Indices 1 2 3 4 5 6 
#
# 1 98.6575 54.0767 28.6518 0.0000 0.0000 0.0000
# 2 54.0767 97.1451 16.7630 0.0000 0.0000 0.0000
# 3 28.6518 16.7630 54.8759 0.0000 0.0000 0.0000
# 4 0.0000 0.0000 0.0000 13.6271 0.0000 0.0000
# 5 0.0000 0.0000 0.0000 0.0000 5.1736 0.0000
# 6 0.0000 0.0000 0.0000 0.0000 0.0000 13.6090
#
#
#
# Elastic Compliance Matrix: (Units=1/GPa)
#
#
# Indices 1 2 3 4 5 6 
#
# 1 0.016293 -0.008025 -0.006056 0.000000 0.000000 0.000000
# 2 -0.008025 0.014819 -0.000337 0.000000 0.000000 0.000000
# 3 -0.006056 -0.000337 0.021488 0.000000 0.000000 0.000000
# 4 0.000000 0.000000 0.000000 0.073383 0.000000 0.000000
# 5 0.000000 0.000000 0.000000 0.000000 0.193288 0.000000
# 6 0.000000 0.000000 0.000000 0.000000 0.000000 0.073481
#
#
# Mechanical properties :
#
#
# Convention : Reuss Voigt Hill
#
# Bulk Modulus (GPa) = 42.07831 49.96238 46.02034
# Shear Modulus (GPa) = 11.64120 16.56107 14.10113
#
# Velocity S-wave (km/s) = 2.60261 3.10424 2.86443
# Velocity P-wave (km/s) = 5.78924 6.47454 6.14146
#
# Compressibility (1/GPa) = 0.02376521
#
# Stress axis : x y z
#
# Youngs Moduli (GPa) = 61.37446 67.48026 46.53835
#
# Poissons Ratio (x) = 0.54152 0.28182
# Poissons Ratio (y) = 0.49253 0.01568
# Poissons Ratio (z) = 0.37167 0.02273
#
# Static dielectric constant tensor:
#      x y z
#    x 1.564310 0.000000 0.000000 
#    y 0.000000 1.613490 0.000000 
#    z 0.000000 0.000000 1.558690 
# 
# From -- ./inp_files/46505.got.cif
#   From: 2010.05.17/outbox.cif.g08.bks.cpg/sg74_24_cif.got.tgz:46505.got - 2010.06.03 17:57:02.
