data_PCOD9534566
_publ_section_title
;
Structure prediction by ZEFSAII (Michael W. Deem and Ramdas Pophale) SiO2 
 PCOD9534566
Probable space group: I M M A
;
_chemical_formula_sum "Si O2"
_cell_formula_units_Z 96
_cell_length_a 8.950235
_cell_length_b 23.474271
_cell_length_c 26.243569
_cell_angle_alpha 90.000000
_cell_angle_beta 90.000000
_cell_angle_gamma 90.000000
_cell_volume 5513.780195
_symmetry_space_group_name_H-M "I M M A"
_symmetry_group_IT_number 74
_symmetry_cell_setting 'orthorhombic'
loop_
_space_group_symop_operation_xyz
x,y,z
-x,1/2-y,z
x,-y,-z
-x,1/2+y,-z
-x,-y,-z
x,1/2+y,-z
-x,y,z
x,1/2-y,z
1/2+x,1/2+y,1/2+z
1/2-x,-y,1/2+z
1/2+x,1/2-y,1/2-z
1/2-x,y,1/2-z
1/2-x,1/2-y,1/2-z
1/2+x,y,1/2-z
1/2-x,1/2+y,1/2+z
1/2+x,-y,1/2+z
loop_
_atom_site_type_symbol
_atom_site_label
_atom_site_fract_x
_atom_site_fract_y
_atom_site_fract_z
Si Si1 0.172567 0.869711 0.406231
Si Si2 0.837167 0.499628 0.439681
Si Si3 0.819462 0.422823 0.694889
Si Si4 0.820268 0.184041 0.005235
Si Si5 0.178003 0.556518 0.695107
Si Si6 0.174677 0.603928 0.901283
O O1 0.173301 0.935643 0.423104
O O2 0.231007 0.877634 0.348333
O O3 0.256979 0.836298 0.450715
O O4 0.000000 0.849894 0.404714
O O5 0.840907 0.500000 0.500000
O O6 0.704400 0.459203 0.423005
O O7 0.000000 0.477036 0.420744
O O8 0.750000 0.411235 0.750000
O O9 0.783825 0.489636 0.682246
O O10 0.000000 0.419879 0.696796
O O11 0.781730 0.250000 0.013450
O O12 0.000000 0.178511 0.003222
O O13 0.769456 0.146130 0.053824
O O14 0.250000 0.567829 0.750000
O O15 0.240137 0.599489 0.652411
O O16 0.000000 0.560181 0.698773
O O17 0.000000 0.615007 0.892827
#
# Coordination Sequence:
#
# PCOD9534566 Si02
#       6
#    16  16  16  16  16  16
#     4  10  19  33  53  77 105 137 173 212 259 312
#     4  10  18  30  48  73 107 140 166 205 263 317
#     4   9  18  31  48  74 108 141 169 202 248 304
#     4  10  23  40  54  73 103 138 177 223 270 310
#     4  10  19  33  51  76 111 145 173 208 254 309
#     4  11  21  32  51  77 105 139 176 213 258 316
#
# _framework density 17.410923
#
# number of rings (size 3 to 8) (size 9 to 14) (size 15 to 20)
#    0.000    2.000    3.333    1.000    0.000    3.333 
#    0.000    0.000    0.000    1.000    0.000    0.000 
#    0.000    0.000    0.000    0.000    0.000    0.000 
#
# Total GULP energy -267357.098177 kJ/mol
# GULP energy per Si atom -5569.939545 kJ/mol
# Density = 1.737130 g / cm^3
# Si number density = 17.410923 Si / 1000 Ang^3
#
#
#
# Elastic Constant Matrix: (Units=GPa)
#
#
# Indices 1 2 3 4 5 6 
#
# 1 37.3783 21.2194 41.8384 0.0000 0.0000 0.0000
# 2 21.2194 45.0101 33.0788 0.0000 0.0000 0.0000
# 3 41.8384 33.0788 133.2207 0.0000 0.0000 0.0000
# 4 0.0000 0.0000 0.0000 9.5494 0.0000 0.0000
# 5 0.0000 0.0000 0.0000 0.0000 29.6388 0.0000
# 6 0.0000 0.0000 0.0000 0.0000 0.0000 24.8661
#
#
#
# Elastic Compliance Matrix: (Units=1/GPa)
#
#
# Indices 1 2 3 4 5 6 
#
# 1 0.047504 -0.013983 -0.011447 0.000000 0.000000 0.000000
# 2 -0.013983 0.031292 -0.003379 0.000000 0.000000 0.000000
# 3 -0.011447 -0.003379 0.011940 0.000000 0.000000 0.000000
# 4 0.000000 0.000000 0.000000 0.104719 0.000000 0.000000
# 5 0.000000 0.000000 0.000000 0.000000 0.033740 0.000000
# 6 0.000000 0.000000 0.000000 0.000000 0.000000 0.040215
#
#
# Mechanical properties :
#
#
# Convention : Reuss Voigt Hill
#
# Bulk Modulus (GPa) = 30.19302 45.32026 37.75664
# Shear Modulus (GPa) = 14.79001 20.77570 17.78285
#
# Velocity S-wave (km/s) = 2.91772 3.45810 3.19934
# Velocity P-wave (km/s) = 5.36003 6.48313 5.94814
#
# Compressibility (1/GPa) = 0.03312024
#
# Stress axis : x y z
#
# Youngs Moduli (GPa) = 21.05083 31.95694 83.75075
#
# Poissons Ratio (x) = 0.44684 0.95869
# Poissons Ratio (y) = 0.29434 0.28296
# Poissons Ratio (z) = 0.24097 0.10797
#
# Static dielectric constant tensor:
#      x y z
#    x 1.618170 0.000000 0.000000 
#    y 0.000000 1.571550 0.000000 
#    z 0.000000 0.000000 1.678240 
# 
# From -- ./inp_files/64656.got.cif
#   From: 2010.05.17/outbox.cif.g08.bks.cpg/sg74_33_cif.got.tgz:64656.got - 2010.06.03 17:57:02.
