data_PCOD9534696
_publ_section_title
;
Structure prediction by ZEFSAII (Michael W. Deem and Ramdas Pophale) SiO2 
 PCOD9534696
Probable space group: I M M A
;
_chemical_formula_sum "Si O2"
_cell_formula_units_Z 80
_cell_length_a 8.833712
_cell_length_b 24.356308
_cell_length_c 26.182393
_cell_angle_alpha 90.000000
_cell_angle_beta 90.000000
_cell_angle_gamma 90.000000
_cell_volume 5633.314926
_symmetry_space_group_name_H-M "I M M A"
_symmetry_group_IT_number 74
_symmetry_cell_setting 'orthorhombic'
loop_
_space_group_symop_operation_xyz
x,y,z
-x,1/2-y,z
x,-y,-z
-x,1/2+y,-z
-x,-y,-z
x,1/2+y,-z
-x,y,z
x,1/2-y,z
1/2+x,1/2+y,1/2+z
1/2-x,-y,1/2+z
1/2+x,1/2-y,1/2-z
1/2-x,y,1/2-z
1/2-x,1/2-y,1/2-z
1/2+x,y,1/2-z
1/2-x,1/2+y,1/2+z
1/2+x,-y,1/2+z
loop_
_atom_site_type_symbol
_atom_site_label
_atom_site_fract_x
_atom_site_fract_y
_atom_site_fract_z
Si Si1 0.182793 0.750000 0.850957
Si Si2 0.318864 0.869516 0.500458
Si Si3 0.815948 0.750000 0.970947
Si Si4 0.820870 0.066846 0.107106
Si Si5 0.180604 0.138364 0.305254
Si Si6 0.825744 0.032298 0.554278
O O1 0.224851 0.750000 0.911012
O O2 0.248967 0.804175 0.824734
O O3 0.000000 0.750000 0.847247
O O4 0.500000 0.871106 0.492656
O O5 0.266037 0.806593 0.503010
O O6 0.291341 0.896005 0.556544
O O7 0.240881 0.908189 0.458788
O O8 0.000000 0.750000 0.971951
O O9 0.729970 0.092650 0.153791
O O10 0.000000 0.069337 0.117244
O O11 0.769557 0.005485 0.092581
O O12 0.250000 0.126007 0.250000
O O13 0.000000 0.142803 0.302377
O O14 0.000000 0.035261 0.570429
O O15 0.820348 0.000000 0.500000
#
# Coordination Sequence:
#
# PCOD9534696 Si02
#       6
#     8  16   8  16  16  16
#     4  11  20  36  51  63  84 116 154 193 231 269
#     4   9  16  28  45  64  85 114 147 179 219 267
#     4   9  16  28  46  65  87 116 149 185 222 263
#     4  10  18  31  49  65  83 111 146 185 226 269
#     4  12  24  36  48  65  86 114 150 192 234 272
#     4   9  17  28  42  63  88 111 139 179 220 264
#
# _framework density 14.201229
#
# number of rings (size 3 to 8) (size 9 to 14) (size 15 to 20)
#    0.000    2.000    2.000    3.600    0.000    3.200 
#    0.000    0.500    0.000    0.000    0.000    0.000 
#    0.000    0.000    0.000    0.900    0.000   11.400 
#
# Total GULP energy -223136.494677 kJ/mol
# GULP energy per Si atom -5578.412367 kJ/mol
# Density = 1.416891 g / cm^3
# Si number density = 14.201229 Si / 1000 Ang^3
#
#
#
# Elastic Constant Matrix: (Units=GPa)
#
#
# Indices 1 2 3 4 5 6 
#
# 1 70.2334 40.9485 30.8853 0.0000 0.0000 0.0000
# 2 40.9485 103.0639 39.5797 0.0000 0.0000 0.0000
# 3 30.8853 39.5797 44.4457 0.0000 0.0000 0.0000
# 4 0.0000 0.0000 0.0000 6.7795 0.0000 0.0000
# 5 0.0000 0.0000 0.0000 0.0000 20.0120 0.0000
# 6 0.0000 0.0000 0.0000 0.0000 0.0000 23.5292
#
#
#
# Elastic Compliance Matrix: (Units=1/GPa)
#
#
# Indices 1 2 3 4 5 6 
#
# 1 0.021689 -0.004300 -0.011243 0.000000 0.000000 0.000000
# 2 -0.004300 0.015598 -0.010902 0.000000 0.000000 0.000000
# 3 -0.011243 -0.010902 0.040021 0.000000 0.000000 0.000000
# 4 0.000000 0.000000 0.000000 0.147504 0.000000 0.000000
# 5 0.000000 0.000000 0.000000 0.000000 0.049970 0.000000
# 6 0.000000 0.000000 0.000000 0.000000 0.000000 0.042500
#
#
# Mechanical properties :
#
#
# Convention : Reuss Voigt Hill
#
# Bulk Modulus (GPa) = 40.95330 48.95220 44.95275
# Shear Modulus (GPa) = 13.21662 17.15277 15.18469
#
# Velocity S-wave (km/s) = 3.05399 3.47916 3.27349
# Velocity P-wave (km/s) = 6.42933 7.11932 6.78310
#
# Compressibility (1/GPa) = 0.02441806
#
# Stress axis : x y z
#
# Youngs Moduli (GPa) = 46.10592 64.11125 24.98711
#
# Poissons Ratio (x) = 0.27567 0.28092
# Poissons Ratio (y) = 0.19825 0.27242
# Poissons Ratio (z) = 0.51836 0.69896
#
# Static dielectric constant tensor:
#      x y z
#    x 1.474400 0.000000 0.000000 
#    y 0.000000 1.472500 0.000000 
#    z 0.000000 0.000000 1.440710 
# 
# From -- ./inp_files/48622.got.cif
#   From: 2010.05.17/outbox.cif.g08.bks.cpg/sg74_25_cif.got.tgz:48622.got - 2010.06.03 17:57:02.
