data_PCOD9534636
_publ_section_title
;
Structure prediction by ZEFSAII (Michael W. Deem and Ramdas Pophale) SiO2 
 PCOD9534636
Probable space group: I M M A
;
_chemical_formula_sum "Si O2"
_cell_formula_units_Z 128
_cell_length_a 16.759499
_cell_length_b 18.247374
_cell_length_c 23.789660
_cell_angle_alpha 90.000000
_cell_angle_beta 90.000000
_cell_angle_gamma 90.000000
_cell_volume 7275.278796
_symmetry_space_group_name_H-M "I M M A"
_symmetry_group_IT_number 74
_symmetry_cell_setting 'orthorhombic'
loop_
_space_group_symop_operation_xyz
x,y,z
-x,1/2-y,z
x,-y,-z
-x,1/2+y,-z
-x,-y,-z
x,1/2+y,-z
-x,y,z
x,1/2-y,z
1/2+x,1/2+y,1/2+z
1/2-x,-y,1/2+z
1/2+x,1/2-y,1/2-z
1/2-x,y,1/2-z
1/2-x,1/2-y,1/2-z
1/2+x,y,1/2-z
1/2-x,1/2+y,1/2+z
1/2+x,-y,1/2+z
loop_
_atom_site_type_symbol
_atom_site_label
_atom_site_fract_x
_atom_site_fract_y
_atom_site_fract_z
Si Si1 0.622785 0.431814 0.537269
Si Si2 0.213875 0.446937 0.309781
Si Si3 0.414061 0.337205 0.438482
Si Si4 0.331354 0.076952 0.655840
Si Si5 0.688411 0.419993 0.984252
Si Si6 0.094228 0.428196 0.722144
Si Si7 0.763434 0.837962 0.594760
Si Si8 0.676175 0.336456 0.872797
O O1 0.593224 0.500000 0.500000
O O2 0.593421 0.361463 0.503324
O O3 0.608663 0.432448 0.603497
O O4 0.719025 0.433463 0.532786
O O5 0.250000 0.423237 0.250000
O O6 0.276834 0.504048 0.337508
O O7 0.136406 0.496310 0.297732
O O8 0.202171 0.379716 0.351505
O O9 0.500000 0.364849 0.416390
O O10 0.414767 0.250000 0.434380
O O11 0.330791 0.360838 0.410270
O O12 0.372890 0.088473 0.715539
O O13 0.267695 0.141026 0.642116
O O14 0.652956 0.379638 0.929995
O O15 0.654408 0.500000 0.000000
O O16 0.693572 0.368589 0.038949
O O17 0.123922 0.366738 0.678558
O O18 0.000000 0.434367 0.722443
O O19 0.768057 0.750000 0.597606
O O20 0.669396 0.250000 0.880660
#
# Coordination Sequence:
#
# PCOD9534636 Si02
#       8
#    16  16  16  16  16  16  16  16
#     4   9  16  27  45  70  97 127 166 205 236 273
#     4   9  18  35  54  73  98 130 169 210 252 302
#     4   9  18  30  42  64 103 140 161 187 235 290
#     4   9  18  32  51  72  99 137 177 209 242 297
#     4   9  16  29  51  76 101 130 168 212 252 296
#     4  10  21  36  53  72  98 134 173 216 266 314
#     4  10  18  30  52  78 101 130 171 212 251 301
#     4  10  19  32  52  77 105 136 172 214 257 305
#
# _framework density 17.593827000000001
#
# number of rings (size 3 to 8) (size 9 to 14) (size 15 to 20)
#    0.000    2.625    0.000    5.250    0.000    5.250 
#    0.000    5.000    0.000    3.750    0.000    0.000 
#    0.000    0.000    0.000    0.000    0.000    0.000 
#
# Total GULP energy -356594.733557 kJ/mol
# GULP energy per Si atom -5571.792712 kJ/mol
# Density = 1.755378 g / cm^3
# Si number density = 17.593827 Si / 1000 Ang^3
#
#
#
# Elastic Constant Matrix: (Units=GPa)
#
#
# Indices 1 2 3 4 5 6 
#
# 1 48.1014 21.2081 24.8012 0.0000 0.0000 0.0000
# 2 21.2081 96.1448 69.4208 0.0000 0.0000 0.0000
# 3 24.8012 69.4208 122.0792 0.0000 0.0000 0.0000
# 4 0.0000 0.0000 0.0000 16.2492 0.0000 0.0000
# 5 0.0000 0.0000 0.0000 0.0000 22.7850 0.0000
# 6 0.0000 0.0000 0.0000 0.0000 0.0000 7.2370
#
#
#
# Elastic Compliance Matrix: (Units=1/GPa)
#
#
# Indices 1 2 3 4 5 6 
#
# 1 0.023712 -0.002973 -0.003127 0.000000 0.000000 0.000000
# 2 -0.002973 0.018019 -0.009643 0.000000 0.000000 0.000000
# 3 -0.003127 -0.009643 0.014310 0.000000 0.000000 0.000000
# 4 0.000000 0.000000 0.000000 0.061541 0.000000 0.000000
# 5 0.000000 0.000000 0.000000 0.000000 0.043889 0.000000
# 6 0.000000 0.000000 0.000000 0.000000 0.000000 0.138178
#
#
# Mechanical properties :
#
#
# Convention : Reuss Voigt Hill
#
# Bulk Modulus (GPa) = 40.72203 55.24286 47.98244
# Shear Modulus (GPa) = 14.73534 19.31394 17.02464
#
# Velocity S-wave (km/s) = 2.89715 3.31685 3.11408
# Velocity P-wave (km/s) = 5.86406 6.79234 6.34520
#
# Compressibility (1/GPa) = 0.02455673
#
# Stress axis : x y z
#
# Youngs Moduli (GPa) = 42.17214 55.49627 69.88128
#
# Poissons Ratio (x) = 0.16499 0.21850
# Poissons Ratio (y) = 0.12538 0.67385
# Poissons Ratio (z) = 0.13186 0.53514
#
# Static dielectric constant tensor:
#      x y z
#    x 1.608480 0.000000 0.000000 
#    y 0.000000 1.605360 0.000000 
#    z 0.000000 0.000000 1.614720 
# 
# From -- ./inp_files/61128.got.cif
#   From: 2010.05.17/outbox.cif.g08.bks.cpg/sg74_31_cif.got.tgz:61128.got - 2010.06.03 17:57:02.
