data_PCOD9534792
_publ_section_title
;
Structure prediction by ZEFSAII (Michael W. Deem and Ramdas Pophale) SiO2 
 PCOD9534792
Probable space group: I M M A
;
_chemical_formula_sum "Si O2"
_cell_formula_units_Z 80
_cell_length_a 19.116936
_cell_length_b 13.506684
_cell_length_c 19.514692
_cell_angle_alpha 90.000000
_cell_angle_beta 90.000000
_cell_angle_gamma 90.000000
_cell_volume 5038.818634
_symmetry_space_group_name_H-M "I M M A"
_symmetry_group_IT_number 74
_symmetry_cell_setting 'orthorhombic'
loop_
_space_group_symop_operation_xyz
x,y,z
-x,1/2-y,z
x,-y,-z
-x,1/2+y,-z
-x,-y,-z
x,1/2+y,-z
-x,y,z
x,1/2-y,z
1/2+x,1/2+y,1/2+z
1/2-x,-y,1/2+z
1/2+x,1/2-y,1/2-z
1/2-x,y,1/2-z
1/2-x,1/2-y,1/2-z
1/2+x,y,1/2-z
1/2-x,1/2+y,1/2+z
1/2+x,-y,1/2+z
loop_
_atom_site_type_symbol
_atom_site_label
_atom_site_fract_x
_atom_site_fract_y
_atom_site_fract_z
Si Si1 0.783573 0.476495 0.425459
Si Si2 0.579032 0.632368 0.897412
Si Si3 0.689650 0.633809 0.192088
Si Si4 0.580366 0.482817 0.245693
Si Si5 0.197288 0.365846 0.185614
O O1 0.754333 0.500000 0.500000
O O2 0.859767 0.426302 0.435055
O O3 0.790639 0.572094 0.376014
O O4 0.737570 0.399801 0.381948
O O5 0.500000 0.613690 0.923083
O O6 0.591437 0.750000 0.898346
O O7 0.581975 0.591864 0.819498
O O8 0.680727 0.750000 0.178452
O O9 0.750000 0.622354 0.250000
O O10 0.619844 0.581947 0.221398
O O11 0.500000 0.498748 0.264942
O O12 0.628663 0.431125 0.302214
O O13 0.180774 0.250000 0.184835
O O14 0.250000 0.383625 0.250000
#
# Coordination Sequence:
#
# PCOD9534792 Si02
#       5
#    16  16  16  16  16
#     4  11  21  33  50  75 107 140 175 212 256 303
#     4   9  17  30  49  75 105 134 165 206 257 308
#     4  10  19  35  54  73 101 137 178 216 251 298
#     4  10  18  31  53  81 106 129 165 215 266 308
#     4  11  19  33  56  80 103 130 170 219 266 308
#
# _framework density 15.876737
#
# number of rings (size 3 to 8) (size 9 to 14) (size 15 to 20)
#    0.000    1.800    6.000    1.200    0.000    3.600 
#    0.000    0.000    0.000    0.600    0.000    0.000 
#    0.000    0.000    0.000    0.000    0.000    0.000 
#
# Total GULP energy -223067.502557 kJ/mol
# GULP energy per Si atom -5576.687564 kJ/mol
# Density = 1.584060 g / cm^3
# Si number density = 15.876737 Si / 1000 Ang^3
#
#
#
# Elastic Constant Matrix: (Units=GPa)
#
#
# Indices 1 2 3 4 5 6 
#
# 1 79.8258 25.2672 19.8194 0.0000 0.0000 0.0000
# 2 25.2672 100.5195 14.4672 0.0000 0.0000 0.0000
# 3 19.8194 14.4672 58.2914 0.0000 0.0000 0.0000
# 4 0.0000 0.0000 0.0000 8.8826 0.0000 0.0000
# 5 0.0000 0.0000 0.0000 0.0000 11.4390 0.0000
# 6 0.0000 0.0000 0.0000 0.0000 0.0000 17.6095
#
#
#
# Elastic Compliance Matrix: (Units=1/GPa)
#
#
# Indices 1 2 3 4 5 6 
#
# 1 0.014532 -0.003051 -0.004184 0.000000 0.000000 0.000000
# 2 -0.003051 0.010957 -0.001682 0.000000 0.000000 0.000000
# 3 -0.004184 -0.001682 0.018995 0.000000 0.000000 0.000000
# 4 0.000000 0.000000 0.000000 0.112579 0.000000 0.000000
# 5 0.000000 0.000000 0.000000 0.000000 0.087420 0.000000
# 6 0.000000 0.000000 0.000000 0.000000 0.000000 0.056788
#
#
# Mechanical properties :
#
#
# Convention : Reuss Voigt Hill
#
# Bulk Modulus (GPa) = 37.52211 39.74936 38.63574
# Shear Modulus (GPa) = 15.24447 19.52509 17.38478
#
# Velocity S-wave (km/s) = 3.10203 3.51064 3.31264
# Velocity P-wave (km/s) = 6.04275 6.44387 6.24653
#
# Compressibility (1/GPa) = 0.02665096
#
# Stress axis : x y z
#
# Youngs Moduli (GPa) = 68.81538 91.26372 52.64498
#
# Poissons Ratio (x) = 0.27841 0.22025
# Poissons Ratio (y) = 0.20993 0.08856
# Poissons Ratio (z) = 0.28790 0.15353
#
# Static dielectric constant tensor:
#      x y z
#    x 1.546350 0.000000 0.000000 
#    y 0.000000 1.529970 0.000000 
#    z 0.000000 0.000000 1.516080 
# 
# From -- ./inp_files/43842.got.cif
#   From: 2010.05.17/outbox.cif.g08.bks.cpg/sg74_22_cif.got.tgz:43842.got - 2010.06.03 17:57:02.
