data_PCOD9534152
_publ_section_title
;
Structure prediction by ZEFSAII (Michael W. Deem and Ramdas Pophale) SiO2 
 PCOD9534152
Probable space group: I M M A
;
_chemical_formula_sum "Si O2"
_cell_formula_units_Z 80
_cell_length_a 24.746389
_cell_length_b 15.585533
_cell_length_c 10.265004
_cell_angle_alpha 90.000000
_cell_angle_beta 90.000000
_cell_angle_gamma 90.000000
_cell_volume 3959.064867
_symmetry_space_group_name_H-M "I M M A"
_symmetry_group_IT_number 74
_symmetry_cell_setting 'orthorhombic'
loop_
_space_group_symop_operation_xyz
x,y,z
-x,1/2-y,z
x,-y,-z
-x,1/2+y,-z
-x,-y,-z
x,1/2+y,-z
-x,y,z
x,1/2-y,z
1/2+x,1/2+y,1/2+z
1/2-x,-y,1/2+z
1/2+x,1/2-y,1/2-z
1/2-x,y,1/2-z
1/2-x,1/2-y,1/2-z
1/2+x,y,1/2-z
1/2-x,1/2+y,1/2+z
1/2+x,-y,1/2+z
loop_
_atom_site_type_symbol
_atom_site_label
_atom_site_fract_x
_atom_site_fract_y
_atom_site_fract_z
Si Si1 0.684812 0.843124 0.745172
Si Si2 0.880953 0.396356 0.002709
Si Si3 0.500000 0.148727 0.803120
Si Si4 0.881828 0.350990 0.697271
Si Si5 0.500000 0.103291 0.498916
Si Si6 0.794670 0.484774 0.639749
O O1 0.665651 0.750000 0.794190
O O2 0.750000 0.841600 0.750000
O O3 0.662852 0.856908 0.599356
O O4 0.671296 0.930118 0.821929
O O5 0.941253 0.371889 0.055396
O O6 0.876474 0.500000 0.000000
O O7 0.876823 0.364883 0.853975
O O8 0.500000 0.250000 0.830531
O O9 0.441346 0.115662 0.845699
O O10 0.500000 0.136420 0.646998
O O11 0.877924 0.250000 0.670904
O O12 0.834421 0.404883 0.633758
O O13 0.500000 0.000000 0.500000
O O14 0.768059 0.500000 0.500000
O O15 0.750000 0.470631 0.750000
#
# Coordination Sequence:
#
# PCOD9534152 Si02
#       6
#    16  16   8  16   8  16
#     4  10  22  37  56  80 117 162 202 244 305 361
#     4  10  17  33  58  91 125 161 200 251 302 361
#     4   8  16  32  55  88 122 158 194 243 302 354
#     4  10  20  36  63  93 125 159 204 251 298 361
#     4   8  16  26  50  86 123 156 196 243 301 354
#     4  11  26  43  63  88 121 163 205 255 306 362
#
# _framework density 20.206792
#
# number of rings (size 3 to 8) (size 9 to 14) (size 15 to 20)
#    0.000    2.200    2.000    0.600    5.600    2.000 
#    0.000    0.500    0.000    0.000    0.000    0.000 
#    0.000    0.000    0.000    0.000    0.000    0.000 
#
# Total GULP energy -222993.454427 kJ/mol
# GULP energy per Si atom -5574.836361 kJ/mol
# Density = 2.016080 g / cm^3
# Si number density = 20.206792 Si / 1000 Ang^3
#
#
#
# Elastic Constant Matrix: (Units=GPa)
#
#
# Indices 1 2 3 4 5 6 
#
# 1 127.0731 26.6999 40.4767 0.0000 0.0000 0.0000
# 2 26.6999 88.6657 -3.2784 0.0000 0.0000 0.0000
# 3 40.4767 -3.2784 60.8027 0.0000 0.0000 0.0000
# 4 0.0000 0.0000 0.0000 13.0309 0.0000 0.0000
# 5 0.0000 0.0000 0.0000 0.0000 21.7825 0.0000
# 6 0.0000 0.0000 0.0000 0.0000 0.0000 -20.2581
#
#
#
# Elastic Compliance Matrix: (Units=1/GPa)
#
#
# Indices 1 2 3 4 5 6 
#
# 1 0.011025 -0.003599 -0.007534 0.000000 0.000000 0.000000
# 2 -0.003599 0.012475 0.003068 0.000000 0.000000 0.000000
# 3 -0.007534 0.003068 0.021627 0.000000 0.000000 0.000000
# 4 0.000000 0.000000 0.000000 0.076741 0.000000 0.000000
# 5 0.000000 0.000000 0.000000 0.000000 0.045908 0.000000
# 6 0.000000 0.000000 0.000000 0.000000 0.000000 -0.049363
#
#
# Mechanical properties :
#
#
# Convention : Reuss Voigt Hill
#
# Bulk Modulus (GPa) = 34.48273 44.92645 39.70459
# Shear Modulus (GPa) = 34.67199 17.08729 25.87964
#
# Velocity S-wave (km/s) = 4.14679 2.91111 3.58262
# Velocity P-wave (km/s) = 6.32691 5.79491 6.06674
#
# Compressibility (1/GPa) = 0.02900003
#
# Stress axis : x y z
#
# Youngs Moduli (GPa) = 90.70043 80.15765 46.23790
#
# Poissons Ratio (x) = 0.28846 0.34834
# Poissons Ratio (y) = 0.32639 -0.14187
# Poissons Ratio (z) = 0.68331 -0.24594
#
# Static dielectric constant tensor:
#      x y z
#    x 1.761990 0.000000 0.000000 
#    y 0.000000 1.746080 0.000000 
#    z 0.000000 0.000000 1.711660 
# 
# From -- ./inp_files/23612.got.cif
#   From: 2010.05.17/outbox.cif.g08.bks.cpg/sg74_12_cif.got.tgz:23612.got - 2010.06.03 17:57:02.
