data_PCOD9534381
_publ_section_title
;
Structure prediction by ZEFSAII (Michael W. Deem and Ramdas Pophale) SiO2 
 PCOD9534381
Probable space group: I M M A
;
_chemical_formula_sum "Si O2"
_cell_formula_units_Z 96
_cell_length_a 8.811993
_cell_length_b 26.904364
_cell_length_c 29.201468
_cell_angle_alpha 90.000000
_cell_angle_beta 90.000000
_cell_angle_gamma 90.000000
_cell_volume 6923.115198
_symmetry_space_group_name_H-M "I M M A"
_symmetry_group_IT_number 74
_symmetry_cell_setting 'orthorhombic'
loop_
_space_group_symop_operation_xyz
x,y,z
-x,1/2-y,z
x,-y,-z
-x,1/2+y,-z
-x,-y,-z
x,1/2+y,-z
-x,y,z
x,1/2-y,z
1/2+x,1/2+y,1/2+z
1/2-x,-y,1/2+z
1/2+x,1/2-y,1/2-z
1/2-x,y,1/2-z
1/2-x,1/2-y,1/2-z
1/2+x,y,1/2-z
1/2-x,1/2+y,1/2+z
1/2+x,-y,1/2+z
loop_
_atom_site_type_symbol
_atom_site_label
_atom_site_fract_x
_atom_site_fract_y
_atom_site_fract_z
Si Si1 0.819581 0.393714 0.051323
Si Si2 0.319923 0.506258 0.610745
Si Si3 0.679843 0.192992 0.110546
Si Si4 0.818329 0.151443 0.202023
Si Si5 0.324552 0.050695 0.969779
Si Si6 0.681296 0.040468 0.202211
O O1 0.791067 0.441175 0.084639
O O2 0.741540 0.346140 0.073760
O O3 0.000000 0.386843 0.049016
O O4 0.754287 0.408517 0.001822
O O5 0.500000 0.502348 0.617990
O O6 0.261437 0.463476 0.576728
O O7 0.232676 0.508768 0.658599
O O8 0.500000 0.185193 0.117172
O O9 0.705100 0.250000 0.096655
O O10 0.763502 0.182370 0.158494
O O11 0.750000 0.170475 0.250000
O O12 0.752823 0.095585 0.196057
O O13 0.000000 0.149452 0.204347
O O14 0.500000 0.062897 0.961151
O O15 0.320779 0.000000 0.000000
O O16 0.500000 0.044493 0.205006
O O17 0.750000 0.021278 0.250000
#
# Coordination Sequence:
#
# PCOD9534381 Si02
#       6
#    16  16  16  16  16  16
#     4  10  19  31  47  64  85 109 136 174 215 257
#     4  10  18  29  45  66  88 110 139 173 210 253
#     4  11  23  36  49  64  82 107 140 179 222 266
#     4  11  21  34  49  63  79 104 137 178 223 266
#     4   9  17  28  44  65  87 110 136 167 207 252
#     4  11  20  30  45  63  86 113 143 176 214 257
#
# _framework density 13.86659
#
# number of rings (size 3 to 8) (size 9 to 14) (size 15 to 20)
#    0.000    1.667    1.667    6.000    0.000    5.000 
#    0.000    0.000    0.000    0.000    0.000    0.000 
#    0.000    0.000    0.000    0.000    0.000    0.833 
#
# Total GULP energy -267947.984119 kJ/mol
# GULP energy per Si atom -5582.249669 kJ/mol
# Density = 1.383503 g / cm^3
# Si number density = 13.866590 Si / 1000 Ang^3
#
#
#
# Elastic Constant Matrix: (Units=GPa)
#
#
# Indices 1 2 3 4 5 6 
#
# 1 117.1439 43.9289 66.0708 0.0000 0.0000 0.0000
# 2 43.9289 50.1272 47.9574 0.0000 0.0000 0.0000
# 3 66.0708 47.9574 89.2750 0.0000 0.0000 0.0000
# 4 0.0000 0.0000 0.0000 16.8611 0.0000 0.0000
# 5 0.0000 0.0000 0.0000 0.0000 27.1461 0.0000
# 6 0.0000 0.0000 0.0000 0.0000 0.0000 16.1935
#
#
#
# Elastic Compliance Matrix: (Units=1/GPa)
#
#
# Indices 1 2 3 4 5 6 
#
# 1 0.015308 -0.005300 -0.008482 0.000000 0.000000 0.000000
# 2 -0.005300 0.042878 -0.019111 0.000000 0.000000 0.000000
# 3 -0.008482 -0.019111 0.027745 0.000000 0.000000 0.000000
# 4 0.000000 0.000000 0.000000 0.059308 0.000000 0.000000
# 5 0.000000 0.000000 0.000000 0.000000 0.036838 0.000000
# 6 0.000000 0.000000 0.000000 0.000000 0.000000 0.061753
#
#
# Mechanical properties :
#
#
# Convention : Reuss Voigt Hill
#
# Bulk Modulus (GPa) = 49.64133 63.60670 56.62402
# Shear Modulus (GPa) = 15.80628 18.61275 17.20951
#
# Velocity S-wave (km/s) = 3.37988 3.66768 3.52671
# Velocity P-wave (km/s) = 7.14901 7.99412 7.58335
#
# Compressibility (1/GPa) = 0.02014450
#
# Stress axis : x y z
#
# Youngs Moduli (GPa) = 65.32495 23.32212 36.04303
#
# Poissons Ratio (x) = 0.12362 0.30571
# Poissons Ratio (y) = 0.34625 0.68880
# Poissons Ratio (z) = 0.55408 0.44570
#
# Static dielectric constant tensor:
#      x y z
#    x 1.461570 0.000000 0.000000 
#    y 0.000000 1.430380 0.000000 
#    z 0.000000 0.000000 1.460050 
# 
# From -- ./inp_files/57483.got.cif
#   From: 2010.05.17/outbox.cif.g08.bks.cpg/sg74_29_cif.got.tgz:57483.got - 2010.06.03 17:57:02.
