data_PCOD9534668
_publ_section_title
;
Structure prediction by ZEFSAII (Michael W. Deem and Ramdas Pophale) SiO2 
 PCOD9534668
Probable space group: I M M A
;
_chemical_formula_sum "Si O2"
_cell_formula_units_Z 72
_cell_length_a 10.027753
_cell_length_b 15.104839
_cell_length_c 22.771521
_cell_angle_alpha 90.000000
_cell_angle_beta 90.000000
_cell_angle_gamma 90.000000
_cell_volume 3449.147511
_symmetry_space_group_name_H-M "I M M A"
_symmetry_group_IT_number 74
_symmetry_cell_setting 'orthorhombic'
loop_
_space_group_symop_operation_xyz
x,y,z
-x,1/2-y,z
x,-y,-z
-x,1/2+y,-z
-x,-y,-z
x,1/2+y,-z
-x,y,z
x,1/2-y,z
1/2+x,1/2+y,1/2+z
1/2-x,-y,1/2+z
1/2+x,1/2-y,1/2-z
1/2-x,y,1/2-z
1/2-x,1/2-y,1/2-z
1/2+x,y,1/2-z
1/2-x,1/2+y,1/2+z
1/2+x,-y,1/2+z
loop_
_atom_site_type_symbol
_atom_site_label
_atom_site_fract_x
_atom_site_fract_y
_atom_site_fract_z
Si Si1 0.500000 0.536021 0.697494
Si Si2 0.000000 0.344227 0.799042
Si Si3 0.843463 0.647849 0.978996
Si Si4 0.000000 0.354395 0.311032
Si Si5 0.727583 0.540623 0.876320
Si Si6 0.747169 0.153575 0.886793
O O1 0.500000 0.440258 0.730817
O O2 0.500000 0.613856 0.744004
O O3 0.630813 0.539992 0.657342
O O4 0.870302 0.344009 0.840978
O O5 0.000000 0.250000 0.765584
O O6 0.823679 0.750000 0.958723
O O7 0.757328 0.580749 0.940420
O O8 0.000000 0.626420 0.972760
O O9 0.806701 0.646212 0.047539
O O10 0.872142 0.396301 0.342332
O O11 0.000000 0.250000 0.315961
O O12 0.675196 0.439624 0.876864
O O13 0.678705 0.250000 0.882199
#
# Coordination Sequence:
#
# PCOD9534668 Si02
#       6
#     8   8  16   8  16  16
#     4  10  22  39  64  88 106 146 205 249 284 333
#     4   8  14  29  55  89 123 143 171 232 298 336
#     4  10  18  30  55  92 124 151 191 237 280 332
#     4  12  28  46  58  77 115 155 190 243 304 343
#     4  11  22  39  61  86 117 154 195 238 287 345
#     4   9  17  31  55  90 125 151 180 230 288 339
#
# _framework density 20.874722999999999
#
# number of rings (size 3 to 8) (size 9 to 14) (size 15 to 20)
#    0.000    2.000    2.222    2.000    0.000    3.556 
#    0.000    3.889    0.000    8.000    0.000    0.000 
#    0.000    0.000    0.000    0.000    0.000    0.000 
#
# Total GULP energy -200958.960390 kJ/mol
# GULP energy per Si atom -5582.193344 kJ/mol
# Density = 2.082721 g / cm^3
# Si number density = 20.874723 Si / 1000 Ang^3
#
#
#
# Elastic Constant Matrix: (Units=GPa)
#
#
# Indices 1 2 3 4 5 6 
#
# 1 52.9984 36.3517 6.0011 0.0000 0.0000 0.0000
# 2 36.3517 194.7923 25.7427 0.0000 0.0000 0.0000
# 3 6.0011 25.7427 27.7925 0.0000 0.0000 0.0000
# 4 0.0000 0.0000 0.0000 29.4746 0.0000 0.0000
# 5 0.0000 0.0000 0.0000 0.0000 -51.5068 0.0000
# 6 0.0000 0.0000 0.0000 0.0000 0.0000 35.7355
#
#
#
# Elastic Compliance Matrix: (Units=1/GPa)
#
#
# Indices 1 2 3 4 5 6 
#
# 1 0.021666 -0.003903 -0.001063 0.000000 0.000000 0.000000
# 2 -0.003903 0.006553 -0.005227 0.000000 0.000000 0.000000
# 3 -0.001063 -0.005227 0.041052 0.000000 0.000000 0.000000
# 4 0.000000 0.000000 0.000000 0.033928 0.000000 0.000000
# 5 0.000000 0.000000 0.000000 0.000000 -0.019415 0.000000
# 6 0.000000 0.000000 0.000000 0.000000 0.000000 0.027983
#
#
# Mechanical properties :
#
#
# Convention : Reuss Voigt Hill
#
# Bulk Modulus (GPa) = 20.45631 45.75269 33.10450
# Shear Modulus (GPa) = 33.68214 16.57317 25.12766
#
# Velocity S-wave (km/s) = 4.02124 2.82074 3.47325
# Velocity P-wave (km/s) = 5.60191 5.70737 5.65489
#
# Compressibility (1/GPa) = 0.04888467
#
# Stress axis : x y z
#
# Youngs Moduli (GPa) = 46.15572 152.60836 24.35953
#
# Poissons Ratio (x) = 0.59558 0.02590
# Poissons Ratio (y) = 0.18013 0.12732
# Poissons Ratio (z) = 0.04908 0.79764
#
# Static dielectric constant tensor:
#      x y z
#    x 1.709540 0.000000 0.000000 
#    y 0.000000 1.805390 0.000000 
#    z 0.000000 0.000000 1.722240 
# 
# From -- ./inp_files/63703.got.cif
#   From: 2010.05.17/outbox.cif.g08.bks.cpg/sg74_32_cif.got.tgz:63703.got - 2010.06.03 17:57:02.
