data_PCOD9534800
_publ_section_title
;
Structure prediction by ZEFSAII (Michael W. Deem and Ramdas Pophale) SiO2 
 PCOD9534800
Probable space group: I M M A
;
_chemical_formula_sum "Si O2"
_cell_formula_units_Z 112
_cell_length_a 24.801841
_cell_length_b 7.612277
_cell_length_c 26.541570
_cell_angle_alpha 90.000000
_cell_angle_beta 90.000000
_cell_angle_gamma 90.000000
_cell_volume 5011.008174
_symmetry_space_group_name_H-M "I M M A"
_symmetry_group_IT_number 74
_symmetry_cell_setting 'orthorhombic'
loop_
_space_group_symop_operation_xyz
x,y,z
-x,1/2-y,z
x,-y,-z
-x,1/2+y,-z
-x,-y,-z
x,1/2+y,-z
-x,y,z
x,1/2-y,z
1/2+x,1/2+y,1/2+z
1/2-x,-y,1/2+z
1/2+x,1/2-y,1/2-z
1/2-x,y,1/2-z
1/2-x,1/2-y,1/2-z
1/2+x,y,1/2-z
1/2-x,1/2+y,1/2+z
1/2+x,-y,1/2+z
loop_
_atom_site_type_symbol
_atom_site_label
_atom_site_fract_x
_atom_site_fract_y
_atom_site_fract_z
Si Si1 0.165043 0.550355 0.745637
Si Si2 0.441809 0.459205 0.928733
Si Si3 0.558897 0.540913 0.191392
Si Si4 0.674945 0.445220 0.053798
Si Si5 0.350822 0.962699 0.642201
Si Si6 0.227639 0.963072 0.650871
Si Si7 0.437862 0.461281 0.441351
O O1 0.183237 0.750000 0.757411
O O2 0.109765 0.552981 0.714577
O O3 0.147682 0.471760 0.799634
O O4 0.208493 0.471270 0.706034
O O5 0.500000 0.524981 0.946095
O O6 0.438130 0.250000 0.938332
O O7 0.440738 0.483433 0.868541
O O8 0.389373 0.449361 0.050445
O O9 0.500000 0.483234 0.210485
O O10 0.563902 0.750000 0.200763
O O11 0.695148 0.250000 0.060550
O O12 0.690141 0.536328 0.106166
O O13 0.697268 0.500000 0.000000
O O14 0.357636 0.750000 0.643001
O O15 0.287914 0.999844 0.631701
O O16 0.394442 0.025887 0.600677
O O17 0.222150 0.750000 0.656364
O O18 0.423397 0.500000 0.500000
O O19 0.500000 0.524593 0.433137
O O20 0.439171 0.250000 0.437120
#
# Coordination Sequence:
#
# PCOD9534800 Si02
#       7
#    16  16  16  16  16  16  16
#     4  10  18  31  54  81 105 135 177 222 262 308
#     4   9  18  34  54  73  96 131 173 214 260 310
#     4   9  18  32  50  73 105 143 174 206 259 317
#     4  11  22  35  52  75 102 133 175 221 265 312
#     4   9  18  32  54  81 109 138 172 215 259 309
#     4   9  18  33  51  75 105 138 175 215 262 312
#     4   9  18  34  56  81 108 139 173 211 260 314
#
# _framework density 22.350791999999998
#
# number of rings (size 3 to 8) (size 9 to 14) (size 15 to 20)
#    0.000    2.571    1.429    1.714    0.000    3.714 
#    0.000    3.571    0.000    6.857    0.000    0.000 
#    0.000    0.000    0.000    0.000    0.000    0.000 
#
# Total GULP energy -312037.861283 kJ/mol
# GULP energy per Si atom -5572.104666 kJ/mol
# Density = 2.229992 g / cm^3
# Si number density = 22.350792 Si / 1000 Ang^3
#
#
#
# Elastic Constant Matrix: (Units=GPa)
#
#
# Indices 1 2 3 4 5 6 
#
# 1 119.4744 2.8574 87.3769 0.0000 0.0000 0.0000
# 2 2.8574 35.8323 14.2055 0.0000 0.0000 0.0000
# 3 87.3769 14.2055 179.7105 0.0000 0.0000 0.0000
# 4 0.0000 0.0000 0.0000 14.6069 0.0000 0.0000
# 5 0.0000 0.0000 0.0000 0.0000 36.5338 0.0000
# 6 0.0000 0.0000 0.0000 0.0000 0.0000 -149.5973
#
#
#
# Elastic Compliance Matrix: (Units=1/GPa)
#
#
# Indices 1 2 3 4 5 6 
#
# 1 0.013069 0.001525 -0.006475 0.000000 0.000000 0.000000
# 2 0.001525 0.028989 -0.003033 0.000000 0.000000 0.000000
# 3 -0.006475 -0.003033 0.008952 0.000000 0.000000 0.000000
# 4 0.000000 0.000000 0.000000 0.068461 0.000000 0.000000
# 5 0.000000 0.000000 0.000000 0.000000 0.027372 0.000000
# 6 0.000000 0.000000 0.000000 0.000000 0.000000 -0.006685
#
#
# Mechanical properties :
#
#
# Convention : Reuss Voigt Hill
#
# Bulk Modulus (GPa) = 28.53552 60.43298 44.48425
# Shear Modulus (GPa) = 29.79655 -4.31951 12.73852
#
# Velocity S-wave (km/s) = 3.65517 -1.39169 2.38992
# Velocity P-wave (km/s) = 5.53250 4.95123 5.24992
#
# Compressibility (1/GPa) = 0.03504404
#
# Stress axis : x y z
#
# Youngs Moduli (GPa) = 76.51851 34.49644 111.70347
#
# Poissons Ratio (x) = -0.05260 0.72324
# Poissons Ratio (y) = -0.11667 0.33877
# Poissons Ratio (z) = 0.49543 0.10462
#
# Static dielectric constant tensor:
#      x y z
#    x 1.835430 0.000000 0.000000 
#    y 0.000000 1.896590 0.000000 
#    z 0.000000 0.000000 1.895750 
# 
# From -- ./inp_files/61628.got.cif
#   From: 2010.05.17/outbox.cif.g08.bks.cpg/sg74_31_cif.got.tgz:61628.got - 2010.06.03 17:57:02.
