data_PCOD9534010
_publ_section_title
;
Structure prediction by ZEFSAII (Michael W. Deem and Ramdas Pophale) SiO2 
 PCOD9534010
Probable space group: I M M A
;
_chemical_formula_sum "Si O2"
_cell_formula_units_Z 80
_cell_length_a 17.607512
_cell_length_b 8.625314
_cell_length_c 26.678248
_cell_angle_alpha 90.000000
_cell_angle_beta 90.000000
_cell_angle_gamma 90.000000
_cell_volume 4051.634054
_symmetry_space_group_name_H-M "I M M A"
_symmetry_group_IT_number 74
_symmetry_cell_setting 'orthorhombic'
loop_
_space_group_symop_operation_xyz
x,y,z
-x,1/2-y,z
x,-y,-z
-x,1/2+y,-z
-x,-y,-z
x,1/2+y,-z
-x,y,z
x,1/2-y,z
1/2+x,1/2+y,1/2+z
1/2-x,-y,1/2+z
1/2+x,1/2-y,1/2-z
1/2-x,y,1/2-z
1/2-x,1/2-y,1/2-z
1/2+x,y,1/2-z
1/2-x,1/2+y,1/2+z
1/2+x,-y,1/2+z
loop_
_atom_site_type_symbol
_atom_site_label
_atom_site_fract_x
_atom_site_fract_y
_atom_site_fract_z
Si Si1 0.628506 0.434741 0.345045
Si Si2 0.873423 0.065464 0.948697
Si Si3 0.700355 0.564781 0.948292
Si Si4 0.701477 0.433689 0.844840
Si Si5 0.414975 0.435763 0.233435
O O1 0.624977 0.250000 0.352247
O O2 0.594940 0.513507 0.394912
O O3 0.716370 0.486214 0.339137
O O4 0.590320 0.474554 0.292305
O O5 0.870188 0.250000 0.951670
O O6 0.787637 0.996142 0.947638
O O7 0.908832 0.000000 0.000000
O O8 0.700246 0.750000 0.948310
O O9 0.666693 0.498582 0.896844
O O10 0.666296 0.500000 0.000000
O O11 0.712459 0.250000 0.848813
O O12 0.647889 0.477381 0.798796
O O13 0.500000 0.470233 0.215327
O O14 0.402052 0.250000 0.229224
#
# Coordination Sequence:
#
# PCOD9534010 Si02
#       5
#    16  16  16  16  16
#     4  10  19  33  54  78 104 135 172 213 257 305
#     4  10  17  27  45  72 105 135 166 206 253 303
#     4  10  17  28  47  73 105 136 168 207 253 302
#     4  11  21  33  52  79 108 137 172 212 254 303
#     4  10  22  39  56  74 100 136 175 215 261 310
#
# _framework density 19.745118999999999
#
# number of rings (size 3 to 8) (size 9 to 14) (size 15 to 20)
#    0.000    1.800    0.000   10.200    0.000    4.400 
#    0.000    0.000    0.000    1.200    0.000    0.000 
#    0.000    0.000    0.000    0.000    0.000    0.000 
#
# Total GULP energy -223356.559346 kJ/mol
# GULP energy per Si atom -5583.913984 kJ/mol
# Density = 1.970018 g / cm^3
# Si number density = 19.745119 Si / 1000 Ang^3
#
#
#
# Elastic Constant Matrix: (Units=GPa)
#
#
# Indices 1 2 3 4 5 6 
#
# 1 37.1725 1.7176 23.3207 0.0000 0.0000 0.0000
# 2 1.7176 82.0196 40.2945 0.0000 0.0000 0.0000
# 3 23.3207 40.2945 125.8193 0.0000 0.0000 0.0000
# 4 0.0000 0.0000 0.0000 40.3936 0.0000 0.0000
# 5 0.0000 0.0000 0.0000 0.0000 -19.4577 0.0000
# 6 0.0000 0.0000 0.0000 0.0000 0.0000 -8.9230
#
#
#
# Elastic Compliance Matrix: (Units=1/GPa)
#
#
# Indices 1 2 3 4 5 6 
#
# 1 0.030891 0.002570 -0.006549 0.000000 0.000000 0.000000
# 2 0.002570 0.014683 -0.005179 0.000000 0.000000 0.000000
# 3 -0.006549 -0.005179 0.010820 0.000000 0.000000 0.000000
# 4 0.000000 0.000000 0.000000 0.024756 0.000000 0.000000
# 5 0.000000 0.000000 0.000000 0.000000 -0.051393 0.000000
# 6 0.000000 0.000000 0.000000 0.000000 0.000000 -0.112070
#
#
# Mechanical properties :
#
#
# Convention : Reuss Voigt Hill
#
# Bulk Modulus (GPa) = 26.26053 41.74190 34.00122
# Shear Modulus (GPa) = -97.45633 14.38115 -41.53759
#
# Velocity S-wave (km/s) = -7.03309 2.70170 -4.59157
# Velocity P-wave (km/s) = 7.25423 5.56044 3.29433
#
# Compressibility (1/GPa) = 0.03807996
#
# Stress axis : x y z
#
# Youngs Moduli (GPa) = 32.37143 68.10820 92.41937
#
# Poissons Ratio (x) = -0.17507 0.60525
# Poissons Ratio (y) = -0.08321 0.47860
# Poissons Ratio (z) = 0.21200 0.35271
#
# Static dielectric constant tensor:
#      x y z
#    x 1.660650 0.000000 0.000000 
#    y 0.000000 1.658860 0.000000 
#    z 0.000000 0.000000 1.764780 
# 
# From -- ./inp_files/67521.got.cif
#   From: 2010.05.17/outbox.cif.g08.bks.cpg/sg74_34_cif.got.tgz:67521.got - 2010.06.03 17:57:02.
