data_PCOD9534406
_publ_section_title
;
Structure prediction by ZEFSAII (Michael W. Deem and Ramdas Pophale) SiO2 
 PCOD9534406
Probable space group: I M M A
;
_chemical_formula_sum "Si O2"
_cell_formula_units_Z 80
_cell_length_a 8.728513
_cell_length_b 24.430883
_cell_length_c 26.386351
_cell_angle_alpha 90.000000
_cell_angle_beta 90.000000
_cell_angle_gamma 90.000000
_cell_volume 5626.764804
_symmetry_space_group_name_H-M "I M M A"
_symmetry_group_IT_number 74
_symmetry_cell_setting 'orthorhombic'
loop_
_space_group_symop_operation_xyz
x,y,z
-x,1/2-y,z
x,-y,-z
-x,1/2+y,-z
-x,-y,-z
x,1/2+y,-z
-x,y,z
x,1/2-y,z
1/2+x,1/2+y,1/2+z
1/2-x,-y,1/2+z
1/2+x,1/2-y,1/2-z
1/2-x,y,1/2-z
1/2-x,1/2-y,1/2-z
1/2+x,y,1/2-z
1/2-x,1/2+y,1/2+z
1/2+x,-y,1/2+z
loop_
_atom_site_type_symbol
_atom_site_label
_atom_site_fract_x
_atom_site_fract_y
_atom_site_fract_z
Si Si1 0.822777 0.030677 0.554693
Si Si2 0.318860 0.930913 0.605935
Si Si3 0.184963 0.129706 0.492468
Si Si4 0.316958 0.250000 0.353320
Si Si5 0.183784 0.750000 0.533795
Si Si6 0.817177 0.861101 0.694381
O O1 0.770079 0.091764 0.540089
O O2 0.000000 0.031398 0.571462
O O3 0.819316 0.000000 0.500000
O O4 0.725429 0.993211 0.592086
O O5 0.500000 0.924713 0.611422
O O6 0.261189 0.894642 0.558186
O O7 0.235096 0.907879 0.655288
O O8 0.220612 0.193813 0.495121
O O9 0.000000 0.123365 0.487047
O O10 0.500000 0.250000 0.349330
O O11 0.266495 0.250000 0.411999
O O12 0.249639 0.304017 0.326969
O O13 0.000000 0.750000 0.543411
O O14 0.750000 0.870750 0.750000
O O15 0.000000 0.857653 0.696081
#
# Coordination Sequence:
#
# PCOD9534406 Si02
#       6
#    16  16  16   8   8  16
#     4   8  15  28  44  62  84 112 143 178 218 264
#     4  11  20  30  45  65  86 110 144 185 225 266
#     4   9  17  29  45  64  87 115 149 181 218 265
#     4  12  23  35  48  66  87 114 150 189 227 265
#     4  10  18  29  47  66  88 122 152 183 222 261
#     4  12  24  38  51  64  84 113 148 189 230 269
#
# _framework density 14.217762
#
# number of rings (size 3 to 8) (size 9 to 14) (size 15 to 20)
#    0.000    1.800    2.000    6.000    0.000    3.600 
#    0.000    0.000    0.000    0.000    0.000    0.000 
#    0.000    0.000    0.000    0.900    0.000    9.000 
#
# Total GULP energy -223145.547059 kJ/mol
# GULP energy per Si atom -5578.638676 kJ/mol
# Density = 1.418540 g / cm^3
# Si number density = 14.217762 Si / 1000 Ang^3
#
#
#
# Elastic Constant Matrix: (Units=GPa)
#
#
# Indices 1 2 3 4 5 6 
#
# 1 82.4889 44.9135 32.9648 0.0000 0.0000 0.0000
# 2 44.9135 115.7089 53.8348 0.0000 0.0000 0.0000
# 3 32.9648 53.8348 54.8888 0.0000 0.0000 0.0000
# 4 0.0000 0.0000 0.0000 8.1483 0.0000 0.0000
# 5 0.0000 0.0000 0.0000 0.0000 19.3616 0.0000
# 6 0.0000 0.0000 0.0000 0.0000 0.0000 12.3369
#
#
#
# Elastic Compliance Matrix: (Units=1/GPa)
#
#
# Indices 1 2 3 4 5 6 
#
# 1 0.016618 -0.003324 -0.006721 0.000000 0.000000 0.000000
# 2 -0.003324 0.016561 -0.014247 0.000000 0.000000 0.000000
# 3 -0.006721 -0.014247 0.036228 0.000000 0.000000 0.000000
# 4 0.000000 0.000000 0.000000 0.122725 0.000000 0.000000
# 5 0.000000 0.000000 0.000000 0.000000 0.051649 0.000000
# 6 0.000000 0.000000 0.000000 0.000000 0.000000 0.081058
#
#
# Mechanical properties :
#
#
# Convention : Reuss Voigt Hill
#
# Bulk Modulus (GPa) = 48.01903 57.39029 52.70466
# Shear Modulus (GPa) = 13.14535 16.06093 14.60314
#
# Velocity S-wave (km/s) = 3.04398 3.36466 3.20832
# Velocity P-wave (km/s) = 6.79718 7.45301 7.13264
#
# Compressibility (1/GPa) = 0.02082508
#
# Stress axis : x y z
#
# Youngs Moduli (GPa) = 60.17470 60.38289 27.60289
#
# Poissons Ratio (x) = 0.20070 0.18551
# Poissons Ratio (y) = 0.20000 0.39325
# Poissons Ratio (z) = 0.40441 0.86026
#
# Static dielectric constant tensor:
#      x y z
#    x 1.475700 0.000000 0.000000 
#    y 0.000000 1.502210 0.000000 
#    z 0.000000 0.000000 1.437480 
# 
# From -- ./inp_files/48988.got.cif
#   From: 2010.05.17/outbox.cif.g08.bks.cpg/sg74_25_cif.got.tgz:48988.got - 2010.06.03 17:57:02.
