data_PCOD9534980
_publ_section_title
;
Structure prediction by ZEFSAII (Michael W. Deem and Ramdas Pophale) SiO2 
 PCOD9534980
Probable space group: I M M A
;
_chemical_formula_sum "Si O2"
_cell_formula_units_Z 80
_cell_length_a 25.253048
_cell_length_b 15.330922
_cell_length_c 9.667169
_cell_angle_alpha 90.000000
_cell_angle_beta 90.000000
_cell_angle_gamma 90.000000
_cell_volume 3742.668735
_symmetry_space_group_name_H-M "I M M A"
_symmetry_group_IT_number 74
_symmetry_cell_setting 'orthorhombic'
loop_
_space_group_symop_operation_xyz
x,y,z
-x,1/2-y,z
x,-y,-z
-x,1/2+y,-z
-x,-y,-z
x,1/2+y,-z
-x,y,z
x,1/2-y,z
1/2+x,1/2+y,1/2+z
1/2-x,-y,1/2+z
1/2+x,1/2-y,1/2-z
1/2-x,y,1/2-z
1/2-x,1/2-y,1/2-z
1/2+x,y,1/2-z
1/2-x,1/2+y,1/2+z
1/2+x,-y,1/2+z
loop_
_atom_site_type_symbol
_atom_site_label
_atom_site_fract_x
_atom_site_fract_y
_atom_site_fract_z
Si Si1 0.442893 0.876057 0.894273
Si Si2 0.850525 0.846888 0.801998
Si Si3 0.298349 0.988941 0.164723
Si Si4 0.058915 0.644482 0.013683
Si Si5 0.416600 0.926158 0.185297
O O1 0.500000 0.843346 0.850507
O O2 0.392736 0.836676 0.820742
O O3 0.438788 0.977766 0.849676
O O4 0.436612 0.868581 0.058188
O O5 0.828905 0.750000 0.836396
O O6 0.810534 0.919575 0.745291
O O7 0.889484 0.881569 0.924129
O O8 0.250000 0.947952 0.250000
O O9 0.353076 0.935749 0.176745
O O10 0.287553 0.000000 0.000000
O O11 0.059552 0.750000 0.013502
O O12 0.065778 0.608067 0.167283
O O13 0.000000 0.616873 0.962858
#
# Coordination Sequence:
#
# PCOD9534980 Si02
#       5
#    16  16  16  16  16
#     4  10  18  32  57  85 118 158 195 236 292 353
#     4  10  22  40  60  87 124 157 195 244 291 355
#     4  11  24  43  66  88 111 148 203 257 309 359
#     4  10  21  36  57  90 130 168 200 231 283 354
#     4  10  19  37  56  86 121 153 196 253 291 344
#
# _framework density 21.375122999999999
#
# number of rings (size 3 to 8) (size 9 to 14) (size 15 to 20)
#    0.000    1.800    4.000    3.000    2.800    4.800 
#    0.000    5.000    0.000    1.200    0.000    0.000 
#    0.000    0.000    0.000    0.000    0.000    0.000 
#
# Total GULP energy -223246.955563 kJ/mol
# GULP energy per Si atom -5581.173889 kJ/mol
# Density = 2.132647 g / cm^3
# Si number density = 21.375123 Si / 1000 Ang^3
#
#
#
# Elastic Constant Matrix: (Units=GPa)
#
#
# Indices 1 2 3 4 5 6 
#
# 1 114.5484 -2.4218 25.2625 0.0000 0.0000 0.0000
# 2 -2.4218 20.7379 14.6524 0.0000 0.0000 0.0000
# 3 25.2625 14.6524 152.5137 0.0000 0.0000 0.0000
# 4 0.0000 0.0000 0.0000 -15.9421 0.0000 0.0000
# 5 0.0000 0.0000 0.0000 0.0000 30.9858 0.0000
# 6 0.0000 0.0000 0.0000 0.0000 0.0000 0.8294
#
#
#
# Elastic Compliance Matrix: (Units=1/GPa)
#
#
# Indices 1 2 3 4 5 6 
#
# 1 0.009162 0.002298 -0.001738 0.000000 0.000000 0.000000
# 2 0.002298 0.052309 -0.005406 0.000000 0.000000 0.000000
# 3 -0.001738 -0.005406 0.007364 0.000000 0.000000 0.000000
# 4 0.000000 0.000000 0.000000 -0.062727 0.000000 0.000000
# 5 0.000000 0.000000 0.000000 0.000000 0.032273 0.000000
# 6 0.000000 0.000000 0.000000 0.000000 0.000000 1.205665
#
#
# Mechanical properties :
#
#
# Convention : Reuss Voigt Hill
#
# Bulk Modulus (GPa) = 16.90832 40.30958 28.60895
# Shear Modulus (GPa) = 3.92633 19.86174 11.89403
#
# Velocity S-wave (km/s) = 1.35678 3.05158 2.36146
# Velocity P-wave (km/s) = 3.22210 5.59601 4.56603
#
# Compressibility (1/GPa) = 0.05914249
#
# Stress axis : x y z
#
# Youngs Moduli (GPa) = 109.14759 19.11712 135.79359
#
# Poissons Ratio (x) = -0.04394 0.23606
# Poissons Ratio (y) = -0.25084 0.73412
# Poissons Ratio (z) = 0.18974 0.10335
#
# Static dielectric constant tensor:
#      x y z
#    x 1.759130 0.000000 0.000000 
#    y 0.000000 1.962530 0.000000 
#    z 0.000000 0.000000 1.778350 
# 
# From -- ./inp_files/14926.got.cif
#   From: 2010.05.17/outbox.cif.g08.bks.cpg/sg74_8_cif.got.tgz:14926.got - 2010.06.03 17:57:02.
