data_PCOD9534807
_publ_section_title
;
Structure prediction by ZEFSAII (Michael W. Deem and Ramdas Pophale) SiO2 
 PCOD9534807
Probable space group: I M M A
;
_chemical_formula_sum "Si O2"
_cell_formula_units_Z 64
_cell_length_a 25.685698
_cell_length_b 8.497807
_cell_length_c 14.991316
_cell_angle_alpha 90.000000
_cell_angle_beta 90.000000
_cell_angle_gamma 90.000000
_cell_volume 3272.186089
_symmetry_space_group_name_H-M "I M M A"
_symmetry_group_IT_number 74
_symmetry_cell_setting 'orthorhombic'
loop_
_space_group_symop_operation_xyz
x,y,z
-x,1/2-y,z
x,-y,-z
-x,1/2+y,-z
-x,-y,-z
x,1/2+y,-z
-x,y,z
x,1/2-y,z
1/2+x,1/2+y,1/2+z
1/2-x,-y,1/2+z
1/2+x,1/2-y,1/2-z
1/2-x,y,1/2-z
1/2-x,1/2-y,1/2-z
1/2+x,y,1/2-z
1/2-x,1/2+y,1/2+z
1/2+x,-y,1/2+z
loop_
_atom_site_type_symbol
_atom_site_label
_atom_site_fract_x
_atom_site_fract_y
_atom_site_fract_z
Si Si1 0.000000 0.562488 0.601905
Si Si2 0.190474 0.940020 0.249556
Si Si3 0.390183 0.438655 0.898975
Si Si4 0.886225 0.060939 0.101255
Si Si5 0.000000 0.439871 0.101711
O O1 0.000000 0.500000 0.500000
O O2 0.945331 0.500846 0.638998
O O3 0.000000 0.750000 0.603304
O O4 0.191158 0.750000 0.249395
O O5 0.250000 0.996089 0.250000
O O6 0.157209 0.990070 0.336062
O O7 0.158987 0.996601 0.163525
O O8 0.392496 0.250000 0.901734
O O9 0.384070 0.500000 0.000000
O O10 0.884756 0.250000 0.100412
O O11 0.943600 0.009336 0.137488
O O12 0.881246 0.000000 0.000000
O O13 0.000000 0.250000 0.103226
O O14 0.000000 0.500000 0.000000
#
# Coordination Sequence:
#
# PCOD9534807 Si02
#       5
#     8  16  16  16   8
#     4  10  18  31  54  83 114 142 176 221 272 333
#     4  10  23  41  57  78 110 147 190 235 275 322
#     4  10  20  36  58  82 111 145 182 226 277 330
#     4  10  20  36  59  85 114 147 183 225 275 329
#     4   8  16  31  52  81 112 140 174 217 267 325
#
# _framework density 19.558790999999999
#
# number of rings (size 3 to 8) (size 9 to 14) (size 15 to 20)
#    0.000    2.250    0.000    4.125    0.000    5.500 
#    0.000    5.000    0.000    0.000    0.000    0.000 
#    0.000    0.000    0.000    0.000    0.000    0.000 
#
# Total GULP energy -178576.861078 kJ/mol
# GULP energy per Si atom -5580.526909 kJ/mol
# Density = 1.951427 g / cm^3
# Si number density = 19.558791 Si / 1000 Ang^3
#
#
#
# Elastic Constant Matrix: (Units=GPa)
#
#
# Indices 1 2 3 4 5 6 
#
# 1 236.7673 37.5704 90.5988 0.0000 0.0000 0.0000
# 2 37.5704 35.2383 17.3747 0.0000 0.0000 0.0000
# 3 90.5988 17.3747 108.3724 0.0000 0.0000 0.0000
# 4 0.0000 0.0000 0.0000 23.7132 0.0000 0.0000
# 5 0.0000 0.0000 0.0000 0.0000 35.0807 0.0000
# 6 0.0000 0.0000 0.0000 0.0000 0.0000 15.3767
#
#
#
# Elastic Compliance Matrix: (Units=1/GPa)
#
#
# Indices 1 2 3 4 5 6 
#
# 1 0.006913 -0.004909 -0.004992 0.000000 0.000000 0.000000
# 2 -0.004909 0.034300 -0.001395 0.000000 0.000000 0.000000
# 3 -0.004992 -0.001395 0.013624 0.000000 0.000000 0.000000
# 4 0.000000 0.000000 0.000000 0.042171 0.000000 0.000000
# 5 0.000000 0.000000 0.000000 0.000000 0.028506 0.000000
# 6 0.000000 0.000000 0.000000 0.000000 0.000000 0.065034
#
#
# Mechanical properties :
#
#
# Convention : Reuss Voigt Hill
#
# Bulk Modulus (GPa) = 31.01278 74.60731 52.81005
# Shear Modulus (GPa) = 22.33266 30.48972 26.41119
#
# Velocity S-wave (km/s) = 3.38275 3.95254 3.67870
# Velocity P-wave (km/s) = 5.58104 7.68493 6.71588
#
# Compressibility (1/GPa) = 0.03224477
#
# Stress axis : x y z
#
# Youngs Moduli (GPa) = 144.66214 29.15458 73.39775
#
# Poissons Ratio (x) = 0.14311 0.36640
# Poissons Ratio (y) = 0.71012 0.10241
# Poissons Ratio (z) = 0.72215 0.04068
#
# Static dielectric constant tensor:
#      x y z
#    x 1.712640 0.000000 0.000000 
#    y 0.000000 1.822220 0.000000 
#    z 0.000000 0.000000 1.670020 
# 
# From -- ./inp_files/36969.got.cif
#   From: 2010.05.17/outbox.cif.g08.bks.cpg/sg74_19_cif.got.tgz:36969.got - 2010.06.03 17:57:02.
