data_PCOD9534259
_publ_section_title
;
Structure prediction by ZEFSAII (Michael W. Deem and Ramdas Pophale) SiO2 
 PCOD9534259
Probable space group: I M M A
;
_chemical_formula_sum "Si O2"
_cell_formula_units_Z 80
_cell_length_a 8.649891
_cell_length_b 19.809612
_cell_length_c 34.106663
_cell_angle_alpha 90.000000
_cell_angle_beta 90.000000
_cell_angle_gamma 90.000000
_cell_volume 5844.210285
_symmetry_space_group_name_H-M "I M M A"
_symmetry_group_IT_number 74
_symmetry_cell_setting 'orthorhombic'
loop_
_space_group_symop_operation_xyz
x,y,z
-x,1/2-y,z
x,-y,-z
-x,1/2+y,-z
-x,-y,-z
x,1/2+y,-z
-x,y,z
x,1/2-y,z
1/2+x,1/2+y,1/2+z
1/2-x,-y,1/2+z
1/2+x,1/2-y,1/2-z
1/2-x,y,1/2-z
1/2-x,1/2-y,1/2-z
1/2+x,y,1/2-z
1/2-x,1/2+y,1/2+z
1/2+x,-y,1/2+z
loop_
_atom_site_type_symbol
_atom_site_label
_atom_site_fract_x
_atom_site_fract_y
_atom_site_fract_z
Si Si1 0.314012 0.026448 0.558917
Si Si2 0.814302 0.616306 0.129925
Si Si3 0.186282 0.899054 0.517482
Si Si4 0.814168 0.750000 0.081253
Si Si5 0.314410 0.250000 0.006092
Si Si6 0.815376 0.327985 0.707434
O O1 0.500000 0.028499 0.555695
O O2 0.269469 0.054471 0.601635
O O3 0.245926 0.075097 0.524957
O O4 0.253430 0.952224 0.548490
O O5 0.771644 0.683689 0.105663
O O6 0.741540 0.624285 0.172558
O O7 0.000000 0.615600 0.134081
O O8 0.237266 0.821685 0.523762
O O9 0.000000 0.902865 0.517633
O O10 0.000000 0.750000 0.075916
O O11 0.736178 0.750000 0.039118
O O12 0.500000 0.250000 0.007860
O O13 0.763423 0.250000 0.699475
O O14 0.750000 0.346661 0.750000
O O15 0.000000 0.328112 0.708834
#
# Coordination Sequence:
#
# PCOD9534259 Si02
#       6
#    16  16  16   8   8  16
#     4  10  19  30  43  60  81 107 138 173 212 252
#     4  10  19  30  44  60  81 107 139 176 212 248
#     4  10  19  30  42  58  81 108 138 175 213 250
#     4  10  18  28  41  59  80 108 141 177 213 244
#     4  10  20  30  42  59  81 108 141 179 215 250
#     4  10  20  31  44  61  82 108 138 172 209 247
#
# _framework density 13.688761
#
# number of rings (size 3 to 8) (size 9 to 14) (size 15 to 20)
#    0.000    2.000    3.000    3.000    0.000    4.000 
#    0.000    0.000    0.000    0.000    0.000    0.000 
#    0.000    0.000    0.000    0.900    0.000   11.600 
#
# Total GULP energy -223052.412646 kJ/mol
# GULP energy per Si atom -5576.310316 kJ/mol
# Density = 1.365761 g / cm^3
# Si number density = 13.688761 Si / 1000 Ang^3
#
#
#
# Elastic Constant Matrix: (Units=GPa)
#
#
# Indices 1 2 3 4 5 6 
#
# 1 31.0180 26.7709 28.8918 0.0000 0.0000 0.0000
# 2 26.7709 102.7081 54.8010 0.0000 0.0000 0.0000
# 3 28.8918 54.8010 104.2842 0.0000 0.0000 0.0000
# 4 0.0000 0.0000 0.0000 22.5176 0.0000 0.0000
# 5 0.0000 0.0000 0.0000 0.0000 21.2058 0.0000
# 6 0.0000 0.0000 0.0000 0.0000 0.0000 11.7776
#
#
#
# Elastic Compliance Matrix: (Units=1/GPa)
#
#
# Indices 1 2 3 4 5 6 
#
# 1 0.047177 -0.007397 -0.009183 0.000000 0.000000 0.000000
# 2 -0.007397 0.014690 -0.005670 0.000000 0.000000 0.000000
# 3 -0.009183 -0.005670 0.015113 0.000000 0.000000 0.000000
# 4 0.000000 0.000000 0.000000 0.044410 0.000000 0.000000
# 5 0.000000 0.000000 0.000000 0.000000 0.047157 0.000000
# 6 0.000000 0.000000 0.000000 0.000000 0.000000 0.084907
#
#
# Mechanical properties :
#
#
# Convention : Reuss Voigt Hill
#
# Bulk Modulus (GPa) = 30.78880 50.99310 40.89095
# Shear Modulus (GPa) = 16.19271 19.60330 17.89801
#
# Velocity S-wave (km/s) = 3.44309 3.78838 3.61985
# Velocity P-wave (km/s) = 6.19252 7.51455 6.88534
#
# Compressibility (1/GPa) = 0.03247935
#
# Stress axis : x y z
#
# Youngs Moduli (GPa) = 21.19659 68.07505 66.16806
#
# Poissons Ratio (x) = 0.50355 0.60765
# Poissons Ratio (y) = 0.15679 0.37518
# Poissons Ratio (z) = 0.19466 0.38599
#
# Static dielectric constant tensor:
#      x y z
#    x 1.461370 0.000000 0.000000 
#    y 0.000000 1.464450 0.000000 
#    z 0.000000 0.000000 1.429340 
# 
# From -- ./inp_files/70714.got.cif
#   From: 2010.05.17/outbox.cif.g08.bks.cpg/sg74_36_cif.got.tgz:70714.got - 2010.06.03 17:57:02.
