data_PCOD9534362
_publ_section_title
;
Structure prediction by ZEFSAII (Michael W. Deem and Ramdas Pophale) SiO2 
 PCOD9534362
Probable space group: I M M A
;
_chemical_formula_sum "Si O2"
_cell_formula_units_Z 96
_cell_length_a 29.236593
_cell_length_b 8.666031
_cell_length_c 29.846857
_cell_angle_alpha 90.000000
_cell_angle_beta 90.000000
_cell_angle_gamma 90.000000
_cell_volume 7562.155528
_symmetry_space_group_name_H-M "I M M A"
_symmetry_group_IT_number 74
_symmetry_cell_setting 'orthorhombic'
loop_
_space_group_symop_operation_xyz
x,y,z
-x,1/2-y,z
x,-y,-z
-x,1/2+y,-z
-x,-y,-z
x,1/2+y,-z
-x,y,z
x,1/2-y,z
1/2+x,1/2+y,1/2+z
1/2-x,-y,1/2+z
1/2+x,1/2-y,1/2-z
1/2-x,y,1/2-z
1/2-x,1/2-y,1/2-z
1/2+x,y,1/2-z
1/2-x,1/2+y,1/2+z
1/2+x,-y,1/2+z
loop_
_atom_site_type_symbol
_atom_site_label
_atom_site_fract_x
_atom_site_fract_y
_atom_site_fract_z
Si Si1 0.820078 0.065915 0.229057
Si Si2 0.763970 0.566249 0.677893
Si Si3 0.000000 0.065508 0.407507
Si Si4 0.904108 0.564202 0.717936
Si Si5 0.092288 0.565247 0.451048
Si Si6 0.151970 0.566455 0.366187
Si Si7 0.500000 0.933854 0.193529
O O1 0.823523 0.250000 0.221725
O O2 0.791879 0.046708 0.275408
O O3 0.787107 0.006732 0.189458
O O4 0.870663 0.009493 0.241686
O O5 0.762358 0.750000 0.668916
O O6 0.795724 0.484564 0.641539
O O7 0.000000 0.250000 0.406495
O O8 0.044968 0.004977 0.432706
O O9 0.000000 0.002180 0.356823
O O10 0.906822 0.750000 0.719056
O O11 0.879110 0.515698 0.671629
O O12 0.954156 0.492364 0.717530
O O13 0.102279 0.500000 0.500000
O O14 0.087541 0.750000 0.453090
O O15 0.131283 0.527823 0.414548
O O16 0.147949 0.750000 0.359375
O O17 0.500000 0.750000 0.190397
#
# Coordination Sequence:
#
# PCOD9534362 Si02
#       7
#    16  16   8  16  16  16   8
#     4   7  12  23  39  58  75  93 119 149 174 208
#     4   8  13  24  41  57  75  96 118 143 175 219
#     4  12  23  35  50  60  69  92 126 156 198 245
#     4  10  18  29  44  57  72  98 128 151 182 226
#     4  11  23  36  47  58  76  95 121 160 200 237
#     4  10  19  29  41  58  78  95 115 152 192 226
#     4  12  22  31  41  58  80  98 123 160 197 229
#
# _framework density 12.694793000000001
#
# number of rings (size 3 to 8) (size 9 to 14) (size 15 to 20)
#    0.000    2.333    1.667    5.250    0.000    2.000 
#    0.000    7.500    0.000    0.000    0.000    0.000 
#    0.000    0.000    0.000    0.000    0.000    0.000 
#
# Total GULP energy -267328.718897 kJ/mol
# GULP energy per Si atom -5569.348310 kJ/mol
# Density = 1.266590 g / cm^3
# Si number density = 12.694793 Si / 1000 Ang^3
#
#
#
# Elastic Constant Matrix: (Units=GPa)
#
#
# Indices 1 2 3 4 5 6 
#
# 1 108.4348 34.3787 58.0361 0.0000 0.0000 0.0000
# 2 34.3787 49.6293 26.8802 0.0000 0.0000 0.0000
# 3 58.0361 26.8802 49.7928 0.0000 0.0000 0.0000
# 4 0.0000 0.0000 0.0000 13.9814 0.0000 0.0000
# 5 0.0000 0.0000 0.0000 0.0000 6.6842 0.0000
# 6 0.0000 0.0000 0.0000 0.0000 0.0000 16.4831
#
#
#
# Elastic Compliance Matrix: (Units=1/GPa)
#
#
# Indices 1 2 3 4 5 6 
#
# 1 0.024675 -0.002142 -0.027604 0.000000 0.000000 0.000000
# 2 -0.002142 0.028661 -0.012976 0.000000 0.000000 0.000000
# 3 -0.027604 -0.012976 0.059262 0.000000 0.000000 0.000000
# 4 0.000000 0.000000 0.000000 0.071524 0.000000 0.000000
# 5 0.000000 0.000000 0.000000 0.000000 0.149606 0.000000
# 6 0.000000 0.000000 0.000000 0.000000 0.000000 0.060668
#
#
# Mechanical properties :
#
#
# Convention : Reuss Voigt Hill
#
# Bulk Modulus (GPa) = 36.82595 49.60519 43.21557
# Shear Modulus (GPa) = 10.22720 13.33386 11.78053
#
# Velocity S-wave (km/s) = 2.84143 3.24441 3.04958
# Velocity P-wave (km/s) = 6.31163 7.29349 6.82025
#
# Compressibility (1/GPa) = 0.02715476
#
# Stress axis : x y z
#
# Youngs Moduli (GPa) = 40.52612 34.89044 16.87412
#
# Poissons Ratio (x) = 0.07473 0.46580
# Poissons Ratio (y) = 0.08680 0.21896
# Poissons Ratio (z) = 1.11869 0.45274
#
# Static dielectric constant tensor:
#      x y z
#    x 1.446100 0.000000 0.000000 
#    y 0.000000 1.428080 0.000000 
#    z 0.000000 0.000000 1.397010 
# 
# From -- ./inp_files/73997.got.cif
#   From: 2010.05.17/outbox.cif.g08.bks.cpg/sg74_37_cif.got.tgz:73997.got - 2010.06.03 17:57:02.
