data_PCOD9534199
_publ_section_title
;
Structure prediction by ZEFSAII (Michael W. Deem and Ramdas Pophale) SiO2 
 PCOD9534199
Probable space group: I M M A
;
_chemical_formula_sum "Si O2"
_cell_formula_units_Z 80
_cell_length_a 9.144654
_cell_length_b 25.417131
_cell_length_c 20.542193
_cell_angle_alpha 90.000000
_cell_angle_beta 90.000000
_cell_angle_gamma 90.000000
_cell_volume 4774.639763
_symmetry_space_group_name_H-M "I M M A"
_symmetry_group_IT_number 74
_symmetry_cell_setting 'orthorhombic'
loop_
_space_group_symop_operation_xyz
x,y,z
-x,1/2-y,z
x,-y,-z
-x,1/2+y,-z
-x,-y,-z
x,1/2+y,-z
-x,y,z
x,1/2-y,z
1/2+x,1/2+y,1/2+z
1/2-x,-y,1/2+z
1/2+x,1/2-y,1/2-z
1/2-x,y,1/2-z
1/2-x,1/2-y,1/2-z
1/2+x,y,1/2-z
1/2-x,1/2+y,1/2+z
1/2+x,-y,1/2+z
loop_
_atom_site_type_symbol
_atom_site_label
_atom_site_fract_x
_atom_site_fract_y
_atom_site_fract_z
Si Si1 0.326558 0.031320 0.932654
Si Si2 0.828386 0.133931 0.357761
Si Si3 0.672417 0.855063 0.014060
Si Si4 0.326858 0.750000 0.493737
Si Si5 0.674019 0.250000 0.133765
Si Si6 0.326241 0.470726 0.316214
O O1 0.500000 0.027110 0.917046
O O2 0.290673 0.092024 0.947275
O O3 0.233101 0.004997 0.876224
O O4 0.304165 0.000000 0.000000
O O5 0.806729 0.134746 0.436385
O O6 0.799108 0.193552 0.333481
O O7 0.727653 0.089129 0.328362
O O8 0.000000 0.121464 0.345959
O O9 0.500000 0.844356 0.021975
O O10 0.762313 0.803930 0.034656
O O11 0.500000 0.750000 0.491852
O O12 0.268416 0.750000 0.568152
O O13 0.500000 0.250000 0.116013
O O14 0.500000 0.472847 0.311447
O O15 0.250000 0.489268 0.250000
#
# Coordination Sequence:
#
# PCOD9534199 Si02
#       6
#    16  16  16   8   8  16
#     4  10  19  36  59  81 105 137 177 220 267 318
#     4   9  16  32  53  74 100 135 178 218 262 312
#     4   9  17  31  53  76 104 140 173 209 261 320
#     4  10  18  26  42  73 112 139 168 215 257 299
#     4   8  16  30  49  69  96 137 176 213 262 315
#     4  12  25  38  53  75 106 142 179 221 267 318
#
# _framework density 16.755189999999999
#
# number of rings (size 3 to 8) (size 9 to 14) (size 15 to 20)
#    0.000    2.200    2.000    3.900    0.000    4.400 
#    0.000    0.500    0.000    0.000    0.000    0.700 
#    0.000    0.000    0.000    0.000    0.000    0.000 
#
# Total GULP energy -223165.365280 kJ/mol
# GULP energy per Si atom -5579.134132 kJ/mol
# Density = 1.671705 g / cm^3
# Si number density = 16.755190 Si / 1000 Ang^3
#
#
#
# Elastic Constant Matrix: (Units=GPa)
#
#
# Indices 1 2 3 4 5 6 
#
# 1 98.9171 76.0134 54.8515 0.0000 0.0000 0.0000
# 2 76.0134 123.6790 42.0398 0.0000 0.0000 0.0000
# 3 54.8515 42.0398 62.9245 0.0000 0.0000 0.0000
# 4 0.0000 0.0000 0.0000 5.4600 0.0000 0.0000
# 5 0.0000 0.0000 0.0000 0.0000 20.6326 0.0000
# 6 0.0000 0.0000 0.0000 0.0000 0.0000 21.8491
#
#
#
# Elastic Compliance Matrix: (Units=1/GPa)
#
#
# Indices 1 2 3 4 5 6 
#
# 1 0.028661 -0.011803 -0.017098 0.000000 0.000000 0.000000
# 2 -0.011803 0.015322 0.000052 0.000000 0.000000 0.000000
# 3 -0.017098 0.000052 0.030762 0.000000 0.000000 0.000000
# 4 0.000000 0.000000 0.000000 0.183150 0.000000 0.000000
# 5 0.000000 0.000000 0.000000 0.000000 0.048467 0.000000
# 6 0.000000 0.000000 0.000000 0.000000 0.000000 0.045769
#
#
# Mechanical properties :
#
#
# Convention : Reuss Voigt Hill
#
# Bulk Modulus (GPa) = 58.66321 70.14776 64.40549
# Shear Modulus (GPa) = 12.03339 17.09607 14.56473
#
# Velocity S-wave (km/s) = 2.68281 3.19775 2.95153
# Velocity P-wave (km/s) = 6.68466 7.45596 7.08082
#
# Compressibility (1/GPa) = 0.01704646
#
# Stress axis : x y z
#
# Youngs Moduli (GPa) = 34.89054 65.26567 32.50810
#
# Poissons Ratio (x) = 0.77035 0.55583
# Poissons Ratio (y) = 0.41182 -0.00170
# Poissons Ratio (z) = 0.59656 -0.00342
#
# Static dielectric constant tensor:
#      x y z
#    x 1.549370 0.000000 0.000000 
#    y 0.000000 1.596780 0.000000 
#    z 0.000000 0.000000 1.554600 
# 
# From -- ./inp_files/39799.got.cif
#   From: 2010.05.17/outbox.cif.g08.bks.cpg/sg74_20_cif.got.tgz:39799.got - 2010.06.03 17:57:02.
