data_PCOD9534654
_publ_section_title
;
Structure prediction by ZEFSAII (Michael W. Deem and Ramdas Pophale) SiO2 
 PCOD9534654
Probable space group: I M M A
;
_chemical_formula_sum "Si O2"
_cell_formula_units_Z 80
_cell_length_a 21.418585
_cell_length_b 14.555206
_cell_length_c 14.676877
_cell_angle_alpha 90.000000
_cell_angle_beta 90.000000
_cell_angle_gamma 90.000000
_cell_volume 4575.544539
_symmetry_space_group_name_H-M "I M M A"
_symmetry_group_IT_number 74
_symmetry_cell_setting 'orthorhombic'
loop_
_space_group_symop_operation_xyz
x,y,z
-x,1/2-y,z
x,-y,-z
-x,1/2+y,-z
-x,-y,-z
x,1/2+y,-z
-x,y,z
x,1/2-y,z
1/2+x,1/2+y,1/2+z
1/2-x,-y,1/2+z
1/2+x,1/2-y,1/2-z
1/2-x,y,1/2-z
1/2-x,1/2-y,1/2-z
1/2+x,y,1/2-z
1/2-x,1/2+y,1/2+z
1/2+x,-y,1/2+z
loop_
_atom_site_type_symbol
_atom_site_label
_atom_site_fract_x
_atom_site_fract_y
_atom_site_fract_z
Si Si1 0.430698 0.643449 0.664839
Si Si2 0.317092 0.141498 0.220214
Si Si3 0.851764 0.610041 0.007746
Si Si4 0.836755 0.750000 0.162004
Si Si5 0.207456 0.108255 0.483875
Si Si6 0.687000 0.750000 0.133696
O O1 0.500000 0.602163 0.670150
O O2 0.436121 0.750000 0.693423
O O3 0.376032 0.600235 0.726606
O O4 0.403462 0.643405 0.563035
O O5 0.314723 0.250000 0.244032
O O6 0.250000 0.100626 0.250000
O O7 0.322999 0.132285 0.112278
O O8 0.859368 0.660305 0.105136
O O9 0.854409 0.500000 0.000000
O O10 0.781016 0.635880 0.977131
O O11 0.761317 0.750000 0.154432
O O12 0.848848 0.750000 0.270216
O O13 0.177593 0.162273 0.568375
O O14 0.205182 0.000000 0.500000
#
# Coordination Sequence:
#
# PCOD9534654 Si02
#       6
#    16  16  16   8  16   8
#     4  10  20  33  51  78 106 135 172 215 267 323
#     4  10  18  30  54  77 101 137 171 219 269 317
#     4  10  19  31  51  76 104 140 176 214 259 320
#     4   9  18  32  48  69 107 144 170 210 264 314
#     4  10  19  31  50  78 107 135 177 219 265 312
#     4   9  18  32  46  68 106 143 172 210 262 319
#
# _framework density 17.484258000000001
#
# number of rings (size 3 to 8) (size 9 to 14) (size 15 to 20)
#    0.000    2.200    4.000    0.000    0.000    2.000 
#    3.600    0.000    0.000    0.600    0.000    2.800 
#    0.000    0.000    0.000    0.000    0.000    0.000 
#
# Total GULP energy -222708.881101 kJ/mol
# GULP energy per Si atom -5567.722028 kJ/mol
# Density = 1.744446 g / cm^3
# Si number density = 17.484258 Si / 1000 Ang^3
#
#
#
# Elastic Constant Matrix: (Units=GPa)
#
#
# Indices 1 2 3 4 5 6 
#
# 1 100.5736 15.8081 57.7258 0.0000 0.0000 0.0000
# 2 15.8081 71.4972 25.6442 0.0000 0.0000 0.0000
# 3 57.7258 25.6442 146.4585 0.0000 0.0000 0.0000
# 4 0.0000 0.0000 0.0000 2.7793 0.0000 0.0000
# 5 0.0000 0.0000 0.0000 0.0000 10.1701 0.0000
# 6 0.0000 0.0000 0.0000 0.0000 0.0000 -7.1527
#
#
#
# Elastic Compliance Matrix: (Units=1/GPa)
#
#
# Indices 1 2 3 4 5 6 
#
# 1 0.012931 -0.001100 -0.004904 0.000000 0.000000 0.000000
# 2 -0.001100 0.015017 -0.002196 0.000000 0.000000 0.000000
# 3 -0.004904 -0.002196 0.009145 0.000000 0.000000 0.000000
# 4 0.000000 0.000000 0.000000 0.359801 0.000000 0.000000
# 5 0.000000 0.000000 0.000000 0.000000 0.098327 0.000000
# 6 0.000000 0.000000 0.000000 0.000000 0.000000 -0.139808
#
#
# Mechanical properties :
#
#
# Convention : Reuss Voigt Hill
#
# Bulk Modulus (GPa) = 48.32441 57.43170 52.87806
# Shear Modulus (GPa) = 13.20267 15.78276 14.49272
#
# Velocity S-wave (km/s) = 2.75092 3.00773 2.88219
# Velocity P-wave (km/s) = 6.14727 6.70678 6.43311
#
# Compressibility (1/GPa) = 0.02069347
#
# Stress axis : x y z
#
# Youngs Moduli (GPa) = 77.33635 66.58940 109.34693
#
# Poissons Ratio (x) = 0.07325 0.53622
# Poissons Ratio (y) = 0.08507 0.24011
# Poissons Ratio (z) = 0.37925 0.14622
#
# Static dielectric constant tensor:
#      x y z
#    x 1.614070 0.000000 0.000000 
#    y 0.000000 1.643450 0.000000 
#    z 0.000000 0.000000 1.605830 
# 
# From -- ./inp_files/34201.got.cif
#   From: 2010.05.17/outbox.cif.g08.bks.cpg/sg74_18_cif.got.tgz:34201.got - 2010.06.03 17:57:02.
