data_PCOD9534542
_publ_section_title
;
Structure prediction by ZEFSAII (Michael W. Deem and Ramdas Pophale) SiO2 
 PCOD9534542
Probable space group: I M M A
;
_chemical_formula_sum "Si O2"
_cell_formula_units_Z 88
_cell_length_a 7.901978
_cell_length_b 20.520802
_cell_length_c 31.713876
_cell_angle_alpha 90.000000
_cell_angle_beta 90.000000
_cell_angle_gamma 90.000000
_cell_volume 5142.561214
_symmetry_space_group_name_H-M "I M M A"
_symmetry_group_IT_number 74
_symmetry_cell_setting 'orthorhombic'
loop_
_space_group_symop_operation_xyz
x,y,z
-x,1/2-y,z
x,-y,-z
-x,1/2+y,-z
-x,-y,-z
x,1/2+y,-z
-x,y,z
x,1/2-y,z
1/2+x,1/2+y,1/2+z
1/2-x,-y,1/2+z
1/2+x,1/2-y,1/2-z
1/2-x,y,1/2-z
1/2-x,1/2-y,1/2-z
1/2+x,y,1/2-z
1/2-x,1/2+y,1/2+z
1/2+x,-y,1/2+z
loop_
_atom_site_type_symbol
_atom_site_label
_atom_site_fract_x
_atom_site_fract_y
_atom_site_fract_z
Si Si1 0.799778 0.394267 0.798827
Si Si2 0.695656 0.956515 0.379132
Si Si3 0.698663 0.322656 0.916512
Si Si4 0.199470 0.750000 0.299277
Si Si5 0.704764 0.821460 0.513890
Si Si6 0.292898 0.961756 0.542548
O O1 0.750000 0.401546 0.750000
O O2 0.726648 0.445611 0.832653
O O3 0.760127 0.320575 0.814167
O O4 0.000000 0.400653 0.800021
O O5 0.500000 0.976767 0.373877
O O6 0.702140 0.883989 0.398738
O O7 0.770644 0.003404 0.414949
O O8 0.500000 0.329105 0.905725
O O9 0.755438 0.250000 0.903080
O O10 0.719426 0.325029 0.967036
O O11 0.250000 0.750000 0.250000
O O12 0.000000 0.750000 0.303504
O O13 0.500000 0.823758 0.509445
O O14 0.748958 0.750000 0.531758
O O15 0.755877 0.886137 0.538804
O O16 0.500000 0.965383 0.542981
O O17 0.239560 0.000000 0.500000
#
# Coordination Sequence:
#
# PCOD9534542 Si02
#       6
#    16  16  16   8  16  16
#     4  10  20  33  47  63  83 109 145 183 222 261
#     4  10  20  32  47  64  82 114 150 181 217 262
#     4  10  20  30  40  60  89 117 147 184 220 251
#     4  10  18  30  48  64  84 112 144 182 226 260
#     4   9  16  28  47  65  84 116 151 179 212 256
#     4   9  15  27  46  66  89 113 142 181 215 249
#
# _framework density 17.112095
#
# number of rings (size 3 to 8) (size 9 to 14) (size 15 to 20)
#    0.000    2.364    1.818    3.000    1.273    2.545 
#    0.000    1.818    0.000    0.000    0.000    0.000 
#    0.000    0.727    0.000    0.545    0.000    1.091 
#
# Total GULP energy -245255.051048 kJ/mol
# GULP energy per Si atom -5573.978433 kJ/mol
# Density = 1.707315 g / cm^3
# Si number density = 17.112095 Si / 1000 Ang^3
#
#
#
# Elastic Constant Matrix: (Units=GPa)
#
#
# Indices 1 2 3 4 5 6 
#
# 1 25.2963 4.1277 5.8171 0.0000 0.0000 0.0000
# 2 4.1277 102.0481 61.5417 0.0000 0.0000 0.0000
# 3 5.8171 61.5417 111.4284 0.0000 0.0000 0.0000
# 4 0.0000 0.0000 0.0000 35.7530 0.0000 0.0000
# 5 0.0000 0.0000 0.0000 0.0000 10.2005 0.0000
# 6 0.0000 0.0000 0.0000 0.0000 0.0000 5.0281
#
#
#
# Elastic Compliance Matrix: (Units=1/GPa)
#
#
# Indices 1 2 3 4 5 6 
#
# 1 0.040031 -0.000538 -0.001793 0.000000 0.000000 0.000000
# 2 -0.000538 0.014700 -0.008091 0.000000 0.000000 0.000000
# 3 -0.001793 -0.008091 0.013537 0.000000 0.000000 0.000000
# 4 0.000000 0.000000 0.000000 0.027970 0.000000 0.000000
# 5 0.000000 0.000000 0.000000 0.000000 0.098035 0.000000
# 6 0.000000 0.000000 0.000000 0.000000 0.000000 0.198883
#
#
# Mechanical properties :
#
#
# Convention : Reuss Voigt Hill
#
# Bulk Modulus (GPa) = 21.08591 42.41623 31.75107
# Shear Modulus (GPa) = 11.63312 21.34873 16.49093
#
# Velocity S-wave (km/s) = 2.61016 3.53594 3.10772
# Velocity P-wave (km/s) = 4.62957 6.44295 5.61001
#
# Compressibility (1/GPa) = 0.04742503
#
# Stress axis : x y z
#
# Youngs Moduli (GPa) = 24.98036 68.02523 73.87400
#
# Poissons Ratio (x) = 0.03661 0.13243
# Poissons Ratio (y) = 0.01344 0.59771
# Poissons Ratio (z) = 0.04478 0.55039
#
# Static dielectric constant tensor:
#      x y z
#    x 2.063130 0.000000 0.000000 
#    y 0.000000 1.603270 0.000000 
#    z 0.000000 0.000000 1.642680 
# 
# From -- ./inp_files/70484.got.cif
#   From: 2010.05.17/outbox.cif.g08.bks.cpg/sg74_36_cif.got.tgz:70484.got - 2010.06.03 17:57:02.
