data_PCOD9534960
_publ_section_title
;
Structure prediction by ZEFSAII (Michael W. Deem and Ramdas Pophale) SiO2 
 PCOD9534960
Probable space group: I M M A
;
_chemical_formula_sum "Si O2"
_cell_formula_units_Z 48
_cell_length_a 23.665846
_cell_length_b 5.506591
_cell_length_c 16.980740
_cell_angle_alpha 90.000000
_cell_angle_beta 90.000000
_cell_angle_gamma 90.000000
_cell_volume 2212.898361
_symmetry_space_group_name_H-M "I M M A"
_symmetry_group_IT_number 74
_symmetry_cell_setting 'orthorhombic'
loop_
_space_group_symop_operation_xyz
x,y,z
-x,1/2-y,z
x,-y,-z
-x,1/2+y,-z
-x,-y,-z
x,1/2+y,-z
-x,y,z
x,1/2-y,z
1/2+x,1/2+y,1/2+z
1/2-x,-y,1/2+z
1/2+x,1/2-y,1/2-z
1/2-x,y,1/2-z
1/2-x,1/2-y,1/2-z
1/2+x,y,1/2-z
1/2-x,1/2+y,1/2+z
1/2+x,-y,1/2+z
loop_
_atom_site_type_symbol
_atom_site_label
_atom_site_fract_x
_atom_site_fract_y
_atom_site_fract_z
Si Si1 0.783249 0.750000 0.846623
Si Si2 0.817249 0.750000 0.544058
Si Si3 0.866554 0.250000 0.000938
Si Si4 0.564170 0.750000 0.219988
Si Si5 0.935452 0.250000 0.380270
Si Si6 0.171899 0.250000 0.825351
O O1 0.719323 0.750000 0.876615
O O2 0.824069 0.750000 0.924853
O O3 0.798918 0.502046 0.803040
O O4 0.802083 0.500000 0.500000
O O5 0.884290 0.750000 0.558587
O O6 0.900143 0.500000 0.000000
O O7 0.830891 0.250000 0.920384
O O8 0.500000 0.750000 0.249954
O O9 0.570989 0.500661 0.169644
O O10 0.609876 0.750000 0.288589
O O11 0.000000 0.250000 0.412033
#
# Coordination Sequence:
#
# PCOD9534960 Si02
#       6
#     8   8   8   8   8   8
#     4  10  19  33  53  83 117 148 182 228 285 337
#     4  12  23  38  62  89 115 147 189 231 286 358
#     4   8  14  25  44  69 100 134 170 210 260 313
#     4  10  21  40  61  80 110 156 200 235 280 336
#     4  10  23  42  60  82 115 149 189 244 291 329
#     4  10  18  32  56  81 110 152 192 224 275 341
#
# _framework density 21.691009999999999
#
# number of rings (size 3 to 8) (size 9 to 14) (size 15 to 20)
#    0.000    2.000    0.000    6.000    0.000    0.667 
#    0.000    5.000    0.000    9.000    0.000    0.000 
#    0.000    0.000    0.000    0.000    0.000    0.000 
#
# Total GULP energy -133911.962145 kJ/mol
# GULP energy per Si atom -5579.665089 kJ/mol
# Density = 2.164164 g / cm^3
# Si number density = 21.691010 Si / 1000 Ang^3
#
#
#
# Elastic Constant Matrix: (Units=GPa)
#
#
# Indices 1 2 3 4 5 6 
#
# 1 67.6513 48.1708 17.1587 0.0000 0.0000 0.0000
# 2 48.1708 252.3072 27.2166 0.0000 0.0000 0.0000
# 3 17.1587 27.2166 35.7358 0.0000 0.0000 0.0000
# 4 0.0000 0.0000 0.0000 -4.2822 0.0000 0.0000
# 5 0.0000 0.0000 0.0000 0.0000 29.0067 0.0000
# 6 0.0000 0.0000 0.0000 0.0000 0.0000 17.5917
#
#
#
# Elastic Compliance Matrix: (Units=1/GPa)
#
#
# Indices 1 2 3 4 5 6 
#
# 1 0.018487 -0.002802 -0.006742 0.000000 0.000000 0.000000
# 2 -0.002802 0.004743 -0.002267 0.000000 0.000000 0.000000
# 3 -0.006742 -0.002267 0.032947 0.000000 0.000000 0.000000
# 4 0.000000 0.000000 0.000000 -0.233524 0.000000 0.000000
# 5 0.000000 0.000000 0.000000 0.000000 0.034475 0.000000
# 6 0.000000 0.000000 0.000000 0.000000 0.000000 0.056845
#
#
# Mechanical properties :
#
#
# Convention : Reuss Voigt Hill
#
# Bulk Modulus (GPa) = 30.71813 60.08740 45.40276
# Shear Modulus (GPa) = -96.98809 26.00646 -35.49082
#
# Velocity S-wave (km/s) = -6.69407 3.46634 -4.04938
# Velocity P-wave (km/s) = 6.74944 6.61683 0.94144
#
# Compressibility (1/GPa) = 0.03255407
#
# Stress axis : x y z
#
# Youngs Moduli (GPa) = 54.09165 210.83928 30.35182
#
# Poissons Ratio (x) = 0.59083 0.20465
# Poissons Ratio (y) = 0.15158 0.06880
# Poissons Ratio (z) = 0.36471 0.47792
#
# Static dielectric constant tensor:
#      x y z
#    x 1.718830 0.000000 0.000000 
#    y 0.000000 1.877280 0.000000 
#    z 0.000000 0.000000 1.795490 
# 
# From -- ./inp_files/53515.got.cif
#   From: 2010.05.17/outbox.cif.g08.bks.cpg/sg74_27_cif.got.tgz:53515.got - 2010.06.03 17:57:02.
