data_PCOD9534723
_publ_section_title
;
Structure prediction by ZEFSAII (Michael W. Deem and Ramdas Pophale) SiO2 
 PCOD9534723
Probable space group: I M M A
;
_chemical_formula_sum "Si O2"
_cell_formula_units_Z 88
_cell_length_a 19.412555
_cell_length_b 14.077769
_cell_length_c 18.982037
_cell_angle_alpha 90.000000
_cell_angle_beta 90.000000
_cell_angle_gamma 90.000000
_cell_volume 5187.514808
_symmetry_space_group_name_H-M "I M M A"
_symmetry_group_IT_number 74
_symmetry_cell_setting 'orthorhombic'
loop_
_space_group_symop_operation_xyz
x,y,z
-x,1/2-y,z
x,-y,-z
-x,1/2+y,-z
-x,-y,-z
x,1/2+y,-z
-x,y,z
x,1/2-y,z
1/2+x,1/2+y,1/2+z
1/2-x,-y,1/2+z
1/2+x,1/2-y,1/2-z
1/2-x,y,1/2-z
1/2-x,1/2-y,1/2-z
1/2+x,y,1/2-z
1/2-x,1/2+y,1/2+z
1/2+x,-y,1/2+z
loop_
_atom_site_type_symbol
_atom_site_label
_atom_site_fract_x
_atom_site_fract_y
_atom_site_fract_z
Si Si1 0.153614 0.643434 0.641663
Si Si2 0.277082 0.449114 0.850162
Si Si3 0.500000 0.136424 0.759274
Si Si4 0.150820 0.861756 0.217289
Si Si5 0.000000 0.563900 0.417522
Si Si6 0.500000 0.641763 0.875208
Si Si7 0.354824 0.140580 0.971994
O O1 0.177178 0.750000 0.659578
O O2 0.200401 0.556793 0.666315
O O3 0.150571 0.635279 0.556244
O O4 0.073198 0.634110 0.664508
O O5 0.198393 0.424133 0.833795
O O6 0.320766 0.384027 0.795764
O O7 0.300816 0.421883 0.928359
O O8 0.500000 0.250000 0.774760
O O9 0.429864 0.115442 0.717921
O O10 0.500000 0.083045 0.833611
O O11 0.160412 0.750000 0.202295
O O12 0.069815 0.608136 0.447090
O O13 0.000000 0.449907 0.425464
O O14 0.500000 0.750000 0.906842
O O15 0.344638 0.250000 0.951890
#
# Coordination Sequence:
#
# PCOD9534723 Si02
#       7
#    16  16   8  16   8   8  16
#     4  10  21  33  45  66  97 133 170 205 237 283
#     4  11  19  31  48  69  97 131 161 201 243 288
#     4  10  18  31  50  75 101 128 162 201 248 299
#     4  10  20  33  50  72  98 125 160 204 249 293
#     4  12  19  28  49  71 101 139 171 194 236 291
#     4  10  19  31  41  60  96 137 174 202 226 269
#     4  11  20  29  45  71 100 129 163 197 238 294
#
# _framework density 16.963806999999999
#
# number of rings (size 3 to 8) (size 9 to 14) (size 15 to 20)
#    0.000    1.455    3.636    4.091    0.000    2.182 
#    0.000    1.818    0.000    1.091    0.000    2.545 
#    0.000    2.909    0.000    0.000    0.000    0.000 
#
# Total GULP energy -245589.749546 kJ/mol
# GULP energy per Si atom -5581.585217 kJ/mol
# Density = 1.692520 g / cm^3
# Si number density = 16.963807 Si / 1000 Ang^3
#
#
#
# Elastic Constant Matrix: (Units=GPa)
#
#
# Indices 1 2 3 4 5 6 
#
# 1 123.8804 49.0048 28.6505 0.0000 0.0000 0.0000
# 2 49.0048 112.6709 9.4866 0.0000 0.0000 0.0000
# 3 28.6505 9.4866 26.4110 0.0000 0.0000 0.0000
# 4 0.0000 0.0000 0.0000 21.0495 0.0000 0.0000
# 5 0.0000 0.0000 0.0000 0.0000 17.5571 0.0000
# 6 0.0000 0.0000 0.0000 0.0000 0.0000 23.7707
#
#
#
# Elastic Compliance Matrix: (Units=1/GPa)
#
#
# Indices 1 2 3 4 5 6 
#
# 1 0.012645 -0.004480 -0.012108 0.000000 0.000000 0.000000
# 2 -0.004480 0.010740 0.001003 0.000000 0.000000 0.000000
# 3 -0.012108 0.001003 0.050637 0.000000 0.000000 0.000000
# 4 0.000000 0.000000 0.000000 0.047507 0.000000 0.000000
# 5 0.000000 0.000000 0.000000 0.000000 0.056957 0.000000
# 6 0.000000 0.000000 0.000000 0.000000 0.000000 0.042069
#
#
# Mechanical properties :
#
#
# Convention : Reuss Voigt Hill
#
# Bulk Modulus (GPa) = 23.33673 48.58292 35.95983
# Shear Modulus (GPa) = 18.79633 24.19680 21.49656
#
# Velocity S-wave (km/s) = 3.33231 3.78084 3.56364
# Velocity P-wave (km/s) = 5.34718 6.91093 6.17873
#
# Compressibility (1/GPa) = 0.04285090
#
# Stress axis : x y z
#
# Youngs Moduli (GPa) = 79.08348 93.11305 19.74824
#
# Poissons Ratio (x) = 0.41717 0.23911
# Poissons Ratio (y) = 0.35432 -0.01980
# Poissons Ratio (z) = 0.95753 -0.09335
#
# Static dielectric constant tensor:
#      x y z
#    x 1.586360 0.000000 0.000000 
#    y 0.000000 1.616630 0.000000 
#    z 0.000000 0.000000 1.581410 
# 
# From -- ./inp_files/42967.got.cif
#   From: 2010.05.17/outbox.cif.g08.bks.cpg/sg74_22_cif.got.tgz:42967.got - 2010.06.03 17:57:02.
