data_PCOD9534648
_publ_section_title
;
Structure prediction by ZEFSAII (Michael W. Deem and Ramdas Pophale) SiO2 
 PCOD9534648
Probable space group: I M M A
;
_chemical_formula_sum "Si O2"
_cell_formula_units_Z 72
_cell_length_a 20.546468
_cell_length_b 8.746780
_cell_length_c 20.268765
_cell_angle_alpha 90.000000
_cell_angle_beta 90.000000
_cell_angle_gamma 90.000000
_cell_volume 3642.609926
_symmetry_space_group_name_H-M "I M M A"
_symmetry_group_IT_number 74
_symmetry_cell_setting 'orthorhombic'
loop_
_space_group_symop_operation_xyz
x,y,z
-x,1/2-y,z
x,-y,-z
-x,1/2+y,-z
-x,-y,-z
x,1/2+y,-z
-x,y,z
x,1/2-y,z
1/2+x,1/2+y,1/2+z
1/2-x,-y,1/2+z
1/2+x,1/2-y,1/2-z
1/2-x,y,1/2-z
1/2-x,1/2-y,1/2-z
1/2+x,y,1/2-z
1/2-x,1/2+y,1/2+z
1/2+x,-y,1/2+z
loop_
_atom_site_type_symbol
_atom_site_label
_atom_site_fract_x
_atom_site_fract_y
_atom_site_fract_z
Si Si1 0.810445 0.065983 0.793078
Si Si2 0.363311 0.066475 0.573036
Si Si3 0.920865 0.575348 0.431931
Si Si4 0.500000 0.933652 0.574156
Si Si5 0.924806 0.432379 0.292120
O O1 0.810412 0.250000 0.790177
O O2 0.750000 0.008122 0.750000
O O3 0.811110 0.025626 0.870639
O O4 0.875648 0.007156 0.758682
O O5 0.369022 0.250000 0.567581
O O6 0.350995 0.000000 0.500000
O O7 0.431976 0.998959 0.599850
O O8 0.897672 0.500000 0.500000
O O9 0.898250 0.750000 0.426149
O O10 0.904960 0.482569 0.366080
O O11 0.000000 0.577768 0.435267
O O12 0.500000 0.750000 0.575689
O O13 0.500000 0.000000 0.500000
O O14 0.922636 0.250000 0.286567
O O15 0.000000 0.481413 0.281673
#
# Coordination Sequence:
#
# PCOD9534648 Si02
#       5
#    16  16  16   8  16
#     4  10  23  42  61  82 114 156 198 241 294 357
#     4  10  20  36  59  86 116 151 193 241 295 354
#     4   9  16  28  49  77 110 147 186 233 285 335
#     4  10  18  30  52  84 120 150 185 232 287 344
#     4  10  21  36  56  85 116 148 191 241 295 353
#
# _framework density 19.766047
#
# number of rings (size 3 to 8) (size 9 to 14) (size 15 to 20)
#    0.000    2.222    0.000    4.333    1.556    6.222 
#    0.000    1.111    0.000    2.667    0.000    0.000 
#    0.000    0.000    0.000    0.000    0.000    0.000 
#
# Total GULP energy -200860.647779 kJ/mol
# GULP energy per Si atom -5579.462438 kJ/mol
# Density = 1.972106 g / cm^3
# Si number density = 19.766047 Si / 1000 Ang^3
#
#
#
# Elastic Constant Matrix: (Units=GPa)
#
#
# Indices 1 2 3 4 5 6 
#
# 1 63.1086 21.4222 67.9119 0.0000 0.0000 0.0000
# 2 21.4222 38.5316 26.0504 0.0000 0.0000 0.0000
# 3 67.9119 26.0504 149.3638 0.0000 0.0000 0.0000
# 4 0.0000 0.0000 0.0000 29.8999 0.0000 0.0000
# 5 0.0000 0.0000 0.0000 0.0000 20.7227 0.0000
# 6 0.0000 0.0000 0.0000 0.0000 0.0000 13.1981
#
#
#
# Elastic Compliance Matrix: (Units=1/GPa)
#
#
# Indices 1 2 3 4 5 6 
#
# 1 0.033862 -0.009542 -0.013732 0.000000 0.000000 0.000000
# 2 -0.009542 0.032111 -0.001262 0.000000 0.000000 0.000000
# 3 -0.013732 -0.001262 0.013159 0.000000 0.000000 0.000000
# 4 0.000000 0.000000 0.000000 0.033445 0.000000 0.000000
# 5 0.000000 0.000000 0.000000 0.000000 0.048256 0.000000
# 6 0.000000 0.000000 0.000000 0.000000 0.000000 0.075768
#
#
# Mechanical properties :
#
#
# Convention : Reuss Voigt Hill
#
# Bulk Modulus (GPa) = 33.26714 53.53032 43.39873
# Shear Modulus (GPa) = 16.90945 21.80544 19.35745
#
# Velocity S-wave (km/s) = 2.92803 3.32501 3.13282
# Velocity P-wave (km/s) = 5.31960 6.47161 5.92367
#
# Compressibility (1/GPa) = 0.03005969
#
# Stress axis : x y z
#
# Youngs Moduli (GPa) = 29.53181 31.14200 75.99558
#
# Poissons Ratio (x) = 0.29716 1.04356
# Poissons Ratio (y) = 0.28180 0.09590
# Poissons Ratio (z) = 0.40553 0.03930
#
# Static dielectric constant tensor:
#      x y z
#    x 1.730070 0.000000 0.000000 
#    y 0.000000 1.666970 0.000000 
#    z 0.000000 0.000000 1.684300 
# 
# From -- ./inp_files/45792.got.cif
#   From: 2010.05.17/outbox.cif.g08.bks.cpg/sg74_23_cif.got.tgz:45792.got - 2010.06.03 17:57:02.
