data_PCOD9534695
_publ_section_title
;
Structure prediction by ZEFSAII (Michael W. Deem and Ramdas Pophale) SiO2 
 PCOD9534695
Probable space group: I M M A
;
_chemical_formula_sum "Si O2"
_cell_formula_units_Z 104
_cell_length_a 32.075387
_cell_length_b 7.782839
_cell_length_c 31.637864
_cell_angle_alpha 90.000000
_cell_angle_beta 90.000000
_cell_angle_gamma 90.000000
_cell_volume 7897.999580
_symmetry_space_group_name_H-M "I M M A"
_symmetry_group_IT_number 74
_symmetry_cell_setting 'orthorhombic'
loop_
_space_group_symop_operation_xyz
x,y,z
-x,1/2-y,z
x,-y,-z
-x,1/2+y,-z
-x,-y,-z
x,1/2+y,-z
-x,y,z
x,1/2-y,z
1/2+x,1/2+y,1/2+z
1/2-x,-y,1/2+z
1/2+x,1/2-y,1/2-z
1/2-x,y,1/2-z
1/2-x,1/2-y,1/2-z
1/2+x,y,1/2-z
1/2-x,1/2+y,1/2+z
1/2+x,-y,1/2+z
loop_
_atom_site_type_symbol
_atom_site_label
_atom_site_fract_x
_atom_site_fract_y
_atom_site_fract_z
Si Si1 0.298360 0.954386 0.864174
Si Si2 0.000000 0.044294 0.548256
Si Si3 0.920124 0.448224 0.403088
Si Si4 0.318702 0.750000 0.255125
Si Si5 0.951890 0.948047 0.313358
Si Si6 0.750597 0.250000 0.680177
Si Si7 0.136841 0.444288 0.288644
Si Si8 0.161266 0.955592 0.549130
O O1 0.289166 0.750000 0.861547
O O2 0.339954 0.981276 0.834273
O O3 0.306690 0.001145 0.913227
O O4 0.263165 0.079316 0.845640
O O5 0.000000 0.250000 0.556220
O O6 0.000000 0.000000 0.500000
O O7 0.040245 0.956622 0.567472
O O8 0.910304 0.250000 0.390582
O O9 0.935746 0.544938 0.361577
O O10 0.882189 0.521136 0.430807
O O11 0.295384 0.750000 0.299930
O O12 0.282517 0.750000 0.219637
O O13 0.345607 0.582058 0.244291
O O14 0.952517 0.750000 0.299436
O O15 0.000000 0.013569 0.310830
O O16 0.913235 0.041042 0.290749
O O17 0.148814 0.250000 0.277823
O O18 0.158449 0.750000 0.549501
O O19 0.168529 0.000000 0.500000
#
# Coordination Sequence:
#
# PCOD9534695 Si02
#       8
#    16   8  16   8  16   8  16  16
#     4   9  18  31  45  65  85 106 137 167 206 263
#     4  12  24  36  42  52  68  90 122 172 224 262
#     4  11  21  33  45  57  71  97 133 172 217 264
#     4   9  18  32  45  72  88  98 135 162 202 277
#     4  11  21  31  45  64  82 106 142 178 213 259
#     4   9  18  30  50  66  86 112 122 158 218 261
#     4  10  18  31  49  63  84 112 133 169 215 254
#     4  10  21  32  43  60  78 101 138 175 211 258
#
# _framework density 13.167892
#
# number of rings (size 3 to 8) (size 9 to 14) (size 15 to 20)
#    0.000    1.846    3.077    2.077    1.077    4.000 
#    0.000    3.077    0.000    0.000    0.000    0.000 
#    0.000    0.000    0.000    0.000    0.000    0.000 
#
# Total GULP energy -289536.346145 kJ/mol
# GULP energy per Si atom -5568.006657 kJ/mol
# Density = 1.313792 g / cm^3
# Si number density = 13.167892 Si / 1000 Ang^3
#
#
#
# Elastic Constant Matrix: (Units=GPa)
#
#
# Indices 1 2 3 4 5 6 
#
# 1 61.1400 29.9652 45.4737 0.0000 0.0000 0.0000
# 2 29.9652 61.0436 26.4444 0.0000 0.0000 0.0000
# 3 45.4737 26.4444 56.4863 0.0000 0.0000 0.0000
# 4 0.0000 0.0000 0.0000 11.4493 0.0000 0.0000
# 5 0.0000 0.0000 0.0000 0.0000 28.3175 0.0000
# 6 0.0000 0.0000 0.0000 0.0000 0.0000 9.1392
#
#
#
# Elastic Compliance Matrix: (Units=1/GPa)
#
#
# Indices 1 2 3 4 5 6 
#
# 1 0.043507 -0.007757 -0.031393 0.000000 0.000000 0.000000
# 2 -0.007757 0.021932 -0.004023 0.000000 0.000000 0.000000
# 3 -0.031393 -0.004023 0.044860 0.000000 0.000000 0.000000
# 4 0.000000 0.000000 0.000000 0.087342 0.000000 0.000000
# 5 0.000000 0.000000 0.000000 0.000000 0.035314 0.000000
# 6 0.000000 0.000000 0.000000 0.000000 0.000000 0.109419
#
#
# Mechanical properties :
#
#
# Convention : Reuss Voigt Hill
#
# Bulk Modulus (GPa) = 41.74982 42.49293 42.12137
# Shear Modulus (GPa) = 11.44942 14.90032 13.17487
#
# Velocity S-wave (km/s) = 2.95192 3.36752 3.16655
# Velocity P-wave (km/s) = 6.58734 6.88915 6.73994
#
# Compressibility (1/GPa) = 0.02395220
#
# Stress axis : x y z
#
# Youngs Moduli (GPa) = 22.98495 45.59487 22.29178
#
# Poissons Ratio (x) = 0.35368 0.69981
# Poissons Ratio (y) = 0.17829 0.08968
# Poissons Ratio (z) = 0.72157 0.18343
#
# Static dielectric constant tensor:
#      x y z
#    x 1.436430 0.000000 0.000000 
#    y 0.000000 1.488210 0.000000 
#    z 0.000000 0.000000 1.424070 
# 
# From -- ./inp_files/73931.got.cif
#   From: 2010.05.17/outbox.cif.g08.bks.cpg/sg74_37_cif.got.tgz:73931.got - 2010.06.03 17:57:02.
