data_PCOD9534277
_publ_section_title
;
Structure prediction by ZEFSAII (Michael W. Deem and Ramdas Pophale) SiO2 
 PCOD9534277
Probable space group: I M M A
;
_chemical_formula_sum "Si O2"
_cell_formula_units_Z 104
_cell_length_a 27.157913
_cell_length_b 7.307511
_cell_length_c 23.020300
_cell_angle_alpha 90.000000
_cell_angle_beta 90.000000
_cell_angle_gamma 90.000000
_cell_volume 4568.533876
_symmetry_space_group_name_H-M "I M M A"
_symmetry_group_IT_number 74
_symmetry_cell_setting 'orthorhombic'
loop_
_space_group_symop_operation_xyz
x,y,z
-x,1/2-y,z
x,-y,-z
-x,1/2+y,-z
-x,-y,-z
x,1/2+y,-z
-x,y,z
x,1/2-y,z
1/2+x,1/2+y,1/2+z
1/2-x,-y,1/2+z
1/2+x,1/2-y,1/2-z
1/2-x,y,1/2-z
1/2-x,1/2-y,1/2-z
1/2+x,y,1/2-z
1/2-x,1/2+y,1/2+z
1/2+x,-y,1/2+z
loop_
_atom_site_type_symbol
_atom_site_label
_atom_site_fract_x
_atom_site_fract_y
_atom_site_fract_z
Si Si1 0.790547 0.468597 0.931900
Si Si2 0.946149 0.532180 0.432213
Si Si3 0.120100 0.027171 0.666019
Si Si4 0.000000 0.466110 0.932783
Si Si5 0.104693 0.527628 0.112364
Si Si6 0.056336 0.971888 0.227096
Si Si7 0.731468 0.026583 0.814589
O O1 0.790738 0.250000 0.926871
O O2 0.846553 0.536332 0.920294
O O3 0.759420 0.531355 0.874656
O O4 0.775892 0.500000 0.000000
O O5 0.940523 0.500000 0.500000
O O6 0.947950 0.750000 0.422908
O O7 0.900158 0.465001 0.395824
O O8 0.000000 0.460256 0.414212
O O9 0.122227 0.250000 0.667873
O O10 0.078193 0.971681 0.711609
O O11 0.174832 0.967625 0.680166
O O12 0.947674 0.537937 0.911678
O O13 0.000000 0.250000 0.917540
O O14 0.000000 0.500000 0.000000
O O15 0.105664 0.750000 0.108211
O O16 0.097902 0.478675 0.179805
O O17 0.053733 0.750000 0.225909
O O18 0.000000 0.033891 0.215641
O O19 0.734085 0.250000 0.814537
O O20 0.750000 0.970499 0.750000
#
# Coordination Sequence:
#
# PCOD9534277 Si02
#       7
#    16  16  16   8  16  16  16
#     4  10  20  33  50  71  97 128 160 197 239 283
#     4   9  17  29  44  65  93 122 150 182 224 275
#     4   9  16  25  41  65  92 118 147 188 235 278
#     4  10  18  28  42  62  88 116 147 180 212 254
#     4   9  16  27  42  64  92 120 151 185 224 268
#     4   9  14  22  39  65  95 121 146 186 237 278
#     4   9  17  30  47  69  95 124 159 199 243 285
#
# _framework density 22.764415
#
# number of rings (size 3 to 8) (size 9 to 14) (size 15 to 20)
#    0.000    2.769    0.769    1.846    0.000    6.154 
#    0.000    0.000    0.000    0.462    0.000    4.308 
#    0.000    0.000    0.000    0.000    0.000    0.000 
#
# Total GULP energy -289904.039589 kJ/mol
# GULP energy per Si atom -5575.077684 kJ/mol
# Density = 2.271260 g / cm^3
# Si number density = 22.764415 Si / 1000 Ang^3
#
#
#
# Elastic Constant Matrix: (Units=GPa)
#
#
# Indices 1 2 3 4 5 6 
#
# 1 126.0686 4.2587 90.8481 0.0000 0.0000 0.0000
# 2 4.2587 91.8676 -2.6190 0.0000 0.0000 0.0000
# 3 90.8481 -2.6190 151.6535 0.0000 0.0000 0.0000
# 4 0.0000 0.0000 0.0000 3.1724 0.0000 0.0000
# 5 0.0000 0.0000 0.0000 0.0000 44.1521 0.0000
# 6 0.0000 0.0000 0.0000 0.0000 0.0000 -8.1383
#
#
#
# Elastic Compliance Matrix: (Units=1/GPa)
#
#
# Indices 1 2 3 4 5 6 
#
# 1 0.014030 -0.000890 -0.008420 0.000000 0.000000 0.000000
# 2 -0.000890 0.010947 0.000722 0.000000 0.000000 0.000000
# 3 -0.008420 0.000722 0.011650 0.000000 0.000000 0.000000
# 4 0.000000 0.000000 0.000000 0.315219 0.000000 0.000000
# 5 0.000000 0.000000 0.000000 0.000000 0.022649 0.000000
# 6 0.000000 0.000000 0.000000 0.000000 0.000000 -0.122876
#
#
# Mechanical properties :
#
#
# Convention : Reuss Voigt Hill
#
# Bulk Modulus (GPa) = 51.40976 61.61834 56.51405
# Shear Modulus (GPa) = 18.16340 26.31070 22.23705
#
# Velocity S-wave (km/s) = 2.82775 3.40337 3.12882
# Velocity P-wave (km/s) = 5.77009 6.52461 6.15891
#
# Compressibility (1/GPa) = 0.01945156
#
# Stress axis : x y z
#
# Youngs Moduli (GPa) = 71.27611 91.34837 85.83341
#
# Poissons Ratio (x) = 0.08134 0.72272
# Poissons Ratio (y) = 0.06347 -0.06201
# Poissons Ratio (z) = 0.60015 -0.06600
#
# Static dielectric constant tensor:
#      x y z
#    x 1.802270 0.000000 0.000000 
#    y 0.000000 1.852940 0.000000 
#    z 0.000000 0.000000 1.884460 
# 
# From -- ./inp_files/46696.got.cif
#   From: 2010.05.17/outbox.cif.g08.bks.cpg/sg74_24_cif.got.tgz:46696.got - 2010.06.03 17:57:02.
