data_PCOD9534710
_publ_section_title
;
Structure prediction by ZEFSAII (Michael W. Deem and Ramdas Pophale) SiO2 
 PCOD9534710
Probable space group: I M M A
;
_chemical_formula_sum "Si O2"
_cell_formula_units_Z 96
_cell_length_a 26.148346
_cell_length_b 8.647678
_cell_length_c 25.820014
_cell_angle_alpha 90.000000
_cell_angle_beta 90.000000
_cell_angle_gamma 90.000000
_cell_volume 5838.485507
_symmetry_space_group_name_H-M "I M M A"
_symmetry_group_IT_number 74
_symmetry_cell_setting 'orthorhombic'
loop_
_space_group_symop_operation_xyz
x,y,z
-x,1/2-y,z
x,-y,-z
-x,1/2+y,-z
-x,-y,-z
x,1/2+y,-z
-x,y,z
x,1/2-y,z
1/2+x,1/2+y,1/2+z
1/2-x,-y,1/2+z
1/2+x,1/2-y,1/2-z
1/2-x,y,1/2-z
1/2-x,1/2-y,1/2-z
1/2+x,y,1/2-z
1/2-x,1/2+y,1/2+z
1/2+x,-y,1/2+z
loop_
_atom_site_type_symbol
_atom_site_label
_atom_site_fract_x
_atom_site_fract_y
_atom_site_fract_z
Si Si1 0.251433 0.564992 0.058733
Si Si2 0.562037 0.928007 0.252136
Si Si3 0.058376 0.935455 0.861271
Si Si4 0.559945 0.937561 0.137258
Si Si5 0.358106 0.434465 0.058266
Si Si6 0.355478 0.436439 0.441646
O O1 0.251106 0.750000 0.058237
O O2 0.304831 0.502516 0.080731
O O3 0.198258 0.500181 0.080589
O O4 0.251567 0.500000 0.000000
O O5 0.500000 0.928975 0.250632
O O6 0.578486 0.750000 0.257150
O O7 0.577244 0.986656 0.195236
O O8 0.576635 0.017564 0.303899
O O9 0.056481 0.750000 0.863633
O O10 0.097611 0.987110 0.905398
O O11 0.000000 0.993911 0.868654
O O12 0.500000 0.977434 0.130412
O O13 0.563390 0.750000 0.135336
O O14 0.595303 0.011531 0.093897
O O15 0.354629 0.250000 0.055520
O O16 0.364544 0.500000 0.000000
O O17 0.361757 0.500000 0.500000
O O18 0.353209 0.250000 0.443723
#
# Coordination Sequence:
#
# PCOD9534710 Si02
#       6
#    16  16  16  16  16  16
#     4  10  18  31  50  69  91 121 159 198 236 279
#     4   8  15  29  49  70  92 122 160 197 231 273
#     4   9  18  31  47  69  98 129 159 194 236 281
#     4   9  18  33  51  72  99 128 158 194 235 279
#     4  11  21  33  50  72  98 127 159 194 235 281
#     4  10  19  31  47  69  97 127 160 197 237 280
#
# _framework density 16.442620000000002
#
# number of rings (size 3 to 8) (size 9 to 14) (size 15 to 20)
#    0.000    2.500    0.000    6.500    0.000    3.000 
#    0.000    1.667    0.000    1.000    0.000    7.000 
#    0.000    0.000    0.000    0.000    0.000    0.000 
#
# Total GULP energy -267406.867311 kJ/mol
# GULP energy per Si atom -5570.976402 kJ/mol
# Density = 1.640520 g / cm^3
# Si number density = 16.442620 Si / 1000 Ang^3
#
#
#
# Elastic Constant Matrix: (Units=GPa)
#
#
# Indices 1 2 3 4 5 6 
#
# 1 111.7968 42.9723 68.1844 0.0000 0.0000 0.0000
# 2 42.9723 73.3612 33.0405 0.0000 0.0000 0.0000
# 3 68.1844 33.0405 96.0181 0.0000 0.0000 0.0000
# 4 0.0000 0.0000 0.0000 24.3316 0.0000 0.0000
# 5 0.0000 0.0000 0.0000 0.0000 -2.7599 0.0000
# 6 0.0000 0.0000 0.0000 0.0000 0.0000 19.3442
#
#
#
# Elastic Compliance Matrix: (Units=1/GPa)
#
#
# Indices 1 2 3 4 5 6 
#
# 1 0.017471 -0.005498 -0.010514 0.000000 0.000000 0.000000
# 2 -0.005498 0.017862 -0.002242 0.000000 0.000000 0.000000
# 3 -0.010514 -0.002242 0.018653 0.000000 0.000000 0.000000
# 4 0.000000 0.000000 0.000000 0.041099 0.000000 0.000000
# 5 0.000000 0.000000 0.000000 0.000000 -0.362335 0.000000
# 6 0.000000 0.000000 0.000000 0.000000 0.000000 0.051695
#
#
# Mechanical properties :
#
#
# Convention : Reuss Voigt Hill
#
# Bulk Modulus (GPa) = 57.22144 63.28562 60.25353
# Shear Modulus (GPa) = -28.86480 17.31512 -5.77484
#
# Velocity S-wave (km/s) = -4.19440 3.24861 -1.87610
# Velocity P-wave (km/s) = 3.37919 7.25559 5.65962
#
# Compressibility (1/GPa) = 0.01747597
#
# Stress axis : x y z
#
# Youngs Moduli (GPa) = 57.23778 55.98608 53.61163
#
# Poissons Ratio (x) = 0.30783 0.56370
# Poissons Ratio (y) = 0.31471 0.12019
# Poissons Ratio (z) = 0.60183 0.12551
#
# Static dielectric constant tensor:
#      x y z
#    x 1.576320 0.000000 0.000000 
#    y 0.000000 1.557720 0.000000 
#    z 0.000000 0.000000 1.553890 
# 
# From -- ./inp_files/62255.got.cif
#   From: 2010.05.17/outbox.cif.g08.bks.cpg/sg74_32_cif.got.tgz:62255.got - 2010.06.03 17:57:02.
