data_PCOD9534262
_publ_section_title
;
Structure prediction by ZEFSAII (Michael W. Deem and Ramdas Pophale) SiO2 
 PCOD9534262
Probable space group: I M M A
;
_chemical_formula_sum "Si O2"
_cell_formula_units_Z 104
_cell_length_a 7.506289
_cell_length_b 27.193286
_cell_length_c 25.894540
_cell_angle_alpha 90.000000
_cell_angle_beta 90.000000
_cell_angle_gamma 90.000000
_cell_volume 5285.610688
_symmetry_space_group_name_H-M "I M M A"
_symmetry_group_IT_number 74
_symmetry_cell_setting 'orthorhombic'
loop_
_space_group_symop_operation_xyz
x,y,z
-x,1/2-y,z
x,-y,-z
-x,1/2+y,-z
-x,-y,-z
x,1/2+y,-z
-x,y,z
x,1/2-y,z
1/2+x,1/2+y,1/2+z
1/2-x,-y,1/2+z
1/2+x,1/2-y,1/2-z
1/2-x,y,1/2-z
1/2-x,1/2-y,1/2-z
1/2+x,y,1/2-z
1/2-x,1/2+y,1/2+z
1/2+x,-y,1/2+z
loop_
_atom_site_type_symbol
_atom_site_label
_atom_site_fract_x
_atom_site_fract_y
_atom_site_fract_z
Si Si1 0.796705 0.024071 0.873563
Si Si2 0.286033 0.439881 0.309552
Si Si3 0.717905 0.655012 0.626701
Si Si4 0.703384 0.888822 0.445028
Si Si5 0.801270 0.954048 0.537629
Si Si6 0.287252 0.250000 0.310381
Si Si7 0.781697 0.692999 0.985792
O O1 0.718120 0.071975 0.903441
O O2 0.000000 0.037451 0.861082
O O3 0.714718 0.994203 0.825650
O O4 0.797372 0.979037 0.914859
O O5 0.500000 0.442107 0.315253
O O6 0.250000 0.428365 0.250000
O O7 0.221892 0.395598 0.346600
O O8 0.500000 0.653601 0.626344
O O9 0.777560 0.700726 0.661812
O O10 0.772903 0.667084 0.568082
O O11 0.500000 0.880365 0.428744
O O12 0.702124 0.916278 0.500730
O O13 0.782516 0.836925 0.463497
O O14 0.000000 0.936785 0.551659
O O15 0.823403 0.000000 0.500000
O O16 0.500000 0.250000 0.317498
O O17 0.250000 0.250000 0.250000
O O18 0.728350 0.750000 0.985142
O O19 0.000000 0.692068 0.986673
#
# Coordination Sequence:
#
# PCOD9534262 Si02
#       7
#    16  16  16  16  16   8  16
#     4   9  17  29  43  61  85 111 139 173 215 261
#     4  10  20  32  45  61  83 110 142 180 220 258
#     4   9  16  27  41  59  81 106 137 174 213 247
#     4   9  16  26  43  64  86 112 140 171 209 256
#     4   9  16  25  39  61  86 111 140 172 205 247
#     4  10  18  28  42  56  72  98 138 182 213 238
#     4   9  15  25  43  67  89 110 141 176 209 251
#
# _framework density 19.676062000000002
#
# number of rings (size 3 to 8) (size 9 to 14) (size 15 to 20)
#    0.000    2.769    0.769    1.846    0.000    4.923 
#    0.000    0.000    0.000    1.385    0.000    0.000 
#    0.000    0.615    0.000    0.462    0.000    0.923 
#
# Total GULP energy -289496.243889 kJ/mol
# GULP energy per Si atom -5567.235459 kJ/mol
# Density = 1.963128 g / cm^3
# Si number density = 19.676062 Si / 1000 Ang^3
#
#
#
# Elastic Constant Matrix: (Units=GPa)
#
#
# Indices 1 2 3 4 5 6 
#
# 1 60.3130 4.9986 3.7790 0.0000 0.0000 0.0000
# 2 4.9986 147.4146 84.5316 0.0000 0.0000 0.0000
# 3 3.7790 84.5316 58.5293 0.0000 0.0000 0.0000
# 4 0.0000 0.0000 0.0000 36.7082 0.0000 0.0000
# 5 0.0000 0.0000 0.0000 0.0000 7.6668 0.0000
# 6 0.0000 0.0000 0.0000 0.0000 0.0000 15.2022
#
#
#
# Elastic Compliance Matrix: (Units=1/GPa)
#
#
# Indices 1 2 3 4 5 6 
#
# 1 0.016650 0.000302 -0.001511 0.000000 0.000000 0.000000
# 2 0.000302 0.039486 -0.057048 0.000000 0.000000 0.000000
# 3 -0.001511 -0.057048 0.099575 0.000000 0.000000 0.000000
# 4 0.000000 0.000000 0.000000 0.027242 0.000000 0.000000
# 5 0.000000 0.000000 0.000000 0.000000 0.130432 0.000000
# 6 0.000000 0.000000 0.000000 0.000000 0.000000 0.065780
#
#
# Mechanical properties :
#
#
# Convention : Reuss Voigt Hill
#
# Bulk Modulus (GPa) = 25.51208 50.31947 37.91577
# Shear Modulus (GPa) = 9.82811 23.44530 16.63671
#
# Velocity S-wave (km/s) = 2.23736 3.45565 2.91095
# Velocity P-wave (km/s) = 4.43493 6.44604 5.53263
#
# Compressibility (1/GPa) = 0.03919712
#
# Stress axis : x y z
#
# Youngs Moduli (GPa) = 60.06068 25.32530 10.04266
#
# Poissons Ratio (x) = -0.00765 0.01517
# Poissons Ratio (y) = -0.01813 0.57291
# Poissons Ratio (z) = 0.09075 1.44476
#
# Static dielectric constant tensor:
#      x y z
#    x 1.801690 0.000000 0.000000 
#    y 0.000000 1.757310 0.000000 
#    z 0.000000 0.000000 1.714900 
# 
# From -- ./inp_files/64978.got.cif
#   From: 2010.05.17/outbox.cif.g08.bks.cpg/sg74_33_cif.got.tgz:64978.got - 2010.06.03 17:57:02.
