data_PCOD9534761
_publ_section_title
;
Structure prediction by ZEFSAII (Michael W. Deem and Ramdas Pophale) SiO2 
 PCOD9534761
Probable space group: I M M A
;
_chemical_formula_sum "Si O2"
_cell_formula_units_Z 96
_cell_length_a 19.095605
_cell_length_b 14.278590
_cell_length_c 15.426469
_cell_angle_alpha 90.000000
_cell_angle_beta 90.000000
_cell_angle_gamma 90.000000
_cell_volume 4206.155038
_symmetry_space_group_name_H-M "I M M A"
_symmetry_group_IT_number 74
_symmetry_cell_setting 'orthorhombic'
loop_
_space_group_symop_operation_xyz
x,y,z
-x,1/2-y,z
x,-y,-z
-x,1/2+y,-z
-x,-y,-z
x,1/2+y,-z
-x,y,z
x,1/2-y,z
1/2+x,1/2+y,1/2+z
1/2-x,-y,1/2+z
1/2+x,1/2-y,1/2-z
1/2-x,y,1/2-z
1/2-x,1/2-y,1/2-z
1/2+x,y,1/2-z
1/2-x,1/2+y,1/2+z
1/2+x,-y,1/2+z
loop_
_atom_site_type_symbol
_atom_site_label
_atom_site_fract_x
_atom_site_fract_y
_atom_site_fract_z
Si Si1 0.654492 0.362074 0.812079
Si Si2 0.421068 0.635142 0.728486
Si Si3 0.190937 0.135621 0.872508
Si Si4 0.815139 0.143837 0.372865
Si Si5 0.165467 0.135368 0.064895
Si Si6 0.576621 0.390990 0.980514
O O1 0.660185 0.250000 0.806041
O O2 0.728386 0.392612 0.854679
O O3 0.649243 0.395430 0.713200
O O4 0.593684 0.380822 0.879725
O O5 0.500000 0.603335 0.747187
O O6 0.421742 0.750000 0.734272
O O7 0.364510 0.600432 0.799184
O O8 0.395205 0.610549 0.632154
O O9 0.190298 0.250000 0.875407
O O10 0.162600 0.103714 0.965257
O O11 0.800567 0.250000 0.343257
O O12 0.739684 0.102616 0.394823
O O13 0.861376 0.148244 0.460064
O O14 0.167657 0.250000 0.062675
O O15 0.500000 0.352786 0.002830
O O16 0.576161 0.500000 0.000000
#
# Coordination Sequence:
#
# PCOD9534761 Si02
#       6
#    16  16  16  16  16  16
#     4   9  16  30  52  75  98 127 167 211 254 304
#     4   9  17  27  42  69 104 136 163 200 251 297
#     4   8  14  26  50  78  97 121 159 207 261 299
#     4  10  18  31  52  74  94 128 175 213 245 297
#     4   9  15  26  47  74 101 129 163 207 253 298
#     4  11  23  35  48  70 104 139 166 207 266 314
#
# _framework density 22.823694
#
# number of rings (size 3 to 8) (size 9 to 14) (size 15 to 20)
#    0.000    2.667    1.667    2.500    0.000    4.000 
#    0.000    0.833    7.333    3.000    0.000    0.000 
#    0.000    4.667    0.000    0.000    0.000    0.000 
#
# Total GULP energy -268153.330185 kJ/mol
# GULP energy per Si atom -5586.527712 kJ/mol
# Density = 2.277175 g / cm^3
# Si number density = 22.823694 Si / 1000 Ang^3
#
#
#
# Elastic Constant Matrix: (Units=GPa)
#
#
# Indices 1 2 3 4 5 6 
#
# 1 44.5554 -9.5076 25.1028 0.0000 0.0000 0.0000
# 2 -9.5076 64.4729 3.3479 0.0000 0.0000 0.0000
# 3 25.1028 3.3479 153.5850 0.0000 0.0000 0.0000
# 4 0.0000 0.0000 0.0000 2.2472 0.0000 0.0000
# 5 0.0000 0.0000 0.0000 0.0000 66.0848 0.0000
# 6 0.0000 0.0000 0.0000 0.0000 0.0000 -7.7872
#
#
#
# Elastic Compliance Matrix: (Units=1/GPa)
#
#
# Indices 1 2 3 4 5 6 
#
# 1 0.025718 0.004015 -0.004291 0.000000 0.000000 0.000000
# 2 0.004015 0.016155 -0.001008 0.000000 0.000000 0.000000
# 3 -0.004291 -0.001008 0.007234 0.000000 0.000000 0.000000
# 4 0.000000 0.000000 0.000000 0.444992 0.000000 0.000000
# 5 0.000000 0.000000 0.000000 0.000000 0.015132 0.000000
# 6 0.000000 0.000000 0.000000 0.000000 0.000000 -0.128416
#
#
# Mechanical properties :
#
#
# Convention : Reuss Voigt Hill
#
# Bulk Modulus (GPa) = 21.48714 33.38885 27.43800
# Shear Modulus (GPa) = 12.53455 28.35364 20.44409
#
# Velocity S-wave (km/s) = 2.34602 3.52844 2.99614
# Velocity P-wave (km/s) = 4.09552 5.59112 4.90071
#
# Compressibility (1/GPa) = 0.04653947
#
# Stress axis : x y z
#
# Youngs Moduli (GPa) = 38.88261 61.90074 138.22853
#
# Poissons Ratio (x) = -0.24856 0.59315
# Poissons Ratio (y) = -0.15613 0.13940
# Poissons Ratio (z) = 0.16685 0.06242
#
# Static dielectric constant tensor:
#      x y z
#    x 1.799970 0.000000 0.000000 
#    y 0.000000 1.896470 0.000000 
#    z 0.000000 0.000000 1.861430 
# 
# From -- ./inp_files/32370.got.cif
#   From: 2010.05.17/outbox.cif.g08.bks.cpg/sg74_17_cif.got.tgz:32370.got - 2010.06.03 17:57:02.
