data_PCOD9534343
_publ_section_title
;
Structure prediction by ZEFSAII (Michael W. Deem and Ramdas Pophale) SiO2 
 PCOD9534343
Probable space group: I M M A
;
_chemical_formula_sum "Si O2"
_cell_formula_units_Z 116
_cell_length_a 27.229598
_cell_length_b 7.812331
_cell_length_c 27.928337
_cell_angle_alpha 90.000000
_cell_angle_beta 90.000000
_cell_angle_gamma 90.000000
_cell_volume 5941.101083
_symmetry_space_group_name_H-M "I M M A"
_symmetry_group_IT_number 74
_symmetry_cell_setting 'orthorhombic'
loop_
_space_group_symop_operation_xyz
x,y,z
-x,1/2-y,z
x,-y,-z
-x,1/2+y,-z
-x,-y,-z
x,1/2+y,-z
-x,y,z
x,1/2-y,z
1/2+x,1/2+y,1/2+z
1/2-x,-y,1/2+z
1/2+x,1/2-y,1/2-z
1/2-x,y,1/2-z
1/2-x,1/2-y,1/2-z
1/2+x,y,1/2-z
1/2-x,1/2+y,1/2+z
1/2+x,-y,1/2+z
loop_
_atom_site_type_symbol
_atom_site_label
_atom_site_fract_x
_atom_site_fract_y
_atom_site_fract_z
Si Si1 0.636610 0.045286 0.754916
Si Si2 0.713535 0.958880 0.320166
Si Si3 0.000000 0.250000 0.961733
Si Si4 0.555072 0.045378 0.321840
Si Si5 0.214815 0.551959 0.550663
Si Si6 0.677493 0.448675 0.577547
Si Si7 0.322503 0.543507 0.150653
Si Si8 0.925567 0.947693 0.933579
O O1 0.642021 0.250000 0.757963
O O2 0.684201 0.979647 0.725838
O O3 0.637870 0.984057 0.809940
O O4 0.591005 0.012885 0.720180
O O5 0.713420 0.750000 0.319470
O O6 0.684946 0.013279 0.367990
O O7 0.769735 0.008608 0.327005
O O8 0.042629 0.403014 0.957306
O O9 0.500000 0.975770 0.315728
O O10 0.553360 0.250000 0.318805
O O11 0.571113 0.008805 0.376398
O O12 0.192372 0.500000 0.500000
O O13 0.227139 0.750000 0.550106
O O14 0.267680 0.459838 0.556292
O O15 0.180170 0.518105 0.596175
O O16 0.663351 0.250000 0.579035
O O17 0.632130 0.545382 0.553965
O O18 0.323670 0.750000 0.147479
O O19 0.943635 0.750000 0.940229
#
# Coordination Sequence:
#
# PCOD9534343 Si02
#       8
#    16  16   4  16  16  16  16  16
#     4  10  18  28  48  71  98 137 178 211 252 304
#     4   8  14  25  45  68  97 134 170 200 242 301
#     4  12  22  32  52  70 102 142 180 228 284 306
#     4  10  21  33  44  64 100 140 182 227 263 299
#     4  11  22  37  56  77 103 132 167 214 263 316
#     4  10  18  32  53  77 104 135 169 214 267 314
#     4   9  18  32  48  73 103 133 168 209 254 315
#     4  11  21  33  49  74 104 136 181 227 268 318
#
# _framework density 19.524999999999999
#
# number of rings (size 3 to 8) (size 9 to 14) (size 15 to 20)
#    0.000    2.069    2.759    3.103    0.966    2.483 
#    0.000    0.000    0.000    2.483    0.000    0.483 
#    0.000    0.552    0.000    1.793    0.000    2.621 
#
# Total GULP energy -323234.038175 kJ/mol
# GULP energy per Si atom -5573.000658 kJ/mol
# Density = 1.948056 g / cm^3
# Si number density = 19.525000 Si / 1000 Ang^3
#
#
#
# Elastic Constant Matrix: (Units=GPa)
#
#
# Indices 1 2 3 4 5 6 
#
# 1 34.3364 9.6392 37.5487 0.0000 0.0000 0.0000
# 2 9.6392 74.0368 18.3302 0.0000 0.0000 0.0000
# 3 37.5487 18.3302 152.5573 0.0000 0.0000 0.0000
# 4 0.0000 0.0000 0.0000 19.5058 0.0000 0.0000
# 5 0.0000 0.0000 0.0000 0.0000 -3.7303 0.0000
# 6 0.0000 0.0000 0.0000 0.0000 0.0000 13.0876
#
#
#
# Elastic Compliance Matrix: (Units=1/GPa)
#
#
# Indices 1 2 3 4 5 6 
#
# 1 0.040439 -0.002887 -0.009606 0.000000 0.000000 0.000000
# 2 -0.002887 0.014127 -0.000987 0.000000 0.000000 0.000000
# 3 -0.009606 -0.000987 0.009038 0.000000 0.000000 0.000000
# 4 0.000000 0.000000 0.000000 0.051267 0.000000 0.000000
# 5 0.000000 0.000000 0.000000 0.000000 -0.268071 0.000000
# 6 0.000000 0.000000 0.000000 0.000000 0.000000 0.076408
#
#
# Mechanical properties :
#
#
# Convention : Reuss Voigt Hill
#
# Bulk Modulus (GPa) = 27.28951 43.55188 35.42069
# Shear Modulus (GPa) = -132.91598 18.80009 -57.05794
#
# Velocity S-wave (km/s) = -8.25969 3.10639 -5.41170
# Velocity P-wave (km/s) = 8.77248 5.93467 4.56815
#
# Compressibility (1/GPa) = 0.03664411
#
# Stress axis : x y z
#
# Youngs Moduli (GPa) = 24.72856 70.78666 110.64516
#
# Poissons Ratio (x) = 0.20433 1.06290
# Poissons Ratio (y) = 0.07138 0.10920
# Poissons Ratio (z) = 0.23755 0.06986
#
# Static dielectric constant tensor:
#      x y z
#    x 1.687000 0.000000 0.000000 
#    y 0.000000 1.714480 0.000000 
#    z 0.000000 0.000000 1.764110 
# 
# From -- ./inp_files/73985.got.cif
#   From: 2010.05.17/outbox.cif.g08.bks.cpg/sg74_37_cif.got.tgz:73985.got - 2010.06.03 17:57:02.
