data_PCOD9534130
_publ_section_title
;
Structure prediction by ZEFSAII (Michael W. Deem and Ramdas Pophale) SiO2 
 PCOD9534130
Probable space group: I M M A
;
_chemical_formula_sum "Si O2"
_cell_formula_units_Z 104
_cell_length_a 16.401553
_cell_length_b 12.566050
_cell_length_c 26.477082
_cell_angle_alpha 90.000000
_cell_angle_beta 90.000000
_cell_angle_gamma 90.000000
_cell_volume 5456.999017
_symmetry_space_group_name_H-M "I M M A"
_symmetry_group_IT_number 74
_symmetry_cell_setting 'orthorhombic'
loop_
_space_group_symop_operation_xyz
x,y,z
-x,1/2-y,z
x,-y,-z
-x,1/2+y,-z
-x,-y,-z
x,1/2+y,-z
-x,y,z
x,1/2-y,z
1/2+x,1/2+y,1/2+z
1/2-x,-y,1/2+z
1/2+x,1/2-y,1/2-z
1/2-x,y,1/2-z
1/2-x,1/2-y,1/2-z
1/2+x,y,1/2-z
1/2-x,1/2+y,1/2+z
1/2+x,-y,1/2+z
loop_
_atom_site_type_symbol
_atom_site_label
_atom_site_fract_x
_atom_site_fract_y
_atom_site_fract_z
Si Si1 0.098679 0.750000 0.783881
Si Si2 0.904201 0.123604 0.863709
Si Si3 0.098350 0.750000 0.900732
Si Si4 0.174703 0.466603 0.057711
Si Si5 0.098955 0.580764 0.699681
Si Si6 0.336811 0.868724 0.909915
Si Si7 0.400632 0.631323 0.249662
Si Si8 0.000000 0.377363 0.475508
O O1 0.127616 0.750000 0.841684
O O2 0.121585 0.649251 0.749175
O O3 0.000000 0.750000 0.786842
O O4 0.897433 0.250000 0.871760
O O5 0.874814 0.102317 0.806535
O O6 0.000000 0.095238 0.865609
O O7 0.858559 0.056762 0.905229
O O8 0.129388 0.643336 0.927930
O O9 0.000000 0.750000 0.900467
O O10 0.269658 0.449274 0.070039
O O11 0.162201 0.500000 0.000000
O O12 0.141382 0.618461 0.648848
O O13 0.121823 0.459277 0.710721
O O14 0.000000 0.590103 0.693796
O O15 0.303468 0.750000 0.917783
O O16 0.419599 0.878068 0.941304
O O17 0.500000 0.633909 0.251267
O O18 0.372206 0.750000 0.237230
O O19 0.000000 0.500000 0.500000
O O20 0.000000 0.250000 0.498582
#
# Coordination Sequence:
#
# PCOD9534130 Si02
#       8
#     8  16   8  16  16  16  16   8
#     4   9  18  31  59  93 124 155 199 252 314 367
#     4   9  19  38  64  89 117 161 213 250 299 376
#     4  11  24  43  63  92 128 163 208 257 308 383
#     4  12  26  42  61  86 123 161 203 266 327 356
#     4  10  17  31  60  93 122 159 203 244 307 375
#     4  11  22  41  63  91 125 163 211 261 324 389
#     4   8  15  30  54  85 122 159 196 244 301 364
#     4  10  22  42  70  94 122 168 230 282 328 390
#
# _framework density 19.058093
#
# number of rings (size 3 to 8) (size 9 to 14) (size 15 to 20)
#    0.000    2.000    2.308    2.769    1.077    3.692 
#    0.000    6.154    0.000    1.846    0.000    0.000 
#    0.000    0.000    0.000    0.000    0.000    0.000 
#
# Total GULP energy -290026.857660 kJ/mol
# GULP energy per Si atom -5577.439570 kJ/mol
# Density = 1.901472 g / cm^3
# Si number density = 19.058093 Si / 1000 Ang^3
#
#
#
# Elastic Constant Matrix: (Units=GPa)
#
#
# Indices 1 2 3 4 5 6 
#
# 1 44.2845 12.9503 10.5199 0.0000 0.0000 0.0000
# 2 12.9503 60.3368 48.0102 0.0000 0.0000 0.0000
# 3 10.5199 48.0102 83.0767 0.0000 0.0000 0.0000
# 4 0.0000 0.0000 0.0000 28.4451 0.0000 0.0000
# 5 0.0000 0.0000 0.0000 0.0000 17.7760 0.0000
# 6 0.0000 0.0000 0.0000 0.0000 0.0000 23.7078
#
#
#
# Elastic Compliance Matrix: (Units=1/GPa)
#
#
# Indices 1 2 3 4 5 6 
#
# 1 0.024094 -0.005079 -0.000116 0.000000 0.000000 0.000000
# 2 -0.005079 0.031754 -0.017707 0.000000 0.000000 0.000000
# 3 -0.000116 -0.017707 0.022285 0.000000 0.000000 0.000000
# 4 0.000000 0.000000 0.000000 0.035155 0.000000 0.000000
# 5 0.000000 0.000000 0.000000 0.000000 0.056255 0.000000
# 6 0.000000 0.000000 0.000000 0.000000 0.000000 0.042180
#
#
# Mechanical properties :
#
#
# Convention : Reuss Voigt Hill
#
# Bulk Modulus (GPa) = 30.93303 36.73988 33.83646
# Shear Modulus (GPa) = 18.63556 21.73362 20.18459
#
# Velocity S-wave (km/s) = 3.13042 3.38063 3.25793
# Velocity P-wave (km/s) = 5.41592 5.87859 5.65199
#
# Compressibility (1/GPa) = 0.03232790
#
# Stress axis : x y z
#
# Youngs Moduli (GPa) = 41.50387 31.49249 44.87367
#
# Poissons Ratio (x) = 0.15996 0.00519
# Poissons Ratio (y) = 0.21082 0.79459
# Poissons Ratio (z) = 0.00480 0.55765
#
# Static dielectric constant tensor:
#      x y z
#    x 1.669610 0.000000 0.000000 
#    y 0.000000 1.688270 0.000000 
#    z 0.000000 0.000000 1.626910 
# 
# From -- ./inp_files/67792.got.cif
#   From: 2010.05.17/outbox.cif.g08.bks.cpg/sg74_34_cif.got.tgz:67792.got - 2010.06.03 17:57:02.
