data_PCOD9534470
_publ_section_title
;
Structure prediction by ZEFSAII (Michael W. Deem and Ramdas Pophale) SiO2 
 PCOD9534470
Probable space group: I M M A
;
_chemical_formula_sum "Si O2"
_cell_formula_units_Z 80
_cell_length_a 14.387722
_cell_length_b 24.618951
_cell_length_c 9.698272
_cell_angle_alpha 90.000000
_cell_angle_beta 90.000000
_cell_angle_gamma 90.000000
_cell_volume 3435.230966
_symmetry_space_group_name_H-M "I M M A"
_symmetry_group_IT_number 74
_symmetry_cell_setting 'orthorhombic'
loop_
_space_group_symop_operation_xyz
x,y,z
-x,1/2-y,z
x,-y,-z
-x,1/2+y,-z
-x,-y,-z
x,1/2+y,-z
-x,y,z
x,1/2-y,z
1/2+x,1/2+y,1/2+z
1/2-x,-y,1/2+z
1/2+x,1/2-y,1/2-z
1/2-x,y,1/2-z
1/2-x,1/2-y,1/2-z
1/2+x,y,1/2-z
1/2-x,1/2+y,1/2+z
1/2+x,-y,1/2+z
loop_
_atom_site_type_symbol
_atom_site_label
_atom_site_fract_x
_atom_site_fract_y
_atom_site_fract_z
Si Si1 0.102108 0.636782 0.486139
Si Si2 0.814414 0.135294 0.967321
Si Si3 0.846747 0.750000 0.945730
Si Si4 0.100825 0.086108 0.224014
Si Si5 0.668667 0.025442 0.642117
Si Si6 0.628997 0.250000 0.132807
O O1 0.205717 0.635723 0.419872
O O2 0.110953 0.595402 0.614257
O O3 0.096566 0.695556 0.558715
O O4 0.000000 0.627160 0.417831
O O5 0.858037 0.195126 0.966125
O O6 0.824269 0.116799 0.128624
O O7 0.865645 0.086033 0.889485
O O8 0.739186 0.750000 0.897387
O O9 0.894523 0.750000 0.795355
O O10 0.000000 0.108836 0.183283
O O11 0.102356 0.022214 0.192824
O O12 0.750000 0.028975 0.750000
O O13 0.706901 0.000000 0.500000
#
# Coordination Sequence:
#
# PCOD9534470 Si02
#       6
#    16  16   8  16  16   8
#     4  10  18  29  50  81 113 144 178 222 275 330
#     4  10  19  33  51  73 111 144 180 223 278 326
#     4   9  16  28  49  76 104 147 178 221 265 319
#     4  10  19  31  52  78 105 141 185 228 276 329
#     4  10  21  37  58  79 107 146 186 229 282 329
#     4   9  15  26  48  76 114 142 179 214 271 319
#
# _framework density 23.2881
#
# number of rings (size 3 to 8) (size 9 to 14) (size 15 to 20)
#    0.000    2.200    2.000    3.300    0.000    3.600 
#    0.000    2.000    0.000    8.400    0.000    0.000 
#    0.000    6.400    0.000    0.000    0.000    0.000 
#
# Total GULP energy -222964.994924 kJ/mol
# GULP energy per Si atom -5574.124873 kJ/mol
# Density = 2.323510 g / cm^3
# Si number density = 23.288100 Si / 1000 Ang^3
#
#
#
# Elastic Constant Matrix: (Units=GPa)
#
#
# Indices 1 2 3 4 5 6 
#
# 1 73.5600 4.4206 -9.5360 0.0002 -0.0001 0.0000
# 2 4.4206 176.1697 24.3608 0.0002 0.0000 0.0000
# 3 -9.5360 24.3608 28.7703 0.0012 0.0001 -0.0002
# 4 0.0002 0.0002 0.0012 12.7444 0.0001 -0.0001
# 5 -0.0001 0.0000 0.0001 0.0001 6.0827 0.0001
# 6 0.0000 0.0000 -0.0002 -0.0001 0.0001 41.9023
#
#
#
# Elastic Compliance Matrix: (Units=1/GPa)
#
#
# Indices 1 2 3 4 5 6 
#
# 1 0.014410 -0.001158 0.005756 -0.000001 0.000000 0.000000
# 2 -0.001158 0.006522 -0.005906 0.000000 0.000000 0.000000
# 3 0.005756 -0.005906 0.041667 -0.000004 -0.000001 0.000000
# 4 -0.000001 0.000000 -0.000004 0.078466 -0.000001 0.000000
# 5 0.000000 0.000000 -0.000001 -0.000001 0.164400 0.000000
# 6 0.000000 0.000000 0.000000 0.000000 0.000000 0.023865
#
#
# Mechanical properties :
#
#
# Convention : Reuss Voigt Hill
#
# Bulk Modulus (GPa) = 16.67095 35.22121 25.94608
# Shear Modulus (GPa) = 14.20698 29.42953 21.81826
#
# Velocity S-wave (km/s) = 2.47261 3.55873 3.06418
# Velocity P-wave (km/s) = 3.91482 5.66066 4.86667
#
# Compressibility (1/GPa) = 0.05998459
#
# Stress axis : x y z
#
# Youngs Moduli (GPa) = 69.39553 153.32483 23.99983
#
# Poissons Ratio (x) = 0.17749 -0.13815
# Poissons Ratio (y) = 0.08033 0.14175
# Poissons Ratio (z) = -0.39947 0.90556
#
# Static dielectric constant tensor:
#      x y z
#    x 1.924490 0.000000 0.000000 
#    y 0.000000 1.903540 0.000000 
#    z 0.000000 0.000000 1.884740 
# 
# From -- ./inp_files/20533.got.cif
#   From: 2010.05.17/outbox.cif.g08.bks.cpg/sg74_11_cif.got.tgz:20533.got - 2010.06.03 17:57:02.
