data_PCOD9534193
_publ_section_title
;
Structure prediction by ZEFSAII (Michael W. Deem and Ramdas Pophale) SiO2 
 PCOD9534193
Probable space group: I M M A
;
_chemical_formula_sum "Si O2"
_cell_formula_units_Z 120
_cell_length_a 24.263543
_cell_length_b 14.497231
_cell_length_c 22.736914
_cell_angle_alpha 90.000000
_cell_angle_beta 90.000000
_cell_angle_gamma 90.000000
_cell_volume 7997.804716
_symmetry_space_group_name_H-M "I M M A"
_symmetry_group_IT_number 74
_symmetry_cell_setting 'orthorhombic'
loop_
_space_group_symop_operation_xyz
x,y,z
-x,1/2-y,z
x,-y,-z
-x,1/2+y,-z
-x,-y,-z
x,1/2+y,-z
-x,y,z
x,1/2-y,z
1/2+x,1/2+y,1/2+z
1/2-x,-y,1/2+z
1/2+x,1/2-y,1/2-z
1/2-x,y,1/2-z
1/2-x,1/2-y,1/2-z
1/2+x,y,1/2-z
1/2-x,1/2+y,1/2+z
1/2+x,-y,1/2+z
loop_
_atom_site_type_symbol
_atom_site_label
_atom_site_fract_x
_atom_site_fract_y
_atom_site_fract_z
Si Si1 0.250000 0.498903 0.250000
Si Si2 0.938231 0.139497 0.463105
Si Si3 0.322836 0.357396 0.323282
Si Si4 0.273998 0.143623 0.094358
Si Si5 0.060884 0.640882 0.777687
Si Si6 0.438027 0.525157 0.842036
Si Si7 0.677939 0.465052 0.853330
Si Si8 0.326921 0.640562 0.028468
O O1 0.293828 0.430212 0.280412
O O2 0.282502 0.557001 0.201046
O O3 0.933579 0.250000 0.452862
O O4 0.933371 0.086476 0.401301
O O5 0.888293 0.112908 0.506108
O O6 0.000000 0.121375 0.486911
O O7 0.314857 0.250000 0.304143
O O8 0.289037 0.365891 0.384187
O O9 0.387792 0.376819 0.320690
O O10 0.290866 0.250000 0.104608
O O11 0.309332 0.073078 0.133248
O O12 0.286770 0.122690 0.026668
O O13 0.061535 0.750000 0.764967
O O14 0.067733 0.587940 0.716110
O O15 0.000000 0.617578 0.801459
O O16 0.500000 0.485318 0.841810
O O17 0.386835 0.455789 0.841045
O O18 0.690300 0.411559 0.913090
O O19 0.327855 0.750000 0.039143
#
# Coordination Sequence:
#
# PCOD9534193 Si02
#       8
#     8  16  16  16  16  16  16  16
#     4  10  19  30  41  62  84 110 144 184 214 258
#     4   9  17  28  41  59  85 117 151 183 213 245
#     4   9  16  26  41  62  88 116 141 170 209 254
#     4   9  18  29  44  65  88 113 142 174 212 258
#     4   9  16  25  38  59  90 123 148 169 199 247
#     4  10  18  26  39  60  87 117 149 178 209 245
#     4  11  20  31  46  63  86 113 146 183 219 257
#     4  10  20  33  46  61  83 114 149 187 223 253
#
# _framework density 15.004117000000001
#
# number of rings (size 3 to 8) (size 9 to 14) (size 15 to 20)
#    0.000    2.400    2.667    1.000    0.000    3.200 
#    0.000    1.667    0.000    0.000    0.000    0.000 
#    0.000    9.600    0.000    2.267    0.000    0.667 
#
# Total GULP energy -334227.715233 kJ/mol
# GULP energy per Si atom -5570.461921 kJ/mol
# Density = 1.496997 g / cm^3
# Si number density = 15.004117 Si / 1000 Ang^3
#
#
#
# Elastic Constant Matrix: (Units=GPa)
#
#
# Indices 1 2 3 4 5 6 
#
# 1 90.8815 10.0228 51.2232 0.0000 0.0000 0.0000
# 2 10.0228 16.9190 15.5375 0.0000 0.0000 0.0000
# 3 51.2232 15.5375 78.1951 0.0000 0.0000 0.0000
# 4 0.0000 0.0000 0.0000 13.9068 0.0000 0.0000
# 5 0.0000 0.0000 0.0000 0.0000 18.9236 0.0000
# 6 0.0000 0.0000 0.0000 0.0000 0.0000 6.6976
#
#
#
# Elastic Compliance Matrix: (Units=1/GPa)
#
#
# Indices 1 2 3 4 5 6 
#
# 1 0.017444 0.000196 -0.011466 0.000000 0.000000 0.000000
# 2 0.000196 0.072300 -0.014494 0.000000 0.000000 0.000000
# 3 -0.011466 -0.014494 0.023180 0.000000 0.000000 0.000000
# 4 0.000000 0.000000 0.000000 0.071907 0.000000 0.000000
# 5 0.000000 0.000000 0.000000 0.000000 0.052844 0.000000
# 6 0.000000 0.000000 0.000000 0.000000 0.000000 0.149307
#
#
# Mechanical properties :
#
#
# Convention : Reuss Voigt Hill
#
# Bulk Modulus (GPa) = 16.28807 37.72917 27.00862
# Shear Modulus (GPa) = 10.89380 15.18642 13.04011
#
# Velocity S-wave (km/s) = 2.69746 3.18488 2.95125
# Velocity P-wave (km/s) = 4.53663 6.22295 5.44546
#
# Compressibility (1/GPa) = 0.06139464
#
# Stress axis : x y z
#
# Youngs Moduli (GPa) = 57.32494 13.83126 43.14107
#
# Poissons Ratio (x) = -0.00271 0.49467
# Poissons Ratio (y) = -0.01123 0.62531
# Poissons Ratio (z) = 0.65730 0.20048
#
# Static dielectric constant tensor:
#      x y z
#    x 1.541680 0.000000 0.000000 
#    y 0.000000 1.503360 0.000000 
#    z 0.000000 0.000000 1.489660 
# 
# From -- ./inp_files/54829.got.cif
#   From: 2010.05.17/outbox.cif.g08.bks.cpg/sg74_28_cif.got.tgz:54829.got - 2010.06.03 17:57:02.
