data_PCOD9534143
_publ_section_title
;
Structure prediction by ZEFSAII (Michael W. Deem and Ramdas Pophale) SiO2 
 PCOD9534143
Probable space group: I M M A
;
_chemical_formula_sum "Si O2"
_cell_formula_units_Z 72
_cell_length_a 25.783453
_cell_length_b 8.560791
_cell_length_c 16.947879
_cell_angle_alpha 90.000000
_cell_angle_beta 90.000000
_cell_angle_gamma 90.000000
_cell_volume 3740.850292
_symmetry_space_group_name_H-M "I M M A"
_symmetry_group_IT_number 74
_symmetry_cell_setting 'orthorhombic'
loop_
_space_group_symop_operation_xyz
x,y,z
-x,1/2-y,z
x,-y,-z
-x,1/2+y,-z
-x,-y,-z
x,1/2+y,-z
-x,y,z
x,1/2-y,z
1/2+x,1/2+y,1/2+z
1/2-x,-y,1/2+z
1/2+x,1/2-y,1/2-z
1/2-x,y,1/2-z
1/2-x,1/2-y,1/2-z
1/2+x,y,1/2-z
1/2-x,1/2+y,1/2+z
1/2+x,-y,1/2+z
loop_
_atom_site_type_symbol
_atom_site_label
_atom_site_fract_x
_atom_site_fract_y
_atom_site_fract_z
Si Si1 0.059494 0.073835 0.643743
Si Si2 0.208548 0.435395 0.620684
Si Si3 0.170708 0.564457 0.086400
Si Si4 0.870355 0.000000 0.500000
Si Si5 0.856143 0.068538 0.247424
O O1 0.060622 0.250000 0.676229
O O2 0.089431 0.080042 0.560054
O O3 0.000000 0.025010 0.633234
O O4 0.091967 0.966196 0.702725
O O5 0.198437 0.250000 0.602266
O O6 0.268294 0.467363 0.604328
O O7 0.172486 0.547309 0.566183
O O8 0.188659 0.468440 0.708648
O O9 0.163474 0.750000 0.088368
O O10 0.139695 0.485437 0.157500
O O11 0.158373 0.500000 0.000000
O O12 0.842709 0.250000 0.251122
#
# Coordination Sequence:
#
# PCOD9534143 Si02
#       5
#    16  16  16   8  16
#     4  10  22  40  60  82 112 153 197 240 290 344
#     4  10  21  36  54  79 115 157 194 231 278 336
#     4  11  22  38  58  82 114 150 192 237 285 339
#     4  10  17  32  54  86 118 150 189 232 274 330
#     4  11  23  37  56  83 113 148 192 238 288 341
#
# _framework density 19.246960999999999
#
# number of rings (size 3 to 8) (size 9 to 14) (size 15 to 20)
#    0.000    1.556    1.111    5.667    0.000   12.000 
#    0.000    0.000    0.000    0.667    0.000    0.000 
#    0.000    0.000    0.000    0.000    0.000    0.000 
#
# Total GULP energy -200547.027701 kJ/mol
# GULP energy per Si atom -5570.750769 kJ/mol
# Density = 1.920315 g / cm^3
# Si number density = 19.246961 Si / 1000 Ang^3
#
#
#
# Elastic Constant Matrix: (Units=GPa)
#
#
# Indices 1 2 3 4 5 6 
#
# 1 64.4086 23.6279 19.2066 0.0000 0.0000 0.0000
# 2 23.6279 69.8069 31.2738 0.0000 0.0000 0.0000
# 3 19.2066 31.2738 128.6622 0.0000 0.0000 0.0000
# 4 0.0000 0.0000 0.0000 23.4108 0.0000 0.0000
# 5 0.0000 0.0000 0.0000 0.0000 16.9803 0.0000
# 6 0.0000 0.0000 0.0000 0.0000 0.0000 12.1018
#
#
#
# Elastic Compliance Matrix: (Units=1/GPa)
#
#
# Indices 1 2 3 4 5 6 
#
# 1 0.017933 -0.005466 -0.001348 0.000000 0.000000 0.000000
# 2 -0.005466 0.017742 -0.003497 0.000000 0.000000 0.000000
# 3 -0.001348 -0.003497 0.008823 0.000000 0.000000 0.000000
# 4 0.000000 0.000000 0.000000 0.042715 0.000000 0.000000
# 5 0.000000 0.000000 0.000000 0.000000 0.058892 0.000000
# 6 0.000000 0.000000 0.000000 0.000000 0.000000 0.082633
#
#
# Mechanical properties :
#
#
# Convention : Reuss Voigt Hill
#
# Bulk Modulus (GPa) = 41.88183 45.67714 43.77949
# Shear Modulus (GPa) = 19.43118 23.08320 21.25719
#
# Velocity S-wave (km/s) = 3.18082 3.46687 3.32692
# Velocity P-wave (km/s) = 5.94118 6.30946 6.12809
#
# Compressibility (1/GPa) = 0.02387670
#
# Stress axis : x y z
#
# Youngs Moduli (GPa) = 55.76290 56.36429 113.33385
#
# Poissons Ratio (x) = 0.30808 0.15283
# Poissons Ratio (y) = 0.30479 0.39628
# Poissons Ratio (z) = 0.07519 0.19708
#
# Static dielectric constant tensor:
#      x y z
#    x 1.664840 0.000000 0.000000 
#    y 0.000000 1.696340 0.000000 
#    z 0.000000 0.000000 1.689860 
# 
# From -- ./inp_files/29399.got.cif
#   From: 2010.05.17/outbox.cif.g08.bks.cpg/sg74_15_cif.got.tgz:29399.got - 2010.06.03 17:57:02.
