data_PCOD9534129
_publ_section_title
;
Structure prediction by ZEFSAII (Michael W. Deem and Ramdas Pophale) SiO2 
 PCOD9534129
Probable space group: I M M A
;
_chemical_formula_sum "Si O2"
_cell_formula_units_Z 56
_cell_length_a 14.506685
_cell_length_b 22.921848
_cell_length_c 9.131430
_cell_angle_alpha 90.000000
_cell_angle_beta 90.000000
_cell_angle_gamma 90.000000
_cell_volume 3036.383364
_symmetry_space_group_name_H-M "I M M A"
_symmetry_group_IT_number 74
_symmetry_cell_setting 'orthorhombic'
loop_
_space_group_symop_operation_xyz
x,y,z
-x,1/2-y,z
x,-y,-z
-x,1/2+y,-z
-x,-y,-z
x,1/2+y,-z
-x,y,z
x,1/2-y,z
1/2+x,1/2+y,1/2+z
1/2-x,-y,1/2+z
1/2+x,1/2-y,1/2-z
1/2-x,y,1/2-z
1/2-x,1/2-y,1/2-z
1/2+x,y,1/2-z
1/2-x,1/2+y,1/2+z
1/2+x,-y,1/2+z
loop_
_atom_site_type_symbol
_atom_site_label
_atom_site_fract_x
_atom_site_fract_y
_atom_site_fract_z
Si Si1 0.852430 0.250000 0.690873
Si Si2 0.265121 0.750000 0.576088
Si Si3 0.000000 0.930577 0.004848
Si Si4 0.000000 0.847805 0.282450
Si Si5 0.000000 0.819731 0.609135
Si Si6 0.654881 0.863120 0.669051
O O1 0.750000 0.250000 0.750000
O O2 0.826359 0.250000 0.519232
O O3 0.911171 0.194006 0.736645
O O4 0.250000 0.750000 0.750000
O O5 0.319558 0.689649 0.557804
O O6 0.000000 0.900274 0.166431
O O7 0.908511 0.908341 0.918822
O O8 0.000000 0.000000 0.000000
O O9 0.000000 0.856774 0.458553
O O10 0.911722 0.836880 0.706197
O O11 0.000000 0.750000 0.582552
O O12 0.750000 0.882765 0.750000
#
# Coordination Sequence:
#
# PCOD9534129 Si02
#       6
#     8   8   8   8   8  16
#     4  11  21  32  52  90 126 149 181 239 324 387
#     4  10  17  31  59  92 127 152 185 240 311 385
#     4  11  26  46  60  82 123 173 223 262 300 353
#     4  11  22  36  56  85 129 154 190 254 318 370
#     4  11  19  35  58  96 132 159 191 246 317 393
#     4  10  21  38  65  92 122 165 209 250 307 382
#
# _framework density 18.442993999999999
#
# number of rings (size 3 to 8) (size 9 to 14) (size 15 to 20)
#    0.000    1.429    2.857    5.143    0.000    1.143 
#    0.000   10.000    0.000    0.000    0.000    0.000 
#    0.000    0.000    0.000    0.000    0.000    0.000 
#
# Total GULP energy -156059.083255 kJ/mol
# GULP energy per Si atom -5573.538688 kJ/mol
# Density = 1.840102 g / cm^3
# Si number density = 18.442994 Si / 1000 Ang^3
#
#
#
# Elastic Constant Matrix: (Units=GPa)
#
#
# Indices 1 2 3 4 5 6 
#
# 1 170.8979 63.5545 56.1046 0.0000 0.0000 0.0000
# 2 63.5545 147.4857 60.1670 0.0000 0.0000 0.0000
# 3 56.1046 60.1670 124.9075 0.0000 0.0001 0.0001
# 4 0.0000 0.0000 0.0000 13.5595 0.0000 0.0000
# 5 0.0000 0.0000 0.0001 0.0000 40.5978 0.0000
# 6 0.0000 0.0000 0.0001 0.0000 0.0000 18.7737
#
#
#
# Elastic Compliance Matrix: (Units=1/GPa)
#
#
# Indices 1 2 3 4 5 6 
#
# 1 0.007438 -0.002293 -0.002237 0.000000 0.000000 0.000000
# 2 -0.002293 0.009145 -0.003375 0.000000 0.000000 0.000000
# 3 -0.002237 -0.003375 0.010636 0.000000 0.000000 0.000000
# 4 0.000000 0.000000 0.000000 0.073749 0.000000 0.000000
# 5 0.000000 0.000000 0.000000 0.000000 0.024632 0.000000
# 6 0.000000 0.000000 0.000000 0.000000 0.000000 0.053266
#
#
# Mechanical properties :
#
#
# Convention : Reuss Voigt Hill
#
# Bulk Modulus (GPa) = 87.63915 89.21591 88.42753
# Shear Modulus (GPa) = 25.19139 32.15052 28.67095
#
# Velocity S-wave (km/s) = 3.69983 4.17974 3.94708
# Velocity P-wave (km/s) = 8.11626 8.47187 8.29597
#
# Compressibility (1/GPa) = 0.01141043
#
# Stress axis : x y z
#
# Youngs Moduli (GPa) = 134.43712 109.34504 94.01656
#
# Poissons Ratio (x) = 0.25072 0.21028
# Poissons Ratio (y) = 0.30825 0.31734
# Poissons Ratio (z) = 0.30069 0.36908
#
# Static dielectric constant tensor:
#      x y z
#    x 1.690200 0.000000 0.000000 
#    y 0.000000 1.640200 0.000000 
#    z 0.000000 0.000000 1.779030 
# 
# From -- ./inp_files/8518.got.cif
#   From: 2010.05.17/outbox.cif.g08.bks.cpg/sg74_5_cif.got.tgz:8518.got - 2010.06.03 17:57:02.
