data_PCOD9534588
_publ_section_title
;
Structure prediction by ZEFSAII (Michael W. Deem and Ramdas Pophale) SiO2 
 PCOD9534588
Probable space group: I M M A
;
_chemical_formula_sum "Si O2"
_cell_formula_units_Z 72
_cell_length_a 8.846752
_cell_length_b 16.040107
_cell_length_c 29.003775
_cell_angle_alpha 90.000000
_cell_angle_beta 90.000000
_cell_angle_gamma 90.000000
_cell_volume 4115.718295
_symmetry_space_group_name_H-M "I M M A"
_symmetry_group_IT_number 74
_symmetry_cell_setting 'orthorhombic'
loop_
_space_group_symop_operation_xyz
x,y,z
-x,1/2-y,z
x,-y,-z
-x,1/2+y,-z
-x,-y,-z
x,1/2+y,-z
-x,y,z
x,1/2-y,z
1/2+x,1/2+y,1/2+z
1/2-x,-y,1/2+z
1/2+x,1/2-y,1/2-z
1/2-x,y,1/2-z
1/2-x,1/2-y,1/2-z
1/2+x,y,1/2-z
1/2-x,1/2+y,1/2+z
1/2+x,-y,1/2+z
loop_
_atom_site_type_symbol
_atom_site_label
_atom_site_fract_x
_atom_site_fract_y
_atom_site_fract_z
Si Si1 0.318639 0.750000 0.198291
Si Si2 0.180739 0.578261 0.199431
Si Si3 0.679647 0.502185 0.607197
Si Si4 0.181572 0.156351 0.446313
Si Si5 0.818059 0.844543 0.444877
O O1 0.500000 0.750000 0.198156
O O2 0.250000 0.750000 0.250000
O O3 0.254358 0.663488 0.179501
O O4 0.250000 0.562748 0.250000
O O5 0.212688 0.507746 0.161674
O O6 0.000000 0.590009 0.203830
O O7 0.500000 0.503174 0.601743
O O8 0.748219 0.583826 0.584010
O O9 0.743241 0.419865 0.582221
O O10 0.230186 0.250000 0.432941
O O11 0.216691 0.145573 0.500641
O O12 0.000000 0.152434 0.442550
O O13 0.772566 0.750000 0.431114
O O14 0.000000 0.849272 0.439590
#
# Coordination Sequence:
#
# PCOD9534588 Si02
#       5
#     8  16  16  16  16
#     4  10  18  30  50  72  96 132 172 208 252 304
#     4  10  21  36  51  72 104 138 174 216 259 308
#     4  11  23  34  51  80 110 138 172 218 267 313
#     4   9  19  37  58  78 103 137 178 220 258 306
#     4   9  19  35  54  78 108 142 179 214 250 304
#
# _framework density 17.493908999999999
#
# number of rings (size 3 to 8) (size 9 to 14) (size 15 to 20)
#    0.000    2.222    0.000    5.667    1.556    8.000 
#    0.000    2.222    0.000    0.667    0.000    0.000 
#    0.000    0.000    0.000    0.000    0.000    0.000 
#
# Total GULP energy -200896.691716 kJ/mol
# GULP energy per Si atom -5580.463659 kJ/mol
# Density = 1.745409 g / cm^3
# Si number density = 17.493909 Si / 1000 Ang^3
#
#
#
# Elastic Constant Matrix: (Units=GPa)
#
#
# Indices 1 2 3 4 5 6 
#
# 1 58.9903 46.4794 49.5152 0.0000 0.0000 0.0000
# 2 46.4794 134.1268 89.3011 0.0000 0.0000 0.0000
# 3 49.5152 89.3011 98.4688 0.0000 0.0000 0.0000
# 4 0.0000 0.0000 0.0000 30.1366 0.0000 0.0000
# 5 0.0000 0.0000 0.0000 0.0000 25.2189 0.0000
# 6 0.0000 0.0000 0.0000 0.0000 0.0000 9.8488
#
#
#
# Elastic Compliance Matrix: (Units=1/GPa)
#
#
# Indices 1 2 3 4 5 6 
#
# 1 0.029373 -0.000870 -0.013981 0.000000 0.000000 0.000000
# 2 -0.000870 0.018844 -0.016652 0.000000 0.000000 0.000000
# 3 -0.013981 -0.016652 0.032288 0.000000 0.000000 0.000000
# 4 0.000000 0.000000 0.000000 0.033182 0.000000 0.000000
# 5 0.000000 0.000000 0.000000 0.000000 0.039653 0.000000
# 6 0.000000 0.000000 0.000000 0.000000 0.000000 0.101535
#
#
# Mechanical properties :
#
#
# Convention : Reuss Voigt Hill
#
# Bulk Modulus (GPa) = 57.14933 73.57527 65.36230
# Shear Modulus (GPa) = 15.44572 20.12687 17.78629
#
# Velocity S-wave (km/s) = 2.97462 3.39559 3.19205
# Velocity P-wave (km/s) = 6.67359 7.58435 7.14350
#
# Compressibility (1/GPa) = 0.01749802
#
# Stress axis : x y z
#
# Youngs Moduli (GPa) = 34.04482 53.06718 30.97157
#
# Poissons Ratio (x) = 0.04618 0.43302
# Poissons Ratio (y) = 0.02962 0.51574
# Poissons Ratio (z) = 0.47599 0.88368
#
# Static dielectric constant tensor:
#      x y z
#    x 1.582720 0.000000 0.000000 
#    y 0.000000 1.597630 0.000000 
#    z 0.000000 0.000000 1.655630 
# 
# From -- ./inp_files/63629.got.cif
#   From: 2010.05.17/outbox.cif.g08.bks.cpg/sg74_32_cif.got.tgz:63629.got - 2010.06.03 17:57:02.
