data_PCOD9534990
_publ_section_title
;
Structure prediction by ZEFSAII (Michael W. Deem and Ramdas Pophale) SiO2 
 PCOD9534990
Probable space group: I M M A
;
_chemical_formula_sum "Si O2"
_cell_formula_units_Z 96
_cell_length_a 10.939412
_cell_length_b 14.910112
_cell_length_c 31.729265
_cell_angle_alpha 90.000000
_cell_angle_beta 90.000000
_cell_angle_gamma 90.000000
_cell_volume 5175.292454
_symmetry_space_group_name_H-M "I M M A"
_symmetry_group_IT_number 74
_symmetry_cell_setting 'orthorhombic'
loop_
_space_group_symop_operation_xyz
x,y,z
-x,1/2-y,z
x,-y,-z
-x,1/2+y,-z
-x,-y,-z
x,1/2+y,-z
-x,y,z
x,1/2-y,z
1/2+x,1/2+y,1/2+z
1/2-x,-y,1/2+z
1/2+x,1/2-y,1/2-z
1/2-x,y,1/2-z
1/2-x,1/2-y,1/2-z
1/2+x,y,1/2-z
1/2-x,1/2+y,1/2+z
1/2+x,-y,1/2+z
loop_
_atom_site_type_symbol
_atom_site_label
_atom_site_fract_x
_atom_site_fract_y
_atom_site_fract_z
Si Si1 0.500000 0.056391 0.297721
Si Si2 0.365143 0.646978 0.476900
Si Si3 0.135787 0.977505 0.596521
Si Si4 0.500000 0.351530 0.681939
Si Si5 0.686700 0.500000 0.000000
Si Si6 0.000000 0.143046 0.294013
Si Si7 0.740837 0.142151 0.342087
Si Si8 0.727920 0.349492 0.618535
O O1 0.500000 0.094905 0.250800
O O2 0.622272 0.093998 0.321442
O O3 0.500000 0.947581 0.294900
O O4 0.500000 0.611630 0.484623
O O5 0.359107 0.750000 0.489536
O O6 0.267709 0.588503 0.500286
O O7 0.337160 0.643032 0.427074
O O8 0.129769 0.997698 0.546507
O O9 0.177629 0.069120 0.619484
O O10 0.000000 0.949731 0.608994
O O11 0.231048 0.902404 0.612283
O O12 0.500000 0.250000 0.701945
O O13 0.621221 0.354954 0.652879
O O14 0.131333 0.124118 0.316725
O O15 0.000000 0.250000 0.287515
O O16 0.722718 0.250000 0.343673
O O17 0.784598 0.250000 0.620950
#
# Coordination Sequence:
#
# PCOD9534990 Si02
#       8
#     8  16  16   8   8   8  16  16
#     4  12  22  38  66  98 125 155 203 261 300 364
#     4   9  16  29  49  73 102 139 184 234 291 351
#     4  11  22  38  57  80 114 156 205 249 305 363
#     4  10  18  32  58  90 120 152 184 225 292 359
#     4  10  22  34  52  76 110 153 197 248 294 357
#     4  10  22  42  66  91 123 166 207 249 308 373
#     4  11  23  40  63  92 124 163 205 252 312 369
#     4   9  17  32  55  80 108 142 188 239 287 350
#
# _framework density 18.549676999999999
#
# number of rings (size 3 to 8) (size 9 to 14) (size 15 to 20)
#    0.000    1.833    3.333    1.750    0.000    2.333 
#    1.500    0.000    0.000    6.000    0.000    0.000 
#    0.000    0.000    0.000    0.000    0.000    0.000 
#
# Total GULP energy -267242.871606 kJ/mol
# GULP energy per Si atom -5567.559825 kJ/mol
# Density = 1.850746 g / cm^3
# Si number density = 18.549677 Si / 1000 Ang^3
#
#
#
# Elastic Constant Matrix: (Units=GPa)
#
#
# Indices 1 2 3 4 5 6 
#
# 1 82.0298 38.5694 25.4658 0.0000 0.0000 0.0000
# 2 38.5694 74.7715 25.8940 0.0000 0.0000 0.0000
# 3 25.4658 25.8940 57.7906 0.0000 0.0000 0.0000
# 4 0.0000 0.0000 0.0000 28.9022 0.0000 0.0000
# 5 0.0000 0.0000 0.0000 0.0000 28.3726 0.0000
# 6 0.0000 0.0000 0.0000 0.0000 0.0000 23.3653
#
#
#
# Elastic Compliance Matrix: (Units=1/GPa)
#
#
# Indices 1 2 3 4 5 6 
#
# 1 0.016912 -0.007271 -0.004194 0.000000 0.000000 0.000000
# 2 -0.007271 0.018957 -0.005290 0.000000 0.000000 0.000000
# 3 -0.004194 -0.005290 0.021522 0.000000 0.000000 0.000000
# 4 0.000000 0.000000 0.000000 0.034599 0.000000 0.000000
# 5 0.000000 0.000000 0.000000 0.000000 0.035245 0.000000
# 6 0.000000 0.000000 0.000000 0.000000 0.000000 0.042798
#
#
# Mechanical properties :
#
#
# Convention : Reuss Voigt Hill
#
# Bulk Modulus (GPa) = 41.87561 43.82782 42.85171
# Shear Modulus (GPa) = 23.64026 24.43888 24.03957
#
# Velocity S-wave (km/s) = 3.57379 3.63365 3.60384
# Velocity P-wave (km/s) = 6.29707 6.42520 6.36146
#
# Compressibility (1/GPa) = 0.02388025
#
# Stress axis : x y z
#
# Youngs Moduli (GPa) = 59.13131 52.75223 46.46350
#
# Poissons Ratio (x) = 0.38356 0.19488
# Poissons Ratio (y) = 0.42994 0.24578
# Poissons Ratio (z) = 0.24802 0.27905
#
# Static dielectric constant tensor:
#      x y z
#    x 1.637330 0.000000 0.000000 
#    y 0.000000 1.655910 0.000000 
#    z 0.000000 0.000000 1.667370 
# 
# From -- ./inp_files/71846.got.cif
#   From: 2010.05.17/outbox.cif.g08.bks.cpg/sg74_36_cif.got.tgz:71846.got - 2010.06.03 17:57:02.
