data_PCOD9534549
_publ_section_title
;
Structure prediction by ZEFSAII (Michael W. Deem and Ramdas Pophale) SiO2 
 PCOD9534549
Probable space group: I M M A
;
_chemical_formula_sum "Si O2"
_cell_formula_units_Z 120
_cell_length_a 7.468148
_cell_length_b 22.227611
_cell_length_c 37.089544
_cell_angle_alpha 90.000000
_cell_angle_beta 90.000000
_cell_angle_gamma 90.000000
_cell_volume 6156.830502
_symmetry_space_group_name_H-M "I M M A"
_symmetry_group_IT_number 74
_symmetry_cell_setting 'orthorhombic'
loop_
_space_group_symop_operation_xyz
x,y,z
-x,1/2-y,z
x,-y,-z
-x,1/2+y,-z
-x,-y,-z
x,1/2+y,-z
-x,y,z
x,1/2-y,z
1/2+x,1/2+y,1/2+z
1/2-x,-y,1/2+z
1/2+x,1/2-y,1/2-z
1/2-x,y,1/2-z
1/2-x,1/2-y,1/2-z
1/2+x,y,1/2-z
1/2-x,1/2+y,1/2+z
1/2+x,-y,1/2+z
loop_
_atom_site_type_symbol
_atom_site_label
_atom_site_fract_x
_atom_site_fract_y
_atom_site_fract_z
Si Si1 0.281456 0.063253 0.359426
Si Si2 0.213411 0.505813 0.208640
Si Si3 0.288371 0.183705 0.018822
Si Si4 0.218831 0.126781 0.829833
Si Si5 0.783811 0.557900 0.099677
Si Si6 0.785259 0.250000 0.792964
Si Si7 0.783542 0.683752 0.896490
Si Si8 0.709140 0.062582 0.984120
O O1 0.500000 0.065007 0.359825
O O2 0.217780 0.127133 0.373758
O O3 0.221624 0.044089 0.319548
O O4 0.229495 0.007523 0.385068
O O5 0.250000 0.493955 0.250000
O O6 0.278066 0.571369 0.195579
O O7 0.000000 0.508064 0.204233
O O8 0.500000 0.185892 0.010345
O O9 0.277574 0.250000 0.115559
O O10 0.268001 0.176641 0.061745
O O11 0.211801 0.124301 0.000046
O O12 0.272456 0.107582 0.870496
O O13 0.280670 0.189739 0.813112
O O14 0.000000 0.128069 0.829790
O O15 0.720256 0.565022 0.059017
O O16 0.000000 0.558991 0.098949
O O17 0.750000 0.250000 0.750000
O O18 0.000000 0.250000 0.796542
O O19 0.786004 0.750000 0.990847
O O20 0.000000 0.683537 0.895112
O O21 0.500000 0.062522 0.995027
O O22 0.785606 0.000000 0.000000
#
# Coordination Sequence:
#
# PCOD9534549 Si02
#       8
#    16  16  16  16  16   8  16  16
#     4   8  15  28  45  64  89 116 138 171 220 264
#     4   9  16  28  45  64  87 114 143 173 210 256
#     4   9  18  32  46  61  87 120 145 170 218 272
#     4   8  16  30  46  64  88 117 145 179 223 265
#     4   9  17  31  48  65  86 116 152 181 217 266
#     4  10  18  30  48  68  92 118 148 186 228 268
#     4   9  16  27  46  69  87 106 141 184 216 248
#     4  10  20  32  46  66  91 117 147 185 226 264
#
# _framework density 19.490549000000001
#
# number of rings (size 3 to 8) (size 9 to 14) (size 15 to 20)
#    0.000    3.067    0.000    2.800    0.000    0.800 
#    1.200    4.000    0.000    0.400    0.000    0.000 
#    0.000    0.000    0.000    0.000    0.000    0.000 
#
# Total GULP energy -334532.245476 kJ/mol
# GULP energy per Si atom -5575.537425 kJ/mol
# Density = 1.944619 g / cm^3
# Si number density = 19.490549 Si / 1000 Ang^3
#
#
#
# Elastic Constant Matrix: (Units=GPa)
#
#
# Indices 1 2 3 4 5 6 
#
# 1 54.6837 8.3389 -9.1295 0.0000 0.0000 0.0000
# 2 8.3389 212.5039 114.8014 0.0000 0.0000 0.0000
# 3 -9.1295 114.8014 122.9997 0.0000 0.0000 0.0000
# 4 0.0000 0.0000 0.0000 22.8271 0.0000 0.0000
# 5 0.0000 0.0000 0.0000 0.0000 20.6191 0.0000
# 6 0.0000 0.0000 0.0000 0.0000 0.0000 3.9670
#
#
#
# Elastic Compliance Matrix: (Units=1/GPa)
#
#
# Indices 1 2 3 4 5 6 
#
# 1 0.019490 -0.003119 0.004358 0.000000 0.000000 0.000000
# 2 -0.003119 0.009991 -0.009557 0.000000 0.000000 0.000000
# 3 0.004358 -0.009557 0.017373 0.000000 0.000000 0.000000
# 4 0.000000 0.000000 0.000000 0.043808 0.000000 0.000000
# 5 0.000000 0.000000 0.000000 0.000000 0.048499 0.000000
# 6 0.000000 0.000000 0.000000 0.000000 0.000000 0.252081
#
#
# Mechanical properties :
#
#
# Convention : Reuss Voigt Hill
#
# Bulk Modulus (GPa) = 33.09218 68.68988 50.89103
# Shear Modulus (GPa) = 11.96315 27.89439 19.92877
#
# Velocity S-wave (km/s) = 2.48017 3.78719 3.20110
# Velocity P-wave (km/s) = 5.02166 7.37855 6.31110
#
# Compressibility (1/GPa) = 0.03021862
#
# Stress axis : x y z
#
# Youngs Moduli (GPa) = 51.30801 100.09086 57.56028
#
# Poissons Ratio (x) = 0.31219 -0.25083
# Poissons Ratio (y) = 0.16003 0.55008
# Poissons Ratio (z) = -0.22359 0.95652
#
# Static dielectric constant tensor:
#      x y z
#    x 1.811630 0.000000 0.000000 
#    y 0.000000 1.703960 0.000000 
#    z 0.000000 0.000000 1.649370 
# 
# From -- ./inp_files/68429.got.cif
#   From: 2010.05.17/outbox.cif.g08.bks.cpg/sg74_35_cif.got.tgz:68429.got - 2010.06.03 17:57:02.
