data_PCOD9534467
_publ_section_title
;
Structure prediction by ZEFSAII (Michael W. Deem and Ramdas Pophale) SiO2 
 PCOD9534467
Probable space group: I M M A
;
_chemical_formula_sum "Si O2"
_cell_formula_units_Z 112
_cell_length_a 14.360568
_cell_length_b 24.418553
_cell_length_c 17.754788
_cell_angle_alpha 90.000000
_cell_angle_beta 90.000000
_cell_angle_gamma 90.000000
_cell_volume 6225.970143
_symmetry_space_group_name_H-M "I M M A"
_symmetry_group_IT_number 74
_symmetry_cell_setting 'orthorhombic'
loop_
_space_group_symop_operation_xyz
x,y,z
-x,1/2-y,z
x,-y,-z
-x,1/2+y,-z
-x,-y,-z
x,1/2+y,-z
-x,y,z
x,1/2-y,z
1/2+x,1/2+y,1/2+z
1/2-x,-y,1/2+z
1/2+x,1/2-y,1/2-z
1/2-x,y,1/2-z
1/2-x,1/2-y,1/2-z
1/2+x,y,1/2-z
1/2-x,1/2+y,1/2+z
1/2+x,-y,1/2+z
loop_
_atom_site_type_symbol
_atom_site_label
_atom_site_fract_x
_atom_site_fract_y
_atom_site_fract_z
Si Si1 0.500000 0.184742 0.888511
Si Si2 0.829013 0.877129 0.461248
Si Si3 0.890917 0.988693 0.394213
Si Si4 0.193806 0.130873 0.826086
Si Si5 0.000000 0.184567 0.788772
Si Si6 0.892189 0.397280 0.215179
Si Si7 0.103145 0.471645 0.776554
Si Si8 0.796340 0.894394 0.629657
O O1 0.500000 0.250000 0.893692
O O2 0.587145 0.158377 0.929588
O O3 0.500000 0.169993 0.800120
O O4 0.856131 0.941598 0.450217
O O5 0.745635 0.861956 0.404686
O O6 0.812417 0.866922 0.549158
O O7 0.892315 0.959808 0.312231
O O8 0.000000 0.004787 0.408724
O O9 0.824830 0.041571 0.384742
O O10 0.250000 0.147929 0.750000
O O11 0.094410 0.160322 0.823082
O O12 0.176169 0.065739 0.818142
O O13 0.000000 0.250000 0.795435
O O14 0.886623 0.463606 0.216389
O O15 0.861688 0.378403 0.299153
O O16 0.809212 0.383397 0.157522
O O17 0.000000 0.382380 0.198964
O O18 0.000000 0.457206 0.804107
#
# Coordination Sequence:
#
# PCOD9534467 Si02
#       8
#     8  16  16  16   8  16  16  16
#     4  11  24  40  57  81 110 137 178 234 281 316
#     4  12  23  34  55  82 112 140 179 227 275 325
#     4  10  18  29  50  79 112 148 182 224 260 307
#     4  12  21  34  55  78 103 145 184 224 269 319
#     4  11  24  42  58  77 103 139 189 232 270 322
#     4   9  19  35  53  76 111 152 183 216 256 314
#     4   9  16  29  49  70 105 148 188 215 248 302
#     4  10  21  33  51  83 114 144 183 217 267 319
#
# _framework density 17.989163999999999
#
# number of rings (size 3 to 8) (size 9 to 14) (size 15 to 20)
#    0.000    1.571    4.286    2.571    4.000    1.429 
#    1.286    0.000    0.000    2.571    0.000    2.000 
#    0.000    0.000    0.000    0.000    0.000    0.000 
#
# Total GULP energy -312339.854225 kJ/mol
# GULP energy per Si atom -5577.497397 kJ/mol
# Density = 1.794822 g / cm^3
# Si number density = 17.989164 Si / 1000 Ang^3
#
#
#
# Elastic Constant Matrix: (Units=GPa)
#
#
# Indices 1 2 3 4 5 6 
#
# 1 151.8603 22.6516 64.2356 -0.0001 0.0000 0.0000
# 2 22.6516 22.1062 20.3765 -0.0001 0.0000 0.0000
# 3 64.2356 20.3765 109.2450 -0.0001 0.0001 0.0000
# 4 -0.0001 -0.0001 -0.0001 12.9734 0.0000 0.0000
# 5 0.0000 0.0000 0.0001 0.0000 24.6961 0.0000
# 6 0.0000 0.0000 0.0000 0.0000 0.0000 1.7717
#
#
#
# Elastic Compliance Matrix: (Units=1/GPa)
#
#
# Indices 1 2 3 4 5 6 
#
# 1 0.009270 -0.005404 -0.004443 0.000000 0.000000 0.000000
# 2 -0.005404 0.057778 -0.007600 0.000000 0.000000 0.000000
# 3 -0.004443 -0.007600 0.013184 0.000000 0.000000 0.000000
# 4 0.000000 0.000000 0.000000 0.077081 0.000000 0.000000
# 5 0.000000 0.000000 0.000000 0.000000 0.040492 0.000000
# 6 0.000000 0.000000 0.000000 0.000000 0.000000 0.564425
#
#
# Mechanical properties :
#
#
# Convention : Reuss Voigt Hill
#
# Bulk Modulus (GPa) = 22.05571 55.30432 38.68001
# Shear Modulus (GPa) = 6.15585 19.61810 12.88697
#
# Velocity S-wave (km/s) = 1.85187 3.30593 2.67942
# Velocity P-wave (km/s) = 4.10606 6.73662 5.57861
#
# Compressibility (1/GPa) = 0.04533974
#
# Stress axis : x y z
#
# Youngs Moduli (GPa) = 107.87039 17.30758 75.85122
#
# Poissons Ratio (x) = 0.09352 0.33701
# Poissons Ratio (y) = 0.58290 0.57643
# Poissons Ratio (z) = 0.47927 0.13153
#
# Static dielectric constant tensor:
#      x y z
#    x 1.518960 0.000000 0.000000 
#    y 0.000000 1.615240 0.000000 
#    z 0.000000 0.000000 1.624250 
# 
# From -- ./inp_files/32993.got.cif
#   From: 2010.05.17/outbox.cif.g08.bks.cpg/sg74_17_cif.got.tgz:32993.got - 2010.06.03 17:57:02.
