data_PCOD9534957
_publ_section_title
;
Structure prediction by ZEFSAII (Michael W. Deem and Ramdas Pophale) SiO2 
 PCOD9534957
Probable space group: I M M A
;
_chemical_formula_sum "Si O2"
_cell_formula_units_Z 120
_cell_length_a 27.732992
_cell_length_b 8.648717
_cell_length_c 28.533265
_cell_angle_alpha 90.000000
_cell_angle_beta 90.000000
_cell_angle_gamma 90.000000
_cell_volume 6843.840552
_symmetry_space_group_name_H-M "I M M A"
_symmetry_group_IT_number 74
_symmetry_cell_setting 'orthorhombic'
loop_
_space_group_symop_operation_xyz
x,y,z
-x,1/2-y,z
x,-y,-z
-x,1/2+y,-z
-x,-y,-z
x,1/2+y,-z
-x,y,z
x,1/2-y,z
1/2+x,1/2+y,1/2+z
1/2-x,-y,1/2+z
1/2+x,1/2-y,1/2-z
1/2-x,y,1/2-z
1/2-x,1/2-y,1/2-z
1/2+x,y,1/2-z
1/2-x,1/2+y,1/2+z
1/2+x,-y,1/2+z
loop_
_atom_site_type_symbol
_atom_site_label
_atom_site_fract_x
_atom_site_fract_y
_atom_site_fract_z
Si Si1 0.554487 0.063915 0.637048
Si Si2 0.146221 0.064551 0.804415
Si Si3 0.610557 0.433394 0.449676
Si Si4 0.297648 0.935254 0.398267
Si Si5 0.305048 0.936798 0.885395
Si Si6 0.297657 0.435586 0.222353
Si Si7 0.398149 0.563521 0.946900
Si Si8 0.000000 0.564669 0.446844
O O1 0.500000 0.021102 0.648546
O O2 0.557186 0.250000 0.631107
O O3 0.593558 0.022819 0.676379
O O4 0.572543 0.987647 0.589244
O O5 0.149243 0.250000 0.799450
O O6 0.183570 0.018636 0.846016
O O7 0.159231 0.985110 0.756073
O O8 0.597620 0.500000 0.500000
O O9 0.613143 0.250000 0.451150
O O10 0.662287 0.500150 0.433456
O O11 0.297942 0.750000 0.400373
O O12 0.244493 0.999222 0.406922
O O13 0.303151 0.750000 0.885676
O O14 0.304404 0.990269 0.830961
O O15 0.352710 0.981507 0.914422
O O16 0.294206 0.250000 0.220444
O O17 0.250000 0.494375 0.250000
O O18 0.401070 0.750000 0.949007
O O19 0.449114 0.498231 0.927483
O O20 0.391652 0.500000 0.000000
O O21 0.000000 0.500000 0.500000
O O22 0.000000 0.750000 0.446963
#
# Coordination Sequence:
#
# PCOD9534957 Si02
#       8
#    16  16  16  16  16  16  16   8
#     4   9  19  37  58  79 105 138 178 224 273 327
#     4   9  18  32  52  78 103 135 175 216 266 318
#     4  11  22  36  54  76 106 141 181 225 271 323
#     4  10  20  34  52  75 105 140 177 216 265 322
#     4  10  21  35  52  79 110 143 178 219 267 314
#     4  10  19  32  53  78 106 139 177 217 260 310
#     4  10  20  35  55  78 107 140 176 214 260 311
#     4  10  18  32  56  80 102 130 172 212 254 304
#
# _framework density 17.534013999999999
#
# number of rings (size 3 to 8) (size 9 to 14) (size 15 to 20)
#    0.000    2.133    1.333    4.200    0.000    5.067 
#    0.000    1.333    1.467    0.000    0.000    0.000 
#    0.000    0.000    0.000    0.000    0.000    0.000 
#
# Total GULP energy -334732.746685 kJ/mol
# GULP energy per Si atom -5578.879111 kJ/mol
# Density = 1.749411 g / cm^3
# Si number density = 17.534014 Si / 1000 Ang^3
#
#
#
# Elastic Constant Matrix: (Units=GPa)
#
#
# Indices 1 2 3 4 5 6 
#
# 1 147.4652 35.5979 38.6864 0.0000 0.0000 0.0000
# 2 35.5979 30.6938 16.8922 0.0000 0.0000 0.0000
# 3 38.6864 16.8922 62.4505 0.0000 0.0000 0.0000
# 4 0.0000 0.0000 0.0000 24.6869 0.0000 0.0000
# 5 0.0000 0.0000 0.0000 0.0000 13.2668 0.0000
# 6 0.0000 0.0000 0.0000 0.0000 0.0000 26.9870
#
#
#
# Elastic Compliance Matrix: (Units=1/GPa)
#
#
# Indices 1 2 3 4 5 6 
#
# 1 0.010068 -0.009687 -0.003617 0.000000 0.000000 0.000000
# 2 -0.009687 0.047597 -0.006874 0.000000 0.000000 0.000000
# 3 -0.003617 -0.006874 0.020113 0.000000 0.000000 0.000000
# 4 0.000000 0.000000 0.000000 0.040507 0.000000 0.000000
# 5 0.000000 0.000000 0.000000 0.000000 0.075376 0.000000
# 6 0.000000 0.000000 0.000000 0.000000 0.000000 0.037055
#
#
# Mechanical properties :
#
#
# Convention : Reuss Voigt Hill
#
# Bulk Modulus (GPa) = 26.72139 46.99582 36.85861
# Shear Modulus (GPa) = 17.63382 22.95035 20.29208
#
# Velocity S-wave (km/s) = 3.17470 3.62180 3.40560
# Velocity P-wave (km/s) = 5.35828 6.65964 6.04409
#
# Compressibility (1/GPa) = 0.03742320
#
# Stress axis : x y z
#
# Youngs Moduli (GPa) = 99.31982 21.00966 49.71987
#
# Poissons Ratio (x) = 0.20351 0.17984
# Poissons Ratio (y) = 0.96207 0.34177
# Poissons Ratio (z) = 0.35924 0.14442
#
# Static dielectric constant tensor:
#      x y z
#    x 1.610000 0.000000 0.000000 
#    y 0.000000 1.592600 0.000000 
#    z 0.000000 0.000000 1.585120 
# 
# From -- ./inp_files/69014.got.cif
#   From: 2010.05.17/outbox.cif.g08.bks.cpg/sg74_35_cif.got.tgz:69014.got - 2010.06.03 17:57:02.
