data_PCOD9534380
_publ_section_title
;
Structure prediction by ZEFSAII (Michael W. Deem and Ramdas Pophale) SiO2 
 PCOD9534380
Probable space group: I M M A
;
_chemical_formula_sum "Si O2"
_cell_formula_units_Z 80
_cell_length_a 20.629352
_cell_length_b 7.725652
_cell_length_c 26.309990
_cell_angle_alpha 90.000000
_cell_angle_beta 90.000000
_cell_angle_gamma 90.000000
_cell_volume 4193.159775
_symmetry_space_group_name_H-M "I M M A"
_symmetry_group_IT_number 74
_symmetry_cell_setting 'orthorhombic'
loop_
_space_group_symop_operation_xyz
x,y,z
-x,1/2-y,z
x,-y,-z
-x,1/2+y,-z
-x,-y,-z
x,1/2+y,-z
-x,y,z
x,1/2-y,z
1/2+x,1/2+y,1/2+z
1/2-x,-y,1/2+z
1/2+x,1/2-y,1/2-z
1/2-x,y,1/2-z
1/2-x,1/2-y,1/2-z
1/2+x,y,1/2-z
1/2-x,1/2+y,1/2+z
1/2+x,-y,1/2+z
loop_
_atom_site_type_symbol
_atom_site_label
_atom_site_fract_x
_atom_site_fract_y
_atom_site_fract_z
Si Si1 0.244101 0.538957 0.831446
Si Si2 0.000000 0.561941 0.364917
Si Si3 0.248628 0.957559 0.944415
Si Si4 0.500000 0.942603 0.758860
Si Si5 0.897203 0.956287 0.555259
Si Si6 0.355194 0.461475 0.242446
O O1 0.245962 0.750000 0.832134
O O2 0.226130 0.481106 0.888561
O O3 0.314438 0.485176 0.808142
O O4 0.190254 0.490179 0.789960
O O5 0.061434 0.539427 0.400760
O O6 0.000000 0.750000 0.340656
O O7 0.000000 0.428419 0.319793
O O8 0.248509 0.750000 0.942544
O O9 0.323294 0.018910 0.945296
O O10 0.219246 0.000000 0.000000
O O11 0.500000 0.750000 0.735047
O O12 0.571103 0.023323 0.749324
O O13 0.898010 0.750000 0.562577
O O14 0.924821 0.000000 0.500000
O O15 0.358644 0.250000 0.240208
#
# Coordination Sequence:
#
# PCOD9534380 Si02
#       6
#    16   8  16   8  16  16
#     4   8  13  24  41  63  88 113 137 169 214 261
#     4  12  23  31  40  56  81 115 147 176 208 250
#     4   9  17  28  44  64  86 110 139 174 214 255
#     4  10  18  29  45  66  85 105 138 180 219 256
#     4  10  19  31  44  59  80 109 144 181 214 247
#     4   8  14  24  42  65  87 108 137 176 218 258
#
# _framework density 19.078692
#
# number of rings (size 3 to 8) (size 9 to 14) (size 15 to 20)
#    0.000    2.800    0.000    4.200    0.000    4.000 
#    0.000    0.000    0.000    1.200    0.000    4.900 
#    0.000    0.000    0.000    0.000    0.000    0.000 
#
# Total GULP energy -222765.265674 kJ/mol
# GULP energy per Si atom -5569.131642 kJ/mol
# Density = 1.903527 g / cm^3
# Si number density = 19.078692 Si / 1000 Ang^3
#
#
#
# Elastic Constant Matrix: (Units=GPa)
#
#
# Indices 1 2 3 4 5 6 
#
# 1 94.9779 1.3864 35.7014 0.0000 0.0000 0.0000
# 2 1.3864 39.7454 1.9651 0.0000 0.0000 0.0000
# 3 35.7014 1.9651 131.5768 0.0000 0.0000 0.0000
# 4 0.0000 0.0000 0.0000 14.4130 0.0000 0.0000
# 5 0.0000 0.0000 0.0000 0.0000 23.8890 0.0000
# 6 0.0000 0.0000 0.0000 0.0000 0.0000 -9.2458
#
#
#
# Elastic Compliance Matrix: (Units=1/GPa)
#
#
# Indices 1 2 3 4 5 6 
#
# 1 0.011727 -0.000252 -0.003178 0.000000 0.000000 0.000000
# 2 -0.000252 0.025184 -0.000308 0.000000 0.000000 0.000000
# 3 -0.003178 -0.000308 0.008467 0.000000 0.000000 0.000000
# 4 0.000000 0.000000 0.000000 0.069382 0.000000 0.000000
# 5 0.000000 0.000000 0.000000 0.000000 0.041860 0.000000
# 6 0.000000 0.000000 0.000000 0.000000 0.000000 -0.108158
#
#
# Mechanical properties :
#
#
# Convention : Reuss Voigt Hill
#
# Bulk Modulus (GPa) = 26.38348 38.26733 32.32541
# Shear Modulus (GPa) = 72.91517 20.96107 46.93812
#
# Velocity S-wave (km/s) = 6.18879 3.31821 4.96546
# Velocity P-wave (km/s) = 8.05772 5.89761 7.06076
#
# Compressibility (1/GPa) = 0.03790250
#
# Stress axis : x y z
#
# Youngs Moduli (GPa) = 85.27253 39.70756 118.10446
#
# Poissons Ratio (x) = 0.01000 0.37536
# Poissons Ratio (y) = 0.02148 0.03635
# Poissons Ratio (z) = 0.27101 0.01222
#
# Static dielectric constant tensor:
#      x y z
#    x 1.675560 0.000000 0.000000 
#    y 0.000000 1.729330 0.000000 
#    z 0.000000 0.000000 1.690690 
# 
# From -- ./inp_files/64188.got.cif
#   From: 2010.05.17/outbox.cif.g08.bks.cpg/sg74_33_cif.got.tgz:64188.got - 2010.06.03 17:57:02.
