data_PCOD9534336
_publ_section_title
;
Structure prediction by ZEFSAII (Michael W. Deem and Ramdas Pophale) SiO2 
 PCOD9534336
Probable space group: I M M A
;
_chemical_formula_sum "Si O2"
_cell_formula_units_Z 72
_cell_length_a 16.342413
_cell_length_b 9.084015
_cell_length_c 27.934612
_cell_angle_alpha 90.000000
_cell_angle_beta 90.000000
_cell_angle_gamma 90.000000
_cell_volume 4147.025138
_symmetry_space_group_name_H-M "I M M A"
_symmetry_group_IT_number 74
_symmetry_cell_setting 'orthorhombic'
loop_
_space_group_symop_operation_xyz
x,y,z
-x,1/2-y,z
x,-y,-z
-x,1/2+y,-z
-x,-y,-z
x,1/2+y,-z
-x,y,z
x,1/2-y,z
1/2+x,1/2+y,1/2+z
1/2-x,-y,1/2+z
1/2+x,1/2-y,1/2-z
1/2-x,y,1/2-z
1/2-x,1/2-y,1/2-z
1/2+x,y,1/2-z
1/2-x,1/2+y,1/2+z
1/2+x,-y,1/2+z
loop_
_atom_site_type_symbol
_atom_site_label
_atom_site_fract_x
_atom_site_fract_y
_atom_site_fract_z
Si Si1 0.000000 0.924951 0.778445
Si Si2 0.000000 0.073564 0.447825
Si Si3 0.500000 0.925768 0.382110
Si Si4 0.178606 0.074128 0.447709
Si Si5 0.179169 0.577373 0.109913
Si Si6 0.833623 0.425051 0.775678
O O1 0.000000 0.750000 0.775107
O O2 0.915270 0.991766 0.758619
O O3 0.000000 0.979367 0.833745
O O4 0.911486 0.034454 0.426240
O O5 0.000000 0.250000 0.453255
O O6 0.000000 0.000000 0.500000
O O7 0.500000 0.750000 0.368854
O O8 0.586262 0.953890 0.407633
O O9 0.182746 0.250000 0.452908
O O10 0.184529 0.000000 0.500000
O O11 0.252045 0.017321 0.415284
O O12 0.196155 0.750000 0.101532
O O13 0.177118 0.553372 0.167203
O O14 0.845006 0.250000 0.767835
O O15 0.750000 0.471706 0.750000
#
# Coordination Sequence:
#
# PCOD9534336 Si02
#       6
#     8   8   8  16  16  16
#     4  10  18  28  47  74 101 127 159 202 248 292
#     4   8  16  30  47  66  89 121 157 189 227 278
#     4   8  16  32  51  68  93 130 166 195 229 286
#     4  10  19  32  50  71  96 126 159 196 238 285
#     4   9  17  31  51  74  96 121 158 201 240 279
#     4   9  18  34  54  72  95 131 170 203 237 286
#
# _framework density 17.361843
#
# number of rings (size 3 to 8) (size 9 to 14) (size 15 to 20)
#    0.000    2.889    0.000    3.000    0.000    4.889 
#    0.000    1.667    0.000    4.000    0.000    0.000 
#    0.000    0.000    0.000    0.000    0.000    0.000 
#
# Total GULP energy -200412.931373 kJ/mol
# GULP energy per Si atom -5567.025871 kJ/mol
# Density = 1.732233 g / cm^3
# Si number density = 17.361843 Si / 1000 Ang^3
#
#
#
# Elastic Constant Matrix: (Units=GPa)
#
#
# Indices 1 2 3 4 5 6 
#
# 1 212.5936 81.3357 42.6815 0.0000 0.0000 0.0000
# 2 81.3357 57.8386 23.4877 0.0000 0.0000 0.0000
# 3 42.6815 23.4877 15.0110 0.0000 0.0000 0.0000
# 4 0.0000 0.0000 0.0000 17.2875 0.0000 0.0000
# 5 0.0000 0.0000 0.0000 0.0000 25.8812 0.0000
# 6 0.0000 0.0000 0.0000 0.0000 0.0000 24.8379
#
#
#
# Elastic Compliance Matrix: (Units=1/GPa)
#
#
# Indices 1 2 3 4 5 6 
#
# 1 0.012316 -0.008499 -0.021721 0.000000 0.000000 0.000000
# 2 -0.008499 0.053287 -0.059211 0.000000 0.000000 0.000000
# 3 -0.021721 -0.059211 0.221026 0.000000 0.000000 0.000000
# 4 0.000000 0.000000 0.000000 0.057845 0.000000 0.000000
# 5 0.000000 0.000000 0.000000 0.000000 0.038638 0.000000
# 6 0.000000 0.000000 0.000000 0.000000 0.000000 0.040261
#
#
# Mechanical properties :
#
#
# Convention : Reuss Voigt Hill
#
# Bulk Modulus (GPa) = 9.27935 64.49478 36.88707
# Shear Modulus (GPa) = 7.83504 22.79722 15.31613
#
# Velocity S-wave (km/s) = 2.12664 3.62755 2.97336
# Velocity P-wave (km/s) = 3.37437 7.40092 5.75152
#
# Compressibility (1/GPa) = 0.10776621
#
# Stress axis : x y z
#
# Youngs Moduli (GPa) = 81.19296 18.76640 4.52435
#
# Poissons Ratio (x) = 0.15950 0.09827
# Poissons Ratio (y) = 0.69008 0.26789
# Poissons Ratio (z) = 1.76359 1.11118
#
# Static dielectric constant tensor:
#      x y z
#    x 1.645650 0.000000 0.000000 
#    y 0.000000 1.580640 0.000000 
#    z 0.000000 0.000000 1.548080 
# 
# From -- ./inp_files/72297.got.cif
#   From: 2010.05.17/outbox.cif.g08.bks.cpg/sg74_37_cif.got.tgz:72297.got - 2010.06.03 17:57:02.
