data_PCOD9534819
_publ_section_title
;
Structure prediction by ZEFSAII (Michael W. Deem and Ramdas Pophale) SiO2 
 PCOD9534819
Probable space group: I M M A
;
_chemical_formula_sum "Si O2"
_cell_formula_units_Z 88
_cell_length_a 18.506459
_cell_length_b 16.238237
_cell_length_c 14.806035
_cell_angle_alpha 90.000000
_cell_angle_beta 90.000000
_cell_angle_gamma 90.000000
_cell_volume 4449.395147
_symmetry_space_group_name_H-M "I M M A"
_symmetry_group_IT_number 74
_symmetry_cell_setting 'orthorhombic'
loop_
_space_group_symop_operation_xyz
x,y,z
-x,1/2-y,z
x,-y,-z
-x,1/2+y,-z
-x,-y,-z
x,1/2+y,-z
-x,y,z
x,1/2-y,z
1/2+x,1/2+y,1/2+z
1/2-x,-y,1/2+z
1/2+x,1/2-y,1/2-z
1/2-x,y,1/2-z
1/2-x,1/2-y,1/2-z
1/2+x,y,1/2-z
1/2-x,1/2+y,1/2+z
1/2+x,-y,1/2+z
loop_
_atom_site_type_symbol
_atom_site_label
_atom_site_fract_x
_atom_site_fract_y
_atom_site_fract_z
Si Si1 0.916926 0.581504 0.294110
Si Si2 0.191208 0.875482 0.922637
Si Si3 0.664152 0.750000 0.725251
Si Si4 0.771440 0.976282 0.348770
Si Si5 0.661066 0.652716 0.377215
Si Si6 0.821881 0.750000 0.578347
Si Si7 0.080229 0.250000 0.594914
O O1 0.858125 0.525202 0.347003
O O2 0.888694 0.601166 0.192323
O O3 0.913222 0.669320 0.343868
O O4 0.000000 0.552573 0.294449
O O5 0.151761 0.830307 0.837939
O O6 0.267189 0.826621 0.926729
O O7 0.220175 0.967277 0.909365
O O8 0.148763 0.861772 0.015959
O O9 0.750000 0.750000 0.750000
O O10 0.634058 0.750000 0.827028
O O11 0.750000 0.007096 0.250000
O O12 0.741447 0.883570 0.359690
O O13 0.656344 0.750000 0.359098
O O14 0.867287 0.750000 0.488672
O O15 0.000000 0.250000 0.555881
#
# Coordination Sequence:
#
# PCOD9534819 Si02
#       7
#    16  16   8  16  16   8   8
#     4  10  22  37  56  82 117 157 193 237 293 363
#     4  10  18  34  53  85 113 146 181 245 296 352
#     4   8  16  29  53  77 109 139 186 234 291 344
#     4  10  21  33  56  83 117 149 193 240 295 342
#     4  11  20  33  56  88 116 149 193 246 298 358
#     4  10  18  31  56  77 108 142 192 233 287 344
#     4  10  20  34  51  72 105 143 187 231 279 336
#
# _framework density 19.777968999999999
#
# number of rings (size 3 to 8) (size 9 to 14) (size 15 to 20)
#    0.000    2.182    2.727    3.273    1.273    1.091 
#    0.000    0.909    0.000   14.182    0.000    0.000 
#    0.000    0.000    0.000    0.000    0.000    0.000 
#
# Total GULP energy -244955.474241 kJ/mol
# GULP energy per Si atom -5567.169869 kJ/mol
# Density = 1.973295 g / cm^3
# Si number density = 19.777969 Si / 1000 Ang^3
#
#
#
# Elastic Constant Matrix: (Units=GPa)
#
#
# Indices 1 2 3 4 5 6 
#
# 1 65.3978 1.5878 3.2383 0.0000 0.0000 0.0000
# 2 1.5878 49.4025 -0.2375 0.0000 0.0000 0.0000
# 3 3.2383 -0.2375 116.1899 0.0000 0.0000 0.0000
# 4 0.0000 0.0000 0.0000 21.0199 0.0000 0.0000
# 5 0.0000 0.0000 0.0000 0.0000 18.1256 0.0000
# 6 0.0000 0.0000 0.0000 0.0000 0.0000 51.6324
#
#
#
# Elastic Compliance Matrix: (Units=1/GPa)
#
#
# Indices 1 2 3 4 5 6 
#
# 1 0.015324 -0.000495 -0.000428 0.000000 0.000000 0.000000
# 2 -0.000495 0.020258 0.000055 0.000000 0.000000 0.000000
# 3 -0.000428 0.000055 0.008619 0.000000 0.000000 0.000000
# 4 0.000000 0.000000 0.000000 0.047574 0.000000 0.000000
# 5 0.000000 0.000000 0.000000 0.000000 0.055171 0.000000
# 6 0.000000 0.000000 0.000000 0.000000 0.000000 0.019368
#
#
# Mechanical properties :
#
#
# Convention : Reuss Voigt Hill
#
# Bulk Modulus (GPa) = 23.54831 26.68530 25.11681
# Shear Modulus (GPa) = 27.44181 33.24900 30.34541
#
# Velocity S-wave (km/s) = 3.72895 4.10459 3.92127
# Velocity P-wave (km/s) = 5.52017 5.99877 5.76444
#
# Compressibility (1/GPa) = 0.04246589
#
# Stress axis : x y z
#
# Youngs Moduli (GPa) = 65.25612 49.36310 116.02755
#
# Poissons Ratio (x) = 0.02441 0.04967
# Poissons Ratio (y) = 0.03227 -0.00640
# Poissons Ratio (z) = 0.02794 -0.00272
#
# Static dielectric constant tensor:
#      x y z
#    x 1.696970 0.000000 0.000000 
#    y 0.000000 1.071890 0.000000 
#    z 0.000000 0.000000 1.811860 
# 
# From -- ./inp_files/34135.got.cif
#   From: 2010.05.17/outbox.cif.g08.bks.cpg/sg74_18_cif.got.tgz:34135.got - 2010.06.03 17:57:02.
