data_PCOD9534603
_publ_section_title
;
Structure prediction by ZEFSAII (Michael W. Deem and Ramdas Pophale) SiO2 
 PCOD9534603
Probable space group: I M M A
;
_chemical_formula_sum "Si O2"
_cell_formula_units_Z 112
_cell_length_a 17.666189
_cell_length_b 18.066651
_cell_length_c 16.908286
_cell_angle_alpha 90.000000
_cell_angle_beta 90.000000
_cell_angle_gamma 90.000000
_cell_volume 5396.598556
_symmetry_space_group_name_H-M "I M M A"
_symmetry_group_IT_number 74
_symmetry_cell_setting 'orthorhombic'
loop_
_space_group_symop_operation_xyz
x,y,z
-x,1/2-y,z
x,-y,-z
-x,1/2+y,-z
-x,-y,-z
x,1/2+y,-z
-x,y,z
x,1/2-y,z
1/2+x,1/2+y,1/2+z
1/2-x,-y,1/2+z
1/2+x,1/2-y,1/2-z
1/2-x,y,1/2-z
1/2-x,1/2-y,1/2-z
1/2+x,y,1/2-z
1/2-x,1/2+y,1/2+z
1/2+x,-y,1/2+z
loop_
_atom_site_type_symbol
_atom_site_label
_atom_site_fract_x
_atom_site_fract_y
_atom_site_fract_z
Si Si1 0.228788 0.564518 0.838590
Si Si2 0.374534 0.835561 0.864562
Si Si3 0.765514 0.404099 0.907380
Si Si4 0.914784 0.660986 0.145817
Si Si5 0.915191 0.163593 0.184335
Si Si6 0.384937 0.913471 0.015770
Si Si7 0.629994 0.338485 0.825363
O O1 0.250000 0.538089 0.750000
O O2 0.295922 0.621558 0.854740
O O3 0.229929 0.490780 0.889707
O O4 0.149592 0.607725 0.843547
O O5 0.360771 0.750000 0.879639
O O6 0.414979 0.842452 0.780068
O O7 0.414770 0.869865 0.940587
O O8 0.848971 0.371534 0.908993
O O9 0.706014 0.396594 0.978671
O O10 0.717899 0.360689 0.839115
O O11 0.911543 0.750000 0.141958
O O12 0.897591 0.640694 0.237847
O O13 0.000000 0.637170 0.125759
O O14 0.896896 0.250000 0.166153
O O15 0.000000 0.147649 0.155048
O O16 0.409307 0.883609 0.102253
O O17 0.397273 0.000000 0.000000
O O18 0.620049 0.250000 0.835702
#
# Coordination Sequence:
#
# PCOD9534603 Si02
#       7
#    16  16  16  16  16  16  16
#     4  10  18  30  50  77 101 130 166 213 257 297
#     4  10  18  32  53  77 101 133 174 212 253 300
#     4  10  20  31  52  75 104 134 170 211 253 304
#     4  10  20  34  52  77 107 134 167 213 259 302
#     4   9  19  34  52  76 106 136 168 209 256 306
#     4  10  20  33  50  75 103 131 170 214 251 295
#     4   9  18  32  53  77 100 133 171 210 254 302
#
# _framework density 20.753813999999998
#
# number of rings (size 3 to 8) (size 9 to 14) (size 15 to 20)
#    0.857    1.429    1.429    2.571    0.000    3.429 
#    0.000    0.714    0.000    5.571    0.000    2.000 
#    0.000    0.000    0.000    0.000    0.000    0.000 
#
# Total GULP energy -312164.578542 kJ/mol
# GULP energy per Si atom -5574.367474 kJ/mol
# Density = 2.070658 g / cm^3
# Si number density = 20.753814 Si / 1000 Ang^3
#
#
#
# Elastic Constant Matrix: (Units=GPa)
#
#
# Indices 1 2 3 4 5 6 
#
# 1 121.0538 21.4045 -6.8356 0.0000 0.0000 0.0000
# 2 21.4045 59.6890 7.9578 0.0000 0.0000 0.0000
# 3 -6.8356 7.9578 22.0432 0.0000 0.0000 0.0000
# 4 0.0000 0.0000 0.0000 0.6724 0.0000 0.0000
# 5 0.0000 0.0000 0.0000 0.0000 -14.7689 0.0000
# 6 0.0000 0.0000 0.0000 0.0000 0.0000 -12.3670
#
#
#
# Elastic Compliance Matrix: (Units=1/GPa)
#
#
# Indices 1 2 3 4 5 6 
#
# 1 0.009182 -0.003858 0.004240 0.000000 0.000000 0.000000
# 2 -0.003858 0.019222 -0.008136 0.000000 0.000000 0.000000
# 3 0.004240 -0.008136 0.049617 0.000000 0.000000 0.000000
# 4 0.000000 0.000000 0.000000 1.487259 0.000000 0.000000
# 5 0.000000 0.000000 0.000000 0.000000 -0.067710 0.000000
# 6 0.000000 0.000000 0.000000 0.000000 0.000000 -0.080860
#
#
# Mechanical properties :
#
#
# Convention : Reuss Voigt Hill
#
# Bulk Modulus (GPa) = 15.99624 27.53770 21.76697
# Shear Modulus (GPa) = 3.44102 6.72457 5.08280
#
# Velocity S-wave (km/s) = 1.28904 1.80200 1.56665
# Velocity P-wave (km/s) = 3.15275 4.19847 3.71261
#
# Compressibility (1/GPa) = 0.06251469
#
# Stress axis : x y z
#
# Youngs Moduli (GPa) = 108.90378 52.02455 20.15419
#
# Poissons Ratio (x) = 0.20072 -0.08546
# Poissons Ratio (y) = 0.42017 0.16397
# Poissons Ratio (z) = -0.46178 0.42325
#
# Static dielectric constant tensor:
#      x y z
#    x 1.763650 0.000000 0.000000 
#    y 0.000000 1.690300 0.000000 
#    z 0.000000 0.000000 1.774080 
# 
# From -- ./inp_files/53226.got.cif
#   From: 2010.05.17/outbox.cif.g08.bks.cpg/sg74_27_cif.got.tgz:53226.got - 2010.06.03 17:57:02.
