data_PCOD9534779
_publ_section_title
;
Structure prediction by ZEFSAII (Michael W. Deem and Ramdas Pophale) SiO2 
 PCOD9534779
Probable space group: I M M A
;
_chemical_formula_sum "Si O2"
_cell_formula_units_Z 96
_cell_length_a 24.485616
_cell_length_b 8.222341
_cell_length_c 26.112355
_cell_angle_alpha 90.000000
_cell_angle_beta 90.000000
_cell_angle_gamma 90.000000
_cell_volume 5257.176522
_symmetry_space_group_name_H-M "I M M A"
_symmetry_group_IT_number 74
_symmetry_cell_setting 'orthorhombic'
loop_
_space_group_symop_operation_xyz
x,y,z
-x,1/2-y,z
x,-y,-z
-x,1/2+y,-z
-x,-y,-z
x,1/2+y,-z
-x,y,z
x,1/2-y,z
1/2+x,1/2+y,1/2+z
1/2-x,-y,1/2+z
1/2+x,1/2-y,1/2-z
1/2-x,y,1/2-z
1/2-x,1/2-y,1/2-z
1/2+x,y,1/2-z
1/2-x,1/2+y,1/2+z
1/2+x,-y,1/2+z
loop_
_atom_site_type_symbol
_atom_site_label
_atom_site_fract_x
_atom_site_fract_y
_atom_site_fract_z
Si Si1 0.883092 0.553474 0.348579
Si Si2 0.500000 0.948732 0.191645
Si Si3 0.500000 0.948683 0.311164
Si Si4 0.812346 0.057515 0.442307
Si Si5 0.690213 0.443821 0.557942
Si Si6 0.882139 0.550988 0.151677
Si Si7 0.312560 0.051392 0.750915
O O1 0.883401 0.750000 0.348165
O O2 0.944604 0.498242 0.336300
O O3 0.857229 0.498117 0.401711
O O4 0.844259 0.498929 0.301857
O O5 0.500000 0.750000 0.191951
O O6 0.500000 0.998248 0.251387
O O7 0.500000 0.750000 0.310962
O O8 0.444317 0.001593 0.338692
O O9 0.808878 0.250000 0.442670
O O10 0.824295 0.000000 0.500000
O O11 0.752210 0.991462 0.427838
O O12 0.679837 0.500000 0.500000
O O13 0.687746 0.250000 0.558316
O O14 0.647008 0.505813 0.599741
O O15 0.882437 0.750000 0.150941
O O16 0.845673 0.501894 0.200450
O O17 0.312200 0.250000 0.751197
O O18 0.250000 0.996549 0.750000
#
# Coordination Sequence:
#
# PCOD9534779 Si02
#       7
#    16   8   8  16  16  16  16
#     4  10  18  31  52  79 108 135 169 211 259 308
#     4   9  16  28  50  79 108 138 171 214 257 298
#     4   9  14  26  45  75 109 136 174 218 257 294
#     4  11  22  37  56  77 102 135 172 213 260 311
#     4  10  19  33  53  77 104 137 174 216 264 309
#     4   9  16  26  45  74 106 137 172 216 259 301
#     4   9  15  23  41  72 105 132 163 208 256 301
#
# _framework density 18.260753000000001
#
# number of rings (size 3 to 8) (size 9 to 14) (size 15 to 20)
#    0.000    2.333    1.667    4.000    0.000    2.667 
#    0.000    1.250    0.000    5.500    0.000    1.750 
#    0.000    0.000    0.000    0.000    0.000    0.000 
#
# Total GULP energy -267861.174151 kJ/mol
# GULP energy per Si atom -5580.441128 kJ/mol
# Density = 1.821919 g / cm^3
# Si number density = 18.260753 Si / 1000 Ang^3
#
#
#
# Elastic Constant Matrix: (Units=GPa)
#
#
# Indices 1 2 3 4 5 6 
#
# 1 195.1414 18.2261 111.2502 0.0000 0.0000 0.0000
# 2 18.2261 22.7394 15.4751 0.0000 0.0000 0.0000
# 3 111.2502 15.4751 129.9225 0.0000 0.0000 0.0000
# 4 0.0000 0.0000 0.0000 16.2457 0.0000 0.0000
# 5 0.0000 0.0000 0.0000 0.0000 27.3908 0.0000
# 6 0.0000 0.0000 0.0000 0.0000 0.0000 2.4405
#
#
#
# Elastic Compliance Matrix: (Units=1/GPa)
#
#
# Indices 1 2 3 4 5 6 
#
# 1 0.010132 -0.002412 -0.008389 0.000000 0.000000 0.000000
# 2 -0.002412 0.048430 -0.003703 0.000000 0.000000 0.000000
# 3 -0.008389 -0.003703 0.015321 0.000000 0.000000 0.000000
# 4 0.000000 0.000000 0.000000 0.061555 0.000000 0.000000
# 5 0.000000 0.000000 0.000000 0.000000 0.036509 0.000000
# 6 0.000000 0.000000 0.000000 0.000000 0.000000 0.409759
#
#
# Mechanical properties :
#
#
# Convention : Reuss Voigt Hill
#
# Bulk Modulus (GPa) = 22.28391 70.85622 46.57007
# Shear Modulus (GPa) = 7.99141 22.73886 15.36514
#
# Velocity S-wave (km/s) = 2.09423 3.53261 2.90389
# Velocity P-wave (km/s) = 4.25175 7.45157 6.06643
#
# Compressibility (1/GPa) = 0.04487542
#
# Stress axis : x y z
#
# Youngs Moduli (GPa) = 98.69544 20.64838 65.26988
#
# Poissons Ratio (x) = 0.04981 0.54753
# Poissons Ratio (y) = 0.23809 0.24169
# Poissons Ratio (z) = 0.82792 0.07646
#
# Static dielectric constant tensor:
#      x y z
#    x 1.623180 0.000000 0.000000 
#    y 0.000000 1.646430 0.000000 
#    z 0.000000 0.000000 1.620490 
# 
# From -- ./inp_files/61949.got.cif
#   From: 2010.05.17/outbox.cif.g08.bks.cpg/sg74_31_cif.got.tgz:61949.got - 2010.06.03 17:57:02.
