data_PCOD9534546
_publ_section_title
;
Structure prediction by ZEFSAII (Michael W. Deem and Ramdas Pophale) SiO2 
 PCOD9534546
Probable space group: I M M A
;
_chemical_formula_sum "Si O2"
_cell_formula_units_Z 88
_cell_length_a 20.772714
_cell_length_b 8.557193
_cell_length_c 30.914984
_cell_angle_alpha 90.000000
_cell_angle_beta 90.000000
_cell_angle_gamma 90.000000
_cell_volume 5495.327693
_symmetry_space_group_name_H-M "I M M A"
_symmetry_group_IT_number 74
_symmetry_cell_setting 'orthorhombic'
loop_
_space_group_symop_operation_xyz
x,y,z
-x,1/2-y,z
x,-y,-z
-x,1/2+y,-z
-x,-y,-z
x,1/2+y,-z
-x,y,z
x,1/2-y,z
1/2+x,1/2+y,1/2+z
1/2-x,-y,1/2+z
1/2+x,1/2-y,1/2-z
1/2-x,y,1/2-z
1/2-x,1/2-y,1/2-z
1/2+x,y,1/2-z
1/2-x,1/2+y,1/2+z
1/2+x,-y,1/2+z
loop_
_atom_site_type_symbol
_atom_site_label
_atom_site_fract_x
_atom_site_fract_y
_atom_site_fract_z
Si Si1 0.289813 0.436036 0.792699
Si Si2 0.702334 0.561129 0.632682
Si Si3 0.862468 0.563050 0.951640
Si Si4 0.068737 0.063846 0.171046
Si Si5 0.070833 0.065158 0.274887
Si Si6 0.000000 0.937098 0.049483
O O1 0.285119 0.250000 0.791888
O O2 0.250000 0.495979 0.750000
O O3 0.257901 0.496972 0.836851
O O4 0.364342 0.484783 0.790752
O O5 0.704434 0.750000 0.635606
O O6 0.693960 0.520521 0.582106
O O7 0.635151 0.501050 0.653065
O O8 0.867409 0.750000 0.953499
O O9 0.931535 0.501206 0.933991
O O10 0.852594 0.500000 0.000000
O O11 0.067856 0.250000 0.160922
O O12 0.070940 0.050002 0.222827
O O13 0.000000 0.996076 0.156282
O O14 0.074646 0.250000 0.284633
O O15 0.000000 0.008085 0.289953
O O16 0.000000 0.750000 0.050238
O O17 0.000000 0.000000 0.000000
#
# Coordination Sequence:
#
# PCOD9534546 Si02
#       6
#    16  16  16  16  16   8
#     4  11  22  33  46  69 103 133 157 193 244 293
#     4  10  20  32  51  70  88 124 168 206 239 284
#     4  10  20  33  49  68  91 121 161 207 251 292
#     4   8  14  25  43  66  88 115 158 205 239 268
#     4   9  17  31  52  71  90 122 165 204 236 276
#     4  10  18  30  48  66  90 124 160 202 250 294
#
# _framework density 16.013603
#
# number of rings (size 3 to 8) (size 9 to 14) (size 15 to 20)
#    0.000    2.364    1.818    4.091    1.273    2.545 
#    0.000    0.000    0.000    0.000    0.000    0.000 
#    0.000    0.727    0.000    2.364    0.000    2.909 
#
# Total GULP energy -245162.151619 kJ/mol
# GULP energy per Si atom -5571.867082 kJ/mol
# Density = 1.597716 g / cm^3
# Si number density = 16.013603 Si / 1000 Ang^3
#
#
#
# Elastic Constant Matrix: (Units=GPa)
#
#
# Indices 1 2 3 4 5 6 
#
# 1 111.1913 27.3719 55.5830 0.0000 0.0000 0.0000
# 2 27.3719 41.3883 33.3632 0.0000 0.0000 0.0000
# 3 55.5830 33.3632 76.3549 0.0000 0.0000 0.0000
# 4 0.0000 0.0000 0.0000 15.0729 0.0000 0.0000
# 5 0.0000 0.0000 0.0000 0.0000 353.3438 0.0000
# 6 0.0000 0.0000 0.0000 0.0000 0.0000 17.1019
#
#
#
# Elastic Compliance Matrix: (Units=1/GPa)
#
#
# Indices 1 2 3 4 5 6 
#
# 1 0.014210 -0.001635 -0.009630 0.000000 0.000000 0.000000
# 2 -0.001635 0.037487 -0.015190 0.000000 0.000000 0.000000
# 3 -0.009630 -0.015190 0.026744 0.000000 0.000000 0.000000
# 4 0.000000 0.000000 0.000000 0.066344 0.000000 0.000000
# 5 0.000000 0.000000 0.000000 0.000000 0.002830 0.000000
# 6 0.000000 0.000000 0.000000 0.000000 0.000000 0.058473
#
#
# Mechanical properties :
#
#
# Convention : Reuss Voigt Hill
#
# Bulk Modulus (GPa) = 39.16665 51.28564 45.22615
# Shear Modulus (GPa) = 18.69102 84.61146 51.65124
#
# Velocity S-wave (km/s) = 3.42013 7.27681 5.68547
# Velocity P-wave (km/s) = 6.33308 10.13402 8.45004
#
# Compressibility (1/GPa) = 0.02553192
#
# Stress axis : x y z
#
# Youngs Moduli (GPa) = 70.37433 26.67570 37.39173
#
# Poissons Ratio (x) = 0.04362 0.36007
# Poissons Ratio (y) = 0.11507 0.56797
# Poissons Ratio (z) = 0.67768 0.40520
#
# Static dielectric constant tensor:
#      x y z
#    x 1.551890 0.000000 0.000000 
#    y 0.000000 1.539310 0.000000 
#    z 0.000000 0.000000 1.402910 
# 
# From -- ./inp_files/73298.got.cif
#   From: 2010.05.17/outbox.cif.g08.bks.cpg/sg74_37_cif.got.tgz:73298.got - 2010.06.03 17:57:02.
