data_PCOD9534399
_publ_section_title
;
Structure prediction by ZEFSAII (Michael W. Deem and Ramdas Pophale) SiO2 
 PCOD9534399
Probable space group: I M M A
;
_chemical_formula_sum "Si O2"
_cell_formula_units_Z 80
_cell_length_a 14.283571
_cell_length_b 15.278783
_cell_length_c 21.422587
_cell_angle_alpha 90.000000
_cell_angle_beta 90.000000
_cell_angle_gamma 90.000000
_cell_volume 4675.170737
_symmetry_space_group_name_H-M "I M M A"
_symmetry_group_IT_number 74
_symmetry_cell_setting 'orthorhombic'
loop_
_space_group_symop_operation_xyz
x,y,z
-x,1/2-y,z
x,-y,-z
-x,1/2+y,-z
-x,-y,-z
x,1/2+y,-z
-x,y,z
x,1/2-y,z
1/2+x,1/2+y,1/2+z
1/2-x,-y,1/2+z
1/2+x,1/2-y,1/2-z
1/2-x,y,1/2-z
1/2-x,1/2-y,1/2-z
1/2+x,y,1/2-z
1/2-x,1/2+y,1/2+z
1/2+x,-y,1/2+z
loop_
_atom_site_type_symbol
_atom_site_label
_atom_site_fract_x
_atom_site_fract_y
_atom_site_fract_z
Si Si1 0.113453 0.152023 0.342609
Si Si2 0.112898 0.470700 0.706706
Si Si3 0.892043 0.396474 0.485584
Si Si4 0.608665 0.148589 0.675961
Si Si5 0.291816 0.652412 0.107022
O O1 0.148467 0.250000 0.328879
O O2 0.133971 0.125928 0.414528
O O3 0.000000 0.154842 0.338530
O O4 0.144256 0.071493 0.299034
O O5 0.137384 0.418338 0.769487
O O6 0.153123 0.417790 0.648161
O O7 0.000000 0.468982 0.702380
O O8 0.890332 0.500000 0.500000
O O9 0.823745 0.354537 0.536003
O O10 0.000000 0.366850 0.495182
O O11 0.500000 0.133218 0.659584
O O12 0.615436 0.250000 0.698216
O O13 0.681801 0.139082 0.619789
O O14 0.315446 0.750000 0.130304
#
# Coordination Sequence:
#
# PCOD9534399 Si02
#       5
#    16  16  16  16  16
#     4   9  17  29  45  67  98 131 158 187 228 281
#     4  10  18  29  46  70 100 129 157 191 235 287
#     4  10  18  30  46  71 104 131 153 184 233 288
#     4   9  19  34  49  68  96 126 158 200 243 281
#     4  11  20  29  47  72  97 128 161 191 234 290
#
# _framework density 17.111674000000001
#
# number of rings (size 3 to 8) (size 9 to 14) (size 15 to 20)
#    0.000    2.200    2.000    2.400    0.000    4.800 
#    0.000    0.000    0.000    3.000    0.000    0.000 
#    0.000    0.000    0.000    0.000    0.000    0.000 
#
# Total GULP energy -222986.685807 kJ/mol
# GULP energy per Si atom -5574.667145 kJ/mol
# Density = 1.707273 g / cm^3
# Si number density = 17.111674 Si / 1000 Ang^3
#
#
#
# Elastic Constant Matrix: (Units=GPa)
#
#
# Indices 1 2 3 4 5 6 
#
# 1 50.4176 31.8556 39.2567 0.0000 0.0000 0.0000
# 2 31.8556 112.7307 27.3323 0.0000 0.0000 0.0000
# 3 39.2567 27.3323 54.3355 0.0000 0.0000 0.0000
# 4 0.0000 0.0000 0.0000 21.0166 0.0000 0.0000
# 5 0.0000 0.0000 0.0000 0.0000 22.5078 0.0000
# 6 0.0000 0.0000 0.0000 0.0000 0.0000 9.8927
#
#
#
# Elastic Compliance Matrix: (Units=1/GPa)
#
#
# Indices 1 2 3 4 5 6 
#
# 1 0.048605 -0.005946 -0.032126 0.000000 0.000000 0.000000
# 2 -0.005946 0.010830 -0.001152 0.000000 0.000000 0.000000
# 3 -0.032126 -0.001152 0.042194 0.000000 0.000000 0.000000
# 4 0.000000 0.000000 0.000000 0.047581 0.000000 0.000000
# 5 0.000000 0.000000 0.000000 0.000000 0.044429 0.000000
# 6 0.000000 0.000000 0.000000 0.000000 0.000000 0.101085
#
#
# Mechanical properties :
#
#
# Convention : Reuss Voigt Hill
#
# Bulk Modulus (GPa) = 43.13649 46.04144 44.58896
# Shear Modulus (GPa) = 13.12684 18.61937 15.87311
#
# Velocity S-wave (km/s) = 2.77271 3.30223 3.04899
# Velocity P-wave (km/s) = 5.95937 6.44240 6.20559
#
# Compressibility (1/GPa) = 0.02318223
#
# Stress axis : x y z
#
# Youngs Moduli (GPa) = 20.57396 92.33418 23.70001
#
# Poissons Ratio (x) = 0.54900 0.76138
# Poissons Ratio (y) = 0.12233 0.02731
# Poissons Ratio (z) = 0.66095 0.10638
#
# Static dielectric constant tensor:
#      x y z
#    x 1.574620 0.000000 0.000000 
#    y 0.000000 1.632360 0.000000 
#    z 0.000000 0.000000 1.556390 
# 
# From -- ./inp_files/51640.got.cif
#   From: 2010.05.17/outbox.cif.g08.bks.cpg/sg74_26_cif.got.tgz:51640.got - 2010.06.03 17:57:02.
