data_PCOD9534766
_publ_section_title
;
Structure prediction by ZEFSAII (Michael W. Deem and Ramdas Pophale) SiO2 
 PCOD9534766
Probable space group: I M M A
;
_chemical_formula_sum "Si O2"
_cell_formula_units_Z 104
_cell_length_a 22.785695
_cell_length_b 7.440517
_cell_length_c 28.477931
_cell_angle_alpha 90.000000
_cell_angle_beta 90.000000
_cell_angle_gamma 90.000000
_cell_volume 4828.072984
_symmetry_space_group_name_H-M "I M M A"
_symmetry_group_IT_number 74
_symmetry_cell_setting 'orthorhombic'
loop_
_space_group_symop_operation_xyz
x,y,z
-x,1/2-y,z
x,-y,-z
-x,1/2+y,-z
-x,-y,-z
x,1/2+y,-z
-x,y,z
x,1/2-y,z
1/2+x,1/2+y,1/2+z
1/2-x,-y,1/2+z
1/2+x,1/2-y,1/2-z
1/2-x,y,1/2-z
1/2-x,1/2-y,1/2-z
1/2+x,y,1/2-z
1/2-x,1/2+y,1/2+z
1/2+x,-y,1/2+z
loop_
_atom_site_type_symbol
_atom_site_label
_atom_site_fract_x
_atom_site_fract_y
_atom_site_fract_z
Si Si1 0.000000 0.462883 0.053725
Si Si2 0.174072 0.456036 0.377218
Si Si3 0.728213 0.465560 0.444250
Si Si4 0.932343 0.030333 0.314228
Si Si5 0.110018 0.029122 0.109559
Si Si6 0.597632 0.450444 0.290121
Si Si7 0.228218 0.955259 0.197176
O O1 0.939261 0.531219 0.073820
O O2 0.000000 0.250000 0.063707
O O3 0.000000 0.500000 0.000000
O O4 0.159347 0.250000 0.389241
O O5 0.210286 0.533871 0.421569
O O6 0.115520 0.533869 0.352536
O O7 0.223088 0.460318 0.336100
O O8 0.721257 0.500000 0.500000
O O9 0.729415 0.250000 0.439067
O O10 0.673348 0.527012 0.411529
O O11 0.927909 0.250000 0.313603
O O12 0.916217 0.969189 0.260936
O O13 0.000000 0.983504 0.324286
O O14 0.112707 0.250000 0.112490
O O15 0.084088 0.964125 0.159741
O O16 0.571763 0.250000 0.288845
O O17 0.667512 0.442322 0.298235
O O18 0.217496 0.750000 0.181535
O O19 0.250000 0.948370 0.250000
#
# Coordination Sequence:
#
# PCOD9534766 Si02
#       7
#     8  16  16  16  16  16  16
#     4  10  20  34  50  68  96 136 176 220 255 292
#     4  10  19  34  55  76 103 136 173 214 260 310
#     4  10  20  34  52  75 100 129 167 215 266 312
#     4   9  18  30  51  82 106 131 171 214 254 302
#     4   9  18  31  49  74 101 129 170 212 252 298
#     4  10  18  31  52  75 103 136 169 207 252 306
#     4  11  21  31  47  75 108 136 167 206 249 300
#
# _framework density 21.540686000000001
#
# number of rings (size 3 to 8) (size 9 to 14) (size 15 to 20)
#    0.000    2.154    3.077    0.923    1.077    1.231 
#    0.000    0.769    0.000    2.308    0.000    0.000 
#    0.000    0.000    0.000    0.000    0.000    0.000 
#
# Total GULP energy -289788.645183 kJ/mol
# GULP energy per Si atom -5572.858561 kJ/mol
# Density = 2.149166 g / cm^3
# Si number density = 21.540686 Si / 1000 Ang^3
#
#
#
# Elastic Constant Matrix: (Units=GPa)
#
#
# Indices 1 2 3 4 5 6 
#
# 1 143.9804 2.7279 48.0806 0.0000 0.0000 0.0000
# 2 2.7279 70.4573 4.0618 0.0000 0.0000 0.0000
# 3 48.0806 4.0618 108.4778 0.0000 0.0000 0.0000
# 4 0.0000 0.0000 0.0000 16.2123 0.0000 0.0000
# 5 0.0000 0.0000 0.0000 0.0000 36.5077 0.0000
# 6 0.0000 0.0000 0.0000 0.0000 0.0000 -31.5979
#
#
#
# Elastic Compliance Matrix: (Units=1/GPa)
#
#
# Indices 1 2 3 4 5 6 
#
# 1 0.008153 -0.000108 -0.003610 0.000000 0.000000 0.000000
# 2 -0.000108 0.014225 -0.000485 0.000000 0.000000 0.000000
# 3 -0.003610 -0.000485 0.010836 0.000000 0.000000 0.000000
# 4 0.000000 0.000000 0.000000 0.061682 0.000000 0.000000
# 5 0.000000 0.000000 0.000000 0.000000 0.027392 0.000000
# 6 0.000000 0.000000 0.000000 0.000000 0.000000 -0.031648
#
#
# Mechanical properties :
#
#
# Convention : Reuss Voigt Hill
#
# Bulk Modulus (GPa) = 40.30590 48.07291 44.18941
# Shear Modulus (GPa) = 46.59220 22.09409 34.34314
#
# Velocity S-wave (km/s) = 4.65584 3.20612 3.99725
# Velocity P-wave (km/s) = 6.90323 6.00594 6.47016
#
# Compressibility (1/GPa) = 0.02481026
#
# Stress axis : x y z
#
# Youngs Moduli (GPa) = 122.65741 70.29820 92.28079
#
# Poissons Ratio (x) = 0.00756 0.33309
# Poissons Ratio (y) = 0.01319 0.04475
# Poissons Ratio (z) = 0.44274 0.03409
#
# Static dielectric constant tensor:
#      x y z
#    x 1.693950 0.000000 0.000000 
#    y 0.000000 1.848970 0.000000 
#    z 0.000000 0.000000 1.938770 
# 
# From -- ./inp_files/64765.got.cif
#   From: 2010.05.17/outbox.cif.g08.bks.cpg/sg74_33_cif.got.tgz:64765.got - 2010.06.03 17:57:02.
