data_PCOD9534253
_publ_section_title
;
Structure prediction by ZEFSAII (Michael W. Deem and Ramdas Pophale) SiO2 
 PCOD9534253
Probable space group: I M M A
;
_chemical_formula_sum "Si O2"
_cell_formula_units_Z 88
_cell_length_a 18.341112
_cell_length_b 7.615258
_cell_length_c 36.095270
_cell_angle_alpha 90.000000
_cell_angle_beta 90.000000
_cell_angle_gamma 90.000000
_cell_volume 5041.509376
_symmetry_space_group_name_H-M "I M M A"
_symmetry_group_IT_number 74
_symmetry_cell_setting 'orthorhombic'
loop_
_space_group_symop_operation_xyz
x,y,z
-x,1/2-y,z
x,-y,-z
-x,1/2+y,-z
-x,-y,-z
x,1/2+y,-z
-x,y,z
x,1/2-y,z
1/2+x,1/2+y,1/2+z
1/2-x,-y,1/2+z
1/2+x,1/2-y,1/2-z
1/2-x,y,1/2-z
1/2-x,1/2-y,1/2-z
1/2+x,y,1/2-z
1/2-x,1/2+y,1/2+z
1/2+x,-y,1/2+z
loop_
_atom_site_type_symbol
_atom_site_label
_atom_site_fract_x
_atom_site_fract_y
_atom_site_fract_z
Si Si1 0.625209 0.949889 0.385077
Si Si2 0.000000 0.539284 0.456717
Si Si3 0.698059 0.039726 0.542606
Si Si4 0.236645 0.750000 0.793493
Si Si5 0.349393 0.964765 0.078247
Si Si6 0.715526 0.550867 0.153568
Si Si7 0.921158 0.750000 0.831112
O O1 0.596438 0.750000 0.385464
O O2 0.638898 0.019024 0.426838
O O3 0.706895 0.942348 0.367891
O O4 0.584031 0.082128 0.358306
O O5 0.000000 0.500000 0.500000
O O6 0.925271 0.472959 0.438566
O O7 0.000000 0.750000 0.451949
O O8 0.699618 0.250000 0.546791
O O9 0.778679 0.974808 0.554793
O O10 0.682798 0.000000 0.500000
O O11 0.250000 0.750000 0.750000
O O12 0.273348 0.581109 0.812894
O O13 0.150698 0.750000 0.805149
O O14 0.348357 0.750000 0.077269
O O15 0.338769 0.012467 0.121265
O O16 0.697192 0.750000 0.164923
O O17 0.000000 0.750000 0.811883
#
# Coordination Sequence:
#
# PCOD9534253 Si02
#       7
#    16   8  16   8  16  16   8
#     4   8  16  30  47  71  97 124 164 207 235 280
#     4  10  18  28  40  60  94 136 174 222 264 300
#     4   9  16  25  40  65  91 121 161 213 257 286
#     4  10  20  34  56  84 106 124 156 200 248 300
#     4   8  15  28  43  60  91 129 171 210 253 296
#     4   8  15  31  51  71  97 128 164 203 242 291
#     4  10  20  34  56  78  98 130 162 190 244 296
#
# _framework density 17.455089000000001
#
# number of rings (size 3 to 8) (size 9 to 14) (size 15 to 20)
#    0.000    3.273    0.000    2.727    1.273    0.727 
#    3.273    0.000    2.000    0.545    0.000    0.000 
#    0.000    0.000    0.000    0.000    0.000    0.000 
#
# Total GULP energy -245067.251681 kJ/mol
# GULP energy per Si atom -5569.710265 kJ/mol
# Density = 1.741536 g / cm^3
# Si number density = 17.455089 Si / 1000 Ang^3
#
#
#
# Elastic Constant Matrix: (Units=GPa)
#
#
# Indices 1 2 3 4 5 6 
#
# 1 69.9920 16.4004 37.4990 0.0000 0.0000 0.0000
# 2 16.4004 62.3594 38.6562 0.0000 0.0000 0.0000
# 3 37.4990 38.6562 143.4397 0.0000 0.0000 0.0000
# 4 0.0000 0.0000 0.0000 22.3408 0.0000 0.0000
# 5 0.0000 0.0000 0.0000 0.0000 13.8554 0.0000
# 6 0.0000 0.0000 0.0000 0.0000 0.0000 7.5118
#
#
#
# Elastic Compliance Matrix: (Units=1/GPa)
#
#
# Indices 1 2 3 4 5 6 
#
# 1 0.016828 -0.002039 -0.003850 0.000000 0.000000 0.000000
# 2 -0.002039 0.019499 -0.004722 0.000000 0.000000 0.000000
# 3 -0.003850 -0.004722 0.009250 0.000000 0.000000 0.000000
# 4 0.000000 0.000000 0.000000 0.044761 0.000000 0.000000
# 5 0.000000 0.000000 0.000000 0.000000 0.072174 0.000000
# 6 0.000000 0.000000 0.000000 0.000000 0.000000 0.133124
#
#
# Mechanical properties :
#
#
# Convention : Reuss Voigt Hill
#
# Bulk Modulus (GPa) = 41.05758 51.21139 46.13448
# Shear Modulus (GPa) = 15.38573 20.95731 18.17152
#
# Velocity S-wave (km/s) = 2.97214 3.46879 3.23002
# Velocity P-wave (km/s) = 5.94567 6.74136 6.35598
#
# Compressibility (1/GPa) = 0.02435604
#
# Stress axis : x y z
#
# Youngs Moduli (GPa) = 59.42596 51.28344 108.10244
#
# Poissons Ratio (x) = 0.10458 0.41615
# Poissons Ratio (y) = 0.12119 0.51045
# Poissons Ratio (z) = 0.22877 0.24215
#
# Static dielectric constant tensor:
#      x y z
#    x 1.608720 0.000000 0.000000 
#    y 0.000000 1.638890 0.000000 
#    z 0.000000 0.000000 1.576940 
# 
# From -- ./inp_files/73026.got.cif
#   From: 2010.05.17/outbox.cif.g08.bks.cpg/sg74_37_cif.got.tgz:73026.got - 2010.06.03 17:57:02.
