data_PCOD9534564
_publ_section_title
;
Structure prediction by ZEFSAII (Michael W. Deem and Ramdas Pophale) SiO2 
 PCOD9534564
Probable space group: I M M A
;
_chemical_formula_sum "Si O2"
_cell_formula_units_Z 72
_cell_length_a 26.406788
_cell_length_b 7.778232
_cell_length_c 17.374488
_cell_angle_alpha 90.000000
_cell_angle_beta 90.000000
_cell_angle_gamma 90.000000
_cell_volume 3568.687231
_symmetry_space_group_name_H-M "I M M A"
_symmetry_group_IT_number 74
_symmetry_cell_setting 'orthorhombic'
loop_
_space_group_symop_operation_xyz
x,y,z
-x,1/2-y,z
x,-y,-z
-x,1/2+y,-z
-x,-y,-z
x,1/2+y,-z
-x,y,z
x,1/2-y,z
1/2+x,1/2+y,1/2+z
1/2-x,-y,1/2+z
1/2+x,1/2-y,1/2-z
1/2-x,y,1/2-z
1/2-x,1/2-y,1/2-z
1/2+x,y,1/2-z
1/2-x,1/2+y,1/2+z
1/2+x,-y,1/2+z
loop_
_atom_site_type_symbol
_atom_site_label
_atom_site_fract_x
_atom_site_fract_y
_atom_site_fract_z
Si Si1 0.163579 0.056249 0.583046
Si Si2 0.305540 0.447057 0.246365
Si Si3 0.000000 0.457194 0.089858
Si Si4 0.944387 0.457346 0.377029
Si Si5 0.912692 0.041071 0.203276
O O1 0.179379 0.250000 0.599038
O O2 0.183093 0.000000 0.500000
O O3 0.179639 0.945876 0.656368
O O4 0.102670 0.044617 0.582041
O O5 0.300398 0.250000 0.274314
O O6 0.250000 0.529288 0.250000
O O7 0.354501 0.522737 0.290596
O O8 0.949670 0.519143 0.135361
O O9 0.000000 0.250000 0.096939
O O10 0.000000 0.500000 0.000000
O O11 0.940075 0.250000 0.385339
O O12 0.938037 0.496294 0.285951
O O13 0.000000 0.511595 0.402873
O O14 0.909843 0.250000 0.198672
#
# Coordination Sequence:
#
# PCOD9534564 Si02
#       5
#    16  16   8  16  16
#     4  11  22  35  51  74 106 139 171 212 259 309
#     4   9  18  35  59  81 100 130 176 221 265 323
#     4  10  18  30  48  72 103 138 171 208 257 310
#     4   9  16  30  53  76  98 132 174 212 254 310
#     4   8  14  28  51  74  98 132 169 205 253 312
#
# _framework density 20.175484999999998
#
# number of rings (size 3 to 8) (size 9 to 14) (size 15 to 20)
#    0.000    2.667    1.111    3.333    0.000    1.333 
#    0.000    5.556    0.000    2.667    0.000    0.000 
#    0.000    0.000    0.000    0.000    0.000    0.000 
#
# Total GULP energy -200670.685412 kJ/mol
# GULP energy per Si atom -5574.185706 kJ/mol
# Density = 2.012956 g / cm^3
# Si number density = 20.175485 Si / 1000 Ang^3
#
#
#
# Elastic Constant Matrix: (Units=GPa)
#
#
# Indices 1 2 3 4 5 6 
#
# 1 153.9370 0.5419 42.6552 0.0000 0.0000 0.0000
# 2 0.5419 38.9574 -3.3279 0.0000 0.0000 0.0000
# 3 42.6552 -3.3279 102.2277 0.0000 0.0000 0.0000
# 4 0.0000 0.0000 0.0000 13.5826 0.0000 0.0000
# 5 0.0000 0.0000 0.0000 0.0000 8.5887 0.0000
# 6 0.0000 0.0000 0.0000 0.0000 0.0000 4.0015
#
#
#
# Elastic Compliance Matrix: (Units=1/GPa)
#
#
# Indices 1 2 3 4 5 6 
#
# 1 0.007351 -0.000365 -0.003079 0.000000 0.000000 0.000000
# 2 -0.000365 0.025759 0.000991 0.000000 0.000000 0.000000
# 3 -0.003079 0.000991 0.011099 0.000000 0.000000 0.000000
# 4 0.000000 0.000000 0.000000 0.073624 0.000000 0.000000
# 5 0.000000 0.000000 0.000000 0.000000 0.116432 0.000000
# 6 0.000000 0.000000 0.000000 0.000000 0.000000 0.249905
#
#
# Mechanical properties :
#
#
# Convention : Reuss Voigt Hill
#
# Bulk Modulus (GPa) = 25.44407 41.65118 33.54763
# Shear Modulus (GPa) = 9.95666 22.25142 16.10404
#
# Velocity S-wave (km/s) = 2.22390 3.32459 2.82831
# Velocity P-wave (km/s) = 4.38555 5.95201 5.22779
#
# Compressibility (1/GPa) = 0.03930188
#
# Stress axis : x y z
#
# Youngs Moduli (GPa) = 136.04288 38.82169 90.09759
#
# Poissons Ratio (x) = 0.01418 0.27741
# Poissons Ratio (y) = 0.04969 -0.08928
# Poissons Ratio (z) = 0.41887 -0.03847
#
# Static dielectric constant tensor:
#      x y z
#    x 1.758220 0.000000 0.000000 
#    y 0.000000 1.760920 0.000000 
#    z 0.000000 0.000000 1.689490 
# 
# From -- ./inp_files/29213.got.cif
#   From: 2010.05.17/outbox.cif.g08.bks.cpg/sg74_15_cif.got.tgz:29213.got - 2010.06.03 17:57:02.
