data_PCOD9534112
_publ_section_title
;
Structure prediction by ZEFSAII (Michael W. Deem and Ramdas Pophale) SiO2 
 PCOD9534112
Probable space group: I M M A
;
_chemical_formula_sum "Si O2"
_cell_formula_units_Z 88
_cell_length_a 14.107107
_cell_length_b 11.892177
_cell_length_c 28.650494
_cell_angle_alpha 90.000000
_cell_angle_beta 90.000000
_cell_angle_gamma 90.000000
_cell_volume 4806.527589
_symmetry_space_group_name_H-M "I M M A"
_symmetry_group_IT_number 74
_symmetry_cell_setting 'orthorhombic'
loop_
_space_group_symop_operation_xyz
x,y,z
-x,1/2-y,z
x,-y,-z
-x,1/2+y,-z
-x,-y,-z
x,1/2+y,-z
-x,y,z
x,1/2-y,z
1/2+x,1/2+y,1/2+z
1/2-x,-y,1/2+z
1/2+x,1/2-y,1/2-z
1/2-x,y,1/2-z
1/2-x,1/2-y,1/2-z
1/2+x,y,1/2-z
1/2-x,1/2+y,1/2+z
1/2+x,-y,1/2+z
loop_
_atom_site_type_symbol
_atom_site_label
_atom_site_fract_x
_atom_site_fract_y
_atom_site_fract_z
Si Si1 0.611468 0.000287 0.672673
Si Si2 0.114393 0.750000 0.308003
Si Si3 0.390851 0.750000 0.362613
Si Si4 0.796980 0.750000 0.410874
Si Si5 0.213023 0.115979 0.366126
Si Si6 0.613913 0.997856 0.221614
Si Si7 0.111131 0.523057 0.445052
O O1 0.500000 0.976217 0.665209
O O2 0.623573 0.134987 0.666342
O O3 0.637329 0.966416 0.725695
O O4 0.681883 0.936849 0.637981
O O5 0.161291 0.750000 0.358554
O O6 0.141102 0.633429 0.283630
O O7 0.000000 0.750000 0.312529
O O8 0.500000 0.750000 0.378247
O O9 0.315661 0.750000 0.404289
O O10 0.836293 0.860553 0.434980
O O11 0.215033 0.250000 0.365517
O O12 0.159438 0.067533 0.320324
O O13 0.159686 0.069153 0.411778
O O14 0.500000 0.004438 0.217161
O O15 0.117198 0.500000 0.500000
O O16 0.000000 0.532380 0.432186
#
# Coordination Sequence:
#
# PCOD9534112 Si02
#       7
#    16   8   8   8  16  16  16
#     4  10  21  38  60  87 120 160 204 246 292 347
#     4  10  17  30  56  89 123 152 192 245 302 358
#     4  10  19  36  64  94 123 153 194 247 298 345
#     4  12  20  38  67  93 120 156 192 244 305 357
#     4  12  25  40  57  82 120 163 203 248 295 349
#     4  10  20  34  56  87 122 159 198 244 296 354
#     4  11  25  43  65  93 120 151 192 243 304 369
#
# _framework density 18.308434999999999
#
# number of rings (size 3 to 8) (size 9 to 14) (size 15 to 20)
#    0.000    1.273    3.636    2.455    1.273    5.455 
#    0.000    4.545    0.000    2.182    0.000    0.000 
#    0.000    0.000    0.000    0.000    0.000    0.000 
#
# Total GULP energy -245874.424700 kJ/mol
# GULP energy per Si atom -5588.055107 kJ/mol
# Density = 1.826676 g / cm^3
# Si number density = 18.308435 Si / 1000 Ang^3
#
#
#
# Elastic Constant Matrix: (Units=GPa)
#
#
# Indices 1 2 3 4 5 6 
#
# 1 104.1451 49.5735 61.0747 0.0000 0.0000 0.0000
# 2 49.5735 119.4209 36.5070 0.0000 0.0000 0.0000
# 3 61.0747 36.5070 72.9456 0.0000 0.0000 0.0000
# 4 0.0000 0.0000 0.0000 39.6872 0.0000 0.0000
# 5 0.0000 0.0000 0.0000 0.0000 25.1208 0.0000
# 6 0.0000 0.0000 0.0000 0.0000 0.0000 54.7072
#
#
#
# Elastic Compliance Matrix: (Units=1/GPa)
#
#
# Indices 1 2 3 4 5 6 
#
# 1 0.020227 -0.003801 -0.015033 0.000000 0.000000 0.000000
# 2 -0.003801 0.010601 -0.002123 0.000000 0.000000 0.000000
# 3 -0.015033 -0.002123 0.027358 0.000000 0.000000 0.000000
# 4 0.000000 0.000000 0.000000 0.025197 0.000000 0.000000
# 5 0.000000 0.000000 0.000000 0.000000 0.039808 0.000000
# 6 0.000000 0.000000 0.000000 0.000000 0.000000 0.018279
#
#
# Mechanical properties :
#
#
# Convention : Reuss Voigt Hill
#
# Bulk Modulus (GPa) = 61.45634 65.64690 63.55162
# Shear Modulus (GPa) = 26.48187 33.86013 30.17100
#
# Velocity S-wave (km/s) = 3.80732 4.30516 4.06387
# Velocity P-wave (km/s) = 7.27789 7.78759 7.53705
#
# Compressibility (1/GPa) = 0.01627171
#
# Stress axis : x y z
#
# Youngs Moduli (GPa) = 49.43772 94.33475 36.55214
#
# Poissons Ratio (x) = 0.35857 0.54950
# Poissons Ratio (y) = 0.18791 0.07759
# Poissons Ratio (z) = 0.74322 0.20025
#
# Static dielectric constant tensor:
#      x y z
#    x 1.664550 0.000000 0.000000 
#    y 0.000000 1.630300 0.000000 
#    z 0.000000 0.000000 1.607510 
# 
# From -- ./inp_files/72421.got.cif
#   From: 2010.05.17/outbox.cif.g08.bks.cpg/sg74_37_cif.got.tgz:72421.got - 2010.06.03 17:57:02.
