data_PCOD9534316
_publ_section_title
;
Structure prediction by ZEFSAII (Michael W. Deem and Ramdas Pophale) SiO2 
 PCOD9534316
Probable space group: I M M A
;
_chemical_formula_sum "Si O2"
_cell_formula_units_Z 80
_cell_length_a 7.610224
_cell_length_b 27.058884
_cell_length_c 19.977106
_cell_angle_alpha 90.000000
_cell_angle_beta 90.000000
_cell_angle_gamma 90.000000
_cell_volume 4113.768941
_symmetry_space_group_name_H-M "I M M A"
_symmetry_group_IT_number 74
_symmetry_cell_setting 'orthorhombic'
loop_
_space_group_symop_operation_xyz
x,y,z
-x,1/2-y,z
x,-y,-z
-x,1/2+y,-z
-x,-y,-z
x,1/2+y,-z
-x,y,z
x,1/2-y,z
1/2+x,1/2+y,1/2+z
1/2-x,-y,1/2+z
1/2+x,1/2-y,1/2-z
1/2-x,y,1/2-z
1/2-x,1/2-y,1/2-z
1/2+x,y,1/2-z
1/2-x,1/2+y,1/2+z
1/2+x,-y,1/2+z
loop_
_atom_site_type_symbol
_atom_site_label
_atom_site_fract_x
_atom_site_fract_y
_atom_site_fract_z
Si Si1 0.297679 0.250000 0.560100
Si Si2 0.288733 0.557451 0.172413
Si Si3 0.716102 0.142767 0.079685
Si Si4 0.288577 0.143093 0.925053
Si Si5 0.210862 0.946440 0.672431
Si Si6 0.801611 0.250000 0.408933
O O1 0.500000 0.250000 0.539809
O O2 0.259695 0.198680 0.596845
O O3 0.191096 0.250000 0.490449
O O4 0.500000 0.556060 0.165375
O O5 0.250000 0.568218 0.250000
O O6 0.221673 0.599974 0.123167
O O7 0.222380 0.501904 0.157469
O O8 0.500000 0.144173 0.080165
O O9 0.775526 0.096893 0.124259
O O10 0.777475 0.196382 0.106673
O O11 0.770557 0.137255 0.002185
O O12 0.500000 0.140396 0.925717
O O13 0.250000 0.935877 0.750000
O O14 0.000000 0.947792 0.664856
O O15 0.000000 0.250000 0.381867
#
# Coordination Sequence:
#
# PCOD9534316 Si02
#       6
#     8  16  16  16  16   8
#     4  10  18  28  45  70  95 118 143 180 227 272
#     4   9  18  31  48  67  90 119 151 185 226 270
#     4   8  14  26  47  69  89 115 152 190 222 258
#     4   9  17  31  49  68  89 118 152 186 221 264
#     4   9  17  30  46  66  91 121 152 186 226 268
#     4   8  14  28  47  66  90 122 153 184 222 264
#
# _framework density 19.446888000000001
#
# number of rings (size 3 to 8) (size 9 to 14) (size 15 to 20)
#    0.000    3.200    0.000    2.100    0.000    1.600 
#    0.000    9.000    0.000    0.000    0.000   11.200 
#    0.000    0.000    0.000    0.000    0.000    0.000 
#
# Total GULP energy -222854.665712 kJ/mol
# GULP energy per Si atom -5571.366643 kJ/mol
# Density = 1.940263 g / cm^3
# Si number density = 19.446888 Si / 1000 Ang^3
#
#
#
# Elastic Constant Matrix: (Units=GPa)
#
#
# Indices 1 2 3 4 5 6 
#
# 1 47.3974 5.9666 1.6845 0.0000 0.0000 0.0000
# 2 5.9666 231.8941 116.4131 0.0000 0.0000 0.0000
# 3 1.6845 116.4131 78.4712 0.0002 0.0000 0.0000
# 4 0.0000 0.0000 0.0002 -214.5900 0.0000 0.0002
# 5 0.0000 0.0000 0.0000 0.0000 15.2842 0.0000
# 6 0.0000 0.0000 0.0000 0.0002 0.0000 -1.5506
#
#
#
# Elastic Compliance Matrix: (Units=1/GPa)
#
#
# Indices 1 2 3 4 5 6 
#
# 1 0.021205 -0.001242 0.001388 0.000000 0.000000 0.000000
# 2 -0.001242 0.016966 -0.025143 0.000000 0.000000 0.000000
# 3 0.001388 -0.025143 0.050014 0.000000 0.000000 0.000000
# 4 0.000000 0.000000 0.000000 -0.004660 0.000000 -0.000001
# 5 0.000000 0.000000 0.000000 0.000000 0.065427 0.000000
# 6 0.000000 0.000000 0.000000 -0.000001 0.000000 -0.644916
#
#
# Mechanical properties :
#
#
# Convention : Reuss Voigt Hill
#
# Bulk Modulus (GPa) = 26.18479 67.32124 46.75301
# Shear Modulus (GPa) = -11.54103 -24.59138 -18.06620
#
# Velocity S-wave (km/s) = -2.43875 -3.55990 -3.05126
# Velocity P-wave (km/s) = 2.35881 4.21853 3.41760
#
# Compressibility (1/GPa) = 0.03819010
#
# Stress axis : x y z
#
# Youngs Moduli (GPa) = 47.15809 58.93987 19.99434
#
# Poissons Ratio (x) = 0.07322 -0.02774
# Poissons Ratio (y) = 0.05858 0.50272
# Poissons Ratio (z) = -0.06544 1.48194
#
# Static dielectric constant tensor:
#      x y z
#    x 1.739890 0.000000 0.000000 
#    y 0.000000 1.723230 0.000000 
#    z 0.000000 0.000000 1.629180 
# 
# From -- ./inp_files/39834.got.cif
#   From: 2010.05.17/outbox.cif.g08.bks.cpg/sg74_20_cif.got.tgz:39834.got - 2010.06.03 17:57:02.
