data_PCOD9534496
_publ_section_title
;
Structure prediction by ZEFSAII (Michael W. Deem and Ramdas Pophale) SiO2 
 PCOD9534496
Probable space group: I M M A
;
_chemical_formula_sum "Si O2"
_cell_formula_units_Z 104
_cell_length_a 8.376635
_cell_length_b 32.890404
_cell_length_c 21.433390
_cell_angle_alpha 90.000000
_cell_angle_beta 90.000000
_cell_angle_gamma 90.000000
_cell_volume 5905.132769
_symmetry_space_group_name_H-M "I M M A"
_symmetry_group_IT_number 74
_symmetry_cell_setting 'orthorhombic'
loop_
_space_group_symop_operation_xyz
x,y,z
-x,1/2-y,z
x,-y,-z
-x,1/2+y,-z
-x,-y,-z
x,1/2+y,-z
-x,y,z
x,1/2-y,z
1/2+x,1/2+y,1/2+z
1/2-x,-y,1/2+z
1/2+x,1/2-y,1/2-z
1/2-x,y,1/2-z
1/2-x,1/2-y,1/2-z
1/2+x,y,1/2-z
1/2-x,1/2+y,1/2+z
1/2+x,-y,1/2+z
loop_
_atom_site_type_symbol
_atom_site_label
_atom_site_fract_x
_atom_site_fract_y
_atom_site_fract_z
Si Si1 0.307471 0.059717 0.682467
Si Si2 0.691259 0.465775 0.318667
Si Si3 0.808435 0.114386 0.933474
Si Si4 0.192835 0.704799 0.450671
Si Si5 0.808315 0.591741 0.570564
Si Si6 0.807310 0.750000 0.680996
Si Si7 0.193835 0.181995 0.409665
O O1 0.500000 0.059630 0.682130
O O2 0.250000 0.074442 0.750000
O O3 0.253214 0.087638 0.625302
O O4 0.253742 0.012812 0.675386
O O5 0.500000 0.464971 0.317484
O O6 0.750000 0.450948 0.250000
O O7 0.747389 0.441226 0.379801
O O8 0.754745 0.161499 0.925134
O O9 0.000000 0.113965 0.936289
O O10 0.746682 0.094031 0.998120
O O11 0.245097 0.750000 0.427811
O O12 0.237338 0.701041 0.523756
O O13 0.000000 0.703988 0.446044
O O14 0.752813 0.635838 0.595318
O O15 0.000000 0.589806 0.570031
O O16 0.750000 0.750000 0.750000
O O17 0.748250 0.710451 0.644880
O O18 0.000000 0.750000 0.678334
O O19 0.000000 0.181436 0.408884
#
# Coordination Sequence:
#
# PCOD9534496 Si02
#       7
#    16  16  16  16  16   8  16
#     4   9  20  37  57  78 104 138 174 212 262 319
#     4  10  20  36  55  75 101 138 179 219 264 318
#     4  10  20  34  52  80 111 137 169 216 269 315
#     4   9  16  30  53  76  98 131 171 209 252 308
#     4  10  20  34  52  77 104 136 176 219 263 312
#     4  10  18  30  44  60  84 120 161 202 243 288
#     4   8  15  29  48  64  87 124 164 203 247 292
#
# _framework density 17.611796999999999
#
# number of rings (size 3 to 8) (size 9 to 14) (size 15 to 20)
#    0.000    2.615    0.769    2.308    0.000    3.385 
#    0.000    8.462    0.000    0.462    0.000    0.000 
#    0.000    0.000    0.000    0.000    0.000    0.000 
#
# Total GULP energy -289572.333152 kJ/mol
# GULP energy per Si atom -5568.698714 kJ/mol
# Density = 1.757171 g / cm^3
# Si number density = 17.611797 Si / 1000 Ang^3
#
#
#
# Elastic Constant Matrix: (Units=GPa)
#
#
# Indices 1 2 3 4 5 6 
#
# 1 32.3088 23.5222 24.6237 0.0000 0.0000 0.0000
# 2 23.5222 116.8971 93.8790 0.0000 0.0000 0.0000
# 3 24.6237 93.8790 139.9275 0.0001 0.0000 0.0000
# 4 0.0000 0.0000 0.0001 -0.7002 0.0000 0.0000
# 5 0.0000 0.0000 0.0000 0.0000 26.5401 0.0000
# 6 0.0000 0.0000 0.0000 0.0000 0.0000 22.8102
#
#
#
# Elastic Compliance Matrix: (Units=1/GPa)
#
#
# Indices 1 2 3 4 5 6 
#
# 1 0.036946 -0.004798 -0.003282 0.000000 0.000000 0.000000
# 2 -0.004798 0.019172 -0.012018 -0.000001 0.000000 0.000000
# 3 -0.003282 -0.012018 0.015787 0.000001 0.000000 0.000000
# 4 0.000000 -0.000001 0.000001 -1.428076 0.000000 -0.000001
# 5 0.000000 0.000000 0.000000 0.000000 0.037679 0.000000
# 6 0.000000 0.000000 0.000000 -0.000001 0.000000 0.043840
#
#
# Mechanical properties :
#
#
# Convention : Reuss Voigt Hill
#
# Bulk Modulus (GPa) = 31.53816 63.68700 47.61258
# Shear Modulus (GPa) = -4.08535 19.53725 7.72595
#
# Velocity S-wave (km/s) = -1.52470 3.33427 2.09674
# Velocity P-wave (km/s) = 3.85314 7.14585 5.74064
#
# Compressibility (1/GPa) = 0.03170763
#
# Stress axis : x y z
#
# Youngs Moduli (GPa) = 27.06630 52.16010 63.34209
#
# Poissons Ratio (x) = 0.25028 0.20791
# Poissons Ratio (y) = 0.12987 0.76126
# Poissons Ratio (z) = 0.08884 0.62687
#
# Static dielectric constant tensor:
#      x y z
#    x 1.612300 0.000000 0.000000 
#    y 0.000000 1.630300 0.000000 
#    z 0.000000 0.000000 1.579230 
# 
# From -- ./inp_files/49617.got.cif
#   From: 2010.05.17/outbox.cif.g08.bks.cpg/sg74_25_cif.got.tgz:49617.got - 2010.06.03 17:57:02.
