data_PCOD9534430
_publ_section_title
;
Structure prediction by ZEFSAII (Michael W. Deem and Ramdas Pophale) SiO2 
 PCOD9534430
Probable space group: I M M A
;
_chemical_formula_sum "Si O2"
_cell_formula_units_Z 112
_cell_length_a 28.714551
_cell_length_b 13.673046
_cell_length_c 14.201753
_cell_angle_alpha 90.000000
_cell_angle_beta 90.000000
_cell_angle_gamma 90.000000
_cell_volume 5575.826604
_symmetry_space_group_name_H-M "I M M A"
_symmetry_group_IT_number 74
_symmetry_cell_setting 'orthorhombic'
loop_
_space_group_symop_operation_xyz
x,y,z
-x,1/2-y,z
x,-y,-z
-x,1/2+y,-z
-x,-y,-z
x,1/2+y,-z
-x,y,z
x,1/2-y,z
1/2+x,1/2+y,1/2+z
1/2-x,-y,1/2+z
1/2+x,1/2-y,1/2-z
1/2-x,y,1/2-z
1/2-x,1/2-y,1/2-z
1/2+x,y,1/2-z
1/2-x,1/2+y,1/2+z
1/2+x,-y,1/2+z
loop_
_atom_site_type_symbol
_atom_site_label
_atom_site_fract_x
_atom_site_fract_y
_atom_site_fract_z
Si Si1 0.295169 0.134562 0.135560
Si Si2 0.220414 0.523443 0.108760
Si Si3 0.645900 0.865723 0.269210
Si Si4 0.601455 0.358613 0.176585
Si Si5 0.448165 0.115882 0.989798
Si Si6 0.054149 0.565720 0.279497
Si Si7 0.310931 0.364716 0.923669
O O1 0.283081 0.250000 0.135015
O O2 0.343267 0.125333 0.193323
O O3 0.249021 0.069653 0.149876
O O4 0.311766 0.100289 0.030993
O O5 0.177596 0.565471 0.166574
O O6 0.259238 0.608618 0.110043
O O7 0.208461 0.500000 0.000000
O O8 0.657384 0.750000 0.277979
O O9 0.591620 0.883914 0.287666
O O10 0.655848 0.898847 0.160411
O O11 0.589384 0.250000 0.215238
O O12 0.571697 0.452847 0.208246
O O13 0.589930 0.350628 0.064218
O O14 0.500000 0.149094 0.017784
O O15 0.442437 0.126987 0.878294
O O16 0.448425 0.000000 0.000000
O O17 0.000000 0.566018 0.253207
O O18 0.318331 0.250000 0.929931
#
# Coordination Sequence:
#
# PCOD9534430 Si02
#       7
#    16  16  16  16  16  16  16
#     4   9  18  31  48  74 108 143 177 210 248 299
#     4  10  20  34  53  76 105 137 169 210 261 312
#     4  11  22  36  57  82 106 135 174 218 264 315
#     4  10  18  29  48  74 107 150 190 215 243 298
#     4   8  15  27  43  67 102 144 187 223 251 287
#     4  10  21  35  50  73 106 140 177 226 278 318
#     4   9  17  30  51  80 109 137 171 212 256 303
#
# _framework density 20.086707000000001
#
# number of rings (size 3 to 8) (size 9 to 14) (size 15 to 20)
#    0.000    2.429    0.000    3.857    0.000    8.857 
#    0.000    2.143    0.000    3.857    0.000    0.000 
#    0.000    0.000    0.000    0.000    0.000    0.000 
#
# Total GULP energy -312111.780213 kJ/mol
# GULP energy per Si atom -5573.424647 kJ/mol
# Density = 2.004099 g / cm^3
# Si number density = 20.086707 Si / 1000 Ang^3
#
#
#
# Elastic Constant Matrix: (Units=GPa)
#
#
# Indices 1 2 3 4 5 6 
#
# 1 148.1415 20.9482 33.4442 0.0000 0.0000 0.0000
# 2 20.9482 96.6684 20.4116 0.0000 0.0000 0.0000
# 3 33.4442 20.4116 43.8237 0.0000 0.0000 0.0000
# 4 0.0000 0.0000 0.0000 13.3101 0.0000 0.0000
# 5 0.0000 0.0000 0.0000 0.0000 25.0430 0.0000
# 6 0.0000 0.0000 0.0000 0.0000 0.0000 416.1884
#
#
#
# Elastic Compliance Matrix: (Units=1/GPa)
#
#
# Indices 1 2 3 4 5 6 
#
# 1 0.008177 -0.000504 -0.006006 0.000000 0.000000 0.000000
# 2 -0.000504 0.011504 -0.004974 0.000000 0.000000 0.000000
# 3 -0.006006 -0.004974 0.029719 0.000000 0.000000 0.000000
# 4 0.000000 0.000000 0.000000 0.075131 0.000000 0.000000
# 5 0.000000 0.000000 0.000000 0.000000 0.039931 0.000000
# 6 0.000000 0.000000 0.000000 0.000000 0.000000 0.002403
#
#
# Mechanical properties :
#
#
# Convention : Reuss Voigt Hill
#
# Bulk Modulus (GPa) = 37.83115 48.69348 43.26232
# Shear Modulus (GPa) = 25.17075 105.16361 65.16718
#
# Velocity S-wave (km/s) = 3.54376 7.24351 5.70205
# Velocity P-wave (km/s) = 5.96818 9.70836 8.05827
#
# Compressibility (1/GPa) = 0.02643324
#
# Stress axis : x y z
#
# Youngs Moduli (GPa) = 122.28749 86.92614 33.64883
#
# Poissons Ratio (x) = 0.04380 0.20209
# Poissons Ratio (y) = 0.06162 0.16736
# Poissons Ratio (z) = 0.73445 0.43234
#
# Static dielectric constant tensor:
#      x y z
#    x 1.732290 0.000000 0.000000 
#    y 0.000000 1.768740 0.000000 
#    z 0.000000 0.000000 1.754480 
# 
# From -- ./inp_files/37423.got.cif
#   From: 2010.05.17/outbox.cif.g08.bks.cpg/sg74_19_cif.got.tgz:37423.got - 2010.06.03 17:57:02.
