data_PCOD9534956
_publ_section_title
;
Structure prediction by ZEFSAII (Michael W. Deem and Ramdas Pophale) SiO2 
 PCOD9534956
Probable space group: I M M A
;
_chemical_formula_sum "Si O2"
_cell_formula_units_Z 80
_cell_length_a 15.970804
_cell_length_b 16.541141
_cell_length_c 17.163014
_cell_angle_alpha 90.000000
_cell_angle_beta 90.000000
_cell_angle_gamma 90.000000
_cell_volume 4534.044730
_symmetry_space_group_name_H-M "I M M A"
_symmetry_group_IT_number 74
_symmetry_cell_setting 'orthorhombic'
loop_
_space_group_symop_operation_xyz
x,y,z
-x,1/2-y,z
x,-y,-z
-x,1/2+y,-z
-x,-y,-z
x,1/2+y,-z
-x,y,z
x,1/2-y,z
1/2+x,1/2+y,1/2+z
1/2-x,-y,1/2+z
1/2+x,1/2-y,1/2-z
1/2-x,y,1/2-z
1/2-x,1/2-y,1/2-z
1/2+x,y,1/2-z
1/2-x,1/2+y,1/2+z
1/2+x,-y,1/2+z
loop_
_atom_site_type_symbol
_atom_site_label
_atom_site_fract_x
_atom_site_fract_y
_atom_site_fract_z
Si Si1 0.758814 0.750000 0.341795
Si Si2 0.269183 0.575627 0.840790
Si Si3 0.645803 0.085241 0.477499
Si Si4 0.186006 0.410799 0.582380
Si Si5 0.905193 0.156037 0.441869
Si Si6 0.592320 0.250000 0.551582
O O1 0.750000 0.750000 0.250000
O O2 0.807714 0.829838 0.367930
O O3 0.668890 0.750000 0.386684
O O4 0.250000 0.582509 0.750000
O O5 0.183147 0.583818 0.890392
O O6 0.311075 0.489404 0.863834
O O7 0.335966 0.638568 0.876148
O O8 0.729104 0.085151 0.531409
O O9 0.601040 0.168625 0.499726
O O10 0.602493 0.000000 0.500000
O O11 0.115248 0.399527 0.516896
O O12 0.896722 0.250000 0.465909
O O13 0.000000 0.142489 0.414829
O O14 0.500000 0.250000 0.588509
#
# Coordination Sequence:
#
# PCOD9534956 Si02
#       6
#     8  16  16  16  16   8
#     4  10  18  32  56  79 108 137 169 218 272 318
#     4  10  20  33  54  81 110 140 181 221 273 325
#     4   8  17  33  53  75 100 137 182 220 253 314
#     4   9  17  33  55  79 104 140 183 218 260 324
#     4  10  20  35  55  81 111 145 186 228 271 321
#     4  10  20  34  53  75 100 137 182 216 262 314
#
# _framework density 17.644290000000002
#
# number of rings (size 3 to 8) (size 9 to 14) (size 15 to 20)
#    0.000    2.600    1.000    2.400    4.200    2.400 
#    0.000    2.000    0.000   12.000    0.000    0.000 
#    0.000    0.000    0.000    0.000    0.000    0.000 
#
# Total GULP energy -222790.689563 kJ/mol
# GULP energy per Si atom -5569.767239 kJ/mol
# Density = 1.760413 g / cm^3
# Si number density = 17.644290 Si / 1000 Ang^3
#
#
#
# Elastic Constant Matrix: (Units=GPa)
#
#
# Indices 1 2 3 4 5 6 
#
# 1 63.6888 20.5044 21.7969 0.0000 0.0000 0.0000
# 2 20.5044 102.8115 24.5859 0.0000 0.0000 0.0000
# 3 21.7969 24.5859 127.0903 0.0000 0.0000 0.0000
# 4 0.0000 0.0000 0.0000 16.6442 0.0000 0.0000
# 5 0.0000 0.0000 0.0000 0.0000 11.8831 0.0000
# 6 0.0000 0.0000 0.0000 0.0000 0.0000 -38.0624
#
#
#
# Elastic Compliance Matrix: (Units=1/GPa)
#
#
# Indices 1 2 3 4 5 6 
#
# 1 0.017469 -0.002902 -0.002435 0.000000 0.000000 0.000000
# 2 -0.002902 0.010680 -0.001568 0.000000 0.000000 0.000000
# 3 -0.002435 -0.001568 0.008589 0.000000 0.000000 0.000000
# 4 0.000000 0.000000 0.000000 0.060081 0.000000 0.000000
# 5 0.000000 0.000000 0.000000 0.000000 0.084153 0.000000
# 6 0.000000 0.000000 0.000000 0.000000 0.000000 -0.026273
#
#
# Mechanical properties :
#
#
# Convention : Reuss Voigt Hill
#
# Bulk Modulus (GPa) = 43.61325 47.48502 45.54913
# Shear Modulus (GPa) = 28.38446 13.20654 20.79550
#
# Velocity S-wave (km/s) = 4.01522 2.73882 3.43679
# Velocity P-wave (km/s) = 6.80204 6.08049 6.45136
#
# Compressibility (1/GPa) = 0.02292881
#
# Stress axis : x y z
#
# Youngs Moduli (GPa) = 57.24491 93.63017 116.42242
#
# Poissons Ratio (x) = 0.27169 0.28345
# Poissons Ratio (y) = 0.16611 0.18261
# Poissons Ratio (z) = 0.13937 0.14686
#
# Static dielectric constant tensor:
#      x y z
#    x 1.597750 0.000000 0.000000 
#    y 0.000000 1.660370 0.000000 
#    z 0.000000 0.000000 1.582310 
# 
# From -- ./inp_files/34001.got.cif
#   From: 2010.05.17/outbox.cif.g08.bks.cpg/sg74_18_cif.got.tgz:34001.got - 2010.06.03 17:57:02.
