data_PCOD9534086
_publ_section_title
;
Structure prediction by ZEFSAII (Michael W. Deem and Ramdas Pophale) SiO2 
 PCOD9534086
Probable space group: I M M A
;
_chemical_formula_sum "Si O2"
_cell_formula_units_Z 88
_cell_length_a 9.213270
_cell_length_b 21.746527
_cell_length_c 21.521254
_cell_angle_alpha 90.000000
_cell_angle_beta 90.000000
_cell_angle_gamma 90.000000
_cell_volume 4311.925813
_symmetry_space_group_name_H-M "I M M A"
_symmetry_group_IT_number 74
_symmetry_cell_setting 'orthorhombic'
loop_
_space_group_symop_operation_xyz
x,y,z
-x,1/2-y,z
x,-y,-z
-x,1/2+y,-z
-x,-y,-z
x,1/2+y,-z
-x,y,z
x,1/2-y,z
1/2+x,1/2+y,1/2+z
1/2-x,-y,1/2+z
1/2+x,1/2-y,1/2-z
1/2-x,y,1/2-z
1/2-x,1/2-y,1/2-z
1/2+x,y,1/2-z
1/2-x,1/2+y,1/2+z
1/2+x,-y,1/2+z
loop_
_atom_site_type_symbol
_atom_site_label
_atom_site_fract_x
_atom_site_fract_y
_atom_site_fract_z
Si Si1 0.750000 0.910046 0.750000
Si Si2 0.824676 0.634589 0.186275
Si Si3 0.676101 0.183028 0.554129
Si Si4 0.660384 0.679186 0.853270
Si Si5 0.325586 0.098308 0.447480
Si Si6 0.666684 0.501855 0.357019
O O1 0.659201 0.864056 0.792948
O O2 0.671189 0.954416 0.700691
O O3 0.750000 0.653626 0.250000
O O4 0.789407 0.675340 0.126368
O O5 0.771046 0.565918 0.167058
O O6 0.000000 0.633694 0.194440
O O7 0.500000 0.182742 0.549681
O O8 0.726719 0.250000 0.530803
O O9 0.725578 0.124534 0.513560
O O10 0.500000 0.675412 0.882699
O O11 0.689332 0.750000 0.837547
O O12 0.779409 0.651471 0.899304
O O13 0.500000 0.092526 0.449356
O O14 0.269161 0.035034 0.416179
O O15 0.500000 0.516200 0.373550
#
# Coordination Sequence:
#
# PCOD9534086 Si02
#       6
#     8  16  16  16  16  16
#     4  10  17  30  46  66  95 138 172 206 246 306
#     4  10  20  35  54  78 105 134 170 212 260 307
#     4   9  18  33  54  78 104 134 170 214 259 306
#     4  10  20  31  45  70 103 136 171 213 256 297
#     4   9  18  33  53  75  99 133 173 208 253 307
#     4   9  17  29  48  74  99 128 167 210 250 296
#
# _framework density 20.408514
#
# number of rings (size 3 to 8) (size 9 to 14) (size 15 to 20)
#    0.000    2.545    0.909    1.364    0.000    2.909 
#    0.000    4.545    0.000    1.091    0.000    3.818 
#    0.000    0.000    0.000    0.000    0.000    0.000 
#
# Total GULP energy -245025.740884 kJ/mol
# GULP energy per Si atom -5568.766838 kJ/mol
# Density = 2.036206 g / cm^3
# Si number density = 20.408514 Si / 1000 Ang^3
#
#
#
# Elastic Constant Matrix: (Units=GPa)
#
#
# Indices 1 2 3 4 5 6 
#
# 1 9.0734 -6.5501 2.7066 0.0000 0.0000 0.0000
# 2 -6.5501 30.4544 -2.3551 0.0000 0.0000 0.0000
# 3 2.7066 -2.3551 97.2627 0.0000 0.0000 0.0000
# 4 0.0000 0.0000 0.0000 19.8002 0.0000 0.0000
# 5 0.0000 0.0000 0.0000 0.0000 22.2531 0.0000
# 6 0.0000 0.0000 0.0000 0.0000 0.0000 -40.0366
#
#
#
# Elastic Compliance Matrix: (Units=1/GPa)
#
#
# Indices 1 2 3 4 5 6 
#
# 1 0.131324 0.028015 -0.002976 0.000000 0.000000 0.000000
# 2 0.028015 0.038874 0.000162 0.000000 0.000000 0.000000
# 3 -0.002976 0.000162 0.010368 0.000000 0.000000 0.000000
# 4 0.000000 0.000000 0.000000 0.050504 0.000000 0.000000
# 5 0.000000 0.000000 0.000000 0.000000 0.044938 0.000000
# 6 0.000000 0.000000 0.000000 0.000000 0.000000 -0.024977
#
#
# Mechanical properties :
#
#
# Convention : Reuss Voigt Hill
#
# Bulk Modulus (GPa) = 4.32963 13.82148 9.07555
# Shear Modulus (GPa) = 18.01032 9.93596 13.97314
#
# Velocity S-wave (km/s) = 2.97390 2.20887 2.61946
# Velocity P-wave (km/s) = 3.73071 3.64590 3.68855
#
# Compressibility (1/GPa) = 0.23096681
#
# Stress axis : x y z
#
# Youngs Moduli (GPa) = 7.61477 25.72419 96.44904
#
# Poissons Ratio (x) = -0.72066 0.28704
# Poissons Ratio (y) = -0.21333 -0.01559
# Poissons Ratio (z) = 0.02266 -0.00416
#
# Static dielectric constant tensor:
#      x y z
#    x 1.720870 0.000000 0.000000 
#    y 0.000000 1.751480 0.000000 
#    z 0.000000 0.000000 1.750810 
# 
# From -- ./inp_files/48717.got.cif
#   From: 2010.05.17/outbox.cif.g08.bks.cpg/sg74_25_cif.got.tgz:48717.got - 2010.06.03 17:57:02.
