data_PCOD9534950
_publ_section_title
;
Structure prediction by ZEFSAII (Michael W. Deem and Ramdas Pophale) SiO2 
 PCOD9534950
Probable space group: I M M A
;
_chemical_formula_sum "Si O2"
_cell_formula_units_Z 96
_cell_length_a 25.331561
_cell_length_b 20.243207
_cell_length_c 8.393280
_cell_angle_alpha 90.000000
_cell_angle_beta 90.000000
_cell_angle_gamma 90.000000
_cell_volume 4304.007114
_symmetry_space_group_name_H-M "I M M A"
_symmetry_group_IT_number 74
_symmetry_cell_setting 'orthorhombic'
loop_
_space_group_symop_operation_xyz
x,y,z
-x,1/2-y,z
x,-y,-z
-x,1/2+y,-z
-x,-y,-z
x,1/2+y,-z
-x,y,z
x,1/2-y,z
1/2+x,1/2+y,1/2+z
1/2-x,-y,1/2+z
1/2+x,1/2-y,1/2-z
1/2-x,y,1/2-z
1/2-x,1/2-y,1/2-z
1/2+x,y,1/2-z
1/2-x,1/2+y,1/2+z
1/2+x,-y,1/2+z
loop_
_atom_site_type_symbol
_atom_site_label
_atom_site_fract_x
_atom_site_fract_y
_atom_site_fract_z
Si Si1 0.123657 0.049092 0.624554
Si Si2 0.730453 0.818603 0.434004
Si Si3 0.439732 0.047862 0.346193
Si Si4 0.604877 0.177169 0.499454
Si Si5 0.562432 0.174866 0.857823
Si Si6 0.710419 0.452031 0.626440
O O1 0.094863 0.115051 0.563259
O O2 0.164122 0.072684 0.759422
O O3 0.151162 0.000000 0.500000
O O4 0.082629 0.998659 0.707222
O O5 0.751369 0.750000 0.508702
O O6 0.750000 0.815860 0.250000
O O7 0.667389 0.818116 0.462071
O O8 0.741965 0.894889 0.468947
O O9 0.500000 0.067175 0.312378
O O10 0.407785 0.114539 0.388826
O O11 0.439545 0.000000 0.500000
O O12 0.589559 0.250000 0.434117
O O13 0.573999 0.168726 0.667487
O O14 0.500000 0.167609 0.884968
O O15 0.578527 0.250000 0.902657
O O16 0.685869 0.500000 0.500000
O O17 0.750000 0.485433 0.750000
#
# Coordination Sequence:
#
# PCOD9534950 Si02
#       6
#    16  16  16  16  16  16
#     4  12  24  38  58  86 120 158 200 246 298 359
#     4   9  17  30  54  85 112 144 189 240 290 344
#     4  11  21  35  56  82 113 150 196 247 299 354
#     4  10  18  32  55  84 115 148 194 247 300 356
#     4  10  20  35  57  84 114 152 201 250 294 351
#     4  11  22  39  62  88 119 153 194 245 299 357
#
# _framework density 22.304796
#
# number of rings (size 3 to 8) (size 9 to 14) (size 15 to 20)
#    0.000    1.500    3.333    3.000    0.000    2.333 
#    0.000    0.833    0.000    1.500    0.000    0.000 
#    0.000    0.000    0.000    0.000    0.000    0.000 
#
# Total GULP energy -267375.657474 kJ/mol
# GULP energy per Si atom -5570.326197 kJ/mol
# Density = 2.225403 g / cm^3
# Si number density = 22.304796 Si / 1000 Ang^3
#
#
#
# Elastic Constant Matrix: (Units=GPa)
#
#
# Indices 1 2 3 4 5 6 
#
# 1 73.3969 25.6244 3.1372 0.0000 0.0000 0.0000
# 2 25.6244 173.0571 29.4102 0.0000 0.0000 0.0000
# 3 3.1372 29.4102 9.6607 0.0000 0.0000 0.0000
# 4 0.0000 0.0000 0.0000 10.7391 0.0000 0.0000
# 5 0.0000 0.0000 0.0000 0.0000 19.0167 0.0000
# 6 0.0000 0.0000 0.0000 0.0000 0.0000 47.7967
#
#
#
# Elastic Compliance Matrix: (Units=1/GPa)
#
#
# Indices 1 2 3 4 5 6 
#
# 1 0.014433 -0.002778 0.003769 0.000000 0.000000 0.000000
# 2 -0.002778 0.012507 -0.037174 0.000000 0.000000 0.000000
# 3 0.003769 -0.037174 0.215458 0.000000 0.000000 0.000000
# 4 0.000000 0.000000 0.000000 0.093118 0.000000 0.000000
# 5 0.000000 0.000000 0.000000 0.000000 0.052585 0.000000
# 6 0.000000 0.000000 0.000000 0.000000 0.000000 0.020922
#
#
# Mechanical properties :
#
#
# Convention : Reuss Voigt Hill
#
# Bulk Modulus (GPa) = 5.88121 41.38426 23.63274
# Shear Modulus (GPa) = 9.29253 28.70668 18.99960
#
# Velocity S-wave (km/s) = 2.04333 3.59140 2.92176
# Velocity P-wave (km/s) = 2.86521 5.98262 4.69048
#
# Compressibility (1/GPa) = 0.17003290
#
# Stress axis : x y z
#
# Youngs Moduli (GPa) = 69.28478 79.95338 4.64128
#
# Poissons Ratio (x) = 0.22208 -0.01749
# Poissons Ratio (y) = 0.19245 0.17254
# Poissons Ratio (z) = -0.26113 2.97220
#
# Static dielectric constant tensor:
#      x y z
#    x 1.861520 0.000000 0.000000 
#    y 0.000000 1.920680 0.000000 
#    z 0.000000 0.000000 1.919680 
# 
# From -- ./inp_files/15109.got.cif
#   From: 2010.05.17/outbox.cif.g08.bks.cpg/sg74_8_cif.got.tgz:15109.got - 2010.06.03 17:57:02.
