data_PCOD9534756
_publ_section_title
;
Structure prediction by ZEFSAII (Michael W. Deem and Ramdas Pophale) SiO2 
 PCOD9534756
Probable space group: I M M A
;
_chemical_formula_sum "Si O2"
_cell_formula_units_Z 52
_cell_length_a 7.600768
_cell_length_b 10.921248
_cell_length_c 29.937188
_cell_angle_alpha 90.000000
_cell_angle_beta 90.000000
_cell_angle_gamma 90.000000
_cell_volume 2485.082153
_symmetry_space_group_name_H-M "I M M A"
_symmetry_group_IT_number 74
_symmetry_cell_setting 'orthorhombic'
loop_
_space_group_symop_operation_xyz
x,y,z
-x,1/2-y,z
x,-y,-z
-x,1/2+y,-z
-x,-y,-z
x,1/2+y,-z
-x,y,z
x,1/2-y,z
1/2+x,1/2+y,1/2+z
1/2-x,-y,1/2+z
1/2+x,1/2-y,1/2-z
1/2-x,y,1/2-z
1/2-x,1/2-y,1/2-z
1/2+x,y,1/2-z
1/2-x,1/2+y,1/2+z
1/2+x,-y,1/2+z
loop_
_atom_site_type_symbol
_atom_site_label
_atom_site_fract_x
_atom_site_fract_y
_atom_site_fract_z
Si Si1 0.500000 0.750000 0.913295
Si Si2 0.787782 0.885005 0.471122
Si Si3 0.302081 0.453191 0.395406
Si Si4 0.290309 0.108024 0.200319
O O1 0.654385 0.856679 0.910915
O O2 0.724108 0.750000 0.483971
O O3 0.000000 0.881896 0.476123
O O4 0.722211 0.000000 0.500000
O O5 0.738490 0.920865 0.420858
O O6 0.500000 0.413398 0.406333
O O7 0.286792 0.461477 0.341843
O O8 0.500000 0.111850 0.194341
O O9 0.226807 0.250000 0.197940
O O10 0.250000 0.062295 0.250000
#
# Coordination Sequence:
#
# PCOD9534756 Si02
#       4
#     4  16  16  16
#     4  12  22  40  58  94 128 176 206 272 310 392
#     4  10  23  42  68  97 131 170 209 260 318 376
#     4  12  23  38  62  90 129 171 213 262 322 377
#     4  10  18  31  51  84 126 164 210 261 312 372
#
# _framework density 20.924862000000001
#
# number of rings (size 3 to 8) (size 9 to 14) (size 15 to 20)
#    0.000    1.231    4.615    1.385    2.154    2.462 
#    0.000    0.000    0.000    0.923    0.000    0.000 
#    0.000    0.000    0.000    0.000    0.000    0.000 
#
# Total GULP energy -144779.936315 kJ/mol
# GULP energy per Si atom -5568.459089 kJ/mol
# Density = 2.087724 g / cm^3
# Si number density = 20.924862 Si / 1000 Ang^3
#
#
#
# Elastic Constant Matrix: (Units=GPa)
#
#
# Indices 1 2 3 4 5 6 
#
# 1 134.3854 35.4396 -3.4384 0.0000 0.0000 0.0000
# 2 35.4396 124.5228 65.4677 0.0000 0.0000 0.0000
# 3 -3.4384 65.4677 123.0196 0.0000 0.0000 0.0000
# 4 0.0000 0.0000 0.0000 159.1389 0.0000 0.0000
# 5 0.0000 0.0000 0.0000 0.0000 19.2891 0.0000
# 6 0.0000 0.0000 0.0000 0.0000 0.0000 6.1174
#
#
#
# Elastic Compliance Matrix: (Units=1/GPa)
#
#
# Indices 1 2 3 4 5 6 
#
# 1 0.008417 -0.003498 0.002097 0.000000 0.000000 0.000000
# 2 -0.003498 0.012604 -0.006805 0.000000 0.000000 0.000000
# 3 0.002097 -0.006805 0.011809 0.000000 0.000000 0.000000
# 4 0.000000 0.000000 0.000000 0.006284 0.000000 0.000000
# 5 0.000000 0.000000 0.000000 0.000000 0.051843 0.000000
# 6 0.000000 0.000000 0.000000 0.000000 0.000000 0.163467
#
#
# Mechanical properties :
#
#
# Convention : Reuss Voigt Hill
#
# Bulk Modulus (GPa) = 60.91076 64.09616 62.50346
# Shear Modulus (GPa) = 18.09564 55.87302 36.98433
#
# Velocity S-wave (km/s) = 2.94392 5.17298 4.20870
# Velocity P-wave (km/s) = 6.38185 8.14725 7.31798
#
# Compressibility (1/GPa) = 0.01641746
#
# Stress axis : x y z
#
# Youngs Moduli (GPa) = 118.80124 79.33933 84.68117
#
# Poissons Ratio (x) = 0.27753 -0.17756
# Poissons Ratio (y) = 0.41557 0.57628
# Poissons Ratio (z) = -0.24910 0.53993
#
# Static dielectric constant tensor:
#      x y z
#    x 1.756650 0.000000 0.000000 
#    y 0.000000 1.722390 0.000000 
#    z 0.000000 0.000000 1.856600 
# 
# From -- ./inp_files/69607.got.cif
#   From: 2010.05.17/outbox.cif.g08.bks.cpg/sg74_35_cif.got.tgz:69607.got - 2010.06.03 17:57:02.
