data_PCOD9534175
_publ_section_title
;
Structure prediction by ZEFSAII (Michael W. Deem and Ramdas Pophale) SiO2 
 PCOD9534175
Probable space group: I M M A
;
_chemical_formula_sum "Si O2"
_cell_formula_units_Z 80
_cell_length_a 7.308634
_cell_length_b 24.830390
_cell_length_c 27.368804
_cell_angle_alpha 90.000000
_cell_angle_beta 90.000000
_cell_angle_gamma 90.000000
_cell_volume 4966.787440
_symmetry_space_group_name_H-M "I M M A"
_symmetry_group_IT_number 74
_symmetry_cell_setting 'orthorhombic'
loop_
_space_group_symop_operation_xyz
x,y,z
-x,1/2-y,z
x,-y,-z
-x,1/2+y,-z
-x,-y,-z
x,1/2+y,-z
-x,y,z
x,1/2-y,z
1/2+x,1/2+y,1/2+z
1/2-x,-y,1/2+z
1/2+x,1/2-y,1/2-z
1/2-x,y,1/2-z
1/2-x,1/2-y,1/2-z
1/2+x,y,1/2-z
1/2-x,1/2+y,1/2+z
1/2+x,-y,1/2+z
loop_
_atom_site_type_symbol
_atom_site_label
_atom_site_fract_x
_atom_site_fract_y
_atom_site_fract_z
Si Si1 0.783947 0.535497 0.950402
Si Si2 0.217836 0.636564 0.193236
Si Si3 0.277162 0.250000 0.536297
Si Si4 0.276674 0.750000 0.349706
Si Si5 0.223180 0.367283 0.990029
Si Si6 0.723387 0.564141 0.394263
O O1 0.712331 0.495938 0.908313
O O2 0.000000 0.542430 0.940929
O O3 0.767528 0.500000 0.000000
O O4 0.712573 0.594025 0.966018
O O5 0.250000 0.626362 0.250000
O O6 0.285891 0.695543 0.176871
O O7 0.285206 0.590640 0.156180
O O8 0.000000 0.638401 0.186099
O O9 0.500000 0.250000 0.536079
O O10 0.223572 0.250000 0.593386
O O11 0.217796 0.305529 0.511322
O O12 0.500000 0.750000 0.348826
O O13 0.273867 0.395857 0.938782
O O14 0.000000 0.367770 0.991066
O O15 0.500000 0.562211 0.394385
#
# Coordination Sequence:
#
# PCOD9534175 Si02
#       6
#    16  16   8   8  16  16
#     4   7  10  15  24  38  55  74  96 124 154 184
#     4  10  18  26  35  46  61  84 112 140 165 186
#     4   9  12  15  25  40  60  86 107 123 149 188
#     4   9  15  23  32  42  60  86 112 135 161 188
#     4   8  11  15  24  39  58  79 102 124 149 185
#     4   8  12  19  29  40  56  78 102 128 158 187
#
# _framework density 16.10699
#
# number of rings (size 3 to 8) (size 9 to 14) (size 15 to 20)
#    0.000    3.600    2.000    2.700    0.000    0.000 
#    0.000    0.000    0.000    0.000    0.000    0.000 
#    0.000    7.200    0.000    0.900    0.000    4.400 
#
# Total GULP energy -222759.970097 kJ/mol
# GULP energy per Si atom -5568.999252 kJ/mol
# Density = 1.607033 g / cm^3
# Si number density = 16.106990 Si / 1000 Ang^3
#
#
#
# Elastic Constant Matrix: (Units=GPa)
#
#
# Indices 1 2 3 4 5 6 
#
# 1 61.4143 5.8882 5.6012 0.0000 0.0000 0.0000
# 2 5.8882 162.3519 91.4134 0.0000 0.0000 0.0000
# 3 5.6012 91.4134 93.8219 0.0000 0.0000 0.0000
# 4 0.0000 0.0000 0.0000 18.1441 0.0000 0.0000
# 5 0.0000 0.0000 0.0000 0.0000 3.9621 0.0000
# 6 0.0000 0.0000 0.0000 0.0000 0.0000 -2.0391
#
#
#
# Elastic Compliance Matrix: (Units=1/GPa)
#
#
# Indices 1 2 3 4 5 6 
#
# 1 0.016373 -0.000096 -0.000884 0.000000 0.000000 0.000000
# 2 -0.000096 0.013646 -0.013290 0.000000 0.000000 0.000000
# 3 -0.000884 -0.013290 0.023660 0.000000 0.000000 0.000000
# 4 0.000000 0.000000 0.000000 0.055114 0.000000 0.000000
# 5 0.000000 0.000000 0.000000 0.000000 0.252392 0.000000
# 6 0.000000 0.000000 0.000000 0.000000 0.000000 -0.490419
#
#
# Mechanical properties :
#
#
# Convention : Reuss Voigt Hill
#
# Bulk Modulus (GPa) = 39.77887 58.15485 48.96686
# Shear Modulus (GPa) = -54.16271 18.32578 -17.91846
#
# Velocity S-wave (km/s) = -5.80516 3.37672 -3.33898
# Velocity P-wave (km/s) = 4.49253 7.16845 3.94993
#
# Compressibility (1/GPa) = 0.02513897
#
# Stress axis : x y z
#
# Youngs Moduli (GPa) = 61.07735 73.28213 42.26558
#
# Poissons Ratio (x) = 0.00705 0.03735
# Poissons Ratio (y) = 0.00588 0.56170
# Poissons Ratio (z) = 0.05397 0.97391
#
# Static dielectric constant tensor:
#      x y z
#    x 1.695780 0.000000 0.000000 
#    y 0.000000 1.571770 0.000000 
#    z 0.000000 0.000000 1.517640 
# 
# From -- ./inp_files/51056.got.cif
#   From: 2010.05.17/outbox.cif.g08.bks.cpg/sg74_26_cif.got.tgz:51056.got - 2010.06.03 17:57:02.
