data_PCOD9534568
_publ_section_title
;
Structure prediction by ZEFSAII (Michael W. Deem and Ramdas Pophale) SiO2 
 PCOD9534568
Probable space group: I M M A
;
_chemical_formula_sum "Si O2"
_cell_formula_units_Z 96
_cell_length_a 28.935925
_cell_length_b 14.950654
_cell_length_c 10.428027
_cell_angle_alpha 90.000000
_cell_angle_beta 90.000000
_cell_angle_gamma 90.000000
_cell_volume 4511.279218
_symmetry_space_group_name_H-M "I M M A"
_symmetry_group_IT_number 74
_symmetry_cell_setting 'orthorhombic'
loop_
_space_group_symop_operation_xyz
x,y,z
-x,1/2-y,z
x,-y,-z
-x,1/2+y,-z
-x,-y,-z
x,1/2+y,-z
-x,y,z
x,1/2-y,z
1/2+x,1/2+y,1/2+z
1/2-x,-y,1/2+z
1/2+x,1/2-y,1/2-z
1/2-x,y,1/2-z
1/2-x,1/2-y,1/2-z
1/2+x,y,1/2-z
1/2-x,1/2+y,1/2+z
1/2+x,-y,1/2+z
loop_
_atom_site_type_symbol
_atom_site_label
_atom_site_fract_x
_atom_site_fract_y
_atom_site_fract_z
Si Si1 0.364290 0.358411 0.256307
Si Si2 0.447505 0.910185 0.915945
Si Si3 0.690799 0.140732 0.500637
Si Si4 0.651775 0.140276 0.772625
Si Si5 0.295519 0.141033 0.030192
Si Si6 0.448881 0.150083 0.812093
O O1 0.368221 0.250000 0.256875
O O2 0.411193 0.395587 0.195571
O O3 0.347142 0.387603 0.396208
O O4 0.324179 0.383551 0.155556
O O5 0.500000 0.905745 0.868717
O O6 0.442438 0.842066 0.034280
O O7 0.441047 0.000000 0.000000
O O8 0.691029 0.250000 0.497954
O O9 0.678525 0.114013 0.644820
O O10 0.742546 0.111186 0.466332
O O11 0.650349 0.250000 0.777416
O O12 0.677395 0.110959 0.902326
O O13 0.598735 0.107821 0.764458
O O14 0.294771 0.250000 0.025783
O O15 0.500000 0.108725 0.790712
O O16 0.450748 0.250000 0.756995
#
# Coordination Sequence:
#
# PCOD9534568 Si02
#       6
#    16  16  16  16  16  16
#     4  10  18  30  48  74 101 127 160 200 250 295
#     4  10  20  33  50  72  94 122 164 207 248 296
#     4   9  17  26  41  71 108 132 154 196 243 290
#     4   9  15  25  42  69 100 131 162 193 236 286
#     4   9  15  25  43  70 100 129 162 195 230 278
#     4   9  16  28  48  72  94 117 154 202 243 283
#
# _framework density 21.279995
#
# number of rings (size 3 to 8) (size 9 to 14) (size 15 to 20)
#    0.000    2.667    1.667    1.500    0.000    5.000 
#    0.000    0.833    0.000    4.000    8.667    3.500 
#    0.000    0.000    0.000    0.000    0.000    0.000 
#
# Total GULP energy -267804.583814 kJ/mol
# GULP energy per Si atom -5579.262163 kJ/mol
# Density = 2.123156 g / cm^3
# Si number density = 21.279995 Si / 1000 Ang^3
#
#
#
# Elastic Constant Matrix: (Units=GPa)
#
#
# Indices 1 2 3 4 5 6 
#
# 1 95.8006 -12.5144 -4.5869 0.0000 0.0000 0.0000
# 2 -12.5144 46.2141 -13.9302 0.0000 0.0000 0.0000
# 3 -4.5869 -13.9302 57.1350 0.0000 0.0000 0.0000
# 4 0.0000 0.0000 0.0000 6.7416 0.0000 0.0000
# 5 0.0000 0.0000 0.0000 0.0000 4.3537 0.0000
# 6 0.0000 0.0000 0.0000 0.0000 0.0000 -26.2374
#
#
#
# Elastic Compliance Matrix: (Units=1/GPa)
#
#
# Indices 1 2 3 4 5 6 
#
# 1 0.010978 0.003495 0.001734 0.000000 0.000000 0.000000
# 2 0.003495 0.024468 0.006246 0.000000 0.000000 0.000000
# 3 0.001734 0.006246 0.019164 0.000000 0.000000 0.000000
# 4 0.000000 0.000000 0.000000 0.148333 0.000000 0.000000
# 5 0.000000 0.000000 0.000000 0.000000 0.229690 0.000000
# 6 0.000000 0.000000 0.000000 0.000000 0.000000 -0.038114
#
#
# Mechanical properties :
#
#
# Convention : Reuss Voigt Hill
#
# Bulk Modulus (GPa) = 12.89330 15.23189 14.06259
# Shear Modulus (GPa) = 12.58107 12.31700 12.44904
#
# Velocity S-wave (km/s) = 2.43413 2.40845 2.42132
# Velocity P-wave (km/s) = 3.73792 3.86103 3.79997
#
# Compressibility (1/GPa) = 0.07755964
#
# Stress axis : x y z
#
# Youngs Moduli (GPa) = 91.09188 40.87035 52.18001
#
# Poissons Ratio (x) = -0.14285 -0.09045
# Poissons Ratio (y) = -0.31839 -0.32592
# Poissons Ratio (z) = -0.15791 -0.25528
#
# Static dielectric constant tensor:
#      x y z
#    x 1.768440 0.000000 0.000000 
#    y 0.000000 1.913760 0.000000 
#    z 0.000000 0.000000 1.709230 
# 
# From -- ./inp_files/26435.got.cif
#   From: 2010.05.17/outbox.cif.g08.bks.cpg/sg74_14_cif.got.tgz:26435.got - 2010.06.03 17:57:02.
