data_PCOD9534111
_publ_section_title
;
Structure prediction by ZEFSAII (Michael W. Deem and Ramdas Pophale) SiO2 
 PCOD9534111
Probable space group: I M M A
;
_chemical_formula_sum "Si O2"
_cell_formula_units_Z 96
_cell_length_a 21.125491
_cell_length_b 18.719371
_cell_length_c 14.993215
_cell_angle_alpha 90.000000
_cell_angle_beta 90.000000
_cell_angle_gamma 90.000000
_cell_volume 5929.155385
_symmetry_space_group_name_H-M "I M M A"
_symmetry_group_IT_number 74
_symmetry_cell_setting 'orthorhombic'
loop_
_space_group_symop_operation_xyz
x,y,z
-x,1/2-y,z
x,-y,-z
-x,1/2+y,-z
-x,-y,-z
x,1/2+y,-z
-x,y,z
x,1/2-y,z
1/2+x,1/2+y,1/2+z
1/2-x,-y,1/2+z
1/2+x,1/2-y,1/2-z
1/2-x,y,1/2-z
1/2-x,1/2-y,1/2-z
1/2+x,y,1/2-z
1/2-x,1/2+y,1/2+z
1/2+x,-y,1/2+z
loop_
_atom_site_type_symbol
_atom_site_label
_atom_site_fract_x
_atom_site_fract_y
_atom_site_fract_z
Si Si1 0.103608 0.332532 0.548235
Si Si2 0.695740 0.057041 0.675467
Si Si3 0.387059 0.552035 0.915750
Si Si4 0.748925 0.902924 0.649579
Si Si5 0.569630 0.932594 0.211779
Si Si6 0.743336 0.831195 0.466988
O O1 0.085443 0.250000 0.544079
O O2 0.083179 0.378146 0.461525
O O3 0.079335 0.371263 0.637047
O O4 0.180622 0.337040 0.548315
O O5 0.750000 0.070816 0.750000
O O6 0.627606 0.068944 0.719724
O O7 0.709746 0.110434 0.594635
O O8 0.706084 0.974376 0.648337
O O9 0.320052 0.571095 0.872309
O O10 0.425454 0.506486 0.844256
O O11 0.374632 0.500000 0.000000
O O12 0.750000 0.873369 0.750000
O O13 0.731164 0.849595 0.570489
O O14 0.500000 0.925942 0.252174
O O15 0.724715 0.750000 0.445577
#
# Coordination Sequence:
#
# PCOD9534111 Si02
#       6
#    16  16  16  16  16  16
#     4   9  18  31  48  73 107 139 166 202 252 313
#     4  11  18  33  55  75  99 139 173 205 252 301
#     4   9  16  30  49  73 102 132 170 206 250 303
#     4  10  17  30  55  78  99 132 167 211 256 301
#     4  11  21  32  49  76 104 133 174 216 252 297
#     4  10  20  32  51  80 107 131 168 210 252 307
#
# _framework density 16.191175999999999
#
# number of rings (size 3 to 8) (size 9 to 14) (size 15 to 20)
#    0.000    2.000    5.000    2.500    0.000    4.667 
#    0.000    0.000    0.000    2.000    0.000    0.000 
#    0.000    0.000    0.000    0.000    0.000    0.000 
#
# Total GULP energy -267637.607486 kJ/mol
# GULP energy per Si atom -5575.783489 kJ/mol
# Density = 1.615432 g / cm^3
# Si number density = 16.191176 Si / 1000 Ang^3
#
#
#
# Elastic Constant Matrix: (Units=GPa)
#
#
# Indices 1 2 3 4 5 6 
#
# 1 78.5841 8.0386 20.5405 0.0000 0.0000 0.0000
# 2 8.0386 61.1893 -2.0216 0.0000 0.0000 0.0000
# 3 20.5405 -2.0216 38.6825 0.0000 0.0000 0.0000
# 4 0.0000 0.0000 0.0000 11.6634 0.0000 0.0000
# 5 0.0000 0.0000 0.0000 0.0000 13.2235 0.0000
# 6 0.0000 0.0000 0.0000 0.0000 0.0000 3.3092
#
#
#
# Elastic Compliance Matrix: (Units=1/GPa)
#
#
# Indices 1 2 3 4 5 6 
#
# 1 0.015079 -0.002249 -0.008125 0.000000 0.000000 0.000000
# 2 -0.002249 0.016707 0.002068 0.000000 0.000000 0.000000
# 3 -0.008125 0.002068 0.030274 0.000000 0.000000 0.000000
# 4 0.000000 0.000000 0.000000 0.085738 0.000000 0.000000
# 5 0.000000 0.000000 0.000000 0.000000 0.075623 0.000000
# 6 0.000000 0.000000 0.000000 0.000000 0.000000 0.302187
#
#
# Mechanical properties :
#
#
# Convention : Reuss Voigt Hill
#
# Bulk Modulus (GPa) = 22.00391 25.73010 23.86701
# Shear Modulus (GPa) = 8.97072 15.76579 12.36826
#
# Velocity S-wave (km/s) = 2.35638 3.12385 2.76685
# Velocity P-wave (km/s) = 4.58508 5.37933 4.99800
#
# Compressibility (1/GPa) = 0.04544646
#
# Stress axis : x y z
#
# Youngs Moduli (GPa) = 66.31772 59.85683 33.03197
#
# Poissons Ratio (x) = 0.13464 0.26837
# Poissons Ratio (y) = 0.14917 -0.06830
# Poissons Ratio (z) = 0.53880 -0.12376
#
# Static dielectric constant tensor:
#      x y z
#    x 1.544760 0.000000 0.000000 
#    y 0.000000 1.562050 0.000000 
#    z 0.000000 0.000000 1.537790 
# 
# From -- ./inp_files/35629.got.cif
#   From: 2010.05.17/outbox.cif.g08.bks.cpg/sg74_18_cif.got.tgz:35629.got - 2010.06.03 17:57:02.
