data_PCOD9534444
_publ_section_title
;
Structure prediction by ZEFSAII (Michael W. Deem and Ramdas Pophale) SiO2 
 PCOD9534444
Probable space group: I M M A
;
_chemical_formula_sum "Si O2"
_cell_formula_units_Z 128
_cell_length_a 14.018609
_cell_length_b 26.237326
_cell_length_c 17.800259
_cell_angle_alpha 90.000000
_cell_angle_beta 90.000000
_cell_angle_gamma 90.000000
_cell_volume 6547.127759
_symmetry_space_group_name_H-M "I M M A"
_symmetry_group_IT_number 74
_symmetry_cell_setting 'orthorhombic'
loop_
_space_group_symop_operation_xyz
x,y,z
-x,1/2-y,z
x,-y,-z
-x,1/2+y,-z
-x,-y,-z
x,1/2+y,-z
-x,y,z
x,1/2-y,z
1/2+x,1/2+y,1/2+z
1/2-x,-y,1/2+z
1/2+x,1/2-y,1/2-z
1/2-x,y,1/2-z
1/2-x,1/2-y,1/2-z
1/2+x,y,1/2-z
1/2-x,1/2+y,1/2+z
1/2+x,-y,1/2+z
loop_
_atom_site_type_symbol
_atom_site_label
_atom_site_fract_x
_atom_site_fract_y
_atom_site_fract_z
Si Si1 0.115146 0.454634 0.554408
Si Si2 0.113589 0.348757 0.469329
Si Si3 0.383533 0.996321 0.382042
Si Si4 0.607956 0.391947 0.189534
Si Si5 0.882796 0.004916 0.713266
Si Si6 0.348389 0.304975 0.295618
Si Si7 0.114918 0.916284 0.989524
Si Si8 0.193277 0.305208 0.026819
O O1 0.150431 0.500000 0.500000
O O2 0.132215 0.399769 0.517680
O O3 0.146698 0.462995 0.640252
O O4 0.000000 0.459717 0.555793
O O5 0.141915 0.361975 0.383277
O O6 0.193350 0.307750 0.489632
O O7 0.000000 0.335811 0.473733
O O8 0.500000 0.997873 0.382030
O O9 0.356351 0.952867 0.441523
O O10 0.352669 0.982642 0.297991
O O11 0.353768 0.051774 0.415073
O O12 0.500000 0.404194 0.167555
O O13 0.651988 0.446876 0.200935
O O14 0.606203 0.355989 0.262142
O O15 0.000000 0.006336 0.714861
O O16 0.395383 0.250000 0.278374
O O17 0.250000 0.304150 0.250000
O O18 0.330932 0.306456 0.384058
O O19 0.151667 0.859133 0.000005
O O20 0.000000 0.913962 0.987151
O O21 0.156415 0.250000 0.999050
#
# Coordination Sequence:
#
# PCOD9534444 Si02
#       8
#    16  16  16  16  16  16  16  16
#     4   9  15  27  46  72 106 138 170 213 258 304
#     4  10  20  34  51  72 101 141 179 212 255 305
#     4   8  15  30  53  80 109 140 171 211 259 316
#     4  10  18  29  49  71  96 135 175 206 245 304
#     4   9  15  25  47  77 104 134 169 205 254 312
#     4  10  20  33  45  63  95 129 165 214 256 284
#     4   9  18  35  56  79 109 138 171 216 267 316
#     4  11  23  37  54  74 101 138 179 223 265 311
#
# _framework density 19.550559
#
# number of rings (size 3 to 8) (size 9 to 14) (size 15 to 20)
#    0.000    2.500    2.500    1.500    0.000    2.250 
#    2.250    2.500    0.000    0.000    0.000    1.750 
#    0.000    5.000    0.000    0.000    0.000    0.000 
#
# Total GULP energy -356742.159462 kJ/mol
# GULP energy per Si atom -5574.096242 kJ/mol
# Density = 1.950606 g / cm^3
# Si number density = 19.550559 Si / 1000 Ang^3
#
#
#
# Elastic Constant Matrix: (Units=GPa)
#
#
# Indices 1 2 3 4 5 6 
#
# 1 54.3231 21.1852 14.5632 0.0000 0.0000 0.0000
# 2 21.1852 112.9964 35.0854 -0.0001 0.0000 0.0000
# 3 14.5632 35.0854 85.8914 -0.0002 0.0000 0.0000
# 4 0.0000 -0.0001 -0.0002 75.6796 0.0000 0.0000
# 5 0.0000 0.0000 0.0000 0.0000 17.6008 0.0000
# 6 0.0000 0.0000 0.0000 0.0000 0.0000 9.3294
#
#
#
# Elastic Compliance Matrix: (Units=1/GPa)
#
#
# Indices 1 2 3 4 5 6 
#
# 1 0.020202 -0.003120 -0.002151 0.000000 0.000000 0.000000
# 2 -0.003120 0.010617 -0.003808 0.000000 0.000000 0.000000
# 3 -0.002151 -0.003808 0.013563 0.000000 0.000000 0.000000
# 4 0.000000 0.000000 0.000000 0.013214 0.000000 0.000000
# 5 0.000000 0.000000 0.000000 0.000000 0.056816 0.000000
# 6 0.000000 0.000000 0.000000 0.000000 0.000000 0.107188
#
#
# Mechanical properties :
#
#
# Convention : Reuss Voigt Hill
#
# Bulk Modulus (GPa) = 38.13240 43.87538 41.00389
# Shear Modulus (GPa) = 20.12095 32.68044 26.40070
#
# Velocity S-wave (km/s) = 3.21156 4.09294 3.67874
# Velocity P-wave (km/s) = 5.77053 6.69529 6.25004
#
# Compressibility (1/GPa) = 0.02622442
#
# Stress axis : x y z
#
# Youngs Moduli (GPa) = 49.50095 94.18758 73.73098
#
# Poissons Ratio (x) = 0.29383 0.15859
# Poissons Ratio (y) = 0.15443 0.28077
# Poissons Ratio (z) = 0.10647 0.35867
#
# Static dielectric constant tensor:
#      x y z
#    x 1.796120 0.000000 0.000000 
#    y 0.000000 1.703260 0.000000 
#    z 0.000000 0.000000 1.677590 
# 
# From -- ./inp_files/44591.got.cif
#   From: 2010.05.17/outbox.cif.g08.bks.cpg/sg74_23_cif.got.tgz:44591.got - 2010.06.03 17:57:02.
