data_PCOD9534532
_publ_section_title
;
Structure prediction by ZEFSAII (Michael W. Deem and Ramdas Pophale) SiO2 
 PCOD9534532
Probable space group: I M M A
;
_chemical_formula_sum "Si O2"
_cell_formula_units_Z 80
_cell_length_a 15.632233
_cell_length_b 25.844639
_cell_length_c 10.639629
_cell_angle_alpha 90.000000
_cell_angle_beta 90.000000
_cell_angle_gamma 90.000000
_cell_volume 4298.510327
_symmetry_space_group_name_H-M "I M M A"
_symmetry_group_IT_number 74
_symmetry_cell_setting 'orthorhombic'
loop_
_space_group_symop_operation_xyz
x,y,z
-x,1/2-y,z
x,-y,-z
-x,1/2+y,-z
-x,-y,-z
x,1/2+y,-z
-x,y,z
x,1/2-y,z
1/2+x,1/2+y,1/2+z
1/2-x,-y,1/2+z
1/2+x,1/2-y,1/2-z
1/2-x,y,1/2-z
1/2-x,1/2-y,1/2-z
1/2+x,y,1/2-z
1/2-x,1/2+y,1/2+z
1/2+x,-y,1/2+z
loop_
_atom_site_type_symbol
_atom_site_label
_atom_site_fract_x
_atom_site_fract_y
_atom_site_fract_z
Si Si1 0.000000 0.939537 0.479425
Si Si2 0.500000 0.938037 0.529418
Si Si3 0.000000 0.623884 0.230596
Si Si4 0.338772 0.310004 0.827160
Si Si5 0.315815 0.397296 0.000788
Si Si6 0.250000 0.954987 0.250000
Si Si7 0.326158 0.960130 0.618247
O O1 0.000000 0.921409 0.334159
O O2 0.910850 0.916907 0.530343
O O3 0.000000 0.000000 0.500000
O O4 0.500000 0.903283 0.404681
O O5 0.413800 0.929914 0.605862
O O6 0.500000 0.000000 0.500000
O O7 0.084918 0.658104 0.258197
O O8 0.363036 0.250000 0.838543
O O9 0.250000 0.312751 0.750000
O O10 0.322859 0.337467 0.961828
O O11 0.278728 0.421724 0.868959
O O12 0.250799 0.419506 0.103698
O O13 0.325131 0.996925 0.273194
O O14 0.316409 0.000000 0.500000
#
# Coordination Sequence:
#
# PCOD9534532 Si02
#       7
#     8   8   8  16  16   8  16
#     4  10  20  29  45  68  91 134 166 189 241 299
#     4  10  20  29  45  72  90 135 168 192 244 309
#     4  10  21  32  48  68 107 129 157 217 243 284
#     4  10  19  31  50  69  92 129 166 198 248 297
#     4  10  19  32  45  66  98 127 162 203 244 289
#     4  10  18  30  47  66  99 136 152 202 240 292
#     4   9  19  30  45  67  97 128 169 195 244 298
#
# _framework density 18.6111
#
# number of rings (size 3 to 8) (size 9 to 14) (size 15 to 20)
#    0.000    2.200    1.000    3.300   14.000    0.000 
#    0.000    0.000    0.000    0.000    0.000    0.700 
#    0.000    0.000    0.000    2.200    0.000    0.000 
#
# Total GULP energy -222848.897523 kJ/mol
# GULP energy per Si atom -5571.222438 kJ/mol
# Density = 1.856874 g / cm^3
# Si number density = 18.611100 Si / 1000 Ang^3
#
#
#
# Elastic Constant Matrix: (Units=GPa)
#
#
# Indices 1 2 3 4 5 6 
#
# 1 129.0086 34.9919 4.8022 -0.0001 0.0000 0.0000
# 2 34.9919 123.5094 27.7279 0.0001 0.0000 0.0000
# 3 4.8022 27.7279 30.0522 0.0006 0.0001 -0.0001
# 4 -0.0001 0.0001 0.0006 19.1344 0.0000 0.0000
# 5 0.0000 0.0000 0.0001 0.0000 14.4797 0.0000
# 6 0.0000 0.0000 -0.0001 0.0000 0.0000 25.1351
#
#
#
# Elastic Compliance Matrix: (Units=1/GPa)
#
#
# Indices 1 2 3 4 5 6 
#
# 1 0.008424 -0.002629 0.001080 0.000000 0.000000 0.000000
# 2 -0.002629 0.011032 -0.009759 0.000000 0.000000 0.000000
# 3 0.001080 -0.009759 0.042107 -0.000001 0.000000 0.000000
# 4 0.000000 0.000000 -0.000001 0.052262 0.000000 0.000000
# 5 0.000000 0.000000 0.000000 0.000000 0.069062 0.000000
# 6 0.000000 0.000000 0.000000 0.000000 0.000000 0.039785
#
#
# Mechanical properties :
#
#
# Convention : Reuss Voigt Hill
#
# Bulk Modulus (GPa) = 25.67603 46.40159 36.03881
# Shear Modulus (GPa) = 19.35943 26.08639 22.72291
#
# Velocity S-wave (km/s) = 3.22873 3.74793 3.49798
# Velocity P-wave (km/s) = 5.26551 6.61178 5.97667
#
# Compressibility (1/GPa) = 0.03894683
#
# Stress axis : x y z
#
# Youngs Moduli (GPa) = 118.70363 90.64304 23.74901
#
# Poissons Ratio (x) = 0.23831 -0.02564
# Poissons Ratio (y) = 0.31208 0.23176
# Poissons Ratio (z) = -0.12815 0.88458
#
# Static dielectric constant tensor:
#      x y z
#    x 1.734950 0.000000 0.000000 
#    y 0.000000 1.655200 0.000000 
#    z 0.000000 0.000000 1.739880 
# 
# From -- ./inp_files/20587.got.cif
#   From: 2010.05.17/outbox.cif.g08.bks.cpg/sg74_11_cif.got.tgz:20587.got - 2010.06.03 17:57:02.
