data_PCOD9534843
_publ_section_title
;
Structure prediction by ZEFSAII (Michael W. Deem and Ramdas Pophale) SiO2 
 PCOD9534843
Probable space group: I M M A
;
_chemical_formula_sum "Si O2"
_cell_formula_units_Z 112
_cell_length_a 29.942991
_cell_length_b 14.869791
_cell_length_c 14.530721
_cell_angle_alpha 90.000000
_cell_angle_beta 90.000000
_cell_angle_gamma 90.000000
_cell_volume 6469.745665
_symmetry_space_group_name_H-M "I M M A"
_symmetry_group_IT_number 74
_symmetry_cell_setting 'orthorhombic'
loop_
_space_group_symop_operation_xyz
x,y,z
-x,1/2-y,z
x,-y,-z
-x,1/2+y,-z
-x,-y,-z
x,1/2+y,-z
-x,y,z
x,1/2-y,z
1/2+x,1/2+y,1/2+z
1/2-x,-y,1/2+z
1/2+x,1/2-y,1/2-z
1/2-x,y,1/2-z
1/2-x,1/2-y,1/2-z
1/2+x,y,1/2-z
1/2-x,1/2+y,1/2+z
1/2+x,-y,1/2+z
loop_
_atom_site_type_symbol
_atom_site_label
_atom_site_fract_x
_atom_site_fract_y
_atom_site_fract_z
Si Si1 0.200015 0.147258 0.210957
Si Si2 0.291401 0.351122 0.686670
Si Si3 0.433989 0.351813 0.008934
Si Si4 0.163478 0.101784 0.529487
Si Si5 0.238600 0.607617 0.986017
Si Si6 0.950890 0.007868 0.653341
Si Si7 0.646790 0.525515 0.225874
O O1 0.184699 0.250000 0.226257
O O2 0.250000 0.137434 0.250000
O O3 0.169245 0.072247 0.259754
O O4 0.208631 0.131544 0.101712
O O5 0.301004 0.250000 0.719072
O O6 0.250000 0.386083 0.750000
O O7 0.276989 0.350210 0.581204
O O8 0.334042 0.415199 0.691783
O O9 0.450866 0.250000 0.013026
O O10 0.380405 0.346717 0.999786
O O11 0.448900 0.409811 0.920025
O O12 0.446189 0.415539 0.094768
O O13 0.208829 0.133386 0.481377
O O14 0.165482 0.085151 0.639295
O O15 0.154058 0.000000 0.500000
O O16 0.238670 0.500000 0.000000
O O17 0.000000 0.009226 0.697933
O O18 0.906215 0.017055 0.713902
#
# Coordination Sequence:
#
# PCOD9534843 Si02
#       7
#    16  16  16  16  16  16  16
#     4  11  23  35  52  80 111 145 181 218 263 318
#     4  11  22  35  54  80 110 144 183 221 261 317
#     4  10  19  32  54  79 107 142 182 224 268 318
#     4  10  18  32  50  77 108 150 184 214 254 310
#     4  11  20  34  56  75 112 153 185 216 260 314
#     4  10  22  38  53  74 105 139 183 233 277 326
#     4  11  20  38  53  73 108 142 180 224 268 310
#
# _framework density 17.311346
#
# number of rings (size 3 to 8) (size 9 to 14) (size 15 to 20)
#    0.000    1.429    5.714    3.429    0.000    5.143 
#    0.000    0.000    0.000    0.000    0.000    2.000 
#    0.000    2.286    0.000    0.000    0.000    0.000 
#
# Total GULP energy -312209.546764 kJ/mol
# GULP energy per Si atom -5575.170478 kJ/mol
# Density = 1.727194 g / cm^3
# Si number density = 17.311346 Si / 1000 Ang^3
#
#
#
# Elastic Constant Matrix: (Units=GPa)
#
#
# Indices 1 2 3 4 5 6 
#
# 1 128.7702 44.7525 18.9307 0.0000 0.0000 0.0000
# 2 44.7525 104.6705 -1.1435 0.0000 0.0000 0.0000
# 3 18.9307 -1.1435 43.3082 0.0000 0.0000 0.0000
# 4 0.0000 0.0000 0.0000 -2.5547 0.0000 0.0000
# 5 0.0000 0.0000 0.0000 0.0000 10.4498 0.0000
# 6 0.0000 0.0000 0.0000 0.0000 0.0000 -3.0175
#
#
#
# Elastic Compliance Matrix: (Units=1/GPa)
#
#
# Indices 1 2 3 4 5 6 
#
# 1 0.009908 -0.004285 -0.004444 0.000000 0.000000 0.000000
# 2 -0.004285 0.011410 0.002174 0.000000 0.000000 0.000000
# 3 -0.004444 0.002174 0.025090 0.000000 0.000000 0.000000
# 4 0.000000 0.000000 0.000000 -0.391440 0.000000 0.000000
# 5 0.000000 0.000000 0.000000 0.000000 0.095696 0.000000
# 6 0.000000 0.000000 0.000000 0.000000 0.000000 -0.331405
#
#
# Mechanical properties :
#
#
# Convention : Reuss Voigt Hill
#
# Bulk Modulus (GPa) = 30.03138 44.64761 37.33949
# Shear Modulus (GPa) = -8.98421 15.25614 3.13596
#
# Velocity S-wave (km/s) = -2.28058 2.97186 1.34738
# Velocity P-wave (km/s) = 3.23276 6.13375 4.90273
#
# Compressibility (1/GPa) = 0.03329851
#
# Stress axis : x y z
#
# Youngs Moduli (GPa) = 100.92566 87.64567 39.85594
#
# Poissons Ratio (x) = 0.37555 0.17713
# Poissons Ratio (y) = 0.43246 -0.08666
# Poissons Ratio (z) = 0.44853 -0.19056
#
# Static dielectric constant tensor:
#      x y z
#    x 1.621170 0.000000 0.000000 
#    y 0.000000 1.621660 0.000000 
#    z 0.000000 0.000000 1.787040 
# 
# From -- ./inp_files/37961.got.cif
#   From: 2010.05.17/outbox.cif.g08.bks.cpg/sg74_19_cif.got.tgz:37961.got - 2010.06.03 17:57:02.
