data_PCOD9534181
_publ_section_title
;
Structure prediction by ZEFSAII (Michael W. Deem and Ramdas Pophale) SiO2 
 PCOD9534181
Probable space group: I M M A
;
_chemical_formula_sum "Si O2"
_cell_formula_units_Z 88
_cell_length_a 28.395344
_cell_length_b 9.063226
_cell_length_c 25.896047
_cell_angle_alpha 90.000000
_cell_angle_beta 90.000000
_cell_angle_gamma 90.000000
_cell_volume 6664.436260
_symmetry_space_group_name_H-M "I M M A"
_symmetry_group_IT_number 74
_symmetry_cell_setting 'orthorhombic'
loop_
_space_group_symop_operation_xyz
x,y,z
-x,1/2-y,z
x,-y,-z
-x,1/2+y,-z
-x,-y,-z
x,1/2+y,-z
-x,y,z
x,1/2-y,z
1/2+x,1/2+y,1/2+z
1/2-x,-y,1/2+z
1/2+x,1/2-y,1/2-z
1/2-x,y,1/2-z
1/2-x,1/2-y,1/2-z
1/2+x,y,1/2-z
1/2-x,1/2+y,1/2+z
1/2+x,-y,1/2+z
loop_
_atom_site_type_symbol
_atom_site_label
_atom_site_fract_x
_atom_site_fract_y
_atom_site_fract_z
Si Si1 0.553504 0.075482 0.740544
Si Si2 0.575717 0.071716 0.369345
Si Si3 0.232276 0.419300 0.690124
Si Si4 0.641772 0.580083 0.778855
Si Si5 0.500000 0.428186 0.556434
Si Si6 0.677971 0.919497 0.659564
O O1 0.500000 0.055201 0.759270
O O2 0.561138 0.250000 0.731270
O O3 0.558820 0.988853 0.686314
O O4 0.593865 0.013207 0.777933
O O5 0.569867 0.250000 0.371159
O O6 0.631595 0.038290 0.372612
O O7 0.544956 0.990384 0.412174
O O8 0.222760 0.250000 0.677667
O O9 0.250000 0.425239 0.750000
O O10 0.184450 0.512749 0.688315
O O11 0.275559 0.482476 0.657083
O O12 0.632916 0.750000 0.791938
O O13 0.660045 0.576059 0.719205
O O14 0.500000 0.250000 0.554926
O O15 0.500000 0.500000 0.500000
O O16 0.690173 0.750000 0.648206
#
# Coordination Sequence:
#
# PCOD9534181 Si02
#       6
#    16  16  16  16   8  16
#     4  10  18  26  37  53  71  91 116 147 179 211
#     4  10  19  31  45  58  72  88 110 139 173 216
#     4   9  15  22  33  49  68  88 109 135 165 201
#     4   9  16  24  34  47  66  91 115 140 169 204
#     4  12  24  36  48  60  74  92 114 144 182 224
#     4   8  15  25  37  52  68  87 107 131 164 204
#
# _framework density 13.204416999999999
#
# number of rings (size 3 to 8) (size 9 to 14) (size 15 to 20)
#    0.000    2.545    0.909    4.091    0.000    8.364 
#    0.000    0.000    0.000    0.000    0.000    0.000 
#    0.000    0.000    0.000    0.000    0.000    0.000 
#
# Total GULP energy -244989.727527 kJ/mol
# GULP energy per Si atom -5567.948353 kJ/mol
# Density = 1.317436 g / cm^3
# Si number density = 13.204417 Si / 1000 Ang^3
#
#
#
# Elastic Constant Matrix: (Units=GPa)
#
#
# Indices 1 2 3 4 5 6 
#
# 1 111.9583 68.0599 29.4053 0.0000 0.0000 0.0000
# 2 68.0599 98.7520 19.8398 0.0000 0.0000 0.0000
# 3 29.4053 19.8398 19.9511 0.0000 0.0000 0.0000
# 4 0.0000 0.0000 0.0000 10.5084 0.0000 0.0000
# 5 0.0000 0.0000 0.0000 0.0000 7.4567 0.0000
# 6 0.0000 0.0000 0.0000 0.0000 0.0000 27.6441
#
#
#
# Elastic Compliance Matrix: (Units=1/GPa)
#
#
# Indices 1 2 3 4 5 6 
#
# 1 0.020182 -0.009914 -0.019887 0.000000 0.000000 0.000000
# 2 -0.009914 0.017525 -0.002815 0.000000 0.000000 0.000000
# 3 -0.019887 -0.002815 0.082232 0.000000 0.000000 0.000000
# 4 0.000000 0.000000 0.000000 0.095162 0.000000 0.000000
# 5 0.000000 0.000000 0.000000 0.000000 0.134108 0.000000
# 6 0.000000 0.000000 0.000000 0.000000 0.000000 0.036174
#
#
# Mechanical properties :
#
#
# Convention : Reuss Voigt Hill
#
# Bulk Modulus (GPa) = 18.27902 51.69684 34.98793
# Shear Modulus (GPa) = 10.66439 16.67892 13.67166
#
# Velocity S-wave (km/s) = 2.84498 3.55791 3.22123
# Velocity P-wave (km/s) = 4.96639 7.49096 6.35529
#
# Compressibility (1/GPa) = 0.05470752
#
# Stress axis : x y z
#
# Youngs Moduli (GPa) = 49.54959 57.06256 12.16065
#
# Poissons Ratio (x) = 0.56572 0.24184
# Poissons Ratio (y) = 0.49123 0.03423
# Poissons Ratio (z) = 0.98538 0.16063
#
# Static dielectric constant tensor:
#      x y z
#    x 1.458240 0.000000 0.000000 
#    y 0.000000 1.443780 0.000000 
#    z 0.000000 0.000000 1.389580 
# 
# From -- ./inp_files/70928.got.cif
#   From: 2010.05.17/outbox.cif.g08.bks.cpg/sg74_36_cif.got.tgz:70928.got - 2010.06.03 17:57:02.
