data_PCOD9534826
_publ_section_title
;
Structure prediction by ZEFSAII (Michael W. Deem and Ramdas Pophale) SiO2 
 PCOD9534826
Probable space group: I M M A
;
_chemical_formula_sum "Si O2"
_cell_formula_units_Z 52
_cell_length_a 5.304646
_cell_length_b 20.989387
_cell_length_c 37.119226
_cell_angle_alpha 90.000000
_cell_angle_beta 90.000000
_cell_angle_gamma 90.000000
_cell_volume 4132.901682
_symmetry_space_group_name_H-M "I M M A"
_symmetry_group_IT_number 74
_symmetry_cell_setting 'orthorhombic'
loop_
_space_group_symop_operation_xyz
x,y,z
-x,1/2-y,z
x,-y,-z
-x,1/2+y,-z
-x,-y,-z
x,1/2+y,-z
-x,y,z
x,1/2-y,z
1/2+x,1/2+y,1/2+z
1/2-x,-y,1/2+z
1/2+x,1/2-y,1/2-z
1/2-x,y,1/2-z
1/2-x,1/2-y,1/2-z
1/2+x,y,1/2-z
1/2-x,1/2+y,1/2+z
1/2+x,-y,1/2+z
loop_
_atom_site_type_symbol
_atom_site_label
_atom_site_fract_x
_atom_site_fract_y
_atom_site_fract_z
Si Si1 0.500000 0.015675 0.566183
Si Si2 0.500000 0.822736 0.155285
Si Si3 0.000000 0.180907 0.496482
Si Si4 0.500000 0.250000 0.773996
Si Si5 0.000000 0.957261 0.536638
Si Si6 0.000000 0.152936 0.959914
Si Si7 0.500000 0.124868 0.620101
O O1 0.249085 0.976474 0.558611
O O2 0.500000 0.924397 0.461745
O O3 0.500000 0.052906 0.604329
O O4 0.500000 0.750000 0.140081
O O5 0.500000 0.809599 0.198163
O O6 0.250190 0.858015 0.141919
O O7 0.000000 0.117315 0.472687
O O8 0.248571 0.176837 0.521229
O O9 0.000000 0.250000 0.477777
O O10 0.750000 0.250000 0.750000
O O11 0.000000 0.000000 0.500000
O O12 0.000000 0.165425 0.917210
#
# Coordination Sequence:
#
# PCOD9534826 Si02
#       7
#     8   8   8   4   8   8   8
#     4  10  20  29  47  60  71 104 128 174 194 272
#     4  10  20  28  47  60  83 113 125 169 214 234
#     4  12  23  31  41  62  78 105 133 176 220 259
#     4  10  20  34  46  64  84 114 154 162 194 250
#     4  12  17  33  46  55  75 102 140 161 213 264
#     4  10  20  32  43  59  82 100 129 170 213 272
#     4  10  18  32  39  67  78  96 137 162 216 263
#
# _framework density 12.581958999999999
#
# number of rings (size 3 to 8) (size 9 to 14) (size 15 to 20)
#    1.385    0.000    3.077    5.077    0.000    3.692 
#    0.000    0.000    0.000    0.000    0.000    0.000 
#    0.000    0.000    0.000    0.000    0.000    0.000 
#
# Total GULP energy -144812.152052 kJ/mol
# GULP energy per Si atom -5569.698156 kJ/mol
# Density = 1.255332 g / cm^3
# Si number density = 12.581959 Si / 1000 Ang^3
#
#
#
# Elastic Constant Matrix: (Units=GPa)
#
#
# Indices 1 2 3 4 5 6 
#
# 1 154.1855 41.6200 58.9881 0.0000 0.0000 0.0000
# 2 41.6200 89.7650 35.0404 0.0000 0.0000 0.0000
# 3 58.9881 35.0404 70.2479 0.0000 0.0000 0.0000
# 4 0.0000 0.0000 0.0000 21.4630 0.0000 0.0000
# 5 0.0000 0.0000 0.0000 0.0000 20.5399 0.0000
# 6 0.0000 0.0000 0.0000 0.0000 0.0000 16.0402
#
#
#
# Elastic Compliance Matrix: (Units=1/GPa)
#
#
# Indices 1 2 3 4 5 6 
#
# 1 0.009747 -0.001645 -0.007364 0.000000 0.000000 0.000000
# 2 -0.001645 0.014111 -0.005658 0.000000 0.000000 0.000000
# 3 -0.007364 -0.005658 0.023242 0.000000 0.000000 0.000000
# 4 0.000000 0.000000 0.000000 0.046592 0.000000 0.000000
# 5 0.000000 0.000000 0.000000 0.000000 0.048686 0.000000
# 6 0.000000 0.000000 0.000000 0.000000 0.000000 0.062343
#
#
# Mechanical properties :
#
#
# Convention : Reuss Voigt Hill
#
# Bulk Modulus (GPa) = 56.28688 65.05505 60.67097
# Shear Modulus (GPa) = 20.83536 23.51196 22.17366
#
# Velocity S-wave (km/s) = 4.07378 4.32754 4.20257
# Velocity P-wave (km/s) = 8.18296 8.76284 8.47786
#
# Compressibility (1/GPa) = 0.01776613
#
# Stress axis : x y z
#
# Youngs Moduli (GPa) = 102.59465 70.86518 43.02631
#
# Poissons Ratio (x) = 0.11654 0.31687
# Poissons Ratio (y) = 0.16872 0.24344
# Poissons Ratio (z) = 0.75555 0.40095
#
# Static dielectric constant tensor:
#      x y z
#    x 1.406600 0.000000 0.000000 
#    y 0.000000 1.427380 0.000000 
#    z 0.000000 0.000000 1.390790 
# 
# From -- ./inp_files/55920.got.cif
#   From: 2010.05.17/outbox.cif.g08.bks.cpg/sg74_28_cif.got.tgz:55920.got - 2010.06.03 17:57:02.
