data_PCOD9534500
_publ_section_title
;
Structure prediction by ZEFSAII (Michael W. Deem and Ramdas Pophale) SiO2 
 PCOD9534500
Probable space group: I M M A
;
_chemical_formula_sum "Si O2"
_cell_formula_units_Z 64
_cell_length_a 16.345376
_cell_length_b 33.658964
_cell_length_c 5.515023
_cell_angle_alpha 90.000000
_cell_angle_beta 90.000000
_cell_angle_gamma 90.000000
_cell_volume 3034.191503
_symmetry_space_group_name_H-M "I M M A"
_symmetry_group_IT_number 74
_symmetry_cell_setting 'orthorhombic'
loop_
_space_group_symop_operation_xyz
x,y,z
-x,1/2-y,z
x,-y,-z
-x,1/2+y,-z
-x,-y,-z
x,1/2+y,-z
-x,y,z
x,1/2-y,z
1/2+x,1/2+y,1/2+z
1/2-x,-y,1/2+z
1/2+x,1/2-y,1/2-z
1/2-x,y,1/2-z
1/2-x,1/2-y,1/2-z
1/2+x,y,1/2-z
1/2-x,1/2+y,1/2+z
1/2+x,-y,1/2+z
loop_
_atom_site_type_symbol
_atom_site_label
_atom_site_fract_x
_atom_site_fract_y
_atom_site_fract_z
Si Si1 0.697326 0.750000 0.997007
Si Si2 0.000000 0.475087 0.255847
Si Si3 0.169067 0.954996 0.901627
Si Si4 0.848175 0.838696 0.520207
Si Si5 0.159489 0.129839 0.968699
O O1 0.750000 0.750000 0.750000
O O2 0.750000 0.750000 0.250000
O O3 0.648763 0.791181 0.980383
O O4 0.000000 0.500000 0.500000
O O5 0.085553 0.452537 0.249790
O O6 0.000000 0.500000 0.000000
O O7 0.250000 0.947872 0.750000
O O8 0.164393 0.917440 0.077341
O O9 0.174985 0.000000 0.000000
O O10 0.878061 0.858429 0.770137
O O11 0.751747 0.852064 0.494686
O O12 0.884733 0.852719 0.265427
#
# Coordination Sequence:
#
# PCOD9534500 Si02
#       5
#     8   8  16  16  16
#     4  12  16  26  44  66 108 150 172 220 292 326
#     4  10  24  44  58  84 116 145 200 251 280 350
#     4  11  23  37  61  86 113 159 195 237 296 347
#     4  10  18  30  44  75 108 141 180 233 271 337
#     4  10  19  31  47  72 107 137 182 233 271 323
#
# _framework density 21.092934
#
# number of rings (size 3 to 8) (size 9 to 14) (size 15 to 20)
#    0.000    1.500    7.500    0.750    3.500    4.000 
#    0.000    0.000    0.000    0.000    0.000    0.000 
#    0.000   11.000    0.000    0.000    0.000    0.000 
#
# Total GULP energy -178280.864592 kJ/mol
# GULP energy per Si atom -5571.277019 kJ/mol
# Density = 2.104493 g / cm^3
# Si number density = 21.092934 Si / 1000 Ang^3
#
#
#
# Elastic Constant Matrix: (Units=GPa)
#
#
# Indices 1 2 3 4 5 6 
#
# 1 74.0623 -9.1546 1.8517 0.0377 -0.0535 -0.0033
# 2 -9.1546 187.1401 45.2405 -0.0548 -0.0154 -0.0498
# 3 1.8517 45.2405 182.4857 0.3077 -0.0085 -0.2651
# 4 0.0377 -0.0548 0.3077 31.3485 -0.1337 -0.3466
# 5 -0.0535 -0.0154 -0.0085 -0.1337 5.5149 0.0965
# 6 -0.0033 -0.0498 -0.2651 -0.3466 0.0965 11.5914
#
#
#
# Elastic Compliance Matrix: (Units=1/GPa)
#
#
# Indices 1 2 3 4 5 6 
#
# 1 0.013602 0.000743 -0.000322 -0.000011 0.000133 -0.000002
# 2 0.000743 0.005725 -0.001427 0.000023 0.000022 -0.000007
# 3 -0.000322 -0.001427 0.005837 -0.000058 -0.000002 0.000126
# 4 -0.000011 0.000023 -0.000058 0.031914 0.000757 0.000947
# 5 0.000133 0.000022 -0.000002 0.000757 0.181373 -0.001488
# 6 -0.000002 -0.000007 0.000126 0.000947 -0.001488 0.086315
#
#
# Mechanical properties :
#
#
# Convention : Reuss Voigt Hill
#
# Bulk Modulus (GPa) = 43.19171 57.72927 50.46049
# Shear Modulus (GPa) = 14.94793 36.74100 25.84446
#
# Velocity S-wave (km/s) = 2.66497 4.17809 3.50418
# Velocity P-wave (km/s) = 5.47638 7.12065 6.35195
#
# Compressibility (1/GPa) = 0.02315259
#
# Stress axis : x y z
#
# Youngs Moduli (GPa) = 73.51764 174.67565 171.31596
#
# Poissons Ratio (x) = -0.12984 0.05521
# Poissons Ratio (y) = -0.05465 0.24444
# Poissons Ratio (z) = 0.02369 0.24924
#
# Static dielectric constant tensor:
#      x y z
#    x 1.743070 -0.000470 -0.000010 
#    y -0.000470 1.890850 0.000880 
#    z -0.000010 0.000880 1.762000 
# 
# From -- ./inp_files/2388.got.cif
#   From: 2010.05.17/outbox.cif.g08.bks.cpg/sg74_2_cif.got.tgz:2388.got - 2010.06.03 17:57:02.
