data_PCOD9534740
_publ_section_title
;
Structure prediction by ZEFSAII (Michael W. Deem and Ramdas Pophale) SiO2 
 PCOD9534740
Probable space group: I M M A
;
_chemical_formula_sum "Si O2"
_cell_formula_units_Z 128
_cell_length_a 19.568561
_cell_length_b 14.284495
_cell_length_c 20.249812
_cell_angle_alpha 90.000000
_cell_angle_beta 90.000000
_cell_angle_gamma 90.000000
_cell_volume 5660.369437
_symmetry_space_group_name_H-M "I M M A"
_symmetry_group_IT_number 74
_symmetry_cell_setting 'orthorhombic'
loop_
_space_group_symop_operation_xyz
x,y,z
-x,1/2-y,z
x,-y,-z
-x,1/2+y,-z
-x,-y,-z
x,1/2+y,-z
-x,y,z
x,1/2-y,z
1/2+x,1/2+y,1/2+z
1/2-x,-y,1/2+z
1/2+x,1/2-y,1/2-z
1/2-x,y,1/2-z
1/2-x,1/2-y,1/2-z
1/2+x,y,1/2-z
1/2-x,1/2+y,1/2+z
1/2+x,-y,1/2+z
loop_
_atom_site_type_symbol
_atom_site_label
_atom_site_fract_x
_atom_site_fract_y
_atom_site_fract_z
Si Si1 0.876548 0.444275 0.321337
Si Si2 0.923407 0.098345 0.176655
Si Si3 0.426457 0.100204 0.036230
Si Si4 0.726449 0.434785 0.356321
Si Si5 0.920325 0.353746 0.698652
Si Si6 0.217448 0.852906 0.129818
Si Si7 0.724719 0.351917 0.013060
Si Si8 0.927227 0.116041 0.855915
O O1 0.915546 0.415146 0.255312
O O2 0.917383 0.412206 0.385416
O O3 0.798706 0.406152 0.322842
O O4 0.876521 0.558129 0.324339
O O5 0.843982 0.122309 0.156905
O O6 0.000000 0.141547 0.164105
O O7 0.928064 0.995903 0.144009
O O8 0.500000 0.142958 0.020704
O O9 0.356852 0.148273 0.016261
O O10 0.424945 0.000000 0.000000
O O11 0.718795 0.545088 0.334805
O O12 0.744302 0.424698 0.434382
O O13 0.899089 0.250000 0.676411
O O14 0.919435 0.355679 0.778649
O O15 0.000000 0.368416 0.679457
O O16 0.232978 0.750000 0.161372
O O17 0.138524 0.848526 0.107661
O O18 0.259139 0.863943 0.063256
O O19 0.750859 0.250000 0.034447
O O20 0.000000 0.149162 0.880292
#
# Coordination Sequence:
#
# PCOD9534740 Si02
#       8
#    16  16  16  16  16  16  16  16
#     4  10  18  31  51  75 101 131 171 211 252 307
#     4   9  17  31  52  76 102 135 171 207 255 312
#     4  10  20  35  56  79 103 133 168 210 259 307
#     4  10  20  34  53  76 104 136 170 214 261 304
#     4   9  16  26  43  71 109 145 169 196 240 296
#     4  10  19  31  50  76 105 138 173 207 249 301
#     4  10  21  37  55  74 100 136 176 219 264 306
#     4   8  15  28  46  72 107 142 172 200 234 290
#
# _framework density 22.613365000000002
#
# number of rings (size 3 to 8) (size 9 to 14) (size 15 to 20)
#    0.000    2.500    0.000    4.500    0.000    1.500 
#    0.000    1.250    0.000   15.375    0.000    0.000 
#    0.000    0.000    0.000    0.000    0.000    0.000 
#
# Total GULP energy -356410.076422 kJ/mol
# GULP energy per Si atom -5568.907444 kJ/mol
# Density = 2.256190 g / cm^3
# Si number density = 22.613365 Si / 1000 Ang^3
#
#
#
# Elastic Constant Matrix: (Units=GPa)
#
#
# Indices 1 2 3 4 5 6 
#
# 1 155.1762 1.9364 27.4881 0.0000 0.0000 0.0000
# 2 1.9364 50.5087 -4.4102 0.0000 0.0000 0.0000
# 3 27.4881 -4.4102 31.4413 0.0000 0.0000 0.0000
# 4 0.0000 0.0000 0.0000 -0.2041 0.0000 0.0000
# 5 0.0000 0.0000 0.0000 0.0000 8.9334 0.0000
# 6 0.0000 0.0000 0.0000 0.0000 0.0000 225.4486
#
#
#
# Elastic Compliance Matrix: (Units=1/GPa)
#
#
# Indices 1 2 3 4 5 6 
#
# 1 0.007664 -0.000890 -0.006826 0.000000 0.000000 0.000000
# 2 -0.000890 0.020147 0.003604 0.000000 0.000000 0.000000
# 3 -0.006826 0.003604 0.038278 0.000000 0.000000 0.000000
# 4 0.000000 0.000000 0.000000 -4.900029 0.000000 0.000000
# 5 0.000000 0.000000 0.000000 0.000000 0.111940 0.000000
# 6 0.000000 0.000000 0.000000 0.000000 0.000000 0.004436
#
#
# Mechanical properties :
#
#
# Convention : Reuss Voigt Hill
#
# Bulk Modulus (GPa) = 17.28095 31.90607 24.59351
# Shear Modulus (GPa) = -1.06609 60.97639 29.95515
#
# Velocity S-wave (km/s) = -0.68736 5.19839 3.64354
# Velocity P-wave (km/s) = 2.65114 7.08315 5.34788
#
# Compressibility (1/GPa) = 0.05786718
#
# Stress axis : x y z
#
# Youngs Moduli (GPa) = 130.47194 49.63425 26.12454
#
# Poissons Ratio (x) = 0.04417 0.17832
# Poissons Ratio (y) = 0.11610 -0.09415
# Poissons Ratio (z) = 0.89055 -0.17888
#
# Static dielectric constant tensor:
#      x y z
#    x 1.917340 0.000000 0.000000 
#    y 0.000000 1.965710 0.000000 
#    z 0.000000 0.000000 1.784930 
# 
# From -- ./inp_files/54209.got.cif
#   From: 2010.05.17/outbox.cif.g08.bks.cpg/sg74_28_cif.got.tgz:54209.got - 2010.06.03 17:57:02.
