data_PCOD9534498
_publ_section_title
;
Structure prediction by ZEFSAII (Michael W. Deem and Ramdas Pophale) SiO2 
 PCOD9534498
Probable space group: I M M A
;
_chemical_formula_sum "Si O2"
_cell_formula_units_Z 104
_cell_length_a 28.190265
_cell_length_b 7.820923
_cell_length_c 20.566607
_cell_angle_alpha 90.000000
_cell_angle_beta 90.000000
_cell_angle_gamma 90.000000
_cell_volume 4534.399889
_symmetry_space_group_name_H-M "I M M A"
_symmetry_group_IT_number 74
_symmetry_cell_setting 'orthorhombic'
loop_
_space_group_symop_operation_xyz
x,y,z
-x,1/2-y,z
x,-y,-z
-x,1/2+y,-z
-x,-y,-z
x,1/2+y,-z
-x,y,z
x,1/2-y,z
1/2+x,1/2+y,1/2+z
1/2-x,-y,1/2+z
1/2+x,1/2-y,1/2-z
1/2-x,y,1/2-z
1/2-x,1/2-y,1/2-z
1/2+x,y,1/2-z
1/2-x,1/2+y,1/2+z
1/2+x,-y,1/2+z
loop_
_atom_site_type_symbol
_atom_site_label
_atom_site_fract_x
_atom_site_fract_y
_atom_site_fract_z
Si Si1 0.841636 0.052597 0.427967
Si Si2 0.946184 0.451183 0.266665
Si Si3 0.447794 0.055243 0.911168
Si Si4 0.000000 0.955489 0.925217
Si Si5 0.692729 0.454608 0.425891
Si Si6 0.903225 0.040477 0.138015
Si Si7 0.728864 0.458362 0.179622
O O1 0.829953 0.250000 0.424537
O O2 0.818792 0.981129 0.360157
O O3 0.823482 0.000000 0.500000
O O4 0.898470 0.030357 0.429916
O O5 0.938534 0.250000 0.282397
O O6 0.946028 0.552252 0.333025
O O7 0.907906 0.505853 0.213671
O O8 0.000000 0.461888 0.238733
O O9 0.500000 0.979607 0.927896
O O10 0.446700 0.250000 0.935083
O O11 0.048572 0.021055 0.894791
O O12 0.000000 0.750000 0.916549
O O13 0.000000 0.000000 0.000000
O O14 0.702346 0.500000 0.500000
O O15 0.690714 0.250000 0.422647
O O16 0.642191 0.521696 0.400690
O O17 0.732057 0.505991 0.374232
O O18 0.903032 0.250000 0.137018
O O19 0.725047 0.250000 0.187006
O O20 0.750000 0.517447 0.250000
#
# Coordination Sequence:
#
# PCOD9534498 Si02
#       7
#    16  16  16   8  16  16  16
#     4  11  23  40  66  94 124 162 203 250 301 359
#     4   9  16  30  53  80 109 148 198 244 289 344
#     4  10  22  39  59  88 127 162 195 241 298 363
#     4  10  18  30  44  68 104 142 189 236 281 338
#     4  10  20  35  56  80 112 150 190 239 291 346
#     4   9  17  29  50  76 104 145 193 239 285 342
#     4   9  20  38  62  92 117 148 199 249 294 350
#
# _framework density 22.935780999999999
#
# number of rings (size 3 to 8) (size 9 to 14) (size 15 to 20)
#    0.000    2.308    0.769    1.846    2.154    1.231 
#    0.000    2.308    0.000    2.308    0.000    0.000 
#    0.000    0.000    0.000    0.000    0.000    0.000 
#
# Total GULP energy -289995.438166 kJ/mol
# GULP energy per Si atom -5576.835349 kJ/mol
# Density = 2.288358 g / cm^3
# Si number density = 22.935781 Si / 1000 Ang^3
#
#
#
# Elastic Constant Matrix: (Units=GPa)
#
#
# Indices 1 2 3 4 5 6 
#
# 1 110.0061 4.8620 59.7028 0.0000 0.0000 0.0000
# 2 4.8620 24.7857 6.8022 0.0000 0.0000 0.0000
# 3 59.7028 6.8022 175.9917 0.0000 0.0000 0.0000
# 4 0.0000 0.0000 0.0000 28.3256 0.0000 0.0000
# 5 0.0000 0.0000 0.0000 0.0000 3.0495 0.0000
# 6 0.0000 0.0000 0.0000 0.0000 0.0000 -186.3863
#
#
#
# Elastic Compliance Matrix: (Units=1/GPa)
#
#
# Indices 1 2 3 4 5 6 
#
# 1 0.011175 -0.001164 -0.003746 0.000000 0.000000 0.000000
# 2 -0.001164 0.040900 -0.001186 0.000000 0.000000 0.000000
# 3 -0.003746 -0.001186 0.006999 0.000000 0.000000 0.000000
# 4 0.000000 0.000000 0.000000 0.035304 0.000000 0.000000
# 5 0.000000 0.000000 0.000000 0.000000 0.327917 0.000000
# 6 0.000000 0.000000 0.000000 0.000000 0.000000 -0.005365
#
#
# Mechanical properties :
#
#
# Convention : Reuss Voigt Hill
#
# Bulk Modulus (GPa) = 21.33041 50.39083 35.86062
# Shear Modulus (GPa) = 11.24232 -15.04113 -1.89940
#
# Velocity S-wave (km/s) = 2.21637 -2.56362 -0.91101
# Velocity P-wave (km/s) = 3.98371 3.64077 3.81610
#
# Compressibility (1/GPa) = 0.04688141
#
# Stress axis : x y z
#
# Youngs Moduli (GPa) = 89.48666 24.45010 142.88410
#
# Poissons Ratio (x) = 0.02846 0.53523
# Poissons Ratio (y) = 0.10417 0.16945
# Poissons Ratio (z) = 0.33521 0.02900
#
# Static dielectric constant tensor:
#      x y z
#    x 1.907540 0.000000 0.000000 
#    y 0.000000 1.843710 0.000000 
#    z 0.000000 0.000000 1.865120 
# 
# From -- ./inp_files/55179.got.cif
#   From: 2010.05.17/outbox.cif.g08.bks.cpg/sg74_28_cif.got.tgz:55179.got - 2010.06.03 17:57:02.
