data_PCOD9534846
_publ_section_title
;
Structure prediction by ZEFSAII (Michael W. Deem and Ramdas Pophale) SiO2 
 PCOD9534846
Probable space group: I M M A
;
_chemical_formula_sum "Si O2"
_cell_formula_units_Z 116
_cell_length_a 28.041891
_cell_length_b 7.959095
_cell_length_c 27.999966
_cell_angle_alpha 90.000000
_cell_angle_beta 90.000000
_cell_angle_gamma 90.000000
_cell_volume 6249.258496
_symmetry_space_group_name_H-M "I M M A"
_symmetry_group_IT_number 74
_symmetry_cell_setting 'orthorhombic'
loop_
_space_group_symop_operation_xyz
x,y,z
-x,1/2-y,z
x,-y,-z
-x,1/2+y,-z
-x,-y,-z
x,1/2+y,-z
-x,y,z
x,1/2-y,z
1/2+x,1/2+y,1/2+z
1/2-x,-y,1/2+z
1/2+x,1/2-y,1/2-z
1/2-x,y,1/2-z
1/2-x,1/2-y,1/2-z
1/2+x,y,1/2-z
1/2-x,1/2+y,1/2+z
1/2+x,-y,1/2+z
loop_
_atom_site_type_symbol
_atom_site_label
_atom_site_fract_x
_atom_site_fract_y
_atom_site_fract_z
Si Si1 0.422839 0.947979 0.422910
Si Si2 0.677749 0.053641 0.707904
Si Si3 0.500000 0.500000 0.500000
Si Si4 0.074971 0.056779 0.181492
Si Si5 0.315404 0.547843 0.445318
Si Si6 0.242679 0.547524 0.365061
Si Si7 0.551461 0.044883 0.212432
Si Si8 0.344627 0.551081 0.811800
O O1 0.425641 0.750000 0.435260
O O2 0.458449 0.033837 0.459499
O O3 0.368339 0.009034 0.429350
O O4 0.437346 0.967735 0.367759
O O5 0.670113 0.250000 0.695902
O O6 0.725178 0.998609 0.680814
O O7 0.632025 0.955640 0.688412
O O8 0.678004 0.033470 0.764701
O O9 0.060307 0.250000 0.177245
O O10 0.055562 0.990008 0.232032
O O11 0.307642 0.500000 0.500000
O O12 0.316335 0.750000 0.441101
O O13 0.273175 0.487735 0.410566
O O14 0.240191 0.750000 0.366618
O O15 0.189445 0.483688 0.356343
O O16 0.500000 0.990385 0.193178
O O17 0.551708 0.250000 0.212931
O O18 0.600211 0.992891 0.186224
O O19 0.345219 0.750000 0.802664
#
# Coordination Sequence:
#
# PCOD9534846 Si02
#       8
#    16  16   4  16  16  16  16  16
#     4  11  23  40  55  71  97 128 169 220 274 324
#     4  10  18  32  51  71 101 138 169 202 254 312
#     4  12  26  40  56  74  94 128 176 238 280 304
#     4  10  20  32  52  76  97 127 171 216 258 307
#     4  10  21  39  57  74  96 130 171 212 263 321
#     4  10  20  34  51  71  99 136 167 200 258 317
#     4   8  16  32  49  69 100 135 165 199 244 293
#     4  10  20  31  48  77 105 130 170 213 247 296
#
# _framework density 18.562201000000002
#
# number of rings (size 3 to 8) (size 9 to 14) (size 15 to 20)
#    0.000    2.069    2.069    2.690    0.966    4.966 
#    0.000    0.000    0.000    8.276    0.000    0.000 
#    0.000    0.552    0.000    1.241    0.000    1.931 
#
# Total GULP energy -323176.706935 kJ/mol
# GULP energy per Si atom -5572.012189 kJ/mol
# Density = 1.851995 g / cm^3
# Si number density = 18.562201 Si / 1000 Ang^3
#
#
#
# Elastic Constant Matrix: (Units=GPa)
#
#
# Indices 1 2 3 4 5 6 
#
# 1 157.1921 9.8475 59.5453 0.0000 0.0000 0.0000
# 2 9.8475 24.2514 4.0908 0.0000 0.0000 0.0000
# 3 59.5453 4.0908 60.3086 0.0000 0.0000 0.0000
# 4 0.0000 0.0000 0.0000 16.4458 0.0000 0.0000
# 5 0.0000 0.0000 0.0000 0.0000 0.9774 0.0000
# 6 0.0000 0.0000 0.0000 0.0000 0.0000 -46.9960
#
#
#
# Elastic Compliance Matrix: (Units=1/GPa)
#
#
# Indices 1 2 3 4 5 6 
#
# 1 0.010310 -0.002498 -0.010010 0.000000 0.000000 0.000000
# 2 -0.002498 0.042317 -0.000404 0.000000 0.000000 0.000000
# 3 -0.010010 -0.000404 0.026492 0.000000 0.000000 0.000000
# 4 0.000000 0.000000 0.000000 0.060806 0.000000 0.000000
# 5 0.000000 0.000000 0.000000 0.000000 1.023113 0.000000
# 6 0.000000 0.000000 0.000000 0.000000 0.000000 -0.021278
#
#
# Mechanical properties :
#
#
# Convention : Reuss Voigt Hill
#
# Bulk Modulus (GPa) = 18.76341 43.19102 30.97722
# Shear Modulus (GPa) = 4.21817 5.30335 4.76076
#
# Velocity S-wave (km/s) = 1.50910 1.69212 1.60322
# Velocity P-wave (km/s) = 3.62862 5.20927 4.48906
#
# Compressibility (1/GPa) = 0.05329521
#
# Stress axis : x y z
#
# Youngs Moduli (GPa) = 96.99319 23.63101 37.74699
#
# Poissons Ratio (x) = 0.05903 0.37785
# Poissons Ratio (y) = 0.24228 0.01525
# Poissons Ratio (z) = 0.97091 0.00955
#
# Static dielectric constant tensor:
#      x y z
#    x 1.680360 0.000000 0.000000 
#    y 0.000000 1.699560 0.000000 
#    z 0.000000 0.000000 1.618740 
# 
# From -- ./inp_files/73977.got.cif
#   From: 2010.05.17/outbox.cif.g08.bks.cpg/sg74_37_cif.got.tgz:73977.got - 2010.06.03 17:57:02.
