data_PCOD9534040
_publ_section_title
;
Structure prediction by ZEFSAII (Michael W. Deem and Ramdas Pophale) SiO2 
 PCOD9534040
Probable space group: I M M A
;
_chemical_formula_sum "Si O2"
_cell_formula_units_Z 80
_cell_length_a 13.748484
_cell_length_b 11.360544
_cell_length_c 23.203568
_cell_angle_alpha 90.000000
_cell_angle_beta 90.000000
_cell_angle_gamma 90.000000
_cell_volume 3624.171259
_symmetry_space_group_name_H-M "I M M A"
_symmetry_group_IT_number 74
_symmetry_cell_setting 'orthorhombic'
loop_
_space_group_symop_operation_xyz
x,y,z
-x,1/2-y,z
x,-y,-z
-x,1/2+y,-z
-x,-y,-z
x,1/2+y,-z
-x,y,z
x,1/2-y,z
1/2+x,1/2+y,1/2+z
1/2-x,-y,1/2+z
1/2+x,1/2-y,1/2-z
1/2-x,y,1/2-z
1/2-x,1/2-y,1/2-z
1/2+x,y,1/2-z
1/2-x,1/2+y,1/2+z
1/2+x,-y,1/2+z
loop_
_atom_site_type_symbol
_atom_site_label
_atom_site_fract_x
_atom_site_fract_y
_atom_site_fract_z
Si Si1 0.609581 0.884261 0.338986
Si Si2 0.391224 0.250000 0.358459
Si Si3 0.264618 0.065008 0.151168
Si Si4 0.147544 0.612233 0.530395
Si Si5 0.861983 0.876877 0.023283
Si Si6 0.888143 0.750000 0.719855
O O1 0.500000 0.933105 0.325069
O O2 0.612299 0.750000 0.317498
O O3 0.619511 0.878879 0.408439
O O4 0.706775 0.955365 0.322145
O O5 0.500000 0.250000 0.378969
O O6 0.327093 0.138732 0.374242
O O7 0.391534 0.250000 0.288639
O O8 0.332375 0.063559 0.094934
O O9 0.327025 0.138878 0.196839
O O10 0.097653 0.500000 0.500000
O O11 0.111588 0.750000 0.533697
O O12 0.248326 0.623190 0.494256
O O13 0.898050 0.750000 0.001577
O O14 0.900098 0.000000 0.000000
O O15 0.000000 0.750000 0.698874
#
# Coordination Sequence:
#
# PCOD9534040 Si02
#       6
#    16   8  16  16  16   8
#     4  10  20  32  46  75 118 160 192 218 261 335
#     4  10  21  37  58  89 115 138 183 247 308 357
#     4  11  18  34  58  82 111 151 190 231 291 354
#     4  10  17  28  46  75 111 156 196 223 264 326
#     4   9  16  27  40  62 106 157 197 222 254 306
#     4  10  23  41  64  85 105 136 191 271 326 345
#
# _framework density 22.074010999999999
#
# number of rings (size 3 to 8) (size 9 to 14) (size 15 to 20)
#    0.000    2.000    6.000    1.800    0.000    0.400 
#    0.000    0.000    0.000    3.600    0.000    2.800 
#    0.000    0.000    0.000    0.000    0.000    0.000 
#
# Total GULP energy -222789.752237 kJ/mol
# GULP energy per Si atom -5569.743806 kJ/mol
# Density = 2.202377 g / cm^3
# Si number density = 22.074011 Si / 1000 Ang^3
#
#
#
# Elastic Constant Matrix: (Units=GPa)
#
#
# Indices 1 2 3 4 5 6 
#
# 1 138.3949 46.4292 19.2958 0.0000 0.0000 0.0000
# 2 46.4292 174.9050 17.5364 0.0000 0.0000 0.0000
# 3 19.2958 17.5364 62.4321 0.0000 0.0000 0.0000
# 4 0.0000 0.0000 0.0000 4.2767 0.0000 0.0000
# 5 0.0000 0.0000 0.0000 0.0000 -4.9953 0.0000
# 6 0.0000 0.0000 0.0000 0.0000 0.0000 -14.5468
#
#
#
# Elastic Compliance Matrix: (Units=1/GPa)
#
#
# Indices 1 2 3 4 5 6 
#
# 1 0.008161 -0.001969 -0.001969 0.000000 0.000000 0.000000
# 2 -0.001969 0.006358 -0.001177 0.000000 0.000000 0.000000
# 3 -0.001969 -0.001177 0.016957 0.000000 0.000000 0.000000
# 4 0.000000 0.000000 0.000000 0.233825 0.000000 0.000000
# 5 0.000000 0.000000 0.000000 0.000000 -0.200186 0.000000
# 6 0.000000 0.000000 0.000000 0.000000 0.000000 -0.068744
#
#
# Mechanical properties :
#
#
# Convention : Reuss Voigt Hill
#
# Bulk Modulus (GPa) = 47.07063 60.25052 53.66057
# Shear Modulus (GPa) = 365.42664 16.44496 190.93580
#
# Velocity S-wave (km/s) = 12.88043 2.73242 9.31052
# Velocity P-wave (km/s) = 15.57490 6.10809 11.82976
#
# Compressibility (1/GPa) = 0.02124467
#
# Stress axis : x y z
#
# Youngs Moduli (GPa) = 122.53729 157.28012 58.97359
#
# Poissons Ratio (x) = 0.30966 0.11613
# Poissons Ratio (y) = 0.24126 0.06943
# Poissons Ratio (z) = 0.24130 0.18518
#
# Static dielectric constant tensor:
#      x y z
#    x 1.820720 0.000000 0.000000 
#    y 0.000000 1.989490 0.000000 
#    z 0.000000 0.000000 1.798410 
# 
# From -- ./inp_files/66918.got.cif
#   From: 2010.05.17/outbox.cif.g08.bks.cpg/sg74_34_cif.got.tgz:66918.got - 2010.06.03 17:57:02.
