data_PCOD9534325
_publ_section_title
;
Structure prediction by ZEFSAII (Michael W. Deem and Ramdas Pophale) SiO2 
 PCOD9534325
Probable space group: I M M A
;
_chemical_formula_sum "Si O2"
_cell_formula_units_Z 112
_cell_length_a 30.707374
_cell_length_b 14.339637
_cell_length_c 14.845789
_cell_angle_alpha 90.000000
_cell_angle_beta 90.000000
_cell_angle_gamma 90.000000
_cell_volume 6537.084816
_symmetry_space_group_name_H-M "I M M A"
_symmetry_group_IT_number 74
_symmetry_cell_setting 'orthorhombic'
loop_
_space_group_symop_operation_xyz
x,y,z
-x,1/2-y,z
x,-y,-z
-x,1/2+y,-z
-x,-y,-z
x,1/2+y,-z
-x,y,z
x,1/2-y,z
1/2+x,1/2+y,1/2+z
1/2-x,-y,1/2+z
1/2+x,1/2-y,1/2-z
1/2-x,y,1/2-z
1/2-x,1/2-y,1/2-z
1/2+x,y,1/2-z
1/2-x,1/2+y,1/2+z
1/2+x,-y,1/2+z
loop_
_atom_site_type_symbol
_atom_site_label
_atom_site_fract_x
_atom_site_fract_y
_atom_site_fract_z
Si Si1 0.449433 0.638921 0.549839
Si Si2 0.868951 0.028438 0.352179
Si Si3 0.344242 0.640591 0.022814
Si Si4 0.182621 0.076844 0.786263
Si Si5 0.260509 0.855676 0.123441
Si Si6 0.409436 0.858899 0.361562
Si Si7 0.449775 0.526679 0.731673
O O1 0.500000 0.617251 0.526206
O O2 0.446388 0.750000 0.563862
O O3 0.419475 0.613968 0.464966
O O4 0.439222 0.586970 0.642437
O O5 0.855449 0.106574 0.423091
O O6 0.915870 0.048173 0.310197
O O7 0.868048 0.930204 0.407782
O O8 0.835246 0.012000 0.269408
O O9 0.353605 0.750000 0.038274
O O10 0.292705 0.625703 0.040915
O O11 0.221455 0.072462 0.858870
O O12 0.206338 0.138162 0.708739
O O13 0.139923 0.120960 0.830925
O O14 0.243164 0.750000 0.117121
O O15 0.418918 0.750000 0.352870
O O16 0.440271 0.920897 0.298755
O O17 0.500000 0.541593 0.755102
#
# Coordination Sequence:
#
# PCOD9534325 Si02
#       7
#    16  16  16  16  16  16  16
#     4   9  18  32  49  68  93 130 170 202 238 291
#     4   9  19  33  52  75 102 126 166 203 250 299
#     4   9  18  34  55  76  98 130 166 204 251 301
#     4   9  16  27  47  73 102 125 158 200 238 285
#     4   9  15  26  49  74  96 124 162 202 246 291
#     4  10  18  28  46  72 103 132 162 201 245 289
#     4  10  20  33  50  70  98 132 166 205 247 298
#
# _framework density 17.133019000000001
#
# number of rings (size 3 to 8) (size 9 to 14) (size 15 to 20)
#    0.000    2.714    0.000    2.571    0.000    6.571 
#    0.000    1.429   40.857    0.857    0.000   18.000 
#    0.000    0.000    0.000    0.000    0.000    0.000 
#
# Total GULP energy -311807.866914 kJ/mol
# GULP energy per Si atom -5567.997623 kJ/mol
# Density = 1.709402 g / cm^3
# Si number density = 17.133019 Si / 1000 Ang^3
#
#
#
# Elastic Constant Matrix: (Units=GPa)
#
#
# Indices 1 2 3 4 5 6 
#
# 1 82.5219 15.2139 53.4690 0.0000 0.0000 0.0000
# 2 15.2139 39.5288 18.9884 0.0000 0.0000 0.0000
# 3 53.4690 18.9884 73.4285 0.0000 0.0000 0.0000
# 4 0.0000 0.0000 0.0000 18.9732 0.0000 0.0000
# 5 0.0000 0.0000 0.0000 0.0000 26.5276 0.0000
# 6 0.0000 0.0000 0.0000 0.0000 0.0000 10.8518
#
#
#
# Elastic Compliance Matrix: (Units=1/GPa)
#
#
# Indices 1 2 3 4 5 6 
#
# 1 0.022972 -0.000920 -0.016490 0.000000 0.000000 0.000000
# 2 -0.000920 0.028923 -0.006809 0.000000 0.000000 0.000000
# 3 -0.016490 -0.006809 0.027387 0.000000 0.000000 0.000000
# 4 0.000000 0.000000 0.000000 0.052706 0.000000 0.000000
# 5 0.000000 0.000000 0.000000 0.000000 0.037697 0.000000
# 6 0.000000 0.000000 0.000000 0.000000 0.000000 0.092151
#
#
# Mechanical properties :
#
#
# Convention : Reuss Voigt Hill
#
# Bulk Modulus (GPa) = 32.42173 41.20243 36.81208
# Shear Modulus (GPa) = 15.59795 18.45771 17.02783
#
# Velocity S-wave (km/s) = 3.02056 3.28581 3.15598
# Velocity P-wave (km/s) = 5.57940 6.20453 5.90025
#
# Compressibility (1/GPa) = 0.03084351
#
# Stress axis : x y z
#
# Youngs Moduli (GPa) = 43.53142 34.57429 36.51381
#
# Poissons Ratio (x) = 0.03182 0.60210
# Poissons Ratio (y) = 0.04007 0.24863
# Poissons Ratio (z) = 0.71782 0.23543
#
# Static dielectric constant tensor:
#      x y z
#    x 1.588180 0.000000 0.000000 
#    y 0.000000 1.586780 0.000000 
#    z 0.000000 0.000000 1.606910 
# 
# From -- ./inp_files/37964.got.cif
#   From: 2010.05.17/outbox.cif.g08.bks.cpg/sg74_19_cif.got.tgz:37964.got - 2010.06.03 17:57:02.
