data_PCOD9534120
_publ_section_title
;
Structure prediction by ZEFSAII (Michael W. Deem and Ramdas Pophale) SiO2 
 PCOD9534120
Probable space group: I M M A
;
_chemical_formula_sum "Si O2"
_cell_formula_units_Z 128
_cell_length_a 16.754732
_cell_length_b 18.906229
_cell_length_c 22.283315
_cell_angle_alpha 90.000000
_cell_angle_beta 90.000000
_cell_angle_gamma 90.000000
_cell_volume 7058.658953
_symmetry_space_group_name_H-M "I M M A"
_symmetry_group_IT_number 74
_symmetry_cell_setting 'orthorhombic'
loop_
_space_group_symop_operation_xyz
x,y,z
-x,1/2-y,z
x,-y,-z
-x,1/2+y,-z
-x,-y,-z
x,1/2+y,-z
-x,y,z
x,1/2-y,z
1/2+x,1/2+y,1/2+z
1/2-x,-y,1/2+z
1/2+x,1/2-y,1/2-z
1/2-x,y,1/2-z
1/2-x,1/2-y,1/2-z
1/2+x,y,1/2-z
1/2-x,1/2+y,1/2+z
1/2+x,-y,1/2+z
loop_
_atom_site_type_symbol
_atom_site_label
_atom_site_fract_x
_atom_site_fract_y
_atom_site_fract_z
Si Si1 0.192824 0.925145 0.198967
Si Si2 0.740855 0.387911 0.070353
Si Si3 0.911059 0.582995 0.984844
Si Si4 0.331674 0.971354 0.109374
Si Si5 0.815590 0.327091 0.551185
Si Si6 0.365065 0.670098 0.398734
Si Si7 0.815704 0.169879 0.302228
Si Si8 0.409543 0.531806 0.777051
O O1 0.250000 0.890874 0.250000
O O2 0.252412 0.956862 0.149416
O O3 0.134986 0.871651 0.164098
O O4 0.146252 0.988158 0.231665
O O5 0.834872 0.396393 0.055561
O O6 0.696442 0.464000 0.067745
O O7 0.724083 0.356207 0.135690
O O8 0.702862 0.339488 0.018700
O O9 0.000000 0.595236 0.958972
O O10 0.903602 0.500000 0.000000
O O11 0.904201 0.626188 0.047237
O O12 0.354762 0.898449 0.077031
O O13 0.396541 0.997150 0.157264
O O14 0.853729 0.250000 0.561336
O O15 0.728538 0.325455 0.582816
O O16 0.396002 0.750000 0.394720
O O17 0.845622 0.250000 0.309059
O O18 0.750000 0.168976 0.250000
O O19 0.881140 0.112213 0.284025
O O20 0.500000 0.526666 0.757471
#
# Coordination Sequence:
#
# PCOD9534120 Si02
#       8
#    16  16  16  16  16  16  16  16
#     4   9  17  31  51  75 101 135 177 214 248 293
#     4  10  17  31  53  75  97 129 172 210 246 296
#     4  10  20  32  48  74 109 146 178 208 248 301
#     4   9  17  31  51  73 100 131 164 209 255 293
#     4   9  16  27  48  75  97 124 166 210 248 288
#     4   9  18  31  47  72 105 136 170 215 258 290
#     4  10  21  37  56  77 102 130 162 206 256 300
#     4  10  20  34  53  75  99 130 167 205 249 304
#
# _framework density 18.133756000000002
#
# number of rings (size 3 to 8) (size 9 to 14) (size 15 to 20)
#    0.000    2.500    0.000    4.875    0.000    1.750 
#    0.000    5.625    0.000    7.875    0.000    0.000 
#    0.000    0.000    0.000    0.000    0.000    0.000 
#
# Total GULP energy -356671.533578 kJ/mol
# GULP energy per Si atom -5572.992712 kJ/mol
# Density = 1.809248 g / cm^3
# Si number density = 18.133756 Si / 1000 Ang^3
#
#
#
# Elastic Constant Matrix: (Units=GPa)
#
#
# Indices 1 2 3 4 5 6 
#
# 1 29.7105 16.1286 8.6204 0.0000 0.0000 0.0000
# 2 16.1286 143.7680 44.8461 0.0000 0.0000 0.0000
# 3 8.6204 44.8461 74.8119 0.0000 0.0000 0.0000
# 4 0.0000 0.0000 0.0000 23.3085 0.0000 0.0000
# 5 0.0000 0.0000 0.0000 0.0000 9.1821 0.0000
# 6 0.0000 0.0000 0.0000 0.0000 0.0000 -18.8596
#
#
#
# Elastic Compliance Matrix: (Units=1/GPa)
#
#
# Indices 1 2 3 4 5 6 
#
# 1 0.036115 -0.003387 -0.002131 0.000000 0.000000 0.000000
# 2 -0.003387 0.008873 -0.004929 0.000000 0.000000 0.000000
# 3 -0.002131 -0.004929 0.016567 0.000000 0.000000 0.000000
# 4 0.000000 0.000000 0.000000 0.042903 0.000000 0.000000
# 5 0.000000 0.000000 0.000000 0.000000 0.108908 0.000000
# 6 0.000000 0.000000 0.000000 0.000000 0.000000 -0.053023
#
#
# Mechanical properties :
#
#
# Convention : Reuss Voigt Hill
#
# Bulk Modulus (GPa) = 24.59321 43.05340 33.82331
# Shear Modulus (GPa) = 25.66867 14.63920 20.15393
#
# Velocity S-wave (km/s) = 3.76642 2.84437 3.33739
# Velocity P-wave (km/s) = 5.70141 5.88055 5.79168
#
# Compressibility (1/GPa) = 0.04066162
#
# Stress axis : x y z
#
# Youngs Moduli (GPa) = 27.68925 112.70115 60.36115
#
# Poissons Ratio (x) = 0.38169 0.12865
# Poissons Ratio (y) = 0.09378 0.29750
# Poissons Ratio (z) = 0.05901 0.55547
#
# Static dielectric constant tensor:
#      x y z
#    x 1.604020 0.000000 0.000000 
#    y 0.000000 1.655370 0.000000 
#    z 0.000000 0.000000 1.625780 
# 
# From -- ./inp_files/61115.got.cif
#   From: 2010.05.17/outbox.cif.g08.bks.cpg/sg74_31_cif.got.tgz:61115.got - 2010.06.03 17:57:02.
