data_PCOD9534862
_publ_section_title
;
Structure prediction by ZEFSAII (Michael W. Deem and Ramdas Pophale) SiO2 
 PCOD9534862
Probable space group: I M M A
;
_chemical_formula_sum "Si O2"
_cell_formula_units_Z 88
_cell_length_a 8.690474
_cell_length_b 33.585622
_cell_length_c 19.928738
_cell_angle_alpha 90.000000
_cell_angle_beta 90.000000
_cell_angle_gamma 90.000000
_cell_volume 5816.699901
_symmetry_space_group_name_H-M "I M M A"
_symmetry_group_IT_number 74
_symmetry_cell_setting 'orthorhombic'
loop_
_space_group_symop_operation_xyz
x,y,z
-x,1/2-y,z
x,-y,-z
-x,1/2+y,-z
-x,-y,-z
x,1/2+y,-z
-x,y,z
x,1/2-y,z
1/2+x,1/2+y,1/2+z
1/2-x,-y,1/2+z
1/2+x,1/2-y,1/2-z
1/2-x,y,1/2-z
1/2-x,1/2-y,1/2-z
1/2+x,y,1/2-z
1/2-x,1/2+y,1/2+z
1/2+x,-y,1/2+z
loop_
_atom_site_type_symbol
_atom_site_label
_atom_site_fract_x
_atom_site_fract_y
_atom_site_fract_z
Si Si1 0.173847 0.450619 0.316766
Si Si2 0.814394 0.457876 0.965466
Si Si3 0.827021 0.045419 0.681220
Si Si4 0.816309 0.833532 0.673962
Si Si5 0.684419 0.250000 0.325592
Si Si6 0.320630 0.401491 0.420663
O O1 0.250000 0.433428 0.250000
O O2 0.161550 0.497698 0.309517
O O3 0.292303 0.440294 0.374772
O O4 0.000000 0.435277 0.328285
O O5 0.761536 0.451429 0.889158
O O6 0.000000 0.459246 0.968058
O O7 0.759266 0.500000 0.000000
O O8 0.764682 0.418887 0.008355
O O9 0.750000 0.060925 0.750000
O O10 0.000000 0.061350 0.674533
O O11 0.750000 0.839863 0.750000
O O12 0.748902 0.791564 0.646937
O O13 0.766427 0.867469 0.621175
O O14 0.000000 0.831281 0.679633
O O15 0.500000 0.250000 0.325604
O O16 0.750000 0.250000 0.250000
O O17 0.500000 0.391003 0.424509
#
# Coordination Sequence:
#
# PCOD9534862 Si02
#       6
#    16  16  16  16   8  16
#     4  10  19  29  41  59  82 111 146 188 231 274
#     4  10  20  34  49  65  88 119 153 194 242 287
#     4  10  20  32  48  64  83 111 150 192 232 279
#     4  11  21  34  50  70  96 125 160 197 237 281
#     4  10  18  32  52  72  94 122 157 192 233 280
#     4  11  21  32  46  64  89 119 152 193 239 282
#
# _framework density 15.128854
#
# number of rings (size 3 to 8) (size 9 to 14) (size 15 to 20)
#    0.000    1.636    1.818    5.727    0.000    3.273 
#    0.000    0.000    0.000    0.000    0.000    0.000 
#    0.000    0.000    0.000    0.818    0.000   10.909 
#
# Total GULP energy -245006.910087 kJ/mol
# GULP energy per Si atom -5568.338866 kJ/mol
# Density = 1.509442 g / cm^3
# Si number density = 15.128854 Si / 1000 Ang^3
#
#
#
# Elastic Constant Matrix: (Units=GPa)
#
#
# Indices 1 2 3 4 5 6 
#
# 1 72.3908 35.6342 26.0904 0.0000 0.0000 0.0000
# 2 35.6342 62.2425 31.5391 0.0000 0.0000 0.0000
# 3 26.0904 31.5391 102.0922 -0.0001 0.0000 -0.0001
# 4 0.0000 0.0000 -0.0001 10.1451 0.0000 0.0000
# 5 0.0000 0.0000 0.0000 0.0000 18.9418 0.0000
# 6 0.0000 0.0000 -0.0001 0.0000 0.0000 32.8317
#
#
#
# Elastic Compliance Matrix: (Units=1/GPa)
#
#
# Indices 1 2 3 4 5 6 
#
# 1 0.019516 -0.010250 -0.001821 0.000000 0.000000 0.000000
# 2 -0.010250 0.024432 -0.004928 0.000000 0.000000 0.000000
# 3 -0.001821 -0.004928 0.011783 0.000000 0.000000 0.000000
# 4 0.000000 0.000000 0.000000 0.098569 0.000000 0.000000
# 5 0.000000 0.000000 0.000000 0.000000 0.052793 0.000000
# 6 0.000000 0.000000 0.000000 0.000000 0.000000 0.030458
#
#
# Mechanical properties :
#
#
# Convention : Reuss Voigt Hill
#
# Bulk Modulus (GPa) = 46.01523 47.02810 46.52166
# Shear Modulus (GPa) = 17.93441 21.94785 19.94113
#
# Velocity S-wave (km/s) = 3.44676 3.81297 3.63448
# Velocity P-wave (km/s) = 6.80601 7.10898 6.95914
#
# Compressibility (1/GPa) = 0.02173193
#
# Stress axis : x y z
#
# Youngs Moduli (GPa) = 51.24050 40.93056 84.86948
#
# Poissons Ratio (x) = 0.41955 0.15453
# Poissons Ratio (y) = 0.52523 0.41824
# Poissons Ratio (z) = 0.09330 0.20171
#
# Static dielectric constant tensor:
#      x y z
#    x 1.536700 0.000000 0.000000 
#    y 0.000000 1.537810 0.000000 
#    z 0.000000 0.000000 1.496370 
# 
# From -- ./inp_files/40145.got.cif
#   From: 2010.05.17/outbox.cif.g08.bks.cpg/sg74_21_cif.got.tgz:40145.got - 2010.06.03 17:57:02.
