data_PCOD9534993
_publ_section_title
;
Structure prediction by ZEFSAII (Michael W. Deem and Ramdas Pophale) SiO2 
 PCOD9534993
Probable space group: I M M A
;
_chemical_formula_sum "Si O2"
_cell_formula_units_Z 68
_cell_length_a 8.883139
_cell_length_b 16.620455
_cell_length_c 23.210624
_cell_angle_alpha 90.000000
_cell_angle_beta 90.000000
_cell_angle_gamma 90.000000
_cell_volume 3426.858585
_symmetry_space_group_name_H-M "I M M A"
_symmetry_group_IT_number 74
_symmetry_cell_setting 'orthorhombic'
loop_
_space_group_symop_operation_xyz
x,y,z
-x,1/2-y,z
x,-y,-z
-x,1/2+y,-z
-x,-y,-z
x,1/2+y,-z
-x,y,z
x,1/2-y,z
1/2+x,1/2+y,1/2+z
1/2-x,-y,1/2+z
1/2+x,1/2-y,1/2-z
1/2-x,y,1/2-z
1/2-x,1/2-y,1/2-z
1/2+x,y,1/2-z
1/2-x,1/2+y,1/2+z
1/2+x,-y,1/2+z
loop_
_atom_site_type_symbol
_atom_site_label
_atom_site_fract_x
_atom_site_fract_y
_atom_site_fract_z
Si Si1 0.322266 0.656477 0.352174
Si Si2 0.176105 0.654654 0.476520
Si Si3 0.177745 0.497944 0.691170
Si Si4 0.000000 0.250000 0.114413
Si Si5 0.333730 0.589096 0.586640
O O1 0.500000 0.640415 0.345637
O O2 0.293994 0.750000 0.338290
O O3 0.271516 0.644011 0.418441
O O4 0.225915 0.594934 0.315125
O O5 0.188834 0.750000 0.491661
O O6 0.242192 0.601562 0.527956
O O7 0.000000 0.637311 0.465904
O O8 0.250000 0.530662 0.750000
O O9 0.245939 0.540854 0.635148
O O10 0.000000 0.506586 0.693014
O O11 0.872116 0.178269 0.110221
O O12 0.500000 0.552001 0.575618
#
# Coordination Sequence:
#
# PCOD9534993 Si02
#       5
#    16  16  16   4  16
#     4  10  22  40  64  93 123 162 205 247 304 365
#     4  10  18  32  58  92 130 162 197 247 300 362
#     4  12  26  44  64  87 121 160 204 259 307 354
#     4   8  20  36  68  90 128 160 204 238 308 360
#     4  10  19  38  63  90 123 160 200 245 301 361
#
# _framework density 19.843247000000002
#
# number of rings (size 3 to 8) (size 9 to 14) (size 15 to 20)
#    0.706    0.941    1.176    4.235    0.000    3.765 
#    0.000    5.294    0.000    0.000    0.000    0.000 
#    0.000    0.000    0.000    0.000    0.000    0.000 
#
# Total GULP energy -189373.706483 kJ/mol
# GULP energy per Si atom -5569.814897 kJ/mol
# Density = 1.979808 g / cm^3
# Si number density = 19.843247 Si / 1000 Ang^3
#
#
#
# Elastic Constant Matrix: (Units=GPa)
#
#
# Indices 1 2 3 4 5 6 
#
# 1 106.3664 11.7615 -1.8223 0.0000 0.0000 0.0000
# 2 11.7615 47.1116 -1.2631 0.0000 0.0000 0.0000
# 3 -1.8223 -1.2631 30.2387 0.0000 0.0000 0.0000
# 4 0.0000 0.0000 0.0000 1.3015 0.0000 0.0000
# 5 0.0000 0.0000 0.0000 0.0000 31.2126 0.0000
# 6 0.0000 0.0000 0.0000 0.0000 0.0000 32.8797
#
#
#
# Elastic Compliance Matrix: (Units=1/GPa)
#
#
# Indices 1 2 3 4 5 6 
#
# 1 0.009675 -0.002403 0.000483 0.000000 0.000000 0.000000
# 2 -0.002403 0.021847 0.000768 0.000000 0.000000 0.000000
# 3 0.000483 0.000768 0.033131 0.000000 0.000000 0.000000
# 4 0.000000 0.000000 0.000000 0.768346 0.000000 0.000000
# 5 0.000000 0.000000 0.000000 0.000000 0.032038 0.000000
# 6 0.000000 0.000000 0.000000 0.000000 0.000000 0.030414
#
#
# Mechanical properties :
#
#
# Convention : Reuss Voigt Hill
#
# Bulk Modulus (GPa) = 16.03869 22.34100 19.18984
# Shear Modulus (GPa) = 5.44343 24.74813 15.09578
#
# Velocity S-wave (km/s) = 1.65806 3.53538 2.76116
# Velocity P-wave (km/s) = 3.43013 5.28662 4.45613
#
# Compressibility (1/GPa) = 0.06234922
#
# Stress axis : x y z
#
# Youngs Moduli (GPa) = 103.35489 45.77379 30.18284
#
# Poissons Ratio (x) = 0.10997 -0.01457
# Poissons Ratio (y) = 0.24832 -0.02317
# Poissons Ratio (z) = -0.04989 -0.03514
#
# Static dielectric constant tensor:
#      x y z
#    x 1.668510 0.000000 0.000000 
#    y 0.000000 1.713450 0.000000 
#    z 0.000000 0.000000 1.687770 
# 
# From -- ./inp_files/48119.got.cif
#   From: 2010.05.17/outbox.cif.g08.bks.cpg/sg74_25_cif.got.tgz:48119.got - 2010.06.03 17:57:02.
