data_PCOD9534068
_publ_section_title
;
Structure prediction by ZEFSAII (Michael W. Deem and Ramdas Pophale) SiO2 
 PCOD9534068
Probable space group: I M M A
;
_chemical_formula_sum "Si O2"
_cell_formula_units_Z 80
_cell_length_a 25.745099
_cell_length_b 8.482006
_cell_length_c 21.258907
_cell_angle_alpha 90.000000
_cell_angle_beta 90.000000
_cell_angle_gamma 90.000000
_cell_volume 4642.309311
_symmetry_space_group_name_H-M "I M M A"
_symmetry_group_IT_number 74
_symmetry_cell_setting 'orthorhombic'
loop_
_space_group_symop_operation_xyz
x,y,z
-x,1/2-y,z
x,-y,-z
-x,1/2+y,-z
-x,-y,-z
x,1/2+y,-z
-x,y,z
x,1/2-y,z
1/2+x,1/2+y,1/2+z
1/2-x,-y,1/2+z
1/2+x,1/2-y,1/2-z
1/2-x,y,1/2-z
1/2-x,1/2-y,1/2-z
1/2+x,y,1/2-z
1/2-x,1/2+y,1/2+z
1/2+x,-y,1/2+z
loop_
_atom_site_type_symbol
_atom_site_label
_atom_site_fract_x
_atom_site_fract_y
_atom_site_fract_z
Si Si1 0.000000 0.934044 0.101278
Si Si2 0.722833 0.438569 0.433433
Si Si3 0.000000 0.432859 0.745550
Si Si4 0.612766 0.939334 0.391233
Si Si5 0.716160 0.942003 0.810270
Si Si6 0.390076 0.061727 0.248669
O O1 0.943404 0.001156 0.083669
O O2 0.000000 0.750000 0.082483
O O3 0.000000 0.939827 0.177785
O O4 0.742643 0.500000 0.500000
O O5 0.723291 0.250000 0.433047
O O6 0.663501 0.493992 0.424375
O O7 0.757073 0.496776 0.374438
O O8 0.946851 0.513985 0.724711
O O9 0.000000 0.250000 0.728141
O O10 0.612233 0.750000 0.395955
O O11 0.616973 0.985678 0.317622
O O12 0.717480 0.750000 0.811574
O O13 0.750000 0.991841 0.750000
O O14 0.656934 0.988567 0.796541
O O15 0.387335 0.250000 0.256948
#
# Coordination Sequence:
#
# PCOD9534068 Si02
#       6
#     8  16   8  16  16  16
#     4   7  14  27  44  64  93 128 163 202 244 286
#     4  11  22  37  53  72 101 135 172 213 259 310
#     4   9  17  29  43  70 109 136 159 206 260 300
#     4  10  18  31  49  72 101 134 168 211 260 300
#     4   9  17  32  53  76 102 132 168 213 257 302
#     4  10  17  29  51  76 100 134 173 207 250 305
#
# _framework density 17.232802
#
# number of rings (size 3 to 8) (size 9 to 14) (size 15 to 20)
#    0.000    2.400    2.000    3.300    0.000    0.000 
#    0.000    7.000    0.000    0.000    0.000    0.700 
#    0.000    0.000    0.000    0.000    0.000    0.000 
#
# Total GULP energy -223015.350494 kJ/mol
# GULP energy per Si atom -5575.383762 kJ/mol
# Density = 1.719358 g / cm^3
# Si number density = 17.232802 Si / 1000 Ang^3
#
#
#
# Elastic Constant Matrix: (Units=GPa)
#
#
# Indices 1 2 3 4 5 6 
#
# 1 123.7786 13.5117 57.2107 0.0000 0.0000 0.0000
# 2 13.5117 33.5864 11.6563 0.0000 0.0000 0.0000
# 3 57.2107 11.6563 96.2259 0.0000 0.0000 0.0000
# 4 0.0000 0.0000 0.0000 17.1863 0.0000 0.0000
# 5 0.0000 0.0000 0.0000 0.0000 -30.8101 0.0000
# 6 0.0000 0.0000 0.0000 0.0000 0.0000 12.3497
#
#
#
# Elastic Compliance Matrix: (Units=1/GPa)
#
#
# Indices 1 2 3 4 5 6 
#
# 1 0.011310 -0.002314 -0.006444 0.000000 0.000000 0.000000
# 2 -0.002314 0.031554 -0.002447 0.000000 0.000000 0.000000
# 3 -0.006444 -0.002447 0.014520 0.000000 0.000000 0.000000
# 4 0.000000 0.000000 0.000000 0.058186 0.000000 0.000000
# 5 0.000000 0.000000 0.000000 0.000000 -0.032457 0.000000
# 6 0.000000 0.000000 0.000000 0.000000 0.000000 0.080974
#
#
# Mechanical properties :
#
#
# Convention : Reuss Voigt Hill
#
# Bulk Modulus (GPa) = 28.59188 46.48316 37.53752
# Shear Modulus (GPa) = 25.23299 11.15932 18.19616
#
# Velocity S-wave (km/s) = 3.83069 2.54749 3.25299
# Velocity P-wave (km/s) = 6.01608 5.97370 5.99493
#
# Compressibility (1/GPa) = 0.03497496
#
# Stress axis : x y z
#
# Youngs Moduli (GPa) = 88.41791 31.69190 68.87110
#
# Poissons Ratio (x) = 0.07332 0.44381
# Poissons Ratio (y) = 0.20456 0.16851
# Poissons Ratio (z) = 0.56977 0.07754
#
# Static dielectric constant tensor:
#      x y z
#    x 1.621170 0.000000 0.000000 
#    y 0.000000 1.593600 0.000000 
#    z 0.000000 0.000000 1.574540 
# 
# From -- ./inp_files/39845.got.cif
#   From: 2010.05.17/outbox.cif.g08.bks.cpg/sg74_20_cif.got.tgz:39845.got - 2010.06.03 17:57:02.
