data_PCOD9534931
_publ_section_title
;
Structure prediction by ZEFSAII (Michael W. Deem and Ramdas Pophale) SiO2 
 PCOD9534931
Probable space group: I M M A
;
_chemical_formula_sum "Si O2"
_cell_formula_units_Z 112
_cell_length_a 14.044219
_cell_length_b 30.275325
_cell_length_c 14.664300
_cell_angle_alpha 90.000000
_cell_angle_beta 90.000000
_cell_angle_gamma 90.000000
_cell_volume 6235.162030
_symmetry_space_group_name_H-M "I M M A"
_symmetry_group_IT_number 74
_symmetry_cell_setting 'orthorhombic'
loop_
_space_group_symop_operation_xyz
x,y,z
-x,1/2-y,z
x,-y,-z
-x,1/2+y,-z
-x,-y,-z
x,1/2+y,-z
-x,y,z
x,1/2-y,z
1/2+x,1/2+y,1/2+z
1/2-x,-y,1/2+z
1/2+x,1/2-y,1/2-z
1/2-x,y,1/2-z
1/2-x,1/2-y,1/2-z
1/2+x,y,1/2-z
1/2-x,1/2+y,1/2+z
1/2+x,-y,1/2+z
loop_
_atom_site_type_symbol
_atom_site_label
_atom_site_fract_x
_atom_site_fract_y
_atom_site_fract_z
Si Si1 0.611094 0.449291 0.965734
Si Si2 0.108949 0.818761 0.717236
Si Si3 0.612518 0.917512 0.728776
Si Si4 0.712974 0.701912 0.597729
Si Si5 0.115065 0.986481 0.277457
Si Si6 0.716052 0.895623 0.539863
Si Si7 0.114166 0.963573 0.073790
O O1 0.500000 0.435906 0.973064
O O2 0.643147 0.455051 0.860349
O O3 0.616345 0.500000 0.000000
O O4 0.681005 0.416426 0.018020
O O5 0.121945 0.871945 0.716663
O O6 0.184889 0.799073 0.648353
O O7 0.137639 0.804079 0.819353
O O8 0.000000 0.807972 0.697802
O O9 0.500000 0.921726 0.702747
O O10 0.674221 0.911707 0.637451
O O11 0.638783 0.961468 0.784159
O O12 0.698623 0.750000 0.554368
O O13 0.711063 0.657333 0.539364
O O14 0.146881 0.973239 0.176322
O O15 0.000000 0.984791 0.279921
O O16 0.648283 0.917093 0.463932
O O17 0.000000 0.966143 0.074445
O O18 0.149021 0.000000 0.000000
#
# Coordination Sequence:
#
# PCOD9534931 Si02
#       7
#    16  16  16  16  16  16  16
#     4  10  23  38  49  70 108 147 180 211 248 304
#     4   9  18  33  54  75 102 140 179 217 263 313
#     4   9  17  31  52  79 106 135 171 213 258 305
#     4  10  22  36  49  73 105 133 177 232 270 313
#     4   9  18  33  52  74 107 143 172 209 254 299
#     4  11  21  34  50  76 101 139 176 211 262 314
#     4  10  18  32  54  82 110 132 168 220 265 312
#
# _framework density 17.962644000000001
#
# number of rings (size 3 to 8) (size 9 to 14) (size 15 to 20)
#    0.000    2.286    1.429    1.714    2.000    2.857 
#    0.000    0.000    0.000    0.000    0.000    2.000 
#    0.000    3.429    0.000    0.000    0.000    0.000 
#
# Total GULP energy -312765.128653 kJ/mol
# GULP energy per Si atom -5585.091583 kJ/mol
# Density = 1.792176 g / cm^3
# Si number density = 17.962644 Si / 1000 Ang^3
#
#
#
# Elastic Constant Matrix: (Units=GPa)
#
#
# Indices 1 2 3 4 5 6 
#
# 1 68.8605 7.1426 8.2332 0.0000 -0.0001 0.0000
# 2 7.1426 127.4825 34.6843 0.0001 -0.0001 0.0000
# 3 8.2332 34.6843 70.8289 0.0002 0.0003 0.0000
# 4 0.0000 0.0001 0.0002 15.6471 0.0000 0.0000
# 5 -0.0001 -0.0001 0.0003 0.0000 16.7970 0.0000
# 6 0.0000 0.0000 0.0000 0.0000 0.0000 11.9323
#
#
#
# Elastic Compliance Matrix: (Units=1/GPa)
#
#
# Indices 1 2 3 4 5 6 
#
# 1 0.014746 -0.000415 -0.001511 0.000000 0.000000 0.000000
# 2 -0.000415 0.009062 -0.004389 0.000000 0.000000 0.000000
# 3 -0.001511 -0.004389 0.016443 0.000000 0.000000 0.000000
# 4 0.000000 0.000000 0.000000 0.063909 0.000000 0.000000
# 5 0.000000 0.000000 0.000000 0.000000 0.059534 0.000000
# 6 0.000000 0.000000 0.000000 0.000000 0.000000 0.083806
#
#
# Mechanical properties :
#
#
# Convention : Reuss Voigt Hill
#
# Bulk Modulus (GPa) = 36.20460 40.81022 38.50741
# Shear Modulus (GPa) = 18.56403 23.34942 20.95673
#
# Velocity S-wave (km/s) = 3.21827 3.60931 3.41938
# Velocity P-wave (km/s) = 5.83172 6.33548 6.08881
#
# Compressibility (1/GPa) = 0.02762080
#
# Stress axis : x y z
#
# Youngs Moduli (GPa) = 67.81591 110.35544 60.81444
#
# Poissons Ratio (x) = 0.04581 0.09188
# Poissons Ratio (y) = 0.02815 0.26692
# Poissons Ratio (z) = 0.10245 0.48437
#
# Static dielectric constant tensor:
#      x y z
#    x 1.676470 0.000000 0.000000 
#    y 0.000000 1.632460 0.000000 
#    z 0.000000 0.000000 1.633270 
# 
# From -- ./inp_files/33179.got.cif
#   From: 2010.05.17/outbox.cif.g08.bks.cpg/sg74_17_cif.got.tgz:33179.got - 2010.06.03 17:57:02.
