data_PCOD9534941
_publ_section_title
;
Structure prediction by ZEFSAII (Michael W. Deem and Ramdas Pophale) SiO2 
 PCOD9534941
Probable space group: I M M A
;
_chemical_formula_sum "Si O2"
_cell_formula_units_Z 80
_cell_length_a 7.496424
_cell_length_b 12.369613
_cell_length_c 42.045796
_cell_angle_alpha 90.000000
_cell_angle_beta 90.000000
_cell_angle_gamma 90.000000
_cell_volume 3898.816843
_symmetry_space_group_name_H-M "I M M A"
_symmetry_group_IT_number 74
_symmetry_cell_setting 'orthorhombic'
loop_
_space_group_symop_operation_xyz
x,y,z
-x,1/2-y,z
x,-y,-z
-x,1/2+y,-z
-x,-y,-z
x,1/2+y,-z
-x,y,z
x,1/2-y,z
1/2+x,1/2+y,1/2+z
1/2-x,-y,1/2+z
1/2+x,1/2-y,1/2-z
1/2-x,y,1/2-z
1/2-x,1/2-y,1/2-z
1/2+x,y,1/2-z
1/2-x,1/2+y,1/2+z
1/2+x,-y,1/2+z
loop_
_atom_site_type_symbol
_atom_site_label
_atom_site_fract_x
_atom_site_fract_y
_atom_site_fract_z
Si Si1 0.714074 0.373157 0.406530
Si Si2 0.783086 0.250000 0.566504
Si Si3 0.291795 0.750000 0.359005
Si Si4 0.786622 0.626967 0.785847
Si Si5 0.286861 0.472432 0.965010
Si Si6 0.719240 0.512182 0.345604
O O1 0.500000 0.367954 0.403666
O O2 0.781529 0.250000 0.405599
O O3 0.754231 0.433711 0.439402
O O4 0.777175 0.445827 0.376888
O O5 0.721850 0.250000 0.602841
O O6 0.720437 0.141248 0.549057
O O7 0.000000 0.250000 0.566943
O O8 0.500000 0.750000 0.350010
O O9 0.217352 0.864207 0.347141
O O10 0.716913 0.750000 0.788844
O O11 0.750000 0.588958 0.750000
O O12 0.722304 0.550005 0.813924
O O13 0.000000 0.632755 0.789335
O O14 0.500000 0.460233 0.967946
O O15 0.216175 0.500000 0.000000
O O16 0.500000 0.513841 0.346194
#
# Coordination Sequence:
#
# PCOD9534941 Si02
#       6
#    16   8   8  16  16  16
#     4  10  20  34  53  78 104 130 167 214 259 302
#     4  10  20  36  54  75 101 134 175 216 257 303
#     4  10  18  32  55  77  97 132 176 212 250 307
#     4   9  17  31  51  74 101 133 166 203 248 299
#     4  10  22  37  54  74 101 137 173 210 256 312
#     4   9  17  31  52  76 101 131 168 208 251 299
#
# _framework density 20.519045999999999
#
# number of rings (size 3 to 8) (size 9 to 14) (size 15 to 20)
#    0.000    2.400    2.000    0.600    1.400    3.200 
#    0.000    2.500    0.000    2.400    0.000    0.000 
#    0.000    0.000    0.000    0.000    0.000    0.000 
#
# Total GULP energy -223378.688853 kJ/mol
# GULP energy per Si atom -5584.467221 kJ/mol
# Density = 2.047234 g / cm^3
# Si number density = 20.519046 Si / 1000 Ang^3
#
#
#
# Elastic Constant Matrix: (Units=GPa)
#
#
# Indices 1 2 3 4 5 6 
#
# 1 53.5147 0.3582 -6.6709 0.0000 0.0000 0.0000
# 2 0.3582 187.4292 113.3172 -0.0001 0.0000 0.0000
# 3 -6.6709 113.3172 190.9236 0.0000 0.0000 0.0000
# 4 0.0000 -0.0001 0.0000 -83.5501 0.0000 0.0000
# 5 0.0000 0.0000 0.0000 0.0000 18.0138 0.0000
# 6 0.0000 0.0000 0.0000 0.0000 0.0000 11.5426
#
#
#
# Elastic Compliance Matrix: (Units=1/GPa)
#
#
# Indices 1 2 3 4 5 6 
#
# 1 0.018823 -0.000676 0.001059 0.000000 0.000000 0.000000
# 2 -0.000676 0.008346 -0.004977 0.000000 0.000000 0.000000
# 3 0.001059 -0.004977 0.008229 0.000000 0.000000 0.000000
# 4 0.000000 0.000000 0.000000 -0.011969 0.000000 0.000000
# 5 0.000000 0.000000 0.000000 0.000000 0.055513 0.000000
# 6 0.000000 0.000000 0.000000 0.000000 0.000000 0.086636
#
#
# Mechanical properties :
#
#
# Convention : Reuss Voigt Hill
#
# Bulk Modulus (GPa) = 38.15490 71.76405 54.95947
# Shear Modulus (GPa) = 27.24766 10.85878 19.05322
#
# Velocity S-wave (km/s) = 3.64802 2.30294 3.05054
# Velocity P-wave (km/s) = 6.03152 6.49012 6.26502
#
# Compressibility (1/GPa) = 0.02620896
#
# Stress axis : x y z
#
# Youngs Moduli (GPa) = 53.12651 119.82316 121.52711
#
# Poissons Ratio (x) = 0.08103 -0.12870
# Poissons Ratio (y) = 0.03593 0.60483
# Poissons Ratio (z) = -0.05626 0.59635
#
# Static dielectric constant tensor:
#      x y z
#    x 1.783380 0.000000 0.000000 
#    y 0.000000 1.721810 0.000000 
#    z 0.000000 0.000000 1.683570 
# 
# From -- ./inp_files/71546.got.cif
#   From: 2010.05.17/outbox.cif.g08.bks.cpg/sg74_36_cif.got.tgz:71546.got - 2010.06.03 17:57:02.
