data_PCOD9534387
_publ_section_title
;
Structure prediction by ZEFSAII (Michael W. Deem and Ramdas Pophale) SiO2 
 PCOD9534387
Probable space group: I M M A
;
_chemical_formula_sum "Si O2"
_cell_formula_units_Z 116
_cell_length_a 24.480575
_cell_length_b 14.541936
_cell_length_c 17.986960
_cell_angle_alpha 90.000000
_cell_angle_beta 90.000000
_cell_angle_gamma 90.000000
_cell_volume 6403.267014
_symmetry_space_group_name_H-M "I M M A"
_symmetry_group_IT_number 74
_symmetry_cell_setting 'orthorhombic'
loop_
_space_group_symop_operation_xyz
x,y,z
-x,1/2-y,z
x,-y,-z
-x,1/2+y,-z
-x,-y,-z
x,1/2+y,-z
-x,y,z
x,1/2-y,z
1/2+x,1/2+y,1/2+z
1/2-x,-y,1/2+z
1/2+x,1/2-y,1/2-z
1/2-x,y,1/2-z
1/2-x,1/2-y,1/2-z
1/2+x,y,1/2-z
1/2-x,1/2+y,1/2+z
1/2+x,-y,1/2+z
loop_
_atom_site_type_symbol
_atom_site_label
_atom_site_fract_x
_atom_site_fract_y
_atom_site_fract_z
Si Si1 0.370056 0.144924 0.256738
Si Si2 0.844231 0.044301 0.383686
Si Si3 0.064567 0.089899 0.098502
Si Si4 0.166215 0.643473 0.460930
Si Si5 0.792946 0.609837 0.012743
Si Si6 0.406978 0.619779 0.433437
Si Si7 0.500000 0.250000 0.621773
Si Si8 0.265124 0.647129 0.647294
O O1 0.375802 0.250000 0.231807
O O2 0.378379 0.078089 0.187033
O O3 0.408026 0.129594 0.327963
O O4 0.308297 0.131463 0.287749
O O5 0.853162 0.105578 0.458166
O O6 0.781312 0.070854 0.363459
O O7 0.851032 0.937245 0.403936
O O8 0.000000 0.087419 0.108338
O O9 0.086880 0.987340 0.085328
O O10 0.075821 0.138218 0.019353
O O11 0.150202 0.750000 0.448658
O O12 0.232520 0.638436 0.462193
O O13 0.842178 0.639492 0.066132
O O14 0.794572 0.500000 0.000000
O O15 0.799174 0.648065 0.929467
O O16 0.450973 0.671901 0.384099
O O17 0.240648 0.750000 0.654539
#
# Coordination Sequence:
#
# PCOD9534387 Si02
#       8
#    16  16  16  16  16  16   4  16
#     4  11  22  32  53  77 101 137 174 215 273 329
#     4  10  19  34  51  77 107 134 168 216 260 316
#     4  11  21  37  49  70 105 138 175 224 274 311
#     4  10  20  33  54  79 107 137 173 215 261 318
#     4  11  16  29  49  74  99 137 175 216 260 303
#     4  11  21  33  50  70 102 142 188 221 262 303
#     4  12  24  30  52  72  94 148 196 250 246 290
#     4  10  18  29  45  70 102 132 170 210 257 308
#
# _framework density 18.115752000000001
#
# number of rings (size 3 to 8) (size 9 to 14) (size 15 to 20)
#    0.000    1.379    6.897    3.310    2.897    1.379 
#    0.000    0.000    1.517    1.655    0.000    1.931 
#    0.000    1.103    0.000    0.000    0.000    0.000 
#
# Total GULP energy -322918.263783 kJ/mol
# GULP energy per Si atom -5567.556272 kJ/mol
# Density = 1.807452 g / cm^3
# Si number density = 18.115752 Si / 1000 Ang^3
#
#
#
# Elastic Constant Matrix: (Units=GPa)
#
#
# Indices 1 2 3 4 5 6 
#
# 1 23.7494 -7.3430 7.3053 0.0000 0.0000 0.0000
# 2 -7.3430 125.0271 33.7270 0.0000 0.0000 0.0000
# 3 7.3053 33.7270 69.7653 0.0000 0.0000 0.0000
# 4 0.0000 0.0000 0.0000 -604.4633 0.0000 0.0000
# 5 0.0000 0.0000 0.0000 0.0000 13.2935 0.0000
# 6 0.0000 0.0000 0.0000 0.0000 0.0000 21.5005
#
#
#
# Elastic Compliance Matrix: (Units=1/GPa)
#
#
# Indices 1 2 3 4 5 6 
#
# 1 0.045669 0.004568 -0.006990 0.000000 0.000000 0.000000
# 2 0.004568 0.009655 -0.005146 0.000000 0.000000 0.000000
# 3 -0.006990 -0.005146 0.017553 0.000000 0.000000 0.000000
# 4 0.000000 0.000000 0.000000 -0.001654 0.000000 0.000000
# 5 0.000000 0.000000 0.000000 0.000000 0.075225 0.000000
# 6 0.000000 0.000000 0.000000 0.000000 0.000000 0.046511
#
#
# Mechanical properties :
#
#
# Convention : Reuss Voigt Hill
#
# Bulk Modulus (GPa) = 17.31885 31.76893 24.54389
# Shear Modulus (GPa) = 21.99339 -101.61037 -39.80849
#
# Velocity S-wave (km/s) = 3.48810 -7.49742 -4.69278
# Velocity P-wave (km/s) = 5.07970 7.57454 3.97306
#
# Compressibility (1/GPa) = 0.05774056
#
# Stress axis : x y z
#
# Youngs Moduli (GPa) = 21.89673 103.57719 56.96912
#
# Poissons Ratio (x) = -0.47313 0.39823
# Poissons Ratio (y) = -0.10002 0.29315
# Poissons Ratio (z) = 0.15307 0.53298
#
# Static dielectric constant tensor:
#      x y z
#    x 1.637650 0.000000 0.000000 
#    y 0.000000 1.661740 0.000000 
#    z 0.000000 0.000000 1.658130 
# 
# From -- ./inp_files/46189.got.cif
#   From: 2010.05.17/outbox.cif.g08.bks.cpg/sg74_24_cif.got.tgz:46189.got - 2010.06.03 17:57:02.
