data_PCOD9534915
_publ_section_title
;
Structure prediction by ZEFSAII (Michael W. Deem and Ramdas Pophale) SiO2 
 PCOD9534915
Probable space group: I M M A
;
_chemical_formula_sum "Si O2"
_cell_formula_units_Z 96
_cell_length_a 8.746758
_cell_length_b 20.463320
_cell_length_c 30.367189
_cell_angle_alpha 90.000000
_cell_angle_beta 90.000000
_cell_angle_gamma 90.000000
_cell_volume 5435.353555
_symmetry_space_group_name_H-M "I M M A"
_symmetry_group_IT_number 74
_symmetry_cell_setting 'orthorhombic'
loop_
_space_group_symop_operation_xyz
x,y,z
-x,1/2-y,z
x,-y,-z
-x,1/2+y,-z
-x,-y,-z
x,1/2+y,-z
-x,y,z
x,1/2-y,z
1/2+x,1/2+y,1/2+z
1/2-x,-y,1/2+z
1/2+x,1/2-y,1/2-z
1/2-x,y,1/2-z
1/2-x,1/2-y,1/2-z
1/2+x,y,1/2-z
1/2-x,1/2+y,1/2+z
1/2+x,-y,1/2+z
loop_
_atom_site_type_symbol
_atom_site_label
_atom_site_fract_x
_atom_site_fract_y
_atom_site_fract_z
Si Si1 0.683541 0.675759 0.586097
Si Si2 0.183334 0.962968 0.200856
Si Si3 0.185854 0.177456 0.982748
Si Si4 0.816222 0.036795 0.953600
Si Si5 0.319126 0.547742 0.874559
Si Si6 0.315509 0.680041 0.299624
O O1 0.500000 0.667143 0.588361
O O2 0.719573 0.750000 0.599468
O O3 0.725788 0.669169 0.534373
O O4 0.763127 0.620446 0.614319
O O5 0.250000 0.967825 0.250000
O O6 0.228712 0.890799 0.181783
O O7 0.000000 0.965640 0.202802
O O8 0.245723 0.018748 0.169453
O O9 0.237581 0.250000 0.968228
O O10 0.235010 0.112340 0.957432
O O11 0.000000 0.177966 0.980913
O O12 0.000000 0.035525 0.946395
O O13 0.737160 0.997684 0.914726
O O14 0.788359 0.000000 0.000000
O O15 0.500000 0.545785 0.871212
O O16 0.500000 0.680207 0.297634
O O17 0.268456 0.750000 0.320327
O O18 0.250000 0.680367 0.250000
#
# Coordination Sequence:
#
# PCOD9534915 Si02
#       6
#    16  16  16  16  16  16
#     4   9  17  33  57  81 104 134 177 223 265 316
#     4  10  20  36  57  79 106 139 180 226 274 323
#     4   8  14  27  50  77 103 135 177 223 268 316
#     4  10  18  32  54  77 104 139 180 223 268 317
#     4  12  24  35  51  78 113 146 180 218 266 323
#     4   8  14  26  47  74  99 125 162 210 260 309
#
# _framework density 17.662144999999999
#
# number of rings (size 3 to 8) (size 9 to 14) (size 15 to 20)
#    0.000    2.500    1.667    3.000    0.000    1.333 
#    0.000    0.833    0.000    6.000    0.000    0.000 
#    0.000    0.000    0.000    0.000    0.000    0.000 
#
# Total GULP energy -267529.225198 kJ/mol
# GULP energy per Si atom -5573.525525 kJ/mol
# Density = 1.762194 g / cm^3
# Si number density = 17.662145 Si / 1000 Ang^3
#
#
#
# Elastic Constant Matrix: (Units=GPa)
#
#
# Indices 1 2 3 4 5 6 
#
# 1 43.9144 50.8858 34.4141 0.0000 0.0000 0.0000
# 2 50.8858 149.1509 51.0711 0.0000 0.0000 0.0000
# 3 34.4141 51.0711 53.3328 0.0000 0.0000 0.0000
# 4 0.0000 0.0000 0.0000 14.7772 0.0000 0.0000
# 5 0.0000 0.0000 0.0000 0.0000 17.7204 0.0000
# 6 0.0000 0.0000 0.0000 0.0000 0.0000 5.2563
#
#
#
# Elastic Compliance Matrix: (Units=1/GPa)
#
#
# Indices 1 2 3 4 5 6 
#
# 1 0.054052 -0.009668 -0.025620 0.000000 0.000000 0.000000
# 2 -0.009668 0.011705 -0.004970 0.000000 0.000000 0.000000
# 3 -0.025620 -0.004970 0.040041 0.000000 0.000000 0.000000
# 4 0.000000 0.000000 0.000000 0.067672 0.000000 0.000000
# 5 0.000000 0.000000 0.000000 0.000000 0.056432 0.000000
# 6 0.000000 0.000000 0.000000 0.000000 0.000000 0.190247
#
#
# Mechanical properties :
#
#
# Convention : Reuss Voigt Hill
#
# Bulk Modulus (GPa) = 39.55402 57.68224 48.61813
# Shear Modulus (GPa) = 9.82138 14.88593 12.35365
#
# Velocity S-wave (km/s) = 2.36067 2.90628 2.64757
# Velocity P-wave (km/s) = 5.46569 6.63261 6.07722
#
# Compressibility (1/GPa) = 0.02528188
#
# Stress axis : x y z
#
# Youngs Moduli (GPa) = 18.50055 85.43423 24.97438
#
# Poissons Ratio (x) = 0.82602 0.63984
# Poissons Ratio (y) = 0.17887 0.12412
# Poissons Ratio (z) = 0.47399 0.42459
#
# Static dielectric constant tensor:
#      x y z
#    x 1.587770 0.000000 0.000000 
#    y 0.000000 1.647980 0.000000 
#    z 0.000000 0.000000 1.493500 
# 
# From -- ./inp_files/64297.got.cif
#   From: 2010.05.17/outbox.cif.g08.bks.cpg/sg74_33_cif.got.tgz:64297.got - 2010.06.03 17:57:02.
