data_PCOD9534667
_publ_section_title
;
Structure prediction by ZEFSAII (Michael W. Deem and Ramdas Pophale) SiO2 
 PCOD9534667
Probable space group: I M M A
;
_chemical_formula_sum "Si O2"
_cell_formula_units_Z 112
_cell_length_a 23.208643
_cell_length_b 14.161765
_cell_length_c 15.994016
_cell_angle_alpha 90.000000
_cell_angle_beta 90.000000
_cell_angle_gamma 90.000000
_cell_volume 5256.838777
_symmetry_space_group_name_H-M "I M M A"
_symmetry_group_IT_number 74
_symmetry_cell_setting 'orthorhombic'
loop_
_space_group_symop_operation_xyz
x,y,z
-x,1/2-y,z
x,-y,-z
-x,1/2+y,-z
-x,-y,-z
x,1/2+y,-z
-x,y,z
x,1/2-y,z
1/2+x,1/2+y,1/2+z
1/2-x,-y,1/2+z
1/2+x,1/2-y,1/2-z
1/2-x,y,1/2-z
1/2-x,1/2-y,1/2-z
1/2+x,y,1/2-z
1/2-x,1/2+y,1/2+z
1/2+x,-y,1/2+z
loop_
_atom_site_type_symbol
_atom_site_label
_atom_site_fract_x
_atom_site_fract_y
_atom_site_fract_z
Si Si1 0.342564 0.022567 0.401887
Si Si2 0.617881 0.559453 0.844003
Si Si3 0.237439 0.857033 0.115200
Si Si4 0.564955 0.643156 0.000429
Si Si5 0.864458 0.354681 0.670340
Si Si6 0.068192 0.644241 0.814636
Si Si7 0.733571 0.638764 0.920823
O O1 0.401899 0.064238 0.369923
O O2 0.294508 0.103453 0.385922
O O3 0.347236 0.000000 0.500000
O O4 0.312840 0.929519 0.363168
O O5 0.579042 0.571472 0.926433
O O6 0.613195 0.456581 0.801204
O O7 0.597538 0.633808 0.775777
O O8 0.682050 0.581021 0.877997
O O9 0.215447 0.750000 0.114716
O O10 0.295206 0.859699 0.169804
O O11 0.260239 0.878880 0.020645
O O12 0.500000 0.629955 0.032994
O O13 0.568007 0.750000 0.964359
O O14 0.611215 0.643048 0.074716
O O15 0.881195 0.250000 0.703596
O O16 0.078474 0.750000 0.848265
O O17 0.000000 0.630611 0.806455
O O18 0.723854 0.750000 0.908866
#
# Coordination Sequence:
#
# PCOD9534667 Si02
#       7
#    16  16  16  16  16  16  16
#     4  10  21  39  66  92 117 152 195 251 317 380
#     4  12  21  34  58  85 127 171 210 245 302 365
#     4   9  17  33  57  88 122 155 198 254 308 354
#     4  10  20  32  50  80 118 167 222 260 291 344
#     4  10  20  34  53  80 121 169 217 264 300 338
#     4  11  26  46  65  90 126 163 202 254 313 374
#     4  10  18  30  55  91 124 155 194 248 303 360
#
# _framework density 21.305579999999999
#
# number of rings (size 3 to 8) (size 9 to 14) (size 15 to 20)
#    0.000    1.714    2.857    2.571    0.000    4.286 
#    0.000    2.143    0.000    3.000    0.000    0.000 
#    0.000    0.000    0.000    0.000    0.000    0.000 
#
# Total GULP energy -312735.706182 kJ/mol
# GULP energy per Si atom -5584.566182 kJ/mol
# Density = 2.125709 g / cm^3
# Si number density = 21.305580 Si / 1000 Ang^3
#
#
#
# Elastic Constant Matrix: (Units=GPa)
#
#
# Indices 1 2 3 4 5 6 
#
# 1 74.6473 35.6417 26.0066 0.0000 0.0000 0.0000
# 2 35.6417 129.8690 18.3787 0.0000 0.0000 0.0000
# 3 26.0066 18.3787 44.3454 0.0000 0.0000 0.0000
# 4 0.0000 0.0000 0.0000 21.0369 0.0000 0.0000
# 5 0.0000 0.0000 0.0000 0.0000 14.2423 0.0000
# 6 0.0000 0.0000 0.0000 0.0000 0.0000 34.1202
#
#
#
# Elastic Compliance Matrix: (Units=1/GPa)
#
#
# Indices 1 2 3 4 5 6 
#
# 1 0.018403 -0.003743 -0.009241 0.000000 0.000000 0.000000
# 2 -0.003743 0.008941 -0.001511 0.000000 0.000000 0.000000
# 3 -0.009241 -0.001511 0.028596 0.000000 0.000000 0.000000
# 4 0.000000 0.000000 0.000000 0.047535 0.000000 0.000000
# 5 0.000000 0.000000 0.000000 0.000000 0.070213 0.000000
# 6 0.000000 0.000000 0.000000 0.000000 0.000000 0.029308
#
#
# Mechanical properties :
#
#
# Convention : Reuss Voigt Hill
#
# Bulk Modulus (GPa) = 37.10502 45.43508 41.27005
# Shear Modulus (GPa) = 20.74948 25.13553 22.94251
#
# Velocity S-wave (km/s) = 3.12412 3.43849 3.28507
# Velocity P-wave (km/s) = 5.51969 6.09394 5.81391
#
# Compressibility (1/GPa) = 0.02695053
#
# Stress axis : x y z
#
# Youngs Moduli (GPa) = 54.33893 111.84403 34.96995
#
# Poissons Ratio (x) = 0.41861 0.32317
# Poissons Ratio (y) = 0.20338 0.05283
# Poissons Ratio (z) = 0.50217 0.16895
#
# Static dielectric constant tensor:
#      x y z
#    x 1.730780 0.000000 0.000000 
#    y 0.000000 1.837160 0.000000 
#    z 0.000000 0.000000 1.786160 
# 
# From -- ./inp_files/36512.got.cif
#   From: 2010.05.17/outbox.cif.g08.bks.cpg/sg74_19_cif.got.tgz:36512.got - 2010.06.03 17:57:02.
