data_PCOD9534873
_publ_section_title
;
Structure prediction by ZEFSAII (Michael W. Deem and Ramdas Pophale) SiO2 
 PCOD9534873
Probable space group: I M M A
;
_chemical_formula_sum "Si O2"
_cell_formula_units_Z 72
_cell_length_a 8.987961
_cell_length_b 29.257959
_cell_length_c 17.203923
_cell_angle_alpha 90.000000
_cell_angle_beta 90.000000
_cell_angle_gamma 90.000000
_cell_volume 4524.105213
_symmetry_space_group_name_H-M "I M M A"
_symmetry_group_IT_number 74
_symmetry_cell_setting 'orthorhombic'
loop_
_space_group_symop_operation_xyz
x,y,z
-x,1/2-y,z
x,-y,-z
-x,1/2+y,-z
-x,-y,-z
x,1/2+y,-z
-x,y,z
x,1/2-y,z
1/2+x,1/2+y,1/2+z
1/2-x,-y,1/2+z
1/2+x,1/2-y,1/2-z
1/2-x,y,1/2-z
1/2-x,1/2-y,1/2-z
1/2+x,y,1/2-z
1/2-x,1/2+y,1/2+z
1/2+x,-y,1/2+z
loop_
_atom_site_type_symbol
_atom_site_label
_atom_site_fract_x
_atom_site_fract_y
_atom_site_fract_z
Si Si1 0.678119 0.750000 0.334601
Si Si2 0.670808 0.467762 0.923216
Si Si3 0.822513 0.608871 0.980634
Si Si4 0.324767 0.699377 0.032295
Si Si5 0.177502 0.046196 0.168609
O O1 0.500000 0.750000 0.331738
O O2 0.750000 0.750000 0.250000
O O3 0.740345 0.792633 0.385616
O O4 0.500000 0.458474 0.901391
O O5 0.754477 0.497811 0.859066
O O6 0.669352 0.500000 0.000000
O O7 0.755173 0.422382 0.950512
O O8 0.789391 0.582672 0.899791
O O9 0.000000 0.611798 0.988436
O O10 0.748504 0.658378 0.985828
O O11 0.500000 0.691147 0.044830
O O12 0.309916 0.750000 0.994310
O O13 0.250000 0.059645 0.250000
O O14 0.000000 0.042494 0.175515
#
# Coordination Sequence:
#
# PCOD9534873 Si02
#       5
#     8  16  16  16  16
#     4  10  18  32  52  74 101 130 161 200 246 292
#     4   9  17  30  49  71  97 130 165 203 247 297
#     4  10  19  32  52  76 101 132 170 210 250 299
#     4   9  19  33  51  76 102 133 172 209 248 298
#     4  10  20  33  50  74 103 134 169 208 253 301
#
# _framework density 15.914749
#
# number of rings (size 3 to 8) (size 9 to 14) (size 15 to 20)
#    0.667    1.778    0.000    3.333    0.000    5.333 
#    0.000    1.111    0.000    0.667    0.000    0.000 
#    0.000    0.000    0.000    0.000    0.000    0.000 
#
# Total GULP energy -200461.055895 kJ/mol
# GULP energy per Si atom -5568.362664 kJ/mol
# Density = 1.587853 g / cm^3
# Si number density = 15.914749 Si / 1000 Ang^3
#
#
#
# Elastic Constant Matrix: (Units=GPa)
#
#
# Indices 1 2 3 4 5 6 
#
# 1 126.6364 69.2128 61.0507 0.0000 0.0000 0.0000
# 2 69.2128 105.9467 44.4843 0.0000 0.0000 0.0000
# 3 61.0507 44.4843 78.5660 -0.0001 0.0000 0.0000
# 4 0.0000 0.0000 -0.0001 15.3802 0.0000 0.0000
# 5 0.0000 0.0000 0.0000 0.0000 27.8379 0.0000
# 6 0.0000 0.0000 0.0000 0.0000 0.0000 31.4926
#
#
#
# Elastic Compliance Matrix: (Units=1/GPa)
#
#
# Indices 1 2 3 4 5 6 
#
# 1 0.015544 -0.006668 -0.008303 0.000000 0.000000 0.000000
# 2 -0.006668 0.015243 -0.003449 0.000000 0.000000 0.000000
# 3 -0.008303 -0.003449 0.021133 0.000000 0.000000 0.000000
# 4 0.000000 0.000000 0.000000 0.065019 0.000000 0.000000
# 5 0.000000 0.000000 0.000000 0.000000 0.035922 0.000000
# 6 0.000000 0.000000 0.000000 0.000000 0.000000 0.031753
#
#
# Mechanical properties :
#
#
# Convention : Reuss Voigt Hill
#
# Bulk Modulus (GPa) = 66.31573 73.40497 69.86035
# Shear Modulus (GPa) = 22.07682 24.03556 23.05619
#
# Velocity S-wave (km/s) = 3.72854 3.89043 3.81035
# Velocity P-wave (km/s) = 7.76504 8.14890 7.95929
#
# Compressibility (1/GPa) = 0.01507938
#
# Stress axis : x y z
#
# Youngs Moduli (GPa) = 64.33318 65.60322 47.31940
#
# Poissons Ratio (x) = 0.43747 0.39290
# Poissons Ratio (y) = 0.42900 0.16320
# Poissons Ratio (z) = 0.53416 0.22626
#
# Static dielectric constant tensor:
#      x y z
#    x 1.528800 0.000000 0.000000 
#    y 0.000000 1.533090 0.000000 
#    z 0.000000 0.000000 1.518470 
# 
# From -- ./inp_files/37667.got.cif
#   From: 2010.05.17/outbox.cif.g08.bks.cpg/sg74_19_cif.got.tgz:37667.got - 2010.06.03 17:57:02.
