data_PCOD9534483
_publ_section_title
;
Structure prediction by ZEFSAII (Michael W. Deem and Ramdas Pophale) SiO2 
 PCOD9534483
Probable space group: I M M A
;
_chemical_formula_sum "Si O2"
_cell_formula_units_Z 104
_cell_length_a 8.823893
_cell_length_b 26.292252
_cell_length_c 30.079632
_cell_angle_alpha 90.000000
_cell_angle_beta 90.000000
_cell_angle_gamma 90.000000
_cell_volume 6978.475177
_symmetry_space_group_name_H-M "I M M A"
_symmetry_group_IT_number 74
_symmetry_cell_setting 'orthorhombic'
loop_
_space_group_symop_operation_xyz
x,y,z
-x,1/2-y,z
x,-y,-z
-x,1/2+y,-z
-x,-y,-z
x,1/2+y,-z
-x,y,z
x,1/2-y,z
1/2+x,1/2+y,1/2+z
1/2-x,-y,1/2+z
1/2+x,1/2-y,1/2-z
1/2-x,y,1/2-z
1/2-x,1/2-y,1/2-z
1/2+x,y,1/2-z
1/2-x,1/2+y,1/2+z
1/2+x,-y,1/2+z
loop_
_atom_site_type_symbol
_atom_site_label
_atom_site_fract_x
_atom_site_fract_y
_atom_site_fract_z
Si Si1 0.828481 0.528570 0.295275
Si Si2 0.325326 0.557655 0.480833
Si Si3 0.326899 0.406567 0.205644
Si Si4 0.183536 0.517257 0.394017
Si Si5 0.176943 0.160331 0.139909
Si Si6 0.818932 0.595588 0.568281
Si Si7 0.681680 0.250000 0.199608
O O1 0.750000 0.547140 0.250000
O O2 0.836058 0.467139 0.291124
O O3 0.761246 0.534212 0.344986
O O4 0.000000 0.548373 0.295864
O O5 0.323788 0.500000 0.500000
O O6 0.500000 0.573760 0.477303
O O7 0.246900 0.552806 0.433009
O O8 0.237002 0.590022 0.517726
O O9 0.500000 0.388220 0.198579
O O10 0.250000 0.385569 0.250000
O O11 0.212704 0.390551 0.167578
O O12 0.222491 0.458626 0.407595
O O13 0.000000 0.518617 0.393203
O O14 0.245620 0.144277 0.092527
O O15 0.261207 0.202482 0.169759
O O16 0.000000 0.172105 0.137133
O O17 0.000000 0.599508 0.570965
O O18 0.500000 0.250000 0.203324
O O19 0.750000 0.250000 0.250000
#
# Coordination Sequence:
#
# PCOD9534483 Si02
#       7
#    16  16  16  16  16  16   8
#     4   9  17  27  38  55  78 104 137 169 201 241
#     4   9  17  27  40  62  85 105 132 166 205 249
#     4  10  18  30  43  59  77 100 130 164 204 250
#     4   9  16  28  42  58  82 111 138 167 205 251
#     4  12  23  35  50  67  84 103 130 170 215 262
#     4  10  18  31  47  63  82 107 135 165 207 257
#     4  12  26  44  58  68  84 108 140 178 225 278
#
# _framework density 14.902969000000001
#
# number of rings (size 3 to 8) (size 9 to 14) (size 15 to 20)
#    0.000    2.000    1.538    3.923    0.000    3.692 
#    0.000    0.000    0.000    0.000    0.000    0.000 
#    0.000    0.000    0.000    0.000    0.000    0.000 
#
# Total GULP energy -289485.834929 kJ/mol
# GULP energy per Si atom -5567.035287 kJ/mol
# Density = 1.486905 g / cm^3
# Si number density = 14.902969 Si / 1000 Ang^3
#
#
#
# Elastic Constant Matrix: (Units=GPa)
#
#
# Indices 1 2 3 4 5 6 
#
# 1 75.3009 22.1490 48.5319 0.0000 0.0000 0.0000
# 2 22.1490 26.3389 27.9666 0.0000 0.0000 0.0000
# 3 48.5319 27.9666 144.4740 0.0000 0.0000 0.0000
# 4 0.0000 0.0000 0.0000 107.8083 0.0000 0.0000
# 5 0.0000 0.0000 0.0000 0.0000 25.6652 0.0000
# 6 0.0000 0.0000 0.0000 0.0000 0.0000 11.0166
#
#
#
# Elastic Compliance Matrix: (Units=1/GPa)
#
#
# Indices 1 2 3 4 5 6 
#
# 1 0.019522 -0.011899 -0.004255 0.000000 0.000000 0.000000
# 2 -0.011899 0.055042 -0.006658 0.000000 0.000000 0.000000
# 3 -0.004255 -0.006658 0.009640 0.000000 0.000000 0.000000
# 4 0.000000 0.000000 0.000000 0.009276 0.000000 0.000000
# 5 0.000000 0.000000 0.000000 0.000000 0.038963 0.000000
# 6 0.000000 0.000000 0.000000 0.000000 0.000000 0.090772
#
#
# Mechanical properties :
#
#
# Convention : Reuss Voigt Hill
#
# Bulk Modulus (GPa) = 25.91938 49.26763 37.59351
# Shear Modulus (GPa) = 17.74953 38.72909 28.23931
#
# Velocity S-wave (km/s) = 3.45484 5.10332 4.35774
# Velocity P-wave (km/s) = 5.77446 8.23747 7.11338
#
# Compressibility (1/GPa) = 0.03858116
#
# Stress axis : x y z
#
# Youngs Moduli (GPa) = 51.22395 18.16794 103.73888
#
# Poissons Ratio (x) = 0.21618 0.44136
# Poissons Ratio (y) = 0.60952 0.69065
# Poissons Ratio (z) = 0.21793 0.12095
#
# Static dielectric constant tensor:
#      x y z
#    x 1.515160 0.000000 0.000000 
#    y 0.000000 1.490630 0.000000 
#    z 0.000000 0.000000 1.659940 
# 
# From -- ./inp_files/70799.got.cif
#   From: 2010.05.17/outbox.cif.g08.bks.cpg/sg74_36_cif.got.tgz:70799.got - 2010.06.03 17:57:02.
