data_PCOD9534801
_publ_section_title
;
Structure prediction by ZEFSAII (Michael W. Deem and Ramdas Pophale) SiO2 
 PCOD9534801
Probable space group: I M M A
;
_chemical_formula_sum "Si O2"
_cell_formula_units_Z 88
_cell_length_a 7.516077
_cell_length_b 22.755794
_cell_length_c 24.437337
_cell_angle_alpha 90.000000
_cell_angle_beta 90.000000
_cell_angle_gamma 90.000000
_cell_volume 4179.622825
_symmetry_space_group_name_H-M "I M M A"
_symmetry_group_IT_number 74
_symmetry_cell_setting 'orthorhombic'
loop_
_space_group_symop_operation_xyz
x,y,z
-x,1/2-y,z
x,-y,-z
-x,1/2+y,-z
-x,-y,-z
x,1/2+y,-z
-x,y,z
x,1/2-y,z
1/2+x,1/2+y,1/2+z
1/2-x,-y,1/2+z
1/2+x,1/2-y,1/2-z
1/2-x,y,1/2-z
1/2-x,1/2-y,1/2-z
1/2+x,y,1/2-z
1/2-x,1/2+y,1/2+z
1/2+x,-y,1/2+z
loop_
_atom_site_type_symbol
_atom_site_label
_atom_site_fract_x
_atom_site_fract_y
_atom_site_fract_z
Si Si1 0.794856 0.410112 0.395773
Si Si2 0.713368 0.813195 0.519082
Si Si3 0.285412 0.349930 0.602533
Si Si4 0.713253 0.685421 0.813726
Si Si5 0.202454 0.027430 0.944072
Si Si6 0.713934 0.750000 0.314974
O O1 0.788323 0.369136 0.449645
O O2 0.716503 0.367779 0.349520
O O3 0.699673 0.471292 0.404942
O O4 0.000000 0.423856 0.383399
O O5 0.500000 0.815263 0.525739
O O6 0.778490 0.750000 0.540290
O O7 0.749604 0.817123 0.454700
O O8 0.500000 0.354511 0.609959
O O9 0.220983 0.416278 0.588110
O O10 0.220993 0.308735 0.652465
O O11 0.500000 0.686458 0.821932
O O12 0.783361 0.750000 0.829154
O O13 0.750000 0.677107 0.750000
O O14 0.000000 0.045258 0.960064
O O15 0.285787 0.000000 0.000000
O O16 0.500000 0.750000 0.321132
O O17 0.750000 0.750000 0.250000
#
# Coordination Sequence:
#
# PCOD9534801 Si02
#       6
#    16  16  16  16  16   8
#     4  11  22  34  50  78 117 148 173 217 277 330
#     4  10  18  31  54  81 106 139 184 226 266 322
#     4   9  17  33  57  81 105 136 176 229 277 318
#     4   9  19  36  55  74 101 138 178 219 263 309
#     4  10  19  34  56  79 107 145 188 223 262 326
#     4  10  20  38  62  84 110 144 185 232 287 332
#
# _framework density 21.05453
#
# number of rings (size 3 to 8) (size 9 to 14) (size 15 to 20)
#    0.000    2.182    2.727    1.091    0.000    2.909 
#    0.000    4.545    0.000    4.364    0.000    0.000 
#    0.000    0.000    0.000    0.000    0.000    0.000 
#
# Total GULP energy -245414.480363 kJ/mol
# GULP energy per Si atom -5577.601826 kJ/mol
# Density = 2.100661 g / cm^3
# Si number density = 21.054530 Si / 1000 Ang^3
#
#
#
# Elastic Constant Matrix: (Units=GPa)
#
#
# Indices 1 2 3 4 5 6 
#
# 1 56.9862 7.6658 -1.4963 0.0000 0.0000 0.0000
# 2 7.6658 200.5919 74.7557 0.0000 0.0000 0.0000
# 3 -1.4963 74.7557 118.1565 0.0000 0.0000 0.0000
# 4 0.0000 0.0000 0.0000 21.0153 0.0000 0.0000
# 5 0.0000 0.0000 0.0000 0.0000 18.3570 0.0000
# 6 0.0000 0.0000 0.0000 0.0000 0.0000 -4.5353
#
#
#
# Elastic Compliance Matrix: (Units=1/GPa)
#
#
# Indices 1 2 3 4 5 6 
#
# 1 0.017704 -0.000995 0.000854 0.000000 0.000000 0.000000
# 2 -0.000995 0.006579 -0.004175 0.000000 0.000000 0.000000
# 3 0.000854 -0.004175 0.011116 0.000000 0.000000 0.000000
# 4 0.000000 0.000000 0.000000 0.047584 0.000000 0.000000
# 5 0.000000 0.000000 0.000000 0.000000 0.054475 0.000000
# 6 0.000000 0.000000 0.000000 0.000000 0.000000 -0.220493
#
#
# Mechanical properties :
#
#
# Convention : Reuss Voigt Hill
#
# Bulk Modulus (GPa) = 37.35996 59.73168 48.54582
# Shear Modulus (GPa) = -76.35960 26.62136 -24.86912
#
# Velocity S-wave (km/s) = -6.02879 3.55970 -3.44055
# Velocity P-wave (km/s) = 5.53884 6.73252 2.70629
#
# Compressibility (1/GPa) = 0.02676662
#
# Stress axis : x y z
#
# Youngs Moduli (GPa) = 56.48339 151.99317 89.96266
#
# Poissons Ratio (x) = 0.15118 -0.07678
# Poissons Ratio (y) = 0.05618 0.37561
# Poissons Ratio (z) = -0.04821 0.63460
#
# Static dielectric constant tensor:
#      x y z
#    x 1.661330 0.000000 0.000000 
#    y 0.000000 1.788950 0.000000 
#    z 0.000000 0.000000 1.750970 
# 
# From -- ./inp_files/48756.got.cif
#   From: 2010.05.17/outbox.cif.g08.bks.cpg/sg74_25_cif.got.tgz:48756.got - 2010.06.03 17:57:02.
