data_PCOD9534405
_publ_section_title
;
Structure prediction by ZEFSAII (Michael W. Deem and Ramdas Pophale) SiO2 
 PCOD9534405
Probable space group: I M M A
;
_chemical_formula_sum "Si O2"
_cell_formula_units_Z 88
_cell_length_a 13.777343
_cell_length_b 14.115956
_cell_length_c 23.648433
_cell_angle_alpha 90.000000
_cell_angle_beta 90.000000
_cell_angle_gamma 90.000000
_cell_volume 4599.155943
_symmetry_space_group_name_H-M "I M M A"
_symmetry_group_IT_number 74
_symmetry_cell_setting 'orthorhombic'
loop_
_space_group_symop_operation_xyz
x,y,z
-x,1/2-y,z
x,-y,-z
-x,1/2+y,-z
-x,-y,-z
x,1/2+y,-z
-x,y,z
x,1/2-y,z
1/2+x,1/2+y,1/2+z
1/2-x,-y,1/2+z
1/2+x,1/2-y,1/2-z
1/2-x,y,1/2-z
1/2-x,1/2-y,1/2-z
1/2+x,y,1/2-z
1/2-x,1/2+y,1/2+z
1/2+x,-y,1/2+z
loop_
_atom_site_type_symbol
_atom_site_label
_atom_site_fract_x
_atom_site_fract_y
_atom_site_fract_z
Si Si1 0.117918 0.750000 0.550618
Si Si2 0.612736 0.605377 0.157992
Si Si3 0.706150 0.750000 0.073010
Si Si4 0.118890 0.644580 0.775632
Si Si5 0.886550 0.884402 0.647854
Si Si6 0.882073 0.928180 0.214907
Si Si7 0.114618 0.250000 0.865030
O O1 0.165949 0.750000 0.489749
O O2 0.149859 0.663436 0.590948
O O3 0.000000 0.750000 0.542756
O O4 0.500000 0.635783 0.158985
O O5 0.666561 0.663134 0.110237
O O6 0.617670 0.495827 0.142794
O O7 0.650057 0.607073 0.222688
O O8 0.821805 0.750000 0.078679
O O9 0.144701 0.750000 0.799409
O O10 0.152147 0.643620 0.709660
O O11 0.148432 0.538156 0.797487
O O12 0.000000 0.642357 0.776650
O O13 0.000000 0.857076 0.650791
O O14 0.860451 0.845322 0.170451
O O15 0.000000 0.932673 0.218801
O O16 0.000000 0.250000 0.874571
#
# Coordination Sequence:
#
# PCOD9534405 Si02
#       7
#     8  16   8  16  16  16   8
#     4  10  18  29  46  73 106 138 167 185 218 283
#     4   9  17  29  44  71 104 127 151 185 230 293
#     4  12  23  30  43  65  90 134 173 209 236 265
#     4   8  11  19  40  71  98 122 153 184 226 292
#     4   8  14  25  43  67 103 139 154 174 218 284
#     4   8  15  27  45  65  90 125 161 198 242 290
#     4  10  21  37  49  62  88 128 176 222 256 278
#
# _framework density 19.133946000000002
#
# number of rings (size 3 to 8) (size 9 to 14) (size 15 to 20)
#    0.000    3.091    0.909    3.545    0.000    3.636 
#    0.000    2.727    0.000    0.000    2.364    5.091 
#    0.000    0.000    0.000    0.000    0.000    0.000 
#
# Total GULP energy -245107.841761 kJ/mol
# GULP energy per Si atom -5570.632767 kJ/mol
# Density = 1.909040 g / cm^3
# Si number density = 19.133946 Si / 1000 Ang^3
#
#
#
# Elastic Constant Matrix: (Units=GPa)
#
#
# Indices 1 2 3 4 5 6 
#
# 1 60.5880 17.4179 26.0243 0.0000 0.0000 0.0000
# 2 17.4179 124.8318 28.7608 0.0000 0.0000 0.0000
# 3 26.0243 28.7608 73.2805 0.0000 0.0000 0.0000
# 4 0.0000 0.0000 0.0000 15.0428 0.0000 0.0000
# 5 0.0000 0.0000 0.0000 0.0000 19.8487 0.0000
# 6 0.0000 0.0000 0.0000 0.0000 0.0000 5.4678
#
#
#
# Elastic Compliance Matrix: (Units=1/GPa)
#
#
# Indices 1 2 3 4 5 6 
#
# 1 0.019651 -0.001247 -0.006489 0.000000 0.000000 0.000000
# 2 -0.001247 0.008886 -0.003045 0.000000 0.000000 0.000000
# 3 -0.006489 -0.003045 0.017146 0.000000 0.000000 0.000000
# 4 0.000000 0.000000 0.000000 0.066477 0.000000 0.000000
# 5 0.000000 0.000000 0.000000 0.000000 0.050381 0.000000
# 6 0.000000 0.000000 0.000000 0.000000 0.000000 0.182889
#
#
# Mechanical properties :
#
#
# Convention : Reuss Voigt Hill
#
# Bulk Modulus (GPa) = 41.45781 44.78957 43.12369
# Shear Modulus (GPa) = 13.33220 20.50500 16.91860
#
# Velocity S-wave (km/s) = 2.64253 3.27717 2.97681
# Velocity P-wave (km/s) = 5.56999 6.14646 5.86531
#
# Compressibility (1/GPa) = 0.02412091
#
# Stress axis : x y z
#
# Youngs Moduli (GPa) = 50.88885 112.53309 58.32334
#
# Poissons Ratio (x) = 0.14030 0.37848
# Poissons Ratio (y) = 0.06345 0.17759
# Poissons Ratio (z) = 0.33023 0.34265
#
# Static dielectric constant tensor:
#      x y z
#    x 1.750550 0.000000 0.000000 
#    y 0.000000 1.708710 0.000000 
#    z 0.000000 0.000000 1.608190 
# 
# From -- ./inp_files/60000.got.cif
#   From: 2010.05.17/outbox.cif.g08.bks.cpg/sg74_30_cif.got.tgz:60000.got - 2010.06.03 17:57:02.
