data_PCOD9534609
_publ_section_title
;
Structure prediction by ZEFSAII (Michael W. Deem and Ramdas Pophale) SiO2 
 PCOD9534609
Probable space group: I M M A
;
_chemical_formula_sum "Si O2"
_cell_formula_units_Z 72
_cell_length_a 8.704931
_cell_length_b 29.563979
_cell_length_c 14.208711
_cell_angle_alpha 90.000000
_cell_angle_beta 90.000000
_cell_angle_gamma 90.000000
_cell_volume 3656.645838
_symmetry_space_group_name_H-M "I M M A"
_symmetry_group_IT_number 74
_symmetry_cell_setting 'orthorhombic'
loop_
_space_group_symop_operation_xyz
x,y,z
-x,1/2-y,z
x,-y,-z
-x,1/2+y,-z
-x,-y,-z
x,1/2+y,-z
-x,y,z
x,1/2-y,z
1/2+x,1/2+y,1/2+z
1/2-x,-y,1/2+z
1/2+x,1/2-y,1/2-z
1/2-x,y,1/2-z
1/2-x,1/2-y,1/2-z
1/2+x,y,1/2-z
1/2-x,1/2+y,1/2+z
1/2+x,-y,1/2+z
loop_
_atom_site_type_symbol
_atom_site_label
_atom_site_fract_x
_atom_site_fract_y
_atom_site_fract_z
Si Si1 0.183783 0.835698 0.538238
Si Si2 0.316019 0.570795 0.855446
Si Si3 0.315786 0.117274 0.854222
Si Si4 0.181572 0.750000 0.854827
Si Si5 0.183859 0.977979 0.143093
O O1 0.218349 0.882962 0.590480
O O2 0.224971 0.844051 0.429163
O O3 0.264262 0.794233 0.588756
O O4 0.000000 0.828800 0.543866
O O5 0.500000 0.564607 0.851987
O O6 0.250000 0.575650 0.750000
O O7 0.241740 0.525382 0.898850
O O8 0.500000 0.113515 0.849240
O O9 0.250000 0.124842 0.750000
O O10 0.251074 0.069405 0.892330
O O11 0.250000 0.750000 0.750000
O O12 0.000000 0.750000 0.846650
O O13 0.250000 0.979356 0.250000
O O14 0.000000 0.976664 0.143451
#
# Coordination Sequence:
#
# PCOD9534609 Si02
#       5
#    16  16  16   8  16
#     4  10  23  41  62  86 115 151 194 240 291 346
#     4  10  19  33  53  80 113 151 192 237 286 341
#     4  10  20  37  59  84 116 155 195 240 287 338
#     4  12  26  44  69  94 121 150 183 230 286 346
#     4  10  18  30  50  78 114 155 194 236 283 338
#
# _framework density 19.690176000000001
#
# number of rings (size 3 to 8) (size 9 to 14) (size 15 to 20)
#    0.000    1.778    0.000    7.667    0.000    6.222 
#    0.000    5.000    0.000    0.000    0.000    0.000 
#    0.000    0.000    0.000    0.000    0.000    0.000 
#
# Total GULP energy -201162.660591 kJ/mol
# GULP energy per Si atom -5587.851683 kJ/mol
# Density = 1.964536 g / cm^3
# Si number density = 19.690176 Si / 1000 Ang^3
#
#
#
# Elastic Constant Matrix: (Units=GPa)
#
#
# Indices 1 2 3 4 5 6 
#
# 1 109.7526 83.8276 62.4864 0.0000 0.0000 0.0000
# 2 83.8276 150.0285 88.5157 0.0000 0.0000 0.0000
# 3 62.4864 88.5157 129.3334 0.0002 0.0000 0.0001
# 4 0.0000 0.0000 0.0002 31.9042 0.0000 0.0001
# 5 0.0000 0.0000 0.0000 0.0000 18.9279 0.0000
# 6 0.0000 0.0000 0.0001 0.0001 0.0000 39.3190
#
#
#
# Elastic Compliance Matrix: (Units=1/GPa)
#
#
# Indices 1 2 3 4 5 6 
#
# 1 0.016471 -0.007561 -0.002783 0.000000 0.000000 0.000000
# 2 -0.007561 0.014651 -0.006374 0.000000 0.000000 0.000000
# 3 -0.002783 -0.006374 0.013439 0.000000 0.000000 0.000000
# 4 0.000000 0.000000 0.000000 0.031344 0.000000 0.000000
# 5 0.000000 0.000000 0.000000 0.000000 0.052832 0.000000
# 6 0.000000 0.000000 0.000000 0.000000 0.000000 0.025433
#
#
# Mechanical properties :
#
#
# Convention : Reuss Voigt Hill
#
# Bulk Modulus (GPa) = 89.89130 95.41932 92.65531
# Shear Modulus (GPa) = 26.13516 28.31587 27.22552
#
# Velocity S-wave (km/s) = 3.64719 3.79630 3.72250
# Velocity P-wave (km/s) = 7.96794 8.23295 8.10153
#
# Compressibility (1/GPa) = 0.01112455
#
# Stress axis : x y z
#
# Youngs Moduli (GPa) = 60.71304 68.25662 74.41172
#
# Poissons Ratio (x) = 0.51609 0.20709
# Poissons Ratio (y) = 0.45906 0.47428
# Poissons Ratio (z) = 0.16896 0.43505
#
# Static dielectric constant tensor:
#      x y z
#    x 1.657310 0.000000 0.000000 
#    y 0.000000 1.692910 0.000000 
#    z 0.000000 0.000000 1.536350 
# 
# From -- ./inp_files/29180.got.cif
#   From: 2010.05.17/outbox.cif.g08.bks.cpg/sg74_15_cif.got.tgz:29180.got - 2010.06.03 17:57:02.
