data_PCOD9534312
_publ_section_title
;
Structure prediction by ZEFSAII (Michael W. Deem and Ramdas Pophale) SiO2 
 PCOD9534312
Probable space group: I M M A
;
_chemical_formula_sum "Si O2"
_cell_formula_units_Z 64
_cell_length_a 16.915773
_cell_length_b 22.378709
_cell_length_c 7.228806
_cell_angle_alpha 90.000000
_cell_angle_beta 90.000000
_cell_angle_gamma 90.000000
_cell_volume 2736.487365
_symmetry_space_group_name_H-M "I M M A"
_symmetry_group_IT_number 74
_symmetry_cell_setting 'orthorhombic'
loop_
_space_group_symop_operation_xyz
x,y,z
-x,1/2-y,z
x,-y,-z
-x,1/2+y,-z
-x,-y,-z
x,1/2+y,-z
-x,y,z
x,1/2-y,z
1/2+x,1/2+y,1/2+z
1/2-x,-y,1/2+z
1/2+x,1/2-y,1/2-z
1/2-x,y,1/2-z
1/2-x,1/2-y,1/2-z
1/2+x,y,1/2-z
1/2-x,1/2+y,1/2+z
1/2+x,-y,1/2+z
loop_
_atom_site_type_symbol
_atom_site_label
_atom_site_fract_x
_atom_site_fract_y
_atom_site_fract_z
Si Si1 0.094914 0.814898 0.191152
Si Si2 0.092856 0.562037 0.797500
Si Si3 0.655384 0.184668 0.266919
Si Si4 0.842010 0.939133 0.214000
O O1 0.116301 0.750000 0.272455
O O2 0.129461 0.874358 0.281929
O O3 0.000000 0.819691 0.184173
O O4 0.128105 0.813738 0.981540
O O5 0.118189 0.622788 0.695756
O O6 0.114257 0.498058 0.711456
O O7 0.000000 0.564294 0.835928
O O8 0.138603 0.562243 0.994202
O O9 0.630681 0.250000 0.190944
O O10 0.750000 0.180520 0.250000
O O11 0.750000 0.945914 0.250000
#
# Coordination Sequence:
#
# PCOD9534312 Si02
#       4
#    16  16  16  16
#     4   9  17  30  47  68  92 117 150 188 221 259
#     4  10  19  32  48  68  92 116 149 187 221 261
#     4   9  16  26  43  69  96 118 144 183 227 263
#     4  10  18  28  45  69  93 115 144 184 228 264
#
# _framework density 23.387647999999999
#
# number of rings (size 3 to 8) (size 9 to 14) (size 15 to 20)
#    0.000    2.500    0.000    6.000    0.000    2.000 
#    0.000    0.000    0.000    0.000    0.000  122.500 
#    0.000   28.000    0.000    0.000    0.000    0.000 
#
# Total GULP energy -178629.676442 kJ/mol
# GULP energy per Si atom -5582.177389 kJ/mol
# Density = 2.333442 g / cm^3
# Si number density = 23.387648 Si / 1000 Ang^3
#
#
#
# Elastic Constant Matrix: (Units=GPa)
#
#
# Indices 1 2 3 4 5 6 
#
# 1 97.6348 24.7843 6.3371 0.0000 0.0000 0.0000
# 2 24.7843 256.3714 0.5994 0.0000 0.0000 0.0000
# 3 6.3371 0.5994 95.9093 0.0000 0.0000 0.0000
# 4 0.0000 0.0000 0.0000 -26.8766 0.0000 0.0000
# 5 0.0000 0.0000 0.0000 0.0000 19.3157 0.0000
# 6 0.0000 0.0000 0.0000 0.0000 0.0000 51.2640
#
#
#
# Elastic Compliance Matrix: (Units=1/GPa)
#
#
# Indices 1 2 3 4 5 6 
#
# 1 0.010545 -0.001018 -0.000690 0.000000 0.000000 0.000000
# 2 -0.001018 0.003999 0.000042 0.000000 0.000000 0.000000
# 3 -0.000690 0.000042 0.010472 0.000000 0.000000 0.000000
# 4 0.000000 0.000000 0.000000 -0.037207 0.000000 0.000000
# 5 0.000000 0.000000 0.000000 0.000000 0.051771 0.000000
# 6 0.000000 0.000000 0.000000 0.000000 0.000000 0.019507
#
#
# Mechanical properties :
#
#
# Convention : Reuss Voigt Hill
#
# Bulk Modulus (GPa) = 46.11653 57.03965 51.57809
# Shear Modulus (GPa) = 71.79015 36.62027 54.20521
#
# Velocity S-wave (km/s) = 5.54639 3.96131 4.81946
# Velocity P-wave (km/s) = 7.79600 6.73531 7.28498
#
# Compressibility (1/GPa) = 0.02168420
#
# Stress axis : x y z
#
# Youngs Moduli (GPa) = 94.82773 250.06930 95.49390
#
# Poissons Ratio (x) = 0.25453 0.06593
# Poissons Ratio (y) = 0.09652 -0.00404
# Poissons Ratio (z) = 0.06547 -0.01057
#
# Static dielectric constant tensor:
#      x y z
#    x 1.759320 0.000000 0.000000 
#    y 0.000000 2.003670 0.000000 
#    z 0.000000 0.000000 1.848410 
# 
# From -- ./inp_files/8771.got.cif
#   From: 2010.05.17/outbox.cif.g08.bks.cpg/sg74_5_cif.got.tgz:8771.got - 2010.06.03 17:57:02.
