data_PCOD9534565
_publ_section_title
;
Structure prediction by ZEFSAII (Michael W. Deem and Ramdas Pophale) SiO2 
 PCOD9534565
Probable space group: I M M A
;
_chemical_formula_sum "Si O2"
_cell_formula_units_Z 80
_cell_length_a 28.498664
_cell_length_b 7.636901
_cell_length_c 22.843103
_cell_angle_alpha 90.000000
_cell_angle_beta 90.000000
_cell_angle_gamma 90.000000
_cell_volume 4971.606644
_symmetry_space_group_name_H-M "I M M A"
_symmetry_group_IT_number 74
_symmetry_cell_setting 'orthorhombic'
loop_
_space_group_symop_operation_xyz
x,y,z
-x,1/2-y,z
x,-y,-z
-x,1/2+y,-z
-x,-y,-z
x,1/2+y,-z
-x,y,z
x,1/2-y,z
1/2+x,1/2+y,1/2+z
1/2-x,-y,1/2+z
1/2+x,1/2-y,1/2-z
1/2-x,y,1/2-z
1/2-x,1/2-y,1/2-z
1/2+x,y,1/2-z
1/2-x,1/2+y,1/2+z
1/2+x,-y,1/2+z
loop_
_atom_site_type_symbol
_atom_site_label
_atom_site_fract_x
_atom_site_fract_y
_atom_site_fract_z
Si Si1 0.327754 0.750000 0.266638
Si Si2 0.000000 0.044221 0.595671
Si Si3 0.000000 0.461131 0.729258
Si Si4 0.398937 0.457976 0.097631
Si Si5 0.296031 0.459331 0.065283
Si Si6 0.738971 0.750000 0.152537
Si Si7 0.602718 0.045332 0.233787
O O1 0.298004 0.750000 0.206188
O O2 0.290209 0.750000 0.318599
O O3 0.360977 0.579626 0.266234
O O4 0.000000 0.968182 0.661922
O O5 0.000000 0.250000 0.601368
O O6 0.050614 0.999108 0.569704
O O7 0.950803 0.523458 0.755543
O O8 0.000000 0.250000 0.728704
O O9 0.396484 0.250000 0.099393
O O10 0.350978 0.518608 0.068161
O O11 0.398289 0.518141 0.165550
O O12 0.293099 0.250000 0.076749
O O13 0.270120 0.578406 0.112981
O O14 0.278748 0.500000 0.000000
O O15 0.615835 0.250000 0.235113
#
# Coordination Sequence:
#
# PCOD9534565 Si02
#       7
#     8   8   8  16  16   8  16
#     4  11  22  35  54  76 108 143 168 227 270 320
#     4   9  17  23  42  66  92 128 163 210 260 308
#     4   9  15  25  45  71 100 137 178 204 244 311
#     4   9  18  30  45  68  95 127 170 214 260 310
#     4  11  22  37  58  76  95 131 178 227 269 316
#     4  11  24  38  54  78 104 131 182 226 278 317
#     4  10  18  30  48  73 105 140 174 209 255 312
#
# _framework density 16.091379
#
# number of rings (size 3 to 8) (size 9 to 14) (size 15 to 20)
#    0.000    2.000    4.000    0.600    2.800    3.200 
#    0.000    2.500    0.000    0.000    0.000    0.000 
#    0.000    0.000    0.000    3.600    0.000    0.200 
#
# Total GULP energy -223004.773919 kJ/mol
# GULP energy per Si atom -5575.119348 kJ/mol
# Density = 1.605475 g / cm^3
# Si number density = 16.091379 Si / 1000 Ang^3
#
#
#
# Elastic Constant Matrix: (Units=GPa)
#
#
# Indices 1 2 3 4 5 6 
#
# 1 117.2147 47.2496 52.1025 0.0000 0.0000 0.0000
# 2 47.2496 99.6910 33.0044 0.0000 0.0000 0.0000
# 3 52.1025 33.0044 62.4643 0.0000 0.0000 0.0000
# 4 0.0000 0.0000 0.0000 9.5041 0.0000 0.0000
# 5 0.0000 0.0000 0.0000 0.0000 8.0540 0.0000
# 6 0.0000 0.0000 0.0000 0.0000 0.0000 13.9230
#
#
#
# Elastic Compliance Matrix: (Units=1/GPa)
#
#
# Indices 1 2 3 4 5 6 
#
# 1 0.014487 -0.003473 -0.010249 0.000000 0.000000 0.000000
# 2 -0.003473 0.012990 -0.003967 0.000000 0.000000 0.000000
# 3 -0.010249 -0.003967 0.026654 0.000000 0.000000 0.000000
# 4 0.000000 0.000000 0.000000 0.105218 0.000000 0.000000
# 5 0.000000 0.000000 0.000000 0.000000 0.124161 0.000000
# 6 0.000000 0.000000 0.000000 0.000000 0.000000 0.071823
#
#
# Mechanical properties :
#
#
# Convention : Reuss Voigt Hill
#
# Bulk Modulus (GPa) = 53.32247 60.45366 56.88806
# Shear Modulus (GPa) = 12.59566 16.09714 14.34640
#
# Velocity S-wave (km/s) = 2.80082 3.16627 2.98914
# Velocity P-wave (km/s) = 6.60823 7.14266 6.88063
#
# Compressibility (1/GPa) = 0.01875382
#
# Stress axis : x y z
#
# Youngs Moduli (GPa) = 69.02722 76.97975 37.51839
#
# Poissons Ratio (x) = 0.26737 0.38451
# Poissons Ratio (y) = 0.23975 0.14882
# Poissons Ratio (z) = 0.70744 0.30535
#
# Static dielectric constant tensor:
#      x y z
#    x 1.609260 0.000000 0.000000 
#    y 0.000000 1.556930 0.000000 
#    z 0.000000 0.000000 1.525120 
# 
# From -- ./inp_files/48662.got.cif
#   From: 2010.05.17/outbox.cif.g08.bks.cpg/sg74_25_cif.got.tgz:48662.got - 2010.06.03 17:57:02.
