data_PCOD9534876
_publ_section_title
;
Structure prediction by ZEFSAII (Michael W. Deem and Ramdas Pophale) SiO2 
 PCOD9534876
Probable space group: I M M A
;
_chemical_formula_sum "Si O2"
_cell_formula_units_Z 72
_cell_length_a 8.646638
_cell_length_b 15.688255
_cell_length_c 29.227686
_cell_angle_alpha 90.000000
_cell_angle_beta 90.000000
_cell_angle_gamma 90.000000
_cell_volume 3964.754950
_symmetry_space_group_name_H-M "I M M A"
_symmetry_group_IT_number 74
_symmetry_cell_setting 'orthorhombic'
loop_
_space_group_symop_operation_xyz
x,y,z
-x,1/2-y,z
x,-y,-z
-x,1/2+y,-z
-x,-y,-z
x,1/2+y,-z
-x,y,z
x,1/2-y,z
1/2+x,1/2+y,1/2+z
1/2-x,-y,1/2+z
1/2+x,1/2-y,1/2-z
1/2-x,y,1/2-z
1/2-x,1/2-y,1/2-z
1/2+x,y,1/2-z
1/2-x,1/2+y,1/2+z
1/2+x,-y,1/2+z
loop_
_atom_site_type_symbol
_atom_site_label
_atom_site_fract_x
_atom_site_fract_y
_atom_site_fract_z
Si Si1 0.315189 0.750000 0.698225
Si Si2 0.184091 0.347802 0.443161
Si Si3 0.316021 0.004230 0.613640
Si Si4 0.316828 0.571581 0.800932
Si Si5 0.315956 0.151756 0.543680
O O1 0.500000 0.750000 0.697772
O O2 0.250000 0.750000 0.750000
O O3 0.250744 0.661212 0.679732
O O4 0.231502 0.250000 0.432081
O O5 0.269615 0.419960 0.414568
O O6 0.224770 0.361790 0.496532
O O7 0.000000 0.354698 0.435847
O O8 0.500000 0.005859 0.620642
O O9 0.233569 0.998842 0.662625
O O10 0.271160 0.085076 0.582689
O O11 0.500000 0.579316 0.797685
O O12 0.250000 0.558030 0.750000
O O13 0.500000 0.140025 0.534242
O O14 0.293067 0.250000 0.557840
#
# Coordination Sequence:
#
# PCOD9534876 Si02
#       5
#     8  16  16  16  16
#     4  10  18  32  52  74 102 138 176 212 256 310
#     4  10  21  35  52  78 113 147 180 220 267 321
#     4  11  22  35  55  81 108 142 183 225 270 324
#     4  11  22  37  55  77 108 142 179 222 267 318
#     4   9  19  37  58  79 106 141 181 225 275 327
#
# _framework density 18.160011999999998
#
# number of rings (size 3 to 8) (size 9 to 14) (size 15 to 20)
#    0.000    1.778    0.000    6.333    1.556    5.778 
#    0.000    0.000    0.000    0.667    0.000    0.000 
#    0.000    0.000    0.000    0.000    0.000    0.000 
#
# Total GULP energy -201107.387189 kJ/mol
# GULP energy per Si atom -5586.316311 kJ/mol
# Density = 1.811868 g / cm^3
# Si number density = 18.160012 Si / 1000 Ang^3
#
#
#
# Elastic Constant Matrix: (Units=GPa)
#
#
# Indices 1 2 3 4 5 6 
#
# 1 88.3132 25.9859 27.5202 0.0000 0.0000 0.0000
# 2 25.9859 61.3361 51.5850 0.0000 0.0000 0.0000
# 3 27.5202 51.5850 86.2047 0.0000 0.0000 0.0000
# 4 0.0000 0.0000 0.0000 29.2315 0.0000 0.0000
# 5 0.0000 0.0000 0.0000 0.0000 29.9542 0.0000
# 6 0.0000 0.0000 0.0000 0.0000 0.0000 20.3245
#
#
#
# Elastic Compliance Matrix: (Units=1/GPa)
#
#
# Indices 1 2 3 4 5 6 
#
# 1 0.013063 -0.004081 -0.001728 0.000000 0.000000 0.000000
# 2 -0.004081 0.034097 -0.019101 0.000000 0.000000 0.000000
# 3 -0.001728 -0.019101 0.023582 0.000000 0.000000 0.000000
# 4 0.000000 0.000000 0.000000 0.034210 0.000000 0.000000
# 5 0.000000 0.000000 0.000000 0.000000 0.033384 0.000000
# 6 0.000000 0.000000 0.000000 0.000000 0.000000 0.049202
#
#
# Mechanical properties :
#
#
# Convention : Reuss Voigt Hill
#
# Bulk Modulus (GPa) = 47.79697 49.55959 48.67828
# Shear Modulus (GPa) = 20.46411 24.61955 22.54183
#
# Velocity S-wave (km/s) = 3.36054 3.68598 3.52702
# Velocity P-wave (km/s) = 6.43698 6.74277 6.59165
#
# Compressibility (1/GPa) = 0.02092183
#
# Stress axis : x y z
#
# Youngs Moduli (GPa) = 76.55432 29.32845 42.40533
#
# Poissons Ratio (x) = 0.11968 0.07329
# Poissons Ratio (y) = 0.31239 0.80997
# Poissons Ratio (z) = 0.13231 0.56019
#
# Static dielectric constant tensor:
#      x y z
#    x 1.612880 0.000000 0.000000 
#    y 0.000000 1.633240 0.000000 
#    z 0.000000 0.000000 1.612400 
# 
# From -- ./inp_files/56691.got.cif
#   From: 2010.05.17/outbox.cif.g08.bks.cpg/sg74_29_cif.got.tgz:56691.got - 2010.06.03 17:57:02.
