data_PCOD9534711
_publ_section_title
;
Structure prediction by ZEFSAII (Michael W. Deem and Ramdas Pophale) SiO2 
 PCOD9534711
Probable space group: I M M A
;
_chemical_formula_sum "Si O2"
_cell_formula_units_Z 96
_cell_length_a 21.349623
_cell_length_b 8.880632
_cell_length_c 30.949235
_cell_angle_alpha 90.000000
_cell_angle_beta 90.000000
_cell_angle_gamma 90.000000
_cell_volume 5867.917551
_symmetry_space_group_name_H-M "I M M A"
_symmetry_group_IT_number 74
_symmetry_cell_setting 'orthorhombic'
loop_
_space_group_symop_operation_xyz
x,y,z
-x,1/2-y,z
x,-y,-z
-x,1/2+y,-z
-x,-y,-z
x,1/2+y,-z
-x,y,z
x,1/2-y,z
1/2+x,1/2+y,1/2+z
1/2-x,-y,1/2+z
1/2+x,1/2-y,1/2-z
1/2-x,y,1/2-z
1/2-x,1/2-y,1/2-z
1/2+x,y,1/2-z
1/2-x,1/2+y,1/2+z
1/2+x,-y,1/2+z
loop_
_atom_site_type_symbol
_atom_site_label
_atom_site_fract_x
_atom_site_fract_y
_atom_site_fract_z
Si Si1 0.597092 0.923070 0.044157
Si Si2 0.068235 0.933078 0.267960
Si Si3 0.888735 0.433229 0.637640
Si Si4 0.749889 0.570628 0.634096
Si Si5 0.249828 0.924523 0.455471
Si Si6 0.307654 0.931468 0.282420
O O1 0.577591 0.750000 0.042279
O O2 0.581061 0.983759 0.092007
O O3 0.673407 0.928925 0.044155
O O4 0.575691 0.000000 0.000000
O O5 0.069340 0.750000 0.267042
O O6 0.076679 0.974709 0.318288
O O7 0.127816 0.981817 0.240050
O O8 0.000000 0.983403 0.252320
O O9 0.884575 0.250000 0.635618
O O10 0.818742 0.498290 0.641020
O O11 0.754406 0.750000 0.634766
O O12 0.729045 0.513075 0.586980
O O13 0.706318 0.510138 0.672320
O O14 0.267803 0.750000 0.453056
O O15 0.270929 0.000000 0.500000
O O16 0.309140 0.750000 0.288402
O O17 0.250000 0.963769 0.250000
#
# Coordination Sequence:
#
# PCOD9534711 Si02
#       6
#    16  16  16  16  16  16
#     4   8  14  22  36  56  81 111 144 183 226 272
#     4   9  17  30  50  71  88 113 156 201 241 291
#     4   9  16  29  45  63  87 117 153 196 244 283
#     4  11  20  28  43  68  96 125 161 196 232 280
#     4   9  16  27  42  63  94 127 157 190 236 282
#     4  10  18  31  50  69  92 122 154 197 248 288
#
# _framework density 16.360147999999999
#
# number of rings (size 3 to 8) (size 9 to 14) (size 15 to 20)
#    0.000    2.667    1.667    3.000    0.000    4.333 
#    0.000    0.000    0.000    2.500    0.000    0.000 
#    0.000    0.667    0.000    1.833    0.000    4.667 
#
# Total GULP energy -267504.758067 kJ/mol
# GULP energy per Si atom -5573.015793 kJ/mol
# Density = 1.632291 g / cm^3
# Si number density = 16.360148 Si / 1000 Ang^3
#
#
#
# Elastic Constant Matrix: (Units=GPa)
#
#
# Indices 1 2 3 4 5 6 
#
# 1 81.1149 17.8688 56.8763 0.0000 0.0000 0.0000
# 2 17.8688 35.9079 36.3955 0.0000 0.0000 0.0000
# 3 56.8763 36.3955 136.4733 0.0000 0.0000 0.0000
# 4 0.0000 0.0000 0.0000 26.8149 0.0000 0.0000
# 5 0.0000 0.0000 0.0000 0.0000 3.7038 0.0000
# 6 0.0000 0.0000 0.0000 0.0000 0.0000 9.7727
#
#
#
# Elastic Compliance Matrix: (Units=1/GPa)
#
#
# Indices 1 2 3 4 5 6 
#
# 1 0.017503 -0.001804 -0.006813 0.000000 0.000000 0.000000
# 2 -0.001804 0.038351 -0.009476 0.000000 0.000000 0.000000
# 3 -0.006813 -0.009476 0.012694 0.000000 0.000000 0.000000
# 4 0.000000 0.000000 0.000000 0.037293 0.000000 0.000000
# 5 0.000000 0.000000 0.000000 0.000000 0.269994 0.000000
# 6 0.000000 0.000000 0.000000 0.000000 0.000000 0.102326
#
#
# Mechanical properties :
#
#
# Convention : Reuss Voigt Hill
#
# Bulk Modulus (GPa) = 30.90071 52.86413 41.88242
# Shear Modulus (GPa) = 9.52136 17.54866 13.53501
#
# Velocity S-wave (km/s) = 2.41505 3.27868 2.87943
# Velocity P-wave (km/s) = 5.16773 6.83490 6.05893
#
# Compressibility (1/GPa) = 0.03236172
#
# Stress axis : x y z
#
# Youngs Moduli (GPa) = 57.13295 26.07470 78.77701
#
# Poissons Ratio (x) = 0.04704 0.53674
# Poissons Ratio (y) = 0.10307 0.74648
# Poissons Ratio (z) = 0.38927 0.24708
#
# Static dielectric constant tensor:
#      x y z
#    x 1.547590 0.000000 0.000000 
#    y 0.000000 1.548430 0.000000 
#    z 0.000000 0.000000 1.571200 
# 
# From -- ./inp_files/68583.got.cif
#   From: 2010.05.17/outbox.cif.g08.bks.cpg/sg74_35_cif.got.tgz:68583.got - 2010.06.03 17:57:02.
