data_PCOD9534677
_publ_section_title
;
Structure prediction by ZEFSAII (Michael W. Deem and Ramdas Pophale) SiO2 
 PCOD9534677
Probable space group: I M M A
;
_chemical_formula_sum "Si O2"
_cell_formula_units_Z 128
_cell_length_a 20.124699
_cell_length_b 21.395708
_cell_length_c 18.509291
_cell_angle_alpha 90.000000
_cell_angle_beta 90.000000
_cell_angle_gamma 90.000000
_cell_volume 7969.770932
_symmetry_space_group_name_H-M "I M M A"
_symmetry_group_IT_number 74
_symmetry_cell_setting 'orthorhombic'
loop_
_space_group_symop_operation_xyz
x,y,z
-x,1/2-y,z
x,-y,-z
-x,1/2+y,-z
-x,-y,-z
x,1/2+y,-z
-x,y,z
x,1/2-y,z
1/2+x,1/2+y,1/2+z
1/2-x,-y,1/2+z
1/2+x,1/2-y,1/2-z
1/2-x,y,1/2-z
1/2-x,1/2-y,1/2-z
1/2+x,y,1/2-z
1/2-x,1/2+y,1/2+z
1/2+x,-y,1/2+z
loop_
_atom_site_type_symbol
_atom_site_label
_atom_site_fract_x
_atom_site_fract_y
_atom_site_fract_z
Si Si1 0.884465 0.625874 0.090210
Si Si2 0.261213 0.677297 0.051588
Si Si3 0.889682 0.439286 0.047776
Si Si4 0.574735 0.680824 0.270685
Si Si5 0.806337 0.871521 0.306583
Si Si6 0.922736 0.996243 0.183362
Si Si7 0.229276 0.938508 0.548672
Si Si8 0.810493 0.015566 0.301293
O O1 0.809727 0.650972 0.080808
O O2 0.922362 0.671994 0.143217
O O3 0.890000 0.560443 0.135539
O O4 0.908620 0.615233 0.008381
O O5 0.256458 0.750000 0.029598
O O6 0.306774 0.669381 0.121933
O O7 0.284092 0.626976 0.991873
O O8 0.921223 0.446603 0.126002
O O9 0.000000 0.673039 0.254319
O O10 0.907660 0.500000 0.000000
O O11 0.500000 0.519448 0.300347
O O12 0.598948 0.750000 0.253053
O O13 0.623941 0.633223 0.233447
O O14 0.750000 0.850350 0.250000
O O15 0.793170 0.944016 0.324015
O O16 0.809697 0.060403 0.058753
O O17 0.876939 0.012231 0.252292
O O18 0.191904 0.945551 0.624891
O O19 0.213899 0.000000 0.500000
O O20 0.750000 0.036755 0.250000
#
# Coordination Sequence:
#
# PCOD9534677 Si02
#       8
#    16  16  16  16  16  16  16  16
#     4  10  18  31  46  68 105 141 169 205 250 305
#     4  11  21  33  53  79 104 136 181 223 260 311
#     4   8  17  28  45  70  99 132 169 203 251 302
#     4  11  22  32  43  65 102 144 176 204 244 296
#     4  11  20  31  51  74  99 136 175 211 246 300
#     4  11  20  31  49  76 106 138 178 219 259 312
#     4  10  18  33  53  76 105 135 171 217 271 312
#     4  11  19  32  54  76 101 136 172 213 269 312
#
# _framework density 16.060687999999999
#
# number of rings (size 3 to 8) (size 9 to 14) (size 15 to 20)
#    0.000    1.625    5.000    2.625    0.000    3.250 
#    0.000    0.000    0.000    1.500    0.000    0.000 
#    0.000    5.000    0.000    0.000    0.000    0.000 
#
# Total GULP energy -356409.400086 kJ/mol
# GULP energy per Si atom -5568.896876 kJ/mol
# Density = 1.602413 g / cm^3
# Si number density = 16.060688 Si / 1000 Ang^3
#
#
#
# Elastic Constant Matrix: (Units=GPa)
#
#
# Indices 1 2 3 4 5 6 
#
# 1 38.7612 22.2266 34.9697 0.0000 0.0000 0.0000
# 2 22.2266 67.4348 49.5687 0.0000 0.0000 0.0000
# 3 34.9697 49.5687 101.7059 0.0000 0.0000 0.0000
# 4 0.0000 0.0000 0.0000 20.9237 0.0000 0.0000
# 5 0.0000 0.0000 0.0000 0.0000 16.0562 0.0000
# 6 0.0000 0.0000 0.0000 0.0000 0.0000 12.4274
#
#
#
# Elastic Compliance Matrix: (Units=1/GPa)
#
#
# Indices 1 2 3 4 5 6 
#
# 1 0.038290 -0.004586 -0.010930 0.000000 0.000000 0.000000
# 2 -0.004586 0.023657 -0.009953 0.000000 0.000000 0.000000
# 3 -0.010930 -0.009953 0.018441 0.000000 0.000000 0.000000
# 4 0.000000 0.000000 0.000000 0.047793 0.000000 0.000000
# 5 0.000000 0.000000 0.000000 0.000000 0.062281 0.000000
# 6 0.000000 0.000000 0.000000 0.000000 0.000000 0.080467
#
#
# Mechanical properties :
#
#
# Convention : Reuss Voigt Hill
#
# Bulk Modulus (GPa) = 33.95636 46.82577 40.39106
# Shear Modulus (GPa) = 15.07465 16.62394 15.84930
#
# Velocity S-wave (km/s) = 3.06699 3.22074 3.14481
# Velocity P-wave (km/s) = 5.80778 6.56123 6.19597
#
# Compressibility (1/GPa) = 0.02944957
#
# Stress axis : x y z
#
# Youngs Moduli (GPa) = 26.11671 42.27156 54.22688
#
# Poissons Ratio (x) = 0.19386 0.59270
# Poissons Ratio (y) = 0.11977 0.53971
# Poissons Ratio (z) = 0.28546 0.42072
#
# Static dielectric constant tensor:
#      x y z
#    x 1.561540 0.000000 0.000000 
#    y 0.000000 1.584620 0.000000 
#    z 0.000000 0.000000 1.566980 
# 
# From -- ./inp_files/46340.got.cif
#   From: 2010.05.17/outbox.cif.g08.bks.cpg/sg74_24_cif.got.tgz:46340.got - 2010.06.03 17:57:02.
