data_PCOD9534211
_publ_section_title
;
Structure prediction by ZEFSAII (Michael W. Deem and Ramdas Pophale) SiO2 
 PCOD9534211
Probable space group: I M M A
;
_chemical_formula_sum "Si O2"
_cell_formula_units_Z 64
_cell_length_a 13.376098
_cell_length_b 19.877459
_cell_length_c 9.097206
_cell_angle_alpha 90.000000
_cell_angle_beta 90.000000
_cell_angle_gamma 90.000000
_cell_volume 2418.790963
_symmetry_space_group_name_H-M "I M M A"
_symmetry_group_IT_number 74
_symmetry_cell_setting 'orthorhombic'
loop_
_space_group_symop_operation_xyz
x,y,z
-x,1/2-y,z
x,-y,-z
-x,1/2+y,-z
-x,-y,-z
x,1/2+y,-z
-x,y,z
x,1/2-y,z
1/2+x,1/2+y,1/2+z
1/2-x,-y,1/2+z
1/2+x,1/2-y,1/2-z
1/2-x,y,1/2-z
1/2-x,1/2-y,1/2-z
1/2+x,y,1/2-z
1/2-x,1/2+y,1/2+z
1/2+x,-y,1/2+z
loop_
_atom_site_type_symbol
_atom_site_label
_atom_site_fract_x
_atom_site_fract_y
_atom_site_fract_z
Si Si1 0.615291 0.603347 0.148267
Si Si2 0.802809 0.324223 0.930004
Si Si3 0.113735 0.824746 0.755583
Si Si4 0.380248 0.527066 0.664745
O O1 0.500000 0.607522 0.099248
O O2 0.703760 0.630476 0.044747
O O3 0.634363 0.648418 0.293644
O O4 0.636683 0.529685 0.212091
O O5 0.764825 0.250000 0.901549
O O6 0.874194 0.320081 0.068410
O O7 0.153103 0.750000 0.700601
O O8 0.148694 0.902865 0.755314
O O9 0.000000 0.824984 0.705857
O O10 0.345303 0.500000 0.500000
O O11 0.500000 0.533312 0.644084
#
# Coordination Sequence:
#
# PCOD9534211 Si02
#       4
#    16  16  16  16
#     4  10  18  27  39  57  84 112 139 171 202 245
#     4  10  19  27  38  61  88 115 143 163 204 264
#     4   9  16  27  44  66  92 114 134 170 212 253
#     4   9  15  25  40  58  81 111 142 168 205 251
#
# _framework density 26.459499000000001
#
# number of rings (size 3 to 8) (size 9 to 14) (size 15 to 20)
#    0.000    2.500    2.500    2.250    0.000    3.000 
#    0.000    0.000    0.000    0.000    0.000   19.250 
#    0.000    0.000    0.000    0.000    0.000    0.000 
#
# Total GULP energy -178271.948534 kJ/mol
# GULP energy per Si atom -5570.998392 kJ/mol
# Density = 2.639928 g / cm^3
# Si number density = 26.459499 Si / 1000 Ang^3
#
#
#
# Elastic Constant Matrix: (Units=GPa)
#
#
# Indices 1 2 3 4 5 6 
#
# 1 146.6204 37.0360 -4.8511 0.0000 0.0000 0.0000
# 2 37.0360 270.0486 55.5920 0.0000 0.0000 0.0000
# 3 -4.8511 55.5920 85.9996 0.0000 0.0000 0.0000
# 4 0.0000 0.0000 0.0000 -7.4982 0.0000 0.0000
# 5 0.0000 0.0000 0.0000 0.0000 27.8474 0.0000
# 6 0.0000 0.0000 0.0000 0.0000 0.0000 20.0016
#
#
#
# Elastic Compliance Matrix: (Units=1/GPa)
#
#
# Indices 1 2 3 4 5 6 
#
# 1 0.007171 -0.001230 0.001200 0.000000 0.000000 0.000000
# 2 -0.001230 0.004483 -0.002967 0.000000 0.000000 0.000000
# 3 0.001200 -0.002967 0.013614 0.000000 0.000000 0.000000
# 4 0.000000 0.000000 0.000000 -0.133366 0.000000 0.000000
# 5 0.000000 0.000000 0.000000 0.000000 0.035910 0.000000
# 6 0.000000 0.000000 0.000000 0.000000 0.000000 0.049996
#
#
# Mechanical properties :
#
#
# Convention : Reuss Voigt Hill
#
# Bulk Modulus (GPa) = 51.88927 75.35804 63.62366
# Shear Modulus (GPa) = -511.56169 35.72962 -237.91603
#
# Velocity S-wave (km/s) = -13.91967 3.67870 -9.49275
# Velocity P-wave (km/s) = 15.44959 6.82540 9.80060
#
# Compressibility (1/GPa) = 0.01927181
#
# Stress axis : x y z
#
# Youngs Moduli (GPa) = 139.45357 223.08572 73.45590
#
# Poissons Ratio (x) = 0.27450 -0.08814
# Poissons Ratio (y) = 0.17159 0.21795
# Poissons Ratio (z) = -0.16733 0.66191
#
# Static dielectric constant tensor:
#      x y z
#    x 2.086010 0.000000 0.000000 
#    y 0.000000 2.231910 0.000000 
#    z 0.000000 0.000000 2.080480 
# 
# From -- ./inp_files/19927.got.cif
#   From: 2010.05.17/outbox.cif.g08.bks.cpg/sg74_10_cif.got.tgz:19927.got - 2010.06.03 17:57:02.
