data_PCOD9534706
_publ_section_title
;
Structure prediction by ZEFSAII (Michael W. Deem and Ramdas Pophale) SiO2 
 PCOD9534706
Probable space group: I M M A
;
_chemical_formula_sum "Si O2"
_cell_formula_units_Z 64
_cell_length_a 21.364048
_cell_length_b 8.521720
_cell_length_c 20.235471
_cell_angle_alpha 90.000000
_cell_angle_beta 90.000000
_cell_angle_gamma 90.000000
_cell_volume 3684.038184
_symmetry_space_group_name_H-M "I M M A"
_symmetry_group_IT_number 74
_symmetry_cell_setting 'orthorhombic'
loop_
_space_group_symop_operation_xyz
x,y,z
-x,1/2-y,z
x,-y,-z
-x,1/2+y,-z
-x,-y,-z
x,1/2+y,-z
-x,y,z
x,1/2-y,z
1/2+x,1/2+y,1/2+z
1/2-x,-y,1/2+z
1/2+x,1/2-y,1/2-z
1/2-x,y,1/2-z
1/2-x,1/2-y,1/2-z
1/2+x,y,1/2-z
1/2-x,1/2+y,1/2+z
1/2+x,-y,1/2+z
loop_
_atom_site_type_symbol
_atom_site_label
_atom_site_fract_x
_atom_site_fract_y
_atom_site_fract_z
Si Si1 0.620505 0.562035 0.070283
Si Si2 0.930682 0.941403 0.289131
Si Si3 0.310352 0.560106 0.294154
Si Si4 0.237597 0.563332 0.929789
O O1 0.620705 0.750000 0.068220
O O2 0.583186 0.510707 0.135282
O O3 0.692138 0.505128 0.077932
O O4 0.596540 0.500000 0.000000
O O5 0.929819 0.750000 0.288650
O O6 0.873637 0.991904 0.242541
O O7 0.000000 0.992626 0.268670
O O8 0.310403 0.750000 0.298165
O O9 0.250000 0.515053 0.250000
O O10 0.301822 0.491969 0.366987
O O11 0.241571 0.750000 0.932242
O O12 0.213316 0.500000 0.000000
#
# Coordination Sequence:
#
# PCOD9534706 Si02
#       4
#    16  16  16  16
#     4  10  18  31  49  73 104 139 177 210 251 299
#     4   9  18  32  51  74 103 139 175 208 251 308
#     4  10  18  33  55  78 103 135 172 212 257 302
#     4  11  21  33  52  78 106 134 171 214 262 305
#
# _framework density 17.372240999999999
#
# number of rings (size 3 to 8) (size 9 to 14) (size 15 to 20)
#    0.000    2.000    2.500    4.500    0.000    1.000 
#    0.000    0.000    0.000    6.750    0.000    0.000 
#    0.000    0.000    0.000    0.000    0.000    0.000 
#
# Total GULP energy -178594.408005 kJ/mol
# GULP energy per Si atom -5581.075250 kJ/mol
# Density = 1.733270 g / cm^3
# Si number density = 17.372241 Si / 1000 Ang^3
#
#
#
# Elastic Constant Matrix: (Units=GPa)
#
#
# Indices 1 2 3 4 5 6 
#
# 1 113.9372 18.8906 71.2842 0.0000 0.0000 0.0000
# 2 18.8906 44.9400 27.3014 0.0000 0.0000 0.0000
# 3 71.2842 27.3014 137.4024 0.0000 0.0000 0.0000
# 4 0.0000 0.0000 0.0000 31.0332 0.0000 0.0000
# 5 0.0000 0.0000 0.0000 0.0000 22.1118 0.0000
# 6 0.0000 0.0000 0.0000 0.0000 0.0000 -8.6647
#
#
#
# Elastic Compliance Matrix: (Units=1/GPa)
#
#
# Indices 1 2 3 4 5 6 
#
# 1 0.013091 -0.001566 -0.006480 0.000000 0.000000 0.000000
# 2 -0.001566 0.025494 -0.004253 0.000000 0.000000 0.000000
# 3 -0.006480 -0.004253 0.011485 0.000000 0.000000 0.000000
# 4 0.000000 0.000000 0.000000 0.032224 0.000000 0.000000
# 5 0.000000 0.000000 0.000000 0.000000 0.045225 0.000000
# 6 0.000000 0.000000 0.000000 0.000000 0.000000 -0.115410
#
#
# Mechanical properties :
#
#
# Convention : Reuss Voigt Hill
#
# Bulk Modulus (GPa) = 39.26046 59.02575 49.14311
# Shear Modulus (GPa) = 110.62757 20.81629 65.72193
#
# Velocity S-wave (km/s) = 7.98867 3.46533 6.15741
# Velocity P-wave (km/s) = 10.37981 7.07546 8.88264
#
# Compressibility (1/GPa) = 0.02547092
#
# Stress axis : x y z
#
# Youngs Moduli (GPa) = 76.38966 39.22498 87.07023
#
# Poissons Ratio (x) = 0.06142 0.56425
# Poissons Ratio (y) = 0.11962 0.37033
# Poissons Ratio (z) = 0.49503 0.16683
#
# Static dielectric constant tensor:
#      x y z
#    x 1.585830 0.000000 0.000000 
#    y 0.000000 1.588390 0.000000 
#    z 0.000000 0.000000 1.591710 
# 
# From -- ./inp_files/39073.got.cif
#   From: 2010.05.17/outbox.cif.g08.bks.cpg/sg74_20_cif.got.tgz:39073.got - 2010.06.03 17:57:02.
