data_PCOD9534794
_publ_section_title
;
Structure prediction by ZEFSAII (Michael W. Deem and Ramdas Pophale) SiO2 
 PCOD9534794
Probable space group: I M M A
;
_chemical_formula_sum "Si O2"
_cell_formula_units_Z 88
_cell_length_a 16.663029
_cell_length_b 19.795097
_cell_length_c 14.608782
_cell_angle_alpha 90.000000
_cell_angle_beta 90.000000
_cell_angle_gamma 90.000000
_cell_volume 4818.652330
_symmetry_space_group_name_H-M "I M M A"
_symmetry_group_IT_number 74
_symmetry_cell_setting 'orthorhombic'
loop_
_space_group_symop_operation_xyz
x,y,z
-x,1/2-y,z
x,-y,-z
-x,1/2+y,-z
-x,-y,-z
x,1/2+y,-z
-x,y,z
x,1/2-y,z
1/2+x,1/2+y,1/2+z
1/2-x,-y,1/2+z
1/2+x,1/2-y,1/2-z
1/2-x,y,1/2-z
1/2-x,1/2-y,1/2-z
1/2+x,y,1/2-z
1/2-x,1/2+y,1/2+z
1/2+x,-y,1/2+z
loop_
_atom_site_type_symbol
_atom_site_label
_atom_site_fract_x
_atom_site_fract_y
_atom_site_fract_z
Si Si1 0.332881 0.892496 0.307870
Si Si2 0.593397 0.250000 0.725094
Si Si3 0.092413 0.475472 0.651559
Si Si4 0.313449 0.611855 0.832096
Si Si5 0.225382 0.603855 0.461345
Si Si6 0.154857 0.750000 0.429546
Si Si7 0.406312 0.250000 0.132386
O O1 0.250000 0.893088 0.250000
O O2 0.365646 0.817070 0.312833
O O3 0.393661 0.935523 0.246751
O O4 0.304488 0.918601 0.406534
O O5 0.500000 0.250000 0.704492
O O6 0.606611 0.250000 0.834993
O O7 0.123019 0.550942 0.669393
O O8 0.150229 0.439683 0.576771
O O9 0.000000 0.472481 0.623366
O O10 0.250000 0.607191 0.750000
O O11 0.359855 0.683260 0.833431
O O12 0.269632 0.602689 0.929982
O O13 0.206417 0.681502 0.433492
O O14 0.101596 0.750000 0.521440
O O15 0.500000 0.250000 0.157578
#
# Coordination Sequence:
#
# PCOD9534794 Si02
#       7
#    16   8  16  16  16   8   8
#     4  10  19  33  52  79 116 151 177 210 263 332
#     4  12  19  28  52  81 118 150 174 210 262 328
#     4  11  22  35  56  87 116 140 175 226 282 332
#     4  11  23  40  60  80 105 145 191 231 274 321
#     4  10  21  35  57  81 112 152 182 223 268 324
#     4  10  18  31  53  85 117 143 176 212 270 328
#     4  10  22  38  58  83 110 136 176 238 290 320
#
# _framework density 18.262367000000001
#
# number of rings (size 3 to 8) (size 9 to 14) (size 15 to 20)
#    0.000    1.455    3.636    4.636    0.000    4.364 
#    0.000    0.000    0.000    6.545    0.000    0.000 
#    0.000    0.000    0.000    0.000    0.000    0.000 
#
# Total GULP energy -245714.408593 kJ/mol
# GULP energy per Si atom -5584.418377 kJ/mol
# Density = 1.822080 g / cm^3
# Si number density = 18.262367 Si / 1000 Ang^3
#
#
#
# Elastic Constant Matrix: (Units=GPa)
#
#
# Indices 1 2 3 4 5 6 
#
# 1 67.6451 19.5662 50.4497 0.0000 0.0000 0.0000
# 2 19.5662 108.6873 32.8061 0.0000 0.0000 0.0000
# 3 50.4497 32.8061 115.4218 0.0000 0.0000 0.0000
# 4 0.0000 0.0000 0.0000 -2.1391 0.0000 0.0000
# 5 0.0000 0.0000 0.0000 0.0000 11.5797 0.0000
# 6 0.0000 0.0000 0.0000 0.0000 0.0000 25.5407
#
#
#
# Elastic Compliance Matrix: (Units=1/GPa)
#
#
# Indices 1 2 3 4 5 6 
#
# 1 0.022066 -0.001161 -0.009315 0.000000 0.000000 0.000000
# 2 -0.001161 0.010125 -0.002370 0.000000 0.000000 0.000000
# 3 -0.009315 -0.002370 0.013409 0.000000 0.000000 0.000000
# 4 0.000000 0.000000 0.000000 -0.467480 0.000000 0.000000
# 5 0.000000 0.000000 0.000000 0.000000 0.086358 0.000000
# 6 0.000000 0.000000 0.000000 0.000000 0.000000 0.039153
#
#
# Mechanical properties :
#
#
# Convention : Reuss Voigt Hill
#
# Bulk Modulus (GPa) = 50.23146 55.26647 52.74896
# Shear Modulus (GPa) = -18.93645 19.59173 0.32764
#
# Velocity S-wave (km/s) = -3.22360 3.27890 0.42402
# Velocity P-wave (km/s) = 3.70266 6.68305 5.40244
#
# Compressibility (1/GPa) = 0.01990784
#
# Stress axis : x y z
#
# Youngs Moduli (GPa) = 45.31913 98.76367 74.57661
#
# Poissons Ratio (x) = 0.11464 0.69466
# Poissons Ratio (y) = 0.05261 0.17678
# Poissons Ratio (z) = 0.42214 0.23412
#
# Static dielectric constant tensor:
#      x y z
#    x 1.601710 0.000000 0.000000 
#    y 0.000000 1.647560 0.000000 
#    z 0.000000 0.000000 1.646250 
# 
# From -- ./inp_files/32238.got.cif
#   From: 2010.05.17/outbox.cif.g08.bks.cpg/sg74_17_cif.got.tgz:32238.got - 2010.06.03 17:57:02.
