data_PCOD9534971
_publ_section_title
;
Structure prediction by ZEFSAII (Michael W. Deem and Ramdas Pophale) SiO2 
 PCOD9534971
Probable space group: I M M A
;
_chemical_formula_sum "Si O2"
_cell_formula_units_Z 64
_cell_length_a 14.591969
_cell_length_b 10.201873
_cell_length_c 16.032899
_cell_angle_alpha 90.000000
_cell_angle_beta 90.000000
_cell_angle_gamma 90.000000
_cell_volume 2386.744156
_symmetry_space_group_name_H-M "I M M A"
_symmetry_group_IT_number 74
_symmetry_cell_setting 'orthorhombic'
loop_
_space_group_symop_operation_xyz
x,y,z
-x,1/2-y,z
x,-y,-z
-x,1/2+y,-z
-x,-y,-z
x,1/2+y,-z
-x,y,z
x,1/2-y,z
1/2+x,1/2+y,1/2+z
1/2-x,-y,1/2+z
1/2+x,1/2-y,1/2-z
1/2-x,y,1/2-z
1/2-x,1/2-y,1/2-z
1/2+x,y,1/2-z
1/2-x,1/2+y,1/2+z
1/2+x,-y,1/2+z
loop_
_atom_site_type_symbol
_atom_site_label
_atom_site_fract_x
_atom_site_fract_y
_atom_site_fract_z
Si Si1 0.358033 0.250000 0.746416
Si Si2 0.388279 0.610257 0.938874
Si Si3 0.604780 0.459347 0.240259
Si Si4 0.387602 0.575968 0.571092
Si Si5 0.390612 0.750000 0.448587
O O1 0.250000 0.250000 0.750000
O O2 0.395410 0.114279 0.781190
O O3 0.376432 0.250000 0.649709
O O4 0.500000 0.601430 0.937220
O O5 0.361923 0.750000 0.975470
O O6 0.355384 0.602052 0.843959
O O7 0.351674 0.500000 0.000000
O O8 0.500000 0.412076 0.244969
O O9 0.646058 0.437691 0.332051
O O10 0.500000 0.567106 0.578306
O O11 0.370923 0.750000 0.558131
O O12 0.365373 0.411930 0.536219
O O13 0.500000 0.750000 0.453143
#
# Coordination Sequence:
#
# PCOD9534971 Si02
#       5
#     8  16  16  16   8
#     4  12  24  36  54  79 120 164 209 248 288 357
#     4   9  19  34  56  87 120 153 197 255 312 361
#     4  10  20  35  59  87 117 152 197 251 316 369
#     4   9  16  27  50  84 115 144 179 230 296 370
#     4  10  18  32  56  87 121 150 188 241 309 372
#
# _framework density 26.814771
#
# number of rings (size 3 to 8) (size 9 to 14) (size 15 to 20)
#    0.000    2.250    2.500    1.125    3.500    0.000 
#    0.000    0.000    5.500    0.750    0.000    0.000 
#    0.000    0.000    0.000    0.000    0.000    0.000 
#
# Total GULP energy -178502.121076 kJ/mol
# GULP energy per Si atom -5578.191284 kJ/mol
# Density = 2.675374 g / cm^3
# Si number density = 26.814771 Si / 1000 Ang^3
#
#
#
# Elastic Constant Matrix: (Units=GPa)
#
#
# Indices 1 2 3 4 5 6 
#
# 1 84.8698 -11.2412 -11.5478 0.0000 0.0000 0.0000
# 2 -11.2412 221.3448 77.5192 0.0000 0.0000 0.0000
# 3 -11.5478 77.5192 159.3356 0.0000 0.0000 0.0000
# 4 0.0000 0.0000 0.0000 52.8767 0.0000 0.0000
# 5 0.0000 0.0000 0.0000 0.0000 -198.1046 0.0000
# 6 0.0000 0.0000 0.0000 0.0000 0.0000 -26.2003
#
#
#
# Elastic Compliance Matrix: (Units=1/GPa)
#
#
# Indices 1 2 3 4 5 6 
#
# 1 0.011925 0.000365 0.000687 0.000000 0.000000 0.000000
# 2 0.000365 0.005457 -0.002628 0.000000 0.000000 0.000000
# 3 0.000687 -0.002628 0.007605 0.000000 0.000000 0.000000
# 4 0.000000 0.000000 0.000000 0.018912 0.000000 0.000000
# 5 0.000000 0.000000 0.000000 0.000000 -0.005048 0.000000
# 6 0.000000 0.000000 0.000000 0.000000 0.000000 -0.038168
#
#
# Mechanical properties :
#
#
# Convention : Reuss Voigt Hill
#
# Bulk Modulus (GPa) = 45.80295 63.89008 54.84652
# Shear Modulus (GPa) = 449.90272 -6.89765 221.50254
#
# Velocity S-wave (km/s) = 12.96711 -1.60559 9.09857
# Velocity P-wave (km/s) = 15.53425 4.52117 11.44014
#
# Compressibility (1/GPa) = 0.02183265
#
# Stress axis : x y z
#
# Youngs Moduli (GPa) = 83.86072 183.25426 131.49968
#
# Poissons Ratio (x) = -0.06691 -0.09029
# Poissons Ratio (y) = -0.03062 0.34563
# Poissons Ratio (z) = -0.05758 0.48167
#
# Static dielectric constant tensor:
#      x y z
#    x 1.942630 0.000000 0.000000 
#    y 0.000000 2.574100 0.000000 
#    z 0.000000 0.000000 1.943380 
# 
# From -- ./inp_files/53600.got.cif
#   From: 2010.05.17/outbox.cif.g08.bks.cpg/sg74_27_cif.got.tgz:53600.got - 2010.06.03 17:57:02.
