data_PCOD9534982
_publ_section_title
;
Structure prediction by ZEFSAII (Michael W. Deem and Ramdas Pophale) SiO2 
 PCOD9534982
Probable space group: I M M A
;
_chemical_formula_sum "Si O2"
_cell_formula_units_Z 80
_cell_length_a 12.030620
_cell_length_b 18.868273
_cell_length_c 20.437615
_cell_angle_alpha 90.000000
_cell_angle_beta 90.000000
_cell_angle_gamma 90.000000
_cell_volume 4639.277752
_symmetry_space_group_name_H-M "I M M A"
_symmetry_group_IT_number 74
_symmetry_cell_setting 'orthorhombic'
loop_
_space_group_symop_operation_xyz
x,y,z
-x,1/2-y,z
x,-y,-z
-x,1/2+y,-z
-x,-y,-z
x,1/2+y,-z
-x,y,z
x,1/2-y,z
1/2+x,1/2+y,1/2+z
1/2-x,-y,1/2+z
1/2+x,1/2-y,1/2-z
1/2-x,y,1/2-z
1/2-x,1/2-y,1/2-z
1/2+x,y,1/2-z
1/2-x,1/2+y,1/2+z
1/2+x,-y,1/2+z
loop_
_atom_site_type_symbol
_atom_site_label
_atom_site_fract_x
_atom_site_fract_y
_atom_site_fract_z
Si Si1 0.730200 0.832640 0.029179
Si Si2 0.867912 0.964863 0.427513
Si Si3 0.000000 0.332350 0.453587
Si Si4 0.500000 0.335208 0.194116
Si Si5 0.130885 0.166776 0.099095
Si Si6 0.796504 0.072809 0.314787
O O1 0.732548 0.750000 0.051503
O O2 0.714491 0.896997 0.079397
O O3 0.614147 0.844751 0.990199
O O4 0.827195 0.842662 0.975945
O O5 0.000000 0.947302 0.424995
O O6 0.848374 0.000000 0.500000
O O7 0.843370 0.018419 0.368422
O O8 0.000000 0.361312 0.381625
O O9 0.000000 0.250000 0.440796
O O10 0.500000 0.250000 0.202826
O O11 0.386922 0.372202 0.215864
O O12 0.150689 0.250000 0.114508
O O13 0.206379 0.118692 0.145138
O O14 0.000000 0.152377 0.105496
O O15 0.750000 0.035101 0.250000
#
# Coordination Sequence:
#
# PCOD9534982 Si02
#       6
#    16  16   8   8  16  16
#     4  10  18  32  57  89 115 136 178 238 288 329
#     4  11  20  35  60  87 111 144 186 234 291 336
#     4   9  14  25  51  85 111 128 163 229 287 315
#     4  11  20  35  57  79 107 152 195 231 271 319
#     4  10  21  36  53  76 113 157 191 221 266 333
#     4  12  25  38  52  79 119 151 191 232 278 333
#
# _framework density 17.244063000000001
#
# number of rings (size 3 to 8) (size 9 to 14) (size 15 to 20)
#    0.000    1.400    6.000    0.600    1.400    1.600 
#    0.000    2.000    0.000    0.600    0.000    0.000 
#    0.000    0.000    0.000    0.000    0.000    0.000 
#
# Total GULP energy -222716.542845 kJ/mol
# GULP energy per Si atom -5567.913571 kJ/mol
# Density = 1.720481 g / cm^3
# Si number density = 17.244063 Si / 1000 Ang^3
#
#
#
# Elastic Constant Matrix: (Units=GPa)
#
#
# Indices 1 2 3 4 5 6 
#
# 1 65.0184 29.8296 13.7086 0.0000 0.0000 0.0000
# 2 29.8296 106.6037 38.8817 0.0000 0.0000 0.0000
# 3 13.7086 38.8817 59.0364 0.0000 0.0000 0.0000
# 4 0.0000 0.0000 0.0000 15.7240 0.0000 0.0000
# 5 0.0000 0.0000 0.0000 0.0000 13.7777 0.0000
# 6 0.0000 0.0000 0.0000 0.0000 0.0000 9.3074
#
#
#
# Elastic Compliance Matrix: (Units=1/GPa)
#
#
# Indices 1 2 3 4 5 6 
#
# 1 0.017701 -0.004546 -0.001116 0.000000 0.000000 0.000000
# 2 -0.004546 0.013514 -0.007845 0.000000 0.000000 0.000000
# 3 -0.001116 -0.007845 0.022364 0.000000 0.000000 0.000000
# 4 0.000000 0.000000 0.000000 0.063597 0.000000 0.000000
# 5 0.000000 0.000000 0.000000 0.000000 0.072581 0.000000
# 6 0.000000 0.000000 0.000000 0.000000 0.000000 0.107441
#
#
# Mechanical properties :
#
#
# Convention : Reuss Voigt Hill
#
# Bulk Modulus (GPa) = 37.64270 43.94425 40.79348
# Shear Modulus (GPa) = 15.01196 17.64440 16.32818
#
# Velocity S-wave (km/s) = 2.95372 3.20225 3.08049
# Velocity P-wave (km/s) = 5.78873 6.26191 6.02996
#
# Compressibility (1/GPa) = 0.02656557
#
# Stress axis : x y z
#
# Youngs Moduli (GPa) = 56.49320 73.99873 44.71386
#
# Poissons Ratio (x) = 0.33639 0.04992
# Poissons Ratio (y) = 0.25681 0.35076
# Poissons Ratio (z) = 0.06307 0.58049
#
# Static dielectric constant tensor:
#      x y z
#    x 1.634410 0.000000 0.000000 
#    y 0.000000 1.636570 0.000000 
#    z 0.000000 0.000000 1.749470 
# 
# From -- ./inp_files/50461.got.cif
#   From: 2010.05.17/outbox.cif.g08.bks.cpg/sg74_26_cif.got.tgz:50461.got - 2010.06.03 17:57:02.
