data_PCOD9534730
_publ_section_title
;
Structure prediction by ZEFSAII (Michael W. Deem and Ramdas Pophale) SiO2 
 PCOD9534730
Probable space group: I M M A
;
_chemical_formula_sum "Si O2"
_cell_formula_units_Z 104
_cell_length_a 7.858165
_cell_length_b 24.001481
_cell_length_c 29.286380
_cell_angle_alpha 90.000000
_cell_angle_beta 90.000000
_cell_angle_gamma 90.000000
_cell_volume 5523.633784
_symmetry_space_group_name_H-M "I M M A"
_symmetry_group_IT_number 74
_symmetry_cell_setting 'orthorhombic'
loop_
_space_group_symop_operation_xyz
x,y,z
-x,1/2-y,z
x,-y,-z
-x,1/2+y,-z
-x,-y,-z
x,1/2+y,-z
-x,y,z
x,1/2-y,z
1/2+x,1/2+y,1/2+z
1/2-x,-y,1/2+z
1/2+x,1/2-y,1/2-z
1/2-x,y,1/2-z
1/2-x,1/2-y,1/2-z
1/2+x,y,1/2-z
1/2-x,1/2+y,1/2+z
1/2+x,-y,1/2+z
loop_
_atom_site_type_symbol
_atom_site_label
_atom_site_fract_x
_atom_site_fract_y
_atom_site_fract_z
Si Si1 0.704166 0.136138 0.644555
Si Si2 0.292412 0.444776 0.048389
Si Si3 0.704450 0.084563 0.144905
Si Si4 0.794927 0.925214 0.448012
Si Si5 0.705845 0.250000 0.695253
Si Si6 0.797442 0.472379 0.802805
Si Si7 0.205139 0.690348 0.697085
O O1 0.500000 0.138240 0.648661
O O2 0.737970 0.116871 0.591957
O O3 0.765229 0.194529 0.667161
O O4 0.771694 0.084379 0.674746
O O5 0.500000 0.446096 0.046564
O O6 0.233046 0.413672 0.093224
O O7 0.242223 0.509549 0.057179
O O8 0.238517 0.416942 0.000713
O O9 0.500000 0.089289 0.143130
O O10 0.775323 0.136110 0.172894
O O11 0.740099 0.026178 0.169172
O O12 0.000000 0.923932 0.446397
O O13 0.500000 0.250000 0.693959
O O14 0.750000 0.250000 0.750000
O O15 0.750000 0.477102 0.750000
O O16 0.000000 0.470031 0.806014
O O17 0.265786 0.750000 0.678739
O O18 0.250000 0.687741 0.750000
O O19 0.000000 0.689695 0.693435
#
# Coordination Sequence:
#
# PCOD9534730 Si02
#       7
#    16  16  16  16   8  16  16
#     4  10  21  36  53  75 102 133 169 213 261 307
#     4   8  15  28  49  77 103 130 161 197 243 294
#     4  10  18  31  51  72  98 131 163 200 248 293
#     4   9  16  30  53  76 101 131 165 200 242 302
#     4  10  22  40  58  76 102 138 180 222 267 320
#     4  11  22  33  47  72 103 129 161 203 250 302
#     4   9  18  31  47  67  91 124 163 197 232 279
#
# _framework density 18.828185000000001
#
# number of rings (size 3 to 8) (size 9 to 14) (size 15 to 20)
#    0.000    2.462    1.538    2.308    0.000    3.077 
#    0.000    2.308    1.692    0.000    0.000    0.000 
#    0.000    0.000    0.000    0.000    0.000    0.000 
#
# Total GULP energy -289624.045264 kJ/mol
# GULP energy per Si atom -5569.693178 kJ/mol
# Density = 1.878533 g / cm^3
# Si number density = 18.828185 Si / 1000 Ang^3
#
#
#
# Elastic Constant Matrix: (Units=GPa)
#
#
# Indices 1 2 3 4 5 6 
#
# 1 20.3697 9.2331 2.6544 0.0000 0.0000 0.0000
# 2 9.2331 133.3295 91.7629 0.0000 0.0000 0.0000
# 3 2.6544 91.7629 164.8411 0.0000 0.0000 0.0000
# 4 0.0000 0.0000 0.0000 61.1406 0.0000 0.0000
# 5 0.0000 0.0000 0.0000 0.0000 19.4336 0.0000
# 6 0.0000 0.0000 0.0000 0.0000 0.0000 15.6765
#
#
#
# Elastic Compliance Matrix: (Units=1/GPa)
#
#
# Indices 1 2 3 4 5 6 
#
# 1 0.051032 -0.004812 0.001857 0.000000 0.000000 0.000000
# 2 -0.004812 0.012612 -0.006943 0.000000 0.000000 0.000000
# 3 0.001857 -0.006943 0.009902 0.000000 0.000000 0.000000
# 4 0.000000 0.000000 0.000000 0.016356 0.000000 0.000000
# 5 0.000000 0.000000 0.000000 0.000000 0.051457 0.000000
# 6 0.000000 0.000000 0.000000 0.000000 0.000000 0.063790
#
#
# Mechanical properties :
#
#
# Convention : Reuss Voigt Hill
#
# Bulk Modulus (GPa) = 18.60506 58.42679 38.51592
# Shear Modulus (GPa) = 20.58789 33.57616 27.08202
#
# Velocity S-wave (km/s) = 3.31034 4.22749 3.79671
# Velocity P-wave (km/s) = 4.95117 7.41133 6.30245
#
# Compressibility (1/GPa) = 0.05374882
#
# Stress axis : x y z
#
# Youngs Moduli (GPa) = 19.59565 79.28835 100.99205
#
# Poissons Ratio (x) = 0.38153 -0.18754
# Poissons Ratio (y) = 0.09429 0.70123
# Poissons Ratio (z) = -0.03639 0.55053
#
# Static dielectric constant tensor:
#      x y z
#    x 1.698170 0.000000 0.000000 
#    y 0.000000 1.667660 0.000000 
#    z 0.000000 0.000000 1.666070 
# 
# From -- ./inp_files/70796.got.cif
#   From: 2010.05.17/outbox.cif.g08.bks.cpg/sg74_36_cif.got.tgz:70796.got - 2010.06.03 17:57:02.
