data_PCOD9534171
_publ_section_title
;
Structure prediction by ZEFSAII (Michael W. Deem and Ramdas Pophale) SiO2 
 PCOD9534171
Probable space group: I M M A
;
_chemical_formula_sum "Si O2"
_cell_formula_units_Z 112
_cell_length_a 14.195339
_cell_length_b 14.146636
_cell_length_c 33.801548
_cell_angle_alpha 90.000000
_cell_angle_beta 90.000000
_cell_angle_gamma 90.000000
_cell_volume 6787.901592
_symmetry_space_group_name_H-M "I M M A"
_symmetry_group_IT_number 74
_symmetry_cell_setting 'orthorhombic'
loop_
_space_group_symop_operation_xyz
x,y,z
-x,1/2-y,z
x,-y,-z
-x,1/2+y,-z
-x,-y,-z
x,1/2+y,-z
-x,y,z
x,1/2-y,z
1/2+x,1/2+y,1/2+z
1/2-x,-y,1/2+z
1/2+x,1/2-y,1/2-z
1/2-x,y,1/2-z
1/2-x,1/2-y,1/2-z
1/2+x,y,1/2-z
1/2-x,1/2+y,1/2+z
1/2+x,-y,1/2+z
loop_
_atom_site_type_symbol
_atom_site_label
_atom_site_fract_x
_atom_site_fract_y
_atom_site_fract_z
Si Si1 0.610476 0.865133 0.527358
Si Si2 0.114716 0.140809 0.265091
Si Si3 0.892949 0.634893 0.647055
Si Si4 0.386100 0.543933 0.684703
Si Si5 0.614944 0.857589 0.354592
Si Si6 0.610053 0.635098 0.441193
Si Si7 0.206055 0.364387 0.108088
O O1 0.500000 0.890211 0.530274
O O2 0.614144 0.750000 0.527590
O O3 0.648006 0.895215 0.484030
O O4 0.663644 0.898722 0.566506
O O5 0.143853 0.250000 0.261589
O O6 0.139268 0.104413 0.308883
O O7 0.147344 0.085306 0.226454
O O8 0.000000 0.140271 0.264912
O O9 0.895165 0.750000 0.648566
O O10 0.814314 0.607083 0.615581
O O11 0.000000 0.603381 0.639406
O O12 0.500000 0.548789 0.684790
O O13 0.357856 0.435393 0.677308
O O14 0.351071 0.601369 0.646481
O O15 0.500000 0.856011 0.356543
O O16 0.645266 0.750000 0.347056
O O17 0.649171 0.891027 0.398171
O O18 0.500000 0.607544 0.441558
O O19 0.611882 0.750000 0.440712
O O20 0.201856 0.250000 0.107652
#
# Coordination Sequence:
#
# PCOD9534171 Si02
#       7
#    16  16  16  16  16  16  16
#     4   8  13  21  33  51  78 108 130 149 179 219
#     4   8  14  25  39  54  75 102 128 155 188 224
#     4   8  15  28  42  54  71  98 132 165 191 219
#     4  10  18  25  35  55  81 104 128 157 187 222
#     4   8  14  25  39  53  72 102 137 165 185 210
#     4   7  10  19  35  50  67  99 136 160 180 208
#     4  10  18  25  36  55  78 103 129 156 188 226
#
# _framework density 16.499945
#
# number of rings (size 3 to 8) (size 9 to 14) (size 15 to 20)
#    0.000    3.571    0.000    3.429    0.000    2.000 
#    0.000    2.857    0.000    3.429    0.000    2.000 
#    0.000    4.000    0.000    4.143    0.000    0.286 
#
# Total GULP energy -311741.542376 kJ/mol
# GULP energy per Si atom -5566.813257 kJ/mol
# Density = 1.646239 g / cm^3
# Si number density = 16.499945 Si / 1000 Ang^3
#
#
#
# Elastic Constant Matrix: (Units=GPa)
#
#
# Indices 1 2 3 4 5 6 
#
# 1 42.3586 1.1857 24.8626 0.0000 0.0000 0.0000
# 2 1.1857 45.4825 20.0038 0.0000 0.0000 0.0000
# 3 24.8626 20.0038 90.1278 0.0000 0.0000 0.0000
# 4 0.0000 0.0000 0.0000 5.6961 0.0000 0.0000
# 5 0.0000 0.0000 0.0000 0.0000 1.3479 0.0000
# 6 0.0000 0.0000 0.0000 0.0000 0.0000 4.2650
#
#
#
# Elastic Compliance Matrix: (Units=1/GPa)
#
#
# Indices 1 2 3 4 5 6 
#
# 1 0.028537 0.003012 -0.008541 0.000000 0.000000 0.000000
# 2 0.003012 0.024683 -0.006309 0.000000 0.000000 0.000000
# 3 -0.008541 -0.006309 0.014852 0.000000 0.000000 0.000000
# 4 0.000000 0.000000 0.000000 0.175559 0.000000 0.000000
# 5 0.000000 0.000000 0.000000 0.000000 0.741898 0.000000
# 6 0.000000 0.000000 0.000000 0.000000 0.000000 0.234464
#
#
# Mechanical properties :
#
#
# Convention : Reuss Voigt Hill
#
# Bulk Modulus (GPa) = 22.52455 30.00811 26.26633
# Shear Modulus (GPa) = 3.97309 11.05626 7.51467
#
# Velocity S-wave (km/s) = 1.55344 2.59140 2.13641
# Velocity P-wave (km/s) = 4.11078 5.21345 4.69460
#
# Compressibility (1/GPa) = 0.04439599
#
# Stress axis : x y z
#
# Youngs Moduli (GPa) = 35.04262 40.51389 67.33214
#
# Poissons Ratio (x) = -0.12204 0.57506
# Poissons Ratio (y) = -0.10556 0.42482
# Poissons Ratio (z) = 0.29929 0.25562
#
# Static dielectric constant tensor:
#      x y z
#    x 1.555470 0.000000 0.000000 
#    y 0.000000 1.589330 0.000000 
#    z 0.000000 0.000000 1.584230 
# 
# From -- ./inp_files/72653.got.cif
#   From: 2010.05.17/outbox.cif.g08.bks.cpg/sg74_37_cif.got.tgz:72653.got - 2010.06.03 17:57:02.
