data_PCOD9534243
_publ_section_title
;
Structure prediction by ZEFSAII (Michael W. Deem and Ramdas Pophale) SiO2 
 PCOD9534243
Probable space group: I M M A
;
_chemical_formula_sum "Si O2"
_cell_formula_units_Z 72
_cell_length_a 16.399299
_cell_length_b 20.370163
_cell_length_c 10.061075
_cell_angle_alpha 90.000000
_cell_angle_beta 90.000000
_cell_angle_gamma 90.000000
_cell_volume 3360.966431
_symmetry_space_group_name_H-M "I M M A"
_symmetry_group_IT_number 74
_symmetry_cell_setting 'orthorhombic'
loop_
_space_group_symop_operation_xyz
x,y,z
-x,1/2-y,z
x,-y,-z
-x,1/2+y,-z
-x,-y,-z
x,1/2+y,-z
-x,y,z
x,1/2-y,z
1/2+x,1/2+y,1/2+z
1/2-x,-y,1/2+z
1/2+x,1/2-y,1/2-z
1/2-x,y,1/2-z
1/2-x,1/2-y,1/2-z
1/2+x,y,1/2-z
1/2-x,1/2+y,1/2+z
1/2+x,-y,1/2+z
loop_
_atom_site_type_symbol
_atom_site_label
_atom_site_fract_x
_atom_site_fract_y
_atom_site_fract_z
Si Si1 0.677892 0.653289 0.343429
Si Si2 0.000000 0.986724 0.344158
Si Si3 0.500000 0.172073 0.389893
Si Si4 0.000000 0.648887 0.191946
Si Si5 0.138297 0.499608 0.145985
Si Si6 0.816944 0.142945 0.146586
O O1 0.750000 0.674984 0.250000
O O2 0.589657 0.678612 0.295928
O O3 0.672352 0.572982 0.336020
O O4 0.692584 0.669873 0.497280
O O5 0.078758 0.013981 0.268459
O O6 0.000000 0.911055 0.295663
O O7 0.000000 0.000000 0.500000
O O8 0.500000 0.250000 0.419513
O O9 0.500000 0.133805 0.531854
O O10 0.586954 0.156180 0.321300
O O11 0.195479 0.436180 0.136635
O O12 0.096801 0.500000 0.000000
O O13 0.750000 0.168228 0.250000
#
# Coordination Sequence:
#
# PCOD9534243 Si02
#       6
#    16   8   8   8  16  16
#     4   9  17  31  51  76 109 147 181 209 253 333
#     4  10  18  27  47  81 113 140 176 220 265 320
#     4  10  21  39  60  76  99 146 200 241 282 333
#     4   8  18  34  50  73 106 142 181 219 265 331
#     4   9  17  30  47  71 112 155 179 200 254 339
#     4  10  20  33  53  81 108 138 178 231 285 328
#
# _framework density 21.422409999999999
#
# number of rings (size 3 to 8) (size 9 to 14) (size 15 to 20)
#    0.000    2.667    0.000    3.000    0.000    5.778 
#    0.000    2.222    0.000   10.667    0.000   21.778 
#    0.000    0.000    0.000    0.000    0.000    0.000 
#
# Total GULP energy -200471.896639 kJ/mol
# GULP energy per Si atom -5568.663796 kJ/mol
# Density = 2.137365 g / cm^3
# Si number density = 21.422410 Si / 1000 Ang^3
#
#
#
# Elastic Constant Matrix: (Units=GPa)
#
#
# Indices 1 2 3 4 5 6 
#
# 1 182.4608 14.6518 89.4205 0.0000 0.0000 0.0000
# 2 14.6518 121.7723 23.6508 0.0000 0.0000 0.0000
# 3 89.4205 23.6508 155.0828 0.0000 0.0000 0.0000
# 4 0.0000 0.0000 0.0000 -19.4301 0.0000 0.0000
# 5 0.0000 0.0000 0.0000 0.0000 45.3531 0.0000
# 6 0.0000 0.0000 0.0000 0.0000 0.0000 -0.5868
#
#
#
# Elastic Compliance Matrix: (Units=1/GPa)
#
#
# Indices 1 2 3 4 5 6 
#
# 1 0.007640 -0.000066 -0.004395 0.000000 0.000000 0.000000
# 2 -0.000066 0.008463 -0.001253 0.000000 0.000000 0.000000
# 3 -0.004395 -0.001253 0.009173 0.000000 0.000000 0.000000
# 4 0.000000 0.000000 0.000000 -0.051466 0.000000 0.000000
# 5 0.000000 0.000000 0.000000 0.000000 0.022049 0.000000
# 6 0.000000 0.000000 0.000000 0.000000 0.000000 -1.704099
#
#
# Mechanical properties :
#
#
# Convention : Reuss Voigt Hill
#
# Bulk Modulus (GPa) = 72.20525 79.41802 75.81163
# Shear Modulus (GPa) = -2.95474 27.17342 12.10934
#
# Velocity S-wave (km/s) = -1.17570 3.56541 2.38011
# Velocity P-wave (km/s) = 5.65116 7.35543 6.55889
#
# Compressibility (1/GPa) = 0.01384941
#
# Stress axis : x y z
#
# Youngs Moduli (GPa) = 130.89231 118.15758 109.01012
#
# Poissons Ratio (x) = 0.00775 0.47911
# Poissons Ratio (y) = 0.00859 0.13657
# Poissons Ratio (z) = 0.57529 0.14803
#
# Static dielectric constant tensor:
#      x y z
#    x 1.825670 0.000000 0.000000 
#    y 0.000000 1.834750 0.000000 
#    z 0.000000 0.000000 1.733580 
# 
# From -- ./inp_files/10729.got.cif
#   From: 2010.05.17/outbox.cif.g08.bks.cpg/sg74_6_cif.got.tgz:10729.got - 2010.06.03 17:57:02.
