data_PCOD9534021
_publ_section_title
;
Structure prediction by ZEFSAII (Michael W. Deem and Ramdas Pophale) SiO2 
 PCOD9534021
Probable space group: I M M A
;
_chemical_formula_sum "Si O2"
_cell_formula_units_Z 88
_cell_length_a 21.579824
_cell_length_b 16.858731
_cell_length_c 10.363108
_cell_angle_alpha 90.000000
_cell_angle_beta 90.000000
_cell_angle_gamma 90.000000
_cell_volume 3770.186236
_symmetry_space_group_name_H-M "I M M A"
_symmetry_group_IT_number 74
_symmetry_cell_setting 'orthorhombic'
loop_
_space_group_symop_operation_xyz
x,y,z
-x,1/2-y,z
x,-y,-z
-x,1/2+y,-z
-x,-y,-z
x,1/2+y,-z
-x,y,z
x,1/2-y,z
1/2+x,1/2+y,1/2+z
1/2-x,-y,1/2+z
1/2+x,1/2-y,1/2-z
1/2-x,y,1/2-z
1/2-x,1/2-y,1/2-z
1/2+x,y,1/2-z
1/2-x,1/2+y,1/2+z
1/2+x,-y,1/2+z
loop_
_atom_site_type_symbol
_atom_site_label
_atom_site_fract_x
_atom_site_fract_y
_atom_site_fract_z
Si Si1 0.285194 0.417224 0.998024
Si Si2 0.372560 0.914493 0.751000
Si Si3 0.870887 0.588087 0.240107
Si Si4 0.500000 0.580052 0.909108
Si Si5 0.803791 0.750000 0.492475
Si Si6 0.825602 0.250000 0.229900
Si Si7 0.176947 0.250000 0.783053
Si Si8 0.500000 0.342127 0.830342
O O1 0.329754 0.418284 0.872065
O O2 0.261410 0.327878 0.994759
O O3 0.249064 0.500000 0.000000
O O4 0.324003 0.417903 0.130038
O O5 0.439568 0.914315 0.819453
O O6 0.353570 0.833014 0.679132
O O7 0.367984 0.999964 0.681475
O O8 0.845058 0.665261 0.165897
O O9 0.940116 0.611708 0.277974
O O10 0.500000 0.500000 0.000000
O O11 0.500000 0.649075 0.015321
O O12 0.846094 0.750000 0.618488
O O13 0.847351 0.750000 0.367246
O O14 0.750000 0.250000 0.250000
O O15 0.250000 0.250000 0.750000
O O16 0.500000 0.250000 0.790922
#
# Coordination Sequence:
#
# PCOD9534021 Si02
#       8
#    16  16  16   8   8   8   8   8
#     4   8  13  22  37  58  82 113 145 177 212 275
#     4  10  18  28  43  63  94 125 160 198 239 283
#     4  10  17  28  41  62  92 126 152 184 235 291
#     4  12  18  26  44  76 106 131 158 196 240 328
#     4   8  16  28  44  57  80 111 152 198 240 264
#     4  10  22  35  46  63  89 132 184 215 233 273
#     4  10  20  31  44  65  89 120 166 203 239 293
#     4  12  20  24  42  69 105 130 155 180 236 313
#
# _framework density 23.341021999999999
#
# number of rings (size 3 to 8) (size 9 to 14) (size 15 to 20)
#    0.000    2.182    4.545    0.545    1.273    0.727 
#    0.000    0.000    0.000    0.000    0.000    0.000 
#    0.000    2.909    0.000    3.455    0.000    0.000 
#
# Total GULP energy -245083.079605 kJ/mol
# GULP energy per Si atom -5570.069991 kJ/mol
# Density = 2.328790 g / cm^3
# Si number density = 23.341022 Si / 1000 Ang^3
#
#
#
# Elastic Constant Matrix: (Units=GPa)
#
#
# Indices 1 2 3 4 5 6 
#
# 1 121.9879 63.0633 17.2677 0.0000 0.0000 0.0000
# 2 63.0633 329.0628 1.8442 0.0000 0.0000 0.0000
# 3 17.2677 1.8442 22.4700 0.0000 0.0000 0.0000
# 4 0.0000 0.0000 0.0000 -52.4663 0.0000 0.0000
# 5 0.0000 0.0000 0.0000 0.0000 35.8949 0.0000
# 6 0.0000 0.0000 0.0000 0.0000 0.0000 5.3194
#
#
#
# Elastic Compliance Matrix: (Units=1/GPa)
#
#
# Indices 1 2 3 4 5 6 
#
# 1 0.010292 -0.001929 -0.007751 0.000000 0.000000 0.000000
# 2 -0.001929 0.003402 0.001203 0.000000 0.000000 0.000000
# 3 -0.007751 0.001203 0.050361 0.000000 0.000000 0.000000
# 4 0.000000 0.000000 0.000000 -0.019060 0.000000 0.000000
# 5 0.000000 0.000000 0.000000 0.000000 0.027859 0.000000
# 6 0.000000 0.000000 0.000000 0.000000 0.000000 0.187992
#
#
# Mechanical properties :
#
#
# Convention : Reuss Voigt Hill
#
# Bulk Modulus (GPa) = 21.23056 70.87459 46.05257
# Shear Modulus (GPa) = 17.03576 23.83928 20.43752
#
# Velocity S-wave (km/s) = 2.70453 3.19932 2.96227
# Velocity P-wave (km/s) = 4.34375 6.63915 5.61010
#
# Compressibility (1/GPa) = 0.04710192
#
# Stress axis : x y z
#
# Youngs Moduli (GPa) = 97.16409 293.95644 19.85651
#
# Poissons Ratio (x) = 0.56703 0.15390
# Poissons Ratio (y) = 0.18742 -0.02389
# Poissons Ratio (z) = 0.75310 -0.35367
#
# Static dielectric constant tensor:
#      x y z
#    x 1.679260 0.000000 0.000000 
#    y 0.000000 2.056010 0.000000 
#    z 0.000000 0.000000 1.960010 
# 
# From -- ./inp_files/34150.got.cif
#   From: 2010.05.17/outbox.cif.g08.bks.cpg/sg74_18_cif.got.tgz:34150.got - 2010.06.03 17:57:02.
