data_PCOD9534478
_publ_section_title
;
Structure prediction by ZEFSAII (Michael W. Deem and Ramdas Pophale) SiO2 
 PCOD9534478
Probable space group: I M M A
;
_chemical_formula_sum "Si O2"
_cell_formula_units_Z 104
_cell_length_a 25.096337
_cell_length_b 23.922021
_cell_length_c 9.243245
_cell_angle_alpha 90.000000
_cell_angle_beta 90.000000
_cell_angle_gamma 90.000000
_cell_volume 5549.229283
_symmetry_space_group_name_H-M "I M M A"
_symmetry_group_IT_number 74
_symmetry_cell_setting 'orthorhombic'
loop_
_space_group_symop_operation_xyz
x,y,z
-x,1/2-y,z
x,-y,-z
-x,1/2+y,-z
-x,-y,-z
x,1/2+y,-z
-x,y,z
x,1/2-y,z
1/2+x,1/2+y,1/2+z
1/2-x,-y,1/2+z
1/2+x,1/2-y,1/2-z
1/2-x,y,1/2-z
1/2-x,1/2-y,1/2-z
1/2+x,y,1/2-z
1/2-x,1/2+y,1/2+z
1/2+x,-y,1/2+z
loop_
_atom_site_type_symbol
_atom_site_label
_atom_site_fract_x
_atom_site_fract_y
_atom_site_fract_z
Si Si1 0.108938 0.630181 0.024755
Si Si2 0.373915 0.750000 0.795095
Si Si3 0.187470 0.636533 0.777996
Si Si4 0.062904 0.377385 0.671944
Si Si5 0.062279 0.750000 0.976511
Si Si6 0.938879 0.534187 0.865761
Si Si7 0.378172 0.946185 0.919867
Si Si8 0.939778 0.750000 0.424972
O O1 0.097438 0.607643 0.185589
O O2 0.165509 0.623385 0.941332
O O3 0.091872 0.694637 0.030014
O O4 0.068646 0.598149 0.916493
O O5 0.339773 0.695568 0.758863
O O6 0.426527 0.750000 0.695009
O O7 0.393816 0.750000 0.957109
O O8 0.250000 0.639451 0.750000
O O9 0.163535 0.591708 0.666162
O O10 0.087838 0.408144 0.531867
O O11 0.064861 0.309772 0.654485
O O12 0.000000 0.391897 0.690283
O O13 0.000000 0.750000 0.014024
O O14 0.914724 0.528852 0.708066
O O15 0.000000 0.518049 0.857076
O O16 0.913537 0.500000 0.000000
O O17 0.354476 0.000000 0.000000
O O18 0.000000 0.750000 0.486923
#
# Coordination Sequence:
#
# PCOD9534478 Si02
#       8
#    16   8  16  16   8  16  16   8
#     4  10  21  35  55  83 115 151 192 238 285 343
#     4  10  18  36  61  87 113 149 190 248 294 352
#     4  10  22  42  64  84 109 150 206 257 304 344
#     4  11  21  35  57  87 127 160 188 230 293 372
#     4  10  18  29  52  83 118 150 183 220 276 353
#     4  10  20  35  55  80 113 152 194 236 285 351
#     4  11  23  38  57  83 115 152 196 246 300 362
#     4  10  20  33  55  90 130 165 188 226 295 369
#
# _framework density 18.741342
#
# number of rings (size 3 to 8) (size 9 to 14) (size 15 to 20)
#    0.000    1.692    1.538    3.692    0.000    3.077 
#    0.000    5.385    0.000    0.923    0.000    0.000 
#    0.000    0.000    0.000    0.000    0.000    0.000 
#
# Total GULP energy -289909.790397 kJ/mol
# GULP energy per Si atom -5575.188277 kJ/mol
# Density = 1.869869 g / cm^3
# Si number density = 18.741342 Si / 1000 Ang^3
#
#
#
# Elastic Constant Matrix: (Units=GPa)
#
#
# Indices 1 2 3 4 5 6 
#
# 1 93.4054 8.1279 53.5928 0.0000 0.0000 0.0000
# 2 8.1279 89.4368 27.1531 0.0000 0.0000 0.0000
# 3 53.5928 27.1531 125.3068 0.0000 0.0000 0.0000
# 4 0.0000 0.0000 0.0000 23.4906 0.0000 0.0000
# 5 0.0000 0.0000 0.0000 0.0000 17.3441 0.0000
# 6 0.0000 0.0000 0.0000 0.0000 0.0000 -13.6968
#
#
#
# Elastic Compliance Matrix: (Units=1/GPa)
#
#
# Indices 1 2 3 4 5 6 
#
# 1 0.014217 0.000593 -0.006209 0.000000 0.000000 0.000000
# 2 0.000593 0.011993 -0.002852 0.000000 0.000000 0.000000
# 3 -0.006209 -0.002852 0.011254 0.000000 0.000000 0.000000
# 4 0.000000 0.000000 0.000000 0.042570 0.000000 0.000000
# 5 0.000000 0.000000 0.000000 0.000000 0.057656 0.000000
# 6 0.000000 0.000000 0.000000 0.000000 0.000000 -0.073010
#
#
# Mechanical properties :
#
#
# Convention : Reuss Voigt Hill
#
# Bulk Modulus (GPa) = 48.71550 53.98848 51.35199
# Shear Modulus (GPa) = 56.52264 20.04594 38.28429
#
# Velocity S-wave (km/s) = 5.49771 3.27404 4.52461
# Velocity P-wave (km/s) = 8.14554 6.56979 7.39973
#
# Compressibility (1/GPa) = 0.02052735
#
# Stress axis : x y z
#
# Youngs Moduli (GPa) = 70.33875 83.38056 88.85683
#
# Poissons Ratio (x) = -0.04945 0.55171
# Poissons Ratio (y) = -0.04171 0.25346
# Poissons Ratio (z) = 0.43673 0.23784
#
# Static dielectric constant tensor:
#      x y z
#    x 1.600880 0.000000 0.000000 
#    y 0.000000 1.708170 0.000000 
#    z 0.000000 0.000000 1.686630 
# 
# From -- ./inp_files/15425.got.cif
#   From: 2010.05.17/outbox.cif.g08.bks.cpg/sg74_8_cif.got.tgz:15425.got - 2010.06.03 17:57:02.
