data_PCOD9534049
_publ_section_title
;
Structure prediction by ZEFSAII (Michael W. Deem and Ramdas Pophale) SiO2 
 PCOD9534049
Probable space group: I M M A
;
_chemical_formula_sum "Si O2"
_cell_formula_units_Z 56
_cell_length_a 10.912612
_cell_length_b 8.107115
_cell_length_c 26.725888
_cell_angle_alpha 90.000000
_cell_angle_beta 90.000000
_cell_angle_gamma 90.000000
_cell_volume 2364.433978
_symmetry_space_group_name_H-M "I M M A"
_symmetry_group_IT_number 74
_symmetry_cell_setting 'orthorhombic'
loop_
_space_group_symop_operation_xyz
x,y,z
-x,1/2-y,z
x,-y,-z
-x,1/2+y,-z
-x,-y,-z
x,1/2+y,-z
-x,y,z
x,1/2-y,z
1/2+x,1/2+y,1/2+z
1/2-x,-y,1/2+z
1/2+x,1/2-y,1/2-z
1/2-x,y,1/2-z
1/2-x,1/2-y,1/2-z
1/2+x,y,1/2-z
1/2-x,1/2+y,1/2+z
1/2+x,-y,1/2+z
loop_
_atom_site_type_symbol
_atom_site_label
_atom_site_fract_x
_atom_site_fract_y
_atom_site_fract_z
Si Si1 0.500000 0.571652 0.076155
Si Si2 0.724406 0.562865 0.446963
Si Si3 0.779766 0.058035 0.164258
Si Si4 0.500000 0.930925 0.823045
Si Si5 0.872157 0.750000 0.219312
O O1 0.500000 0.750000 0.104603
O O2 0.627264 0.568902 0.047828
O O3 0.500000 0.428253 0.116309
O O4 0.674244 0.500000 0.500000
O O5 0.682248 0.750000 0.437748
O O6 0.706967 0.460244 0.396030
O O7 0.800938 0.250000 0.177785
O O8 0.640853 0.009690 0.183151
O O9 0.865197 0.918198 0.187418
O O10 0.500000 0.750000 0.799497
O O11 0.750000 0.750000 0.250000
O O12 0.000000 0.750000 0.248741
#
# Coordination Sequence:
#
# PCOD9534049 Si02
#       5
#     8  16  16   8   8
#     4   8  15  23  37  70 128 185 231 280 335 386
#     4  10  17  28  50  90 137 190 239 286 339 414
#     4  10  21  41  68 102 144 190 233 297 357 421
#     4   8  16  29  57  96 133 181 231 275 344 416
#     4  12  30  52  78 110 138 182 238 298 365 436
#
# _framework density 23.684317
#
# number of rings (size 3 to 8) (size 9 to 14) (size 15 to 20)
#    0.000    2.286    1.429    1.286    4.000    2.286 
#    0.000    4.286    0.000    0.857    0.000    0.000 
#    0.000    0.000    0.000    0.000    0.000    0.000 
#
# Total GULP energy -155924.141127 kJ/mol
# GULP energy per Si atom -5568.719326 kJ/mol
# Density = 2.363041 g / cm^3
# Si number density = 23.684317 Si / 1000 Ang^3
#
#
#
# Elastic Constant Matrix: (Units=GPa)
#
#
# Indices 1 2 3 4 5 6 
#
# 1 93.1548 36.5915 27.6851 0.0000 0.0000 0.0000
# 2 36.5915 149.1644 37.1946 0.0000 0.0000 0.0000
# 3 27.6851 37.1946 56.7209 0.0000 0.0000 0.0000
# 4 0.0000 0.0000 0.0000 17.2654 0.0000 0.0000
# 5 0.0000 0.0000 0.0000 0.0000 3.3922 0.0000
# 6 0.0000 0.0000 0.0000 0.0000 0.0000 -76.7533
#
#
#
# Elastic Compliance Matrix: (Units=1/GPa)
#
#
# Indices 1 2 3 4 5 6 
#
# 1 0.013001 -0.001921 -0.005086 0.000000 0.000000 0.000000
# 2 -0.001921 0.008298 -0.004504 0.000000 0.000000 0.000000
# 3 -0.005086 -0.004504 0.023066 0.000000 0.000000 0.000000
# 4 0.000000 0.000000 0.000000 0.057919 0.000000 0.000000
# 5 0.000000 0.000000 0.000000 0.000000 0.294790 0.000000
# 6 0.000000 0.000000 0.000000 0.000000 0.000000 -0.013029
#
#
# Mechanical properties :
#
#
# Convention : Reuss Voigt Hill
#
# Bulk Modulus (GPa) = 46.85285 55.77583 51.31434
# Shear Modulus (GPa) = 12.07198 1.95213 7.01206
#
# Velocity S-wave (km/s) = 2.26011 0.90886 1.72252
# Velocity P-wave (km/s) = 5.16101 4.97013 5.06647
#
# Compressibility (1/GPa) = 0.02134342
#
# Stress axis : x y z
#
# Youngs Moduli (GPa) = 76.91755 120.50600 43.35378
#
# Poissons Ratio (x) = 0.23150 0.22049
# Poissons Ratio (y) = 0.14776 0.19526
# Poissons Ratio (z) = 0.39120 0.54275
#
# Static dielectric constant tensor:
#      x y z
#    x 1.910400 0.000000 0.000000 
#    y 0.000000 1.622400 0.000000 
#    z 0.000000 0.000000 1.890130 
# 
# From -- ./inp_files/71226.got.cif
#   From: 2010.05.17/outbox.cif.g08.bks.cpg/sg74_36_cif.got.tgz:71226.got - 2010.06.03 17:57:02.
