data_PCOD9534866
_publ_section_title
;
Structure prediction by ZEFSAII (Michael W. Deem and Ramdas Pophale) SiO2 
 PCOD9534866
Probable space group: I M M A
;
_chemical_formula_sum "Si O2"
_cell_formula_units_Z 104
_cell_length_a 28.505794
_cell_length_b 8.704567
_cell_length_c 24.623260
_cell_angle_alpha 90.000000
_cell_angle_beta 90.000000
_cell_angle_gamma 90.000000
_cell_volume 6109.784124
_symmetry_space_group_name_H-M "I M M A"
_symmetry_group_IT_number 74
_symmetry_cell_setting 'orthorhombic'
loop_
_space_group_symop_operation_xyz
x,y,z
-x,1/2-y,z
x,-y,-z
-x,1/2+y,-z
-x,-y,-z
x,1/2+y,-z
-x,y,z
x,1/2-y,z
1/2+x,1/2+y,1/2+z
1/2-x,-y,1/2+z
1/2+x,1/2-y,1/2-z
1/2-x,y,1/2-z
1/2-x,1/2-y,1/2-z
1/2+x,y,1/2-z
1/2-x,1/2+y,1/2+z
1/2+x,-y,1/2+z
loop_
_atom_site_type_symbol
_atom_site_label
_atom_site_fract_x
_atom_site_fract_y
_atom_site_fract_z
Si Si1 0.231063 0.571311 0.812310
Si Si2 0.500000 0.934616 0.938443
Si Si3 0.862587 0.435316 0.234395
Si Si4 0.172256 0.063101 0.354827
Si Si5 0.946228 0.932882 0.170492
Si Si6 0.598335 0.434115 0.938859
Si Si7 0.442940 0.574176 0.556161
O O1 0.225873 0.750000 0.828117
O O2 0.250000 0.570762 0.750000
O O3 0.179089 0.504180 0.805364
O O4 0.273353 0.509541 0.849287
O O5 0.500000 0.750000 0.938644
O O6 0.450840 0.997863 0.915413
O O7 0.500000 0.000000 0.000000
O O8 0.861579 0.250000 0.231573
O O9 0.850873 0.475750 0.296487
O O10 0.911897 0.495997 0.214401
O O11 0.171922 0.250000 0.359970
O O12 0.141614 0.989131 0.402108
O O13 0.945599 0.750000 0.173888
O O14 0.000000 0.986289 0.177420
O O15 0.930102 0.983722 0.110411
O O16 0.595253 0.250000 0.941057
O O17 0.603552 0.500000 0.000000
O O18 0.426273 0.500000 0.500000
O O19 0.500000 0.572818 0.554054
O O20 0.427610 0.750000 0.560445
#
# Coordination Sequence:
#
# PCOD9534866 Si02
#       7
#    16   8  16  16  16  16  16
#     4   7  12  26  50  75  96 119 153 197 242 287
#     4  10  18  32  52  72  96 128 168 208 251 298
#     4   9  17  31  52  75  98 129 167 206 249 299
#     4   9  17  32  53  77 101 127 163 206 251 304
#     4  10  20  32  45  65  98 136 167 199 241 289
#     4  11  21  34  52  75 103 135 171 212 257 305
#     4   9  16  27  45  67  89 116 154 197 235 276
#
# _framework density 17.021878000000001
#
# number of rings (size 3 to 8) (size 9 to 14) (size 15 to 20)
#    0.000    2.769    0.000    5.769    0.000    3.385 
#    1.385    0.769    0.000    3.692    0.000    4.308 
#    0.000    0.000    0.000    0.000    0.000    0.000 
#
# Total GULP energy -289533.793594 kJ/mol
# GULP energy per Si atom -5567.957569 kJ/mol
# Density = 1.698314 g / cm^3
# Si number density = 17.021878 Si / 1000 Ang^3
#
#
#
# Elastic Constant Matrix: (Units=GPa)
#
#
# Indices 1 2 3 4 5 6 
#
# 1 96.0324 32.2129 48.3351 0.0000 0.0000 0.0000
# 2 32.2129 58.5112 28.6207 0.0000 0.0000 0.0000
# 3 48.3351 28.6207 60.3231 0.0000 0.0000 0.0000
# 4 0.0000 0.0000 0.0000 23.5376 0.0000 0.0000
# 5 0.0000 0.0000 0.0000 0.0000 25.7293 0.0000
# 6 0.0000 0.0000 0.0000 0.0000 0.0000 13.8561
#
#
#
# Elastic Compliance Matrix: (Units=1/GPa)
#
#
# Indices 1 2 3 4 5 6 
#
# 1 0.018055 -0.003729 -0.012698 0.000000 0.000000 0.000000
# 2 -0.003729 0.023026 -0.007937 0.000000 0.000000 0.000000
# 3 -0.012698 -0.007937 0.030517 0.000000 0.000000 0.000000
# 4 0.000000 0.000000 0.000000 0.042485 0.000000 0.000000
# 5 0.000000 0.000000 0.000000 0.000000 0.038866 0.000000
# 6 0.000000 0.000000 0.000000 0.000000 0.000000 0.072170
#
#
# Mechanical properties :
#
#
# Convention : Reuss Voigt Hill
#
# Bulk Modulus (GPa) = 43.72306 48.13379 45.92842
# Shear Modulus (GPa) = 17.76381 19.67113 18.71747
#
# Velocity S-wave (km/s) = 3.23396 3.40316 3.31964
# Velocity P-wave (km/s) = 6.29975 6.61672 6.46018
#
# Compressibility (1/GPa) = 0.02287123
#
# Stress axis : x y z
#
# Youngs Moduli (GPa) = 55.38637 43.42906 32.76823
#
# Poissons Ratio (x) = 0.16195 0.41608
# Poissons Ratio (y) = 0.20653 0.26008
# Poissons Ratio (z) = 0.70328 0.34469
#
# Static dielectric constant tensor:
#      x y z
#    x 1.618820 0.000000 0.000000 
#    y 0.000000 1.575650 0.000000 
#    z 0.000000 0.000000 1.563200 
# 
# From -- ./inp_files/62354.got.cif
#   From: 2010.05.17/outbox.cif.g08.bks.cpg/sg74_32_cif.got.tgz:62354.got - 2010.06.03 17:57:02.
