data_PCOD9534998
_publ_section_title
;
Structure prediction by ZEFSAII (Michael W. Deem and Ramdas Pophale) SiO2 
 PCOD9534998
Probable space group: I M M A
;
_chemical_formula_sum "Si O2"
_cell_formula_units_Z 64
_cell_length_a 12.137804
_cell_length_b 18.414364
_cell_length_c 17.291254
_cell_angle_alpha 90.000000
_cell_angle_beta 90.000000
_cell_angle_gamma 90.000000
_cell_volume 3864.767162
_symmetry_space_group_name_H-M "I M M A"
_symmetry_group_IT_number 74
_symmetry_cell_setting 'orthorhombic'
loop_
_space_group_symop_operation_xyz
x,y,z
-x,1/2-y,z
x,-y,-z
-x,1/2+y,-z
-x,-y,-z
x,1/2+y,-z
-x,y,z
x,1/2-y,z
1/2+x,1/2+y,1/2+z
1/2-x,-y,1/2+z
1/2+x,1/2-y,1/2-z
1/2-x,y,1/2-z
1/2-x,1/2-y,1/2-z
1/2+x,y,1/2-z
1/2-x,1/2+y,1/2+z
1/2+x,-y,1/2+z
loop_
_atom_site_type_symbol
_atom_site_label
_atom_site_fract_x
_atom_site_fract_y
_atom_site_fract_z
Si Si1 0.730258 0.954913 0.160502
Si Si2 0.500000 0.668541 0.957284
Si Si3 0.000000 0.513125 0.594149
Si Si4 0.261876 0.333924 0.965683
Si Si5 0.874152 0.060920 0.068065
O O1 0.750000 0.939673 0.250000
O O2 0.608317 0.979661 0.133442
O O3 0.809969 0.021184 0.136466
O O4 0.756376 0.883882 0.109183
O O5 0.500000 0.750000 0.922995
O O6 0.500000 0.600586 0.899574
O O7 0.389985 0.662088 0.009017
O O8 0.000000 0.500000 0.500000
O O9 0.233110 0.250000 0.953578
O O10 0.191414 0.370802 0.034058
O O11 0.000000 0.078292 0.086844
O O12 0.873492 0.000000 0.000000
#
# Coordination Sequence:
#
# PCOD9534998 Si02
#       5
#    16   8   8  16  16
#     4  11  22  33  54  86 116 144 180 233 287 330
#     4  10  18  32  60  86 102 132 194 248 268 305
#     4  12  18  38  62  80 107 150 201 234 262 330
#     4  10  19  34  56  81 109 145 186 230 277 330
#     4   9  18  34  53  74 102 142 189 224 260 325
#
# _framework density 16.559858999999999
#
# number of rings (size 3 to 8) (size 9 to 14) (size 15 to 20)
#    0.000    1.750    5.000    0.750    1.750    1.000 
#    0.000    0.000    0.000    3.000    0.000    0.000 
#    0.000    0.000    0.000    0.000    0.000    0.000 
#
# Total GULP energy -178393.901272 kJ/mol
# GULP energy per Si atom -5574.809415 kJ/mol
# Density = 1.652217 g / cm^3
# Si number density = 16.559859 Si / 1000 Ang^3
#
#
#
# Elastic Constant Matrix: (Units=GPa)
#
#
# Indices 1 2 3 4 5 6 
#
# 1 114.9433 40.6495 29.4102 0.0000 0.0000 0.0000
# 2 40.6495 150.2136 45.3862 0.0000 0.0000 0.0000
# 3 29.4102 45.3862 42.8975 0.0000 0.0000 0.0000
# 4 0.0000 0.0000 0.0000 16.2083 0.0000 0.0000
# 5 0.0000 0.0000 0.0000 0.0000 16.0953 0.0000
# 6 0.0000 0.0000 0.0000 0.0000 0.0000 17.6516
#
#
#
# Elastic Compliance Matrix: (Units=1/GPa)
#
#
# Indices 1 2 3 4 5 6 
#
# 1 0.010651 -0.000994 -0.006251 0.000000 0.000000 0.000000
# 2 -0.000994 0.009878 -0.009770 0.000000 0.000000 0.000000
# 3 -0.006251 -0.009770 0.037934 0.000000 0.000000 0.000000
# 4 0.000000 0.000000 0.000000 0.061697 0.000000 0.000000
# 5 0.000000 0.000000 0.000000 0.000000 0.062130 0.000000
# 6 0.000000 0.000000 0.000000 0.000000 0.000000 0.056652
#
#
# Mechanical properties :
#
#
# Convention : Reuss Voigt Hill
#
# Bulk Modulus (GPa) = 40.92707 59.88291 50.40499
# Shear Modulus (GPa) = 17.78638 22.83161 20.30899
#
# Velocity S-wave (km/s) = 3.28085 3.71716 3.50580
# Velocity P-wave (km/s) = 6.25462 7.39344 6.84775
#
# Compressibility (1/GPa) = 0.02443371
#
# Stress axis : x y z
#
# Youngs Moduli (GPa) = 93.89061 101.23549 26.36190
#
# Poissons Ratio (x) = 0.10058 0.16478
# Poissons Ratio (y) = 0.09328 0.25755
# Poissons Ratio (z) = 0.58690 0.98906
#
# Static dielectric constant tensor:
#      x y z
#    x 1.568890 0.000000 0.000000 
#    y 0.000000 1.566940 0.000000 
#    z 0.000000 0.000000 1.534410 
# 
# From -- ./inp_files/30231.got.cif
#   From: 2010.05.17/outbox.cif.g08.bks.cpg/sg74_16_cif.got.tgz:30231.got - 2010.06.03 17:57:02.
