data_PCOD9534142
_publ_section_title
;
Structure prediction by ZEFSAII (Michael W. Deem and Ramdas Pophale) SiO2 
 PCOD9534142
Probable space group: I M M A
;
_chemical_formula_sum "Si O2"
_cell_formula_units_Z 60
_cell_length_a 15.264006
_cell_length_b 7.563065
_cell_length_c 21.265312
_cell_angle_alpha 90.000000
_cell_angle_beta 90.000000
_cell_angle_gamma 90.000000
_cell_volume 2454.924386
_symmetry_space_group_name_H-M "I M M A"
_symmetry_group_IT_number 74
_symmetry_cell_setting 'orthorhombic'
loop_
_space_group_symop_operation_xyz
x,y,z
-x,1/2-y,z
x,-y,-z
-x,1/2+y,-z
-x,-y,-z
x,1/2+y,-z
-x,y,z
x,1/2-y,z
1/2+x,1/2+y,1/2+z
1/2-x,-y,1/2+z
1/2+x,1/2-y,1/2-z
1/2-x,y,1/2-z
1/2-x,1/2-y,1/2-z
1/2+x,y,1/2-z
1/2-x,1/2+y,1/2+z
1/2+x,-y,1/2+z
loop_
_atom_site_type_symbol
_atom_site_label
_atom_site_fract_x
_atom_site_fract_y
_atom_site_fract_z
Si Si1 0.899835 0.462052 0.740653
Si Si2 0.000000 0.039089 0.927185
Si Si3 0.629726 0.943084 0.902707
Si Si4 0.500000 0.750000 0.054498
Si Si5 0.819351 0.464728 0.867818
O O1 0.890434 0.250000 0.731529
O O2 0.890392 0.544403 0.672191
O O3 0.831840 0.516054 0.794553
O O4 0.000000 0.492367 0.763011
O O5 0.909123 0.972931 0.899138
O O6 0.000000 0.250000 0.915046
O O7 0.000000 0.000000 0.000000
O O8 0.603417 0.750000 0.926630
O O9 0.575999 0.095490 0.935852
O O10 0.734233 0.966403 0.903204
O O11 0.814308 0.250000 0.868815
#
# Coordination Sequence:
#
# PCOD9534142 Si02
#       5
#    16   8  16   4  16
#     4  10  17  32  54  80 120 168 206 251 302 360
#     4  10  22  41  66  92 127 164 206 261 321 373
#     4  12  23  36  58  87 122 166 215 251 304 368
#     4  12  22  42  54  80 124 164 202 256 300 350
#     4  10  20  37  59  86 120 166 208 252 314 377
#
# _framework density 24.440670000000001
#
# number of rings (size 3 to 8) (size 9 to 14) (size 15 to 20)
#    0.000    1.333    5.333    1.200    0.000    5.333 
#    0.000    0.000    0.000    0.000    0.000    0.933 
#    0.000    0.000    0.000    0.000    0.000    0.000 
#
# Total GULP energy -167527.278377 kJ/mol
# GULP energy per Si atom -5584.242613 kJ/mol
# Density = 2.438504 g / cm^3
# Si number density = 24.440670 Si / 1000 Ang^3
#
#
#
# Elastic Constant Matrix: (Units=GPa)
#
#
# Indices 1 2 3 4 5 6 
#
# 1 190.7940 47.7018 27.2269 0.0000 0.0000 0.0000
# 2 47.7018 154.0246 18.1580 0.0000 0.0000 0.0000
# 3 27.2269 18.1580 80.6882 0.0000 0.0000 0.0000
# 4 0.0000 0.0000 0.0000 22.7249 0.0000 0.0000
# 5 0.0000 0.0000 0.0000 0.0000 8.4710 0.0000
# 6 0.0000 0.0000 0.0000 0.0000 0.0000 116.8990
#
#
#
# Elastic Compliance Matrix: (Units=1/GPa)
#
#
# Indices 1 2 3 4 5 6 
#
# 1 0.005880 -0.001630 -0.001617 0.000000 0.000000 0.000000
# 2 -0.001630 0.007121 -0.001052 0.000000 0.000000 0.000000
# 3 -0.001617 -0.001052 0.013176 0.000000 0.000000 0.000000
# 4 0.000000 0.000000 0.000000 0.044005 0.000000 0.000000
# 5 0.000000 0.000000 0.000000 0.000000 0.118050 0.000000
# 6 0.000000 0.000000 0.000000 0.000000 0.000000 0.008554
#
#
# Mechanical properties :
#
#
# Convention : Reuss Voigt Hill
#
# Bulk Modulus (GPa) = 56.89186 67.96448 62.42817
# Shear Modulus (GPa) = 23.66922 51.78032 37.72477
#
# Velocity S-wave (km/s) = 3.11535 4.60783 3.93303
# Velocity P-wave (km/s) = 6.02234 7.49519 6.79876
#
# Compressibility (1/GPa) = 0.01757721
#
# Stress axis : x y z
#
# Youngs Moduli (GPa) = 170.07891 140.42076 75.89610
#
# Poissons Ratio (x) = 0.22893 0.12273
# Poissons Ratio (y) = 0.27728 0.07988
# Poissons Ratio (z) = 0.27503 0.14779
#
# Static dielectric constant tensor:
#      x y z
#    x 1.932010 0.000000 0.000000 
#    y 0.000000 1.922750 0.000000 
#    z 0.000000 0.000000 1.947540 
# 
# From -- ./inp_files/66610.got.cif
#   From: 2010.05.17/outbox.cif.g08.bks.cpg/sg74_34_cif.got.tgz:66610.got - 2010.06.03 17:57:02.
