data_PCOD9534368
_publ_section_title
;
Structure prediction by ZEFSAII (Michael W. Deem and Ramdas Pophale) SiO2 
 PCOD9534368
Probable space group: I M M A
;
_chemical_formula_sum "Si O2"
_cell_formula_units_Z 96
_cell_length_a 14.935354
_cell_length_b 13.807789
_cell_length_c 27.210056
_cell_angle_alpha 90.000000
_cell_angle_beta 90.000000
_cell_angle_gamma 90.000000
_cell_volume 5611.372484
_symmetry_space_group_name_H-M "I M M A"
_symmetry_group_IT_number 74
_symmetry_cell_setting 'orthorhombic'
loop_
_space_group_symop_operation_xyz
x,y,z
-x,1/2-y,z
x,-y,-z
-x,1/2+y,-z
-x,-y,-z
x,1/2+y,-z
-x,y,z
x,1/2-y,z
1/2+x,1/2+y,1/2+z
1/2-x,-y,1/2+z
1/2+x,1/2-y,1/2-z
1/2-x,y,1/2-z
1/2-x,1/2-y,1/2-z
1/2+x,y,1/2-z
1/2-x,1/2+y,1/2+z
1/2+x,-y,1/2+z
loop_
_atom_site_type_symbol
_atom_site_label
_atom_site_fract_x
_atom_site_fract_y
_atom_site_fract_z
Si Si1 0.104000 0.862028 0.238472
Si Si2 0.136496 0.138292 0.868299
Si Si3 0.707157 0.865182 0.982595
Si Si4 0.157560 0.638422 0.342458
Si Si5 0.602916 0.976241 0.067610
Si Si6 0.099070 0.867310 0.022775
O O1 0.134615 0.750000 0.231705
O O2 0.109220 0.907034 0.184077
O O3 0.157356 0.897462 0.286080
O O4 0.000000 0.862158 0.253016
O O5 0.102869 0.250000 0.868207
O O6 0.243321 0.140771 0.864914
O O7 0.108111 0.096254 0.920764
O O8 0.700331 0.750000 0.976286
O O9 0.663188 0.927867 0.939118
O O10 0.649345 0.899824 0.030053
O O11 0.811321 0.891891 0.992569
O O12 0.123947 0.750000 0.342131
O O13 0.104573 0.569298 0.378553
O O14 0.500000 0.995402 0.054291
O O15 0.102154 0.750000 0.025637
O O16 0.000000 0.892759 0.003424
#
# Coordination Sequence:
#
# PCOD9534368 Si02
#       6
#    16  16  16  16  16  16
#     4   9  16  24  37  61  91 124 160 189 219 269
#     4   9  15  25  41  62  90 124 156 185 220 269
#     4  10  20  35  50  67  91 120 156 196 237 280
#     4  10  18  29  44  64  94 130 162 192 229 274
#     4  11  22  33  48  68  91 124 161 197 235 278
#     4   9  16  28  48  69  90 121 155 187 229 278
#
# _framework density 17.108114
#
# number of rings (size 3 to 8) (size 9 to 14) (size 15 to 20)
#    0.000    2.333    1.667    3.000    0.000    7.000 
#    0.000    1.667    0.000    0.000    0.000    0.000 
#    0.000    2.667    0.000    0.333    0.000    0.000 
#
# Total GULP energy -267276.048463 kJ/mol
# GULP energy per Si atom -5568.251010 kJ/mol
# Density = 1.706918 g / cm^3
# Si number density = 17.108114 Si / 1000 Ang^3
#
#
#
# Elastic Constant Matrix: (Units=GPa)
#
#
# Indices 1 2 3 4 5 6 
#
# 1 129.6403 22.8507 28.2581 0.0000 0.0000 0.0000
# 2 22.8507 72.0385 24.3229 0.0000 0.0000 0.0000
# 3 28.2581 24.3229 59.7252 0.0000 0.0000 0.0000
# 4 0.0000 0.0000 0.0000 15.8209 0.0000 0.0000
# 5 0.0000 0.0000 0.0000 0.0000 17.7230 0.0000
# 6 0.0000 0.0000 0.0000 0.0000 0.0000 -19.1639
#
#
#
# Elastic Compliance Matrix: (Units=1/GPa)
#
#
# Indices 1 2 3 4 5 6 
#
# 1 0.008757 -0.001599 -0.003492 0.000000 0.000000 0.000000
# 2 -0.001599 0.016386 -0.005917 0.000000 0.000000 0.000000
# 3 -0.003492 -0.005917 0.020805 0.000000 0.000000 0.000000
# 4 0.000000 0.000000 0.000000 0.063208 0.000000 0.000000
# 5 0.000000 0.000000 0.000000 0.000000 0.056424 0.000000
# 6 0.000000 0.000000 0.000000 0.000000 0.000000 -0.052181
#
#
# Mechanical properties :
#
#
# Convention : Reuss Voigt Hill
#
# Bulk Modulus (GPa) = 41.78323 45.80747 43.79535
# Shear Modulus (GPa) = 34.86966 15.27413 25.07190
#
# Velocity S-wave (km/s) = 4.51953 2.99122 3.83233
# Velocity P-wave (km/s) = 7.19104 6.22602 6.72586
#
# Compressibility (1/GPa) = 0.02393304
#
# Stress axis : x y z
#
# Youngs Moduli (GPa) = 114.19972 61.02656 48.06485
#
# Poissons Ratio (x) = 0.09755 0.16784
# Poissons Ratio (y) = 0.18255 0.28440
# Poissons Ratio (z) = 0.39879 0.36109
#
# Static dielectric constant tensor:
#      x y z
#    x 1.648070 0.000000 0.000000 
#    y 0.000000 1.579370 0.000000 
#    z 0.000000 0.000000 1.629200 
# 
# From -- ./inp_files/72597.got.cif
#   From: 2010.05.17/outbox.cif.g08.bks.cpg/sg74_37_cif.got.tgz:72597.got - 2010.06.03 17:57:02.
