data_PCOD9534815
_publ_section_title
;
Structure prediction by ZEFSAII (Michael W. Deem and Ramdas Pophale) SiO2 
 PCOD9534815
Probable space group: I M M A
;
_chemical_formula_sum "Si O2"
_cell_formula_units_Z 72
_cell_length_a 15.137165
_cell_length_b 13.965367
_cell_length_c 18.926324
_cell_angle_alpha 90.000000
_cell_angle_beta 90.000000
_cell_angle_gamma 90.000000
_cell_volume 4000.950410
_symmetry_space_group_name_H-M "I M M A"
_symmetry_group_IT_number 74
_symmetry_cell_setting 'orthorhombic'
loop_
_space_group_symop_operation_xyz
x,y,z
-x,1/2-y,z
x,-y,-z
-x,1/2+y,-z
-x,-y,-z
x,1/2+y,-z
-x,y,z
x,1/2-y,z
1/2+x,1/2+y,1/2+z
1/2-x,-y,1/2+z
1/2+x,1/2-y,1/2-z
1/2-x,y,1/2-z
1/2-x,1/2-y,1/2-z
1/2+x,y,1/2-z
1/2-x,1/2+y,1/2+z
1/2+x,-y,1/2+z
loop_
_atom_site_type_symbol
_atom_site_label
_atom_site_fract_x
_atom_site_fract_y
_atom_site_fract_z
Si Si1 0.303184 0.363142 0.177563
Si Si2 0.000000 0.432496 0.295770
Si Si3 0.826828 0.028118 0.081208
Si Si4 0.500000 0.866290 0.633659
Si Si5 0.000000 0.353651 0.716398
Si Si6 0.676856 0.141657 0.691878
O O1 0.292152 0.250000 0.170180
O O2 0.250000 0.390090 0.250000
O O3 0.406762 0.387256 0.181698
O O4 0.256683 0.415947 0.112870
O O5 0.000000 0.416040 0.210872
O O6 0.000000 0.543306 0.320527
O O7 0.912706 0.094462 0.094931
O O8 0.832306 0.932471 0.128731
O O9 0.819589 0.000000 0.000000
O O10 0.500000 0.750000 0.640354
O O11 0.085562 0.355421 0.765868
O O12 0.000000 0.250000 0.677740
O O13 0.698482 0.250000 0.667777
O O14 0.750000 0.113208 0.750000
#
# Coordination Sequence:
#
# PCOD9534815 Si02
#       6
#    16   8  16   8   8  16
#     4  11  22  38  63  91 122 163 212 260 308 364
#     4  12  20  37  65  94 125 155 206 269 315 356
#     4  12  24  39  58  87 128 166 197 251 314 376
#     4  12  23  38  62  93 126 162 206 254 315 377
#     4  10  18  31  55  83 114 147 185 241 295 353
#     4  10  20  36  57  80 108 150 201 246 291 352
#
# _framework density 17.995723999999999
#
# number of rings (size 3 to 8) (size 9 to 14) (size 15 to 20)
#    0.000    0.889    4.444    4.000    0.000    1.778 
#    0.000    1.667    0.000    0.000    0.000    3.111 
#    0.000    0.000    0.000    0.000    0.000    0.000 
#
# Total GULP energy -200987.563560 kJ/mol
# GULP energy per Si atom -5582.987877 kJ/mol
# Density = 1.795476 g / cm^3
# Si number density = 17.995724 Si / 1000 Ang^3
#
#
#
# Elastic Constant Matrix: (Units=GPa)
#
#
# Indices 1 2 3 4 5 6 
#
# 1 135.4744 8.1760 41.4562 0.0000 0.0000 0.0000
# 2 8.1760 104.7936 9.0841 0.0000 0.0000 0.0000
# 3 41.4562 9.0841 58.0053 0.0000 0.0000 0.0000
# 4 0.0000 0.0000 0.0000 8.5630 0.0000 0.0000
# 5 0.0000 0.0000 0.0000 0.0000 11.2683 0.0000
# 6 0.0000 0.0000 0.0000 0.0000 0.0000 58.3638
#
#
#
# Elastic Compliance Matrix: (Units=1/GPa)
#
#
# Indices 1 2 3 4 5 6 
#
# 1 0.009450 -0.000154 -0.006730 0.000000 0.000000 0.000000
# 2 -0.000154 0.009676 -0.001405 0.000000 0.000000 0.000000
# 3 -0.006730 -0.001405 0.022270 0.000000 0.000000 0.000000
# 4 0.000000 0.000000 0.000000 0.116781 0.000000 0.000000
# 5 0.000000 0.000000 0.000000 0.000000 0.088745 0.000000
# 6 0.000000 0.000000 0.000000 0.000000 0.000000 0.017134
#
#
# Mechanical properties :
#
#
# Convention : Reuss Voigt Hill
#
# Bulk Modulus (GPa) = 40.29354 46.18954 43.24154
# Shear Modulus (GPa) = 17.30660 31.60950 24.45805
#
# Velocity S-wave (km/s) = 3.10450 4.19561 3.69060
# Velocity P-wave (km/s) = 5.94052 7.01381 6.49936
#
# Compressibility (1/GPa) = 0.02481787
#
# Stress axis : x y z
#
# Youngs Moduli (GPa) = 105.81846 103.34418 44.90404
#
# Poissons Ratio (x) = 0.01591 0.30220
# Poissons Ratio (y) = 0.01629 0.06311
# Poissons Ratio (z) = 0.71215 0.14524
#
# Static dielectric constant tensor:
#      x y z
#    x 1.636790 0.000000 0.000000 
#    y 0.000000 1.669650 0.000000 
#    z 0.000000 0.000000 1.570260 
# 
# From -- ./inp_files/42555.got.cif
#   From: 2010.05.17/outbox.cif.g08.bks.cpg/sg74_22_cif.got.tgz:42555.got - 2010.06.03 17:57:02.
