data_PCOD9534283
_publ_section_title
;
Structure prediction by ZEFSAII (Michael W. Deem and Ramdas Pophale) SiO2 
 PCOD9534283
Probable space group: I M M A
;
_chemical_formula_sum "Si O2"
_cell_formula_units_Z 88
_cell_length_a 14.907051
_cell_length_b 12.836759
_cell_length_c 30.581665
_cell_angle_alpha 90.000000
_cell_angle_beta 90.000000
_cell_angle_gamma 90.000000
_cell_volume 5852.053012
_symmetry_space_group_name_H-M "I M M A"
_symmetry_group_IT_number 74
_symmetry_cell_setting 'orthorhombic'
loop_
_space_group_symop_operation_xyz
x,y,z
-x,1/2-y,z
x,-y,-z
-x,1/2+y,-z
-x,-y,-z
x,1/2+y,-z
-x,y,z
x,1/2-y,z
1/2+x,1/2+y,1/2+z
1/2-x,-y,1/2+z
1/2+x,1/2-y,1/2-z
1/2-x,y,1/2-z
1/2-x,1/2-y,1/2-z
1/2+x,y,1/2-z
1/2-x,1/2+y,1/2+z
1/2+x,-y,1/2+z
loop_
_atom_site_type_symbol
_atom_site_label
_atom_site_fract_x
_atom_site_fract_y
_atom_site_fract_z
Si Si1 0.098132 0.250000 0.685963
Si Si2 0.701947 0.750000 0.324188
Si Si3 0.098415 0.094238 0.765338
Si Si4 0.893700 0.629750 0.874406
Si Si5 0.109186 0.472072 0.951259
Si Si6 0.607755 0.750000 0.415987
Si Si7 0.156598 0.366295 0.223815
O O1 0.193799 0.250000 0.662660
O O2 0.100865 0.151343 0.718812
O O3 0.000000 0.250000 0.663627
O O4 0.673767 0.649693 0.294958
O O5 0.642158 0.750000 0.366903
O O6 0.000000 0.117689 0.785087
O O7 0.107926 0.970999 0.760966
O O8 0.887293 0.750000 0.889097
O O9 0.864599 0.551963 0.912732
O O10 0.839978 0.619852 0.828944
O O11 0.000000 0.609845 0.864424
O O12 0.137787 0.355742 0.939208
O O13 0.000000 0.475155 0.951760
O O14 0.139785 0.500000 0.000000
O O15 0.500000 0.750000 0.416193
O O16 0.115904 0.250000 0.230316
O O17 0.250000 0.365821 0.250000
#
# Coordination Sequence:
#
# PCOD9534283 Si02
#       7
#     8   8  16  16  16   8  16
#     4   9  19  31  44  64  86 116 148 180 229 280
#     4  11  18  29  47  64  88 114 144 189 229 264
#     4  10  18  28  43  62  86 117 154 189 226 267
#     4   9  17  28  42  58  78 110 151 189 227 269
#     4   9  18  29  42  60  85 115 148 185 219 261
#     4  10  19  28  41  64  87 112 145 175 212 258
#     4  10  19  29  41  59  85 119 160 203 231 261
#
# _framework density 15.037458000000001
#
# number of rings (size 3 to 8) (size 9 to 14) (size 15 to 20)
#    0.000    2.364    0.000    5.182    1.273    2.545 
#    0.000    0.000    0.000    0.000    0.000    0.000 
#    0.000    0.727    0.000    0.727    0.727    0.727 
#
# Total GULP energy -244968.773092 kJ/mol
# GULP energy per Si atom -5567.472116 kJ/mol
# Density = 1.500323 g / cm^3
# Si number density = 15.037458 Si / 1000 Ang^3
#
#
#
# Elastic Constant Matrix: (Units=GPa)
#
#
# Indices 1 2 3 4 5 6 
#
# 1 47.8344 13.7600 10.2560 0.0000 0.0000 0.0000
# 2 13.7600 120.1348 40.3121 0.0000 0.0000 0.0000
# 3 10.2560 40.3121 71.1546 0.0000 0.0000 0.0000
# 4 0.0000 0.0000 0.0000 -286.5851 0.0000 0.0000
# 5 0.0000 0.0000 0.0000 0.0000 12.3275 0.0000
# 6 0.0000 0.0000 0.0000 0.0000 0.0000 8.1230
#
#
#
# Elastic Compliance Matrix: (Units=1/GPa)
#
#
# Indices 1 2 3 4 5 6 
#
# 1 0.021879 -0.001788 -0.002141 0.000000 0.000000 0.000000
# 2 -0.001788 0.010424 -0.005648 0.000000 0.000000 0.000000
# 3 -0.002141 -0.005648 0.017562 0.000000 0.000000 0.000000
# 4 0.000000 0.000000 0.000000 -0.003489 0.000000 0.000000
# 5 0.000000 0.000000 0.000000 0.000000 0.081119 0.000000
# 6 0.000000 0.000000 0.000000 0.000000 0.000000 0.123107
#
#
# Mechanical properties :
#
#
# Convention : Reuss Voigt Hill
#
# Bulk Modulus (GPa) = 32.56030 40.86445 36.71237
# Shear Modulus (GPa) = 17.85768 -41.57387 -11.85810
#
# Velocity S-wave (km/s) = 3.44982 -5.26373 -2.81120
# Velocity P-wave (km/s) = 6.12928 3.11584 3.73227
#
# Compressibility (1/GPa) = 0.03071225
#
# Stress axis : x y z
#
# Youngs Moduli (GPa) = 45.70661 95.93300 56.94024
#
# Poissons Ratio (x) = 0.17149 0.12190
# Poissons Ratio (y) = 0.08170 0.32160
# Poissons Ratio (z) = 0.09785 0.54182
#
# Static dielectric constant tensor:
#      x y z
#    x 1.516480 0.000000 0.000000 
#    y 0.000000 1.539840 0.000000 
#    z 0.000000 0.000000 1.480570 
# 
# From -- ./inp_files/67005.got.cif
#   From: 2010.05.17/outbox.cif.g08.bks.cpg/sg74_34_cif.got.tgz:67005.got - 2010.06.03 17:57:02.
