data_PCOD9534180
_publ_section_title
;
Structure prediction by ZEFSAII (Michael W. Deem and Ramdas Pophale) SiO2 
 PCOD9534180
Probable space group: I M M A
;
_chemical_formula_sum "Si O2"
_cell_formula_units_Z 96
_cell_length_a 8.110919
_cell_length_b 30.742438
_cell_length_c 34.080241
_cell_angle_alpha 90.000000
_cell_angle_beta 90.000000
_cell_angle_gamma 90.000000
_cell_volume 8497.888480
_symmetry_space_group_name_H-M "I M M A"
_symmetry_group_IT_number 74
_symmetry_cell_setting 'orthorhombic'
loop_
_space_group_symop_operation_xyz
x,y,z
-x,1/2-y,z
x,-y,-z
-x,1/2+y,-z
-x,-y,-z
x,1/2+y,-z
-x,y,z
x,1/2-y,z
1/2+x,1/2+y,1/2+z
1/2-x,-y,1/2+z
1/2+x,1/2-y,1/2-z
1/2-x,y,1/2-z
1/2-x,1/2-y,1/2-z
1/2+x,y,1/2-z
1/2-x,1/2+y,1/2+z
1/2+x,-y,1/2+z
loop_
_atom_site_type_symbol
_atom_site_label
_atom_site_fract_x
_atom_site_fract_y
_atom_site_fract_z
Si Si1 0.194518 0.153187 0.128676
Si Si2 0.500000 0.015357 0.064535
Si Si3 0.805746 0.200232 0.448495
Si Si4 0.188567 0.064313 0.090705
Si Si5 0.317538 0.882417 0.508437
Si Si6 0.697283 0.800129 0.793656
Si Si7 0.000000 0.429365 0.517235
O O1 0.282982 0.182360 0.095751
O O2 0.235763 0.102639 0.121068
O O3 0.233983 0.170249 0.171729
O O4 0.000000 0.157153 0.120836
O O5 0.333320 0.029132 0.087169
O O6 0.500000 0.965553 0.050946
O O7 0.500000 0.043973 0.024176
O O8 0.748842 0.250000 0.451084
O O9 0.714254 0.166646 0.477009
O O10 0.000000 0.198469 0.457625
O O11 0.000000 0.049047 0.098261
O O12 0.183815 0.089203 0.048655
O O13 0.500000 0.886942 0.490788
O O14 0.165066 0.900351 0.483357
O O15 0.500000 0.800364 0.795903
O O16 0.754847 0.750000 0.799202
O O17 0.750000 0.813694 0.750000
#
# Coordination Sequence:
#
# PCOD9534180 Si02
#       7
#    16   8  16  16  16  16   8
#     4  10  19  28  39  53  68  85 105 132 165 202
#     4   9  16  24  40  50  66  88 100 128 158 188
#     4  10  18  26  37  52  68  86 111 140 166 197
#     4   8  16  26  36  53  68  81 104 129 156 192
#     4   9  16  26  37  48  67  88 106 132 159 190
#     4  10  20  31  41  52  66  85 108 134 163 199
#     4   9  16  26  35  52  66  84 109 124 156 195
#
# _framework density 11.296924000000001
#
# number of rings (size 3 to 8) (size 9 to 14) (size 15 to 20)
#    0.000    2.667    0.833    3.000    4.667    5.000 
#    0.000    3.333    0.000    0.000    0.000    0.000 
#    0.000    0.000    0.000    0.000    0.000    0.000 
#
# Total GULP energy -267320.463593 kJ/mol
# GULP energy per Si atom -5569.176325 kJ/mol
# Density = 1.127121 g / cm^3
# Si number density = 11.296924 Si / 1000 Ang^3
#
#
#
# Elastic Constant Matrix: (Units=GPa)
#
#
# Indices 1 2 3 4 5 6 
#
# 1 69.3714 39.5671 23.7663 0.0000 0.0000 0.0000
# 2 39.5671 57.9746 31.4548 0.0000 0.0000 0.0000
# 3 23.7663 31.4548 28.6775 0.0000 0.0000 0.0000
# 4 0.0000 0.0000 0.0000 16.5088 0.0000 0.0000
# 5 0.0000 0.0000 0.0000 0.0000 10.3494 0.0000
# 6 0.0000 0.0000 0.0000 0.0000 0.0000 7.4072
#
#
#
# Elastic Compliance Matrix: (Units=1/GPa)
#
#
# Indices 1 2 3 4 5 6 
#
# 1 0.023859 -0.013721 -0.004724 0.000000 0.000000 0.000000
# 2 -0.013721 0.050492 -0.044010 0.000000 0.000000 0.000000
# 3 -0.004724 -0.044010 0.087057 0.000000 0.000000 0.000000
# 4 0.000000 0.000000 0.000000 0.060574 0.000000 0.000000
# 5 0.000000 0.000000 0.000000 0.000000 0.096624 0.000000
# 6 0.000000 0.000000 0.000000 0.000000 0.000000 0.135005
#
#
# Mechanical properties :
#
#
# Convention : Reuss Voigt Hill
#
# Bulk Modulus (GPa) = 27.39806 38.39999 32.89903
# Shear Modulus (GPa) = 8.46473 10.93543 9.70008
#
# Velocity S-wave (km/s) = 2.74030 3.11465 2.93345
# Velocity P-wave (km/s) = 5.85812 6.85566 6.37643
#
# Compressibility (1/GPa) = 0.03649893
#
# Stress axis : x y z
#
# Youngs Moduli (GPa) = 41.91220 19.80529 11.48668
#
# Poissons Ratio (x) = 0.27175 0.05426
# Poissons Ratio (y) = 0.57508 0.50553
# Poissons Ratio (z) = 0.19797 0.87163
#
# Static dielectric constant tensor:
#      x y z
#    x 1.402070 0.000000 0.000000 
#    y 0.000000 1.363320 0.000000 
#    z 0.000000 0.000000 1.331070 
# 
# From -- ./inp_files/71105.got.cif
#   From: 2010.05.17/outbox.cif.g08.bks.cpg/sg74_36_cif.got.tgz:71105.got - 2010.06.03 17:57:02.
