data_PCOD9534108
_publ_section_title
;
Structure prediction by ZEFSAII (Michael W. Deem and Ramdas Pophale) SiO2 
 PCOD9534108
Probable space group: I M M A
;
_chemical_formula_sum "Si O2"
_cell_formula_units_Z 96
_cell_length_a 18.519059
_cell_length_b 21.900006
_cell_length_c 11.357772
_cell_angle_alpha 90.000000
_cell_angle_beta 90.000000
_cell_angle_gamma 90.000000
_cell_volume 4606.343232
_symmetry_space_group_name_H-M "I M M A"
_symmetry_group_IT_number 74
_symmetry_cell_setting 'orthorhombic'
loop_
_space_group_symop_operation_xyz
x,y,z
-x,1/2-y,z
x,-y,-z
-x,1/2+y,-z
-x,-y,-z
x,1/2+y,-z
-x,y,z
x,1/2-y,z
1/2+x,1/2+y,1/2+z
1/2-x,-y,1/2+z
1/2+x,1/2-y,1/2-z
1/2-x,y,1/2-z
1/2-x,1/2-y,1/2-z
1/2+x,y,1/2-z
1/2-x,1/2+y,1/2+z
1/2+x,-y,1/2+z
loop_
_atom_site_type_symbol
_atom_site_label
_atom_site_fract_x
_atom_site_fract_y
_atom_site_fract_z
Si Si1 0.579136 0.823372 0.134042
Si Si2 0.227331 0.250000 0.383160
Si Si3 0.419416 0.250000 0.209505
Si Si4 0.863676 0.176036 0.886579
Si Si5 0.582895 0.627833 0.634311
Si Si6 0.213270 0.534073 0.874146
Si Si7 0.725269 0.367014 0.977110
O O1 0.500000 0.842443 0.091366
O O2 0.584732 0.750000 0.124941
O O3 0.589077 0.836913 0.272019
O O4 0.646877 0.854402 0.071950
O O5 0.250000 0.250000 0.250000
O O6 0.141299 0.250000 0.387507
O O7 0.252718 0.189899 0.445401
O O8 0.500000 0.250000 0.161850
O O9 0.408919 0.188240 0.284534
O O10 0.851104 0.250000 0.887381
O O11 0.788999 0.136694 0.880374
O O12 0.904412 0.152970 0.002453
O O13 0.500000 0.606078 0.647769
O O14 0.643728 0.576360 0.657757
O O15 0.250000 0.509422 0.750000
O O16 0.191767 0.500000 0.000000
O O17 0.273532 0.577571 0.933157
#
# Coordination Sequence:
#
# PCOD9534108 Si02
#       7
#    16   8   8  16  16  16  16
#     4  10  20  32  50  84 130 171 202 243 302 379
#     4  12  20  32  54  83 115 150 190 239 301 382
#     4  10  20  32  53  89 128 156 183 227 306 394
#     4  10  17  30  52  85 125 167 205 245 294 367
#     4  10  20  36  62  96 128 161 201 254 320 383
#     4  11  26  46  68  90 120 167 221 280 323 373
#     4  11  21  36  59  85 119 160 208 254 316 386
#
# _framework density 20.840826
#
# number of rings (size 3 to 8) (size 9 to 14) (size 15 to 20)
#    0.000    1.500    2.500    4.500    0.000    5.667 
#    0.000    0.833    0.000    2.000    0.000    0.000 
#    0.000    0.000    0.000    0.000    0.000    0.000 
#
# Total GULP energy -267486.584597 kJ/mol
# GULP energy per Si atom -5572.637179 kJ/mol
# Density = 2.079339 g / cm^3
# Si number density = 20.840826 Si / 1000 Ang^3
#
#
#
# Elastic Constant Matrix: (Units=GPa)
#
#
# Indices 1 2 3 4 5 6 
#
# 1 134.0889 13.2962 23.1335 0.0000 0.0000 0.0000
# 2 13.2962 33.8450 14.6640 0.0000 0.0000 0.0000
# 3 23.1335 14.6640 76.0025 0.0000 0.0000 0.0000
# 4 0.0000 0.0000 0.0000 20.4078 0.0000 0.0000
# 5 0.0000 0.0000 0.0000 0.0000 28.5368 0.0000
# 6 0.0000 0.0000 0.0000 0.0000 0.0000 8.6256
#
#
#
# Elastic Compliance Matrix: (Units=1/GPa)
#
#
# Indices 1 2 3 4 5 6 
#
# 1 0.008030 -0.002287 -0.002003 0.000000 0.000000 0.000000
# 2 -0.002287 0.032893 -0.005650 0.000000 0.000000 0.000000
# 3 -0.002003 -0.005650 0.014857 0.000000 0.000000 0.000000
# 4 0.000000 0.000000 0.000000 0.049001 0.000000 0.000000
# 5 0.000000 0.000000 0.000000 0.000000 0.035042 0.000000
# 6 0.000000 0.000000 0.000000 0.000000 0.000000 0.115934
#
#
# Mechanical properties :
#
#
# Convention : Reuss Voigt Hill
#
# Bulk Modulus (GPa) = 27.85507 38.45818 33.15663
# Shear Modulus (GPa) = 17.38498 24.37023 20.87761
#
# Velocity S-wave (km/s) = 2.89135 3.42329 3.16850
# Velocity P-wave (km/s) = 4.95391 5.84111 5.41570
#
# Compressibility (1/GPa) = 0.03590011
#
# Stress axis : x y z
#
# Youngs Moduli (GPa) = 124.53215 30.40158 67.30701
#
# Poissons Ratio (x) = 0.06952 0.13481
# Poissons Ratio (y) = 0.28478 0.38031
# Poissons Ratio (z) = 0.24943 0.17178
#
# Static dielectric constant tensor:
#      x y z
#    x 1.797960 0.000000 0.000000 
#    y 0.000000 1.821360 0.000000 
#    z 0.000000 0.000000 1.775810 
# 
# From -- ./inp_files/22530.got.cif
#   From: 2010.05.17/outbox.cif.g08.bks.cpg/sg74_12_cif.got.tgz:22530.got - 2010.06.03 17:57:02.
