data_PCOD9534240
_publ_section_title
;
Structure prediction by ZEFSAII (Michael W. Deem and Ramdas Pophale) SiO2 
 PCOD9534240
Probable space group: I M M A
;
_chemical_formula_sum "Si O2"
_cell_formula_units_Z 72
_cell_length_a 16.596532
_cell_length_b 7.462913
_cell_length_c 28.350328
_cell_angle_alpha 90.000000
_cell_angle_beta 90.000000
_cell_angle_gamma 90.000000
_cell_volume 3511.428375
_symmetry_space_group_name_H-M "I M M A"
_symmetry_group_IT_number 74
_symmetry_cell_setting 'orthorhombic'
loop_
_space_group_symop_operation_xyz
x,y,z
-x,1/2-y,z
x,-y,-z
-x,1/2+y,-z
-x,-y,-z
x,1/2+y,-z
-x,y,z
x,1/2-y,z
1/2+x,1/2+y,1/2+z
1/2-x,-y,1/2+z
1/2+x,1/2-y,1/2-z
1/2-x,y,1/2-z
1/2-x,1/2-y,1/2-z
1/2+x,y,1/2-z
1/2-x,1/2+y,1/2+z
1/2+x,-y,1/2+z
loop_
_atom_site_type_symbol
_atom_site_label
_atom_site_fract_x
_atom_site_fract_y
_atom_site_fract_z
Si Si1 0.252355 0.958441 0.353529
Si Si2 0.324621 0.962681 0.944685
Si Si3 0.411489 0.468126 0.696922
Si Si4 0.000000 0.963950 0.556258
Si Si5 0.411355 0.532152 0.192258
O O1 0.251803 0.750000 0.339289
O O2 0.334481 0.034123 0.332129
O O3 0.168703 0.036255 0.333309
O O4 0.243523 0.968402 0.409747
O O5 0.327286 0.750000 0.939665
O O6 0.412859 0.036191 0.928434
O O7 0.313405 0.000000 0.000000
O O8 0.500000 0.528911 0.680524
O O9 0.412213 0.250000 0.694407
O O10 0.404151 0.512517 0.752292
O O11 0.000000 0.750000 0.563619
O O12 0.000000 0.000000 0.500000
O O13 0.500000 0.469915 0.175179
O O14 0.412635 0.750000 0.188858
#
# Coordination Sequence:
#
# PCOD9534240 Si02
#       5
#    16  16  16   8  16
#     4  10  18  27  46  73  96 123 158 196 235 275
#     4  10  20  34  49  67  93 124 156 192 232 278
#     4   8  14  26  44  67  96 127 160 196 231 269
#     4   8  16  30  46  62  84 118 152 180 218 268
#     4   8  14  24  40  67 100 128 155 190 228 270
#
# _framework density 20.504476
#
# number of rings (size 3 to 8) (size 9 to 14) (size 15 to 20)
#    0.000    3.111    0.000    2.667    1.556    3.556 
#    0.000    0.000    0.000    4.000    0.000    3.111 
#    0.000    0.000    0.000    0.000    0.000    0.000 
#
# Total GULP energy -200780.106661 kJ/mol
# GULP energy per Si atom -5577.225185 kJ/mol
# Density = 2.045781 g / cm^3
# Si number density = 20.504476 Si / 1000 Ang^3
#
#
#
# Elastic Constant Matrix: (Units=GPa)
#
#
# Indices 1 2 3 4 5 6 
#
# 1 178.4870 9.0529 89.7983 0.0000 0.0000 0.0000
# 2 9.0529 66.7200 -5.7052 0.0000 0.0000 0.0000
# 3 89.7983 -5.7052 81.2375 0.0000 0.0000 0.0000
# 4 0.0000 0.0000 0.0000 1.5452 0.0000 0.0000
# 5 0.0000 0.0000 0.0000 0.0000 34.0862 0.0000
# 6 0.0000 0.0000 0.0000 0.0000 0.0000 -1.2814
#
#
#
# Elastic Compliance Matrix: (Units=1/GPa)
#
#
# Indices 1 2 3 4 5 6 
#
# 1 0.013216 -0.003061 -0.014823 0.000000 0.000000 0.000000
# 2 -0.003061 0.015787 0.004492 0.000000 0.000000 0.000000
# 3 -0.014823 0.004492 0.029010 0.000000 0.000000 0.000000
# 4 0.000000 0.000000 0.000000 0.647148 0.000000 0.000000
# 5 0.000000 0.000000 0.000000 0.000000 0.029337 0.000000
# 6 0.000000 0.000000 0.000000 0.000000 0.000000 -0.780390
#
#
# Mechanical properties :
#
#
# Convention : Reuss Voigt Hill
#
# Bulk Modulus (GPa) = 32.02108 56.97072 44.49590
# Shear Modulus (GPa) = -574.87880 22.42324 -276.22778
#
# Velocity S-wave (km/s) = -16.76234 3.31052 -11.61931
# Velocity P-wave (km/s) = 18.94688 6.51595 12.58028
#
# Compressibility (1/GPa) = 0.03122943
#
# Stress axis : x y z
#
# Youngs Moduli (GPa) = 75.66860 63.34168 34.47062
#
# Poissons Ratio (x) = 0.19387 0.51096
# Poissons Ratio (y) = 0.23160 -0.15484
# Poissons Ratio (z) = 1.12164 -0.28453
#
# Static dielectric constant tensor:
#      x y z
#    x 1.766150 0.000000 0.000000 
#    y 0.000000 1.795130 0.000000 
#    z 0.000000 0.000000 1.712700 
# 
# From -- ./inp_files/59636.got.cif
#   From: 2010.05.17/outbox.cif.g08.bks.cpg/sg74_30_cif.got.tgz:59636.got - 2010.06.03 17:57:02.
