data_PCOD9534510
_publ_section_title
;
Structure prediction by ZEFSAII (Michael W. Deem and Ramdas Pophale) SiO2 
 PCOD9534510
Probable space group: I M M A
;
_chemical_formula_sum "Si O2"
_cell_formula_units_Z 88
_cell_length_a 8.776372
_cell_length_b 21.208840
_cell_length_c 25.137468
_cell_angle_alpha 90.000000
_cell_angle_beta 90.000000
_cell_angle_gamma 90.000000
_cell_volume 4679.004574
_symmetry_space_group_name_H-M "I M M A"
_symmetry_group_IT_number 74
_symmetry_cell_setting 'orthorhombic'
loop_
_space_group_symop_operation_xyz
x,y,z
-x,1/2-y,z
x,-y,-z
-x,1/2+y,-z
-x,-y,-z
x,1/2+y,-z
-x,y,z
x,1/2-y,z
1/2+x,1/2+y,1/2+z
1/2-x,-y,1/2+z
1/2+x,1/2-y,1/2-z
1/2-x,y,1/2-z
1/2-x,1/2-y,1/2-z
1/2+x,y,1/2-z
1/2-x,1/2+y,1/2+z
1/2+x,-y,1/2+z
loop_
_atom_site_type_symbol
_atom_site_label
_atom_site_fract_x
_atom_site_fract_y
_atom_site_fract_z
Si Si1 0.317660 0.750000 0.689786
Si Si2 0.817621 0.133648 0.695417
Si Si3 0.325117 0.944639 0.463408
Si Si4 0.818444 0.621902 0.690563
Si Si5 0.325005 0.506084 0.342812
Si Si6 0.816607 0.679817 0.422078
O O1 0.500000 0.750000 0.691692
O O2 0.250000 0.750000 0.750000
O O3 0.254053 0.814794 0.665712
O O4 0.750000 0.160919 0.750000
O O5 0.772792 0.167511 0.639981
O O6 0.000000 0.133536 0.698646
O O7 0.754916 0.062482 0.689113
O O8 0.500000 0.934508 0.481221
O O9 0.244787 0.877126 0.458065
O O10 0.256601 0.000000 0.500000
O O11 0.327118 0.971802 0.403746
O O12 0.750000 0.616401 0.750000
O O13 0.766164 0.558547 0.661954
O O14 0.000000 0.627847 0.693091
O O15 0.500000 0.497617 0.324504
O O16 0.765640 0.750000 0.437724
O O17 0.000000 0.677841 0.423572
#
# Coordination Sequence:
#
# PCOD9534510 Si02
#       6
#     8  16  16  16  16  16
#     4  10  18  30  46  66  92 126 166 202 244 294
#     4  10  19  31  47  71 105 141 176 213 252 298
#     4   9  19  36  58  81 103 129 169 217 264 314
#     4  11  20  31  47  69  98 131 168 206 248 300
#     4  10  19  32  50  72  98 129 167 211 257 306
#     4   9  19  35  54  78 108 141 177 215 259 311
#
# _framework density 18.807421000000001
#
# number of rings (size 3 to 8) (size 9 to 14) (size 15 to 20)
#    0.000    2.182    0.000    5.182    0.000    2.545 
#    0.000    0.000    2.000    0.000    0.000    0.000 
#    0.000    0.000    0.000    0.000    0.000    0.000 
#
# Total GULP energy -245436.156735 kJ/mol
# GULP energy per Si atom -5578.094471 kJ/mol
# Density = 1.876461 g / cm^3
# Si number density = 18.807421 Si / 1000 Ang^3
#
#
#
# Elastic Constant Matrix: (Units=GPa)
#
#
# Indices 1 2 3 4 5 6 
#
# 1 99.5607 47.3773 8.1620 0.0000 0.0000 0.0000
# 2 47.3773 161.4313 23.7464 0.0000 0.0000 0.0000
# 3 8.1620 23.7464 38.8700 0.0000 0.0000 0.0000
# 4 0.0000 0.0000 0.0000 10.1821 0.0000 0.0000
# 5 0.0000 0.0000 0.0000 0.0000 18.8919 0.0000
# 6 0.0000 0.0000 0.0000 0.0000 0.0000 27.3493
#
#
#
# Elastic Compliance Matrix: (Units=1/GPa)
#
#
# Indices 1 2 3 4 5 6 
#
# 1 0.011680 -0.003370 -0.000394 0.000000 0.000000 0.000000
# 2 -0.003370 0.007779 -0.004044 0.000000 0.000000 0.000000
# 3 -0.000394 -0.004044 0.028280 0.000000 0.000000 0.000000
# 4 0.000000 0.000000 0.000000 0.098211 0.000000 0.000000
# 5 0.000000 0.000000 0.000000 0.000000 0.052933 0.000000
# 6 0.000000 0.000000 0.000000 0.000000 0.000000 0.036564
#
#
# Mechanical properties :
#
#
# Convention : Reuss Voigt Hill
#
# Bulk Modulus (GPa) = 31.13084 50.93701 41.03393
# Shear Modulus (GPa) = 19.10065 25.98974 22.54519
#
# Velocity S-wave (km/s) = 3.19029 3.72141 3.46604
# Velocity P-wave (km/s) = 5.49172 6.75333 6.15493
#
# Compressibility (1/GPa) = 0.03212249
#
# Stress axis : x y z
#
# Youngs Moduli (GPa) = 85.61603 128.55883 35.36031
#
# Poissons Ratio (x) = 0.43324 0.01393
# Poissons Ratio (y) = 0.28852 0.14301
# Poissons Ratio (z) = 0.03372 0.51995
#
# Static dielectric constant tensor:
#      x y z
#    x 1.635880 0.000000 0.000000 
#    y 0.000000 1.687900 0.000000 
#    z 0.000000 0.000000 1.656040 
# 
# From -- ./inp_files/56958.got.cif
#   From: 2010.05.17/outbox.cif.g08.bks.cpg/sg74_29_cif.got.tgz:56958.got - 2010.06.03 17:57:02.
