data_PCOD9534509
_publ_section_title
;
Structure prediction by ZEFSAII (Michael W. Deem and Ramdas Pophale) SiO2 
 PCOD9534509
Probable space group: I M M A
;
_chemical_formula_sum "Si O2"
_cell_formula_units_Z 96
_cell_length_a 25.992506
_cell_length_b 8.599765
_cell_length_c 26.284436
_cell_angle_alpha 90.000000
_cell_angle_beta 90.000000
_cell_angle_gamma 90.000000
_cell_volume 5875.345348
_symmetry_space_group_name_H-M "I M M A"
_symmetry_group_IT_number 74
_symmetry_cell_setting 'orthorhombic'
loop_
_space_group_symop_operation_xyz
x,y,z
-x,1/2-y,z
x,-y,-z
-x,1/2+y,-z
-x,-y,-z
x,1/2+y,-z
-x,y,z
x,1/2-y,z
1/2+x,1/2+y,1/2+z
1/2-x,-y,1/2+z
1/2+x,1/2-y,1/2-z
1/2-x,y,1/2-z
1/2-x,1/2-y,1/2-z
1/2+x,y,1/2-z
1/2-x,1/2+y,1/2+z
1/2+x,-y,1/2+z
loop_
_atom_site_type_symbol
_atom_site_label
_atom_site_fract_x
_atom_site_fract_y
_atom_site_fract_z
Si Si1 0.443018 0.564158 0.245976
Si Si2 0.764013 0.433369 0.446231
Si Si3 0.758050 0.561311 0.668122
Si Si4 0.559077 0.573921 0.866611
Si Si5 0.665883 0.062520 0.254508
Si Si6 0.876704 0.069760 0.548996
O O1 0.500000 0.525590 0.268595
O O2 0.441514 0.750000 0.240153
O O3 0.441215 0.480891 0.191291
O O4 0.389027 0.508976 0.269438
O O5 0.743069 0.500000 0.500000
O O6 0.754592 0.250000 0.447105
O O7 0.749430 0.494979 0.389722
O O8 0.824706 0.470640 0.447151
O O9 0.761502 0.750000 0.665694
O O10 0.709529 0.524082 0.703908
O O11 0.809456 0.511569 0.699657
O O12 0.500000 0.574835 0.884006
O O13 0.579765 0.750000 0.870505
O O14 0.591172 0.458390 0.900804
O O15 0.660749 0.250000 0.252646
O O16 0.864397 0.250000 0.541708
O O17 0.905570 0.000000 0.500000
#
# Coordination Sequence:
#
# PCOD9534509 Si02
#       6
#    16  16  16  16  16  16
#     4  10  20  32  45  65  93 120 146 180 222 266
#     4  10  18  30  46  65  90 119 150 182 219 264
#     4   8  16  29  47  69  92 118 149 190 232 269
#     4  10  20  33  47  61  78 106 145 185 224 265
#     4   9  16  30  50  69  89 118 155 189 227 272
#     4  11  21  32  45  61  82 109 143 183 226 267
#
# _framework density 16.339464
#
# number of rings (size 3 to 8) (size 9 to 14) (size 15 to 20)
#    0.000    2.333    0.000    6.000    0.000    3.667 
#    0.000    4.167    0.000    0.000    0.000    0.000 
#    0.000    0.667    0.000    1.500    0.000    2.667 
#
# Total GULP energy -267255.417744 kJ/mol
# GULP energy per Si atom -5567.821203 kJ/mol
# Density = 1.630227 g / cm^3
# Si number density = 16.339464 Si / 1000 Ang^3
#
#
#
# Elastic Constant Matrix: (Units=GPa)
#
#
# Indices 1 2 3 4 5 6 
#
# 1 76.9741 12.5890 18.8555 0.0000 0.0000 0.0000
# 2 12.5890 34.0578 10.8649 0.0000 0.0000 0.0000
# 3 18.8555 10.8649 82.3311 0.0000 0.0000 0.0000
# 4 0.0000 0.0000 0.0000 19.3382 0.0000 0.0000
# 5 0.0000 0.0000 0.0000 0.0000 16.7621 0.0000
# 6 0.0000 0.0000 0.0000 0.0000 0.0000 14.3592
#
#
#
# Elastic Compliance Matrix: (Units=1/GPa)
#
#
# Indices 1 2 3 4 5 6 
#
# 1 0.014383 -0.004453 -0.002706 0.000000 0.000000 0.000000
# 2 -0.004453 0.032031 -0.003207 0.000000 0.000000 0.000000
# 3 -0.002706 -0.003207 0.013189 0.000000 0.000000 0.000000
# 4 0.000000 0.000000 0.000000 0.051711 0.000000 0.000000
# 5 0.000000 0.000000 0.000000 0.000000 0.059658 0.000000
# 6 0.000000 0.000000 0.000000 0.000000 0.000000 0.069642
#
#
# Mechanical properties :
#
#
# Convention : Reuss Voigt Hill
#
# Bulk Modulus (GPa) = 25.72692 30.88688 28.30690
# Shear Modulus (GPa) = 18.22799 20.16214 19.19506
#
# Velocity S-wave (km/s) = 3.34365 3.51658 3.43121
# Velocity P-wave (km/s) = 5.53951 5.95254 5.74973
#
# Compressibility (1/GPa) = 0.03886979
#
# Stress axis : x y z
#
# Youngs Moduli (GPa) = 69.52848 31.21979 75.82018
#
# Poissons Ratio (x) = 0.13902 0.20519
# Poissons Ratio (y) = 0.30961 0.24317
# Poissons Ratio (z) = 0.18816 0.10013
#
# Static dielectric constant tensor:
#      x y z
#    x 1.573580 0.000000 0.000000 
#    y 0.000000 1.557840 0.000000 
#    z 0.000000 0.000000 1.599130 
# 
# From -- ./inp_files/64676.got.cif
#   From: 2010.05.17/outbox.cif.g08.bks.cpg/sg74_33_cif.got.tgz:64676.got - 2010.06.03 17:57:02.
