data_PCOD9534006
_publ_section_title
;
Structure prediction by ZEFSAII (Michael W. Deem and Ramdas Pophale) SiO2 
 PCOD9534006
Probable space group: I M M A
;
_chemical_formula_sum "Si O2"
_cell_formula_units_Z 128
_cell_length_a 18.507200
_cell_length_b 24.755391
_cell_length_c 13.271343
_cell_angle_alpha 90.000000
_cell_angle_beta 90.000000
_cell_angle_gamma 90.000000
_cell_volume 6080.305242
_symmetry_space_group_name_H-M "I M M A"
_symmetry_group_IT_number 74
_symmetry_cell_setting 'orthorhombic'
loop_
_space_group_symop_operation_xyz
x,y,z
-x,1/2-y,z
x,-y,-z
-x,1/2+y,-z
-x,-y,-z
x,1/2+y,-z
-x,y,z
x,1/2-y,z
1/2+x,1/2+y,1/2+z
1/2-x,-y,1/2+z
1/2+x,1/2-y,1/2-z
1/2-x,y,1/2-z
1/2-x,1/2-y,1/2-z
1/2+x,y,1/2-z
1/2-x,1/2+y,1/2+z
1/2+x,-y,1/2+z
loop_
_atom_site_type_symbol
_atom_site_label
_atom_site_fract_x
_atom_site_fract_y
_atom_site_fract_z
Si Si1 0.679333 0.382154 0.318842
Si Si2 0.918530 0.799620 0.915500
Si Si3 0.789374 0.881313 0.138980
Si Si4 0.141902 0.864880 0.426129
Si Si5 0.815326 0.002391 0.830860
Si Si6 0.583850 0.313481 0.725230
Si Si7 0.585908 0.478483 0.847817
Si Si8 0.585269 0.598840 0.873813
O O1 0.589253 0.250000 0.496094
O O2 0.750000 0.369781 0.250000
O O3 0.646250 0.339653 0.397313
O O4 0.686139 0.441267 0.369650
O O5 0.917058 0.750000 0.833072
O O6 0.882025 0.887087 0.733395
O O7 0.000000 0.822489 0.921504
O O8 0.750000 0.882469 0.250000
O O9 0.727377 0.854843 0.072093
O O10 0.862492 0.848301 0.155246
O O11 0.803296 0.943200 0.107058
O O12 0.102696 0.830213 0.340675
O O13 0.111514 0.862656 0.537793
O O14 0.127277 0.926711 0.389543
O O15 0.750000 0.001251 0.750000
O O16 0.888479 0.013478 0.767427
O O17 0.500000 0.325995 0.704516
O O18 0.596604 0.250000 0.718328
O O19 0.500000 0.469700 0.857817
O O20 0.605735 0.536107 0.896875
O O21 0.500000 0.599642 0.868811
#
# Coordination Sequence:
#
# PCOD9534006 Si02
#       8
#    16  16  16  16  16  16  16  16
#     4  10  18  29  50  73 101 129 171 217 247 300
#     4   6  15  30  47  64  92 119 152 191 247 298
#     4   9  17  30  48  68  99 142 171 215 260 297
#     4  11  19  31  48  67 107 142 175 203 250 315
#     4   9  15  27  42  67  96 129 161 209 254 287
#     4  10  20  33  52  75 102 133 182 225 261 302
#     4  10  17  27  44  68  96 135 168 202 236 300
#     4  10  21  31  47  75 110 140 168 199 257 310
#
# _framework density 21.051575
#
# number of rings (size 3 to 8) (size 9 to 14) (size 15 to 20)
#    0.750    1.875    3.750    1.875    0.000    4.000 
#    0.000    0.625    2.750    0.000    0.000    1.750 
#    3.750    3.000    0.000    0.000    0.000    0.000 
#
# Total GULP energy -356288.948860 kJ/mol
# GULP energy per Si atom -5567.014826 kJ/mol
# Density = 2.100366 g / cm^3
# Si number density = 21.051575 Si / 1000 Ang^3
#
#
#
# Elastic Constant Matrix: (Units=GPa)
#
#
# Indices 1 2 3 4 5 6 
#
# 1 97.6431 54.0497 19.5644 0.0000 0.0000 0.0000
# 2 54.0497 86.9737 15.5035 0.0000 0.0000 0.0000
# 3 19.5644 15.5035 56.4158 0.0000 0.0000 0.0000
# 4 0.0000 0.0000 0.0000 8.0619 0.0000 0.0000
# 5 0.0000 0.0000 0.0000 0.0000 12.2009 0.0000
# 6 0.0000 0.0000 0.0000 0.0000 0.0000 27.4251
#
#
#
# Elastic Compliance Matrix: (Units=1/GPa)
#
#
# Indices 1 2 3 4 5 6 
#
# 1 0.016073 -0.009458 -0.002975 0.000000 0.000000 0.000000
# 2 -0.009458 0.017656 -0.001572 0.000000 0.000000 0.000000
# 3 -0.002975 -0.001572 0.019189 0.000000 0.000000 0.000000
# 4 0.000000 0.000000 0.000000 0.124040 0.000000 0.000000
# 5 0.000000 0.000000 0.000000 0.000000 0.081961 0.000000
# 6 0.000000 0.000000 0.000000 0.000000 0.000000 0.036463
#
#
# Mechanical properties :
#
#
# Convention : Reuss Voigt Hill
#
# Bulk Modulus (GPa) = 40.14769 46.58530 43.36650
# Shear Modulus (GPa) = 15.07411 19.66526 17.36969
#
# Velocity S-wave (km/s) = 2.67883 3.05970 2.87557
# Velocity P-wave (km/s) = 5.35543 5.88723 5.62762
#
# Compressibility (1/GPa) = 0.02490803
#
# Stress axis : x y z
#
# Youngs Moduli (GPa) = 62.21615 56.63866 52.11287
#
# Poissons Ratio (x) = 0.53571 0.15502
# Poissons Ratio (y) = 0.58846 0.08192
# Poissons Ratio (z) = 0.18508 0.08903
#
# Static dielectric constant tensor:
#      x y z
#    x 1.762500 0.000000 0.000000 
#    y 0.000000 1.763460 0.000000 
#    z 0.000000 0.000000 1.940790 
# 
# From -- ./inp_files/53480.got.cif
#   From: 2010.05.17/outbox.cif.g08.bks.cpg/sg74_27_cif.got.tgz:53480.got - 2010.06.03 17:57:02.
