data_PCOD9534423
_publ_section_title
;
Structure prediction by ZEFSAII (Michael W. Deem and Ramdas Pophale) SiO2 
 PCOD9534423
Probable space group: I M M A
;
_chemical_formula_sum "Si O2"
_cell_formula_units_Z 104
_cell_length_a 8.240195
_cell_length_b 29.715985
_cell_length_c 24.770543
_cell_angle_alpha 90.000000
_cell_angle_beta 90.000000
_cell_angle_gamma 90.000000
_cell_volume 6065.451670
_symmetry_space_group_name_H-M "I M M A"
_symmetry_group_IT_number 74
_symmetry_cell_setting 'orthorhombic'
loop_
_space_group_symop_operation_xyz
x,y,z
-x,1/2-y,z
x,-y,-z
-x,1/2+y,-z
-x,-y,-z
x,1/2+y,-z
-x,y,z
x,1/2-y,z
1/2+x,1/2+y,1/2+z
1/2-x,-y,1/2+z
1/2+x,1/2-y,1/2-z
1/2-x,y,1/2-z
1/2-x,1/2-y,1/2-z
1/2+x,y,1/2-z
1/2-x,1/2+y,1/2+z
1/2+x,-y,1/2+z
loop_
_atom_site_type_symbol
_atom_site_label
_atom_site_fract_x
_atom_site_fract_y
_atom_site_fract_z
Si Si1 0.196410 0.926908 0.812229
Si Si2 0.194058 0.025477 0.812345
Si Si3 0.806701 0.121622 0.687983
Si Si4 0.304715 0.839125 0.624824
Si Si5 0.195627 0.801624 0.515171
Si Si6 0.803670 0.250000 0.188081
Si Si7 0.198274 0.198536 0.607507
O O1 0.250000 0.921834 0.750000
O O2 0.255431 0.884945 0.847487
O O3 0.000000 0.926663 0.812600
O O4 0.248587 0.976438 0.833195
O O5 0.250000 0.025442 0.750000
O O6 0.258948 0.072497 0.834860
O O7 0.000000 0.027262 0.814282
O O8 0.750000 0.125520 0.750000
O O9 0.743675 0.162074 0.650642
O O10 0.000000 0.123875 0.688768
O O11 0.500000 0.839327 0.628494
O O12 0.258048 0.833048 0.562638
O O13 0.245865 0.795028 0.657500
O O14 0.248821 0.750000 0.526317
O O15 0.247107 0.812715 0.454029
O O16 0.000000 0.801997 0.516087
O O17 0.750000 0.250000 0.250000
O O18 0.000000 0.250000 0.186468
O O19 0.248379 0.250000 0.619276
O O20 0.000000 0.198303 0.608268
#
# Coordination Sequence:
#
# PCOD9534423 Si02
#       7
#    16  16  16  16  16   8  16
#     4   9  18  30  45  65  91 121 153 189 229 273
#     4   9  16  28  45  65  90 120 153 187 221 264
#     4  10  18  29  48  72  97 123 148 179 222 270
#     4  10  19  31  45  65  92 120 149 189 237 274
#     4   9  17  31  50  68  85 114 158 194 221 265
#     4  10  20  30  42  62  92 122 147 182 229 276
#     4   8  16  31  49  69  94 122 151 185 223 263
#
# _framework density 17.146291999999999
#
# number of rings (size 3 to 8) (size 9 to 14) (size 15 to 20)
#    0.000    2.769    0.769    3.231    0.000    2.154 
#    0.000    1.538    0.000    4.154    0.000    6.462 
#    0.000    0.000    0.000    0.000    0.000    0.000 
#
# Total GULP energy -289676.775343 kJ/mol
# GULP energy per Si atom -5570.707218 kJ/mol
# Density = 1.710727 g / cm^3
# Si number density = 17.146292 Si / 1000 Ang^3
#
#
#
# Elastic Constant Matrix: (Units=GPa)
#
#
# Indices 1 2 3 4 5 6 
#
# 1 10.6046 17.8131 8.7428 0.0000 0.0000 0.0000
# 2 17.8131 175.5334 91.6468 0.0000 0.0000 0.0000
# 3 8.7428 91.6468 93.4935 0.0000 0.0000 0.0000
# 4 0.0000 0.0000 0.0000 10.8365 0.0000 0.0000
# 5 0.0000 0.0000 0.0000 0.0000 18.6904 0.0000
# 6 0.0000 0.0000 0.0000 0.0000 0.0000 11.6822
#
#
#
# Elastic Compliance Matrix: (Units=1/GPa)
#
#
# Indices 1 2 3 4 5 6 
#
# 1 0.113765 -0.012270 0.001390 0.000000 0.000000 0.000000
# 2 -0.012270 0.012993 -0.011588 0.000000 0.000000 0.000000
# 3 0.001390 -0.011588 0.021926 0.000000 0.000000 0.000000
# 4 0.000000 0.000000 0.000000 0.092281 0.000000 0.000000
# 5 0.000000 0.000000 0.000000 0.000000 0.053503 0.000000
# 6 0.000000 0.000000 0.000000 0.000000 0.000000 0.085601
#
#
# Mechanical properties :
#
#
# Convention : Reuss Voigt Hill
#
# Bulk Modulus (GPa) = 9.63907 57.33742 33.48825
# Shear Modulus (GPa) = 10.87933 19.00373 14.94153
#
# Velocity S-wave (km/s) = 2.52166 3.33277 2.95518
# Velocity P-wave (km/s) = 3.75663 6.95144 5.58725
#
# Compressibility (1/GPa) = 0.10374442
#
# Stress axis : x y z
#
# Youngs Moduli (GPa) = 8.79007 76.96745 45.60891
#
# Poissons Ratio (x) = 0.94442 -0.06338
# Poissons Ratio (y) = 0.10786 0.52854
# Poissons Ratio (z) = -0.01222 0.89193
#
# Static dielectric constant tensor:
#      x y z
#    x 1.612890 0.000000 0.000000 
#    y 0.000000 1.621100 0.000000 
#    z 0.000000 0.000000 1.553870 
# 
# From -- ./inp_files/57852.got.cif
#   From: 2010.05.17/outbox.cif.g08.bks.cpg/sg74_29_cif.got.tgz:57852.got - 2010.06.03 17:57:02.
