data_PCOD9534938
_publ_section_title
;
Structure prediction by ZEFSAII (Michael W. Deem and Ramdas Pophale) SiO2 
 PCOD9534938
Probable space group: I M M A
;
_chemical_formula_sum "Si O2"
_cell_formula_units_Z 92
_cell_length_a 9.328161
_cell_length_b 24.221090
_cell_length_c 21.686801
_cell_angle_alpha 90.000000
_cell_angle_beta 90.000000
_cell_angle_gamma 90.000000
_cell_volume 4899.877370
_symmetry_space_group_name_H-M "I M M A"
_symmetry_group_IT_number 74
_symmetry_cell_setting 'orthorhombic'
loop_
_space_group_symop_operation_xyz
x,y,z
-x,1/2-y,z
x,-y,-z
-x,1/2+y,-z
-x,-y,-z
x,1/2+y,-z
-x,y,z
x,1/2-y,z
1/2+x,1/2+y,1/2+z
1/2-x,-y,1/2+z
1/2+x,1/2-y,1/2-z
1/2-x,y,1/2-z
1/2-x,1/2-y,1/2-z
1/2+x,y,1/2-z
1/2-x,1/2+y,1/2+z
1/2+x,-y,1/2+z
loop_
_atom_site_type_symbol
_atom_site_label
_atom_site_fract_x
_atom_site_fract_y
_atom_site_fract_z
Si Si1 0.000000 0.750000 0.279853
Si Si2 0.834015 0.075660 0.854771
Si Si3 0.831824 0.360095 0.549535
Si Si4 0.667512 0.750000 0.914810
Si Si5 0.830653 0.549367 0.812905
Si Si6 0.750000 0.662626 0.250000
Si Si7 0.829315 0.750000 0.042800
Si Si8 0.834449 0.128042 0.402235
O O1 0.125205 0.798375 0.275976
O O2 0.729921 0.089904 0.911148
O O3 0.808777 0.122100 0.803150
O O4 0.000000 0.077658 0.874970
O O5 0.804706 0.015013 0.828178
O O6 0.742686 0.305502 0.568448
O O7 0.813172 0.370274 0.476322
O O8 0.000000 0.350692 0.560808
O O9 0.500000 0.750000 0.938904
O O10 0.685003 0.808139 0.880986
O O11 0.778307 0.750000 0.971428
O O12 0.750000 0.563858 0.750000
O O13 0.769685 0.587007 0.867594
O O14 0.000000 0.557353 0.805862
O O15 0.000000 0.750000 0.050110
O O16 0.000000 0.112359 0.390824
#
# Coordination Sequence:
#
# PCOD9534938 Si02
#       8
#     4  16  16   8  16   8   8  16
#     4  10  24  38  64  86 118 156 208 264 302 354
#     4  11  24  41  61  85 121 161 204 253 306 358
#     4  10  22  38  60  87 120 160 203 248 303 365
#     4   8  16  34  61  87 123 159 190 236 295 360
#     4  11  24  41  64  89 117 160 205 249 299 365
#     4  11  22  44  60  86 118 161 204 256 314 345
#     4  10  18  32  54  84 121 159 197 242 296 355
#     4   9  19  39  63  92 123 156 198 245 299 358
#
# _framework density 18.775980000000001
#
# number of rings (size 3 to 8) (size 9 to 14) (size 15 to 20)
#    0.000    1.913    1.739    2.870    1.217    6.957 
#    1.565    3.913    0.000    0.000    0.000    0.000 
#    0.000    0.000    0.000    0.000    0.000    0.000 
#
# Total GULP energy -256306.937654 kJ/mol
# GULP energy per Si atom -5571.889949 kJ/mol
# Density = 1.873325 g / cm^3
# Si number density = 18.775980 Si / 1000 Ang^3
#
#
#
# Elastic Constant Matrix: (Units=GPa)
#
#
# Indices 1 2 3 4 5 6 
#
# 1 106.4445 46.1497 41.7249 0.0000 0.0000 0.0000
# 2 46.1497 83.1400 32.1536 0.0000 0.0000 0.0000
# 3 41.7249 32.1536 50.0704 0.0000 0.0000 0.0000
# 4 0.0000 0.0000 0.0000 -2.2843 0.0000 0.0000
# 5 0.0000 0.0000 0.0000 0.0000 25.8083 0.0000
# 6 0.0000 0.0000 0.0000 0.0000 0.0000 33.9602
#
#
#
# Elastic Compliance Matrix: (Units=1/GPa)
#
#
# Indices 1 2 3 4 5 6 
#
# 1 0.015225 -0.004716 -0.009659 0.000000 0.000000 0.000000
# 2 -0.004716 0.017463 -0.007284 0.000000 0.000000 0.000000
# 3 -0.009659 -0.007284 0.032699 0.000000 0.000000 0.000000
# 4 0.000000 0.000000 0.000000 -0.437765 0.000000 0.000000
# 5 0.000000 0.000000 0.000000 0.000000 0.038747 0.000000
# 6 0.000000 0.000000 0.000000 0.000000 0.000000 0.029446
#
#
# Mechanical properties :
#
#
# Convention : Reuss Voigt Hill
#
# Bulk Modulus (GPa) = 45.31381 53.30125 49.30753
# Shear Modulus (GPa) = -19.72317 19.47195 -0.12561
#
# Velocity S-wave (km/s) = -3.24458 3.22385 -0.25893
# Velocity P-wave (km/s) = 3.18590 6.50440 5.12138
#
# Compressibility (1/GPa) = 0.02206833
#
# Stress axis : x y z
#
# Youngs Moduli (GPa) = 65.67936 57.26509 30.58193
#
# Poissons Ratio (x) = 0.27005 0.29541
# Poissons Ratio (y) = 0.30973 0.22277
# Poissons Ratio (z) = 0.63443 0.41713
#
# Static dielectric constant tensor:
#      x y z
#    x 1.627670 0.000000 0.000000 
#    y 0.000000 1.651010 0.000000 
#    z 0.000000 0.000000 1.653080 
# 
# From -- ./inp_files/48855.got.cif
#   From: 2010.05.17/outbox.cif.g08.bks.cpg/sg74_25_cif.got.tgz:48855.got - 2010.06.03 17:57:02.
