data_PCOD9534686
_publ_section_title
;
Structure prediction by ZEFSAII (Michael W. Deem and Ramdas Pophale) SiO2 
 PCOD9534686
Probable space group: I M M A
;
_chemical_formula_sum "Si O2"
_cell_formula_units_Z 96
_cell_length_a 26.440738
_cell_length_b 8.656064
_cell_length_c 23.613236
_cell_angle_alpha 90.000000
_cell_angle_beta 90.000000
_cell_angle_gamma 90.000000
_cell_volume 5404.425559
_symmetry_space_group_name_H-M "I M M A"
_symmetry_group_IT_number 74
_symmetry_cell_setting 'orthorhombic'
loop_
_space_group_symop_operation_xyz
x,y,z
-x,1/2-y,z
x,-y,-z
-x,1/2+y,-z
-x,-y,-z
x,1/2+y,-z
-x,y,z
x,1/2-y,z
1/2+x,1/2+y,1/2+z
1/2-x,-y,1/2+z
1/2+x,1/2-y,1/2-z
1/2-x,y,1/2-z
1/2-x,1/2-y,1/2-z
1/2+x,y,1/2-z
1/2-x,1/2+y,1/2+z
1/2+x,-y,1/2+z
loop_
_atom_site_type_symbol
_atom_site_label
_atom_site_fract_x
_atom_site_fract_y
_atom_site_fract_z
Si Si1 0.557760 0.564292 0.675031
Si Si2 0.653187 0.430351 0.623916
Si Si3 0.190006 0.579379 0.252109
Si Si4 0.843592 0.071599 0.360224
Si Si5 0.942308 0.938406 0.694331
Si Si6 0.754948 0.564551 0.437328
O O1 0.500000 0.516173 0.662598
O O2 0.559119 0.750000 0.676538
O O3 0.598501 0.508816 0.629126
O O4 0.568933 0.511533 0.740366
O O5 0.646243 0.250000 0.609651
O O6 0.672284 0.441923 0.688475
O O7 0.700140 0.491336 0.586597
O O8 0.172276 0.750000 0.272638
O O9 0.250000 0.583930 0.250000
O O10 0.174535 0.447579 0.295380
O O11 0.844585 0.250000 0.377803
O O12 0.901099 0.010951 0.352184
O O13 0.802090 0.986214 0.398196
O O14 0.940393 0.750000 0.694874
O O15 0.000000 0.983841 0.681845
O O16 0.762230 0.500000 0.500000
O O17 0.753308 0.750000 0.437200
#
# Coordination Sequence:
#
# PCOD9534686 Si02
#       6
#    16  16  16  16  16  16
#     4   9  17  30  49  76 111 145 175 210 251 301
#     4  10  20  33  52  75 106 141 172 211 264 314
#     4  10  18  31  47  71 108 144 169 205 262 315
#     4  11  20  31  53  81 106 139 176 214 258 313
#     4   8  15  28  46  73 110 144 172 205 247 297
#     4  11  24  42  57  75 102 136 176 224 272 317
#
# _framework density 17.76322
#
# number of rings (size 3 to 8) (size 9 to 14) (size 15 to 20)
#    0.000    2.167    3.333    2.000    0.000    2.000 
#    0.000    0.000    0.000    3.000    0.000    0.000 
#    0.000    0.000    0.000    0.000    0.000    0.000 
#
# Total GULP energy -267249.689493 kJ/mol
# GULP energy per Si atom -5567.701864 kJ/mol
# Density = 1.772279 g / cm^3
# Si number density = 17.763220 Si / 1000 Ang^3
#
#
#
# Elastic Constant Matrix: (Units=GPa)
#
#
# Indices 1 2 3 4 5 6 
#
# 1 119.2030 18.3302 31.9504 0.0000 0.0000 0.0000
# 2 18.3302 19.7418 12.7765 0.0000 0.0000 0.0000
# 3 31.9504 12.7765 39.1259 0.0000 0.0000 0.0000
# 4 0.0000 0.0000 0.0000 20.0675 0.0000 0.0000
# 5 0.0000 0.0000 0.0000 0.0000 9.3738 0.0000
# 6 0.0000 0.0000 0.0000 0.0000 0.0000 -236.7890
#
#
#
# Elastic Compliance Matrix: (Units=1/GPa)
#
#
# Indices 1 2 3 4 5 6 
#
# 1 0.011222 -0.005692 -0.007306 0.000000 0.000000 0.000000
# 2 -0.005692 0.067114 -0.017268 0.000000 0.000000 0.000000
# 3 -0.007306 -0.017268 0.037163 0.000000 0.000000 0.000000
# 4 0.000000 0.000000 0.000000 0.049832 0.000000 0.000000
# 5 0.000000 0.000000 0.000000 0.000000 0.106681 0.000000
# 6 0.000000 0.000000 0.000000 0.000000 0.000000 -0.004223
#
#
# Mechanical properties :
#
#
# Convention : Reuss Voigt Hill
#
# Bulk Modulus (GPa) = 18.19210 33.79833 25.99521
# Shear Modulus (GPa) = 14.42404 -33.80197 -9.68897
#
# Velocity S-wave (km/s) = 2.85268 -4.36698 -2.33802
# Velocity P-wave (km/s) = 4.59501 2.52168 2.71617
#
# Compressibility (1/GPa) = 0.05496892
#
# Stress axis : x y z
#
# Youngs Moduli (GPa) = 89.10686 14.89992 26.90843
#
# Poissons Ratio (x) = 0.08481 0.19658
# Poissons Ratio (y) = 0.50720 0.46465
# Poissons Ratio (z) = 0.65098 0.25729
#
# Static dielectric constant tensor:
#      x y z
#    x 1.677880 0.000000 0.000000 
#    y 0.000000 1.645570 0.000000 
#    z 0.000000 0.000000 1.579210 
# 
# From -- ./inp_files/49030.got.cif
#   From: 2010.05.17/outbox.cif.g08.bks.cpg/sg74_25_cif.got.tgz:49030.got - 2010.06.03 17:57:02.
