data_PCOD9534222
_publ_section_title
;
Structure prediction by ZEFSAII (Michael W. Deem and Ramdas Pophale) SiO2 
 PCOD9534222
Probable space group: I M M A
;
_chemical_formula_sum "Si O2"
_cell_formula_units_Z 80
_cell_length_a 7.369757
_cell_length_b 23.998061
_cell_length_c 19.790842
_cell_angle_alpha 90.000000
_cell_angle_beta 90.000000
_cell_angle_gamma 90.000000
_cell_volume 3500.205902
_symmetry_space_group_name_H-M "I M M A"
_symmetry_group_IT_number 74
_symmetry_cell_setting 'orthorhombic'
loop_
_space_group_symop_operation_xyz
x,y,z
-x,1/2-y,z
x,-y,-z
-x,1/2+y,-z
-x,-y,-z
x,1/2+y,-z
-x,y,z
x,1/2-y,z
1/2+x,1/2+y,1/2+z
1/2-x,-y,1/2+z
1/2+x,1/2-y,1/2-z
1/2-x,y,1/2-z
1/2-x,1/2-y,1/2-z
1/2+x,y,1/2-z
1/2-x,1/2+y,1/2+z
1/2+x,-y,1/2+z
loop_
_atom_site_type_symbol
_atom_site_label
_atom_site_fract_x
_atom_site_fract_y
_atom_site_fract_z
Si Si1 0.278483 0.750000 0.354733
Si Si2 0.279030 0.874156 0.559986
Si Si3 0.215111 0.366474 0.819724
Si Si4 0.779423 0.750000 0.986874
Si Si5 0.779306 0.053561 0.932353
Si Si6 0.783667 0.544786 0.830395
O O1 0.500000 0.750000 0.351603
O O2 0.208332 0.695056 0.319237
O O3 0.232872 0.750000 0.433736
O O4 0.500000 0.872567 0.555545
O O5 0.219963 0.810548 0.543141
O O6 0.224321 0.923545 0.506321
O O7 0.226404 0.897231 0.633886
O O8 0.250000 0.397449 0.750000
O O9 0.279345 0.395104 0.886421
O O10 0.000000 0.364089 0.826581
O O11 0.000000 0.750000 0.982285
O O12 0.000000 0.047629 0.936887
O O13 0.717774 0.003035 0.883191
O O14 0.750000 0.539347 0.750000
O O15 0.000000 0.541893 0.835550
#
# Coordination Sequence:
#
# PCOD9534222 Si02
#       6
#     8  16  16   8  16  16
#     4   9  15  25  40  61  91 120 149 192 237 270
#     4   9  16  28  49  74  96 121 159 204 241 275
#     4  10  18  27  41  63  92 125 155 186 228 276
#     4   9  14  25  46  73  97 116 153 208 248 272
#     4   9  16  28  47  70  95 123 157 196 234 273
#     4  10  20  33  50  73 100 127 157 196 241 286
#
# _framework density 22.855798
#
# number of rings (size 3 to 8) (size 9 to 14) (size 15 to 20)
#    0.000    2.600    2.000    1.500    0.000    2.400 
#    0.000    0.500    0.000    3.600    0.000    0.000 
#    0.000    0.000    0.000    0.000    0.000    0.000 
#
# Total GULP energy -222685.154423 kJ/mol
# GULP energy per Si atom -5567.128861 kJ/mol
# Density = 2.280378 g / cm^3
# Si number density = 22.855798 Si / 1000 Ang^3
#
#
#
# Elastic Constant Matrix: (Units=GPa)
#
#
# Indices 1 2 3 4 5 6 
#
# 1 77.1506 2.6263 -0.2447 0.0000 0.0000 0.0000
# 2 2.6263 114.6796 104.1402 0.0000 0.0000 0.0000
# 3 -0.2447 104.1402 167.0489 -0.0001 0.0000 0.0001
# 4 0.0000 0.0000 -0.0001 233.3263 0.0000 0.0000
# 5 0.0000 0.0000 0.0000 0.0000 8.1155 0.0000
# 6 0.0000 0.0000 0.0001 0.0000 0.0000 -15.8472
#
#
#
# Elastic Compliance Matrix: (Units=1/GPa)
#
#
# Indices 1 2 3 4 5 6 
#
# 1 0.012988 -0.000725 0.000471 0.000000 0.000000 0.000000
# 2 -0.000725 0.020138 -0.012555 0.000000 0.000000 0.000000
# 3 0.000471 -0.012555 0.013814 0.000000 0.000000 0.000000
# 4 0.000000 0.000000 0.000000 0.004286 0.000000 0.000000
# 5 0.000000 0.000000 0.000000 0.000000 0.123221 0.000000
# 6 0.000000 0.000000 0.000000 0.000000 0.000000 -0.063103
#
#
# Mechanical properties :
#
#
# Convention : Reuss Voigt Hill
#
# Bulk Modulus (GPa) = 46.90202 63.54695 55.22449
# Shear Modulus (GPa) = 34.70528 61.94274 48.32401
#
# Velocity S-wave (km/s) = 3.90095 5.21156 4.60314
# Velocity P-wave (km/s) = 6.39181 8.00485 7.24337
#
# Compressibility (1/GPa) = 0.02132104
#
# Stress axis : x y z
#
# Youngs Moduli (GPa) = 76.99504 49.65733 72.38983
#
# Poissons Ratio (x) = 0.03602 -0.03411
# Poissons Ratio (y) = 0.05585 0.90888
# Poissons Ratio (z) = -0.03628 0.62346
#
# Static dielectric constant tensor:
#      x y z
#    x 1.909960 0.000000 0.000000 
#    y 0.000000 1.917400 0.000000 
#    z 0.000000 0.000000 1.899330 
# 
# From -- ./inp_files/30940.got.cif
#   From: 2010.05.17/outbox.cif.g08.bks.cpg/sg74_16_cif.got.tgz:30940.got - 2010.06.03 17:57:02.
