data_PCOD9534823
_publ_section_title
;
Structure prediction by ZEFSAII (Michael W. Deem and Ramdas Pophale) SiO2 
 PCOD9534823
Probable space group: I M M A
;
_chemical_formula_sum "Si O2"
_cell_formula_units_Z 112
_cell_length_a 28.434684
_cell_length_b 14.889139
_cell_length_c 13.259205
_cell_angle_alpha 90.000000
_cell_angle_beta 90.000000
_cell_angle_gamma 90.000000
_cell_volume 5613.522605
_symmetry_space_group_name_H-M "I M M A"
_symmetry_group_IT_number 74
_symmetry_cell_setting 'orthorhombic'
loop_
_space_group_symop_operation_xyz
x,y,z
-x,1/2-y,z
x,-y,-z
-x,1/2+y,-z
-x,-y,-z
x,1/2+y,-z
-x,y,z
x,1/2-y,z
1/2+x,1/2+y,1/2+z
1/2-x,-y,1/2+z
1/2+x,1/2-y,1/2-z
1/2-x,y,1/2-z
1/2-x,1/2-y,1/2-z
1/2+x,y,1/2-z
1/2-x,1/2+y,1/2+z
1/2+x,-y,1/2+z
loop_
_atom_site_type_symbol
_atom_site_label
_atom_site_fract_x
_atom_site_fract_y
_atom_site_fract_z
Si Si1 0.618278 0.418133 0.080028
Si Si2 0.638625 0.035984 0.646632
Si Si3 0.946170 0.501219 0.739365
Si Si4 0.786108 0.643767 0.535451
Si Si5 0.824226 0.140443 0.049907
Si Si6 0.948622 0.154026 0.573367
Si Si7 0.198684 0.856023 0.300733
O O1 0.586992 0.428940 0.179444
O O2 0.615824 0.500000 0.000000
O O3 0.672813 0.400258 0.100410
O O4 0.591990 0.346960 0.009062
O O5 0.654548 0.933225 0.626514
O O6 0.582742 0.031157 0.663550
O O7 0.655939 0.101940 0.556767
O O8 0.662011 0.079610 0.745776
O O9 0.946172 0.420704 0.658170
O O10 0.000000 0.528679 0.757145
O O11 0.790879 0.750000 0.547802
O O12 0.731873 0.622911 0.554652
O O13 0.796900 0.622480 0.418548
O O14 0.831666 0.250000 0.060095
O O15 0.947686 0.250000 0.625439
O O16 0.000000 0.141861 0.522031
O O17 0.185903 0.750000 0.290179
O O18 0.250000 0.866850 0.250000
#
# Coordination Sequence:
#
# PCOD9534823 Si02
#       7
#    16  16  16  16  16  16  16
#     4  10  19  30  52  80 115 157 185 219 270 347
#     4  11  22  37  64  87 110 159 194 242 307 358
#     4  10  22  39  57  84 115 146 196 253 300 345
#     4  10  20  35  55  83 120 154 186 235 283 339
#     4  10  23  42  60  84 118 153 195 245 298 358
#     4   9  17  31  52  80 116 153 189 233 284 338
#     4  10  18  31  56  92 125 154 197 246 289 342
#
# _framework density 19.951820999999999
#
# number of rings (size 3 to 8) (size 9 to 14) (size 15 to 20)
#    0.000    2.000    1.429    3.000    2.000    5.143 
#    0.000    2.857    0.000    5.143    0.000    0.000 
#    0.000    0.000    0.000    0.000    0.000    0.000 
#
# Total GULP energy -312149.039232 kJ/mol
# GULP energy per Si atom -5574.089986 kJ/mol
# Density = 1.990641 g / cm^3
# Si number density = 19.951821 Si / 1000 Ang^3
#
#
#
# Elastic Constant Matrix: (Units=GPa)
#
#
# Indices 1 2 3 4 5 6 
#
# 1 147.6771 35.3014 37.8116 0.0000 0.0000 0.0000
# 2 35.3014 72.2984 15.5539 0.0000 0.0000 0.0000
# 3 37.8116 15.5539 19.7727 0.0000 0.0000 0.0000
# 4 0.0000 0.0000 0.0000 15.3686 0.0000 0.0000
# 5 0.0000 0.0000 0.0000 0.0000 2.7476 0.0000
# 6 0.0000 0.0000 0.0000 0.0000 0.0000 28.7785
#
#
#
# Elastic Compliance Matrix: (Units=1/GPa)
#
#
# Indices 1 2 3 4 5 6 
#
# 1 0.013359 -0.001236 -0.024575 0.000000 0.000000 0.000000
# 2 -0.001236 0.016764 -0.010823 0.000000 0.000000 0.000000
# 3 -0.024575 -0.010823 0.106083 0.000000 0.000000 0.000000
# 4 0.000000 0.000000 0.000000 0.065068 0.000000 0.000000
# 5 0.000000 0.000000 0.000000 0.000000 0.363953 0.000000
# 6 0.000000 0.000000 0.000000 0.000000 0.000000 0.034748
#
#
# Mechanical properties :
#
#
# Convention : Reuss Voigt Hill
#
# Bulk Modulus (GPa) = 15.88858 46.34245 31.11551
# Shear Modulus (GPa) = 7.20231 19.45103 13.32667
#
# Velocity S-wave (km/s) = 1.90202 3.12573 2.58726
# Velocity P-wave (km/s) = 3.57832 6.02532 4.95524
#
# Compressibility (1/GPa) = 0.06293829
#
# Stress axis : x y z
#
# Youngs Moduli (GPa) = 74.85508 59.65331 9.42657
#
# Poissons Ratio (x) = 0.07374 0.23165
# Poissons Ratio (y) = 0.09253 0.10202
# Poissons Ratio (z) = 1.83953 0.64563
#
# Static dielectric constant tensor:
#      x y z
#    x 1.762510 0.000000 0.000000 
#    y 0.000000 1.762800 0.000000 
#    z 0.000000 0.000000 1.717740 
# 
# From -- ./inp_files/37417.got.cif
#   From: 2010.05.17/outbox.cif.g08.bks.cpg/sg74_19_cif.got.tgz:37417.got - 2010.06.03 17:57:02.
