data_PCOD9534638
_publ_section_title
;
Structure prediction by ZEFSAII (Michael W. Deem and Ramdas Pophale) SiO2 
 PCOD9534638
Probable space group: I M M A
;
_chemical_formula_sum "Si O2"
_cell_formula_units_Z 72
_cell_length_a 17.407658
_cell_length_b 16.168693
_cell_length_c 14.350155
_cell_angle_alpha 90.000000
_cell_angle_beta 90.000000
_cell_angle_gamma 90.000000
_cell_volume 4038.981396
_symmetry_space_group_name_H-M "I M M A"
_symmetry_group_IT_number 74
_symmetry_cell_setting 'orthorhombic'
loop_
_space_group_symop_operation_xyz
x,y,z
-x,1/2-y,z
x,-y,-z
-x,1/2+y,-z
-x,-y,-z
x,1/2+y,-z
-x,y,z
x,1/2-y,z
1/2+x,1/2+y,1/2+z
1/2-x,-y,1/2+z
1/2+x,1/2-y,1/2-z
1/2-x,y,1/2-z
1/2-x,1/2-y,1/2-z
1/2+x,y,1/2-z
1/2-x,1/2+y,1/2+z
1/2+x,-y,1/2+z
loop_
_atom_site_type_symbol
_atom_site_label
_atom_site_fract_x
_atom_site_fract_y
_atom_site_fract_z
Si Si1 0.657487 0.839124 0.730989
Si Si2 0.702937 0.000000 0.000000
Si Si3 0.337421 0.516001 0.207039
Si Si4 0.409280 0.155733 0.666023
Si Si5 0.188600 0.656927 0.979033
O O1 0.627909 0.750000 0.765609
O O2 0.750000 0.837909 0.750000
O O3 0.645795 0.843205 0.619928
O O4 0.629198 0.924819 0.772658
O O5 0.661866 0.975000 0.095798
O O6 0.753231 0.919256 0.974915
O O7 0.250000 0.517955 0.250000
O O8 0.381097 0.588317 0.260560
O O9 0.500000 0.148548 0.651121
O O10 0.392454 0.250000 0.697572
O O11 0.365390 0.144012 0.568114
O O12 0.223333 0.750000 0.987347
#
# Coordination Sequence:
#
# PCOD9534638 Si02
#       5
#    16   8  16  16  16
#     4   9  16  29  49  75 108 142 172 215 270 328
#     4  12  20  32  50  86 112 134 182 242 272 324
#     4  11  20  33  56  79 112 142 185 231 278 324
#     4  10  22  39  56  79 114 152 186 225 277 333
#     4  10  18  30  52  79 107 139 179 223 274 328
#
# _framework density 17.826277000000001
#
# number of rings (size 3 to 8) (size 9 to 14) (size 15 to 20)
#    0.000    1.778    6.667    0.000    0.000    1.333 
#    0.000    5.556    0.000    2.000    0.000    0.000 
#    0.000    0.000    0.000    0.000    0.000    0.000 
#
# Total GULP energy -200534.194400 kJ/mol
# GULP energy per Si atom -5570.394289 kJ/mol
# Density = 1.778570 g / cm^3
# Si number density = 17.826277 Si / 1000 Ang^3
#
#
#
# Elastic Constant Matrix: (Units=GPa)
#
#
# Indices 1 2 3 4 5 6 
#
# 1 13.5365 18.1381 9.8950 0.0000 0.0000 0.0000
# 2 18.1381 83.5408 13.9486 0.0000 0.0000 0.0000
# 3 9.8950 13.9486 97.0337 0.0000 0.0000 0.0000
# 4 0.0000 0.0000 0.0000 26.4560 0.0000 0.0000
# 5 0.0000 0.0000 0.0000 0.0000 4.1672 0.0000
# 6 0.0000 0.0000 0.0000 0.0000 0.0000 14.4672
#
#
#
# Elastic Compliance Matrix: (Units=1/GPa)
#
#
# Indices 1 2 3 4 5 6 
#
# 1 0.109883 -0.022527 -0.007967 0.000000 0.000000 0.000000
# 2 -0.022527 0.016883 -0.000130 0.000000 0.000000 0.000000
# 3 -0.007967 -0.000130 0.011137 0.000000 0.000000 0.000000
# 4 0.000000 0.000000 0.000000 0.037799 0.000000 0.000000
# 5 0.000000 0.000000 0.000000 0.000000 0.239969 0.000000
# 6 0.000000 0.000000 0.000000 0.000000 0.000000 0.069122
#
#
# Mechanical properties :
#
#
# Convention : Reuss Voigt Hill
#
# Bulk Modulus (GPa) = 13.04550 30.89714 21.97132
# Shear Modulus (GPa) = 8.74751 19.16005 13.95378
#
# Velocity S-wave (km/s) = 2.21760 3.28200 2.80083
# Velocity P-wave (km/s) = 3.72706 5.63312 4.77614
#
# Compressibility (1/GPa) = 0.07665481
#
# Stress axis : x y z
#
# Youngs Moduli (GPa) = 9.10060 59.23167 89.79257
#
# Poissons Ratio (x) = 1.33432 0.71538
# Poissons Ratio (y) = 0.20501 0.01165
# Poissons Ratio (z) = 0.07250 0.00768
#
# Static dielectric constant tensor:
#      x y z
#    x 1.601540 0.000000 0.000000 
#    y 0.000000 1.643250 0.000000 
#    z 0.000000 0.000000 1.634750 
# 
# From -- ./inp_files/33821.got.cif
#   From: 2010.05.17/outbox.cif.g08.bks.cpg/sg74_17_cif.got.tgz:33821.got - 2010.06.03 17:57:02.
