data_PCOD9534633
_publ_section_title
;
Structure prediction by ZEFSAII (Michael W. Deem and Ramdas Pophale) SiO2 
 PCOD9534633
Probable space group: I M M A
;
_chemical_formula_sum "Si O2"
_cell_formula_units_Z 96
_cell_length_a 16.286721
_cell_length_b 16.952197
_cell_length_c 20.073963
_cell_angle_alpha 90.000000
_cell_angle_beta 90.000000
_cell_angle_gamma 90.000000
_cell_volume 5542.334924
_symmetry_space_group_name_H-M "I M M A"
_symmetry_group_IT_number 74
_symmetry_cell_setting 'orthorhombic'
loop_
_space_group_symop_operation_xyz
x,y,z
-x,1/2-y,z
x,-y,-z
-x,1/2+y,-z
-x,-y,-z
x,1/2+y,-z
-x,y,z
x,1/2-y,z
1/2+x,1/2+y,1/2+z
1/2-x,-y,1/2+z
1/2+x,1/2-y,1/2-z
1/2-x,y,1/2-z
1/2-x,1/2-y,1/2-z
1/2+x,y,1/2-z
1/2-x,1/2+y,1/2+z
1/2+x,-y,1/2+z
loop_
_atom_site_type_symbol
_atom_site_label
_atom_site_fract_x
_atom_site_fract_y
_atom_site_fract_z
Si Si1 0.677480 0.582098 0.919319
Si Si2 0.402786 0.009194 0.305042
Si Si3 0.171814 0.541690 0.062497
Si Si4 0.189755 0.656140 0.443395
Si Si5 0.794423 0.164066 0.179099
Si Si6 0.403994 0.950872 0.160243
O O1 0.749768 0.517168 0.929248
O O2 0.723352 0.646711 0.874682
O O3 0.609357 0.533038 0.879755
O O4 0.650517 0.618543 0.989418
O O5 0.500000 0.019729 0.299807
O O6 0.358509 0.092748 0.317384
O O7 0.379149 0.958901 0.369970
O O8 0.374544 0.969027 0.235675
O O9 0.215657 0.625601 0.051474
O O10 0.126846 0.500000 0.000000
O O11 0.183549 0.750000 0.442260
O O12 0.147184 0.615635 0.379257
O O13 0.831929 0.250000 0.166279
O O14 0.750000 0.164779 0.250000
O O15 0.500000 0.929982 0.161482
#
# Coordination Sequence:
#
# PCOD9534633 Si02
#       6
#    16  16  16  16  16  16
#     4   9  17  32  52  74  99 132 170 206 246 307
#     4  10  20  34  53  75 104 138 171 206 246 302
#     4   8  17  33  54  77  99 129 166 209 252 305
#     4  10  20  33  52  75 100 130 171 221 261 296
#     4  10  18  30  52  77 102 131 162 203 251 299
#     4  10  20  34  50  71 102 139 174 209 251 301
#
# _framework density 17.321218999999999
#
# number of rings (size 3 to 8) (size 9 to 14) (size 15 to 20)
#    0.000    2.500    1.667    2.000    0.000    2.333 
#    0.000    1.667    0.000    3.000    0.000    0.000 
#    0.000    0.000    0.000    0.000    0.000    0.000 
#
# Total GULP energy -267221.787634 kJ/mol
# GULP energy per Si atom -5567.120576 kJ/mol
# Density = 1.728180 g / cm^3
# Si number density = 17.321219 Si / 1000 Ang^3
#
#
#
# Elastic Constant Matrix: (Units=GPa)
#
#
# Indices 1 2 3 4 5 6 
#
# 1 24.5237 12.6238 13.2949 0.0000 0.0000 0.0000
# 2 12.6238 84.2971 36.3708 0.0000 0.0000 0.0000
# 3 13.2949 36.3708 118.9529 0.0000 0.0000 0.0000
# 4 0.0000 0.0000 0.0000 8.4922 0.0000 0.0000
# 5 0.0000 0.0000 0.0000 0.0000 5.3775 0.0000
# 6 0.0000 0.0000 0.0000 0.0000 0.0000 12.4088
#
#
#
# Elastic Compliance Matrix: (Units=1/GPa)
#
#
# Indices 1 2 3 4 5 6 
#
# 1 0.045379 -0.005308 -0.003449 0.000000 0.000000 0.000000
# 2 -0.005308 0.014286 -0.003775 0.000000 0.000000 0.000000
# 3 -0.003449 -0.003775 0.009946 0.000000 0.000000 0.000000
# 4 0.000000 0.000000 0.000000 0.117755 0.000000 0.000000
# 5 0.000000 0.000000 0.000000 0.000000 0.185959 0.000000
# 6 0.000000 0.000000 0.000000 0.000000 0.000000 0.080588
#
#
# Mechanical properties :
#
#
# Convention : Reuss Voigt Hill
#
# Bulk Modulus (GPa) = 22.44741 39.15028 30.79884
# Shear Modulus (GPa) = 10.12501 16.28799 13.20650
#
# Velocity S-wave (km/s) = 2.42036 3.06984 2.76424
# Velocity P-wave (km/s) = 4.56053 5.93437 5.29222
#
# Compressibility (1/GPa) = 0.04454857
#
# Stress axis : x y z
#
# Youngs Moduli (GPa) = 22.03673 69.99673 100.53902
#
# Poissons Ratio (x) = 0.37151 0.34676
# Poissons Ratio (y) = 0.11696 0.37953
# Poissons Ratio (z) = 0.07600 0.26424
#
# Static dielectric constant tensor:
#      x y z
#    x 1.587650 0.000000 0.000000 
#    y 0.000000 1.605470 0.000000 
#    z 0.000000 0.000000 1.656600 
# 
# From -- ./inp_files/44125.got.cif
#   From: 2010.05.17/outbox.cif.g08.bks.cpg/sg74_23_cif.got.tgz:44125.got - 2010.06.03 17:57:02.
