data_PCOD9534323
_publ_section_title
;
Structure prediction by ZEFSAII (Michael W. Deem and Ramdas Pophale) SiO2 
 PCOD9534323
Probable space group: I M M A
;
_chemical_formula_sum "Si O2"
_cell_formula_units_Z 88
_cell_length_a 9.611566
_cell_length_b 20.051631
_cell_length_c 20.255162
_cell_angle_alpha 90.000000
_cell_angle_beta 90.000000
_cell_angle_gamma 90.000000
_cell_volume 3903.728249
_symmetry_space_group_name_H-M "I M M A"
_symmetry_group_IT_number 74
_symmetry_cell_setting 'orthorhombic'
loop_
_space_group_symop_operation_xyz
x,y,z
-x,1/2-y,z
x,-y,-z
-x,1/2+y,-z
-x,-y,-z
x,1/2+y,-z
-x,y,z
x,1/2-y,z
1/2+x,1/2+y,1/2+z
1/2-x,-y,1/2+z
1/2+x,1/2-y,1/2-z
1/2-x,y,1/2-z
1/2-x,1/2-y,1/2-z
1/2+x,y,1/2-z
1/2-x,1/2+y,1/2+z
1/2+x,-y,1/2+z
loop_
_atom_site_type_symbol
_atom_site_label
_atom_site_fract_x
_atom_site_fract_y
_atom_site_fract_z
Si Si1 0.842750 0.172885 0.055770
Si Si2 0.156731 0.483993 0.188203
Si Si3 0.659282 0.852812 0.313618
Si Si4 0.834145 0.250000 0.182212
Si Si5 0.843958 0.991091 0.573050
Si Si6 0.656657 0.855901 0.065907
O O1 0.852158 0.250000 0.031303
O O2 0.805781 0.187140 0.132831
O O3 0.000000 0.144223 0.050020
O O4 0.728422 0.143082 0.006348
O O5 0.250000 0.464316 0.250000
O O6 0.151408 0.565376 0.186828
O O7 0.234222 0.460496 0.122281
O O8 0.000000 0.459383 0.193470
O O9 0.500000 0.829992 0.310018
O O10 0.750000 0.833904 0.250000
O O11 0.736903 0.828284 0.379730
O O12 0.750000 0.250000 0.250000
O O13 0.000000 0.250000 0.194685
O O14 0.861154 0.068480 0.592085
O O15 0.000000 0.961175 0.571939
O O16 0.787690 0.000000 0.500000
O O17 0.500000 0.827580 0.062835
#
# Coordination Sequence:
#
# PCOD9534323 Si02
#       6
#    16  16  16   8  16  16
#     4   8  17  32  48  69  96 124 150 183 233 282
#     4   9  16  26  42  63  85 112 149 191 231 269
#     4   9  16  26  41  62  89 119 152 191 229 267
#     4   8  16  30  50  74  97 120 149 186 230 278
#     4   9  18  31  45  64  93 125 155 192 234 276
#     4  10  18  28  46  70  93 121 157 194 233 276
#
# _framework density 22.542552000000001
#
# number of rings (size 3 to 8) (size 9 to 14) (size 15 to 20)
#    0.545    2.545    0.000    1.636    0.000    6.545 
#    0.000    0.000    0.000    1.636    0.000    2.545 
#    0.000    0.000    0.000    0.000    0.000    0.000 
#
# Total GULP energy -245153.140930 kJ/mol
# GULP energy per Si atom -5571.662294 kJ/mol
# Density = 2.249124 g / cm^3
# Si number density = 22.542552 Si / 1000 Ang^3
#
#
#
# Elastic Constant Matrix: (Units=GPa)
#
#
# Indices 1 2 3 4 5 6 
#
# 1 202.9004 9.8780 154.0437 0.0000 0.0000 0.0000
# 2 9.8780 50.3598 -8.9787 0.0000 0.0000 0.0000
# 3 154.0437 -8.9787 206.7093 0.0000 0.0000 0.0000
# 4 0.0000 0.0000 0.0000 11.5615 0.0000 0.0000
# 5 0.0000 0.0000 0.0000 0.0000 40.0232 0.0000
# 6 0.0000 0.0000 0.0000 0.0000 0.0000 128.4991
#
#
#
# Elastic Compliance Matrix: (Units=1/GPa)
#
#
# Indices 1 2 3 4 5 6 
#
# 1 0.012105 -0.004014 -0.009195 0.000000 0.000000 0.000000
# 2 -0.004014 0.021343 0.003918 0.000000 0.000000 0.000000
# 3 -0.009195 0.003918 0.011860 0.000000 0.000000 0.000000
# 4 0.000000 0.000000 0.000000 0.086494 0.000000 0.000000
# 5 0.000000 0.000000 0.000000 0.000000 0.024986 0.000000
# 6 0.000000 0.000000 0.000000 0.000000 0.000000 0.007782
#
#
# Mechanical properties :
#
#
# Convention : Reuss Voigt Hill
#
# Bulk Modulus (GPa) = 37.41569 85.53951 61.47760
# Shear Modulus (GPa) = 26.03345 56.35185 41.19265
#
# Velocity S-wave (km/s) = 3.40201 5.00522 4.27936
# Velocity P-wave (km/s) = 5.66263 8.45170 7.19363
#
# Compressibility (1/GPa) = 0.02672676
#
# Stress axis : x y z
#
# Youngs Moduli (GPa) = 82.61011 46.85375 84.31426
#
# Poissons Ratio (x) = 0.18806 0.77529
# Poissons Ratio (y) = 0.33158 -0.33036
# Poissons Ratio (z) = 0.75962 -0.18358
#
# Static dielectric constant tensor:
#      x y z
#    x 1.833830 0.000000 0.000000 
#    y 0.000000 1.977980 0.000000 
#    z 0.000000 0.000000 1.807230 
# 
# From -- ./inp_files/49500.got.cif
#   From: 2010.05.17/outbox.cif.g08.bks.cpg/sg74_25_cif.got.tgz:49500.got - 2010.06.03 17:57:02.
