data_PCOD9534166
_publ_section_title
;
Structure prediction by ZEFSAII (Michael W. Deem and Ramdas Pophale) SiO2 
 PCOD9534166
Probable space group: I M M A
;
_chemical_formula_sum "Si O2"
_cell_formula_units_Z 56
_cell_length_a 10.651426
_cell_length_b 32.208069
_cell_length_c 6.683755
_cell_angle_alpha 90.000000
_cell_angle_beta 90.000000
_cell_angle_gamma 90.000000
_cell_volume 2292.941446
_symmetry_space_group_name_H-M "I M M A"
_symmetry_group_IT_number 74
_symmetry_cell_setting 'orthorhombic'
loop_
_space_group_symop_operation_xyz
x,y,z
-x,1/2-y,z
x,-y,-z
-x,1/2+y,-z
-x,-y,-z
x,1/2+y,-z
-x,y,z
x,1/2-y,z
1/2+x,1/2+y,1/2+z
1/2-x,-y,1/2+z
1/2+x,1/2-y,1/2-z
1/2-x,y,1/2-z
1/2-x,1/2-y,1/2-z
1/2+x,y,1/2-z
1/2-x,1/2+y,1/2+z
1/2+x,-y,1/2+z
loop_
_atom_site_type_symbol
_atom_site_label
_atom_site_fract_x
_atom_site_fract_y
_atom_site_fract_z
Si Si1 0.270516 0.601018 0.989817
Si Si2 0.500000 0.391540 0.436664
Si Si3 0.138434 0.309450 0.606957
Si Si4 0.000000 0.205047 0.222929
Si Si5 0.500000 0.451334 0.040239
O O1 0.250000 0.604979 0.750000
O O2 0.126670 0.599766 0.057084
O O3 0.364613 0.564134 0.037123
O O4 0.334787 0.642584 0.066064
O O5 0.500000 0.341894 0.371705
O O6 0.500000 0.425429 0.253990
O O7 0.250000 0.294543 0.750000
O O8 0.117106 0.293777 0.380281
O O9 0.000000 0.303278 0.700845
O O10 0.000000 0.250000 0.113751
O O11 0.500000 0.500000 0.000000
#
# Coordination Sequence:
#
# PCOD9534166 Si02
#       5
#    16   8  16   8   8
#     4  10  17  38  62  85 117 161 198 245 312 354
#     4  10  20  37  67  88 118 167 195 256 311 353
#     4  10  20  36  55  85 118 160 198 248 299 358
#     4  10  20  39  62  89 123 160 208 253 302 363
#     4  10  18  34  62  81 118 159 187 238 308 364
#
# _framework density 24.422777
#
# number of rings (size 3 to 8) (size 9 to 14) (size 15 to 20)
#    0.857    1.143    7.143    0.000    2.000    0.571 
#    0.000    7.857    0.000    1.714    0.000    0.000 
#    0.000    0.000    0.000    0.000    0.000    0.000 
#
# Total GULP energy -155903.618634 kJ/mol
# GULP energy per Si atom -5567.986380 kJ/mol
# Density = 2.436719 g / cm^3
# Si number density = 24.422777 Si / 1000 Ang^3
#
#
#
# Elastic Constant Matrix: (Units=GPa)
#
#
# Indices 1 2 3 4 5 6 
#
# 1 245.9932 87.2000 18.6999 0.0007 -0.0029 0.0000
# 2 87.2000 249.0939 44.2295 -0.0027 0.0001 0.0042
# 3 18.6999 44.2295 102.2717 -0.0023 -0.0101 0.0273
# 4 0.0007 -0.0027 -0.0023 7.6020 0.0020 0.0019
# 5 -0.0029 0.0001 -0.0101 0.0020 2.0805 0.0023
# 6 0.0000 0.0042 0.0273 0.0019 0.0023 52.2741
#
#
#
# Elastic Compliance Matrix: (Units=1/GPa)
#
#
# Indices 1 2 3 4 5 6 
#
# 1 0.004643 -0.001597 -0.000158 -0.000001 0.000006 0.000000
# 2 -0.001597 0.004898 -0.001826 0.000001 -0.000011 0.000001
# 3 -0.000158 -0.001826 0.010597 0.000003 0.000051 -0.000005
# 4 -0.000001 0.000001 0.000003 0.131544 -0.000129 -0.000005
# 5 0.000006 -0.000011 0.000051 -0.000129 0.480656 -0.000022
# 6 0.000000 0.000001 -0.000005 -0.000005 -0.000022 0.019130
#
#
# Mechanical properties :
#
#
# Convention : Reuss Voigt Hill
#
# Bulk Modulus (GPa) = 77.07457 99.73530 88.40493
# Shear Modulus (GPa) = 7.54197 42.20660 24.87429
#
# Velocity S-wave (km/s) = 1.75920 4.16163 3.19484
# Velocity P-wave (km/s) = 5.97941 8.00112 7.06298
#
# Compressibility (1/GPa) = 0.01297445
#
# Stress axis : x y z
#
# Youngs Moduli (GPa) = 215.35757 204.16419 94.37017
#
# Poissons Ratio (x) = 0.32614 0.01493
# Poissons Ratio (y) = 0.34402 0.17234
# Poissons Ratio (z) = 0.03407 0.37284
#
# Static dielectric constant tensor:
#      x y z
#    x 2.053240 0.000000 -0.000010 
#    y 0.000000 1.902870 -0.000010 
#    z -0.000010 -0.000010 2.066000 
# 
# From -- ./inp_files/7272.got.cif
#   From: 2010.05.17/outbox.cif.g08.bks.cpg/sg74_4_cif.got.tgz:7272.got - 2010.06.03 17:57:02.
