data_PCOD9534909
_publ_section_title
;
Structure prediction by ZEFSAII (Michael W. Deem and Ramdas Pophale) SiO2 
 PCOD9534909
Probable space group: I M M A
;
_chemical_formula_sum "Si O2"
_cell_formula_units_Z 116
_cell_length_a 7.559980
_cell_length_b 28.040057
_cell_length_c 29.384610
_cell_angle_alpha 90.000000
_cell_angle_beta 90.000000
_cell_angle_gamma 90.000000
_cell_volume 6229.016334
_symmetry_space_group_name_H-M "I M M A"
_symmetry_group_IT_number 74
_symmetry_cell_setting 'orthorhombic'
loop_
_space_group_symop_operation_xyz
x,y,z
-x,1/2-y,z
x,-y,-z
-x,1/2+y,-z
-x,-y,-z
x,1/2+y,-z
-x,y,z
x,1/2-y,z
1/2+x,1/2+y,1/2+z
1/2-x,-y,1/2+z
1/2+x,1/2-y,1/2-z
1/2-x,y,1/2-z
1/2-x,1/2-y,1/2-z
1/2+x,y,1/2-z
1/2-x,1/2+y,1/2+z
1/2+x,-y,1/2+z
loop_
_atom_site_type_symbol
_atom_site_label
_atom_site_fract_x
_atom_site_fract_y
_atom_site_fract_z
Si Si1 0.715509 0.985790 0.050142
Si Si2 0.205153 0.676120 0.945302
Si Si3 0.000000 0.250000 0.415406
Si Si4 0.712176 0.438711 0.800802
Si Si5 0.211340 0.104725 0.605702
Si Si6 0.786081 0.580198 0.604422
Si Si7 0.288376 0.451869 0.199491
Si Si8 0.211392 0.696321 0.048928
O O1 0.500000 0.983550 0.048165
O O2 0.761275 0.028767 0.083868
O O3 0.778328 0.935484 0.070311
O O4 0.777821 0.000000 0.000000
O O5 0.343367 0.708714 0.918470
O O6 0.213590 0.622895 0.925743
O O7 0.000000 0.692301 0.942963
O O8 0.264295 0.679241 0.998306
O O9 0.500000 0.441240 0.804453
O O10 0.750000 0.420404 0.750000
O O11 0.777783 0.408040 0.843646
O O12 0.779769 0.493457 0.803631
O O13 0.243678 0.157164 0.586484
O O14 0.000000 0.098956 0.607215
O O15 0.726263 0.579323 0.656957
O O16 0.000000 0.583945 0.602671
O O17 0.500000 0.454826 0.194989
O O18 0.250000 0.433599 0.250000
O O19 0.281172 0.750000 0.056507
O O20 0.000000 0.699149 0.048229
#
# Coordination Sequence:
#
# PCOD9534909 Si02
#       8
#    16  16   4  16  16  16  16  16
#     4   9  16  27  45  73 108 145 181 216 263 335
#     4  11  23  38  58  87 117 146 193 243 279 337
#     4  12  22  40  64  82 112 156 198 232 298 326
#     4   9  17  31  49  75 106 142 183 229 272 332
#     4  10  19  31  52  79 104 140 188 230 273 336
#     4  10  18  32  53  79 113 151 186 224 280 338
#     4   9  17  30  50  75 111 146 184 226 272 332
#     4  10  22  38  53  75 110 141 181 237 284 328
#
# _framework density 18.622523000000001
#
# number of rings (size 3 to 8) (size 9 to 14) (size 15 to 20)
#    0.000    2.207    2.759    1.034    0.966    2.483 
#    0.000    0.690    0.000    2.897    0.000    0.483 
#    0.000    0.000    0.000    0.000    0.000    0.000 
#
# Total GULP energy -323033.580880 kJ/mol
# GULP energy per Si atom -5569.544498 kJ/mol
# Density = 1.858014 g / cm^3
# Si number density = 18.622523 Si / 1000 Ang^3
#
#
#
# Elastic Constant Matrix: (Units=GPa)
#
#
# Indices 1 2 3 4 5 6 
#
# 1 62.0295 5.9147 3.2553 0.0000 0.0000 0.0000
# 2 5.9147 107.5222 61.0563 0.0000 0.0000 0.0000
# 3 3.2553 61.0563 122.4126 0.0000 0.0000 0.0000
# 4 0.0000 0.0000 0.0000 10.1945 0.0000 0.0000
# 5 0.0000 0.0000 0.0000 0.0000 16.7283 0.0000
# 6 0.0000 0.0000 0.0000 0.0000 0.0000 -5.1966
#
#
#
# Elastic Compliance Matrix: (Units=1/GPa)
#
#
# Indices 1 2 3 4 5 6 
#
# 1 0.016206 -0.000902 0.000019 0.000000 0.000000 0.000000
# 2 -0.000902 0.013026 -0.006473 0.000000 0.000000 0.000000
# 3 0.000019 -0.006473 0.011397 0.000000 0.000000 0.000000
# 4 0.000000 0.000000 0.000000 0.098092 0.000000 0.000000
# 5 0.000000 0.000000 0.000000 0.000000 0.059779 0.000000
# 6 0.000000 0.000000 0.000000 0.000000 0.000000 -0.192432
#
#
# Mechanical properties :
#
#
# Convention : Reuss Voigt Hill
#
# Bulk Modulus (GPa) = 38.58484 48.04630 43.31557
# Shear Modulus (GPa) = 169.95829 19.12778 94.54303
#
# Velocity S-wave (km/s) = 9.56363 3.20837 7.13290
# Velocity P-wave (km/s) = 11.94634 6.29134 9.54715
#
# Compressibility (1/GPa) = 0.02591691
#
# Stress axis : x y z
#
# Youngs Moduli (GPa) = 61.70402 76.77159 87.74169
#
# Poissons Ratio (x) = 0.06927 -0.00168
# Poissons Ratio (y) = 0.05568 0.56794
# Poissons Ratio (z) = -0.00118 0.49693
#
# Static dielectric constant tensor:
#      x y z
#    x 1.703670 0.000000 0.000000 
#    y 0.000000 1.647510 0.000000 
#    z 0.000000 0.000000 1.664150 
# 
# From -- ./inp_files/71044.got.cif
#   From: 2010.05.17/outbox.cif.g08.bks.cpg/sg74_36_cif.got.tgz:71044.got - 2010.06.03 17:57:02.
