data_PCOD9534780
_publ_section_title
;
Structure prediction by ZEFSAII (Michael W. Deem and Ramdas Pophale) SiO2 
 PCOD9534780
Probable space group: I M M A
;
_chemical_formula_sum "Si O2"
_cell_formula_units_Z 72
_cell_length_a 14.923235
_cell_length_b 15.135234
_cell_length_c 15.994921
_cell_angle_alpha 90.000000
_cell_angle_beta 90.000000
_cell_angle_gamma 90.000000
_cell_volume 3612.719283
_symmetry_space_group_name_H-M "I M M A"
_symmetry_group_IT_number 74
_symmetry_cell_setting 'orthorhombic'
loop_
_space_group_symop_operation_xyz
x,y,z
-x,1/2-y,z
x,-y,-z
-x,1/2+y,-z
-x,-y,-z
x,1/2+y,-z
-x,y,z
x,1/2-y,z
1/2+x,1/2+y,1/2+z
1/2-x,-y,1/2+z
1/2+x,1/2-y,1/2-z
1/2-x,y,1/2-z
1/2-x,1/2-y,1/2-z
1/2+x,y,1/2-z
1/2-x,1/2+y,1/2+z
1/2+x,-y,1/2+z
loop_
_atom_site_type_symbol
_atom_site_label
_atom_site_fract_x
_atom_site_fract_y
_atom_site_fract_z
Si Si1 0.686773 0.142631 0.514303
Si Si2 0.000000 0.419422 0.910116
Si Si3 0.500000 0.093224 0.313213
Si Si4 0.500000 0.421557 0.780642
Si Si5 0.699102 0.648155 0.670527
Si Si6 0.191148 0.856583 0.330470
O O1 0.682230 0.250000 0.510500
O O2 0.589646 0.110193 0.544021
O O3 0.712256 0.108874 0.421902
O O4 0.757544 0.117642 0.585321
O O5 0.000000 0.381817 0.814500
O O6 0.000000 0.475858 0.109014
O O7 0.407633 0.145213 0.314878
O O8 0.500000 0.026556 0.234893
O O9 0.591200 0.392896 0.823879
O O10 0.729830 0.750000 0.665670
O O11 0.750000 0.606768 0.750000
O O12 0.186464 0.750000 0.328301
O O13 0.250000 0.884552 0.250000
#
# Coordination Sequence:
#
# PCOD9534780 Si02
#       6
#    16   8   8   8  16  16
#     4  10  20  34  56  85 112 143 184 223 265 321
#     4  10  20  32  53  85 118 139 170 218 275 326
#     4  10  22  37  57  83 111 141 179 225 281 328
#     4  10  21  33  50  80 120 148 176 206 263 330
#     4  10  22  41  61  79 102 138 188 241 280 310
#     4  10  18  31  52  79 114 152 179 210 261 322
#
# _framework density 19.929587000000001
#
# number of rings (size 3 to 8) (size 9 to 14) (size 15 to 20)
#    0.667    1.333    2.222    1.667    0.000    7.111 
#    0.000    1.111    0.000    6.667    0.000    0.000 
#    0.000    0.000    0.000    0.000    0.000    0.000 
#
# Total GULP energy -200954.573552 kJ/mol
# GULP energy per Si atom -5582.071488 kJ/mol
# Density = 1.988423 g / cm^3
# Si number density = 19.929587 Si / 1000 Ang^3
#
#
#
# Elastic Constant Matrix: (Units=GPa)
#
#
# Indices 1 2 3 4 5 6 
#
# 1 143.0784 12.2672 93.7291 0.0000 0.0000 0.0000
# 2 12.2672 42.2119 15.6284 0.0000 0.0000 0.0000
# 3 93.7291 15.6284 169.8235 0.0000 0.0000 0.0000
# 4 0.0000 0.0000 0.0000 15.6346 0.0000 0.0000
# 5 0.0000 0.0000 0.0000 0.0000 30.7883 0.0000
# 6 0.0000 0.0000 0.0000 0.0000 0.0000 107.7588
#
#
#
# Elastic Compliance Matrix: (Units=1/GPa)
#
#
# Indices 1 2 3 4 5 6 
#
# 1 0.010986 -0.000981 -0.005973 0.000000 0.000000 0.000000
# 2 -0.000981 0.024613 -0.001724 0.000000 0.000000 0.000000
# 3 -0.005973 -0.001724 0.009344 0.000000 0.000000 0.000000
# 4 0.000000 0.000000 0.000000 0.063961 0.000000 0.000000
# 5 0.000000 0.000000 0.000000 0.000000 0.032480 0.000000
# 6 0.000000 0.000000 0.000000 0.000000 0.000000 0.009280
#
#
# Mechanical properties :
#
#
# Convention : Reuss Voigt Hill
#
# Bulk Modulus (GPa) = 36.24843 66.48479 51.36661
# Shear Modulus (GPa) = 28.21415 46.40228 37.30821
#
# Velocity S-wave (km/s) = 3.76665 4.83049 4.33136
# Velocity P-wave (km/s) = 6.09464 8.03392 7.13051
#
# Compressibility (1/GPa) = 0.02758740
#
# Stress axis : x y z
#
# Youngs Moduli (GPa) = 91.02218 40.62847 107.02218
#
# Poissons Ratio (x) = 0.03987 0.63927
# Poissons Ratio (y) = 0.08931 0.18446
# Poissons Ratio (z) = 0.54370 0.07002
#
# Static dielectric constant tensor:
#      x y z
#    x 1.641990 0.000000 0.000000 
#    y 0.000000 1.725420 0.000000 
#    z 0.000000 0.000000 1.742240 
# 
# From -- ./inp_files/31950.got.cif
#   From: 2010.05.17/outbox.cif.g08.bks.cpg/sg74_16_cif.got.tgz:31950.got - 2010.06.03 17:57:02.
