data_PCOD9534202
_publ_section_title
;
Structure prediction by ZEFSAII (Michael W. Deem and Ramdas Pophale) SiO2 
 PCOD9534202
Probable space group: I M M A
;
_chemical_formula_sum "Si O2"
_cell_formula_units_Z 48
_cell_length_a 13.919979
_cell_length_b 18.332064
_cell_length_c 7.936525
_cell_angle_alpha 90.000000
_cell_angle_beta 90.000000
_cell_angle_gamma 90.000000
_cell_volume 2025.257893
_symmetry_space_group_name_H-M "I M M A"
_symmetry_group_IT_number 74
_symmetry_cell_setting 'orthorhombic'
loop_
_space_group_symop_operation_xyz
x,y,z
-x,1/2-y,z
x,-y,-z
-x,1/2+y,-z
-x,-y,-z
x,1/2+y,-z
-x,y,z
x,1/2-y,z
1/2+x,1/2+y,1/2+z
1/2-x,-y,1/2+z
1/2+x,1/2-y,1/2-z
1/2-x,y,1/2-z
1/2-x,1/2-y,1/2-z
1/2+x,y,1/2-z
1/2-x,1/2+y,1/2+z
1/2+x,-y,1/2+z
loop_
_atom_site_type_symbol
_atom_site_label
_atom_site_fract_x
_atom_site_fract_y
_atom_site_fract_z
Si Si1 0.885356 0.386078 0.325597
Si Si2 0.891510 0.462284 0.814816
Si Si3 0.709443 0.333560 0.521057
O O1 0.859225 0.472126 0.306147
O O2 0.818505 0.352208 0.468237
O O3 0.852273 0.347980 0.150962
O O4 0.000000 0.379925 0.346363
O O5 0.000000 0.443330 0.765200
O O6 0.894378 0.500000 0.000000
O O7 0.832483 0.389922 0.845270
O O8 0.699644 0.250000 0.570449
#
# Coordination Sequence:
#
# PCOD9534202 Si02
#       3
#    16  16  16
#     4   9  17  29  44  64  93 127 158 190 234 289
#     4   8  15  28  44  63  91 126 158 190 233 287
#     4  10  18  26  44  73  95 115 152 206 253 275
#
# _framework density 23.700683999999999
#
# number of rings (size 3 to 8) (size 9 to 14) (size 15 to 20)
#    0.000    3.000    0.000    5.000    0.000    4.667 
#    0.000    0.000    0.000   27.000    0.000   44.333 
#    0.000    0.000    0.000    0.000    0.000    0.000 
#
# Total GULP energy -134324.647361 kJ/mol
# GULP energy per Si atom -5596.860307 kJ/mol
# Density = 2.364674 g / cm^3
# Si number density = 23.700684 Si / 1000 Ang^3
#
#
#
# Elastic Constant Matrix: (Units=GPa)
#
#
# Indices 1 2 3 4 5 6 
#
# 1 158.3791 72.2065 5.8553 0.0000 0.0000 0.0000
# 2 72.2065 211.8167 15.1275 0.0000 0.0000 0.0000
# 3 5.8553 15.1275 59.7479 0.0000 0.0000 0.0000
# 4 0.0000 0.0000 0.0000 5.9887 0.0000 0.0000
# 5 0.0000 0.0000 0.0000 0.0000 12.3496 0.0000
# 6 0.0000 0.0000 0.0000 0.0000 0.0000 56.6992
#
#
#
# Elastic Compliance Matrix: (Units=1/GPa)
#
#
# Indices 1 2 3 4 5 6 
#
# 1 0.007476 -0.002542 -0.000089 0.000000 0.000000 0.000000
# 2 -0.002542 0.005672 -0.001187 0.000000 0.000000 0.000000
# 3 -0.000089 -0.001187 0.017046 0.000000 0.000000 0.000000
# 4 0.000000 0.000000 0.000000 0.166982 0.000000 0.000000
# 5 0.000000 0.000000 0.000000 0.000000 0.080975 0.000000
# 6 0.000000 0.000000 0.000000 0.000000 0.000000 0.017637
#
#
# Mechanical properties :
#
#
# Convention : Reuss Voigt Hill
#
# Bulk Modulus (GPa) = 44.32941 68.48023 56.40482
# Shear Modulus (GPa) = 16.08005 37.45779 26.76892
#
# Velocity S-wave (km/s) = 2.60756 3.97980 3.36439
# Velocity P-wave (km/s) = 5.27354 7.07637 6.24040
#
# Compressibility (1/GPa) = 0.02255839
#
# Stress axis : x y z
#
# Youngs Moduli (GPa) = 133.75618 176.29008 58.66390
#
# Poissons Ratio (x) = 0.44817 0.00522
# Poissons Ratio (y) = 0.34004 0.06964
# Poissons Ratio (z) = 0.01191 0.20927
#
# Static dielectric constant tensor:
#      x y z
#    x 1.878140 0.000000 0.000000 
#    y 0.000000 1.858540 0.000000 
#    z 0.000000 0.000000 1.993990 
# 
# From -- ./inp_files/7981.got.cif
#   From: 2010.05.17/outbox.cif.g08.bks.cpg/sg74_4_cif.got.tgz:7981.got - 2010.06.03 17:57:02.
