data_PCOD9534036
_publ_section_title
;
Structure prediction by ZEFSAII (Michael W. Deem and Ramdas Pophale) SiO2 
 PCOD9534036
Probable space group: I M M A
;
_chemical_formula_sum "Si O2"
_cell_formula_units_Z 116
_cell_length_a 11.668295
_cell_length_b 12.999289
_cell_length_c 28.681166
_cell_angle_alpha 90.000000
_cell_angle_beta 90.000000
_cell_angle_gamma 90.000000
_cell_volume 4350.346032
_symmetry_space_group_name_H-M "I M M A"
_symmetry_group_IT_number 74
_symmetry_cell_setting 'orthorhombic'
loop_
_space_group_symop_operation_xyz
x,y,z
-x,1/2-y,z
x,-y,-z
-x,1/2+y,-z
-x,-y,-z
x,1/2+y,-z
-x,y,z
x,1/2-y,z
1/2+x,1/2+y,1/2+z
1/2-x,-y,1/2+z
1/2+x,1/2-y,1/2-z
1/2-x,y,1/2-z
1/2-x,1/2-y,1/2-z
1/2+x,y,1/2-z
1/2-x,1/2+y,1/2+z
1/2+x,-y,1/2+z
loop_
_atom_site_type_symbol
_atom_site_label
_atom_site_fract_x
_atom_site_fract_y
_atom_site_fract_z
Si Si1 0.629108 0.635117 0.363343
Si Si2 0.000000 0.250000 0.625059
Si Si3 0.372452 0.587295 0.669858
Si Si4 0.660242 0.431199 0.911219
Si Si5 0.375457 0.628674 0.559014
Si Si6 0.377060 0.638129 0.230069
Si Si7 0.871192 0.373740 0.484236
Si Si8 0.375066 0.073536 0.173190
O O1 0.500000 0.635972 0.379649
O O2 0.654184 0.750000 0.344856
O O3 0.638872 0.537550 0.328710
O O4 0.708662 0.603126 0.405882
O O5 0.096180 0.158979 0.616212
O O6 0.500000 0.614945 0.689340
O O7 0.375639 0.616136 0.615231
O O8 0.247027 0.625186 0.686734
O O9 0.636751 0.532689 0.880125
O O10 0.623984 0.423434 0.964399
O O11 0.500000 0.584938 0.543170
O O12 0.379148 0.750000 0.549160
O O13 0.251539 0.595243 0.539020
O O14 0.500000 0.638638 0.257375
O O15 0.388009 0.750000 0.204236
O O16 0.250000 0.642200 0.250000
O O17 0.380688 0.532147 0.202401
O O18 0.862344 0.250000 0.490804
O O19 0.000000 0.386584 0.462952
O O20 0.500000 0.125126 0.178640
#
# Coordination Sequence:
#
# PCOD9534036 Si02
#       8
#    16   4  16  16  16  16  16  16
#     4   9  17  28  42  60  84 113 144 181 230 282
#     4  12  16  24  42  64  92 120 154 206 242 296
#     4   9  19  34  49  70  97 123 158 203 246 289
#     4  11  18  27  44  66  92 121 158 203 247 291
#     4   9  19  35  53  68  88 124 165 205 249 298
#     4   9  19  33  50  72 101 136 174 208 238 278
#     4  10  17  28  45  67  91 118 155 203 255 301
#     4  10  20  30  49  71  96 127 162 200 241 285
#
# _framework density 26.664545
#
# number of rings (size 3 to 8) (size 9 to 14) (size 15 to 20)
#    0.000    2.345    2.759    0.000    0.966    2.207 
#    0.000    4.138    0.000   13.241    0.000    0.000 
#    0.000    0.552    0.000    1.241    0.000    1.931 
#
# Total GULP energy -323087.446072 kJ/mol
# GULP energy per Si atom -5570.473208 kJ/mol
# Density = 2.660385 g / cm^3
# Si number density = 26.664545 Si / 1000 Ang^3
#
#
#
# Elastic Constant Matrix: (Units=GPa)
#
#
# Indices 1 2 3 4 5 6 
#
# 1 325.5432 29.7153 43.8587 0.0000 0.0000 0.0000
# 2 29.7153 77.8244 6.8851 0.0000 0.0000 0.0000
# 3 43.8587 6.8851 45.5455 0.0000 0.0000 0.0000
# 4 0.0000 0.0000 0.0000 24.2204 0.0000 0.0000
# 5 0.0000 0.0000 0.0000 0.0000 19.8756 0.0000
# 6 0.0000 0.0000 0.0000 0.0000 0.0000 6.6988
#
#
#
# Elastic Compliance Matrix: (Units=1/GPa)
#
#
# Indices 1 2 3 4 5 6 
#
# 1 0.003618 -0.001088 -0.003320 0.000000 0.000000 0.000000
# 2 -0.001088 0.013351 -0.000971 0.000000 0.000000 0.000000
# 3 -0.003320 -0.000971 0.025300 0.000000 0.000000 0.000000
# 4 0.000000 0.000000 0.000000 0.041287 0.000000 0.000000
# 5 0.000000 0.000000 0.000000 0.000000 0.050313 0.000000
# 6 0.000000 0.000000 0.000000 0.000000 0.000000 0.149280
#
#
# Mechanical properties :
#
#
# Convention : Reuss Voigt Hill
#
# Bulk Modulus (GPa) = 31.73400 67.75906 49.74653
# Shear Modulus (GPa) = 16.42522 34.72257 25.57389
#
# Velocity S-wave (km/s) = 2.48462 3.61252 3.10029
# Velocity P-wave (km/s) = 4.48978 6.54730 5.61361
#
# Compressibility (1/GPa) = 0.03151194
#
# Stress axis : x y z
#
# Youngs Moduli (GPa) = 276.36818 74.90254 39.52612
#
# Poissons Ratio (x) = 0.08148 0.13122
# Poissons Ratio (y) = 0.30065 0.03837
# Poissons Ratio (z) = 0.91751 0.07270
#
# Static dielectric constant tensor:
#      x y z
#    x 2.191260 0.000000 0.000000 
#    y 0.000000 2.128320 0.000000 
#    z 0.000000 0.000000 2.199830 
# 
# From -- ./inp_files/66265.got.cif
#   From: 2010.05.17/outbox.cif.g08.bks.cpg/sg74_34_cif.got.tgz:66265.got - 2010.06.03 17:57:02.
