data_PCOD9534029
_publ_section_title
;
Structure prediction by ZEFSAII (Michael W. Deem and Ramdas Pophale) SiO2 
 PCOD9534029
Probable space group: I M M A
;
_chemical_formula_sum "Si O2"
_cell_formula_units_Z 88
_cell_length_a 20.843584
_cell_length_b 14.602536
_cell_length_c 12.343583
_cell_angle_alpha 90.000000
_cell_angle_beta 90.000000
_cell_angle_gamma 90.000000
_cell_volume 3757.006307
_symmetry_space_group_name_H-M "I M M A"
_symmetry_group_IT_number 74
_symmetry_cell_setting 'orthorhombic'
loop_
_space_group_symop_operation_xyz
x,y,z
-x,1/2-y,z
x,-y,-z
-x,1/2+y,-z
-x,-y,-z
x,1/2+y,-z
-x,y,z
x,1/2-y,z
1/2+x,1/2+y,1/2+z
1/2-x,-y,1/2+z
1/2+x,1/2-y,1/2-z
1/2-x,y,1/2-z
1/2-x,1/2-y,1/2-z
1/2+x,y,1/2-z
1/2-x,1/2+y,1/2+z
1/2+x,-y,1/2+z
loop_
_atom_site_type_symbol
_atom_site_label
_atom_site_fract_x
_atom_site_fract_y
_atom_site_fract_z
Si Si1 0.357333 0.849667 0.681202
Si Si2 0.500000 0.049591 0.744410
Si Si3 0.278117 0.856585 0.463228
Si Si4 0.500000 0.640883 0.025591
Si Si5 0.642424 0.549757 0.275911
Si Si6 0.138382 0.639986 0.459008
Si Si7 0.000000 0.152373 0.231443
O O1 0.338983 0.750000 0.730067
O O2 0.324304 0.859704 0.565935
O O3 0.434112 0.847457 0.666394
O O4 0.343855 0.942489 0.745647
O O5 0.500000 0.115941 0.846795
O O6 0.432029 0.059339 0.683648
O O7 0.500000 0.945102 0.789892
O O8 0.273596 0.750000 0.427774
O O9 0.308120 0.913370 0.364707
O O10 0.207797 0.887028 0.503592
O O11 0.500000 0.750000 0.018182
O O12 0.429007 0.607937 0.988559
O O13 0.643321 0.605525 0.164709
O O14 0.135316 0.750000 0.461949
O O15 0.000000 0.250000 0.293537
#
# Coordination Sequence:
#
# PCOD9534029 Si02
#       7
#    16   8  16   8  16  16   8
#     4   9  18  30  44  64  90 121 154 185 217 256
#     4   8  16  25  38  61  87 115 149 180 209 254
#     4  10  19  29  42  63  91 120 149 181 219 265
#     4   8  14  26  43  64  90 114 136 172 224 275
#     4  10  17  28  44  63  88 120 152 182 217 260
#     4   9  17  29  46  68  92 116 144 180 224 272
#     4   8  14  27  43  59  86 121 152 180 210 247
#
# _framework density 23.422905
#
# number of rings (size 3 to 8) (size 9 to 14) (size 15 to 20)
#    0.000    2.909    0.000    1.636    0.000    2.909 
#    0.000    3.636    0.000    2.182    0.000    2.545 
#    0.000    0.000    0.000    0.000    0.000    0.000 
#
# Total GULP energy -245424.973381 kJ/mol
# GULP energy per Si atom -5577.840304 kJ/mol
# Density = 2.336959 g / cm^3
# Si number density = 23.422905 Si / 1000 Ang^3
#
#
#
# Elastic Constant Matrix: (Units=GPa)
#
#
# Indices 1 2 3 4 5 6 
#
# 1 180.5672 56.1285 69.6751 0.0000 0.0000 0.0000
# 2 56.1285 73.0092 16.4084 0.0000 0.0000 0.0000
# 3 69.6751 16.4084 41.8638 0.0000 0.0000 0.0000
# 4 0.0000 0.0000 0.0000 5.4159 0.0000 0.0000
# 5 0.0000 0.0000 0.0000 0.0000 -207.6731 0.0000
# 6 0.0000 0.0000 0.0000 0.0000 0.0000 14.8063
#
#
#
# Elastic Compliance Matrix: (Units=1/GPa)
#
#
# Indices 1 2 3 4 5 6 
#
# 1 0.019183 -0.008304 -0.028672 0.000000 0.000000 0.000000
# 2 -0.008304 0.018614 0.006524 0.000000 0.000000 0.000000
# 3 -0.028672 0.006524 0.069050 0.000000 0.000000 0.000000
# 4 0.000000 0.000000 0.000000 0.184643 0.000000 0.000000
# 5 0.000000 0.000000 0.000000 0.000000 -0.004815 0.000000
# 6 0.000000 0.000000 0.000000 0.000000 0.000000 0.067539
#
#
# Mechanical properties :
#
#
# Convention : Reuss Voigt Hill
#
# Bulk Modulus (GPa) = 21.76570 64.42935 43.09753
# Shear Modulus (GPa) = 11.61626 -27.27498 -7.82936
#
# Velocity S-wave (km/s) = 2.22938 -3.41612 -1.83026
# Velocity P-wave (km/s) = 3.99243 3.46510 3.73807
#
# Compressibility (1/GPa) = 0.04594384
#
# Stress axis : x y z
#
# Youngs Moduli (GPa) = 52.12972 53.72182 14.48235
#
# Poissons Ratio (x) = 0.44609 0.41524
# Poissons Ratio (y) = 0.43287 -0.09449
# Poissons Ratio (z) = 1.49467 -0.35049
#
# Static dielectric constant tensor:
#      x y z
#    x 1.942520 0.000000 0.000000 
#    y 0.000000 1.937280 0.000000 
#    z 0.000000 0.000000 1.802000 
# 
# From -- ./inp_files/32253.got.cif
#   From: 2010.05.17/outbox.cif.g08.bks.cpg/sg74_17_cif.got.tgz:32253.got - 2010.06.03 17:57:02.
