data_PCOD9534223
_publ_section_title
;
Structure prediction by ZEFSAII (Michael W. Deem and Ramdas Pophale) SiO2 
 PCOD9534223
Probable space group: I M M A
;
_chemical_formula_sum "Si O2"
_cell_formula_units_Z 128
_cell_length_a 19.373069
_cell_length_b 21.755998
_cell_length_c 19.533910
_cell_angle_alpha 90.000000
_cell_angle_beta 90.000000
_cell_angle_gamma 90.000000
_cell_volume 8233.161185
_symmetry_space_group_name_H-M "I M M A"
_symmetry_group_IT_number 74
_symmetry_cell_setting 'orthorhombic'
loop_
_space_group_symop_operation_xyz
x,y,z
-x,1/2-y,z
x,-y,-z
-x,1/2+y,-z
-x,-y,-z
x,1/2+y,-z
-x,y,z
x,1/2-y,z
1/2+x,1/2+y,1/2+z
1/2-x,-y,1/2+z
1/2+x,1/2-y,1/2-z
1/2-x,y,1/2-z
1/2-x,1/2-y,1/2-z
1/2+x,y,1/2-z
1/2-x,1/2+y,1/2+z
1/2+x,-y,1/2+z
loop_
_atom_site_type_symbol
_atom_site_label
_atom_site_fract_x
_atom_site_fract_y
_atom_site_fract_z
Si Si1 0.581772 0.026566 0.720142
Si Si2 0.166053 0.544781 0.353582
Si Si3 0.419975 0.321844 0.385352
Si Si4 0.184278 0.545942 0.103442
Si Si5 0.919615 0.882930 0.742213
Si Si6 0.693497 0.406306 0.452622
Si Si7 0.840819 0.899390 0.609002
Si Si8 0.578104 0.572725 0.019835
O O1 0.500000 0.038333 0.723151
O O2 0.622987 0.054064 0.784747
O O3 0.617060 0.050550 0.650799
O O4 0.591464 0.952305 0.728281
O O5 0.247237 0.558078 0.351527
O O6 0.161386 0.472205 0.372564
O O7 0.129815 0.579215 0.416818
O O8 0.500000 0.337214 0.400540
O O9 0.409106 0.250000 0.398227
O O10 0.409575 0.337219 0.305211
O O11 0.368219 0.363835 0.427539
O O12 0.185987 0.475254 0.077451
O O13 0.191082 0.586164 0.034679
O O14 0.869039 0.870190 0.678825
O O15 0.000000 0.880796 0.719370
O O16 0.765964 0.382666 0.420997
O O17 0.894728 0.892698 0.547085
O O18 0.500000 0.589091 0.038088
O O19 0.578396 0.500000 0.000000
#
# Coordination Sequence:
#
# PCOD9534223 Si02
#       8
#    16  16  16  16  16  16  16  16
#     4  10  18  27  41  64  92 124 160 193 224 273
#     4   9  16  26  39  60  91 126 152 183 228 282
#     4  10  21  37  52  65  88 123 164 209 247 277
#     4  10  18  29  45  65  95 126 154 192 235 286
#     4   9  17  30  45  64  87 117 158 198 239 280
#     4  10  19  31  47  66  90 121 160 196 237 288
#     4   9  16  26  42  62  89 117 152 193 233 278
#     4   9  14  22  37  59  86 121 156 183 220 276
#
# _framework density 15.546884
#
# number of rings (size 3 to 8) (size 9 to 14) (size 15 to 20)
#    0.000    2.500    2.500    1.125    0.000    4.000 
#    0.000    2.500    0.000    0.000    0.000    0.000 
#    0.000    2.000    0.000    0.250    0.000    1.250 
#
# Total GULP energy -356405.774203 kJ/mol
# GULP energy per Si atom -5568.840222 kJ/mol
# Density = 1.551150 g / cm^3
# Si number density = 15.546884 Si / 1000 Ang^3
#
#
#
# Elastic Constant Matrix: (Units=GPa)
#
#
# Indices 1 2 3 4 5 6 
#
# 1 114.6562 28.7159 60.8776 0.0000 0.0000 0.0000
# 2 28.7159 18.8408 11.0786 0.0000 0.0000 0.0000
# 3 60.8776 11.0786 81.8743 0.0000 0.0000 0.0000
# 4 0.0000 0.0000 0.0000 6.4355 0.0000 0.0000
# 5 0.0000 0.0000 0.0000 0.0000 31.6947 0.0000
# 6 0.0000 0.0000 0.0000 0.0000 0.0000 7.0840
#
#
#
# Elastic Compliance Matrix: (Units=1/GPa)
#
#
# Indices 1 2 3 4 5 6 
#
# 1 0.022120 -0.026121 -0.012913 0.000000 0.000000 0.000000
# 2 -0.026121 0.088510 0.007446 0.000000 0.000000 0.000000
# 3 -0.012913 0.007446 0.020808 0.000000 0.000000 0.000000
# 4 0.000000 0.000000 0.000000 0.155389 0.000000 0.000000
# 5 0.000000 0.000000 0.000000 0.000000 0.031551 0.000000
# 6 0.000000 0.000000 0.000000 0.000000 0.000000 0.141164
#
#
# Mechanical properties :
#
#
# Convention : Reuss Voigt Hill
#
# Bulk Modulus (GPa) = 14.64956 46.30172 30.47564
# Shear Modulus (GPa) = 9.16640 16.68944 12.92792
#
# Velocity S-wave (km/s) = 2.43080 3.27997 2.88678
# Velocity P-wave (km/s) = 4.16193 6.64763 5.54584
#
# Compressibility (1/GPa) = 0.06826146
#
# Stress axis : x y z
#
# Youngs Moduli (GPa) = 45.20822 11.29820 48.05927
#
# Poissons Ratio (x) = 0.29512 0.62058
# Poissons Ratio (y) = 1.18088 -0.35784
# Poissons Ratio (z) = 0.58376 -0.08412
#
# Static dielectric constant tensor:
#      x y z
#    x 1.533830 0.000000 0.000000 
#    y 0.000000 1.483570 0.000000 
#    z 0.000000 0.000000 1.525480 
# 
# From -- ./inp_files/46295.got.cif
#   From: 2010.05.17/outbox.cif.g08.bks.cpg/sg74_24_cif.got.tgz:46295.got - 2010.06.03 17:57:02.
