data_PCOD9534217
_publ_section_title
;
Structure prediction by ZEFSAII (Michael W. Deem and Ramdas Pophale) SiO2 
 PCOD9534217
Probable space group: I M M A
;
_chemical_formula_sum "Si O2"
_cell_formula_units_Z 96
_cell_length_a 15.131634
_cell_length_b 14.436246
_cell_length_c 27.103928
_cell_angle_alpha 90.000000
_cell_angle_beta 90.000000
_cell_angle_gamma 90.000000
_cell_volume 5920.690199
_symmetry_space_group_name_H-M "I M M A"
_symmetry_group_IT_number 74
_symmetry_cell_setting 'orthorhombic'
loop_
_space_group_symop_operation_xyz
x,y,z
-x,1/2-y,z
x,-y,-z
-x,1/2+y,-z
-x,-y,-z
x,1/2+y,-z
-x,y,z
x,1/2-y,z
1/2+x,1/2+y,1/2+z
1/2-x,-y,1/2+z
1/2+x,1/2-y,1/2-z
1/2-x,y,1/2-z
1/2-x,1/2-y,1/2-z
1/2+x,y,1/2-z
1/2-x,1/2+y,1/2+z
1/2+x,-y,1/2+z
loop_
_atom_site_type_symbol
_atom_site_label
_atom_site_fract_x
_atom_site_fract_y
_atom_site_fract_z
Si Si1 0.645266 0.143261 0.760508
Si Si2 0.780368 0.361956 0.916781
Si Si3 0.393174 0.145846 0.380471
Si Si4 0.398536 0.362533 0.492213
Si Si5 0.599125 0.137585 0.873357
Si Si6 0.398879 0.542030 0.336131
O O1 0.614879 0.250000 0.753799
O O2 0.750000 0.142233 0.750000
O O3 0.623278 0.115505 0.816465
O O4 0.604280 0.077214 0.719561
O O5 0.779914 0.250000 0.917584
O O6 0.831120 0.394445 0.965873
O O7 0.679555 0.393823 0.908205
O O8 0.837074 0.394495 0.869892
O O9 0.500000 0.152352 0.379860
O O10 0.359135 0.250000 0.370997
O O11 0.370915 0.114933 0.436313
O O12 0.368435 0.064089 0.343420
O O13 0.500000 0.392836 0.501345
O O14 0.400422 0.250000 0.493606
O O15 0.500000 0.104729 0.885064
O O16 0.597964 0.250000 0.875756
O O17 0.500000 0.548947 0.354331
#
# Coordination Sequence:
#
# PCOD9534217 Si02
#       6
#    16  16  16  16  16  16
#     4  10  18  30  44  62  94 125 146 175 214 262
#     4  10  18  27  40  64  94 119 148 183 214 257
#     4   8  16  31  46  62  88 120 151 181 217 264
#     4   8  14  26  43  62  90 123 145 171 217 265
#     4   9  17  29  43  58  84 124 156 177 210 255
#     4  11  20  27  43  68  90 119 152 181 216 260
#
# _framework density 16.214326
#
# number of rings (size 3 to 8) (size 9 to 14) (size 15 to 20)
#    0.000    2.667    1.667    2.500    0.000    3.333 
#    0.000    2.500    0.000    0.500    0.000    2.333 
#    0.000    2.000    0.000    0.000    0.000    0.000 
#
# Total GULP energy -267409.553244 kJ/mol
# GULP energy per Si atom -5571.032359 kJ/mol
# Density = 1.617742 g / cm^3
# Si number density = 16.214326 Si / 1000 Ang^3
#
#
#
# Elastic Constant Matrix: (Units=GPa)
#
#
# Indices 1 2 3 4 5 6 
#
# 1 84.8984 17.3183 21.2874 0.0000 0.0000 0.0000
# 2 17.3183 54.6052 33.4070 0.0000 0.0000 0.0000
# 3 21.2874 33.4070 60.8304 0.0000 0.0000 0.0000
# 4 0.0000 0.0000 0.0000 10.0548 0.0000 0.0000
# 5 0.0000 0.0000 0.0000 0.0000 -24.0801 0.0000
# 6 0.0000 0.0000 0.0000 0.0000 0.0000 6.1558
#
#
#
# Elastic Compliance Matrix: (Units=1/GPa)
#
#
# Indices 1 2 3 4 5 6 
#
# 1 0.013059 -0.002027 -0.003457 0.000000 0.000000 0.000000
# 2 -0.002027 0.027894 -0.014610 0.000000 0.000000 0.000000
# 3 -0.003457 -0.014610 0.025672 0.000000 0.000000 0.000000
# 4 0.000000 0.000000 0.000000 0.099455 0.000000 0.000000
# 5 0.000000 0.000000 0.000000 0.000000 -0.041528 0.000000
# 6 0.000000 0.000000 0.000000 0.000000 0.000000 0.162449
#
#
# Mechanical properties :
#
#
# Convention : Reuss Voigt Hill
#
# Bulk Modulus (GPa) = 37.82342 38.26214 38.04278
# Shear Modulus (GPa) = 14.88092 6.98085 10.93089
#
# Velocity S-wave (km/s) = 3.03275 2.07719 2.59926
# Velocity P-wave (km/s) = 5.97003 5.42235 5.70277
#
# Compressibility (1/GPa) = 0.02643864
#
# Stress axis : x y z
#
# Youngs Moduli (GPa) = 76.57546 35.84976 38.95253
#
# Poissons Ratio (x) = 0.07266 0.13465
# Poissons Ratio (y) = 0.15521 0.56909
# Poissons Ratio (z) = 0.26471 0.52375
#
# Static dielectric constant tensor:
#      x y z
#    x 1.569130 0.000000 0.000000 
#    y 0.000000 1.561210 0.000000 
#    z 0.000000 0.000000 1.542920 
# 
# From -- ./inp_files/72600.got.cif
#   From: 2010.05.17/outbox.cif.g08.bks.cpg/sg74_37_cif.got.tgz:72600.got - 2010.06.03 17:57:02.
