data_PCOD9534839
_publ_section_title
;
Structure prediction by ZEFSAII (Michael W. Deem and Ramdas Pophale) SiO2 
 PCOD9534839
Probable space group: I M M A
;
_chemical_formula_sum "Si O2"
_cell_formula_units_Z 112
_cell_length_a 15.471654
_cell_length_b 28.835917
_cell_length_c 14.649385
_cell_angle_alpha 90.000000
_cell_angle_beta 90.000000
_cell_angle_gamma 90.000000
_cell_volume 6535.666818
_symmetry_space_group_name_H-M "I M M A"
_symmetry_group_IT_number 74
_symmetry_cell_setting 'orthorhombic'
loop_
_space_group_symop_operation_xyz
x,y,z
-x,1/2-y,z
x,-y,-z
-x,1/2+y,-z
-x,-y,-z
x,1/2+y,-z
-x,y,z
x,1/2-y,z
1/2+x,1/2+y,1/2+z
1/2-x,-y,1/2+z
1/2+x,1/2-y,1/2-z
1/2-x,y,1/2-z
1/2-x,1/2-y,1/2-z
1/2+x,y,1/2-z
1/2-x,1/2+y,1/2+z
1/2+x,-y,1/2+z
loop_
_atom_site_type_symbol
_atom_site_label
_atom_site_fract_x
_atom_site_fract_y
_atom_site_fract_z
Si Si1 0.101470 0.548997 0.039717
Si Si2 0.398501 0.545090 0.053281
Si Si3 0.744666 0.304982 0.140571
Si Si4 0.101298 0.134764 0.079307
Si Si5 0.654207 0.467778 0.740718
Si Si6 0.602252 0.125129 0.070002
Si Si7 0.902508 0.433610 0.248185
O O1 0.111683 0.550525 0.148349
O O2 0.000000 0.548600 0.014824
O O3 0.137399 0.500000 0.000000
O O4 0.133820 0.596203 0.993162
O O5 0.500000 0.546013 0.029595
O O6 0.389396 0.539991 0.161425
O O7 0.361282 0.500000 0.000000
O O8 0.366416 0.594601 0.016147
O O9 0.734996 0.250000 0.129810
O O10 0.750000 0.314837 0.250000
O O11 0.832207 0.323468 0.092643
O O12 0.664241 0.332711 0.096791
O O13 0.104126 0.106607 0.174446
O O14 0.000000 0.147363 0.062158
O O15 0.750000 0.448391 0.750000
O O16 0.657443 0.523324 0.727610
O O17 0.500000 0.138227 0.062207
O O18 0.609113 0.088470 0.153271
O O19 0.000000 0.453087 0.242143
#
# Coordination Sequence:
#
# PCOD9534839 Si02
#       7
#    16  16  16  16  16  16  16
#     4  10  20  35  53  74 107 150 189 222 262 316
#     4  10  20  35  53  74 107 150 189 222 262 316
#     4  11  24  38  57  83 113 143 177 232 283 329
#     4  10  21  36  57  79 107 152 189 221 269 324
#     4  12  24  30  46  80 115 150 186 227 260 312
#     4  10  21  36  57  79 107 152 189 221 269 324
#     4  10  18  32  50  73 110 149 184 220 258 311
#
# _framework density 17.136735999999999
#
# number of rings (size 3 to 8) (size 9 to 14) (size 15 to 20)
#    0.000    1.571    4.286    1.286    4.000    1.143 
#    0.000    1.429    0.000    0.000    0.000    2.000 
#    0.000    4.571    0.000    0.000    0.000    0.000 
#
# Total GULP energy -312263.378894 kJ/mol
# GULP energy per Si atom -5576.131766 kJ/mol
# Density = 1.709773 g / cm^3
# Si number density = 17.136736 Si / 1000 Ang^3
#
#
#
# Elastic Constant Matrix: (Units=GPa)
#
#
# Indices 1 2 3 4 5 6 
#
# 1 60.0700 40.5354 1.7328 0.0000 0.0000 0.0000
# 2 40.5354 85.8768 28.1166 0.0000 0.0000 0.0000
# 3 1.7328 28.1166 76.5733 0.0000 0.0000 0.0000
# 4 0.0000 0.0000 0.0000 22.1291 0.0000 0.0000
# 5 0.0000 0.0000 0.0000 0.0000 0.7578 0.0000
# 6 0.0000 0.0000 0.0000 0.0000 0.0000 19.7735
#
#
#
# Elastic Compliance Matrix: (Units=1/GPa)
#
#
# Indices 1 2 3 4 5 6 
#
# 1 0.025667 -0.013555 0.004396 0.000000 0.000000 0.000000
# 2 -0.013555 0.020394 -0.007182 0.000000 0.000000 0.000000
# 3 0.004396 -0.007182 0.015597 0.000000 -0.000001 0.000000
# 4 0.000000 0.000000 0.000000 0.045189 -0.000001 0.000000
# 5 0.000000 0.000000 -0.000001 -0.000001 1.319645 -0.000001
# 6 0.000000 0.000000 0.000000 0.000000 -0.000001 0.050573
#
#
# Mechanical properties :
#
#
# Convention : Reuss Voigt Hill
#
# Bulk Modulus (GPa) = 34.50910 40.36553 37.43731
# Shear Modulus (GPa) = 3.29076 18.67442 10.98259
#
# Velocity S-wave (km/s) = 1.38725 3.30469 2.53431
# Velocity P-wave (km/s) = 4.76940 6.17798 5.51881
#
# Compressibility (1/GPa) = 0.02897786
#
# Stress axis : x y z
#
# Youngs Moduli (GPa) = 38.96013 49.03401 64.11535
#
# Poissons Ratio (x) = 0.66465 -0.28187
# Poissons Ratio (y) = 0.52810 0.46045
# Poissons Ratio (z) = -0.17128 0.35214
#
# Static dielectric constant tensor:
#      x y z
#    x 1.637960 0.000000 0.000000 
#    y 0.000000 1.560220 0.000000 
#    z 0.000000 0.000000 1.601480 
# 
# From -- ./inp_files/33149.got.cif
#   From: 2010.05.17/outbox.cif.g08.bks.cpg/sg74_17_cif.got.tgz:33149.got - 2010.06.03 17:57:02.
