data_PCOD9534412
_publ_section_title
;
Structure prediction by ZEFSAII (Michael W. Deem and Ramdas Pophale) SiO2 
 PCOD9534412
Probable space group: I M M A
;
_chemical_formula_sum "Si O2"
_cell_formula_units_Z 104
_cell_length_a 8.409483
_cell_length_b 28.800543
_cell_length_c 23.803177
_cell_angle_alpha 90.000000
_cell_angle_beta 90.000000
_cell_angle_gamma 90.000000
_cell_volume 5765.074169
_symmetry_space_group_name_H-M "I M M A"
_symmetry_group_IT_number 74
_symmetry_cell_setting 'orthorhombic'
loop_
_space_group_symop_operation_xyz
x,y,z
-x,1/2-y,z
x,-y,-z
-x,1/2+y,-z
-x,-y,-z
x,1/2+y,-z
-x,y,z
x,1/2-y,z
1/2+x,1/2+y,1/2+z
1/2-x,-y,1/2+z
1/2+x,1/2-y,1/2-z
1/2-x,y,1/2-z
1/2-x,1/2-y,1/2-z
1/2+x,y,1/2-z
1/2-x,1/2+y,1/2+z
1/2+x,-y,1/2+z
loop_
_atom_site_type_symbol
_atom_site_label
_atom_site_fract_x
_atom_site_fract_y
_atom_site_fract_z
Si Si1 0.810027 0.846081 0.686415
Si Si2 0.190543 0.196606 0.813409
Si Si3 0.692462 0.606962 0.123555
Si Si4 0.311697 0.250000 0.314464
Si Si5 0.693521 0.946199 0.010081
Si Si6 0.191569 0.017300 0.688226
Si Si7 0.193887 0.068239 0.386876
O O1 0.750000 0.849389 0.750000
O O2 0.751827 0.797679 0.660465
O O3 0.751505 0.890029 0.652048
O O4 0.000000 0.845914 0.687409
O O5 0.242515 0.250000 0.826273
O O6 0.250000 0.185786 0.750000
O O7 0.247971 0.157397 0.857174
O O8 0.000000 0.195989 0.812671
O O9 0.500000 0.608815 0.122127
O O10 0.745914 0.583462 0.064280
O O11 0.742060 0.568828 0.170199
O O12 0.500000 0.250000 0.313333
O O13 0.250000 0.250000 0.250000
O O14 0.500000 0.948011 0.014720
O O15 0.740586 0.923677 0.950964
O O16 0.743358 0.000000 0.000000
O O17 0.250000 0.004521 0.750000
O O18 0.000000 0.016457 0.688466
O O19 0.244865 0.980291 0.641115
O O20 0.000000 0.067284 0.386573
#
# Coordination Sequence:
#
# PCOD9534412 Si02
#       7
#    16  16  16   8  16  16  16
#     4  10  18  29  47  71  98 127 160 201 249 297
#     4  10  21  37  57  80 108 141 175 217 269 321
#     4  10  19  31  54  81 105 136 174 215 258 305
#     4  10  18  30  48  68  92 122 158 196 241 294
#     4   9  15  29  52  76 101 133 173 213 247 290
#     4  10  19  30  45  72 105 135 163 198 249 302
#     4   9  17  29  47  71  99 130 166 208 248 289
#
# _framework density 18.039663000000001
#
# number of rings (size 3 to 8) (size 9 to 14) (size 15 to 20)
#    0.000    2.308    1.538    3.462    0.000    2.769 
#    0.000    0.769    1.692    3.231    0.000    0.000 
#    0.000    0.000    0.000    0.000    0.000    0.000 
#
# Total GULP energy -289777.260159 kJ/mol
# GULP energy per Si atom -5572.639618 kJ/mol
# Density = 1.799860 g / cm^3
# Si number density = 18.039663 Si / 1000 Ang^3
#
#
#
# Elastic Constant Matrix: (Units=GPa)
#
#
# Indices 1 2 3 4 5 6 
#
# 1 25.0774 20.1744 11.1254 0.0000 0.0000 0.0000
# 2 20.1744 140.0110 59.1759 0.0000 0.0000 0.0000
# 3 11.1254 59.1759 109.6572 0.0000 0.0000 0.0000
# 4 0.0000 0.0000 0.0000 19.6101 0.0000 0.0000
# 5 0.0000 0.0000 0.0000 0.0000 16.0209 0.0000
# 6 0.0000 0.0000 0.0000 0.0000 0.0000 18.9081
#
#
#
# Elastic Compliance Matrix: (Units=1/GPa)
#
#
# Indices 1 2 3 4 5 6 
#
# 1 0.045268 -0.005935 -0.001390 0.000000 0.000000 0.000000
# 2 -0.005935 0.010031 -0.004811 0.000000 0.000000 0.000000
# 3 -0.001390 -0.004811 0.011857 0.000000 0.000000 0.000000
# 4 0.000000 0.000000 0.000000 0.050994 0.000000 0.000000
# 5 0.000000 0.000000 0.000000 0.000000 0.062418 0.000000
# 6 0.000000 0.000000 0.000000 0.000000 0.000000 0.052888
#
#
# Mechanical properties :
#
#
# Convention : Reuss Voigt Hill
#
# Bulk Modulus (GPa) = 23.31910 50.63299 36.97605
# Shear Modulus (GPa) = 18.38088 23.19248 20.78668
#
# Velocity S-wave (km/s) = 3.19551 3.58947 3.39820
# Velocity P-wave (km/s) = 5.15458 6.73109 5.99488
#
# Compressibility (1/GPa) = 0.04288329
#
# Stress axis : x y z
#
# Youngs Moduli (GPa) = 22.09071 99.69216 84.34178
#
# Poissons Ratio (x) = 0.59171 0.11721
# Poissons Ratio (y) = 0.13112 0.40576
# Poissons Ratio (z) = 0.03070 0.47961
#
# Static dielectric constant tensor:
#      x y z
#    x 1.618300 0.000000 0.000000 
#    y 0.000000 1.652780 0.000000 
#    z 0.000000 0.000000 1.615810 
# 
# From -- ./inp_files/57598.got.cif
#   From: 2010.05.17/outbox.cif.g08.bks.cpg/sg74_29_cif.got.tgz:57598.got - 2010.06.03 17:57:02.
