data_PCOD9534115
_publ_section_title
;
Structure prediction by ZEFSAII (Michael W. Deem and Ramdas Pophale) SiO2 
 PCOD9534115
Probable space group: I M M A
;
_chemical_formula_sum "Si O2"
_cell_formula_units_Z 80
_cell_length_a 17.112324
_cell_length_b 20.909152
_cell_length_c 15.357549
_cell_angle_alpha 90.000000
_cell_angle_beta 90.000000
_cell_angle_gamma 90.000000
_cell_volume 5494.995282
_symmetry_space_group_name_H-M "I M M A"
_symmetry_group_IT_number 74
_symmetry_cell_setting 'orthorhombic'
loop_
_space_group_symop_operation_xyz
x,y,z
-x,1/2-y,z
x,-y,-z
-x,1/2+y,-z
-x,-y,-z
x,1/2+y,-z
-x,y,z
x,1/2-y,z
1/2+x,1/2+y,1/2+z
1/2-x,-y,1/2+z
1/2+x,1/2-y,1/2-z
1/2-x,y,1/2-z
1/2-x,1/2-y,1/2-z
1/2+x,y,1/2-z
1/2-x,1/2+y,1/2+z
1/2+x,-y,1/2+z
loop_
_atom_site_type_symbol
_atom_site_label
_atom_site_fract_x
_atom_site_fract_y
_atom_site_fract_z
Si Si1 0.588655 0.011229 0.750038
Si Si2 0.205479 0.499386 0.903257
Si Si3 0.197425 0.380359 0.672506
Si Si4 0.628724 0.553775 0.925291
Si Si5 0.910398 0.822142 0.468351
O O1 0.500000 0.021559 0.721857
O O2 0.643678 0.986855 0.672079
O O3 0.630230 0.075846 0.783835
O O4 0.590279 0.965594 0.834391
O O5 0.247601 0.431563 0.879199
O O6 0.278372 0.548074 0.907916
O O7 0.170446 0.500000 0.000000
O O8 0.250000 0.351938 0.750000
O O9 0.153271 0.333959 0.607008
O O10 0.610999 0.500000 0.000000
O O11 0.603956 0.621899 0.962011
O O12 0.902762 0.750000 0.502650
O O13 0.000000 0.829431 0.435717
#
# Coordination Sequence:
#
# PCOD9534115 Si02
#       5
#    16  16  16  16  16
#     4  10  18  26  46  74  96 118 154 193 232 273
#     4   9  16  30  48  68  90 123 156 193 223 271
#     4   9  17  30  46  65  93 127 154 180 224 282
#     4  10  17  31  50  66  92 128 155 182 228 288
#     4  11  21  30  45  72  99 119 150 197 238 271
#
# _framework density 14.558702
#
# number of rings (size 3 to 8) (size 9 to 14) (size 15 to 20)
#    0.000    2.200    6.000    3.000    0.000    1.600 
#    0.000    0.000    0.000    2.400    0.000    0.000 
#    0.000    2.000    0.000    0.000    0.000    0.000 
#
# Total GULP energy -222682.145209 kJ/mol
# GULP energy per Si atom -5567.053630 kJ/mol
# Density = 1.452557 g / cm^3
# Si number density = 14.558702 Si / 1000 Ang^3
#
#
#
# Elastic Constant Matrix: (Units=GPa)
#
#
# Indices 1 2 3 4 5 6 
#
# 1 70.1158 31.8263 49.3161 0.0000 0.0000 0.0000
# 2 31.8263 71.4626 24.7831 0.0000 0.0000 0.0000
# 3 49.3161 24.7831 80.1860 0.0000 0.0000 0.0000
# 4 0.0000 0.0000 0.0000 14.9061 0.0000 0.0000
# 5 0.0000 0.0000 0.0000 0.0000 8.8997 0.0000
# 6 0.0000 0.0000 0.0000 0.0000 0.0000 14.2886
#
#
#
# Elastic Compliance Matrix: (Units=1/GPa)
#
#
# Indices 1 2 3 4 5 6 
#
# 1 0.028189 -0.007327 -0.015072 0.000000 0.000000 0.000000
# 2 -0.007327 0.017578 -0.000926 0.000000 0.000000 0.000000
# 3 -0.015072 -0.000926 0.022027 0.000000 0.000000 0.000000
# 4 0.000000 0.000000 0.000000 0.067087 0.000000 0.000000
# 5 0.000000 0.000000 0.000000 0.000000 0.112364 0.000000
# 6 0.000000 0.000000 0.000000 0.000000 0.000000 0.069986
#
#
# Mechanical properties :
#
#
# Convention : Reuss Voigt Hill
#
# Bulk Modulus (GPa) = 47.29857 48.17950 47.73904
# Shear Modulus (GPa) = 13.47964 15.34145 14.41054
#
# Velocity S-wave (km/s) = 3.04613 3.24970 3.14956
# Velocity P-wave (km/s) = 6.70303 6.87356 6.78883
#
# Compressibility (1/GPa) = 0.02114229
#
# Stress axis : x y z
#
# Youngs Moduli (GPa) = 35.47468 56.88987 45.39863
#
# Poissons Ratio (x) = 0.41684 0.68426
# Poissons Ratio (y) = 0.25993 0.04206
# Poissons Ratio (z) = 0.53468 0.05270
#
# Static dielectric constant tensor:
#      x y z
#    x 1.492370 0.000000 0.000000 
#    y 0.000000 1.470000 0.000000 
#    z 0.000000 0.000000 1.497970 
# 
# From -- ./inp_files/34168.got.cif
#   From: 2010.05.17/outbox.cif.g08.bks.cpg/sg74_18_cif.got.tgz:34168.got - 2010.06.03 17:57:02.
