data_PCOD9534870
_publ_section_title
;
Structure prediction by ZEFSAII (Michael W. Deem and Ramdas Pophale) SiO2 
 PCOD9534870
Probable space group: I M M A
;
_chemical_formula_sum "Si O2"
_cell_formula_units_Z 56
_cell_length_a 34.517360
_cell_length_b 10.432672
_cell_length_c 7.961014
_cell_angle_alpha 90.000000
_cell_angle_beta 90.000000
_cell_angle_gamma 90.000000
_cell_volume 2866.827179
_symmetry_space_group_name_H-M "I M M A"
_symmetry_group_IT_number 74
_symmetry_cell_setting 'orthorhombic'
loop_
_space_group_symop_operation_xyz
x,y,z
-x,1/2-y,z
x,-y,-z
-x,1/2+y,-z
-x,-y,-z
x,1/2+y,-z
-x,y,z
x,1/2-y,z
1/2+x,1/2+y,1/2+z
1/2-x,-y,1/2+z
1/2+x,1/2-y,1/2-z
1/2-x,y,1/2-z
1/2-x,1/2-y,1/2-z
1/2+x,y,1/2-z
1/2-x,1/2+y,1/2+z
1/2+x,-y,1/2+z
loop_
_atom_site_type_symbol
_atom_site_label
_atom_site_fract_x
_atom_site_fract_y
_atom_site_fract_z
Si Si1 0.078347 0.900870 0.346756
Si Si2 0.500000 0.610338 0.366355
Si Si3 0.206043 0.250000 0.697855
Si Si4 0.840745 0.504249 0.293840
Si Si5 0.704149 0.750000 0.793158
O O1 0.087430 0.750000 0.393293
O O2 0.038634 0.898575 0.244737
O O3 0.115125 0.960839 0.248207
O O4 0.072801 0.000000 0.500000
O O5 0.500000 0.750000 0.450300
O O6 0.500000 0.500000 0.500000
O O7 0.250000 0.250000 0.750000
O O8 0.185220 0.123050 0.761067
O O9 0.203047 0.250000 0.495950
O O10 0.841169 0.500000 0.500000
O O11 0.819932 0.374748 0.235676
O O12 0.750000 0.750000 0.750000
#
# Coordination Sequence:
#
# PCOD9534870 Si02
#       5
#    16   8   8  16   8
#     4  10  20  36  61  88 112 143 191 238 277 328
#     4  10  23  42  58  84 122 154 181 222 280 342
#     4  10  18  32  52  73 102 141 173 220 275 326
#     4   9  18  32  53  77 106 135 181 226 275 318
#     4  10  20  34  50  77 106 139 181 228 271 326
#
# _framework density 19.533791000000001
#
# number of rings (size 3 to 8) (size 9 to 14) (size 15 to 20)
#    0.000    2.286    1.429    1.286    6.000    1.143 
#    0.000    2.857    0.000    0.000    0.000    0.000 
#    0.000    0.000    0.000    0.000    0.000    0.000 
#
# Total GULP energy -156107.578569 kJ/mol
# GULP energy per Si atom -5575.270663 kJ/mol
# Density = 1.948933 g / cm^3
# Si number density = 19.533791 Si / 1000 Ang^3
#
#
#
# Elastic Constant Matrix: (Units=GPa)
#
#
# Indices 1 2 3 4 5 6 
#
# 1 183.4942 99.1853 13.9868 0.0000 0.0000 0.0000
# 2 99.1853 218.9278 35.8380 0.0000 0.0000 0.0000
# 3 13.9868 35.8380 15.3127 0.0001 0.0000 0.0000
# 4 0.0000 0.0000 0.0001 16.8083 0.0000 0.0000
# 5 0.0000 0.0000 0.0000 0.0000 22.3414 0.0000
# 6 0.0000 0.0000 0.0000 0.0000 0.0000 41.3090
#
#
#
# Elastic Compliance Matrix: (Units=1/GPa)
#
#
# Indices 1 2 3 4 5 6 
#
# 1 0.007245 -0.003565 0.001725 0.000000 0.000000 0.000000
# 2 -0.003565 0.009159 -0.018179 0.000000 0.000000 0.000000
# 3 0.001725 -0.018179 0.106275 -0.000001 0.000000 0.000000
# 4 0.000000 0.000000 -0.000001 0.059495 0.000000 0.000000
# 5 0.000000 0.000000 0.000000 0.000000 0.044760 0.000000
# 6 0.000000 0.000000 0.000000 0.000000 0.000000 0.024208
#
#
# Mechanical properties :
#
#
# Convention : Reuss Voigt Hill
#
# Bulk Modulus (GPa) = 12.10030 79.52832 45.81431
# Shear Modulus (GPa) = 15.68751 34.00672 24.84712
#
# Velocity S-wave (km/s) = 2.83697 4.17696 3.57039
# Velocity P-wave (km/s) = 4.11572 8.00401 6.36409
#
# Compressibility (1/GPa) = 0.08264258
#
# Stress axis : x y z
#
# Youngs Moduli (GPa) = 138.02254 109.18690 9.40954
#
# Poissons Ratio (x) = 0.38924 -0.01624
# Poissons Ratio (y) = 0.49204 0.17105
# Poissons Ratio (z) = -0.23815 1.98488
#
# Static dielectric constant tensor:
#      x y z
#    x 1.680670 0.000000 0.000000 
#    y 0.000000 1.689890 0.000000 
#    z 0.000000 0.000000 1.705440 
# 
# From -- ./inp_files/15793.got.cif
#   From: 2010.05.17/outbox.cif.g08.bks.cpg/sg74_8_cif.got.tgz:15793.got - 2010.06.03 17:57:02.
