data_PCOD9534244
_publ_section_title
;
Structure prediction by ZEFSAII (Michael W. Deem and Ramdas Pophale) SiO2 
 PCOD9534244
Probable space group: I M M A
;
_chemical_formula_sum "Si O2"
_cell_formula_units_Z 80
_cell_length_a 12.295665
_cell_length_b 21.685989
_cell_length_c 13.295490
_cell_angle_alpha 90.000000
_cell_angle_beta 90.000000
_cell_angle_gamma 90.000000
_cell_volume 3545.158061
_symmetry_space_group_name_H-M "I M M A"
_symmetry_group_IT_number 74
_symmetry_cell_setting 'orthorhombic'
loop_
_space_group_symop_operation_xyz
x,y,z
-x,1/2-y,z
x,-y,-z
-x,1/2+y,-z
-x,-y,-z
x,1/2+y,-z
-x,y,z
x,1/2-y,z
1/2+x,1/2+y,1/2+z
1/2-x,-y,1/2+z
1/2+x,1/2-y,1/2-z
1/2-x,y,1/2-z
1/2-x,1/2-y,1/2-z
1/2+x,y,1/2-z
1/2-x,1/2+y,1/2+z
1/2+x,-y,1/2+z
loop_
_atom_site_type_symbol
_atom_site_label
_atom_site_fract_x
_atom_site_fract_y
_atom_site_fract_z
Si Si1 0.500000 0.643864 0.911791
Si Si2 0.765384 0.115726 0.401770
Si Si3 0.500000 0.250000 0.920010
Si Si4 0.377706 0.493942 0.377017
Si Si5 0.783268 0.250000 0.115923
Si Si6 0.130484 0.630137 0.109430
Si Si7 0.749523 0.250000 0.874964
Si Si8 0.000000 0.250000 0.242660
O O1 0.391834 0.603077 0.917785
O O2 0.500000 0.690444 0.006952
O O3 0.500000 0.689527 0.814509
O O4 0.767578 0.184399 0.355616
O O5 0.694633 0.123615 0.503721
O O6 0.704034 0.059931 0.348799
O O7 0.618023 0.250000 0.865374
O O8 0.376267 0.500000 0.500000
O O9 0.500000 0.475581 0.348578
O O10 0.356399 0.563265 0.338879
O O11 0.899481 0.250000 0.166679
O O12 0.772639 0.250000 0.995421
O O13 0.186665 0.688883 0.160253
O O14 0.000000 0.639492 0.094485
#
# Coordination Sequence:
#
# PCOD9534244 Si02
#       8
#     8  16   4  16   8  16   8   4
#     4  11  20  34  38  51  80 108 140 182 226 245
#     4  10  18  29  44  55  75 108 137 170 220 258
#     4  11  16  34  38  56  78 116 134 172 210 248
#     4   8  15  27  42  61  82  96 124 174 213 245
#     4  10  20  29  44  58  72 104 150 186 211 256
#     4   9  16  26  43  66  82  98 131 172 205 249
#     4  10  18  27  48  60  86 111 144 163 214 260
#     4  11  26  32  42  60  80 100 152 210 234 226
#
# _framework density 22.565988999999998
#
# number of rings (size 3 to 8) (size 9 to 14) (size 15 to 20)
#    0.000    2.400    4.000    2.700    7.000    1.600 
#    0.000    5.500    0.000    0.000    0.000    0.000 
#    0.000    0.000    0.000    0.000    0.000    6.000 
#
# Total GULP energy -223011.286435 kJ/mol
# GULP energy per Si atom -5575.282161 kJ/mol
# Density = 2.251463 g / cm^3
# Si number density = 22.565989 Si / 1000 Ang^3
#
#
#
# Elastic Constant Matrix: (Units=GPa)
#
#
# Indices 1 2 3 4 5 6 
#
# 1 240.9794 111.0770 32.0006 0.0001 0.0000 0.0000
# 2 111.0770 185.8450 -2.4467 0.0003 0.0000 0.0000
# 3 32.0006 -2.4467 77.7433 0.0004 0.0000 0.0001
# 4 0.0001 0.0003 0.0004 -21.9189 0.0000 0.0000
# 5 0.0000 0.0000 0.0000 0.0000 -15.6013 0.0000
# 6 0.0000 0.0000 0.0001 0.0000 0.0000 82.8722
#
#
#
# Elastic Compliance Matrix: (Units=1/GPa)
#
#
# Indices 1 2 3 4 5 6 
#
# 1 0.006243 -0.003767 -0.002688 0.000000 0.000000 0.000000
# 2 -0.003767 0.007656 0.001791 0.000000 0.000000 0.000000
# 3 -0.002688 0.001791 0.014026 0.000000 0.000000 0.000000
# 4 0.000000 0.000000 0.000000 -0.045623 0.000000 0.000000
# 5 0.000000 0.000000 0.000000 0.000000 -0.064097 0.000000
# 6 0.000000 0.000000 0.000000 0.000000 0.000000 0.012067
#
#
# Mechanical properties :
#
#
# Convention : Reuss Voigt Hill
#
# Bulk Modulus (GPa) = 53.77137 87.31440 70.54289
# Shear Modulus (GPa) = -92.24686 33.33284 -29.45701
#
# Velocity S-wave (km/s) = -6.40058 3.84751 -3.61691
# Velocity P-wave (km/s) = 5.54464 7.64949 3.72637
#
# Compressibility (1/GPa) = 0.01859726
#
# Stress axis : x y z
#
# Youngs Moduli (GPa) = 160.18073 130.62114 71.29741
#
# Poissons Ratio (x) = 0.49201 0.19167
# Poissons Ratio (y) = 0.60336 -0.12772
# Poissons Ratio (z) = 0.43061 -0.23399
#
# Static dielectric constant tensor:
#      x y z
#    x 1.849930 0.000000 0.000000 
#    y 0.000000 1.883620 0.000000 
#    z 0.000000 0.000000 1.852070 
# 
# From -- ./inp_files/41471.got.cif
#   From: 2010.05.17/outbox.cif.g08.bks.cpg/sg74_21_cif.got.tgz:41471.got - 2010.06.03 17:57:02.
