data_PCOD9534733
_publ_section_title
;
Structure prediction by ZEFSAII (Michael W. Deem and Ramdas Pophale) SiO2 
 PCOD9534733
Probable space group: I M M A
;
_chemical_formula_sum "Si O2"
_cell_formula_units_Z 96
_cell_length_a 8.606532
_cell_length_b 32.697443
_cell_length_c 18.981934
_cell_angle_alpha 90.000000
_cell_angle_beta 90.000000
_cell_angle_gamma 90.000000
_cell_volume 5341.736219
_symmetry_space_group_name_H-M "I M M A"
_symmetry_group_IT_number 74
_symmetry_cell_setting 'orthorhombic'
loop_
_space_group_symop_operation_xyz
x,y,z
-x,1/2-y,z
x,-y,-z
-x,1/2+y,-z
-x,-y,-z
x,1/2+y,-z
-x,y,z
x,1/2-y,z
1/2+x,1/2+y,1/2+z
1/2-x,-y,1/2+z
1/2+x,1/2-y,1/2-z
1/2-x,y,1/2-z
1/2-x,1/2-y,1/2-z
1/2+x,y,1/2-z
1/2-x,1/2+y,1/2+z
1/2+x,-y,1/2+z
loop_
_atom_site_type_symbol
_atom_site_label
_atom_site_fract_x
_atom_site_fract_y
_atom_site_fract_z
Si Si1 0.688951 0.838589 0.921506
Si Si2 0.683945 0.913358 0.171009
Si Si3 0.685031 0.501974 0.330110
Si Si4 0.814470 0.250000 0.932514
Si Si5 0.684680 0.159851 0.580289
Si Si6 0.686184 0.917076 0.829315
Si Si7 0.816810 0.250000 0.411472
O O1 0.500000 0.837559 0.928190
O O2 0.730521 0.877432 0.874350
O O3 0.741937 0.794800 0.888697
O O4 0.761575 0.842516 0.999032
O O5 0.500000 0.918168 0.175313
O O6 0.750000 0.908365 0.250000
O O7 0.755082 0.955227 0.139116
O O8 0.729547 0.874197 0.125490
O O9 0.500000 0.501481 0.328682
O O10 0.750000 0.502190 0.250000
O O11 0.748183 0.459486 0.360927
O O12 0.782493 0.206737 0.895675
O O13 0.000000 0.250000 0.950477
O O14 0.716756 0.250000 0.004653
O O15 0.500000 0.153189 0.584928
O O16 0.500000 0.919972 0.826403
O O17 0.750000 0.912904 0.750000
O O18 0.000000 0.250000 0.397174
#
# Coordination Sequence:
#
# PCOD9534733 Si02
#       7
#    16  16  16   8  16  16   8
#     4   9  18  32  51  74 100 132 168 207 249 294
#     4  11  21  35  54  76 102 131 165 203 245 292
#     4  10  18  31  51  73  97 128 166 203 244 295
#     4   8  16  30  49  72  99 130 163 200 241 290
#     4  10  19  33  53  77 103 131 165 204 247 294
#     4  10  19  32  50  73 101 132 168 207 249 295
#     4   8  14  28  49  70  94 128 169 204 240 292
#
# _framework density 17.971685999999998
#
# number of rings (size 3 to 8) (size 9 to 14) (size 15 to 20)
#    0.000    2.333    0.000    6.000    0.000    2.000 
#    0.000    1.667    0.000    5.000    0.000    0.000 
#    0.000    0.000    0.000    0.000    0.000    0.000 
#
# Total GULP energy -267488.932571 kJ/mol
# GULP energy per Si atom -5572.686095 kJ/mol
# Density = 1.793078 g / cm^3
# Si number density = 17.971686 Si / 1000 Ang^3
#
#
#
# Elastic Constant Matrix: (Units=GPa)
#
#
# Indices 1 2 3 4 5 6 
#
# 1 85.8610 56.3726 17.7618 0.0000 0.0000 0.0000
# 2 56.3726 197.4694 50.7680 0.0000 0.0000 0.0000
# 3 17.7618 50.7680 32.8334 0.0000 0.0000 0.0000
# 4 0.0000 0.0000 0.0000 30.8957 0.0000 0.0000
# 5 0.0000 0.0000 0.0000 0.0000 19.9242 0.0000
# 6 0.0000 0.0000 0.0000 0.0000 0.0000 25.3820
#
#
#
# Elastic Compliance Matrix: (Units=1/GPa)
#
#
# Indices 1 2 3 4 5 6 
#
# 1 0.014445 -0.003510 -0.002387 0.000000 0.000000 0.000000
# 2 -0.003510 0.009258 -0.012417 0.000000 0.000000 0.000000
# 3 -0.002387 -0.012417 0.050947 0.000000 0.000000 0.000000
# 4 0.000000 0.000000 0.000000 0.032367 0.000000 0.000000
# 5 0.000000 0.000000 0.000000 0.000000 0.050190 0.000000
# 6 0.000000 0.000000 0.000000 0.000000 0.000000 0.039398
#
#
# Mechanical properties :
#
#
# Convention : Reuss Voigt Hill
#
# Bulk Modulus (GPa) = 26.29979 62.88540 44.59260
# Shear Modulus (GPa) = 20.33282 27.99114 24.16198
#
# Velocity S-wave (km/s) = 3.36725 3.95082 3.67065
# Velocity P-wave (km/s) = 5.45744 7.47524 6.54457
#
# Compressibility (1/GPa) = 0.03802311
#
# Stress axis : x y z
#
# Youngs Moduli (GPa) = 69.22790 108.01059 19.62812
#
# Poissons Ratio (x) = 0.37912 0.04685
# Poissons Ratio (y) = 0.24299 0.24372
# Poissons Ratio (z) = 0.16525 1.34114
#
# Static dielectric constant tensor:
#      x y z
#    x 1.612180 0.000000 0.000000 
#    y 0.000000 1.684490 0.000000 
#    z 0.000000 0.000000 1.618830 
# 
# From -- ./inp_files/57546.got.cif
#   From: 2010.05.17/outbox.cif.g08.bks.cpg/sg74_29_cif.got.tgz:57546.got - 2010.06.03 17:57:02.
