data_PCOD9534671
_publ_section_title
;
Structure prediction by ZEFSAII (Michael W. Deem and Ramdas Pophale) SiO2 
 PCOD9534671
Probable space group: I M M A
;
_chemical_formula_sum "Si O2"
_cell_formula_units_Z 96
_cell_length_a 15.894971
_cell_length_b 14.629553
_cell_length_c 23.811244
_cell_angle_alpha 90.000000
_cell_angle_beta 90.000000
_cell_angle_gamma 90.000000
_cell_volume 5536.979071
_symmetry_space_group_name_H-M "I M M A"
_symmetry_group_IT_number 74
_symmetry_cell_setting 'orthorhombic'
loop_
_space_group_symop_operation_xyz
x,y,z
-x,1/2-y,z
x,-y,-z
-x,1/2+y,-z
-x,-y,-z
x,1/2+y,-z
-x,y,z
x,1/2-y,z
1/2+x,1/2+y,1/2+z
1/2-x,-y,1/2+z
1/2+x,1/2-y,1/2-z
1/2-x,y,1/2-z
1/2-x,1/2-y,1/2-z
1/2+x,y,1/2-z
1/2-x,1/2+y,1/2+z
1/2+x,-y,1/2+z
loop_
_atom_site_type_symbol
_atom_site_label
_atom_site_fract_x
_atom_site_fract_y
_atom_site_fract_z
Si Si1 0.315245 0.648427 0.106719
Si Si2 0.596630 0.142936 0.319270
Si Si3 0.829975 0.856350 0.527257
Si Si4 0.000000 0.146073 0.616024
Si Si5 0.500000 0.948605 0.940953
Si Si6 0.903435 0.358020 0.315427
Si Si7 0.748905 0.544114 0.622659
O O1 0.278481 0.750000 0.111437
O O2 0.404833 0.648334 0.139380
O O3 0.258072 0.564659 0.124542
O O4 0.336156 0.632048 0.040133
O O5 0.500000 0.124436 0.335548
O O6 0.614663 0.250000 0.330690
O O7 0.602074 0.131158 0.251918
O O8 0.664054 0.081620 0.350658
O O9 0.812805 0.750000 0.537862
O O10 0.917712 0.885842 0.555649
O O11 0.762023 0.918517 0.559173
O O12 0.000000 0.250000 0.585260
O O13 0.000000 0.040364 0.595824
O O14 0.500000 0.000000 0.000000
O O15 0.893089 0.250000 0.327539
O O16 0.828083 0.413924 0.342988
O O17 0.000000 0.383108 0.332265
#
# Coordination Sequence:
#
# PCOD9534671 Si02
#       7
#    16  16  16   8   8  16  16
#     4  10  21  34  45  65 102 143 174 205 243 285
#     4   9  19  37  56  75 101 129 158 200 258 314
#     4  11  21  30  43  68 104 137 166 204 247 292
#     4  10  18  31  44  57  92 148 186 199 230 283
#     4  12  17  27  40  61  93 138 175 199 228 281
#     4   9  19  33  50  77 110 132 151 193 252 307
#     4  12  20  30  53  78  97 130 175 207 237 293
#
# _framework density 17.337973999999999
#
# number of rings (size 3 to 8) (size 9 to 14) (size 15 to 20)
#    0.000    1.667    3.333    3.750    2.333    1.333 
#    0.000    0.000    0.000    4.500    0.000    4.667 
#    0.000    0.000    0.000    0.000    0.000    0.000 
#
# Total GULP energy -267385.839204 kJ/mol
# GULP energy per Si atom -5570.538317 kJ/mol
# Density = 1.729851 g / cm^3
# Si number density = 17.337974 Si / 1000 Ang^3
#
#
#
# Elastic Constant Matrix: (Units=GPa)
#
#
# Indices 1 2 3 4 5 6 
#
# 1 84.4017 58.2579 32.5475 0.0000 0.0000 0.0000
# 2 58.2579 137.8338 23.0906 0.0000 0.0000 0.0000
# 3 32.5475 23.0906 26.7967 0.0000 0.0000 0.0000
# 4 0.0000 0.0000 0.0000 15.8029 0.0000 0.0000
# 5 0.0000 0.0000 0.0000 0.0000 19.7416 0.0000
# 6 0.0000 0.0000 0.0000 0.0000 0.0000 20.0861
#
#
#
# Elastic Compliance Matrix: (Units=1/GPa)
#
#
# Indices 1 2 3 4 5 6 
#
# 1 0.026933 -0.006899 -0.026767 0.000000 0.000000 0.000000
# 2 -0.006899 0.010247 -0.000449 0.000000 0.000000 0.000000
# 3 -0.026767 -0.000449 0.070217 0.000000 0.000000 0.000000
# 4 0.000000 0.000000 0.000000 0.063280 0.000000 0.000000
# 5 0.000000 0.000000 0.000000 0.000000 0.050655 0.000000
# 6 0.000000 0.000000 0.000000 0.000000 0.000000 0.049786
#
#
# Mechanical properties :
#
#
# Convention : Reuss Voigt Hill
#
# Bulk Modulus (GPa) = 25.53365 52.98049 39.25707
# Shear Modulus (GPa) = 14.18830 20.13519 17.16174
#
# Velocity S-wave (km/s) = 2.86376 3.41153 3.14958
# Velocity P-wave (km/s) = 5.06891 6.79278 5.99315
#
# Compressibility (1/GPa) = 0.03916400
#
# Stress axis : x y z
#
# Youngs Moduli (GPa) = 37.12984 97.59418 14.24153
#
# Poissons Ratio (x) = 0.67333 0.38121
# Poissons Ratio (y) = 0.25617 0.00640
# Poissons Ratio (z) = 0.99387 0.04386
#
# Static dielectric constant tensor:
#      x y z
#    x 1.528560 0.000000 0.000000 
#    y 0.000000 1.636730 0.000000 
#    z 0.000000 0.000000 1.658950 
# 
# From -- ./inp_files/60029.got.cif
#   From: 2010.05.17/outbox.cif.g08.bks.cpg/sg74_31_cif.got.tgz:60029.got - 2010.06.03 17:57:02.
