data_PCOD9534617
_publ_section_title
;
Structure prediction by ZEFSAII (Michael W. Deem and Ramdas Pophale) SiO2 
 PCOD9534617
Probable space group: I M M A
;
_chemical_formula_sum "Si O2"
_cell_formula_units_Z 128
_cell_length_a 17.191331
_cell_length_b 17.925909
_cell_length_c 25.393649
_cell_angle_alpha 90.000000
_cell_angle_beta 90.000000
_cell_angle_gamma 90.000000
_cell_volume 7825.566782
_symmetry_space_group_name_H-M "I M M A"
_symmetry_group_IT_number 74
_symmetry_cell_setting 'orthorhombic'
loop_
_space_group_symop_operation_xyz
x,y,z
-x,1/2-y,z
x,-y,-z
-x,1/2+y,-z
-x,-y,-z
x,1/2+y,-z
-x,y,z
x,1/2-y,z
1/2+x,1/2+y,1/2+z
1/2-x,-y,1/2+z
1/2+x,1/2-y,1/2-z
1/2-x,y,1/2-z
1/2-x,1/2-y,1/2-z
1/2+x,y,1/2-z
1/2-x,1/2+y,1/2+z
1/2+x,-y,1/2+z
loop_
_atom_site_type_symbol
_atom_site_label
_atom_site_fract_x
_atom_site_fract_y
_atom_site_fract_z
Si Si1 0.263002 0.661155 0.059018
Si Si2 0.907026 0.337872 0.387662
Si Si3 0.298999 0.932478 0.962488
Si Si4 0.094652 0.665961 0.733200
Si Si5 0.819091 0.080951 0.713556
Si Si6 0.289420 0.027300 0.622826
Si Si7 0.412849 0.161232 0.874525
Si Si8 0.092883 0.022644 0.204568
O O1 0.250030 0.750000 0.062453
O O2 0.210036 0.610258 0.097308
O O3 0.351197 0.643789 0.079421
O O4 0.258792 0.628100 0.000585
O O5 0.890439 0.250000 0.397874
O O6 0.864079 0.390987 0.428442
O O7 0.883164 0.353612 0.326975
O O8 0.000000 0.347353 0.391152
O O9 0.239936 0.971726 0.922094
O O10 0.328121 0.000000 0.000000
O O11 0.121455 0.750000 0.744785
O O12 0.118785 0.604435 0.775310
O O13 0.000000 0.667083 0.733095
O O14 0.750000 0.114705 0.750000
O O15 0.773734 0.031218 0.670201
O O16 0.872122 0.135580 0.679346
O O17 0.873894 0.033246 0.751335
O O18 0.368221 0.000797 0.649889
O O19 0.500000 0.129560 0.880878
O O20 0.418921 0.250000 0.873923
O O21 0.000000 0.019963 0.202637
#
# Coordination Sequence:
#
# PCOD9534617 Si02
#       8
#    16  16  16  16  16  16  16  16
#     4   9  18  33  51  67  89 127 162 190 237 290
#     4   9  17  29  45  67  98 132 161 190 227 275
#     4  10  19  31  47  66  91 121 158 203 242 279
#     4   8  15  28  45  66  93 124 151 175 215 272
#     4   9  17  29  46  68  97 130 156 181 221 277
#     4   9  19  33  48  71  99 123 154 195 233 277
#     4   9  17  29  45  67  95 124 158 199 234 269
#     4  10  18  30  51  73  95 124 155 190 232 275
#
# _framework density 16.356642000000001
#
# number of rings (size 3 to 8) (size 9 to 14) (size 15 to 20)
#    0.000    2.875    0.000    2.250    0.000    1.000 
#    0.000   10.625    0.000    9.375    0.000    0.000 
#    0.000    0.000    0.000    0.000    0.000    0.000 
#
# Total GULP energy -356366.794838 kJ/mol
# GULP energy per Si atom -5568.231169 kJ/mol
# Density = 1.631941 g / cm^3
# Si number density = 16.356642 Si / 1000 Ang^3
#
#
#
# Elastic Constant Matrix: (Units=GPa)
#
#
# Indices 1 2 3 4 5 6 
#
# 1 45.2756 29.3060 33.3198 0.0000 0.0000 0.0000
# 2 29.3060 76.6487 49.7365 0.0000 0.0000 0.0000
# 3 33.3198 49.7365 90.0984 0.0000 0.0000 0.0000
# 4 0.0000 0.0000 0.0000 24.0425 0.0000 0.0000
# 5 0.0000 0.0000 0.0000 0.0000 16.5178 0.0000
# 6 0.0000 0.0000 0.0000 0.0000 0.0000 15.6492
#
#
#
# Elastic Compliance Matrix: (Units=1/GPa)
#
#
# Indices 1 2 3 4 5 6 
#
# 1 0.032752 -0.007265 -0.008101 0.000000 0.000000 0.000000
# 2 -0.007265 0.021940 -0.009424 0.000000 0.000000 0.000000
# 3 -0.008101 -0.009424 0.019298 0.000000 0.000000 0.000000
# 4 0.000000 0.000000 0.000000 0.041593 0.000000 0.000000
# 5 0.000000 0.000000 0.000000 0.000000 0.060541 0.000000
# 6 0.000000 0.000000 0.000000 0.000000 0.000000 0.063901
#
#
# Mechanical properties :
#
#
# Convention : Reuss Voigt Hill
#
# Bulk Modulus (GPa) = 40.97263 48.52748 44.75005
# Shear Modulus (GPa) = 16.79307 17.88594 17.33950
#
# Velocity S-wave (km/s) = 3.20766 3.31039 3.25943
# Velocity P-wave (km/s) = 6.23079 6.65916 6.44853
#
# Compressibility (1/GPa) = 0.02440654
#
# Stress axis : x y z
#
# Youngs Moduli (GPa) = 30.53262 45.57917 51.82010
#
# Poissons Ratio (x) = 0.33115 0.41982
# Poissons Ratio (y) = 0.22183 0.48838
# Poissons Ratio (z) = 0.24736 0.42956
#
# Static dielectric constant tensor:
#      x y z
#    x 1.547910 0.000000 0.000000 
#    y 0.000000 1.565230 0.000000 
#    z 0.000000 0.000000 1.553460 
# 
# From -- ./inp_files/61158.got.cif
#   From: 2010.05.17/outbox.cif.g08.bks.cpg/sg74_31_cif.got.tgz:61158.got - 2010.06.03 17:57:02.
