data_PCOD9534917
_publ_section_title
;
Structure prediction by ZEFSAII (Michael W. Deem and Ramdas Pophale) SiO2 
 PCOD9534917
Probable space group: I M M A
;
_chemical_formula_sum "Si O2"
_cell_formula_units_Z 88
_cell_length_a 28.740613
_cell_length_b 7.807149
_cell_length_c 18.176912
_cell_angle_alpha 90.000000
_cell_angle_beta 90.000000
_cell_angle_gamma 90.000000
_cell_volume 4078.576377
_symmetry_space_group_name_H-M "I M M A"
_symmetry_group_IT_number 74
_symmetry_cell_setting 'orthorhombic'
loop_
_space_group_symop_operation_xyz
x,y,z
-x,1/2-y,z
x,-y,-z
-x,1/2+y,-z
-x,-y,-z
x,1/2+y,-z
-x,y,z
x,1/2-y,z
1/2+x,1/2+y,1/2+z
1/2-x,-y,1/2+z
1/2+x,1/2-y,1/2-z
1/2-x,y,1/2-z
1/2-x,1/2-y,1/2-z
1/2+x,y,1/2-z
1/2-x,1/2+y,1/2+z
1/2+x,-y,1/2+z
loop_
_atom_site_type_symbol
_atom_site_label
_atom_site_fract_x
_atom_site_fract_y
_atom_site_fract_z
Si Si1 0.398280 0.448559 0.914096
Si Si2 0.182270 0.946735 0.688881
Si Si3 0.353196 0.460203 0.345170
Si Si4 0.448451 0.956428 0.585888
Si Si5 0.739655 0.044203 0.418080
Si Si6 0.000000 0.453422 0.413371
O O1 0.386378 0.250000 0.908548
O O2 0.360778 0.550374 0.867354
O O3 0.450859 0.477168 0.885092
O O4 0.397227 0.500000 0.000000
O O5 0.195177 0.750000 0.705972
O O6 0.164547 0.021494 0.765628
O O7 0.225888 0.024228 0.645141
O O8 0.355083 0.250000 0.343753
O O9 0.404328 0.520494 0.368116
O O10 0.313172 0.511379 0.402809
O O11 0.500000 0.019669 0.607919
O O12 0.449089 0.750000 0.592118
O O13 0.441800 0.000000 0.500000
O O14 0.740689 0.250000 0.412958
O O15 0.755498 0.000000 0.500000
O O16 0.000000 0.500000 0.500000
O O17 0.000000 0.250000 0.405815
#
# Coordination Sequence:
#
# PCOD9534917 Si02
#       6
#    16  16  16  16  16   8
#     4  11  21  35  54  77 107 141 182 228 275 325
#     4  10  20  35  53  76 106 142 182 223 273 328
#     4   9  18  34  54  77 106 141 181 223 272 332
#     4   9  17  31  53  79 106 136 175 220 266 321
#     4  10  20  34  55  79 104 138 181 230 277 329
#     4  10  18  32  54  78 102 134 177 224 271 316
#
# _framework density 21.576155
#
# number of rings (size 3 to 8) (size 9 to 14) (size 15 to 20)
#    0.000    2.182    0.000    5.182    0.000    4.364 
#    1.636    1.818    0.000    2.182    0.000    0.000 
#    0.000    0.000    0.000    0.000    0.000    0.000 
#
# Total GULP energy -245654.459203 kJ/mol
# GULP energy per Si atom -5583.055891 kJ/mol
# Density = 2.152705 g / cm^3
# Si number density = 21.576155 Si / 1000 Ang^3
#
#
#
# Elastic Constant Matrix: (Units=GPa)
#
#
# Indices 1 2 3 4 5 6 
#
# 1 165.7452 -1.9868 63.9267 0.0000 0.0000 0.0000
# 2 -1.9868 45.3043 -1.7703 0.0000 0.0000 0.0000
# 3 63.9267 -1.7703 94.8041 0.0000 0.0000 0.0000
# 4 0.0000 0.0000 0.0000 16.0007 0.0000 0.0000
# 5 0.0000 0.0000 0.0000 0.0000 -29.6235 0.0000
# 6 0.0000 0.0000 0.0000 0.0000 0.0000 28.5035
#
#
#
# Elastic Compliance Matrix: (Units=1/GPa)
#
#
# Indices 1 2 3 4 5 6 
#
# 1 0.008155 0.000143 -0.005496 0.000000 0.000000 0.000000
# 2 0.000143 0.022092 0.000316 0.000000 0.000000 0.000000
# 3 -0.005496 0.000316 0.014260 0.000000 0.000000 0.000000
# 4 0.000000 0.000000 0.000000 0.062497 0.000000 0.000000
# 5 0.000000 0.000000 0.000000 0.000000 -0.033757 0.000000
# 6 0.000000 0.000000 0.000000 0.000000 0.000000 0.035083
#
#
# Mechanical properties :
#
#
# Convention : Reuss Voigt Hill
#
# Bulk Modulus (GPa) = 29.04252 47.35475 38.19863
# Shear Modulus (GPa) = 38.49647 19.35507 28.92577
#
# Velocity S-wave (km/s) = 4.22858 2.99834 3.66544
# Velocity P-wave (km/s) = 6.10990 5.82942 5.97130
#
# Compressibility (1/GPa) = 0.03443227
#
# Stress axis : x y z
#
# Youngs Moduli (GPa) = 122.62530 45.26609 70.12580
#
# Poissons Ratio (x) = -0.00647 0.38543
# Poissons Ratio (y) = -0.01752 -0.02217
# Poissons Ratio (z) = 0.67398 -0.01431
#
# Static dielectric constant tensor:
#      x y z
#    x 1.805210 0.000000 0.000000 
#    y 0.000000 1.790990 0.000000 
#    z 0.000000 0.000000 1.765930 
# 
# From -- ./inp_files/47010.got.cif
#   From: 2010.05.17/outbox.cif.g08.bks.cpg/sg74_24_cif.got.tgz:47010.got - 2010.06.03 17:57:02.
