data_PCOD9534879
_publ_section_title
;
Structure prediction by ZEFSAII (Michael W. Deem and Ramdas Pophale) SiO2 
 PCOD9534879
Probable space group: I M M A
;
_chemical_formula_sum "Si O2"
_cell_formula_units_Z 72
_cell_length_a 8.931773
_cell_length_b 14.694718
_cell_length_c 37.300421
_cell_angle_alpha 90.000000
_cell_angle_beta 90.000000
_cell_angle_gamma 90.000000
_cell_volume 4895.675984
_symmetry_space_group_name_H-M "I M M A"
_symmetry_group_IT_number 74
_symmetry_cell_setting 'orthorhombic'
loop_
_space_group_symop_operation_xyz
x,y,z
-x,1/2-y,z
x,-y,-z
-x,1/2+y,-z
-x,-y,-z
x,1/2+y,-z
-x,y,z
x,1/2-y,z
1/2+x,1/2+y,1/2+z
1/2-x,-y,1/2+z
1/2+x,1/2-y,1/2-z
1/2-x,y,1/2-z
1/2-x,1/2-y,1/2-z
1/2+x,y,1/2-z
1/2-x,1/2+y,1/2+z
1/2+x,-y,1/2+z
loop_
_atom_site_type_symbol
_atom_site_label
_atom_site_fract_x
_atom_site_fract_y
_atom_site_fract_z
Si Si1 0.676938 0.857334 0.520613
Si Si2 0.178243 0.856294 0.444366
Si Si3 0.321136 0.750000 0.710836
Si Si4 0.679189 0.975704 0.590216
Si Si5 0.823787 0.148536 0.350622
O O1 0.500000 0.872597 0.513524
O O2 0.697469 0.750000 0.528313
O O3 0.766435 0.879436 0.484574
O O4 0.720175 0.916538 0.554891
O O5 0.215846 0.750000 0.438382
O O6 0.000000 0.866906 0.442115
O O7 0.258826 0.923945 0.417102
O O8 0.500000 0.750000 0.712129
O O9 0.250000 0.750000 0.750000
O O10 0.259655 0.664919 0.687207
O O11 0.500000 0.975648 0.593242
O O12 0.750957 0.926488 0.624347
O O13 0.808170 0.250000 0.368164
O O14 0.000000 0.132416 0.345166
#
# Coordination Sequence:
#
# PCOD9534879 Si02
#       5
#    16  16   8  16  16
#     4   9  18  31  45  62  85 114 150 192 242 296
#     4  10  21  34  45  59  82 116 158 204 250 292
#     4  10  18  32  52  74 104 136 162 186 220 270
#     4  11  20  30  47  67  89 119 154 197 243 287
#     4   9  19  32  47  71  99 127 156 186 224 271
#
# _framework density 14.706856
#
# number of rings (size 3 to 8) (size 9 to 14) (size 15 to 20)
#    0.667    1.556    0.000    4.000    0.000    6.667 
#    0.000    2.222    0.000    0.000    0.000    0.000 
#    0.000    0.889    0.000    3.333    0.000    5.111 
#
# Total GULP energy -200682.492940 kJ/mol
# GULP energy per Si atom -5574.513693 kJ/mol
# Density = 1.467338 g / cm^3
# Si number density = 14.706856 Si / 1000 Ang^3
#
#
#
# Elastic Constant Matrix: (Units=GPa)
#
#
# Indices 1 2 3 4 5 6 
#
# 1 84.6254 49.0227 63.1609 0.0000 0.0000 0.0000
# 2 49.0227 64.4215 60.0887 0.0000 0.0000 0.0000
# 3 63.1609 60.0887 105.4979 0.0000 0.0000 0.0000
# 4 0.0000 0.0000 0.0000 16.9960 0.0000 0.0000
# 5 0.0000 0.0000 0.0000 0.0000 25.7090 0.0000
# 6 0.0000 0.0000 0.0000 0.0000 0.0000 22.3879
#
#
#
# Elastic Compliance Matrix: (Units=1/GPa)
#
#
# Indices 1 2 3 4 5 6 
#
# 1 0.024288 -0.010495 -0.008563 0.000000 0.000000 0.000000
# 2 -0.010495 0.037651 -0.015162 0.000000 0.000000 0.000000
# 3 -0.008563 -0.015162 0.023242 0.000000 0.000000 0.000000
# 4 0.000000 0.000000 0.000000 0.058838 0.000000 0.000000
# 5 0.000000 0.000000 0.000000 0.000000 0.038897 0.000000
# 6 0.000000 0.000000 0.000000 0.000000 0.000000 0.044667
#
#
# Mechanical properties :
#
#
# Convention : Reuss Voigt Hill
#
# Bulk Modulus (GPa) = 59.73623 66.56552 63.15087
# Shear Modulus (GPa) = 16.57816 18.50340 17.54078
#
# Velocity S-wave (km/s) = 3.36108 3.55089 3.45729
# Velocity P-wave (km/s) = 7.46784 7.88489 7.67920
#
# Compressibility (1/GPa) = 0.01674026
#
# Stress axis : x y z
#
# Youngs Moduli (GPa) = 41.17331 26.55964 43.02646
#
# Poissons Ratio (x) = 0.27874 0.36845
# Poissons Ratio (y) = 0.43210 0.65236
# Poissons Ratio (z) = 0.35258 0.40270
#
# Static dielectric constant tensor:
#      x y z
#    x 1.487010 0.000000 0.000000 
#    y 0.000000 1.497310 0.000000 
#    z 0.000000 0.000000 1.457270 
# 
# From -- ./inp_files/69979.got.cif
#   From: 2010.05.17/outbox.cif.g08.bks.cpg/sg74_35_cif.got.tgz:69979.got - 2010.06.03 17:57:02.
