data_PCOD9534842
_publ_section_title
;
Structure prediction by ZEFSAII (Michael W. Deem and Ramdas Pophale) SiO2 
 PCOD9534842
Probable space group: I M M A
;
_chemical_formula_sum "Si O2"
_cell_formula_units_Z 116
_cell_length_a 21.461766
_cell_length_b 17.755773
_cell_length_c 17.821578
_cell_angle_alpha 90.000000
_cell_angle_beta 90.000000
_cell_angle_gamma 90.000000
_cell_volume 6791.273100
_symmetry_space_group_name_H-M "I M M A"
_symmetry_group_IT_number 74
_symmetry_cell_setting 'orthorhombic'
loop_
_space_group_symop_operation_xyz
x,y,z
-x,1/2-y,z
x,-y,-z
-x,1/2+y,-z
-x,-y,-z
x,1/2+y,-z
-x,y,z
x,1/2-y,z
1/2+x,1/2+y,1/2+z
1/2-x,-y,1/2+z
1/2+x,1/2-y,1/2-z
1/2-x,y,1/2-z
1/2-x,1/2-y,1/2-z
1/2+x,y,1/2-z
1/2-x,1/2+y,1/2+z
1/2+x,-y,1/2+z
loop_
_atom_site_type_symbol
_atom_site_label
_atom_site_fract_x
_atom_site_fract_y
_atom_site_fract_z
Si Si1 0.575217 0.470137 0.163246
Si Si2 0.424450 0.334289 0.057996
Si Si3 0.072918 0.537604 0.837339
Si Si4 0.072064 0.661259 0.957888
Si Si5 0.892134 0.136663 0.614603
Si Si6 0.337698 0.937145 0.439662
Si Si7 0.000000 0.250000 0.662310
Si Si8 0.251943 0.336524 0.837911
O O1 0.500000 0.472696 0.157603
O O2 0.596897 0.399592 0.113638
O O3 0.590852 0.459919 0.250499
O O4 0.600291 0.548746 0.132642
O O5 0.500000 0.335556 0.055569
O O6 0.405609 0.250000 0.081368
O O7 0.402400 0.348856 0.973597
O O8 0.078058 0.618052 0.878697
O O9 0.116288 0.480921 0.883137
O O10 0.000000 0.514653 0.842522
O O11 0.082784 0.750000 0.951626
O O12 0.000000 0.649376 0.982990
O O13 0.120015 0.621808 0.014058
O O14 0.945224 0.184463 0.656660
O O15 0.823683 0.161752 0.637839
O O16 0.286660 0.892576 0.391329
O O17 0.314049 0.000000 0.500000
O O18 0.228189 0.250000 0.844132
O O19 0.250000 0.358309 0.750000
#
# Coordination Sequence:
#
# PCOD9534842 Si02
#       8
#    16  16  16  16  16  16   4  16
#     4  10  20  30  51  78 107 140 177 218 264 324
#     4  10  18  32  50  76 108 140 175 221 267 310
#     4   9  18  33  51  78 110 144 176 223 279 319
#     4   9  17  31  56  81 106 138 181 226 271 320
#     4  12  20  37  56  77 106 141 181 219 270 321
#     4  10  20  36  55  76 105 140 181 223 262 317
#     4  12  20  36  60  80 106 140 174 230 268 324
#     4  11  24  39  56  77 108 142 174 218 271 320
#
# _framework density 17.080743999999999
#
# number of rings (size 3 to 8) (size 9 to 14) (size 15 to 20)
#    0.000    1.793    2.759    2.069    0.000    4.414 
#    0.000    2.759    0.000    0.000    0.000    0.000 
#    0.000   12.138    0.000    0.000    0.000    0.000 
#
# Total GULP energy -323033.620800 kJ/mol
# GULP energy per Si atom -5569.545186 kJ/mol
# Density = 1.704187 g / cm^3
# Si number density = 17.080744 Si / 1000 Ang^3
#
#
#
# Elastic Constant Matrix: (Units=GPa)
#
#
# Indices 1 2 3 4 5 6 
#
# 1 64.8520 51.4942 26.5939 0.0000 0.0000 0.0000
# 2 51.4942 147.0198 60.8679 0.0000 0.0000 0.0000
# 3 26.5939 60.8679 62.6084 0.0000 0.0000 0.0000
# 4 0.0000 0.0000 0.0000 10.8747 0.0000 0.0000
# 5 0.0000 0.0000 0.0000 0.0000 10.2088 0.0000
# 6 0.0000 0.0000 0.0000 0.0000 0.0000 15.9535
#
#
#
# Elastic Compliance Matrix: (Units=1/GPa)
#
#
# Indices 1 2 3 4 5 6 
#
# 1 0.021705 -0.006335 -0.003060 0.000000 0.000000 0.000000
# 2 -0.006335 0.013233 -0.010174 0.000000 0.000000 0.000000
# 3 -0.003060 -0.010174 0.027164 0.000000 0.000000 0.000000
# 4 0.000000 0.000000 0.000000 0.091957 0.000000 0.000000
# 5 0.000000 0.000000 0.000000 0.000000 0.097955 0.000000
# 6 0.000000 0.000000 0.000000 0.000000 0.000000 0.062682
#
#
# Mechanical properties :
#
#
# Convention : Reuss Voigt Hill
#
# Bulk Modulus (GPa) = 43.55018 61.37689 52.46354
# Shear Modulus (GPa) = 13.83169 16.44233 15.13701
#
# Velocity S-wave (km/s) = 2.84876 3.10598 2.98015
# Velocity P-wave (km/s) = 6.03097 6.99101 6.52866
#
# Compressibility (1/GPa) = 0.02296202
#
# Stress axis : x y z
#
# Youngs Moduli (GPa) = 46.07217 75.56908 36.81409
#
# Poissons Ratio (x) = 0.47875 0.11267
# Poissons Ratio (y) = 0.29188 0.37455
# Poissons Ratio (z) = 0.14100 0.76885
#
# Static dielectric constant tensor:
#      x y z
#    x 1.552040 0.000000 0.000000 
#    y 0.000000 1.581710 0.000000 
#    z 0.000000 0.000000 1.569320 
# 
# From -- ./inp_files/44262.got.cif
#   From: 2010.05.17/outbox.cif.g08.bks.cpg/sg74_23_cif.got.tgz:44262.got - 2010.06.03 17:57:02.
