data_PCOD9534031
_publ_section_title
;
Structure prediction by ZEFSAII (Michael W. Deem and Ramdas Pophale) SiO2 
 PCOD9534031
Probable space group: I M M A
;
_chemical_formula_sum "Si O2"
_cell_formula_units_Z 120
_cell_length_a 23.643887
_cell_length_b 17.165391
_cell_length_c 20.976557
_cell_angle_alpha 90.000000
_cell_angle_beta 90.000000
_cell_angle_gamma 90.000000
_cell_volume 8513.473372
_symmetry_space_group_name_H-M "I M M A"
_symmetry_group_IT_number 74
_symmetry_cell_setting 'orthorhombic'
loop_
_space_group_symop_operation_xyz
x,y,z
-x,1/2-y,z
x,-y,-z
-x,1/2+y,-z
-x,-y,-z
x,1/2+y,-z
-x,y,z
x,1/2-y,z
1/2+x,1/2+y,1/2+z
1/2-x,-y,1/2+z
1/2+x,1/2-y,1/2-z
1/2-x,y,1/2-z
1/2-x,1/2-y,1/2-z
1/2+x,y,1/2-z
1/2-x,1/2+y,1/2+z
1/2+x,-y,1/2+z
loop_
_atom_site_type_symbol
_atom_site_label
_atom_site_fract_x
_atom_site_fract_y
_atom_site_fract_z
Si Si1 0.175200 0.840946 0.940243
Si Si2 0.750000 0.934692 0.250000
Si Si3 0.435287 0.593929 0.492568
Si Si4 0.563918 0.843090 0.217651
Si Si5 0.823514 0.343619 0.646481
Si Si6 0.247371 0.926271 0.459274
Si Si7 0.821605 0.517196 0.855760
Si Si8 0.564729 0.566661 0.349446
O O1 0.178476 0.750000 0.927771
O O2 0.186673 0.894979 0.878944
O O3 0.113495 0.864247 0.967973
O O4 0.220393 0.867589 0.993735
O O5 0.785421 0.879437 0.296978
O O6 0.790417 0.989228 0.207727
O O7 0.428314 0.500000 0.500000
O O8 0.500000 0.612587 0.511610
O O9 0.429278 0.611184 0.416958
O O10 0.500000 0.864457 0.197873
O O11 0.566117 0.750000 0.225893
O O12 0.612245 0.863373 0.166804
O O13 0.574386 0.881410 0.286762
O O14 0.817663 0.250000 0.642923
O O15 0.800032 0.383843 0.582645
O O16 0.225526 0.000000 0.500000
O O17 0.294443 0.963202 0.411607
O O18 0.887765 0.499015 0.850019
O O19 0.500000 0.537583 0.348038
#
# Coordination Sequence:
#
# PCOD9534031 Si02
#       8
#    16   8  16  16  16  16  16  16
#     4  11  20  30  44  62  86 115 150 192 222 252
#     4  10  19  30  45  64  90 116 146 184 219 268
#     4  10  18  29  43  59  83 118 153 184 218 257
#     4   9  18  30  43  65  95 119 140 172 216 263
#     4  10  18  28  46  71  92 113 143 182 221 259
#     4   9  18  32  46  62  89 119 147 174 217 269
#     4  10  18  32  45  63  83 116 149 178 222 266
#     4  10  17  28  45  60  85 122 153 175 208 261
#
# _framework density 14.095305
#
# number of rings (size 3 to 8) (size 9 to 14) (size 15 to 20)
#    0.000    2.133    4.000    1.000    0.000    0.800 
#    0.000    1.667    0.000    0.400    0.000    0.000 
#    0.000    0.000    0.000    0.000    0.000    0.000 
#
# Total GULP energy -334289.097868 kJ/mol
# GULP energy per Si atom -5571.484964 kJ/mol
# Density = 1.406322 g / cm^3
# Si number density = 14.095305 Si / 1000 Ang^3
#
#
#
# Elastic Constant Matrix: (Units=GPa)
#
#
# Indices 1 2 3 4 5 6 
#
# 1 77.3479 38.9250 42.7525 0.0000 0.0000 0.0000
# 2 38.9250 77.5936 33.3926 0.0000 0.0000 0.0000
# 3 42.7525 33.3926 65.1817 0.0000 0.0000 0.0000
# 4 0.0000 0.0000 0.0000 19.8409 0.0000 0.0000
# 5 0.0000 0.0000 0.0000 0.0000 23.2470 0.0000
# 6 0.0000 0.0000 0.0000 0.0000 0.0000 14.6577
#
#
#
# Elastic Compliance Matrix: (Units=1/GPa)
#
#
# Indices 1 2 3 4 5 6 
#
# 1 0.022464 -0.006322 -0.011495 0.000000 0.000000 0.000000
# 2 -0.006322 0.018312 -0.005235 0.000000 0.000000 0.000000
# 3 -0.011495 -0.005235 0.025563 0.000000 0.000000 0.000000
# 4 0.000000 0.000000 0.000000 0.050401 0.000000 0.000000
# 5 0.000000 0.000000 0.000000 0.000000 0.043016 0.000000
# 6 0.000000 0.000000 0.000000 0.000000 0.000000 0.068223
#
#
# Mechanical properties :
#
#
# Convention : Reuss Voigt Hill
#
# Bulk Modulus (GPa) = 49.41889 50.02925 49.72407
# Shear Modulus (GPa) = 17.80448 18.55266 18.17857
#
# Velocity S-wave (km/s) = 3.55794 3.63192 3.59512
# Velocity P-wave (km/s) = 7.21216 7.29098 7.25168
#
# Compressibility (1/GPa) = 0.02023518
#
# Stress axis : x y z
#
# Youngs Moduli (GPa) = 44.51586 54.60948 39.11894
#
# Poissons Ratio (x) = 0.34525 0.44968
# Poissons Ratio (y) = 0.28143 0.20477
# Poissons Ratio (z) = 0.51172 0.28585
#
# Static dielectric constant tensor:
#      x y z
#    x 1.475440 0.000000 0.000000 
#    y 0.000000 1.445600 0.000000 
#    z 0.000000 0.000000 1.465470 
# 
# From -- ./inp_files/54826.got.cif
#   From: 2010.05.17/outbox.cif.g08.bks.cpg/sg74_28_cif.got.tgz:54826.got - 2010.06.03 17:57:02.
