data_PCOD9534043
_publ_section_title
;
Structure prediction by ZEFSAII (Michael W. Deem and Ramdas Pophale) SiO2 
 PCOD9534043
Probable space group: I M M A
;
_chemical_formula_sum "Si O2"
_cell_formula_units_Z 80
_cell_length_a 11.914808
_cell_length_b 20.882135
_cell_length_c 20.813334
_cell_angle_alpha 90.000000
_cell_angle_beta 90.000000
_cell_angle_gamma 90.000000
_cell_volume 5178.495474
_symmetry_space_group_name_H-M "I M M A"
_symmetry_group_IT_number 74
_symmetry_cell_setting 'orthorhombic'
loop_
_space_group_symop_operation_xyz
x,y,z
-x,1/2-y,z
x,-y,-z
-x,1/2+y,-z
-x,-y,-z
x,1/2+y,-z
-x,y,z
x,1/2-y,z
1/2+x,1/2+y,1/2+z
1/2-x,-y,1/2+z
1/2+x,1/2-y,1/2-z
1/2-x,y,1/2-z
1/2-x,1/2-y,1/2-z
1/2+x,y,1/2-z
1/2-x,1/2+y,1/2+z
1/2+x,-y,1/2+z
loop_
_atom_site_type_symbol
_atom_site_label
_atom_site_fract_x
_atom_site_fract_y
_atom_site_fract_z
Si Si1 0.134361 0.056020 0.948584
Si Si2 0.773613 0.955766 0.320706
Si Si3 0.131609 0.320275 0.668692
Si Si4 0.500000 0.986575 0.106143
Si Si5 0.212437 0.677717 0.477357
Si Si6 0.000000 0.891640 0.516575
O O1 0.181638 0.038469 0.877552
O O2 0.000000 0.062547 0.946902
O O3 0.193258 0.122638 0.970380
O O4 0.163963 0.000000 0.000000
O O5 0.750000 0.983681 0.250000
O O6 0.796295 0.880234 0.310536
O O7 0.889143 0.980706 0.351304
O O8 0.159458 0.250000 0.695138
O O9 0.154176 0.317355 0.592556
O O10 0.000000 0.332046 0.680996
O O11 0.500000 0.052967 0.068784
O O12 0.500000 0.930356 0.051877
O O13 0.250232 0.750000 0.494495
O O14 0.111858 0.650757 0.520897
#
# Coordination Sequence:
#
# PCOD9534043 Si02
#       6
#    16  16  16   8  16   8
#     4  10  21  36  51  70 101 144 174 204 254 316
#     4  11  21  32  49  69  99 131 174 217 256 294
#     4   9  15  27  44  64  93 127 165 201 240 282
#     4  11  20  32  50  78  95 132 170 213 270 307
#     4  10  17  28  49  77 103 128 162 211 258 298
#     4  11  17  30  56  76 102 122 166 213 271 317
#
# _framework density 15.448502
#
# number of rings (size 3 to 8) (size 9 to 14) (size 15 to 20)
#    0.000    1.800    6.000    1.500    1.400    0.800 
#    0.000    0.000    0.000    0.000    0.000    0.000 
#    0.000   20.000    0.000    0.000    0.000    0.000 
#
# Total GULP energy -222752.317530 kJ/mol
# GULP energy per Si atom -5568.807938 kJ/mol
# Density = 1.541334 g / cm^3
# Si number density = 15.448502 Si / 1000 Ang^3
#
#
#
# Elastic Constant Matrix: (Units=GPa)
#
#
# Indices 1 2 3 4 5 6 
#
# 1 66.0949 36.4116 44.3569 0.0000 0.0000 0.0000
# 2 36.4116 90.5139 47.7268 0.0000 0.0000 0.0000
# 3 44.3569 47.7268 86.2395 0.0000 0.0000 0.0000
# 4 0.0000 0.0000 0.0000 8.4640 0.0000 0.0000
# 5 0.0000 0.0000 0.0000 0.0000 -20.1182 0.0000
# 6 0.0000 0.0000 0.0000 0.0000 0.0000 -3.5192
#
#
#
# Elastic Compliance Matrix: (Units=1/GPa)
#
#
# Indices 1 2 3 4 5 6 
#
# 1 0.024340 -0.004505 -0.010026 0.000000 0.000000 0.000000
# 2 -0.004505 0.016434 -0.006778 0.000000 0.000000 0.000000
# 3 -0.010026 -0.006778 0.020504 0.000000 0.000000 0.000000
# 4 0.000000 0.000000 0.000000 0.118148 0.000000 0.000000
# 5 0.000000 0.000000 0.000000 0.000000 -0.049706 0.000000
# 6 0.000000 0.000000 0.000000 0.000000 0.000000 -0.284155
#
#
# Mechanical properties :
#
#
# Convention : Reuss Voigt Hill
#
# Bulk Modulus (GPa) = 53.59069 55.53766 54.56418
# Shear Modulus (GPa) = -47.34962 4.58884 -21.38039
#
# Velocity S-wave (km/s) = -5.54225 1.72536 -3.72422
# Velocity P-wave (km/s) = 2.48800 6.32435 4.11140
#
# Compressibility (1/GPa) = 0.01865996
#
# Stress axis : x y z
#
# Youngs Moduli (GPa) = 41.08446 60.84901 48.77186
#
# Poissons Ratio (x) = 0.27411 0.48900
# Poissons Ratio (y) = 0.18508 0.33057
# Poissons Ratio (z) = 0.41192 0.41243
#
# Static dielectric constant tensor:
#      x y z
#    x 1.523840 0.000000 0.000000 
#    y 0.000000 1.547250 0.000000 
#    z 0.000000 0.000000 1.519150 
# 
# From -- ./inp_files/41213.got.cif
#   From: 2010.05.17/outbox.cif.g08.bks.cpg/sg74_21_cif.got.tgz:41213.got - 2010.06.03 17:57:02.
