data_PCOD9534744
_publ_section_title
;
Structure prediction by ZEFSAII (Michael W. Deem and Ramdas Pophale) SiO2 
 PCOD9534744
Probable space group: I M M A
;
_chemical_formula_sum "Si O2"
_cell_formula_units_Z 96
_cell_length_a 18.208449
_cell_length_b 11.296361
_cell_length_c 25.119157
_cell_angle_alpha 90.000000
_cell_angle_beta 90.000000
_cell_angle_gamma 90.000000
_cell_volume 5166.739638
_symmetry_space_group_name_H-M "I M M A"
_symmetry_group_IT_number 74
_symmetry_cell_setting 'orthorhombic'
loop_
_space_group_symop_operation_xyz
x,y,z
-x,1/2-y,z
x,-y,-z
-x,1/2+y,-z
-x,-y,-z
x,1/2+y,-z
-x,y,z
x,1/2-y,z
1/2+x,1/2+y,1/2+z
1/2-x,-y,1/2+z
1/2+x,1/2-y,1/2-z
1/2-x,y,1/2-z
1/2-x,1/2-y,1/2-z
1/2+x,y,1/2-z
1/2-x,1/2+y,1/2+z
1/2+x,-y,1/2+z
loop_
_atom_site_type_symbol
_atom_site_label
_atom_site_fract_x
_atom_site_fract_y
_atom_site_fract_z
Si Si1 0.740638 0.113939 0.966040
Si Si2 0.217868 0.990135 0.145219
Si Si3 0.291117 0.750000 0.664019
Si Si4 0.919632 0.385736 0.575325
Si Si5 0.618599 0.002713 0.815385
Si Si6 0.865384 0.750000 0.725128
Si Si7 0.580892 0.388492 0.707998
O O1 0.757754 0.250000 0.982870
O O2 0.651768 0.104022 0.961383
O O3 0.770583 0.090572 0.906421
O O4 0.765954 0.000000 0.000000
O O5 0.207506 0.128824 0.131269
O O6 0.292943 0.983825 0.179508
O O7 0.148042 0.952421 0.179317
O O8 0.213965 0.750000 0.695872
O O9 0.351201 0.750000 0.711512
O O10 0.916939 0.250000 0.595789
O O11 0.910901 0.470593 0.625988
O O12 0.000000 0.402754 0.550295
O O13 0.589547 0.091579 0.771033
O O14 0.599237 0.871770 0.794467
O O15 0.500000 0.432517 0.691720
O O16 0.585300 0.250000 0.695895
#
# Coordination Sequence:
#
# PCOD9534744 Si02
#       7
#    16  16   8  16  16   8  16
#     4  10  22  38  59  84 104 132 178 230 279 327
#     4  10  20  35  56  77 104 137 178 219 264 318
#     4   9  16  30  52  76 102 142 172 212 267 306
#     4   9  18  34  53  75 109 147 180 217 262 312
#     4  10  18  31  51  76 106 143 182 214 247 304
#     4   9  16  28  46  74 108 138 178 214 252 298
#     4  11  22  33  48  74 108 142 175 213 260 312
#
# _framework density 18.580383000000001
#
# number of rings (size 3 to 8) (size 9 to 14) (size 15 to 20)
#    0.000    2.167    1.667    2.000    1.167    4.333 
#    1.500    2.917    0.000    0.500    0.000    0.000 
#    0.000    0.000    0.000    0.000    0.000    0.000 
#
# Total GULP energy -267568.017753 kJ/mol
# GULP energy per Si atom -5574.333703 kJ/mol
# Density = 1.853809 g / cm^3
# Si number density = 18.580383 Si / 1000 Ang^3
#
#
#
# Elastic Constant Matrix: (Units=GPa)
#
#
# Indices 1 2 3 4 5 6 
#
# 1 68.0584 20.2830 4.1527 0.0000 0.0000 0.0000
# 2 20.2830 96.2823 18.3733 0.0000 0.0000 0.0000
# 3 4.1527 18.3733 22.8135 0.0000 0.0000 0.0000
# 4 0.0000 0.0000 0.0000 32.3325 0.0000 0.0000
# 5 0.0000 0.0000 0.0000 0.0000 1.9127 0.0000
# 6 0.0000 0.0000 0.0000 0.0000 0.0000 7.8244
#
#
#
# Elastic Compliance Matrix: (Units=1/GPa)
#
#
# Indices 1 2 3 4 5 6 
#
# 1 0.015679 -0.003259 -0.000229 0.000000 0.000000 0.000000
# 2 -0.003259 0.012950 -0.009836 0.000000 0.000000 0.000000
# 3 -0.000229 -0.009836 0.051797 0.000000 0.000000 0.000000
# 4 0.000000 0.000000 0.000000 0.030929 0.000000 0.000000
# 5 0.000000 0.000000 0.000000 0.000000 0.522817 0.000000
# 6 0.000000 0.000000 0.000000 0.000000 0.000000 0.127806
#
#
# Mechanical properties :
#
#
# Convention : Reuss Voigt Hill
#
# Bulk Modulus (GPa) = 18.59543 30.30802 24.45172
# Shear Modulus (GPa) = 6.19923 18.03694 12.11809
#
# Velocity S-wave (km/s) = 1.82857 3.11907 2.55659
# Velocity P-wave (km/s) = 3.80632 5.41467 4.68011
#
# Compressibility (1/GPa) = 0.05377666
#
# Stress axis : x y z
#
# Youngs Moduli (GPa) = 63.78146 77.22202 19.30614
#
# Poissons Ratio (x) = 0.25168 0.00442
# Poissons Ratio (y) = 0.20787 0.18990
# Poissons Ratio (z) = 0.01461 0.75956
#
# Static dielectric constant tensor:
#      x y z
#    x 1.657920 0.000000 0.000000 
#    y 0.000000 1.666700 0.000000 
#    z 0.000000 0.000000 1.617450 
# 
# From -- ./inp_files/60813.got.cif
#   From: 2010.05.17/outbox.cif.g08.bks.cpg/sg74_31_cif.got.tgz:60813.got - 2010.06.03 17:57:02.
