data_PCOD9534479
_publ_section_title
;
Structure prediction by ZEFSAII (Michael W. Deem and Ramdas Pophale) SiO2 
 PCOD9534479
Probable space group: I M M A
;
_chemical_formula_sum "Si O2"
_cell_formula_units_Z 80
_cell_length_a 29.052708
_cell_length_b 17.211732
_cell_length_c 8.808403
_cell_angle_alpha 90.000000
_cell_angle_beta 90.000000
_cell_angle_gamma 90.000000
_cell_volume 4404.619229
_symmetry_space_group_name_H-M "I M M A"
_symmetry_group_IT_number 74
_symmetry_cell_setting 'orthorhombic'
loop_
_space_group_symop_operation_xyz
x,y,z
-x,1/2-y,z
x,-y,-z
-x,1/2+y,-z
-x,-y,-z
x,1/2+y,-z
-x,y,z
x,1/2-y,z
1/2+x,1/2+y,1/2+z
1/2-x,-y,1/2+z
1/2+x,1/2-y,1/2-z
1/2-x,y,1/2-z
1/2-x,1/2-y,1/2-z
1/2+x,y,1/2-z
1/2-x,1/2+y,1/2+z
1/2+x,-y,1/2+z
loop_
_atom_site_type_symbol
_atom_site_label
_atom_site_fract_x
_atom_site_fract_y
_atom_site_fract_z
Si Si1 0.879859 0.574100 0.897648
Si Si2 0.893541 0.160145 0.805493
Si Si3 0.554649 0.518567 0.173549
Si Si4 0.201706 0.899276 0.329785
Si Si5 0.701079 0.912021 0.819717
O O1 0.918614 0.538420 0.788113
O O2 0.840027 0.609415 0.793178
O O3 0.862557 0.500000 0.000000
O O4 0.897962 0.635532 0.018846
O O5 0.902282 0.250000 0.780829
O O6 0.927485 0.104309 0.712957
O O7 0.841610 0.138108 0.754664
O O8 0.500000 0.511900 0.191742
O O9 0.567261 0.500000 0.000000
O O10 0.250000 0.877458 0.250000
O O11 0.198674 0.881118 0.508896
O O12 0.198488 0.993383 0.322680
O O13 0.750000 0.890171 0.750000
#
# Coordination Sequence:
#
# PCOD9534479 Si02
#       5
#    16  16  16  16  16
#     4  10  19  34  55  81 111 144 187 228 273 332
#     4  11  23  37  56  84 119 152 183 227 282 335
#     4  10  21  40  65  87 108 141 187 234 279 333
#     4  10  19  32  54  81 113 149 189 231 279 326
#     4  10  18  29  55  84 108 142 194 242 272 315
#
# _framework density 18.162749000000002
#
# number of rings (size 3 to 8) (size 9 to 14) (size 15 to 20)
#    0.000    1.800    4.000    2.400    2.800    4.400 
#    0.000    4.000    0.000    3.600    0.000    0.000 
#    0.000    0.000    0.000    0.000    0.000    0.000 
#
# Total GULP energy -223298.692410 kJ/mol
# GULP energy per Si atom -5582.467310 kJ/mol
# Density = 1.812141 g / cm^3
# Si number density = 18.162749 Si / 1000 Ang^3
#
#
#
# Elastic Constant Matrix: (Units=GPa)
#
#
# Indices 1 2 3 4 5 6 
#
# 1 73.8245 34.7323 68.2527 0.0000 0.0000 0.0000
# 2 34.7323 64.8519 49.4692 0.0000 0.0000 0.0000
# 3 68.2527 49.4692 159.3161 0.0000 0.0000 0.0000
# 4 0.0000 0.0000 0.0000 6.0496 0.0000 0.0000
# 5 0.0000 0.0000 0.0000 0.0000 31.5012 0.0000
# 6 0.0000 0.0000 0.0000 0.0000 0.0000 7.3137
#
#
#
# Elastic Compliance Matrix: (Units=1/GPa)
#
#
# Indices 1 2 3 4 5 6 
#
# 1 0.024462 -0.006692 -0.008402 0.000000 0.000000 0.000000
# 2 -0.006692 0.022036 -0.003976 0.000000 0.000000 0.000000
# 3 -0.008402 -0.003976 0.011111 0.000000 0.000000 0.000000
# 4 0.000000 0.000000 0.000000 0.165299 0.000000 0.000000
# 5 0.000000 0.000000 0.000000 0.000000 0.031745 0.000000
# 6 0.000000 0.000000 0.000000 0.000000 0.000000 0.136729
#
#
# Mechanical properties :
#
#
# Convention : Reuss Voigt Hill
#
# Bulk Modulus (GPa) = 51.36066 66.98899 59.17483
# Shear Modulus (GPa) = 11.46764 18.67547 15.07156
#
# Velocity S-wave (km/s) = 2.51546 3.21008 2.88376
# Velocity P-wave (km/s) = 6.06433 7.12055 6.61356
#
# Compressibility (1/GPa) = 0.01947015
#
# Stress axis : x y z
#
# Youngs Moduli (GPa) = 40.88045 45.37970 90.00352
#
# Poissons Ratio (x) = 0.30368 0.75618
# Poissons Ratio (y) = 0.27357 0.35782
# Poissons Ratio (z) = 0.34347 0.18041
#
# Static dielectric constant tensor:
#      x y z
#    x 1.610470 0.000000 0.000000 
#    y 0.000000 1.609420 0.000000 
#    z 0.000000 0.000000 1.635680 
# 
# From -- ./inp_files/11154.got.cif
#   From: 2010.05.17/outbox.cif.g08.bks.cpg/sg74_6_cif.got.tgz:11154.got - 2010.06.03 17:57:02.
