data_PCOD9534462
_publ_section_title
;
Structure prediction by ZEFSAII (Michael W. Deem and Ramdas Pophale) SiO2 
 PCOD9534462
Probable space group: I M M A
;
_chemical_formula_sum "Si O2"
_cell_formula_units_Z 96
_cell_length_a 15.058051
_cell_length_b 25.334628
_cell_length_c 11.071553
_cell_angle_alpha 90.000000
_cell_angle_beta 90.000000
_cell_angle_gamma 90.000000
_cell_volume 4223.688088
_symmetry_space_group_name_H-M "I M M A"
_symmetry_group_IT_number 74
_symmetry_cell_setting 'orthorhombic'
loop_
_space_group_symop_operation_xyz
x,y,z
-x,1/2-y,z
x,-y,-z
-x,1/2+y,-z
-x,-y,-z
x,1/2+y,-z
-x,y,z
x,1/2-y,z
1/2+x,1/2+y,1/2+z
1/2-x,-y,1/2+z
1/2+x,1/2-y,1/2-z
1/2-x,y,1/2-z
1/2-x,1/2-y,1/2-z
1/2+x,y,1/2-z
1/2-x,1/2+y,1/2+z
1/2+x,-y,1/2+z
loop_
_atom_site_type_symbol
_atom_site_label
_atom_site_fract_x
_atom_site_fract_y
_atom_site_fract_z
Si Si1 0.142554 0.963911 0.113662
Si Si2 0.359431 0.188457 0.246462
Si Si3 0.096547 0.750000 0.085824
Si Si4 0.646131 0.854102 0.006904
Si Si5 0.349466 0.140022 0.487039
Si Si6 0.640426 0.536527 0.113212
Si Si7 0.838707 0.750000 0.331859
O O1 0.250998 0.965580 0.118067
O O2 0.111837 0.977620 0.249630
O O3 0.113950 0.904918 0.074174
O O4 0.115412 0.000000 0.000000
O O5 0.385393 0.250000 0.262191
O O6 0.250000 0.189441 0.250000
O O7 0.388606 0.150302 0.355009
O O8 0.392401 0.165282 0.119992
O O9 0.089066 0.750000 0.228338
O O10 0.000000 0.750000 0.027827
O O11 0.145344 0.802693 0.046685
O O12 0.609951 0.904078 0.079600
O O13 0.653216 0.802379 0.089273
O O14 0.745770 0.872731 0.972211
O O15 0.613371 0.500000 0.000000
O O16 0.750000 0.750000 0.250000
#
# Coordination Sequence:
#
# PCOD9534462 Si02
#       7
#    16  16   8  16  16  16   8
#     4   9  18  29  45  67  97 141 178 212 259 317
#     4   9  16  26  44  73 100 129 167 211 261 312
#     4  12  24  35  51  77 107 139 174 221 277 322
#     4  10  18  29  50  77 103 137 176 217 261 323
#     4  10  18  32  50  72 106 135 173 216 267 321
#     4   9  18  28  40  66 109 141 168 209 274 320
#     4  12  20  31  55  74 103 139 177 217 266 322
#
# _framework density 22.728950000000001
#
# number of rings (size 3 to 8) (size 9 to 14) (size 15 to 20)
#    0.000    2.167    3.333    1.000    4.667    0.000 
#    0.000    0.000    0.000    2.500    0.000    0.000 
#    0.000    3.333    0.000    0.000    0.000    0.000 
#
# Total GULP energy -267747.816162 kJ/mol
# GULP energy per Si atom -5578.079503 kJ/mol
# Density = 2.267722 g / cm^3
# Si number density = 22.728950 Si / 1000 Ang^3
#
#
#
# Elastic Constant Matrix: (Units=GPa)
#
#
# Indices 1 2 3 4 5 6 
#
# 1 58.6548 -7.7900 2.1373 0.0000 0.0000 0.0000
# 2 -7.7900 131.0808 86.1607 -0.0002 0.0000 0.0000
# 3 2.1373 86.1607 238.6837 -0.0008 -0.0001 0.0000
# 4 0.0000 -0.0002 -0.0008 31.5208 -0.0001 0.0000
# 5 0.0000 0.0000 -0.0001 -0.0001 -11.0554 0.0000
# 6 0.0000 0.0000 0.0000 0.0000 0.0000 -21.1518
#
#
#
# Elastic Compliance Matrix: (Units=1/GPa)
#
#
# Indices 1 2 3 4 5 6 
#
# 1 0.017270 0.001479 -0.000689 0.000000 0.000000 0.000000
# 2 0.001479 0.010129 -0.003670 0.000000 0.000000 0.000000
# 3 -0.000689 -0.003670 0.005520 0.000000 0.000000 0.000000
# 4 0.000000 0.000000 0.000000 0.031725 0.000000 0.000000
# 5 0.000000 0.000000 0.000000 0.000000 -0.090454 0.000000
# 6 0.000000 0.000000 0.000000 0.000000 0.000000 -0.047277
#
#
# Mechanical properties :
#
#
# Convention : Reuss Voigt Hill
#
# Bulk Modulus (GPa) = 36.81698 65.49283 51.15490
# Shear Modulus (GPa) = -85.80110 23.05681 -31.37215
#
# Velocity S-wave (km/s) = -6.15074 3.18846 -3.71923
# Velocity P-wave (km/s) = 5.84883 6.51401 2.02775
#
# Compressibility (1/GPa) = 0.02716138
#
# Stress axis : x y z
#
# Youngs Moduli (GPa) = 57.90247 98.72822 181.14423
#
# Poissons Ratio (x) = -0.14601 0.12472
# Poissons Ratio (y) = -0.08563 0.66472
# Poissons Ratio (z) = 0.03987 0.36229
#
# Static dielectric constant tensor:
#      x y z
#    x 1.936340 0.000000 0.000000 
#    y 0.000000 1.811520 0.000000 
#    z 0.000000 0.000000 1.853520 
# 
# From -- ./inp_files/22534.got.cif
#   From: 2010.05.17/outbox.cif.g08.bks.cpg/sg74_12_cif.got.tgz:22534.got - 2010.06.03 17:57:02.
