data_PCOD9534946
_publ_section_title
;
Structure prediction by ZEFSAII (Michael W. Deem and Ramdas Pophale) SiO2 
 PCOD9534946
Probable space group: I M M A
;
_chemical_formula_sum "Si O2"
_cell_formula_units_Z 96
_cell_length_a 29.362411
_cell_length_b 8.723986
_cell_length_c 20.893351
_cell_angle_alpha 90.000000
_cell_angle_beta 90.000000
_cell_angle_gamma 90.000000
_cell_volume 5351.983596
_symmetry_space_group_name_H-M "I M M A"
_symmetry_group_IT_number 74
_symmetry_cell_setting 'orthorhombic'
loop_
_space_group_symop_operation_xyz
x,y,z
-x,1/2-y,z
x,-y,-z
-x,1/2+y,-z
-x,-y,-z
x,1/2+y,-z
-x,y,z
x,1/2-y,z
1/2+x,1/2+y,1/2+z
1/2-x,-y,1/2+z
1/2+x,1/2-y,1/2-z
1/2-x,y,1/2-z
1/2-x,1/2-y,1/2-z
1/2+x,y,1/2-z
1/2-x,1/2+y,1/2+z
1/2+x,-y,1/2+z
loop_
_atom_site_type_symbol
_atom_site_label
_atom_site_fract_x
_atom_site_fract_y
_atom_site_fract_z
Si Si1 0.586852 0.563586 0.697994
Si Si2 0.945745 0.421478 0.063556
Si Si3 0.215595 0.935178 0.652780
Si Si4 0.866800 0.434109 0.571269
Si Si5 0.190669 0.435057 0.200351
Si Si6 0.947891 0.564953 0.332651
O O1 0.583758 0.750000 0.703184
O O2 0.562523 0.509211 0.633264
O O3 0.639342 0.516951 0.688294
O O4 0.566408 0.496628 0.762976
O O5 0.926548 0.250000 0.065928
O O6 0.000000 0.412070 0.056024
O O7 0.927111 0.500000 0.000000
O O8 0.213409 0.750000 0.645161
O O9 0.200733 0.973099 0.725596
O O10 0.268626 0.986453 0.653479
O O11 0.180057 0.009585 0.604315
O O12 0.870822 0.500000 0.500000
O O13 0.866759 0.250000 0.568791
O O14 0.909649 0.484146 0.615770
O O15 0.191917 0.250000 0.197292
O O16 0.947137 0.750000 0.330974
O O17 0.000000 0.517013 0.347677
#
# Coordination Sequence:
#
# PCOD9534946 Si02
#       6
#    16  16  16  16  16  16
#     4  10  18  32  55  82 107 136 176 219 261 314
#     4   9  18  31  47  69  98 133 171 208 248 299
#     4   9  16  32  55  79 105 137 172 206 254 317
#     4  11  23  38  56  78 106 143 184 228 276 328
#     4   8  15  28  53  82 107 134 165 206 257 311
#     4  10  22  38  54  77 109 140 176 227 282 329
#
# _framework density 17.937275
#
# number of rings (size 3 to 8) (size 9 to 14) (size 15 to 20)
#    0.000    2.500    1.667    2.000    0.000    2.667 
#    0.000    5.000    0.000    2.000    0.000    0.000 
#    0.000    0.000    0.000    0.000    0.000    0.000 
#
# Total GULP energy -267311.754189 kJ/mol
# GULP energy per Si atom -5568.994879 kJ/mol
# Density = 1.789645 g / cm^3
# Si number density = 17.937275 Si / 1000 Ang^3
#
#
#
# Elastic Constant Matrix: (Units=GPa)
#
#
# Indices 1 2 3 4 5 6 
#
# 1 88.4857 18.9023 51.6796 0.0000 0.0000 0.0000
# 2 18.9023 18.8335 31.1112 0.0000 0.0000 0.0000
# 3 51.6796 31.1112 139.3906 0.0000 0.0000 0.0000
# 4 0.0000 0.0000 0.0000 26.4374 0.0000 0.0000
# 5 0.0000 0.0000 0.0000 0.0000 25.9673 0.0000
# 6 0.0000 0.0000 0.0000 0.0000 0.0000 23.4845
#
#
#
# Elastic Compliance Matrix: (Units=1/GPa)
#
#
# Indices 1 2 3 4 5 6 
#
# 1 0.015442 -0.009569 -0.003589 0.000000 0.000000 0.000000
# 2 -0.009569 0.090036 -0.016548 0.000000 0.000000 0.000000
# 3 -0.003589 -0.016548 0.012198 0.000000 0.000000 0.000000
# 4 0.000000 0.000000 0.000000 0.037825 0.000000 0.000000
# 5 0.000000 0.000000 0.000000 0.000000 0.038510 0.000000
# 6 0.000000 0.000000 0.000000 0.000000 0.000000 0.042581
#
#
# Mechanical properties :
#
#
# Convention : Reuss Voigt Hill
#
# Bulk Modulus (GPa) = 17.16326 50.01068 33.58697
# Shear Modulus (GPa) = 15.85158 24.84562 20.34860
#
# Velocity S-wave (km/s) = 2.97597 3.72578 3.37179
# Velocity P-wave (km/s) = 4.62578 6.81542 5.82442
#
# Compressibility (1/GPa) = 0.05826398
#
# Stress axis : x y z
#
# Youngs Moduli (GPa) = 64.75973 11.10666 81.97891
#
# Poissons Ratio (x) = 0.10628 0.29425
# Poissons Ratio (y) = 0.61967 1.35658
# Poissons Ratio (z) = 0.23245 0.18379
#
# Static dielectric constant tensor:
#      x y z
#    x 1.647940 0.000000 0.000000 
#    y 0.000000 1.631350 0.000000 
#    z 0.000000 0.000000 1.597070 
# 
# From -- ./inp_files/55046.got.cif
#   From: 2010.05.17/outbox.cif.g08.bks.cpg/sg74_28_cif.got.tgz:55046.got - 2010.06.03 17:57:02.
