data_PCOD9534144
_publ_section_title
;
Structure prediction by ZEFSAII (Michael W. Deem and Ramdas Pophale) SiO2 
 PCOD9534144
Probable space group: I M M A
;
_chemical_formula_sum "Si O2"
_cell_formula_units_Z 80
_cell_length_a 23.122899
_cell_length_b 32.616637
_cell_length_c 5.964256
_cell_angle_alpha 90.000000
_cell_angle_beta 90.000000
_cell_angle_gamma 90.000000
_cell_volume 4498.189408
_symmetry_space_group_name_H-M "I M M A"
_symmetry_group_IT_number 74
_symmetry_cell_setting 'orthorhombic'
loop_
_space_group_symop_operation_xyz
x,y,z
-x,1/2-y,z
x,-y,-z
-x,1/2+y,-z
-x,-y,-z
x,1/2+y,-z
-x,y,z
x,1/2-y,z
1/2+x,1/2+y,1/2+z
1/2-x,-y,1/2+z
1/2+x,1/2-y,1/2-z
1/2-x,y,1/2-z
1/2-x,1/2-y,1/2-z
1/2+x,y,1/2-z
1/2-x,1/2+y,1/2+z
1/2+x,-y,1/2+z
loop_
_atom_site_type_symbol
_atom_site_label
_atom_site_fract_x
_atom_site_fract_y
_atom_site_fract_z
Si Si1 0.934155 0.204432 0.671513
Si Si2 0.433128 0.375780 0.140712
Si Si3 0.750000 0.638770 0.750000
Si Si4 0.855733 0.841890 0.018383
Si Si5 0.828745 0.592448 0.394353
Si Si6 0.250000 0.021466 0.750000
O O1 0.926805 0.250000 0.574464
O O2 0.928991 0.167498 0.494412
O O3 0.887072 0.195772 0.862261
O O4 0.000000 0.202028 0.762606
O O5 0.500000 0.387679 0.151511
O O6 0.404673 0.365991 0.378947
O O7 0.391193 0.407627 0.014199
O O8 0.699247 0.665603 0.639462
O O9 0.782602 0.609164 0.575136
O O10 0.832825 0.872774 0.206457
O O11 0.805455 0.550854 0.288367
O O12 0.256300 0.000000 0.500000
#
# Coordination Sequence:
#
# PCOD9534144 Si02
#       6
#    16  16   8  16  16   8
#     4   9  18  32  48  74 109 143 188 242 290 337
#     4   9  19  33  55  81 108 150 196 236 286 339
#     4  10  17  32  55  78 111 144 188 233 284 334
#     4  10  18  30  55  76 107 146 190 231 288 336
#     4  10  20  36  57  83 116 145 185 236 281 343
#     4  12  25  38  64  96 124 148 189 239 304 358
#
# _framework density 17.784932999999999
#
# number of rings (size 3 to 8) (size 9 to 14) (size 15 to 20)
#    0.000    2.200    2.000    1.200    2.800    1.600 
#    0.000    2.500    0.000   16.800    0.000    0.000 
#    0.000    0.000    0.000    0.000    0.000    0.000 
#
# Total GULP energy -222722.405819 kJ/mol
# GULP energy per Si atom -5568.060145 kJ/mol
# Density = 1.774445 g / cm^3
# Si number density = 17.784933 Si / 1000 Ang^3
#
#
#
# Elastic Constant Matrix: (Units=GPa)
#
#
# Indices 1 2 3 4 5 6 
#
# 1 132.1648 32.7477 48.5782 0.0000 0.0000 0.0000
# 2 32.7477 65.5872 28.8711 0.0000 0.0000 0.0000
# 3 48.5782 28.8711 82.5156 0.0000 0.0000 0.0000
# 4 0.0000 0.0000 0.0000 13.7946 0.0000 0.0000
# 5 0.0000 0.0000 0.0000 0.0000 31.5463 0.0000
# 6 0.0000 0.0000 0.0000 0.0000 0.0000 17.6557
#
#
#
# Elastic Compliance Matrix: (Units=1/GPa)
#
#
# Indices 1 2 3 4 5 6 
#
# 1 0.010091 -0.002865 -0.004939 0.000000 0.000000 0.000000
# 2 -0.002865 0.018836 -0.004904 0.000000 0.000000 0.000000
# 3 -0.004939 -0.004904 0.016742 0.000000 0.000000 0.000000
# 4 0.000000 0.000000 0.000000 0.072492 0.000000 0.000000
# 5 0.000000 0.000000 0.000000 0.000000 0.031699 0.000000
# 6 0.000000 0.000000 0.000000 0.000000 0.000000 0.056639
#
#
# Mechanical properties :
#
#
# Convention : Reuss Voigt Hill
#
# Bulk Modulus (GPa) = 49.37064 55.62907 52.49986
# Shear Modulus (GPa) = 20.94979 23.93738 22.44358
#
# Velocity S-wave (km/s) = 3.43585 3.67268 3.55624
# Velocity P-wave (km/s) = 6.60001 7.02363 6.81512
#
# Compressibility (1/GPa) = 0.02025495
#
# Stress axis : x y z
#
# Youngs Moduli (GPa) = 99.09487 53.09014 59.72940
#
# Poissons Ratio (x) = 0.15209 0.29498
# Poissons Ratio (y) = 0.28387 0.29291
# Poissons Ratio (z) = 0.48939 0.26035
#
# Static dielectric constant tensor:
#      x y z
#    x 1.623120 0.000000 0.000000 
#    y 0.000000 1.585870 0.000000 
#    z 0.000000 0.000000 1.660200 
# 
# From -- ./inp_files/3871.got.cif
#   From: 2010.05.17/outbox.cif.g08.bks.cpg/sg74_2_cif.got.tgz:3871.got - 2010.06.03 17:57:02.
