data_PCOD9534070
_publ_section_title
;
Structure prediction by ZEFSAII (Michael W. Deem and Ramdas Pophale) SiO2 
 PCOD9534070
Probable space group: I M M A
;
_chemical_formula_sum "Si O2"
_cell_formula_units_Z 48
_cell_length_a 13.306096
_cell_length_b 9.620028
_cell_length_c 18.710186
_cell_angle_alpha 90.000000
_cell_angle_beta 90.000000
_cell_angle_gamma 90.000000
_cell_volume 2394.997660
_symmetry_space_group_name_H-M "I M M A"
_symmetry_group_IT_number 74
_symmetry_cell_setting 'orthorhombic'
loop_
_space_group_symop_operation_xyz
x,y,z
-x,1/2-y,z
x,-y,-z
-x,1/2+y,-z
-x,-y,-z
x,1/2+y,-z
-x,y,z
x,1/2-y,z
1/2+x,1/2+y,1/2+z
1/2-x,-y,1/2+z
1/2+x,1/2-y,1/2-z
1/2-x,y,1/2-z
1/2-x,1/2-y,1/2-z
1/2+x,y,1/2-z
1/2-x,1/2+y,1/2+z
1/2+x,-y,1/2+z
loop_
_atom_site_type_symbol
_atom_site_label
_atom_site_fract_x
_atom_site_fract_y
_atom_site_fract_z
Si Si1 0.250000 0.964667 0.750000
Si Si2 0.883488 0.250000 0.990244
Si Si3 0.616590 0.750000 0.663441
Si Si4 0.882360 0.585197 0.633341
Si Si5 0.752143 0.500000 0.500000
O O1 0.323763 0.878938 0.696801
O O2 0.169244 0.016036 0.691954
O O3 0.880620 0.250000 0.077448
O O4 0.821916 0.384915 0.966865
O O5 0.000000 0.250000 0.968394
O O6 0.500000 0.750000 0.685357
O O7 0.872462 0.750000 0.655125
O O8 0.823214 0.566483 0.559721
O O9 0.000000 0.557333 0.625505
#
# Coordination Sequence:
#
# PCOD9534070 Si02
#       5
#     8   8   8  16   8
#     4  11  16  32  50  83 112 145 182 245 286 329
#     4  11  23  37  59  86 115 149 188 234 293 348
#     4  10  17  29  51  80 109 138 178 236 293 331
#     4  11  21  34  56  86 117 153 192 236 288 338
#     4  12  20  42  54  86 120 152 192 234 286 338
#
# _framework density 20.041772999999999
#
# number of rings (size 3 to 8) (size 9 to 14) (size 15 to 20)
#    0.000    1.000    8.333    2.000    0.000    0.000 
#    0.000    0.000    0.000    1.000    0.000    0.000 
#    0.000    0.000    0.000    0.000    0.000    0.000 
#
# Total GULP energy -133707.556363 kJ/mol
# GULP energy per Si atom -5571.148182 kJ/mol
# Density = 1.999616 g / cm^3
# Si number density = 20.041773 Si / 1000 Ang^3
#
#
#
# Elastic Constant Matrix: (Units=GPa)
#
#
# Indices 1 2 3 4 5 6 
#
# 1 201.4135 26.2181 25.1292 0.0000 0.0000 0.0000
# 2 26.2181 42.3969 -12.3913 0.0000 0.0000 0.0000
# 3 25.1292 -12.3913 52.3663 0.0000 0.0000 0.0000
# 4 0.0000 0.0000 0.0000 0.8177 0.0000 0.0000
# 5 0.0000 0.0000 0.0000 0.0000 31.8696 0.0000
# 6 0.0000 0.0000 0.0000 0.0000 0.0000 3.5726
#
#
#
# Elastic Compliance Matrix: (Units=1/GPa)
#
#
# Indices 1 2 3 4 5 6 
#
# 1 0.006130 -0.004996 -0.004124 0.000000 0.000000 0.000000
# 2 -0.004996 0.029411 0.009357 0.000000 0.000000 0.000000
# 3 -0.004124 0.009357 0.023289 0.000000 0.000000 0.000000
# 4 0.000000 0.000000 0.000000 1.222955 0.000000 0.000000
# 5 0.000000 0.000000 0.000000 0.000000 0.031378 0.000000
# 6 0.000000 0.000000 0.000000 0.000000 0.000000 0.279907
#
#
# Mechanical properties :
#
#
# Convention : Reuss Voigt Hill
#
# Bulk Modulus (GPa) = 16.86226 41.56543 29.21384
# Shear Modulus (GPa) = 3.10104 24.40002 13.75053
#
# Velocity S-wave (km/s) = 1.24525 3.49299 2.62218
# Velocity P-wave (km/s) = 3.24027 6.08707 4.87605
#
# Compressibility (1/GPa) = 0.05930405
#
# Stress axis : x y z
#
# Youngs Moduli (GPa) = 163.14027 34.00128 42.93855
#
# Poissons Ratio (x) = 0.16986 0.17706
# Poissons Ratio (y) = 0.81501 -0.40176
# Poissons Ratio (z) = 0.67273 -0.31814
#
# Static dielectric constant tensor:
#      x y z
#    x 1.729680 0.000000 0.000000 
#    y 0.000000 1.774230 0.000000 
#    z 0.000000 0.000000 1.736210 
# 
# From -- ./inp_files/40474.got.cif
#   From: 2010.05.17/outbox.cif.g08.bks.cpg/sg74_21_cif.got.tgz:40474.got - 2010.06.03 17:57:02.
