data_PCOD9534128
_publ_section_title
;
Structure prediction by ZEFSAII (Michael W. Deem and Ramdas Pophale) SiO2 
 PCOD9534128
Probable space group: I M M A
;
_chemical_formula_sum "Si O2"
_cell_formula_units_Z 88
_cell_length_a 14.635425
_cell_length_b 25.830882
_cell_length_c 10.558973
_cell_angle_alpha 90.000000
_cell_angle_beta 90.000000
_cell_angle_gamma 90.000000
_cell_volume 3991.776833
_symmetry_space_group_name_H-M "I M M A"
_symmetry_group_IT_number 74
_symmetry_cell_setting 'orthorhombic'
loop_
_space_group_symop_operation_xyz
x,y,z
-x,1/2-y,z
x,-y,-z
-x,1/2+y,-z
-x,-y,-z
x,1/2+y,-z
-x,y,z
x,1/2-y,z
1/2+x,1/2+y,1/2+z
1/2-x,-y,1/2+z
1/2+x,1/2-y,1/2-z
1/2-x,y,1/2-z
1/2-x,1/2-y,1/2-z
1/2+x,y,1/2-z
1/2-x,1/2+y,1/2+z
1/2+x,-y,1/2+z
loop_
_atom_site_type_symbol
_atom_site_label
_atom_site_fract_x
_atom_site_fract_y
_atom_site_fract_z
Si Si1 0.672037 0.851187 0.850703
Si Si2 0.500000 0.392141 0.434374
Si Si3 0.000000 0.410993 0.351887
Si Si4 0.392214 0.250000 0.589935
Si Si5 0.500000 0.498719 0.678503
Si Si6 0.142738 0.750000 0.783909
Si Si7 0.800716 0.032943 0.871261
Si Si8 0.813169 0.647621 0.061575
O O1 0.750000 0.871704 0.750000
O O2 0.597634 0.892105 0.902373
O O3 0.618332 0.803304 0.786194
O O4 0.736151 0.832993 0.964827
O O5 0.500000 0.383578 0.285738
O O6 0.500000 0.454665 0.425460
O O7 0.591923 0.369662 0.493038
O O8 0.000000 0.471106 0.313536
O O9 0.500000 0.250000 0.616527
O O10 0.382122 0.250000 0.433189
O O11 0.344555 0.197679 0.639740
O O12 0.407315 0.468122 0.664558
O O13 0.250000 0.750000 0.750000
O O14 0.750000 0.009401 0.750000
O O15 0.775909 0.093214 0.886741
O O16 0.786431 0.000000 0.000000
#
# Coordination Sequence:
#
# PCOD9534128 Si02
#       8
#    16   8   8   8   8   8  16  16
#     4  11  19  31  51  82 130 171 207 264 329 401
#     4  10  17  31  59  89 119 162 207 279 327 385
#     4  10  20  29  52  86 117 174 216 254 335 396
#     4  12  22  32  59  97 133 166 220 290 335 382
#     4  10  22  41  65  96 133 168 223 293 344 384
#     4  10  18  28  46  84 125 163 207 257 335 373
#     4  12  27  45  72 102 135 180 230 286 347 413
#     4  12  22  37  59  91 134 168 220 270 342 396
#
# _framework density 22.045318999999999
#
# number of rings (size 3 to 8) (size 9 to 14) (size 15 to 20)
#    0.545    0.364    8.182    0.818    3.818    0.000 
#    0.000    1.818    0.000    0.000    0.000    0.000 
#    0.000    0.000    0.000    0.000    0.000    0.000 
#
# Total GULP energy -245156.107707 kJ/mol
# GULP energy per Si atom -5571.729721 kJ/mol
# Density = 2.199514 g / cm^3
# Si number density = 22.045319 Si / 1000 Ang^3
#
#
#
# Elastic Constant Matrix: (Units=GPa)
#
#
# Indices 1 2 3 4 5 6 
#
# 1 81.4059 2.4577 22.8575 0.0002 0.0000 -0.0001
# 2 2.4577 124.6838 8.9737 0.0002 0.0000 0.0000
# 3 22.8575 8.9737 41.5217 0.0015 -0.0006 -0.0006
# 4 0.0002 0.0002 0.0015 19.6012 -0.0001 0.0000
# 5 0.0000 0.0000 -0.0006 -0.0001 12.1521 0.0000
# 6 -0.0001 0.0000 -0.0006 0.0000 0.0000 16.1475
#
#
#
# Elastic Compliance Matrix: (Units=1/GPa)
#
#
# Indices 1 2 3 4 5 6 
#
# 1 0.014541 0.000294 -0.008068 0.000000 0.000000 0.000000
# 2 0.000294 0.008153 -0.001924 0.000000 0.000000 0.000000
# 3 -0.008068 -0.001924 0.028941 -0.000002 0.000002 0.000001
# 4 0.000000 0.000000 -0.000002 0.051017 0.000001 0.000000
# 5 0.000000 0.000000 0.000002 0.000001 0.082291 0.000000
# 6 0.000000 0.000000 0.000001 0.000000 0.000000 0.061929
#
#
# Mechanical properties :
#
#
# Convention : Reuss Voigt Hill
#
# Bulk Modulus (GPa) = 31.01859 35.13214 33.07537
# Shear Modulus (GPa) = 18.04965 23.80165 20.92565
#
# Velocity S-wave (km/s) = 2.86449 3.28940 3.08427
# Velocity P-wave (km/s) = 5.00413 5.51342 5.26493
#
# Compressibility (1/GPa) = 0.03223873
#
# Stress axis : x y z
#
# Youngs Moduli (GPa) = 68.77275 122.65487 34.55302
#
# Poissons Ratio (x) = -0.03607 0.27878
# Poissons Ratio (y) = -0.02022 0.06648
# Poissons Ratio (z) = 0.55487 0.23598
#
# Static dielectric constant tensor:
#      x y z
#    x 2.133750 0.000000 0.000000 
#    y 0.000000 1.943570 0.000000 
#    z 0.000000 0.000000 1.861820 
# 
# From -- ./inp_files/20944.got.cif
#   From: 2010.05.17/outbox.cif.g08.bks.cpg/sg74_11_cif.got.tgz:20944.got - 2010.06.03 17:57:02.
