data_PCOD9534260
_publ_section_title
;
Structure prediction by ZEFSAII (Michael W. Deem and Ramdas Pophale) SiO2 
 PCOD9534260
Probable space group: I M M A
;
_chemical_formula_sum "Si O2"
_cell_formula_units_Z 128
_cell_length_a 28.457751
_cell_length_b 22.332869
_cell_length_c 11.634289
_cell_angle_alpha 90.000000
_cell_angle_beta 90.000000
_cell_angle_gamma 90.000000
_cell_volume 7394.093553
_symmetry_space_group_name_H-M "I M M A"
_symmetry_group_IT_number 74
_symmetry_cell_setting 'orthorhombic'
loop_
_space_group_symop_operation_xyz
x,y,z
-x,1/2-y,z
x,-y,-z
-x,1/2+y,-z
-x,-y,-z
x,1/2+y,-z
-x,y,z
x,1/2-y,z
1/2+x,1/2+y,1/2+z
1/2-x,-y,1/2+z
1/2+x,1/2-y,1/2-z
1/2-x,y,1/2-z
1/2-x,1/2-y,1/2-z
1/2+x,y,1/2-z
1/2-x,1/2+y,1/2+z
1/2+x,-y,1/2+z
loop_
_atom_site_type_symbol
_atom_site_label
_atom_site_fract_x
_atom_site_fract_y
_atom_site_fract_z
Si Si1 0.054803 0.406802 0.280794
Si Si2 0.445957 0.048309 0.731445
Si Si3 0.300094 0.481199 0.248308
Si Si4 0.637271 0.182150 0.270516
Si Si5 0.401541 0.929908 0.027115
Si Si6 0.687696 0.382005 0.062790
Si Si7 0.637808 0.947483 0.405160
Si Si8 0.795361 0.624272 0.940350
O O1 0.059433 0.475509 0.237552
O O2 0.093890 0.364644 0.220918
O O3 0.069277 0.406855 0.415996
O O4 0.000000 0.389372 0.266917
O O5 0.500000 0.061370 0.711758
O O6 0.429885 0.073095 0.854973
O O7 0.413388 0.073461 0.630446
O O8 0.250000 0.513648 0.250000
O O9 0.309106 0.445409 0.132041
O O10 0.341037 0.523752 0.289078
O O11 0.294838 0.429706 0.345802
O O12 0.620460 0.250000 0.263664
O O13 0.666034 0.163850 0.155597
O O14 0.674415 0.174004 0.374202
O O15 0.352014 0.894780 0.031380
O O16 0.393469 0.000000 0.000000
O O17 0.740809 0.364079 0.031530
O O18 0.674284 0.899740 0.453917
O O19 0.634631 0.000000 0.500000
#
# Coordination Sequence:
#
# PCOD9534260 Si02
#       8
#    16  16  16  16  16  16  16  16
#     4   9  17  30  47  69  98 125 153 193 235 277
#     4  10  19  30  46  67  94 129 159 185 227 279
#     4   8  14  25  41  61  89 122 148 176 222 273
#     4  10  19  32  50  69  92 123 157 196 239 278
#     4   9  16  27  44  68  96 124 151 180 224 284
#     4   9  17  29  45  68  96 122 150 187 232 284
#     4  10  18  28  41  60  91 124 158 191 217 260
#     4   9  18  29  41  63  92 121 154 191 228 268
#
# _framework density 17.311115000000001
#
# number of rings (size 3 to 8) (size 9 to 14) (size 15 to 20)
#    0.000    2.750    0.000    5.250    0.000    6.500 
#    0.000    0.625    0.000    0.000    0.000    3.500 
#    0.000    9.500    0.000    0.000    0.000    0.000 
#
# Total GULP energy -356582.471120 kJ/mol
# GULP energy per Si atom -5571.601111 kJ/mol
# Density = 1.727171 g / cm^3
# Si number density = 17.311115 Si / 1000 Ang^3
#
#
#
# Elastic Constant Matrix: (Units=GPa)
#
#
# Indices 1 2 3 4 5 6 
#
# 1 143.2907 20.1970 21.8923 0.0000 0.0000 0.0000
# 2 20.1970 23.1353 3.8420 0.0000 0.0000 0.0000
# 3 21.8923 3.8420 20.3375 0.0000 0.0000 0.0000
# 4 0.0000 0.0000 0.0000 5.2906 0.0000 0.0000
# 5 0.0000 0.0000 0.0000 0.0000 23.9551 0.0000
# 6 0.0000 0.0000 0.0000 0.0000 0.0000 10.5753
#
#
#
# Elastic Compliance Matrix: (Units=1/GPa)
#
#
# Indices 1 2 3 4 5 6 
#
# 1 0.009241 -0.006623 -0.008696 0.000000 0.000000 0.000000
# 2 -0.006623 0.049371 -0.002197 0.000000 0.000000 0.000000
# 3 -0.008696 -0.002197 0.058947 0.000000 0.000000 0.000000
# 4 0.000000 0.000000 0.000000 0.189016 0.000000 0.000000
# 5 0.000000 0.000000 0.000000 0.000000 0.041745 0.000000
# 6 0.000000 0.000000 0.000000 0.000000 0.000000 0.094560
#
#
# Mechanical properties :
#
#
# Convention : Reuss Voigt Hill
#
# Bulk Modulus (GPa) = 12.11751 30.95845 21.53798
# Shear Modulus (GPa) = 9.89274 17.35299 13.62287
#
# Velocity S-wave (km/s) = 2.39313 3.16954 2.80829
# Velocity P-wave (km/s) = 3.82768 5.59616 4.79417
#
# Compressibility (1/GPa) = 0.08252520
#
# Stress axis : x y z
#
# Youngs Moduli (GPa) = 108.21324 20.25483 16.96453
#
# Poissons Ratio (x) = 0.13415 0.14753
# Poissons Ratio (y) = 0.71672 0.03727
# Poissons Ratio (z) = 0.94106 0.04450
#
# Static dielectric constant tensor:
#      x y z
#    x 1.642600 0.000000 0.000000 
#    y 0.000000 1.562420 0.000000 
#    z 0.000000 0.000000 1.608480 
# 
# From -- ./inp_files/25690.got.cif
#   From: 2010.05.17/outbox.cif.g08.bks.cpg/sg74_13_cif.got.tgz:25690.got - 2010.06.03 17:57:02.
