data_PCOD9534329
_publ_section_title
;
Structure prediction by ZEFSAII (Michael W. Deem and Ramdas Pophale) SiO2 
 PCOD9534329
Probable space group: I M M A
;
_chemical_formula_sum "Si O2"
_cell_formula_units_Z 64
_cell_length_a 18.957299
_cell_length_b 17.689969
_cell_length_c 7.632799
_cell_angle_alpha 90.000000
_cell_angle_beta 90.000000
_cell_angle_gamma 90.000000
_cell_volume 2559.689917
_symmetry_space_group_name_H-M "I M M A"
_symmetry_group_IT_number 74
_symmetry_cell_setting 'orthorhombic'
loop_
_space_group_symop_operation_xyz
x,y,z
-x,1/2-y,z
x,-y,-z
-x,1/2+y,-z
-x,-y,-z
x,1/2+y,-z
-x,y,z
x,1/2-y,z
1/2+x,1/2+y,1/2+z
1/2-x,-y,1/2+z
1/2+x,1/2-y,1/2-z
1/2-x,y,1/2-z
1/2-x,1/2-y,1/2-z
1/2+x,y,1/2-z
1/2-x,1/2+y,1/2+z
1/2+x,-y,1/2+z
loop_
_atom_site_type_symbol
_atom_site_label
_atom_site_fract_x
_atom_site_fract_y
_atom_site_fract_z
Si Si1 0.343843 0.663982 0.898881
Si Si2 0.789092 0.912941 0.062126
Si Si3 0.079988 0.468927 0.318530
Si Si4 0.419745 0.136509 0.727248
O O1 0.341863 0.750000 0.842506
O O2 0.268247 0.630317 0.946073
O O3 0.393194 0.658979 0.077016
O O4 0.378111 0.604281 0.764609
O O5 0.750000 0.923764 0.250000
O O6 0.853068 0.853880 0.101764
O O7 0.802560 0.000000 0.000000
O O8 0.113236 0.500000 0.500000
O O9 0.076047 0.544803 0.210152
O O10 0.000000 0.444755 0.356929
O O11 0.500000 0.163710 0.695921
#
# Coordination Sequence:
#
# PCOD9534329 Si02
#       4
#    16  16  16  16
#     4  10  18  28  46  74 104 131 162 203 250 296
#     4  10  20  34  53  73  99 133 169 207 247 289
#     4   8  14  27  46  67  93 125 160 199 241 284
#     4   9  18  31  48  71  98 128 164 205 248 295
#
# _framework density 25.003026999999999
#
# number of rings (size 3 to 8) (size 9 to 14) (size 15 to 20)
#    0.000    2.750    0.000    6.000    0.000    7.000 
#    0.000    0.000    0.000    6.750    0.000    0.000 
#    0.000    0.000    0.000    0.000    0.000    0.000 
#
# Total GULP energy -178559.591699 kJ/mol
# GULP energy per Si atom -5579.987241 kJ/mol
# Density = 2.494612 g / cm^3
# Si number density = 25.003027 Si / 1000 Ang^3
#
#
#
# Elastic Constant Matrix: (Units=GPa)
#
#
# Indices 1 2 3 4 5 6 
#
# 1 137.4057 18.7169 0.1924 0.0000 0.0000 0.0000
# 2 18.7169 165.2431 -9.3354 0.0000 0.0000 0.0000
# 3 0.1924 -9.3354 50.6753 0.0000 0.0000 0.0000
# 4 0.0000 0.0000 0.0000 11.7244 0.0000 0.0000
# 5 0.0000 0.0000 0.0000 0.0000 5.4506 0.0000
# 6 0.0000 0.0000 0.0000 0.0000 0.0000 -13.6405
#
#
#
# Elastic Compliance Matrix: (Units=1/GPa)
#
#
# Indices 1 2 3 4 5 6 
#
# 1 0.007393 -0.000848 -0.000184 0.000000 0.000000 0.000000
# 2 -0.000848 0.006213 0.001148 0.000000 0.000000 0.000000
# 3 -0.000184 0.001148 0.019946 0.000000 0.000000 0.000000
# 4 0.000000 0.000000 0.000000 0.085292 0.000000 0.000000
# 5 0.000000 0.000000 0.000000 0.000000 0.183466 0.000000
# 6 0.000000 0.000000 0.000000 0.000000 0.000000 -0.073311
#
#
# Mechanical properties :
#
#
# Convention : Reuss Voigt Hill
#
# Bulk Modulus (GPa) = 29.60085 41.38576 35.49330
# Shear Modulus (GPa) = 20.83084 23.62357 22.22720
#
# Velocity S-wave (km/s) = 2.88954 3.07714 2.98481
# Velocity P-wave (km/s) = 4.79554 5.40493 5.10933
#
# Compressibility (1/GPa) = 0.03378282
#
# Stress axis : x y z
#
# Youngs Moduli (GPa) = 135.25447 160.96413 50.13630
#
# Poissons Ratio (x) = 0.13648 0.00924
# Poissons Ratio (y) = 0.11468 -0.05754
# Poissons Ratio (z) = 0.02492 -0.18474
#
# Static dielectric constant tensor:
#      x y z
#    x 2.103330 0.000000 0.000000 
#    y 0.000000 1.970370 0.000000 
#    z 0.000000 0.000000 2.078790 
# 
# From -- ./inp_files/10221.got.cif
#   From: 2010.05.17/outbox.cif.g08.bks.cpg/sg74_6_cif.got.tgz:10221.got - 2010.06.03 17:57:02.
