data_PCOD9534356
_publ_section_title
;
Structure prediction by ZEFSAII (Michael W. Deem and Ramdas Pophale) SiO2 
 PCOD9534356
Probable space group: I M M A
;
_chemical_formula_sum "Si O2"
_cell_formula_units_Z 84
_cell_length_a 14.617742
_cell_length_b 8.867242
_cell_length_c 28.260699
_cell_angle_alpha 90.000000
_cell_angle_beta 90.000000
_cell_angle_gamma 90.000000
_cell_volume 3663.125121
_symmetry_space_group_name_H-M "I M M A"
_symmetry_group_IT_number 74
_symmetry_cell_setting 'orthorhombic'
loop_
_space_group_symop_operation_xyz
x,y,z
-x,1/2-y,z
x,-y,-z
-x,1/2+y,-z
-x,-y,-z
x,1/2+y,-z
-x,y,z
x,1/2-y,z
1/2+x,1/2+y,1/2+z
1/2-x,-y,1/2+z
1/2+x,1/2-y,1/2-z
1/2-x,y,1/2-z
1/2-x,1/2-y,1/2-z
1/2+x,y,1/2-z
1/2-x,1/2+y,1/2+z
1/2+x,-y,1/2+z
loop_
_atom_site_type_symbol
_atom_site_label
_atom_site_fract_x
_atom_site_fract_y
_atom_site_fract_z
Si Si1 0.138503 0.078667 0.746273
Si Si2 0.635832 0.922009 0.850399
Si Si3 0.142243 0.081079 0.159607
Si Si4 0.361323 0.418940 0.567657
Si Si5 0.356564 0.574791 0.050499
Si Si6 0.000000 0.500000 0.000000
O O1 0.108651 0.250000 0.754167
O O2 0.250000 0.079922 0.750000
O O3 0.108350 0.020628 0.694901
O O4 0.111681 0.967359 0.788429
O O5 0.604102 0.750000 0.847104
O O6 0.746731 0.916640 0.845034
O O7 0.611396 0.991546 0.901553
O O8 0.111164 0.250000 0.148066
O O9 0.118093 0.953357 0.121947
O O10 0.393965 0.250000 0.554621
O O11 0.254397 0.429152 0.555894
O O12 0.419703 0.535907 0.538404
O O13 0.384149 0.750000 0.050812
O O14 0.380911 0.500000 0.000000
#
# Coordination Sequence:
#
# PCOD9534356 Si02
#       6
#    16  16  16  16  16   4
#     4   9  15  24  39  58  78  97 117 145 184 231
#     4   9  16  25  38  57  77  98 123 151 186 231
#     4   9  17  28  42  57  75  95 118 151 194 241
#     4  10  21  33  45  58  73  95 127 167 211 254
#     4  10  18  29  41  55  75 101 131 164 202 242
#     4  12  22  36  48  62  74 100 136 182 220 260
#
# _framework density 22.931239000000001
#
# number of rings (size 3 to 8) (size 9 to 14) (size 15 to 20)
#    0.000    2.476    0.952    2.571    0.000    9.143 
#    0.000    0.000    0.000    0.000    0.000    0.000 
#    0.000    0.000    0.000    0.000    0.000    0.000 
#
# Total GULP energy -233998.628380 kJ/mol
# GULP energy per Si atom -5571.395914 kJ/mol
# Density = 2.287905 g / cm^3
# Si number density = 22.931239 Si / 1000 Ang^3
#
#
#
# Elastic Constant Matrix: (Units=GPa)
#
#
# Indices 1 2 3 4 5 6 
#
# 1 84.4501 -0.8951 -1.4005 0.0000 0.0000 0.0000
# 2 -0.8951 129.1742 56.6560 0.0000 0.0000 0.0000
# 3 -1.4005 56.6560 173.7509 0.0000 0.0000 0.0000
# 4 0.0000 0.0000 0.0000 34.3271 0.0000 0.0000
# 5 0.0000 0.0000 0.0000 0.0000 19.0377 0.0000
# 6 0.0000 0.0000 0.0000 0.0000 0.0000 -29.7786
#
#
#
# Elastic Compliance Matrix: (Units=1/GPa)
#
#
# Indices 1 2 3 4 5 6 
#
# 1 0.011843 0.000047 0.000080 0.000000 0.000000 0.000000
# 2 0.000047 0.009034 -0.002945 0.000000 0.000000 0.000000
# 3 0.000080 -0.002945 0.006716 0.000000 0.000000 0.000000
# 4 0.000000 0.000000 0.000000 0.029132 0.000000 0.000000
# 5 0.000000 0.000000 0.000000 0.000000 0.052527 0.000000
# 6 0.000000 0.000000 0.000000 0.000000 0.000000 -0.033581
#
#
# Mechanical properties :
#
#
# Convention : Reuss Voigt Hill
#
# Bulk Modulus (GPa) = 45.54410 55.12179 50.33294
# Shear Modulus (GPa) = 56.41685 26.91824 41.66755
#
# Velocity S-wave (km/s) = 4.96548 3.42989 4.26733
# Velocity P-wave (km/s) = 7.26491 6.30679 6.80274
#
# Compressibility (1/GPa) = 0.02195674
#
# Stress axis : x y z
#
# Youngs Moduli (GPa) = 84.43712 110.69770 148.88940
#
# Poissons Ratio (x) = -0.00519 -0.01194
# Poissons Ratio (y) = -0.00396 0.43852
# Poissons Ratio (z) = -0.00677 0.32603
#
# Static dielectric constant tensor:
#      x y z
#    x 1.952370 0.000000 0.000000 
#    y 0.000000 1.848910 0.000000 
#    z 0.000000 0.000000 1.865890 
# 
# From -- ./inp_files/68043.got.cif
#   From: 2010.05.17/outbox.cif.g08.bks.cpg/sg74_35_cif.got.tgz:68043.got - 2010.06.03 17:57:02.
