data_PCOD9534578
_publ_section_title
;
Structure prediction by ZEFSAII (Michael W. Deem and Ramdas Pophale) SiO2 
 PCOD9534578
Probable space group: I M M A
;
_chemical_formula_sum "Si O2"
_cell_formula_units_Z 96
_cell_length_a 22.655919
_cell_length_b 8.164932
_cell_length_c 28.721703
_cell_angle_alpha 90.000000
_cell_angle_beta 90.000000
_cell_angle_gamma 90.000000
_cell_volume 5313.056600
_symmetry_space_group_name_H-M "I M M A"
_symmetry_group_IT_number 74
_symmetry_cell_setting 'orthorhombic'
loop_
_space_group_symop_operation_xyz
x,y,z
-x,1/2-y,z
x,-y,-z
-x,1/2+y,-z
-x,-y,-z
x,1/2+y,-z
-x,y,z
x,1/2-y,z
1/2+x,1/2+y,1/2+z
1/2-x,-y,1/2+z
1/2+x,1/2-y,1/2-z
1/2-x,y,1/2-z
1/2-x,1/2-y,1/2-z
1/2+x,y,1/2-z
1/2-x,1/2+y,1/2+z
1/2+x,-y,1/2+z
loop_
_atom_site_type_symbol
_atom_site_label
_atom_site_fract_x
_atom_site_fract_y
_atom_site_fract_z
Si Si1 0.500000 0.946332 0.879750
Si Si2 0.757664 0.947078 0.447440
Si Si3 0.379435 0.945504 0.723526
Si Si4 0.000000 0.950509 0.728983
Si Si5 0.197766 0.441830 0.306816
Si Si6 0.627001 0.945473 0.108712
Si Si7 0.188802 0.940322 0.139928
O O1 0.500000 0.750000 0.880530
O O2 0.500000 0.001077 0.825188
O O3 0.560055 0.010439 0.902832
O O4 0.755879 0.750000 0.445378
O O5 0.822714 0.995419 0.428444
O O6 0.709023 0.009549 0.410209
O O7 0.748096 0.000000 0.500000
O O8 0.380039 0.750000 0.729170
O O9 0.441489 0.006776 0.743684
O O10 0.326961 0.003708 0.757788
O O11 0.363138 0.983198 0.670516
O O12 0.000000 0.750000 0.728969
O O13 0.214622 0.250000 0.303294
O O14 0.144532 0.462228 0.343646
O O15 0.251925 0.537444 0.329258
O O16 0.632058 0.750000 0.116107
O O17 0.175396 0.750000 0.134414
#
# Coordination Sequence:
#
# PCOD9534578 Si02
#       7
#     8  16  16   8  16  16  16
#     4  11  19  33  52  72  99 140 183 214 242 288
#     4   9  20  37  55  74  98 125 160 210 264 311
#     4  10  19  32  49  71 101 137 173 206 239 287
#     4   9  18  33  49  70 103 138 175 214 237 268
#     4  10  18  30  49  72  99 135 175 206 241 294
#     4  10  20  33  49  74 104 133 167 214 261 299
#     4  10  21  34  48  73 105 130 159 208 259 302
#
# _framework density 18.068695999999999
#
# number of rings (size 3 to 8) (size 9 to 14) (size 15 to 20)
#    0.000    2.167    1.667    3.250    0.000    7.333 
#    0.000    0.833    0.000    0.000    0.000    0.583 
#    0.000    0.000    0.000    0.000    0.000    0.000 
#
# Total GULP energy -267733.249234 kJ/mol
# GULP energy per Si atom -5577.776026 kJ/mol
# Density = 1.802757 g / cm^3
# Si number density = 18.068696 Si / 1000 Ang^3
#
#
#
# Elastic Constant Matrix: (Units=GPa)
#
#
# Indices 1 2 3 4 5 6 
#
# 1 32.2564 -1.6713 24.4966 0.0000 0.0000 0.0000
# 2 -1.6713 13.7309 5.4860 0.0000 0.0000 0.0000
# 3 24.4966 5.4860 117.4631 0.0000 0.0000 0.0000
# 4 0.0000 0.0000 0.0000 19.9203 0.0000 0.0000
# 5 0.0000 0.0000 0.0000 0.0000 17.9893 0.0000
# 6 0.0000 0.0000 0.0000 0.0000 0.0000 22.4957
#
#
#
# Elastic Compliance Matrix: (Units=1/GPa)
#
#
# Indices 1 2 3 4 5 6 
#
# 1 0.037651 0.007867 -0.008220 0.000000 0.000000 0.000000
# 2 0.007867 0.075857 -0.005183 0.000000 0.000000 0.000000
# 3 -0.008220 -0.005183 0.010470 0.000000 0.000000 0.000000
# 4 0.000000 0.000000 0.000000 0.050200 0.000000 0.000000
# 5 0.000000 0.000000 0.000000 0.000000 0.055588 0.000000
# 6 0.000000 0.000000 0.000000 0.000000 0.000000 0.044453
#
#
# Mechanical properties :
#
#
# Convention : Reuss Voigt Hill
#
# Bulk Modulus (GPa) = 8.85695 24.45256 16.65476
# Shear Modulus (GPa) = 15.48338 21.09034 18.28686
#
# Velocity S-wave (km/s) = 2.93049 3.42018 3.18476
# Velocity P-wave (km/s) = 4.04510 5.39994 4.77086
#
# Compressibility (1/GPa) = 0.11290567
#
# Stress axis : x y z
#
# Youngs Moduli (GPa) = 26.55942 13.18270 95.51504
#
# Poissons Ratio (x) = -0.10371 0.78509
# Poissons Ratio (y) = -0.20894 0.49509
# Poissons Ratio (z) = 0.21831 0.06833
#
# Static dielectric constant tensor:
#      x y z
#    x 1.642590 0.000000 0.000000 
#    y 0.000000 1.630720 0.000000 
#    z 0.000000 0.000000 1.629640 
# 
# From -- ./inp_files/68588.got.cif
#   From: 2010.05.17/outbox.cif.g08.bks.cpg/sg74_35_cif.got.tgz:68588.got - 2010.06.03 17:57:02.
