data_PCOD9534825
_publ_section_title
;
Structure prediction by ZEFSAII (Michael W. Deem and Ramdas Pophale) SiO2 
 PCOD9534825
Probable space group: I M M A
;
_chemical_formula_sum "Si O2"
_cell_formula_units_Z 64
_cell_length_a 14.861168
_cell_length_b 23.792909
_cell_length_c 9.167379
_cell_angle_alpha 90.000000
_cell_angle_beta 90.000000
_cell_angle_gamma 90.000000
_cell_volume 3241.497371
_symmetry_space_group_name_H-M "I M M A"
_symmetry_group_IT_number 74
_symmetry_cell_setting 'orthorhombic'
loop_
_space_group_symop_operation_xyz
x,y,z
-x,1/2-y,z
x,-y,-z
-x,1/2+y,-z
-x,-y,-z
x,1/2+y,-z
-x,y,z
x,1/2-y,z
1/2+x,1/2+y,1/2+z
1/2-x,-y,1/2+z
1/2+x,1/2-y,1/2-z
1/2-x,y,1/2-z
1/2-x,1/2-y,1/2-z
1/2+x,y,1/2-z
1/2-x,1/2+y,1/2+z
1/2+x,-y,1/2+z
loop_
_atom_site_type_symbol
_atom_site_label
_atom_site_fract_x
_atom_site_fract_y
_atom_site_fract_z
Si Si1 0.899068 0.622484 0.095973
Si Si2 0.213395 0.250000 0.580745
Si Si3 0.098032 0.750000 0.001399
Si Si4 0.106631 0.365833 0.573440
Si Si5 0.255805 0.940086 0.921986
O O1 0.875285 0.610524 0.263550
O O2 0.000000 0.601302 0.064085
O O3 0.904000 0.690479 0.085282
O O4 0.825430 0.597483 0.988178
O O5 0.250000 0.250000 0.750000
O O6 0.295603 0.250000 0.462699
O O7 0.154699 0.305668 0.561679
O O8 0.000000 0.750000 0.918064
O O9 0.152502 0.407987 0.461749
O O10 0.000000 0.360203 0.556231
O O11 0.250000 0.946552 0.750000
O O12 0.252323 0.000000 0.000000
#
# Coordination Sequence:
#
# PCOD9534825 Si02
#       5
#    16   8   8  16  16
#     4  10  20  38  64  95 127 162 204 250 304 366
#     4  12  17  31  62  96 137 162 207 246 298 363
#     4  10  18  31  60  98 132 164 201 246 300 363
#     4  11  22  38  63  96 130 167 207 254 306 364
#     4  12  26  44  65  87 119 161 212 264 319 374
#
# _framework density 19.743960999999999
#
# number of rings (size 3 to 8) (size 9 to 14) (size 15 to 20)
#    0.000    1.000    5.000    2.625    0.000    2.000 
#    0.000    2.500    0.000    3.000    0.000    0.000 
#    0.000    0.000    0.000    0.000    0.000    0.000 
#
# Total GULP energy -178482.719911 kJ/mol
# GULP energy per Si atom -5577.584997 kJ/mol
# Density = 1.969902 g / cm^3
# Si number density = 19.743961 Si / 1000 Ang^3
#
#
#
# Elastic Constant Matrix: (Units=GPa)
#
#
# Indices 1 2 3 4 5 6 
#
# 1 151.2707 43.8320 62.0589 0.0000 0.0000 0.0000
# 2 43.8320 107.9853 61.7745 0.0000 0.0000 0.0000
# 3 62.0589 61.7745 110.2148 0.0000 -0.0002 -0.0001
# 4 0.0000 0.0000 0.0000 6.7916 -0.0001 0.0000
# 5 0.0000 0.0000 -0.0002 -0.0001 17.0415 -0.0001
# 6 0.0000 0.0000 -0.0001 0.0000 -0.0001 4.8315
#
#
#
# Elastic Compliance Matrix: (Units=1/GPa)
#
#
# Indices 1 2 3 4 5 6 
#
# 1 0.008680 -0.001071 -0.004287 0.000000 0.000000 0.000000
# 2 -0.001071 0.013763 -0.007111 0.000000 0.000000 0.000000
# 3 -0.004287 -0.007111 0.015473 0.000000 0.000000 0.000000
# 4 0.000000 0.000000 0.000000 0.147241 0.000001 0.000001
# 5 0.000000 0.000000 0.000000 0.000001 0.058680 0.000001
# 6 0.000000 0.000000 0.000000 0.000001 0.000001 0.206973
#
#
# Mechanical properties :
#
#
# Convention : Reuss Voigt Hill
#
# Bulk Modulus (GPa) = 77.05564 78.31131 77.68347
# Shear Modulus (GPa) = 10.41504 19.18662 14.80083
#
# Velocity S-wave (km/s) = 2.29924 3.12071 2.74092
# Velocity P-wave (km/s) = 6.79418 7.26186 7.03191
#
# Compressibility (1/GPa) = 0.01297764
#
# Stress axis : x y z
#
# Youngs Moduli (GPa) = 115.21098 72.65737 64.62828
#
# Poissons Ratio (x) = 0.07778 0.27708
# Poissons Ratio (y) = 0.12334 0.45960
# Poissons Ratio (z) = 0.49394 0.51669
#
# Static dielectric constant tensor:
#      x y z
#    x 1.748810 0.000000 0.000000 
#    y 0.000000 1.671640 0.000000 
#    z 0.000000 0.000000 1.677080 
# 
# From -- ./inp_files/8890.got.cif
#   From: 2010.05.17/outbox.cif.g08.bks.cpg/sg74_5_cif.got.tgz:8890.got - 2010.06.03 17:57:02.
