data_PCOD9534051
_publ_section_title
;
Structure prediction by ZEFSAII (Michael W. Deem and Ramdas Pophale) SiO2 
 PCOD9534051
Probable space group: I M M A
;
_chemical_formula_sum "Si O2"
_cell_formula_units_Z 52
_cell_length_a 36.869491
_cell_length_b 7.710864
_cell_length_c 7.227947
_cell_angle_alpha 90.000000
_cell_angle_beta 90.000000
_cell_angle_gamma 90.000000
_cell_volume 2054.873752
_symmetry_space_group_name_H-M "I M M A"
_symmetry_group_IT_number 74
_symmetry_cell_setting 'orthorhombic'
loop_
_space_group_symop_operation_xyz
x,y,z
-x,1/2-y,z
x,-y,-z
-x,1/2+y,-z
-x,-y,-z
x,1/2+y,-z
-x,y,z
x,1/2-y,z
1/2+x,1/2+y,1/2+z
1/2-x,-y,1/2+z
1/2+x,1/2-y,1/2-z
1/2-x,y,1/2-z
1/2-x,1/2-y,1/2-z
1/2+x,y,1/2-z
1/2-x,1/2+y,1/2+z
1/2+x,-y,1/2+z
loop_
_atom_site_type_symbol
_atom_site_label
_atom_site_fract_x
_atom_site_fract_y
_atom_site_fract_z
Si Si1 0.290246 0.544688 0.786781
Si Si2 0.000000 0.250000 0.837877
Si Si3 0.445734 0.052097 0.220614
Si Si4 0.868437 0.950821 0.282521
O O1 0.289042 0.750000 0.752412
O O2 0.250000 0.471100 0.750000
O O3 0.328168 0.480397 0.702489
O O4 0.294305 0.500000 0.000000
O O5 0.031254 0.403971 0.819012
O O6 0.459462 0.250000 0.240435
O O7 0.403862 0.050196 0.285365
O O8 0.447066 0.000000 0.000000
O O9 0.876991 0.750000 0.268268
O O10 0.866525 0.000000 0.500000
#
# Coordination Sequence:
#
# PCOD9534051 Si02
#       4
#    16   4  16  16
#     4  10  20  33  51  74 100 131 174 213 255 304
#     4  12  20  28  34  58  78 114 158 202 240 294
#     4  11  19  27  38  53  81 115 155 199 241 290
#     4  10  17  29  43  61  86 120 162 199 240 302
#
# _framework density 25.305689999999998
#
# number of rings (size 3 to 8) (size 9 to 14) (size 15 to 20)
#    0.000    1.538    3.077    8.308    0.000    2.462 
#    0.000    0.000    0.000    0.000    0.000    0.000 
#    0.000    0.000    0.000    1.385    8.615    8.615 
#
# Total GULP energy -144779.295916 kJ/mol
# GULP energy per Si atom -5568.434458 kJ/mol
# Density = 2.524809 g / cm^3
# Si number density = 25.305690 Si / 1000 Ang^3
#
#
#
# Elastic Constant Matrix: (Units=GPa)
#
#
# Indices 1 2 3 4 5 6 
#
# 1 272.7973 69.4218 9.0820 0.0000 0.0000 0.0000
# 2 69.4218 220.6033 1.5764 0.0000 0.0000 0.0000
# 3 9.0820 1.5764 78.6194 0.0000 0.0000 0.0000
# 4 0.0000 0.0000 0.0000 6.8703 0.0000 0.0000
# 5 0.0000 0.0000 0.0000 0.0000 6.3112 0.0000
# 6 0.0000 0.0000 0.0000 0.0000 0.0000 45.0600
#
#
#
# Elastic Compliance Matrix: (Units=1/GPa)
#
#
# Indices 1 2 3 4 5 6 
#
# 1 0.004000 -0.001256 -0.000437 0.000000 0.000000 0.000000
# 2 -0.001256 0.004928 0.000046 0.000000 0.000000 0.000000
# 3 -0.000437 0.000046 0.012769 0.000000 0.000000 0.000000
# 4 0.000000 0.000000 0.000000 0.145554 0.000000 0.000000
# 5 0.000000 0.000000 0.000000 0.000000 0.158448 0.000000
# 6 0.000000 0.000000 0.000000 0.000000 0.000000 0.022193
#
#
# Mechanical properties :
#
#
# Convention : Reuss Voigt Hill
#
# Bulk Modulus (GPa) = 54.33538 81.35338 67.84438
# Shear Modulus (GPa) = 13.99314 44.44429 29.21872
#
# Velocity S-wave (km/s) = 2.35407 4.19537 3.40167
# Velocity P-wave (km/s) = 5.37653 7.46232 6.50359
#
# Compressibility (1/GPa) = 0.01840421
#
# Stress axis : x y z
#
# Youngs Moduli (GPa) = 250.01311 202.92986 78.31439
#
# Poissons Ratio (x) = 0.25479 0.03421
# Poissons Ratio (y) = 0.31391 -0.00362
# Poissons Ratio (z) = 0.10922 -0.00938
#
# Static dielectric constant tensor:
#      x y z
#    x 2.077700 0.000000 0.000000 
#    y 0.000000 1.910590 0.000000 
#    z 0.000000 0.000000 1.913230 
# 
# From -- ./inp_files/26668.got.cif
#   From: 2010.05.17/outbox.cif.g08.bks.cpg/sg74_14_cif.got.tgz:26668.got - 2010.06.03 17:57:02.
