data_PCOD9534135
_publ_section_title
;
Structure prediction by ZEFSAII (Michael W. Deem and Ramdas Pophale) SiO2 
 PCOD9534135
Probable space group: I M M A
;
_chemical_formula_sum "Si O2"
_cell_formula_units_Z 80
_cell_length_a 19.138788
_cell_length_b 19.679796
_cell_length_c 12.940063
_cell_angle_alpha 90.000000
_cell_angle_beta 90.000000
_cell_angle_gamma 90.000000
_cell_volume 4873.841648
_symmetry_space_group_name_H-M "I M M A"
_symmetry_group_IT_number 74
_symmetry_cell_setting 'orthorhombic'
loop_
_space_group_symop_operation_xyz
x,y,z
-x,1/2-y,z
x,-y,-z
-x,1/2+y,-z
-x,-y,-z
x,1/2+y,-z
-x,y,z
x,1/2-y,z
1/2+x,1/2+y,1/2+z
1/2-x,-y,1/2+z
1/2+x,1/2-y,1/2-z
1/2-x,y,1/2-z
1/2-x,1/2-y,1/2-z
1/2+x,y,1/2-z
1/2-x,1/2+y,1/2+z
1/2+x,-y,1/2+z
loop_
_atom_site_type_symbol
_atom_site_label
_atom_site_fract_x
_atom_site_fract_y
_atom_site_fract_z
Si Si1 0.500000 0.397121 0.092686
Si Si2 0.353901 0.618838 0.807067
Si Si3 0.000000 0.060248 0.637325
Si Si4 0.350441 0.543997 0.208569
Si Si5 0.208462 0.330216 0.098744
Si Si6 0.223698 0.933882 0.073904
O O1 0.429326 0.366850 0.142548
O O2 0.500000 0.478680 0.114924
O O3 0.500000 0.397021 0.968536
O O4 0.346159 0.537194 0.809881
O O5 0.287795 0.651251 0.865960
O O6 0.342889 0.643270 0.689323
O O7 0.071567 0.071085 0.697658
O O8 0.301799 0.575500 0.119041
O O9 0.320840 0.555735 0.322558
O O10 0.201558 0.250000 0.088447
O O11 0.197648 0.371246 0.993727
O O12 0.222000 0.000000 0.000000
#
# Coordination Sequence:
#
# PCOD9534135 Si02
#       6
#     8  16   8  16  16  16
#     4   9  18  28  52  77 107 136 157 209 257 311
#     4  10  17  32  51  79 106 130 168 208 262 305
#     4   9  18  30  46  82 112 125 164 209 270 296
#     4  10  19  31  54  80 102 135 168 221 251 304
#     4  11  21  33  51  75 106 138 169 213 257 305
#     4  11  18  33  54  76 101 135 180 207 257 303
#
# _framework density 16.414156999999999
#
# number of rings (size 3 to 8) (size 9 to 14) (size 15 to 20)
#    0.000    1.800    4.000    3.600    2.800    0.000 
#    0.000    5.500    0.000    0.000    0.000    1.400 
#    0.000    0.000    0.000    0.000    0.000    0.000 
#
# Total GULP energy -223022.887676 kJ/mol
# GULP energy per Si atom -5575.572192 kJ/mol
# Density = 1.637680 g / cm^3
# Si number density = 16.414157 Si / 1000 Ang^3
#
#
#
# Elastic Constant Matrix: (Units=GPa)
#
#
# Indices 1 2 3 4 5 6 
#
# 1 107.5425 14.8895 37.8657 0.0000 0.0000 0.0000
# 2 14.8895 47.4650 21.7942 0.0000 0.0000 0.0000
# 3 37.8657 21.7942 86.9130 0.0000 0.0000 0.0000
# 4 0.0000 0.0000 0.0000 6.3014 0.0000 0.0000
# 5 0.0000 0.0000 0.0000 0.0000 17.4311 0.0000
# 6 0.0000 0.0000 0.0000 0.0000 0.0000 8.7133
#
#
#
# Elastic Compliance Matrix: (Units=1/GPa)
#
#
# Indices 1 2 3 4 5 6 
#
# 1 0.011068 -0.001422 -0.004465 0.000000 0.000000 0.000000
# 2 -0.001422 0.023992 -0.005397 0.000000 0.000000 0.000000
# 3 -0.004465 -0.005397 0.014805 0.000000 0.000000 0.000000
# 4 0.000000 0.000000 0.000000 0.158695 0.000000 0.000000
# 5 0.000000 0.000000 0.000000 0.000000 0.057369 0.000000
# 6 0.000000 0.000000 0.000000 0.000000 0.000000 0.114768
#
#
# Mechanical properties :
#
#
# Convention : Reuss Voigt Hill
#
# Bulk Modulus (GPa) = 36.63451 43.44657 40.04054
# Shear Modulus (GPa) = 12.12524 17.64722 14.88623
#
# Velocity S-wave (km/s) = 2.72086 3.28246 3.01477
# Velocity P-wave (km/s) = 5.67786 6.39472 6.04693
#
# Compressibility (1/GPa) = 0.02729666
#
# Stress axis : x y z
#
# Youngs Moduli (GPa) = 90.35264 41.68030 67.54670
#
# Poissons Ratio (x) = 0.05925 0.30163
# Poissons Ratio (y) = 0.12844 0.36454
# Poissons Ratio (z) = 0.40347 0.22495
#
# Static dielectric constant tensor:
#      x y z
#    x 1.563490 0.000000 0.000000 
#    y 0.000000 1.537550 0.000000 
#    z 0.000000 0.000000 1.551530 
# 
# From -- ./inp_files/23604.got.cif
#   From: 2010.05.17/outbox.cif.g08.bks.cpg/sg74_12_cif.got.tgz:23604.got - 2010.06.03 17:57:02.
