data_PCOD9534550
_publ_section_title
;
Structure prediction by ZEFSAII (Michael W. Deem and Ramdas Pophale) SiO2 
 PCOD9534550
Probable space group: I M M A
;
_chemical_formula_sum "Si O2"
_cell_formula_units_Z 72
_cell_length_a 16.921431
_cell_length_b 8.772137
_cell_length_c 28.957632
_cell_angle_alpha 90.000000
_cell_angle_beta 90.000000
_cell_angle_gamma 90.000000
_cell_volume 4298.387235
_symmetry_space_group_name_H-M "I M M A"
_symmetry_group_IT_number 74
_symmetry_cell_setting 'orthorhombic'
loop_
_space_group_symop_operation_xyz
x,y,z
-x,1/2-y,z
x,-y,-z
-x,1/2+y,-z
-x,-y,-z
x,1/2+y,-z
-x,y,z
x,1/2-y,z
1/2+x,1/2+y,1/2+z
1/2-x,-y,1/2+z
1/2+x,1/2-y,1/2-z
1/2-x,y,1/2-z
1/2-x,1/2-y,1/2-z
1/2+x,y,1/2-z
1/2-x,1/2+y,1/2+z
1/2+x,-y,1/2+z
loop_
_atom_site_type_symbol
_atom_site_label
_atom_site_fract_x
_atom_site_fract_y
_atom_site_fract_z
Si Si1 0.000000 0.567101 0.552056
Si Si2 0.333375 0.576432 0.777697
Si Si3 0.587858 0.066254 0.691776
Si Si4 0.755127 0.066756 0.860251
Si Si5 0.164017 0.566888 0.448791
O O1 0.000000 0.500000 0.500000
O O2 0.917890 0.502163 0.571139
O O3 0.000000 0.750000 0.551658
O O4 0.359140 0.750000 0.784829
O O5 0.250000 0.577620 0.750000
O O6 0.392129 0.489863 0.743391
O O7 0.311325 0.497325 0.825647
O O8 0.500000 0.015229 0.678108
O O9 0.589088 0.250000 0.691686
O O10 0.659146 0.013832 0.658263
O O11 0.753820 0.250000 0.856619
O O12 0.732799 0.027255 0.912592
O O13 0.176811 0.500000 0.500000
O O14 0.156405 0.750000 0.452136
#
# Coordination Sequence:
#
# PCOD9534550 Si02
#       5
#     8  16  16  16  16
#     4  10  18  30  48  68  92 120 152 190 234 282
#     4   9  17  29  46  68  94 122 152 191 237 281
#     4   9  17  31  51  72  95 126 162 198 236 279
#     4   9  18  32  50  71  95 126 163 198 234 281
#     4  10  19  32  50  71  96 126 160 198 237 282
#
# _framework density 16.750468999999999
#
# number of rings (size 3 to 8) (size 9 to 14) (size 15 to 20)
#    0.000    2.667    0.000    3.667    0.000    4.889 
#    2.000    0.000    0.000    0.667    0.000    0.000 
#    0.000    0.000    0.000    0.000    0.000    0.889 
#
# Total GULP energy -200482.564124 kJ/mol
# GULP energy per Si atom -5568.960115 kJ/mol
# Density = 1.671234 g / cm^3
# Si number density = 16.750469 Si / 1000 Ang^3
#
#
#
# Elastic Constant Matrix: (Units=GPa)
#
#
# Indices 1 2 3 4 5 6 
#
# 1 106.4416 29.5756 57.7147 0.0000 0.0000 0.0000
# 2 29.5756 41.6843 29.0951 0.0000 0.0000 0.0000
# 3 57.7147 29.0951 101.1558 0.0000 0.0000 0.0000
# 4 0.0000 0.0000 0.0000 18.9995 0.0000 0.0000
# 5 0.0000 0.0000 0.0000 0.0000 22.0947 0.0000
# 6 0.0000 0.0000 0.0000 0.0000 0.0000 13.0233
#
#
#
# Elastic Compliance Matrix: (Units=1/GPa)
#
#
# Indices 1 2 3 4 5 6 
#
# 1 0.014607 -0.005689 -0.006698 0.000000 0.000000 0.000000
# 2 -0.005689 0.032231 -0.006025 0.000000 0.000000 0.000000
# 3 -0.006698 -0.006025 0.015440 0.000000 0.000000 0.000000
# 4 0.000000 0.000000 0.000000 0.052633 0.000000 0.000000
# 5 0.000000 0.000000 0.000000 0.000000 0.045260 0.000000
# 6 0.000000 0.000000 0.000000 0.000000 0.000000 0.076786
#
#
# Mechanical properties :
#
#
# Convention : Reuss Voigt Hill
#
# Bulk Modulus (GPa) = 39.28418 53.56138 46.42278
# Shear Modulus (GPa) = 17.71382 19.68327 18.69854
#
# Velocity S-wave (km/s) = 3.25547 3.43167 3.34473
# Velocity P-wave (km/s) = 6.13468 6.90994 6.53382
#
# Compressibility (1/GPa) = 0.02545554
#
# Stress axis : x y z
#
# Youngs Moduli (GPa) = 68.45895 31.02560 64.76635
#
# Poissons Ratio (x) = 0.17651 0.43380
# Poissons Ratio (y) = 0.38946 0.39020
# Poissons Ratio (z) = 0.45853 0.18692
#
# Static dielectric constant tensor:
#      x y z
#    x 1.601250 0.000000 0.000000 
#    y 0.000000 1.569720 0.000000 
#    z 0.000000 0.000000 1.568330 
# 
# From -- ./inp_files/56704.got.cif
#   From: 2010.05.17/outbox.cif.g08.bks.cpg/sg74_29_cif.got.tgz:56704.got - 2010.06.03 17:57:02.
