data_PCOD9534445
_publ_section_title
;
Structure prediction by ZEFSAII (Michael W. Deem and Ramdas Pophale) SiO2 
 PCOD9534445
Probable space group: I M M A
;
_chemical_formula_sum "Si O2"
_cell_formula_units_Z 104
_cell_length_a 20.596283
_cell_length_b 15.837439
_cell_length_c 17.341758
_cell_angle_alpha 90.000000
_cell_angle_beta 90.000000
_cell_angle_gamma 90.000000
_cell_volume 5656.749240
_symmetry_space_group_name_H-M "I M M A"
_symmetry_group_IT_number 74
_symmetry_cell_setting 'orthorhombic'
loop_
_space_group_symop_operation_xyz
x,y,z
-x,1/2-y,z
x,-y,-z
-x,1/2+y,-z
-x,-y,-z
x,1/2+y,-z
-x,y,z
x,1/2-y,z
1/2+x,1/2+y,1/2+z
1/2-x,-y,1/2+z
1/2+x,1/2-y,1/2-z
1/2-x,y,1/2-z
1/2-x,1/2-y,1/2-z
1/2+x,y,1/2-z
1/2-x,1/2+y,1/2+z
1/2+x,-y,1/2+z
loop_
_atom_site_type_symbol
_atom_site_label
_atom_site_fract_x
_atom_site_fract_y
_atom_site_fract_z
Si Si1 0.577851 0.341762 0.896471
Si Si2 0.286427 0.653228 0.492010
Si Si3 0.153866 0.907753 0.539694
Si Si4 0.797227 0.349423 0.816826
Si Si5 0.114907 0.500000 0.000000
Si Si6 0.924063 0.979086 0.675749
Si Si7 0.427398 0.456061 0.666456
O O1 0.500000 0.340752 0.902966
O O2 0.599593 0.250000 0.866089
O O3 0.593544 0.423305 0.845052
O O4 0.608624 0.357043 0.980188
O O5 0.309127 0.750000 0.499290
O O6 0.223393 0.635940 0.542991
O O7 0.266084 0.640583 0.401986
O O8 0.340066 0.582894 0.508634
O O9 0.162407 0.000000 0.500000
O O10 0.119739 0.921696 0.621471
O O11 0.806010 0.250000 0.803171
O O12 0.750000 0.383575 0.750000
O O13 0.867442 0.392543 0.822869
O O14 0.076186 0.511216 0.079246
O O15 0.917673 0.973016 0.767627
O O16 0.000000 0.967075 0.654894
O O17 0.500000 0.420080 0.681032
#
# Coordination Sequence:
#
# PCOD9534445 Si02
#       7
#    16  16  16  16   8  16  16
#     4   9  17  28  44  70 107 147 181 218 268 332
#     4  10  20  35  55  82 110 145 191 232 278 342
#     4  10  18  29  49  72 106 149 183 215 263 326
#     4   9  20  34  52  80 118 152 179 224 286 351
#     4  10  21  40  60  80 109 142 186 242 305 340
#     4   9  19  32  48  76 108 142 186 232 281 336
#     4  10  21  36  58  82 107 144 192 241 288 342
#
# _framework density 18.385117999999999
#
# number of rings (size 3 to 8) (size 9 to 14) (size 15 to 20)
#    0.000    2.462    0.769    1.154    4.308    2.769 
#    0.000    1.538    0.000    4.154    0.000    4.308 
#    0.000    0.000    0.000    0.000    0.000    0.000 
#
# Total GULP energy -289955.615388 kJ/mol
# GULP energy per Si atom -5576.069527 kJ/mol
# Density = 1.834327 g / cm^3
# Si number density = 18.385118 Si / 1000 Ang^3
#
#
#
# Elastic Constant Matrix: (Units=GPa)
#
#
# Indices 1 2 3 4 5 6 
#
# 1 81.5618 28.8704 54.5603 0.0000 0.0000 0.0000
# 2 28.8704 56.6400 15.3725 0.0000 0.0000 0.0000
# 3 54.5603 15.3725 95.0012 0.0000 0.0000 0.0000
# 4 0.0000 0.0000 0.0000 14.3061 0.0000 0.0000
# 5 0.0000 0.0000 0.0000 0.0000 28.8415 0.0000
# 6 0.0000 0.0000 0.0000 0.0000 0.0000 10.9497
#
#
#
# Elastic Compliance Matrix: (Units=1/GPa)
#
#
# Indices 1 2 3 4 5 6 
#
# 1 0.023359 -0.008645 -0.012017 0.000000 0.000000 0.000000
# 2 -0.008645 0.021666 0.001459 0.000000 0.000000 0.000000
# 3 -0.012017 0.001459 0.017191 0.000000 0.000000 0.000000
# 4 0.000000 0.000000 0.000000 0.069900 0.000000 0.000000
# 5 0.000000 0.000000 0.000000 0.000000 0.034672 0.000000
# 6 0.000000 0.000000 0.000000 0.000000 0.000000 0.091327
#
#
# Mechanical properties :
#
#
# Convention : Reuss Voigt Hill
#
# Bulk Modulus (GPa) = 41.99682 47.86772 44.93227
# Shear Modulus (GPa) = 16.42260 19.77941 18.10101
#
# Velocity S-wave (km/s) = 2.99198 3.28356 3.14115
# Velocity P-wave (km/s) = 5.90155 6.36147 6.13582
#
# Compressibility (1/GPa) = 0.02381133
#
# Stress axis : x y z
#
# Youngs Moduli (GPa) = 42.80972 46.15532 58.16899
#
# Poissons Ratio (x) = 0.39902 0.69899
# Poissons Ratio (y) = 0.37010 -0.08488
# Poissons Ratio (z) = 0.51442 -0.06735
#
# Static dielectric constant tensor:
#      x y z
#    x 1.640610 0.000000 0.000000 
#    y 0.000000 1.634420 0.000000 
#    z 0.000000 0.000000 1.663210 
# 
# From -- ./inp_files/35514.got.cif
#   From: 2010.05.17/outbox.cif.g08.bks.cpg/sg74_18_cif.got.tgz:35514.got - 2010.06.03 17:57:02.
