data_PCOD9534061
_publ_section_title
;
Structure prediction by ZEFSAII (Michael W. Deem and Ramdas Pophale) SiO2 
 PCOD9534061
Probable space group: I M M A
;
_chemical_formula_sum "Si O2"
_cell_formula_units_Z 80
_cell_length_a 20.304299
_cell_length_b 19.301379
_cell_length_c 9.870877
_cell_angle_alpha 90.000000
_cell_angle_beta 90.000000
_cell_angle_gamma 90.000000
_cell_volume 3868.406274
_symmetry_space_group_name_H-M "I M M A"
_symmetry_group_IT_number 74
_symmetry_cell_setting 'orthorhombic'
loop_
_space_group_symop_operation_xyz
x,y,z
-x,1/2-y,z
x,-y,-z
-x,1/2+y,-z
-x,-y,-z
x,1/2+y,-z
-x,y,z
x,1/2-y,z
1/2+x,1/2+y,1/2+z
1/2-x,-y,1/2+z
1/2+x,1/2-y,1/2-z
1/2-x,y,1/2-z
1/2-x,1/2-y,1/2-z
1/2+x,y,1/2-z
1/2-x,1/2+y,1/2+z
1/2+x,-y,1/2+z
loop_
_atom_site_type_symbol
_atom_site_label
_atom_site_fract_x
_atom_site_fract_y
_atom_site_fract_z
Si Si1 0.642366 0.333052 0.489328
Si Si2 0.000000 0.669845 0.955552
Si Si3 0.809070 0.029487 0.353998
Si Si4 0.000000 0.829571 0.286061
Si Si5 0.707236 0.669597 0.954788
Si Si6 0.637886 0.888731 0.208015
O O1 0.634443 0.250000 0.508919
O O2 0.573565 0.358293 0.421019
O O3 0.714770 0.341540 0.425215
O O4 0.647621 0.367355 0.636997
O O5 0.000000 0.750000 0.910116
O O6 0.000000 0.667461 0.120947
O O7 0.750000 0.025888 0.250000
O O8 0.830168 0.108819 0.374305
O O9 0.785919 0.000000 0.500000
O O10 0.859623 0.971254 0.307076
O O11 0.066372 0.863582 0.336474
O O12 0.000000 0.750000 0.324762
O O13 0.691303 0.750000 0.927546
O O14 0.690357 0.650099 0.110926
#
# Coordination Sequence:
#
# PCOD9534061 Si02
#       6
#    16   8  16   8  16  16
#     4   9  15  25  46  75 105 134 166 210 261 311
#     4   7  12  22  38  68 105 132 157 197 254 308
#     4  10  21  36  53  75 103 137 174 215 260 306
#     4   9  16  26  45  74 106 134 164 211 264 312
#     4  10  19  30  47  72 100 135 177 215 255 305
#     4  10  17  29  48  73 103 135 169 213 265 311
#
# _framework density 20.680350000000001
#
# number of rings (size 3 to 8) (size 9 to 14) (size 15 to 20)
#    0.000    2.600    0.000    6.000    0.000    2.000 
#    0.000    4.500    0.000    1.200    0.000   11.200 
#    0.000   12.800    0.000    1.600    0.000    0.000 
#
# Total GULP energy -222828.758325 kJ/mol
# GULP energy per Si atom -5570.718958 kJ/mol
# Density = 2.063328 g / cm^3
# Si number density = 20.680350 Si / 1000 Ang^3
#
#
#
# Elastic Constant Matrix: (Units=GPa)
#
#
# Indices 1 2 3 4 5 6 
#
# 1 89.6791 51.8958 -9.2705 0.0000 0.0000 0.0000
# 2 51.8958 157.6536 11.7585 0.0000 0.0000 0.0000
# 3 -9.2705 11.7585 23.0483 0.0000 0.0000 0.0000
# 4 0.0000 0.0000 0.0000 9.4432 0.0000 0.0000
# 5 0.0000 0.0000 0.0000 0.0000 3.7775 0.0000
# 6 0.0000 0.0000 0.0000 0.0000 0.0000 16.4025
#
#
#
# Elastic Compliance Matrix: (Units=1/GPa)
#
#
# Indices 1 2 3 4 5 6 
#
# 1 0.015430 -0.005761 0.009146 0.000000 0.000000 0.000000
# 2 -0.005761 0.008745 -0.006779 0.000000 0.000000 0.000000
# 3 0.009146 -0.006779 0.050524 0.000000 0.000000 0.000000
# 4 0.000000 0.000000 0.000000 0.105896 0.000000 0.000000
# 5 0.000000 0.000000 0.000000 0.000000 0.264727 0.000000
# 6 0.000000 0.000000 0.000000 0.000000 0.000000 0.060966
#
#
# Mechanical properties :
#
#
# Convention : Reuss Voigt Hill
#
# Bulk Modulus (GPa) = 14.72529 42.12761 28.42645
# Shear Modulus (GPa) = 9.33332 20.32445 14.82889
#
# Velocity S-wave (km/s) = 2.12672 3.13835 2.68069
# Velocity P-wave (km/s) = 3.62856 5.79201 4.83290
#
# Compressibility (1/GPa) = 0.06791038
#
# Stress axis : x y z
#
# Youngs Moduli (GPa) = 64.80733 114.34916 19.79256
#
# Poissons Ratio (x) = 0.65882 -0.18102
# Poissons Ratio (y) = 0.37338 0.13417
# Poissons Ratio (z) = -0.59271 0.77516
#
# Static dielectric constant tensor:
#      x y z
#    x 1.782650 0.000000 0.000000 
#    y 0.000000 1.747370 0.000000 
#    z 0.000000 0.000000 1.769730 
# 
# From -- ./inp_files/23617.got.cif
#   From: 2010.05.17/outbox.cif.g08.bks.cpg/sg74_12_cif.got.tgz:23617.got - 2010.06.03 17:57:02.
