data_PCOD9534518
_publ_section_title
;
Structure prediction by ZEFSAII (Michael W. Deem and Ramdas Pophale) SiO2 
 PCOD9534518
Probable space group: I M M A
;
_chemical_formula_sum "Si O2"
_cell_formula_units_Z 80
_cell_length_a 24.430843
_cell_length_b 8.533484
_cell_length_c 24.979909
_cell_angle_alpha 90.000000
_cell_angle_beta 90.000000
_cell_angle_gamma 90.000000
_cell_volume 5207.816620
_symmetry_space_group_name_H-M "I M M A"
_symmetry_group_IT_number 74
_symmetry_cell_setting 'orthorhombic'
loop_
_space_group_symop_operation_xyz
x,y,z
-x,1/2-y,z
x,-y,-z
-x,1/2+y,-z
-x,-y,-z
x,1/2+y,-z
-x,y,z
x,1/2-y,z
1/2+x,1/2+y,1/2+z
1/2-x,-y,1/2+z
1/2+x,1/2-y,1/2-z
1/2-x,y,1/2-z
1/2-x,1/2-y,1/2-z
1/2+x,y,1/2-z
1/2-x,1/2+y,1/2+z
1/2+x,-y,1/2+z
loop_
_atom_site_type_symbol
_atom_site_label
_atom_site_fract_x
_atom_site_fract_y
_atom_site_fract_z
Si Si1 0.334295 0.937878 0.236003
Si Si2 0.387135 0.061469 0.942805
Si Si3 0.438413 0.441383 0.831070
Si Si4 0.731923 0.564132 0.669052
Si Si5 0.740995 0.937804 0.057592
O O1 0.334133 0.750000 0.240930
O O2 0.391907 0.989945 0.210967
O O3 0.317548 0.012087 0.292510
O O4 0.286065 0.985112 0.194820
O O5 0.388629 0.250000 0.944032
O O6 0.420264 0.008305 0.890709
O O7 0.323258 0.014498 0.936944
O O8 0.407318 0.000000 0.000000
O O9 0.500000 0.492625 0.818879
O O10 0.437890 0.250000 0.831400
O O11 0.738381 0.750000 0.671611
O O12 0.727619 0.507593 0.608237
O O13 0.743428 0.750000 0.058906
O O14 0.759855 0.000000 0.000000
#
# Coordination Sequence:
#
# PCOD9534518 Si02
#       5
#    16  16  16  16  16
#     4  10  18  31  48  66  88 118 154 192 234 278
#     4   9  17  29  43  61  85 116 153 192 228 264
#     4   9  17  30  47  65  87 117 155 196 234 272
#     4  11  20  30  46  68  92 119 150 190 231 278
#     4  10  18  30  46  68  93 122 152 187 230 273
#
# _framework density 15.361523
#
# number of rings (size 3 to 8) (size 9 to 14) (size 15 to 20)
#    0.000    2.200    2.000    4.200    0.000    1.200 
#    0.000    0.000    0.000    4.800    0.000    0.000 
#    0.000    0.800    0.000    2.200    0.000    3.200 
#
# Total GULP energy -223108.073406 kJ/mol
# GULP energy per Si atom -5577.701835 kJ/mol
# Density = 1.532656 g / cm^3
# Si number density = 15.361523 Si / 1000 Ang^3
#
#
#
# Elastic Constant Matrix: (Units=GPa)
#
#
# Indices 1 2 3 4 5 6 
#
# 1 77.8376 2.4698 58.8686 0.0000 0.0000 0.0000
# 2 2.4698 20.3792 13.0766 0.0000 0.0000 0.0000
# 3 58.8686 13.0766 125.1383 0.0000 0.0000 0.0000
# 4 0.0000 0.0000 0.0000 26.7691 0.0000 0.0000
# 5 0.0000 0.0000 0.0000 0.0000 20.9408 0.0000
# 6 0.0000 0.0000 0.0000 0.0000 0.0000 48.0116
#
#
#
# Elastic Compliance Matrix: (Units=1/GPa)
#
#
# Indices 1 2 3 4 5 6 
#
# 1 0.020230 0.003918 -0.009926 0.000000 0.000000 0.000000
# 2 0.003918 0.053355 -0.007418 0.000000 0.000000 0.000000
# 3 -0.009926 -0.007418 0.013436 0.000000 0.000000 0.000000
# 4 0.000000 0.000000 0.000000 0.037356 0.000000 0.000000
# 5 0.000000 0.000000 0.000000 0.000000 0.047754 0.000000
# 6 0.000000 0.000000 0.000000 0.000000 0.000000 0.020828
#
#
# Mechanical properties :
#
#
# Convention : Reuss Voigt Hill
#
# Bulk Modulus (GPa) = 16.62041 41.35391 28.98716
# Shear Modulus (GPa) = 20.84469 29.07364 24.95917
#
# Velocity S-wave (km/s) = 3.68766 4.35515 4.03523
# Velocity P-wave (km/s) = 5.38283 7.22971 6.37352
#
# Compressibility (1/GPa) = 0.06016700
#
# Stress axis : x y z
#
# Youngs Moduli (GPa) = 49.43119 18.74239 74.42730
#
# Poissons Ratio (x) = -0.07342 0.73878
# Poissons Ratio (y) = -0.19365 0.55213
# Poissons Ratio (z) = 0.49066 0.13904
#
# Static dielectric constant tensor:
#      x y z
#    x 1.500240 0.000000 0.000000 
#    y 0.000000 1.518520 0.000000 
#    z 0.000000 0.000000 1.517630 
# 
# From -- ./inp_files/62567.got.cif
#   From: 2010.05.17/outbox.cif.g08.bks.cpg/sg74_32_cif.got.tgz:62567.got - 2010.06.03 17:57:02.
