data_PCOD9534799
_publ_section_title
;
Structure prediction by ZEFSAII (Michael W. Deem and Ramdas Pophale) SiO2 
 PCOD9534799
Probable space group: I M M A
;
_chemical_formula_sum "Si O2"
_cell_formula_units_Z 112
_cell_length_a 14.353031
_cell_length_b 29.493393
_cell_length_c 11.391350
_cell_angle_alpha 90.000000
_cell_angle_beta 90.000000
_cell_angle_gamma 90.000000
_cell_volume 4822.181543
_symmetry_space_group_name_H-M "I M M A"
_symmetry_group_IT_number 74
_symmetry_cell_setting 'orthorhombic'
loop_
_space_group_symop_operation_xyz
x,y,z
-x,1/2-y,z
x,-y,-z
-x,1/2+y,-z
-x,-y,-z
x,1/2+y,-z
-x,y,z
x,1/2-y,z
1/2+x,1/2+y,1/2+z
1/2-x,-y,1/2+z
1/2+x,1/2-y,1/2-z
1/2-x,y,1/2-z
1/2-x,1/2-y,1/2-z
1/2+x,y,1/2-z
1/2-x,1/2+y,1/2+z
1/2+x,-y,1/2+z
loop_
_atom_site_type_symbol
_atom_site_label
_atom_site_fract_x
_atom_site_fract_y
_atom_site_fract_z
Si Si1 0.392413 0.050172 0.018695
Si Si2 0.386422 0.394525 0.244529
Si Si3 0.639495 0.936916 0.242981
Si Si4 0.892908 0.024129 0.112092
Si Si5 0.293696 0.303768 0.911677
Si Si6 0.887337 0.699218 0.664434
Si Si7 0.394076 0.340955 0.678862
O O1 0.500000 0.042587 0.051872
O O2 0.388762 0.072019 0.890607
O O3 0.357114 0.082644 0.120996
O O4 0.350819 0.000000 0.000000
O O5 0.500000 0.395304 0.248736
O O6 0.351655 0.428921 0.343577
O O7 0.359773 0.342147 0.248521
O O8 0.750000 0.936616 0.250000
O O9 0.604431 0.895657 0.322049
O O10 0.607806 0.986381 0.285618
O O11 0.000000 0.034090 0.081118
O O12 0.849268 0.000000 0.000000
O O13 0.288769 0.250000 0.887810
O O14 0.355888 0.325885 0.807828
O O15 0.188843 0.323512 0.904763
O O16 0.341661 0.309386 0.037574
O O17 0.862794 0.750000 0.704668
O O18 0.000000 0.697775 0.650197
O O19 0.500000 0.324504 0.658342
#
# Coordination Sequence:
#
# PCOD9534799 Si02
#       7
#    16  16  16  16  16  16  16
#     4  10  18  31  54  80 108 148 200 255 307 368
#     4   9  17  31  56  86 117 157 207 258 317 381
#     4  12  23  36  53  80 117 155 202 256 310 379
#     4  10  21  39  59  81 116 163 208 253 311 387
#     4  10  20  34  51  82 118 158 213 263 320 389
#     4   9  17  30  52  85 126 165 203 261 329 381
#     4  11  21  34  51  75 113 162 210 263 323 385
#
# _framework density 23.226002999999999
#
# number of rings (size 3 to 8) (size 9 to 14) (size 15 to 20)
#    0.000    1.857    2.857    3.429    0.000    3.429 
#    0.000    0.000    0.000    0.000    0.000    2.000 
#    0.000    9.714    0.000    0.571    0.000    0.143 
#
# Total GULP energy -312987.939253 kJ/mol
# GULP energy per Si atom -5589.070344 kJ/mol
# Density = 2.317314 g / cm^3
# Si number density = 23.226003 Si / 1000 Ang^3
#
#
#
# Elastic Constant Matrix: (Units=GPa)
#
#
# Indices 1 2 3 4 5 6 
#
# 1 143.1362 26.2820 4.3874 0.0001 0.0000 0.0000
# 2 26.2820 185.2236 48.3386 0.0001 -0.0001 -0.0001
# 3 4.3874 48.3386 67.4474 0.0004 -0.0005 -0.0005
# 4 0.0001 0.0001 0.0004 32.3774 -0.0001 -0.0001
# 5 0.0000 -0.0001 -0.0005 -0.0001 21.0472 0.0001
# 6 0.0000 -0.0001 -0.0005 -0.0001 0.0001 24.1549
#
#
#
# Elastic Compliance Matrix: (Units=1/GPa)
#
#
# Indices 1 2 3 4 5 6 
#
# 1 0.007179 -0.001103 0.000324 0.000000 0.000000 0.000000
# 2 -0.001103 0.006810 -0.004809 0.000000 0.000000 0.000000
# 3 0.000324 -0.004809 0.018252 0.000000 0.000000 0.000000
# 4 0.000000 0.000000 0.000000 0.030886 0.000000 0.000000
# 5 0.000000 0.000000 0.000000 0.000000 0.047512 0.000000
# 6 0.000000 0.000000 0.000000 0.000000 0.000000 0.041399
#
#
# Mechanical properties :
#
#
# Convention : Reuss Voigt Hill
#
# Bulk Modulus (GPa) = 47.47431 61.53592 54.50512
# Shear Modulus (GPa) = 29.37069 36.63584 33.00326
#
# Velocity S-wave (km/s) = 3.55992 3.97591 3.77365
# Velocity P-wave (km/s) = 6.11408 6.90138 6.51963
#
# Compressibility (1/GPa) = 0.02106402
#
# Stress axis : x y z
#
# Youngs Moduli (GPa) = 139.29552 146.83241 54.78845
#
# Poissons Ratio (x) = 0.16197 -0.01773
# Poissons Ratio (y) = 0.15366 0.26349
# Poissons Ratio (z) = -0.04507 0.70615
#
# Static dielectric constant tensor:
#      x y z
#    x 1.857890 0.000000 0.000000 
#    y 0.000000 1.834650 0.000000 
#    z 0.000000 0.000000 1.886880 
# 
# From -- ./inp_files/21147.got.cif
#   From: 2010.05.17/outbox.cif.g08.bks.cpg/sg74_11_cif.got.tgz:21147.got - 2010.06.03 17:57:02.
