data_PCOD9534752
_publ_section_title
;
Structure prediction by ZEFSAII (Michael W. Deem and Ramdas Pophale) SiO2 
 PCOD9534752
Probable space group: I M M A
;
_chemical_formula_sum "Si O2"
_cell_formula_units_Z 128
_cell_length_a 27.910407
_cell_length_b 22.822115
_cell_length_c 11.667447
_cell_angle_alpha 90.000000
_cell_angle_beta 90.000000
_cell_angle_gamma 90.000000
_cell_volume 7431.866432
_symmetry_space_group_name_H-M "I M M A"
_symmetry_group_IT_number 74
_symmetry_cell_setting 'orthorhombic'
loop_
_space_group_symop_operation_xyz
x,y,z
-x,1/2-y,z
x,-y,-z
-x,1/2+y,-z
-x,-y,-z
x,1/2+y,-z
-x,y,z
x,1/2-y,z
1/2+x,1/2+y,1/2+z
1/2-x,-y,1/2+z
1/2+x,1/2-y,1/2-z
1/2-x,y,1/2-z
1/2-x,1/2-y,1/2-z
1/2+x,y,1/2-z
1/2-x,1/2+y,1/2+z
1/2+x,-y,1/2+z
loop_
_atom_site_type_symbol
_atom_site_label
_atom_site_fract_x
_atom_site_fract_y
_atom_site_fract_z
Si Si1 0.725914 0.934259 0.454259
Si Si2 0.669610 0.572043 0.120423
Si Si3 0.554227 0.099645 0.269375
Si Si4 0.053962 0.474983 0.884904
Si Si5 0.612131 0.816225 0.563295
Si Si6 0.853917 0.064136 0.355274
Si Si7 0.132235 0.884004 0.163544
Si Si8 0.793245 0.860711 0.822062
O O1 0.772827 0.927266 0.376656
O O2 0.676955 0.919885 0.389387
O O3 0.727517 0.892292 0.565179
O O4 0.725692 0.000000 0.500000
O O5 0.649805 0.506913 0.154407
O O6 0.647699 0.621294 0.204025
O O7 0.658167 0.578837 0.986230
O O8 0.500000 0.118920 0.239844
O O9 0.576014 0.138500 0.373577
O O10 0.595123 0.094522 0.173135
O O11 0.551088 0.031967 0.307241
O O12 0.084926 0.423368 0.835938
O O13 0.000000 0.454814 0.913198
O O14 0.077903 0.500000 0.000000
O O15 0.594366 0.750000 0.571089
O O16 0.622083 0.833942 0.430764
O O17 0.662555 0.822306 0.631594
O O18 0.817122 0.091160 0.262851
O O19 0.750000 0.832310 0.750000
#
# Coordination Sequence:
#
# PCOD9534752 Si02
#       8
#    16  16  16  16  16  16  16  16
#     4  11  19  27  48  79 111 143 181 218 262 318
#     4  11  19  31  46  76 117 153 174 206 255 321
#     4  10  20  36  58  79 107 137 168 220 274 322
#     4  10  18  31  51  78 105 134 169 208 271 334
#     4  10  23  37  54  79 100 132 181 229 271 309
#     4  10  19  32  48  80 116 141 176 216 256 325
#     4  11  21  32  51  74 111 145 177 217 266 324
#     4  10  18  33  53  73 103 139 178 224 270 310
#
# _framework density 17.223130000000001
#
# number of rings (size 3 to 8) (size 9 to 14) (size 15 to 20)
#    0.000    1.625    5.000    1.500    1.750    0.500 
#    0.000    1.875    0.000    9.000    0.000    0.000 
#    0.000    0.000    0.000    0.000    0.000    0.000 
#
# Total GULP energy -356464.703310 kJ/mol
# GULP energy per Si atom -5569.760989 kJ/mol
# Density = 1.718393 g / cm^3
# Si number density = 17.223130 Si / 1000 Ang^3
#
#
#
# Elastic Constant Matrix: (Units=GPa)
#
#
# Indices 1 2 3 4 5 6 
#
# 1 91.0744 13.7769 17.1355 0.0000 0.0000 0.0000
# 2 13.7769 42.5880 12.2462 0.0000 0.0000 0.0000
# 3 17.1355 12.2462 77.6584 0.0000 0.0000 0.0000
# 4 0.0000 0.0000 0.0000 1.4505 0.0000 0.0000
# 5 0.0000 0.0000 0.0000 0.0000 21.9724 0.0000
# 6 0.0000 0.0000 0.0000 0.0000 0.0000 22.3266
#
#
#
# Elastic Compliance Matrix: (Units=1/GPa)
#
#
# Indices 1 2 3 4 5 6 
#
# 1 0.011866 -0.003232 -0.002108 0.000000 0.000000 0.000000
# 2 -0.003232 0.025477 -0.003304 0.000000 0.000000 0.000000
# 3 -0.002108 -0.003304 0.013863 0.000000 0.000000 0.000000
# 4 0.000000 0.000000 0.000000 0.689412 0.000000 0.000000
# 5 0.000000 0.000000 0.000000 0.000000 0.045512 0.000000
# 6 0.000000 0.000000 0.000000 0.000000 0.000000 0.044790
#
#
# Mechanical properties :
#
#
# Convention : Reuss Voigt Hill
#
# Bulk Modulus (GPa) = 29.48502 33.07089 31.27795
# Shear Modulus (GPa) = 5.81724 20.36071 13.08897
#
# Velocity S-wave (km/s) = 1.83981 3.44200 2.75974
# Velocity P-wave (km/s) = 4.65508 5.91943 5.32492
#
# Compressibility (1/GPa) = 0.03391553
#
# Stress axis : x y z
#
# Youngs Moduli (GPa) = 84.27673 39.25178 72.13336
#
# Poissons Ratio (x) = 0.12687 0.15209
# Poissons Ratio (y) = 0.27240 0.23835
# Poissons Ratio (z) = 0.17770 0.12970
#
# Static dielectric constant tensor:
#      x y z
#    x 1.623030 0.000000 0.000000 
#    y 0.000000 1.582160 0.000000 
#    z 0.000000 0.000000 1.615810 
# 
# From -- ./inp_files/26599.got.cif
#   From: 2010.05.17/outbox.cif.g08.bks.cpg/sg74_14_cif.got.tgz:26599.got - 2010.06.03 17:57:02.
