data_PCOD9534753
_publ_section_title
;
Structure prediction by ZEFSAII (Michael W. Deem and Ramdas Pophale) SiO2 
 PCOD9534753
Probable space group: I M M A
;
_chemical_formula_sum "Si O2"
_cell_formula_units_Z 80
_cell_length_a 23.019421
_cell_length_b 21.055416
_cell_length_c 9.008617
_cell_angle_alpha 90.000000
_cell_angle_beta 90.000000
_cell_angle_gamma 90.000000
_cell_volume 4366.327885
_symmetry_space_group_name_H-M "I M M A"
_symmetry_group_IT_number 74
_symmetry_cell_setting 'orthorhombic'
loop_
_space_group_symop_operation_xyz
x,y,z
-x,1/2-y,z
x,-y,-z
-x,1/2+y,-z
-x,-y,-z
x,1/2+y,-z
-x,y,z
x,1/2-y,z
1/2+x,1/2+y,1/2+z
1/2-x,-y,1/2+z
1/2+x,1/2-y,1/2-z
1/2-x,y,1/2-z
1/2-x,1/2-y,1/2-z
1/2+x,y,1/2-z
1/2-x,1/2+y,1/2+z
1/2+x,-y,1/2+z
loop_
_atom_site_type_symbol
_atom_site_label
_atom_site_fract_x
_atom_site_fract_y
_atom_site_fract_z
Si Si1 0.062327 0.326108 0.115755
Si Si2 0.250000 0.120437 0.250000
Si Si3 0.663587 0.431039 0.003885
Si Si4 0.932048 0.675054 0.528323
Si Si5 0.821389 0.324539 0.982560
Si Si6 0.750000 0.400652 0.750000
O O1 0.061455 0.250000 0.091263
O O2 0.069733 0.332744 0.292449
O O3 0.115885 0.352039 0.024463
O O4 0.000000 0.352735 0.071942
O O5 0.200278 0.083232 0.344500
O O6 0.218397 0.162491 0.125945
O O7 0.711946 0.435596 0.873846
O O8 0.633735 0.500000 0.000000
O O9 0.617339 0.374179 0.974781
O O10 0.919422 0.750000 0.495279
O O11 0.000000 0.663292 0.483648
O O12 0.825124 0.250000 0.956280
O O13 0.794026 0.357861 0.842608
#
# Coordination Sequence:
#
# PCOD9534753 Si02
#       6
#    16   8  16  16  16   8
#     4   8  14  27  50  78 105 135 176 223 267 316
#     4  10  20  32  52  76 103 148 197 228 267 328
#     4  11  22  38  57  79 111 154 193 231 277 331
#     4   9  18  34  58  86 111 138 184 240 280 322
#     4  10  18  31  51  79 109 142 179 227 281 334
#     4  10  24  36  48  78 117 148 181 232 283 328
#
# _framework density 18.322030999999999
#
# number of rings (size 3 to 8) (size 9 to 14) (size 15 to 20)
#    0.000    2.400    2.000    2.400    0.000    4.400 
#    0.000    1.000    0.000    2.400    0.000    2.800 
#    0.000    0.000    0.000    0.000    0.000    0.000 
#
# Total GULP energy -222695.736381 kJ/mol
# GULP energy per Si atom -5567.393410 kJ/mol
# Density = 1.828033 g / cm^3
# Si number density = 18.322031 Si / 1000 Ang^3
#
#
#
# Elastic Constant Matrix: (Units=GPa)
#
#
# Indices 1 2 3 4 5 6 
#
# 1 89.2080 27.1343 1.9149 0.0000 0.0000 0.0000
# 2 27.1343 67.3392 -3.5467 0.0000 0.0000 0.0000
# 3 1.9149 -3.5467 44.4299 0.0000 0.0000 0.0000
# 4 0.0000 0.0000 0.0000 -0.5946 0.0000 0.0000
# 5 0.0000 0.0000 0.0000 0.0000 26.9760 0.0000
# 6 0.0000 0.0000 0.0000 0.0000 0.0000 15.4785
#
#
#
# Elastic Compliance Matrix: (Units=1/GPa)
#
#
# Indices 1 2 3 4 5 6 
#
# 1 0.012817 -0.005216 -0.000969 0.000000 0.000000 0.000000
# 2 -0.005216 0.017035 0.001585 0.000000 0.000000 0.000000
# 3 -0.000969 0.001585 0.022676 0.000000 0.000000 0.000000
# 4 0.000000 0.000000 0.000000 -1.681874 0.000000 0.000000
# 5 0.000000 0.000000 0.000000 0.000000 0.037070 0.000000
# 6 0.000000 0.000000 0.000000 0.000000 0.000000 0.064606
#
#
# Mechanical properties :
#
#
# Convention : Reuss Voigt Hill
#
# Bulk Modulus (GPa) = 23.07953 27.99803 25.53878
# Shear Modulus (GPa) = -3.32441 20.07029 8.37294
#
# Velocity S-wave (km/s) = -1.34847 3.31330 2.14005
# Velocity P-wave (km/s) = 3.19366 5.47280 4.48057
#
# Compressibility (1/GPa) = 0.04332844
#
# Stress axis : x y z
#
# Youngs Moduli (GPa) = 78.02149 58.70172 44.10025
#
# Poissons Ratio (x) = 0.30617 0.04272
# Poissons Ratio (y) = 0.40693 -0.06988
# Poissons Ratio (z) = 0.07558 -0.09302
#
# Static dielectric constant tensor:
#      x y z
#    x 1.686600 0.000000 0.000000 
#    y 0.000000 1.621740 0.000000 
#    z 0.000000 0.000000 1.619020 
# 
# From -- ./inp_files/13848.got.cif
#   From: 2010.05.17/outbox.cif.g08.bks.cpg/sg74_7_cif.got.tgz:13848.got - 2010.06.03 17:57:02.
