data_PCOD9534811
_publ_section_title
;
Structure prediction by ZEFSAII (Michael W. Deem and Ramdas Pophale) SiO2 
 PCOD9534811
Probable space group: I M M A
;
_chemical_formula_sum "Si O2"
_cell_formula_units_Z 44
_cell_length_a 7.852966
_cell_length_b 13.669785
_cell_length_c 19.126514
_cell_angle_alpha 90.000000
_cell_angle_beta 90.000000
_cell_angle_gamma 90.000000
_cell_volume 2053.199850
_symmetry_space_group_name_H-M "I M M A"
_symmetry_group_IT_number 74
_symmetry_cell_setting 'orthorhombic'
loop_
_space_group_symop_operation_xyz
x,y,z
-x,1/2-y,z
x,-y,-z
-x,1/2+y,-z
-x,-y,-z
x,1/2+y,-z
-x,y,z
x,1/2-y,z
1/2+x,1/2+y,1/2+z
1/2-x,-y,1/2+z
1/2+x,1/2-y,1/2-z
1/2-x,y,1/2-z
1/2-x,1/2-y,1/2-z
1/2+x,y,1/2-z
1/2-x,1/2+y,1/2+z
1/2+x,-y,1/2+z
loop_
_atom_site_type_symbol
_atom_site_label
_atom_site_fract_x
_atom_site_fract_y
_atom_site_fract_z
Si Si1 0.301200 0.963714 0.831337
Si Si2 0.500000 0.750000 0.035283
Si Si3 0.798350 0.750000 0.832274
Si Si4 0.191247 0.405962 0.950623
O O1 0.500000 0.983706 0.837302
O O2 0.250000 0.962541 0.750000
O O3 0.269392 0.853257 0.860437
O O4 0.202650 0.046403 0.873319
O O5 0.347718 0.665967 0.037796
O O6 0.750000 0.750000 0.750000
O O7 0.000000 0.750000 0.838673
O O8 0.000000 0.365671 0.962049
O O9 0.211112 0.500000 0.000000
#
# Coordination Sequence:
#
# PCOD9534811 Si02
#       4
#    16   4   8  16
#     4  11  21  38  64  95 135 176 220 277 337 400
#     4  12  24  46  70 100 134 178 226 284 326 408
#     4  10  18  31  54  90 127 165 211 264 329 399
#     4  11  25  46  71  99 134 177 225 278 337 401
#
# _framework density 21.429966
#
# number of rings (size 3 to 8) (size 9 to 14) (size 15 to 20)
#    0.000    1.091    1.818    8.182    0.000    1.455 
#    0.000    2.727    0.000    0.000    0.000    0.000 
#    0.000    0.000    0.000    0.000    0.000    0.000 
#
# Total GULP energy -122481.633477 kJ/mol
# GULP energy per Si atom -5567.346976 kJ/mol
# Density = 2.138119 g / cm^3
# Si number density = 21.429966 Si / 1000 Ang^3
#
#
#
# Elastic Constant Matrix: (Units=GPa)
#
#
# Indices 1 2 3 4 5 6 
#
# 1 232.3693 88.6140 20.2399 0.0000 0.0000 0.0000
# 2 88.6140 129.4061 30.7117 0.0000 0.0000 0.0000
# 3 20.2399 30.7117 57.1240 0.0000 0.0000 0.0000
# 4 0.0000 0.0000 0.0000 -14.6839 0.0000 0.0000
# 5 0.0000 0.0000 0.0000 0.0000 15.3955 0.0000
# 6 0.0000 0.0000 0.0000 0.0000 0.0000 37.0715
#
#
#
# Elastic Compliance Matrix: (Units=1/GPa)
#
#
# Indices 1 2 3 4 5 6 
#
# 1 0.005825 -0.004011 0.000092 0.000000 0.000000 0.000000
# 2 -0.004011 0.011619 -0.004826 0.000000 0.000000 0.000000
# 3 0.000092 -0.004826 0.020068 0.000000 0.000000 0.000000
# 4 0.000000 0.000000 0.000000 -0.068102 0.000000 0.000000
# 5 0.000000 0.000000 0.000000 0.000000 0.064954 0.000000
# 6 0.000000 0.000000 0.000000 0.000000 0.000000 0.026975
#
#
# Mechanical properties :
#
#
# Convention : Reuss Voigt Hill
#
# Bulk Modulus (GPa) = 49.94122 77.55895 63.75008
# Shear Modulus (GPa) = 58.47833 26.17887 42.32860
#
# Velocity S-wave (km/s) = 5.22947 3.49893 4.44915
# Velocity P-wave (km/s) = 7.73422 7.25216 7.49706
#
# Compressibility (1/GPa) = 0.02002354
#
# Stress axis : x y z
#
# Youngs Moduli (GPa) = 171.67607 86.06334 49.83160
#
# Poissons Ratio (x) = 0.34517 -0.00461
# Poissons Ratio (y) = 0.68854 0.24048
# Poissons Ratio (z) = -0.01586 0.41533
#
# Static dielectric constant tensor:
#      x y z
#    x 1.748990 0.000000 0.000000 
#    y 0.000000 1.802030 0.000000 
#    z 0.000000 0.000000 1.861290 
# 
# From -- ./inp_files/38540.got.cif
#   From: 2010.05.17/outbox.cif.g08.bks.cpg/sg74_20_cif.got.tgz:38540.got - 2010.06.03 17:57:02.
