data_PCOD9534771
_publ_section_title
;
Structure prediction by ZEFSAII (Michael W. Deem and Ramdas Pophale) SiO2 
 PCOD9534771
Probable space group: I M M A
;
_chemical_formula_sum "Si O2"
_cell_formula_units_Z 96
_cell_length_a 21.998846
_cell_length_b 14.516453
_cell_length_c 14.805816
_cell_angle_alpha 90.000000
_cell_angle_beta 90.000000
_cell_angle_gamma 90.000000
_cell_volume 4728.166479
_symmetry_space_group_name_H-M "I M M A"
_symmetry_group_IT_number 74
_symmetry_cell_setting 'orthorhombic'
loop_
_space_group_symop_operation_xyz
x,y,z
-x,1/2-y,z
x,-y,-z
-x,1/2+y,-z
-x,-y,-z
x,1/2+y,-z
-x,y,z
x,1/2-y,z
1/2+x,1/2+y,1/2+z
1/2-x,-y,1/2+z
1/2+x,1/2-y,1/2-z
1/2-x,y,1/2-z
1/2-x,1/2-y,1/2-z
1/2+x,y,1/2-z
1/2-x,1/2+y,1/2+z
1/2+x,-y,1/2+z
loop_
_atom_site_type_symbol
_atom_site_label
_atom_site_fract_x
_atom_site_fract_y
_atom_site_fract_z
Si Si1 0.698052 0.143661 0.186118
Si Si2 0.934964 0.362340 0.759288
Si Si3 0.397598 0.138604 0.939197
Si Si4 0.695750 0.645023 0.311039
Si Si5 0.736486 0.897723 0.015150
Si Si6 0.566317 0.637199 0.860445
O O1 0.690634 0.250000 0.215137
O O2 0.750000 0.102327 0.250000
O O3 0.629435 0.104036 0.184403
O O4 0.722879 0.143483 0.083258
O O5 0.935958 0.250000 0.766734
O O6 0.930991 0.385089 0.652767
O O7 0.871598 0.395889 0.801910
O O8 0.000000 0.395447 0.795906
O O9 0.391533 0.250000 0.941301
O O10 0.329733 0.099024 0.938125
O O11 0.428190 0.111821 0.033516
O O12 0.689326 0.750000 0.276072
O O13 0.750000 0.603730 0.250000
O O14 0.718798 0.647897 0.413609
O O15 0.759634 0.000000 0.000000
O O16 0.500000 0.608057 0.825450
O O17 0.567581 0.750000 0.857375
#
# Coordination Sequence:
#
# PCOD9534771 Si02
#       6
#    16  16  16  16  16  16
#     4   9  18  33  51  69  91 124 165 207 246 280
#     4   9  16  26  47  78 105 127 156 198 248 301
#     4   9  15  27  46  71 101 128 156 190 245 304
#     4  10  18  31  52  77 102 129 163 203 250 298
#     4  11  21  31  47  73  99 134 167 204 243 290
#     4   8  13  22  42  70  95 117 146 190 241 291
#
# _framework density 20.303853
#
# number of rings (size 3 to 8) (size 9 to 14) (size 15 to 20)
#    0.000    2.667    1.667    3.000    0.000    2.667 
#    0.000    0.000    0.000   14.000    0.000    4.667 
#    0.000    0.000    0.000    0.000    0.000    0.000 
#
# Total GULP energy -267567.336168 kJ/mol
# GULP energy per Si atom -5574.319504 kJ/mol
# Density = 2.025764 g / cm^3
# Si number density = 20.303853 Si / 1000 Ang^3
#
#
#
# Elastic Constant Matrix: (Units=GPa)
#
#
# Indices 1 2 3 4 5 6 
#
# 1 219.6106 4.9293 69.9185 0.0000 0.0000 0.0000
# 2 4.9293 47.1280 -3.4532 0.0000 0.0000 0.0000
# 3 69.9185 -3.4532 55.5272 0.0000 0.0000 0.0000
# 4 0.0000 0.0000 0.0000 -51.9465 0.0000 0.0000
# 5 0.0000 0.0000 0.0000 0.0000 25.6165 0.0000
# 6 0.0000 0.0000 0.0000 0.0000 0.0000 -3.7649
#
#
#
# Elastic Compliance Matrix: (Units=1/GPa)
#
#
# Indices 1 2 3 4 5 6 
#
# 1 0.007708 -0.001524 -0.009800 0.000000 0.000000 0.000000
# 2 -0.001524 0.021617 0.003264 0.000000 0.000000 0.000000
# 3 -0.009800 0.003264 0.030553 0.000000 0.000000 0.000000
# 4 0.000000 0.000000 0.000000 -0.019251 0.000000 0.000000
# 5 0.000000 0.000000 0.000000 0.000000 0.039037 0.000000
# 6 0.000000 0.000000 0.000000 0.000000 0.000000 -0.265611
#
#
# Mechanical properties :
#
#
# Convention : Reuss Voigt Hill
#
# Bulk Modulus (GPa) = 22.85404 51.67279 37.26341
# Shear Modulus (GPa) = -32.20843 10.70576 -10.75134
#
# Velocity S-wave (km/s) = -3.98719 2.29874 -2.30363
# Velocity P-wave (km/s) = 3.14903 5.70531 3.36409
#
# Compressibility (1/GPa) = 0.04375593
#
# Stress axis : x y z
#
# Youngs Moduli (GPa) = 129.73617 46.25907 32.73035
#
# Poissons Ratio (x) = 0.07051 0.32077
# Poissons Ratio (y) = 0.19776 -0.10682
# Poissons Ratio (z) = 1.27147 -0.15098
#
# Static dielectric constant tensor:
#      x y z
#    x 1.768480 0.000000 0.000000 
#    y 0.000000 1.765080 0.000000 
#    z 0.000000 0.000000 1.700060 
# 
# From -- ./inp_files/35614.got.cif
#   From: 2010.05.17/outbox.cif.g08.bks.cpg/sg74_18_cif.got.tgz:35614.got - 2010.06.03 17:57:02.
