data_PCOD9534305
_publ_section_title
;
Structure prediction by ZEFSAII (Michael W. Deem and Ramdas Pophale) SiO2 
 PCOD9534305
Probable space group: I M M A
;
_chemical_formula_sum "Si O2"
_cell_formula_units_Z 104
_cell_length_a 7.409529
_cell_length_b 27.265523
_cell_length_c 24.607670
_cell_angle_alpha 90.000000
_cell_angle_beta 90.000000
_cell_angle_gamma 90.000000
_cell_volume 4971.356740
_symmetry_space_group_name_H-M "I M M A"
_symmetry_group_IT_number 74
_symmetry_cell_setting 'orthorhombic'
loop_
_space_group_symop_operation_xyz
x,y,z
-x,1/2-y,z
x,-y,-z
-x,1/2+y,-z
-x,-y,-z
x,1/2+y,-z
-x,y,z
x,1/2-y,z
1/2+x,1/2+y,1/2+z
1/2-x,-y,1/2+z
1/2+x,1/2-y,1/2-z
1/2-x,y,1/2-z
1/2-x,1/2-y,1/2-z
1/2+x,y,1/2-z
1/2-x,1/2+y,1/2+z
1/2+x,-y,1/2+z
loop_
_atom_site_type_symbol
_atom_site_label
_atom_site_fract_x
_atom_site_fract_y
_atom_site_fract_z
Si Si1 0.279958 0.192591 0.496061
Si Si2 0.784190 0.930079 0.188187
Si Si3 0.285412 0.195564 0.307944
Si Si4 0.216408 0.458334 0.187132
Si Si5 0.220675 0.659018 0.116620
Si Si6 0.720300 0.377176 0.398628
Si Si7 0.214866 0.250000 0.813207
O O1 0.500000 0.194267 0.493591
O O2 0.223911 0.250000 0.484763
O O3 0.225686 0.175733 0.556419
O O4 0.224319 0.148096 0.455533
O O5 0.750000 0.912302 0.250000
O O6 0.718662 0.892580 0.142196
O O7 0.000000 0.932866 0.182477
O O8 0.714350 0.985741 0.183663
O O9 0.500000 0.198839 0.314483
O O10 0.208323 0.250000 0.307030
O O11 0.250000 0.172024 0.250000
O O12 0.218226 0.164438 0.356875
O O13 0.250000 0.441585 0.250000
O O14 0.278868 0.425859 0.135162
O O15 0.000000 0.458713 0.182804
O O16 0.282119 0.701293 0.157632
O O17 0.000000 0.657662 0.115915
O O18 0.500000 0.380354 0.401165
O O19 0.250000 0.250000 0.750000
O O20 0.000000 0.250000 0.821523
#
# Coordination Sequence:
#
# PCOD9534305 Si02
#       7
#    16  16  16  16  16  16   8
#     4   9  15  25  41  61  87 118 146 176 216 258
#     4   9  17  29  45  65  90 116 141 173 215 260
#     4   9  16  25  37  56  80 103 130 170 215 254
#     4   9  17  29  44  64  89 115 143 178 218 258
#     4   9  16  27  42  63  90 115 142 176 213 254
#     4   9  16  25  39  59  83 110 143 178 211 250
#     4  10  18  28  44  68  92 112 139 176 214 256
#
# _framework density 20.919841999999999
#
# number of rings (size 3 to 8) (size 9 to 14) (size 15 to 20)
#    0.000    2.923    0.769    1.385    0.000    1.846 
#    0.000    0.769    0.000    4.615    0.000    4.308 
#    0.000    4.923    0.000    0.000    0.000    0.000 
#
# Total GULP energy -289594.897149 kJ/mol
# GULP energy per Si atom -5569.132637 kJ/mol
# Density = 2.087223 g / cm^3
# Si number density = 20.919842 Si / 1000 Ang^3
#
#
#
# Elastic Constant Matrix: (Units=GPa)
#
#
# Indices 1 2 3 4 5 6 
#
# 1 68.7745 5.0909 -3.4347 0.0000 0.0000 0.0000
# 2 5.0909 138.8328 80.4257 0.0000 0.0000 0.0000
# 3 -3.4347 80.4257 161.7948 0.0000 0.0000 0.0000
# 4 0.0000 0.0000 0.0000 40.0774 0.0000 0.0000
# 5 0.0000 0.0000 0.0000 0.0000 13.9996 0.0000
# 6 0.0000 0.0000 0.0000 0.0000 0.0000 -1.8877
#
#
#
# Elastic Compliance Matrix: (Units=1/GPa)
#
#
# Indices 1 2 3 4 5 6 
#
# 1 0.014655 -0.001008 0.000812 0.000000 0.000000 0.000000
# 2 -0.001008 0.010185 -0.005084 0.000000 0.000000 0.000000
# 3 0.000812 -0.005084 0.008725 0.000000 0.000000 0.000000
# 4 0.000000 0.000000 0.000000 0.024952 0.000000 0.000000
# 5 0.000000 0.000000 0.000000 0.000000 0.071431 0.000000
# 6 0.000000 0.000000 0.000000 0.000000 0.000000 -0.529753
#
#
# Mechanical properties :
#
#
# Convention : Reuss Voigt Hill
#
# Bulk Modulus (GPa) = 43.46737 59.28512 51.37624
# Shear Modulus (GPa) = -13.10355 29.59254 8.24450
#
# Velocity S-wave (km/s) = -2.50545 3.76515 1.98735
# Velocity P-wave (km/s) = 3.52894 6.87769 5.46608
#
# Compressibility (1/GPa) = 0.02300576
#
# Stress axis : x y z
#
# Youngs Moduli (GPa) = 68.23402 98.18163 114.60999
#
# Poissons Ratio (x) = 0.09895 -0.09308
# Poissons Ratio (y) = 0.06877 0.58271
# Poissons Ratio (z) = -0.05541 0.49919
#
# Static dielectric constant tensor:
#      x y z
#    x 1.831650 0.000000 0.000000 
#    y 0.000000 1.782830 0.000000 
#    z 0.000000 0.000000 1.716820 
# 
# From -- ./inp_files/57586.got.cif
#   From: 2010.05.17/outbox.cif.g08.bks.cpg/sg74_29_cif.got.tgz:57586.got - 2010.06.03 17:57:02.
