data_PCOD9534056
_publ_section_title
;
Structure prediction by ZEFSAII (Michael W. Deem and Ramdas Pophale) SiO2 
 PCOD9534056
Probable space group: I M M A
;
_chemical_formula_sum "Si O2"
_cell_formula_units_Z 112
_cell_length_a 14.762870
_cell_length_b 14.079099
_cell_length_c 31.401517
_cell_angle_alpha 90.000000
_cell_angle_beta 90.000000
_cell_angle_gamma 90.000000
_cell_volume 6526.739624
_symmetry_space_group_name_H-M "I M M A"
_symmetry_group_IT_number 74
_symmetry_cell_setting 'orthorhombic'
loop_
_space_group_symop_operation_xyz
x,y,z
-x,1/2-y,z
x,-y,-z
-x,1/2+y,-z
-x,-y,-z
x,1/2+y,-z
-x,y,z
x,1/2-y,z
1/2+x,1/2+y,1/2+z
1/2-x,-y,1/2+z
1/2+x,1/2-y,1/2-z
1/2-x,y,1/2-z
1/2-x,1/2-y,1/2-z
1/2+x,y,1/2-z
1/2-x,1/2+y,1/2+z
1/2+x,-y,1/2+z
loop_
_atom_site_type_symbol
_atom_site_label
_atom_site_fract_x
_atom_site_fract_y
_atom_site_fract_z
Si Si1 0.105649 0.862091 0.724037
Si Si2 0.143656 0.642213 0.240284
Si Si3 0.109131 0.644933 0.473906
Si Si4 0.397248 0.040060 0.313371
Si Si5 0.710981 0.540721 0.852424
Si Si6 0.600511 0.360084 0.837959
Si Si7 0.608909 0.942129 0.935109
O O1 0.118191 0.750000 0.719535
O O2 0.123022 0.892951 0.772576
O O3 0.167366 0.916536 0.690518
O O4 0.000000 0.885698 0.715240
O O5 0.131138 0.750000 0.225011
O O6 0.250000 0.627275 0.250000
O O7 0.109929 0.564867 0.207279
O O8 0.098558 0.633373 0.286590
O O9 0.143314 0.750000 0.461688
O O10 0.134645 0.551174 0.447367
O O11 0.129210 0.620935 0.523288
O O12 0.000000 0.647822 0.470718
O O13 0.500000 0.057933 0.327738
O O14 0.318354 0.050268 0.347851
O O15 0.677260 0.431517 0.852932
O O16 0.664402 0.587006 0.893517
O O17 0.500000 0.386629 0.854354
O O18 0.617235 0.250000 0.848728
O O19 0.500000 0.937669 0.927903
#
# Coordination Sequence:
#
# PCOD9534056 Si02
#       7
#    16  16  16  16  16  16  16
#     4  10  21  36  52  69  92 126 167 208 251 294
#     4  10  17  29  47  64  84 118 164 207 247 289
#     4   8  15  31  52  73 100 129 149 170 217 291
#     4  11  22  35  48  63  90 133 177 213 247 279
#     4  12  21  32  48  72 100 127 162 208 246 281
#     4  10  19  29  43  65  93 122 152 192 243 293
#     4   9  18  30  48  75 102 125 150 183 227 285
#
# _framework density 17.160176
#
# number of rings (size 3 to 8) (size 9 to 14) (size 15 to 20)
#    0.000    2.000    2.857    3.000    0.000    3.143 
#    0.000    2.857    0.000    0.000    0.000    2.000 
#    0.000    1.143    0.000    0.000    0.000    0.000 
#
# Total GULP energy -312542.753713 kJ/mol
# GULP energy per Si atom -5581.120602 kJ/mol
# Density = 1.712112 g / cm^3
# Si number density = 17.160176 Si / 1000 Ang^3
#
#
#
# Elastic Constant Matrix: (Units=GPa)
#
#
# Indices 1 2 3 4 5 6 
#
# 1 83.8537 12.0760 40.1379 0.0000 0.0000 0.0000
# 2 12.0760 46.8350 -2.2816 0.0000 0.0000 0.0000
# 3 40.1379 -2.2816 49.3932 0.0000 0.0000 0.0000
# 4 0.0000 0.0000 0.0000 3.2373 0.0000 0.0000
# 5 0.0000 0.0000 0.0000 0.0000 13.6948 0.0000
# 6 0.0000 0.0000 0.0000 0.0000 0.0000 10.4729
#
#
#
# Elastic Compliance Matrix: (Units=1/GPa)
#
#
# Indices 1 2 3 4 5 6 
#
# 1 0.021238 -0.006331 -0.017551 0.000000 0.000000 0.000000
# 2 -0.006331 0.023287 0.006221 0.000000 0.000000 0.000000
# 3 -0.017551 0.006221 0.034796 0.000000 0.000000 0.000000
# 4 0.000000 0.000000 0.000000 0.308896 0.000000 0.000000
# 5 0.000000 0.000000 0.000000 0.000000 0.073021 0.000000
# 6 0.000000 0.000000 0.000000 0.000000 0.000000 0.095484
#
#
# Mechanical properties :
#
#
# Convention : Reuss Voigt Hill
#
# Bulk Modulus (GPa) = 22.72871 31.10518 26.91694
# Shear Modulus (GPa) = 8.24115 14.15764 11.19940
#
# Velocity S-wave (km/s) = 2.19383 2.87545 2.55745
# Velocity P-wave (km/s) = 4.43745 5.40278 4.94373
#
# Compressibility (1/GPa) = 0.04399722
#
# Stress axis : x y z
#
# Youngs Moduli (GPa) = 47.08431 42.94238 28.73926
#
# Poissons Ratio (x) = 0.27188 0.50441
# Poissons Ratio (y) = 0.29810 -0.17877
# Poissons Ratio (z) = 0.82639 -0.26712
#
# Static dielectric constant tensor:
#      x y z
#    x 1.588580 0.000000 0.000000 
#    y 0.000000 1.618520 0.000000 
#    z 0.000000 0.000000 1.591770 
# 
# From -- ./inp_files/72678.got.cif
#   From: 2010.05.17/outbox.cif.g08.bks.cpg/sg74_37_cif.got.tgz:72678.got - 2010.06.03 17:57:02.
