data_PCOD9534071
_publ_section_title
;
Structure prediction by ZEFSAII (Michael W. Deem and Ramdas Pophale) SiO2 
 PCOD9534071
Probable space group: I M M A
;
_chemical_formula_sum "Si O2"
_cell_formula_units_Z 116
_cell_length_a 15.077179
_cell_length_b 15.692020
_cell_length_c 23.429150
_cell_angle_alpha 90.000000
_cell_angle_beta 90.000000
_cell_angle_gamma 90.000000
_cell_volume 5543.135268
_symmetry_space_group_name_H-M "I M M A"
_symmetry_group_IT_number 74
_symmetry_cell_setting 'orthorhombic'
loop_
_space_group_symop_operation_xyz
x,y,z
-x,1/2-y,z
x,-y,-z
-x,1/2+y,-z
-x,-y,-z
x,1/2+y,-z
-x,y,z
x,1/2-y,z
1/2+x,1/2+y,1/2+z
1/2-x,-y,1/2+z
1/2+x,1/2-y,1/2-z
1/2-x,y,1/2-z
1/2-x,1/2-y,1/2-z
1/2+x,y,1/2-z
1/2-x,1/2+y,1/2+z
1/2+x,-y,1/2+z
loop_
_atom_site_type_symbol
_atom_site_label
_atom_site_fract_x
_atom_site_fract_y
_atom_site_fract_z
Si Si1 0.744844 0.948667 0.555907
Si Si2 0.354680 0.618556 0.749599
Si Si3 0.599712 0.346504 0.508087
Si Si4 0.603021 0.079001 0.725765
Si Si5 0.789667 0.617284 0.118736
Si Si6 0.500000 0.250000 0.291593
Si Si7 0.403289 0.092159 0.121714
Si Si8 0.402703 0.886859 0.142473
O O1 0.658332 0.901154 0.534448
O O2 0.821632 0.889228 0.580427
O O3 0.779082 0.000000 0.500000
O O4 0.717625 0.016565 0.603855
O O5 0.250000 0.639675 0.750000
O O6 0.366393 0.519252 0.732672
O O7 0.420796 0.676014 0.712676
O O8 0.387770 0.627488 0.815075
O O9 0.500000 0.379545 0.514154
O O10 0.596262 0.250000 0.487102
O O11 0.648880 0.347193 0.568937
O O12 0.500000 0.080527 0.707174
O O13 0.665195 0.125183 0.680072
O O14 0.606531 0.118478 0.789032
O O15 0.688175 0.648747 0.116687
O O16 0.500000 0.119064 0.100708
O O17 0.404116 0.988539 0.128110
O O18 0.500000 0.853344 0.125736
#
# Coordination Sequence:
#
# PCOD9534071 Si02
#       8
#    16  16  16  16  16   4  16  16
#     4   9  19  33  53  80 101 128 171 218 265 305
#     4  11  20  34  51  69 104 147 182 215 250 303
#     4  10  22  40  56  72 101 133 166 212 268 319
#     4  10  17  29  51  80 110 133 171 218 251 290
#     4  10  18  31  57  83  99 134 177 211 251 305
#     4  12  22  36  44  70 102 156 186 204 252 310
#     4   9  16  32  52  74 102 133 173 216 252 296
#     4   8  15  27  48  79 111 136 160 207 256 294
#
# _framework density 20.926784999999999
#
# number of rings (size 3 to 8) (size 9 to 14) (size 15 to 20)
#    0.000    2.345    1.379    4.345    0.000    3.310 
#    1.241    2.069    1.517    2.897    0.000    1.931 
#    0.000    0.000    0.000    0.000    0.000    0.000 
#
# Total GULP energy -323129.362719 kJ/mol
# GULP energy per Si atom -5571.195909 kJ/mol
# Density = 2.087915 g / cm^3
# Si number density = 20.926785 Si / 1000 Ang^3
#
#
#
# Elastic Constant Matrix: (Units=GPa)
#
#
# Indices 1 2 3 4 5 6 
#
# 1 200.8147 21.1774 40.3627 0.0000 0.0000 0.0000
# 2 21.1774 28.4167 -6.1652 0.0000 0.0000 0.0000
# 3 40.3627 -6.1652 37.3157 0.0000 0.0000 0.0000
# 4 0.0000 0.0000 0.0000 -7.9821 0.0000 0.0000
# 5 0.0000 0.0000 0.0000 0.0000 31.1162 0.0000
# 6 0.0000 0.0000 0.0000 0.0000 0.0000 -133.3502
#
#
#
# Elastic Compliance Matrix: (Units=1/GPa)
#
#
# Indices 1 2 3 4 5 6 
#
# 1 0.007761 -0.007888 -0.009698 0.000000 0.000000 0.000000
# 2 -0.007888 0.044515 0.015886 0.000000 0.000000 0.000000
# 3 -0.009698 0.015886 0.039913 0.000000 0.000000 0.000000
# 4 0.000000 0.000000 0.000000 -0.125280 0.000000 0.000000
# 5 0.000000 0.000000 0.000000 0.000000 0.032138 0.000000
# 6 0.000000 0.000000 0.000000 0.000000 0.000000 -0.007499
#
#
# Mechanical properties :
#
#
# Convention : Reuss Voigt Hill
#
# Bulk Modulus (GPa) = 11.26238 41.92188 26.59213
# Shear Modulus (GPa) = 203.73811 -7.96508 97.88652
#
# Velocity S-wave (km/s) = 9.87770 -1.95306 6.84670
# Velocity P-wave (km/s) = 11.63982 3.87172 8.67397
#
# Compressibility (1/GPa) = 0.08879118
#
# Stress axis : x y z
#
# Youngs Moduli (GPa) = 128.85468 22.46414 25.05478
#
# Poissons Ratio (x) = 0.17719 0.24297
# Poissons Ratio (y) = 1.01635 -0.39803
# Poissons Ratio (z) = 1.24958 -0.35687
#
# Static dielectric constant tensor:
#      x y z
#    x 1.780550 0.000000 0.000000 
#    y 0.000000 1.789110 0.000000 
#    z 0.000000 0.000000 1.736820 
# 
# From -- ./inp_files/60365.got.cif
#   From: 2010.05.17/outbox.cif.g08.bks.cpg/sg74_31_cif.got.tgz:60365.got - 2010.06.03 17:57:02.
