data_PCOD9534961
_publ_section_title
;
Structure prediction by ZEFSAII (Michael W. Deem and Ramdas Pophale) SiO2 
 PCOD9534961
Probable space group: I M M A
;
_chemical_formula_sum "Si O2"
_cell_formula_units_Z 88
_cell_length_a 17.155160
_cell_length_b 8.320482
_cell_length_c 32.347824
_cell_angle_alpha 90.000000
_cell_angle_beta 90.000000
_cell_angle_gamma 90.000000
_cell_volume 4617.302519
_symmetry_space_group_name_H-M "I M M A"
_symmetry_group_IT_number 74
_symmetry_cell_setting 'orthorhombic'
loop_
_space_group_symop_operation_xyz
x,y,z
-x,1/2-y,z
x,-y,-z
-x,1/2+y,-z
-x,-y,-z
x,1/2+y,-z
-x,y,z
x,1/2-y,z
1/2+x,1/2+y,1/2+z
1/2-x,-y,1/2+z
1/2+x,1/2-y,1/2-z
1/2-x,y,1/2-z
1/2-x,1/2-y,1/2-z
1/2+x,y,1/2-z
1/2-x,1/2+y,1/2+z
1/2+x,-y,1/2+z
loop_
_atom_site_type_symbol
_atom_site_label
_atom_site_fract_x
_atom_site_fract_y
_atom_site_fract_z
Si Si1 0.587829 0.750000 0.030699
Si Si2 0.844982 0.500656 0.407601
Si Si3 0.711815 0.426839 0.654033
Si Si4 0.092617 0.750000 0.975935
Si Si5 0.755567 0.750000 0.700957
Si Si6 0.914758 0.250000 0.347894
Si Si7 0.269868 0.750000 0.966719
Si Si8 0.588985 0.431620 0.581330
O O1 0.500000 0.750000 0.013780
O O2 0.604046 0.601345 0.060827
O O3 0.657019 0.750000 0.997600
O O4 0.789271 0.582639 0.374170
O O5 0.901414 0.396251 0.379269
O O6 0.784876 0.399526 0.436141
O O7 0.701122 0.250000 0.674221
O O8 0.719038 0.585200 0.682321
O O9 0.643516 0.452615 0.620729
O O10 0.186008 0.750000 0.988732
O O11 0.094547 0.580622 0.950274
O O12 0.000000 0.750000 0.992761
O O13 0.750000 0.750000 0.750000
O O14 0.844825 0.750000 0.684826
O O15 0.000000 0.250000 0.329061
O O16 0.500000 0.430955 0.595452
O O17 0.604701 0.250000 0.563765
#
# Coordination Sequence:
#
# PCOD9534961 Si02
#       8
#     8  16  16   8   8   8   8  16
#     4  12  25  38  56  84 115 151 200 258 318 368
#     4  10  20  36  57  80 109 146 201 245 290 354
#     4  10  18  34  60  82 111 150 191 231 284 336
#     4  10  18  32  56  81 112 154 196 238 287 349
#     4  10  22  37  56  87 120 147 184 224 273 352
#     4   9  19  37  62  82 108 149 188 235 285 336
#     4  11  22  36  54  78 120 159 189 251 320 359
#     4   9  17  29  52  86 113 138 187 242 283 329
#
# _framework density 19.058747
#
# number of rings (size 3 to 8) (size 9 to 14) (size 15 to 20)
#    0.000    2.000    2.727    2.182    0.000    3.273 
#    0.000    0.909    0.000    3.273    0.000    0.000 
#    0.000    0.000    0.000    0.000    0.000    0.000 
#
# Total GULP energy -245057.171457 kJ/mol
# GULP energy per Si atom -5569.481169 kJ/mol
# Density = 1.901537 g / cm^3
# Si number density = 19.058747 Si / 1000 Ang^3
#
#
#
# Elastic Constant Matrix: (Units=GPa)
#
#
# Indices 1 2 3 4 5 6 
#
# 1 136.7715 36.2916 36.9887 0.0000 0.0000 0.0000
# 2 36.2916 121.9454 41.3749 0.0000 0.0000 0.0000
# 3 36.9887 41.3749 66.8832 0.0000 0.0000 0.0000
# 4 0.0000 0.0000 0.0000 14.3194 0.0000 0.0000
# 5 0.0000 0.0000 0.0000 0.0000 14.6204 0.0000
# 6 0.0000 0.0000 0.0000 0.0000 0.0000 -54.9459
#
#
#
# Elastic Compliance Matrix: (Units=1/GPa)
#
#
# Indices 1 2 3 4 5 6 
#
# 1 0.008738 -0.001216 -0.004080 0.000000 0.000000 0.000000
# 2 -0.001216 0.010548 -0.005853 0.000000 0.000000 0.000000
# 3 -0.004080 -0.005853 0.020828 0.000000 0.000000 0.000000
# 4 0.000000 0.000000 0.000000 0.069835 0.000000 0.000000
# 5 0.000000 0.000000 0.000000 0.000000 0.068397 0.000000
# 6 0.000000 0.000000 0.000000 0.000000 0.000000 -0.018200
#
#
# Mechanical properties :
#
#
# Convention : Reuss Voigt Hill
#
# Bulk Modulus (GPa) = 56.12720 61.65672 58.89196
# Shear Modulus (GPa) = 26.54166 8.86177 17.70171
#
# Velocity S-wave (km/s) = 3.73584 2.15866 3.05092
# Velocity P-wave (km/s) = 6.93701 6.21564 6.58621
#
# Compressibility (1/GPa) = 0.01781667
#
# Stress axis : x y z
#
# Youngs Moduli (GPa) = 114.44914 94.80426 48.01167
#
# Poissons Ratio (x) = 0.11529 0.19588
# Poissons Ratio (y) = 0.13918 0.28100
# Poissons Ratio (z) = 0.46694 0.55486
#
# Static dielectric constant tensor:
#      x y z
#    x 1.597290 0.000000 0.000000 
#    y 0.000000 1.758250 0.000000 
#    z 0.000000 0.000000 1.638630 
# 
# From -- ./inp_files/73043.got.cif
#   From: 2010.05.17/outbox.cif.g08.bks.cpg/sg74_37_cif.got.tgz:73043.got - 2010.06.03 17:57:02.
