data_PCOD9534048
_publ_section_title
;
Structure prediction by ZEFSAII (Michael W. Deem and Ramdas Pophale) SiO2 
 PCOD9534048
Probable space group: I M M A
;
_chemical_formula_sum "Si O2"
_cell_formula_units_Z 80
_cell_length_a 30.343363
_cell_length_b 8.657878
_cell_length_c 14.112471
_cell_angle_alpha 90.000000
_cell_angle_beta 90.000000
_cell_angle_gamma 90.000000
_cell_volume 3707.475049
_symmetry_space_group_name_H-M "I M M A"
_symmetry_group_IT_number 74
_symmetry_cell_setting 'orthorhombic'
loop_
_space_group_symop_operation_xyz
x,y,z
-x,1/2-y,z
x,-y,-z
-x,1/2+y,-z
-x,-y,-z
x,1/2+y,-z
-x,y,z
x,1/2-y,z
1/2+x,1/2+y,1/2+z
1/2-x,-y,1/2+z
1/2+x,1/2-y,1/2-z
1/2-x,y,1/2-z
1/2-x,1/2-y,1/2-z
1/2+x,y,1/2-z
1/2-x,1/2+y,1/2+z
1/2+x,-y,1/2+z
loop_
_atom_site_type_symbol
_atom_site_label
_atom_site_fract_x
_atom_site_fract_y
_atom_site_fract_z
Si Si1 0.586385 0.434613 0.105895
Si Si2 0.686037 0.434281 0.107132
Si Si3 0.366985 0.566382 0.606276
Si Si4 0.776065 0.434089 0.891661
Si Si5 0.951073 0.566041 0.212216
O O1 0.580167 0.250000 0.105229
O O2 0.636576 0.464919 0.142558
O O3 0.554060 0.516869 0.178538
O O4 0.582269 0.500000 0.000000
O O5 0.692581 0.250000 0.105528
O O6 0.729409 0.511522 0.150971
O O7 0.684189 0.500000 0.000000
O O8 0.369801 0.500000 0.500000
O O9 0.363139 0.750000 0.604233
O O10 0.321565 0.499594 0.649900
O O11 0.411396 0.516517 0.658237
O O12 0.777624 0.750000 0.106023
O O13 0.775677 0.500000 0.000000
O O14 0.946101 0.750000 0.202988
O O15 0.000000 0.522514 0.177876
#
# Coordination Sequence:
#
# PCOD9534048 Si02
#       5
#    16  16  16  16  16
#     4  10  21  38  62  90 121 158 198 242 292 348
#     4   9  16  28  49  80 116 153 193 234 280 336
#     4  11  22  39  63  89 120 156 195 240 290 348
#     4  10  17  28  50  81 117 155 194 234 280 337
#     4  11  25  44  64  87 116 150 193 247 302 355
#
# _framework density 21.578029000000001
#
# number of rings (size 3 to 8) (size 9 to 14) (size 15 to 20)
#    0.000    1.800    0.000    7.800    0.000    4.800 
#    0.000    1.000    0.000    6.000    0.000    0.000 
#    0.000    0.000    0.000    0.000    0.000    0.000 
#
# Total GULP energy -223608.255554 kJ/mol
# GULP energy per Si atom -5590.206389 kJ/mol
# Density = 2.152892 g / cm^3
# Si number density = 21.578029 Si / 1000 Ang^3
#
#
#
# Elastic Constant Matrix: (Units=GPa)
#
#
# Indices 1 2 3 4 5 6 
#
# 1 137.3917 66.4546 21.5346 0.0000 0.0000 0.0000
# 2 66.4546 135.9308 9.2318 0.0000 0.0000 0.0000
# 3 21.5346 9.2318 48.6881 0.0000 0.0000 0.0000
# 4 0.0000 0.0000 0.0000 17.6471 0.0000 0.0000
# 5 0.0000 0.0000 0.0000 0.0000 33.7412 0.0000
# 6 0.0000 0.0000 0.0000 0.0000 0.0000 31.6172
#
#
#
# Elastic Compliance Matrix: (Units=1/GPa)
#
#
# Indices 1 2 3 4 5 6 
#
# 1 0.010114 -0.004701 -0.003582 0.000000 0.000000 0.000000
# 2 -0.004701 0.009638 0.000252 0.000000 0.000000 0.000000
# 3 -0.003582 0.000252 0.022075 0.000000 0.000000 0.000000
# 4 0.000000 0.000000 0.000000 0.056667 0.000000 0.000000
# 5 0.000000 0.000000 0.000000 0.000000 0.029637 0.000000
# 6 0.000000 0.000000 0.000000 0.000000 0.000000 0.031628
#
#
# Mechanical properties :
#
#
# Convention : Reuss Voigt Hill
#
# Bulk Modulus (GPa) = 38.81287 57.38361 48.09824
# Shear Modulus (GPa) = 27.11348 31.58707 29.35027
#
# Velocity S-wave (km/s) = 3.54860 3.83018 3.69208
# Velocity P-wave (km/s) = 5.90054 6.79792 6.36506
#
# Compressibility (1/GPa) = 0.02576465
#
# Stress axis : x y z
#
# Youngs Moduli (GPa) = 98.87474 103.75657 45.29931
#
# Poissons Ratio (x) = 0.48778 0.16226
# Poissons Ratio (y) = 0.46483 -0.01141
# Poissons Ratio (z) = 0.35416 -0.02613
#
# Static dielectric constant tensor:
#      x y z
#    x 1.817420 0.000000 0.000000 
#    y 0.000000 1.707180 0.000000 
#    z 0.000000 0.000000 1.818270 
# 
# From -- ./inp_files/46943.got.cif
#   From: 2010.05.17/outbox.cif.g08.bks.cpg/sg74_24_cif.got.tgz:46943.got - 2010.06.03 17:57:02.
