data_PCOD9534881
_publ_section_title
;
Structure prediction by ZEFSAII (Michael W. Deem and Ramdas Pophale) SiO2 
 PCOD9534881
Probable space group: I M M A
;
_chemical_formula_sum "Si O2"
_cell_formula_units_Z 72
_cell_length_a 15.674753
_cell_length_b 8.651642
_cell_length_c 29.353637
_cell_angle_alpha 90.000000
_cell_angle_beta 90.000000
_cell_angle_gamma 90.000000
_cell_volume 3980.715736
_symmetry_space_group_name_H-M "I M M A"
_symmetry_group_IT_number 74
_symmetry_cell_setting 'orthorhombic'
loop_
_space_group_symop_operation_xyz
x,y,z
-x,1/2-y,z
x,-y,-z
-x,1/2+y,-z
-x,-y,-z
x,1/2+y,-z
-x,y,z
x,1/2-y,z
1/2+x,1/2+y,1/2+z
1/2-x,-y,1/2+z
1/2+x,1/2-y,1/2-z
1/2-x,y,1/2-z
1/2-x,1/2-y,1/2-z
1/2+x,y,1/2-z
1/2-x,1/2+y,1/2+z
1/2+x,-y,1/2+z
loop_
_atom_site_type_symbol
_atom_site_label
_atom_site_fract_x
_atom_site_fract_y
_atom_site_fract_z
Si Si1 0.099298 0.434104 0.699439
Si Si2 0.403044 0.563315 0.699280
Si Si3 0.755144 0.065196 0.364030
Si Si4 0.500000 0.065329 0.448547
Si Si5 0.678498 0.066511 0.550836
O O1 0.112803 0.250000 0.698326
O O2 0.113886 0.495067 0.750704
O O3 0.162701 0.515874 0.664624
O O4 0.000000 0.465680 0.688641
O O5 0.500000 0.518814 0.685447
O O6 0.401131 0.750000 0.702217
O O7 0.328090 0.515795 0.665283
O O8 0.752210 0.250000 0.369545
O O9 0.749200 0.985726 0.413217
O O10 0.500000 0.250000 0.447633
O O11 0.500000 0.000000 0.500000
O O12 0.589168 0.003075 0.430059
O O13 0.671112 0.250000 0.547737
O O14 0.691885 0.000000 0.500000
#
# Coordination Sequence:
#
# PCOD9534881 Si02
#       5
#    16  16  16   8  16
#     4  10  21  37  56  79 109 145 184 231 281 330
#     4   9  19  35  54  79 112 148 182 221 271 329
#     4  11  22  35  56  83 110 146 187 230 276 330
#     4  10  18  32  52  74 104 142 182 220 264 318
#     4  11  22  37  55  79 110 146 185 228 275 327
#
# _framework density 18.087198999999998
#
# number of rings (size 3 to 8) (size 9 to 14) (size 15 to 20)
#    0.000    1.778    0.000    6.333    1.556    5.778 
#    0.000    0.000    0.000    0.667    0.000    0.000 
#    0.000    0.000    0.000    0.000    0.000    0.000 
#
# Total GULP energy -201092.368706 kJ/mol
# GULP energy per Si atom -5585.899131 kJ/mol
# Density = 1.804603 g / cm^3
# Si number density = 18.087199 Si / 1000 Ang^3
#
#
#
# Elastic Constant Matrix: (Units=GPa)
#
#
# Indices 1 2 3 4 5 6 
#
# 1 62.6225 39.7358 60.6205 0.0000 0.0000 0.0000
# 2 39.7358 95.2992 44.2806 0.0000 0.0000 0.0000
# 3 60.6205 44.2806 100.4926 0.0000 0.0000 0.0000
# 4 0.0000 0.0000 0.0000 26.7792 0.0000 0.0000
# 5 0.0000 0.0000 0.0000 0.0000 28.8337 0.0000
# 6 0.0000 0.0000 0.0000 0.0000 0.0000 28.6856
#
#
#
# Elastic Compliance Matrix: (Units=1/GPa)
#
#
# Indices 1 2 3 4 5 6 
#
# 1 0.041989 -0.007216 -0.022149 0.000000 0.000000 0.000000
# 2 -0.007216 0.014435 -0.002008 0.000000 0.000000 0.000000
# 3 -0.022149 -0.002008 0.024197 0.000000 0.000000 0.000000
# 4 0.000000 0.000000 0.000000 0.037342 0.000000 0.000000
# 5 0.000000 0.000000 0.000000 0.000000 0.034682 0.000000
# 6 0.000000 0.000000 0.000000 0.000000 0.000000 0.034861
#
#
# Mechanical properties :
#
#
# Convention : Reuss Voigt Hill
#
# Bulk Modulus (GPa) = 55.94539 60.85422 58.39980
# Shear Modulus (GPa) = 19.51529 24.44487 21.98008
#
# Velocity S-wave (km/s) = 3.28831 3.68026 3.48979
# Velocity P-wave (km/s) = 6.73909 7.19563 6.97110
#
# Compressibility (1/GPa) = 0.01787457
#
# Stress axis : x y z
#
# Youngs Moduli (GPa) = 23.81590 69.27692 41.32754
#
# Poissons Ratio (x) = 0.49989 0.91538
# Poissons Ratio (y) = 0.17185 0.08297
# Poissons Ratio (z) = 0.52751 0.13908
#
# Static dielectric constant tensor:
#      x y z
#    x 1.640470 0.000000 0.000000 
#    y 0.000000 1.604700 0.000000 
#    z 0.000000 0.000000 1.597960 
# 
# From -- ./inp_files/63621.got.cif
#   From: 2010.05.17/outbox.cif.g08.bks.cpg/sg74_32_cif.got.tgz:63621.got - 2010.06.03 17:57:02.
