data_PCOD9534294
_publ_section_title
;
Structure prediction by ZEFSAII (Michael W. Deem and Ramdas Pophale) SiO2 
 PCOD9534294
Probable space group: I M M A
;
_chemical_formula_sum "Si O2"
_cell_formula_units_Z 72
_cell_length_a 22.951050
_cell_length_b 7.404699
_cell_length_c 20.090195
_cell_angle_alpha 90.000000
_cell_angle_beta 90.000000
_cell_angle_gamma 90.000000
_cell_volume 3414.240585
_symmetry_space_group_name_H-M "I M M A"
_symmetry_group_IT_number 74
_symmetry_cell_setting 'orthorhombic'
loop_
_space_group_symop_operation_xyz
x,y,z
-x,1/2-y,z
x,-y,-z
-x,1/2+y,-z
-x,-y,-z
x,1/2+y,-z
-x,y,z
x,1/2-y,z
1/2+x,1/2+y,1/2+z
1/2-x,-y,1/2+z
1/2+x,1/2-y,1/2-z
1/2-x,y,1/2-z
1/2-x,1/2-y,1/2-z
1/2+x,y,1/2-z
1/2-x,1/2+y,1/2+z
1/2+x,-y,1/2+z
loop_
_atom_site_type_symbol
_atom_site_label
_atom_site_fract_x
_atom_site_fract_y
_atom_site_fract_z
Si Si1 0.278145 0.534170 0.923614
Si Si2 0.067261 0.529381 0.802816
Si Si3 0.353925 0.034091 0.423981
Si Si4 0.387238 0.470984 0.159627
Si Si5 0.500000 0.534664 0.921757
O O1 0.275257 0.750000 0.915311
O O2 0.212255 0.463664 0.915392
O O3 0.326708 0.466730 0.872565
O O4 0.296336 0.500000 0.000000
O O5 0.066477 0.750000 0.803183
O O6 0.101762 0.467488 0.868134
O O7 0.100012 0.474867 0.735245
O O8 0.000000 0.471503 0.801488
O O9 0.351057 0.250000 0.416168
O O10 0.372215 0.000000 0.500000
O O11 0.386407 0.250000 0.158613
O O12 0.441522 0.531474 0.114196
O O13 0.500000 0.750000 0.912184
O O14 0.500000 0.500000 0.000000
#
# Coordination Sequence:
#
# PCOD9534294 Si02
#       5
#    16  16  16  16   8
#     4   9  17  29  45  67  93 119 148 184 223 264
#     4   9  16  28  46  68  92 117 148 188 228 264
#     4   9  18  31  48  69  91 116 148 186 227 269
#     4   9  16  27  44  66  91 118 149 184 221 261
#     4  10  18  28  44  66  89 118 152 182 215 258
#
# _framework density 21.088144
#
# number of rings (size 3 to 8) (size 9 to 14) (size 15 to 20)
#    0.000    2.889    1.111    0.667    0.000    1.333 
#    0.000    4.444    0.000    2.667    0.000    6.222 
#    0.000    0.000    0.000    0.000    0.000    0.000 
#
# Total GULP energy -200989.648151 kJ/mol
# GULP energy per Si atom -5583.045782 kJ/mol
# Density = 2.104015 g / cm^3
# Si number density = 21.088144 Si / 1000 Ang^3
#
#
#
# Elastic Constant Matrix: (Units=GPa)
#
#
# Indices 1 2 3 4 5 6 
#
# 1 127.0978 3.3300 126.7863 0.0000 0.0000 0.0000
# 2 3.3300 70.5570 -3.4498 0.0000 0.0000 0.0000
# 3 126.7863 -3.4498 209.9242 0.0000 0.0000 0.0000
# 4 0.0000 0.0000 0.0000 18.6869 0.0000 0.0000
# 5 0.0000 0.0000 0.0000 0.0000 154.9795 0.0000
# 6 0.0000 0.0000 0.0000 0.0000 0.0000 -16.2125
#
#
#
# Elastic Compliance Matrix: (Units=1/GPa)
#
#
# Indices 1 2 3 4 5 6 
#
# 1 0.019957 -0.001532 -0.012078 0.000000 0.000000 0.000000
# 2 -0.001532 0.014302 0.001161 0.000000 0.000000 0.000000
# 3 -0.012078 0.001161 0.012078 0.000000 0.000000 0.000000
# 4 0.000000 0.000000 0.000000 0.053513 0.000000 0.000000
# 5 0.000000 0.000000 0.000000 0.000000 0.006452 0.000000
# 6 0.000000 0.000000 0.000000 0.000000 0.000000 -0.061681
#
#
# Mechanical properties :
#
#
# Convention : Reuss Voigt Hill
#
# Bulk Modulus (GPa) = 46.65055 73.43466 60.04261
# Shear Modulus (GPa) = 65.21675 50.21827 57.71751
#
# Velocity S-wave (km/s) = 5.56713 4.88520 5.23728
# Velocity P-wave (km/s) = 7.96829 8.16815 8.06884
#
# Compressibility (1/GPa) = 0.02143597
#
# Stress axis : x y z
#
# Youngs Moduli (GPa) = 50.10792 69.92022 82.79786
#
# Poissons Ratio (x) = 0.10715 1.00007
# Poissons Ratio (y) = 0.07679 -0.09609
# Poissons Ratio (z) = 0.60522 -0.08115
#
# Static dielectric constant tensor:
#      x y z
#    x 1.740500 0.000000 0.000000 
#    y 0.000000 1.809790 0.000000 
#    z 0.000000 0.000000 1.713290 
# 
# From -- ./inp_files/30599.got.cif
#   From: 2010.05.17/outbox.cif.g08.bks.cpg/sg74_16_cif.got.tgz:30599.got - 2010.06.03 17:57:02.
