data_PCOD9534310
_publ_section_title
;
Structure prediction by ZEFSAII (Michael W. Deem and Ramdas Pophale) SiO2 
 PCOD9534310
Probable space group: I M M A
;
_chemical_formula_sum "Si O2"
_cell_formula_units_Z 96
_cell_length_a 13.987266
_cell_length_b 18.091883
_cell_length_c 24.163934
_cell_angle_alpha 90.000000
_cell_angle_beta 90.000000
_cell_angle_gamma 90.000000
_cell_volume 6114.827998
_symmetry_space_group_name_H-M "I M M A"
_symmetry_group_IT_number 74
_symmetry_cell_setting 'orthorhombic'
loop_
_space_group_symop_operation_xyz
x,y,z
-x,1/2-y,z
x,-y,-z
-x,1/2+y,-z
-x,-y,-z
x,1/2+y,-z
-x,y,z
x,1/2-y,z
1/2+x,1/2+y,1/2+z
1/2-x,-y,1/2+z
1/2+x,1/2-y,1/2-z
1/2-x,y,1/2-z
1/2-x,1/2-y,1/2-z
1/2+x,y,1/2-z
1/2-x,1/2+y,1/2+z
1/2+x,-y,1/2+z
loop_
_atom_site_type_symbol
_atom_site_label
_atom_site_fract_x
_atom_site_fract_y
_atom_site_fract_z
Si Si1 0.888496 0.056316 0.666217
Si Si2 0.888524 0.661228 0.891555
Si Si3 0.743141 0.836968 0.381561
Si Si4 0.269821 0.941267 0.686853
Si Si5 0.388569 0.588232 0.294977
Si Si6 0.607647 0.160176 0.518936
O O1 0.837726 0.114786 0.626366
O O2 0.877942 0.089670 0.728554
O O3 0.000000 0.044662 0.655699
O O4 0.826800 0.980987 0.665508
O O5 0.879516 0.750000 0.888083
O O6 0.814725 0.621184 0.851360
O O7 0.871621 0.638896 0.955631
O O8 0.000000 0.643258 0.878443
O O9 0.762602 0.750000 0.385380
O O10 0.675101 0.853855 0.328734
O O11 0.683824 0.862747 0.435376
O O12 0.250000 0.916866 0.750000
O O13 0.346904 0.008085 0.688780
O O14 0.500000 0.596158 0.308578
O O15 0.500000 0.134993 0.533147
O O16 0.606005 0.250000 0.519904
#
# Coordination Sequence:
#
# PCOD9534310 Si02
#       6
#    16  16  16  16  16  16
#     4   9  19  33  45  60  87 124 160 192 226 260
#     4   9  17  30  50  75  98 116 138 175 224 275
#     4  10  18  28  45  67  90 119 155 191 226 266
#     4   9  17  30  49  68  90 121 151 179 217 268
#     4   9  17  29  44  64  92 122 150 184 229 276
#     4   8  15  28  45  67  95 121 141 170 222 280
#
# _framework density 15.699541999999999
#
# number of rings (size 3 to 8) (size 9 to 14) (size 15 to 20)
#    0.000    3.000    0.000    3.500    0.000    3.667 
#    0.000    5.000    0.000   11.500    0.000    2.333 
#    0.000    0.000    0.000    0.000    0.000    0.000 
#
# Total GULP energy -267349.126032 kJ/mol
# GULP energy per Si atom -5569.773459 kJ/mol
# Density = 1.566381 g / cm^3
# Si number density = 15.699542 Si / 1000 Ang^3
#
#
#
# Elastic Constant Matrix: (Units=GPa)
#
#
# Indices 1 2 3 4 5 6 
#
# 1 128.3809 44.9513 60.7004 0.0000 0.0000 0.0000
# 2 44.9513 40.3847 41.2830 0.0000 0.0000 0.0000
# 3 60.7004 41.2830 70.2796 0.0000 0.0000 0.0000
# 4 0.0000 0.0000 0.0000 -7.1700 0.0000 0.0000
# 5 0.0000 0.0000 0.0000 0.0000 29.0022 0.0000
# 6 0.0000 0.0000 0.0000 0.0000 0.0000 21.5457
#
#
#
# Elastic Compliance Matrix: (Units=1/GPa)
#
#
# Indices 1 2 3 4 5 6 
#
# 1 0.014164 -0.008160 -0.007440 0.000000 0.000000 0.000000
# 2 -0.008160 0.066680 -0.032120 0.000000 0.000000 0.000000
# 3 -0.007440 -0.032120 0.039523 0.000000 0.000000 0.000000
# 4 0.000000 0.000000 0.000000 -0.139469 0.000000 0.000000
# 5 0.000000 0.000000 0.000000 0.000000 0.034480 0.000000
# 6 0.000000 0.000000 0.000000 0.000000 0.000000 0.046413
#
#
# Mechanical properties :
#
#
# Convention : Reuss Voigt Hill
#
# Bulk Modulus (GPa) = 40.12020 59.21272 49.66646
# Shear Modulus (GPa) = 30.20389 14.81627 22.51008
#
# Velocity S-wave (km/s) = 4.39095 3.07537 3.79067
# Velocity P-wave (km/s) = 7.16364 7.09990 7.13184
#
# Compressibility (1/GPa) = 0.02492510
#
# Stress axis : x y z
#
# Youngs Moduli (GPa) = 70.59913 14.99708 25.30172
#
# Poissons Ratio (x) = 0.12238 0.18826
# Poissons Ratio (y) = 0.57610 0.81270
# Poissons Ratio (z) = 0.52529 0.48171
#
# Static dielectric constant tensor:
#      x y z
#    x 1.521200 0.000000 0.000000 
#    y 0.000000 1.511940 0.000000 
#    z 0.000000 0.000000 1.532210 
# 
# From -- ./inp_files/52235.got.cif
#   From: 2010.05.17/outbox.cif.g08.bks.cpg/sg74_27_cif.got.tgz:52235.got - 2010.06.03 17:57:02.
