data_PCOD9534975
_publ_section_title
;
Structure prediction by ZEFSAII (Michael W. Deem and Ramdas Pophale) SiO2 
 PCOD9534975
Probable space group: I M M A
;
_chemical_formula_sum "Si O2"
_cell_formula_units_Z 72
_cell_length_a 24.086305
_cell_length_b 8.513879
_cell_length_c 17.918201
_cell_angle_alpha 90.000000
_cell_angle_beta 90.000000
_cell_angle_gamma 90.000000
_cell_volume 3674.447606
_symmetry_space_group_name_H-M "I M M A"
_symmetry_group_IT_number 74
_symmetry_cell_setting 'orthorhombic'
loop_
_space_group_symop_operation_xyz
x,y,z
-x,1/2-y,z
x,-y,-z
-x,1/2+y,-z
-x,-y,-z
x,1/2+y,-z
-x,y,z
x,1/2-y,z
1/2+x,1/2+y,1/2+z
1/2-x,-y,1/2+z
1/2+x,1/2-y,1/2-z
1/2-x,y,1/2-z
1/2-x,1/2-y,1/2-z
1/2+x,y,1/2-z
1/2-x,1/2+y,1/2+z
1/2+x,-y,1/2+z
loop_
_atom_site_type_symbol
_atom_site_label
_atom_site_fract_x
_atom_site_fract_y
_atom_site_fract_z
Si Si1 0.500000 0.937381 0.914957
Si Si2 0.881844 0.936923 0.414672
Si Si3 0.826487 0.563319 0.083673
Si Si4 0.439480 0.061867 0.414553
Si Si5 0.775814 0.063740 0.328087
O O1 0.500000 0.750000 0.914173
O O2 0.558948 0.998748 0.884893
O O3 0.500000 0.000000 0.000000
O O4 0.884658 0.250000 0.580358
O O5 0.831450 0.987339 0.361025
O O6 0.872977 0.000000 0.500000
O O7 0.818831 0.750000 0.085841
O O8 0.885290 0.516535 0.121112
O O9 0.774120 0.474028 0.116235
O O10 0.831259 0.500000 0.000000
O O11 0.500000 0.026480 0.380314
O O12 0.432281 0.250000 0.416306
O O13 0.442540 0.000000 0.500000
O O14 0.785586 0.250000 0.321562
O O15 0.750000 0.004232 0.250000
#
# Coordination Sequence:
#
# PCOD9534975 Si02
#       5
#     8  16  16  16  16
#     4  10  18  32  56  88 122 152 189 234 289 344
#     4  11  21  36  60  90 122 153 192 239 289 344
#     4  11  21  34  55  81 110 142 182 230 276 329
#     4   9  16  27  46  73 104 136 172 217 266 315
#     4  11  24  41  59  79 110 150 190 233 285 343
#
# _framework density 19.594781999999999
#
# number of rings (size 3 to 8) (size 9 to 14) (size 15 to 20)
#    0.000    1.556    0.000    9.667    0.000    3.111 
#    0.000    0.000    2.444    0.000    0.000    0.000 
#    0.000    0.000    0.000    0.000    0.000    0.000 
#
# Total GULP energy -200828.354358 kJ/mol
# GULP energy per Si atom -5578.565399 kJ/mol
# Density = 1.955018 g / cm^3
# Si number density = 19.594782 Si / 1000 Ang^3
#
#
#
# Elastic Constant Matrix: (Units=GPa)
#
#
# Indices 1 2 3 4 5 6 
#
# 1 184.8900 29.4611 47.6481 0.0000 0.0000 0.0000
# 2 29.4611 95.8590 18.8202 0.0000 0.0000 0.0000
# 3 47.6481 18.8202 42.8218 0.0000 0.0000 0.0000
# 4 0.0000 0.0000 0.0000 14.1036 0.0000 0.0000
# 5 0.0000 0.0000 0.0000 0.0000 6.8760 0.0000
# 6 0.0000 0.0000 0.0000 0.0000 0.0000 42.2059
#
#
#
# Elastic Compliance Matrix: (Units=1/GPa)
#
#
# Indices 1 2 3 4 5 6 
#
# 1 0.007631 -0.000742 -0.008165 0.000000 0.000000 0.000000
# 2 -0.000742 0.011489 -0.004224 0.000000 0.000000 0.000000
# 3 -0.008165 -0.004224 0.034294 0.000000 0.000000 0.000000
# 4 0.000000 0.000000 0.000000 0.070904 0.000000 0.000000
# 5 0.000000 0.000000 0.000000 0.000000 0.145434 0.000000
# 6 0.000000 0.000000 0.000000 0.000000 0.000000 0.023693
#
#
# Mechanical properties :
#
#
# Convention : Reuss Voigt Hill
#
# Bulk Modulus (GPa) = 36.82862 57.26997 47.04929
# Shear Modulus (GPa) = 15.20871 27.81317 21.51094
#
# Velocity S-wave (km/s) = 2.78899 3.77160 3.31688
# Velocity P-wave (km/s) = 5.40437 6.94674 6.22352
#
# Compressibility (1/GPa) = 0.02715279
#
# Stress axis : x y z
#
# Youngs Moduli (GPa) = 131.04285 87.03704 29.15957
#
# Poissons Ratio (x) = 0.06461 0.23809
# Poissons Ratio (y) = 0.09727 0.12316
# Poissons Ratio (z) = 1.06996 0.36761
#
# Static dielectric constant tensor:
#      x y z
#    x 1.772740 0.000000 0.000000 
#    y 0.000000 1.662860 0.000000 
#    z 0.000000 0.000000 1.557550 
# 
# From -- ./inp_files/45803.got.cif
#   From: 2010.05.17/outbox.cif.g08.bks.cpg/sg74_23_cif.got.tgz:45803.got - 2010.06.03 17:57:02.
