data_PCOD9534079
_publ_section_title
;
Structure prediction by ZEFSAII (Michael W. Deem and Ramdas Pophale) SiO2 
 PCOD9534079
Probable space group: I M M A
;
_chemical_formula_sum "Si O2"
_cell_formula_units_Z 128
_cell_length_a 20.164112
_cell_length_b 20.816576
_cell_length_c 19.714541
_cell_angle_alpha 90.000000
_cell_angle_beta 90.000000
_cell_angle_gamma 90.000000
_cell_volume 8275.134620
_symmetry_space_group_name_H-M "I M M A"
_symmetry_group_IT_number 74
_symmetry_cell_setting 'orthorhombic'
loop_
_space_group_symop_operation_xyz
x,y,z
-x,1/2-y,z
x,-y,-z
-x,1/2+y,-z
-x,-y,-z
x,1/2+y,-z
-x,y,z
x,1/2-y,z
1/2+x,1/2+y,1/2+z
1/2-x,-y,1/2+z
1/2+x,1/2-y,1/2-z
1/2-x,y,1/2-z
1/2-x,1/2-y,1/2-z
1/2+x,y,1/2-z
1/2-x,1/2+y,1/2+z
1/2+x,-y,1/2+z
loop_
_atom_site_type_symbol
_atom_site_label
_atom_site_fract_x
_atom_site_fract_y
_atom_site_fract_z
Si Si1 0.924112 0.639066 0.107181
Si Si2 0.710364 0.820839 0.455793
Si Si3 0.212133 0.015188 0.320254
Si Si4 0.075443 0.484273 0.107423
Si Si5 0.572975 0.486530 0.233036
Si Si6 0.073736 0.857469 0.266142
Si Si7 0.210958 0.440938 0.049182
Si Si8 0.287274 0.859981 0.179035
O O1 0.866876 0.671429 0.064307
O O2 0.914772 0.561547 0.102271
O O3 0.916189 0.657882 0.186527
O O4 0.000000 0.653473 0.087766
O O5 0.723590 0.750000 0.482311
O O6 0.725764 0.875895 0.509736
O O7 0.750894 0.831419 0.385986
O O8 0.250000 0.028174 0.250000
O O9 0.135734 0.034793 0.310209
O O10 0.248559 0.049197 0.381940
O O11 0.214952 0.937665 0.329784
O O12 0.081302 0.469167 0.187629
O O13 0.132881 0.448651 0.066995
O O14 0.000000 0.469870 0.085394
O O15 0.500000 0.464904 0.210426
O O16 0.573152 0.564492 0.231695
O O17 0.136871 0.837643 0.310183
O O18 0.000000 0.835105 0.286322
O O19 0.228000 0.500000 0.000000
O O20 0.250000 0.845748 0.250000
#
# Coordination Sequence:
#
# PCOD9534079 Si02
#       8
#    16  16  16  16  16  16  16  16
#     4   9  16  30  48  69 100 137 168 198 238 291
#     4  12  25  36  46  68 104 141 171 207 250 295
#     4  10  17  29  54  79 100 126 167 213 247 291
#     4   9  16  28  50  78 103 128 165 202 241 294
#     4   8  14  25  46  78 107 125 150 204 262 296
#     4   8  14  25  46  72 100 129 165 206 240 283
#     4  12  21  33  51  75 102 134 171 208 248 293
#     4  10  17  30  51  73  99 132 171 205 243 292
#
# _framework density 15.468026
#
# number of rings (size 3 to 8) (size 9 to 14) (size 15 to 20)
#    0.000    2.250    5.000    1.500    0.000    1.250 
#    0.000    0.000    0.000    1.875    0.000    0.000 
#    0.000    0.000    0.000    0.000    0.000    0.000 
#
# Total GULP energy -356916.724818 kJ/mol
# GULP energy per Si atom -5576.823825 kJ/mol
# Density = 1.543282 g / cm^3
# Si number density = 15.468026 Si / 1000 Ang^3
#
#
#
# Elastic Constant Matrix: (Units=GPa)
#
#
# Indices 1 2 3 4 5 6 
#
# 1 92.6912 28.7304 42.4683 0.0000 0.0000 0.0000
# 2 28.7304 62.6684 38.0611 0.0000 0.0000 0.0000
# 3 42.4683 38.0611 73.4139 0.0000 0.0000 0.0000
# 4 0.0000 0.0000 0.0000 6.2357 0.0000 0.0000
# 5 0.0000 0.0000 0.0000 0.0000 22.9304 0.0000
# 6 0.0000 0.0000 0.0000 0.0000 0.0000 -1.7965
#
#
#
# Elastic Compliance Matrix: (Units=1/GPa)
#
#
# Indices 1 2 3 4 5 6 
#
# 1 0.014909 -0.002331 -0.007416 0.000000 0.000000 0.000000
# 2 -0.002331 0.023655 -0.010915 0.000000 0.000000 0.000000
# 3 -0.007416 -0.010915 0.023570 0.000000 0.000000 0.000000
# 4 0.000000 0.000000 0.000000 0.160366 0.000000 0.000000
# 5 0.000000 0.000000 0.000000 0.000000 0.043610 0.000000
# 6 0.000000 0.000000 0.000000 0.000000 0.000000 -0.556645
#
#
# Mechanical properties :
#
#
# Convention : Reuss Voigt Hill
#
# Bulk Modulus (GPa) = 48.05479 49.69924 48.87701
# Shear Modulus (GPa) = -20.63785 13.44151 -3.59817
#
# Velocity S-wave (km/s) = -3.65667 2.95106 -1.52684
# Velocity P-wave (km/s) = 3.64778 6.61904 5.34406
#
# Compressibility (1/GPa) = 0.02080958
#
# Stress axis : x y z
#
# Youngs Moduli (GPa) = 67.07463 42.27427 42.42608
#
# Poissons Ratio (x) = 0.09854 0.31463
# Poissons Ratio (y) = 0.15635 0.46310
# Poissons Ratio (z) = 0.49742 0.46144
#
# Static dielectric constant tensor:
#      x y z
#    x 1.551260 0.000000 0.000000 
#    y 0.000000 1.511770 0.000000 
#    z 0.000000 0.000000 1.497270 
# 
# From -- ./inp_files/45596.got.cif
#   From: 2010.05.17/outbox.cif.g08.bks.cpg/sg74_23_cif.got.tgz:45596.got - 2010.06.03 17:57:02.
