data_PCOD9534587
_publ_section_title
;
Structure prediction by ZEFSAII (Michael W. Deem and Ramdas Pophale) SiO2 
 PCOD9534587
Probable space group: I M M A
;
_chemical_formula_sum "Si O2"
_cell_formula_units_Z 104
_cell_length_a 8.871921
_cell_length_b 21.102309
_cell_length_c 26.635427
_cell_angle_alpha 90.000000
_cell_angle_beta 90.000000
_cell_angle_gamma 90.000000
_cell_volume 4986.631861
_symmetry_space_group_name_H-M "I M M A"
_symmetry_group_IT_number 74
_symmetry_cell_setting 'orthorhombic'
loop_
_space_group_symop_operation_xyz
x,y,z
-x,1/2-y,z
x,-y,-z
-x,1/2+y,-z
-x,-y,-z
x,1/2+y,-z
-x,y,z
x,1/2-y,z
1/2+x,1/2+y,1/2+z
1/2-x,-y,1/2+z
1/2+x,1/2-y,1/2-z
1/2-x,y,1/2-z
1/2-x,1/2-y,1/2-z
1/2+x,y,1/2-z
1/2-x,1/2+y,1/2+z
1/2+x,-y,1/2+z
loop_
_atom_site_type_symbol
_atom_site_label
_atom_site_fract_x
_atom_site_fract_y
_atom_site_fract_z
Si Si1 0.681407 0.676720 0.015757
Si Si2 0.821394 0.378851 0.198204
Si Si3 0.829103 0.869363 0.303146
Si Si4 0.172705 0.825653 0.908739
Si Si5 0.322315 0.250000 0.693362
Si Si6 0.816118 0.039390 0.549252
Si Si7 0.673062 0.492188 0.152903
O O1 0.500000 0.678399 0.019085
O O2 0.734012 0.750000 0.027373
O O3 0.730034 0.661502 0.958301
O O4 0.731869 0.613600 0.046490
O O5 0.750000 0.354673 0.250000
O O6 0.768091 0.349580 0.145054
O O7 0.774222 0.451758 0.190221
O O8 0.000000 0.370631 0.201183
O O9 0.750000 0.880504 0.250000
O O10 0.740254 0.813705 0.330904
O O11 0.831606 0.934954 0.331250
O O12 0.000000 0.847499 0.294966
O O13 0.165801 0.750000 0.904799
O O14 0.000000 0.849233 0.915412
O O15 0.500000 0.250000 0.695990
O O16 0.250000 0.250000 0.750000
O O17 0.764959 0.997421 0.596593
O O18 0.000000 0.040640 0.552650
O O19 0.774466 0.000000 0.500000
O O20 0.500000 0.467694 0.154193
#
# Coordination Sequence:
#
# PCOD9534587 Si02
#       7
#    16  16  16  16   8  16  16
#     4   9  17  31  54  83 109 138 180 226 269 318
#     4  11  23  37  55  79 108 143 181 224 272 322
#     4  10  19  32  50  73 100 132 171 210 255 307
#     4   9  19  36  56  79 109 144 179 217 267 326
#     4  10  18  30  50  72  96 128 166 206 250 296
#     4   9  17  31  52  78 107 138 174 219 269 318
#     4  10  21  36  54  78 106 140 178 218 269 319
#
# _framework density 20.855761999999999
#
# number of rings (size 3 to 8) (size 9 to 14) (size 15 to 20)
#    0.000    2.308    0.000    3.923    0.000    5.231 
#    1.385    0.769    0.000    2.769    0.000    0.000 
#    0.000    0.000    0.000    0.000    0.000    0.000 
#
# Total GULP energy -289899.911483 kJ/mol
# GULP energy per Si atom -5574.998298 kJ/mol
# Density = 2.080829 g / cm^3
# Si number density = 20.855762 Si / 1000 Ang^3
#
#
#
# Elastic Constant Matrix: (Units=GPa)
#
#
# Indices 1 2 3 4 5 6 
#
# 1 42.4772 -2.8833 -5.8131 0.0000 0.0000 0.0000
# 2 -2.8833 31.1523 -11.6813 0.0000 0.0000 0.0000
# 3 -5.8131 -11.6813 44.8042 0.0000 0.0000 0.0000
# 4 0.0000 0.0000 0.0000 28.3410 0.0000 0.0000
# 5 0.0000 0.0000 0.0000 0.0000 16.3052 0.0000
# 6 0.0000 0.0000 0.0000 0.0000 0.0000 52.4190
#
#
#
# Elastic Compliance Matrix: (Units=1/GPa)
#
#
# Indices 1 2 3 4 5 6 
#
# 1 0.024370 0.003814 0.004156 0.000000 0.000000 0.000000
# 2 0.003814 0.036176 0.009927 0.000000 0.000000 0.000000
# 3 0.004156 0.009927 0.025447 0.000000 0.000000 0.000000
# 4 0.000000 0.000000 0.000000 0.035285 0.000000 0.000000
# 5 0.000000 0.000000 0.000000 0.000000 0.061330 0.000000
# 6 0.000000 0.000000 0.000000 0.000000 0.000000 0.019077
#
#
# Mechanical properties :
#
#
# Convention : Reuss Voigt Hill
#
# Bulk Modulus (GPa) = 8.21116 8.63091 8.42104
# Shear Modulus (GPa) = 24.21481 28.66715 26.44098
#
# Velocity S-wave (km/s) = 3.41113 3.71151 3.56448
# Velocity P-wave (km/s) = 4.41136 4.74493 4.58118
#
# Compressibility (1/GPa) = 0.12178548
#
# Stress axis : x y z
#
# Youngs Moduli (GPa) = 41.03453 27.64298 39.29794
#
# Poissons Ratio (x) = -0.10543 -0.16333
# Poissons Ratio (y) = -0.15651 -0.39009
# Poissons Ratio (z) = -0.17055 -0.27440
#
# Static dielectric constant tensor:
#      x y z
#    x 1.721870 0.000000 0.000000 
#    y 0.000000 1.820870 0.000000 
#    z 0.000000 0.000000 1.846590 
# 
# From -- ./inp_files/70580.got.cif
#   From: 2010.05.17/outbox.cif.g08.bks.cpg/sg74_36_cif.got.tgz:70580.got - 2010.06.03 17:57:02.
