data_PCOD9534330
_publ_section_title
;
Structure prediction by ZEFSAII (Michael W. Deem and Ramdas Pophale) SiO2 
 PCOD9534330
Probable space group: I M M A
;
_chemical_formula_sum "Si O2"
_cell_formula_units_Z 72
_cell_length_a 8.415995
_cell_length_b 17.223999
_cell_length_c 20.386419
_cell_angle_alpha 90.000000
_cell_angle_beta 90.000000
_cell_angle_gamma 90.000000
_cell_volume 2955.155963
_symmetry_space_group_name_H-M "I M M A"
_symmetry_group_IT_number 74
_symmetry_cell_setting 'orthorhombic'
loop_
_space_group_symop_operation_xyz
x,y,z
-x,1/2-y,z
x,-y,-z
-x,1/2+y,-z
-x,-y,-z
x,1/2+y,-z
-x,y,z
x,1/2-y,z
1/2+x,1/2+y,1/2+z
1/2-x,-y,1/2+z
1/2+x,1/2-y,1/2-z
1/2-x,y,1/2-z
1/2-x,1/2-y,1/2-z
1/2+x,y,1/2-z
1/2-x,1/2+y,1/2+z
1/2+x,-y,1/2+z
loop_
_atom_site_type_symbol
_atom_site_label
_atom_site_fract_x
_atom_site_fract_y
_atom_site_fract_z
Si Si1 0.679597 0.409436 0.353228
Si Si2 0.500000 0.342625 0.154591
Si Si3 0.000000 0.591290 0.505367
Si Si4 0.828531 0.342819 0.999615
Si Si5 0.191259 0.250000 0.824792
Si Si6 0.810691 0.919109 0.175524
O O1 0.500000 0.404499 0.324397
O O2 0.667091 0.366867 0.423534
O O3 0.722014 0.500641 0.361879
O O4 0.831887 0.372309 0.317410
O O5 0.500000 0.250000 0.152436
O O6 0.500000 0.377181 0.080352
O O7 0.000000 0.500000 0.500000
O O8 0.835565 0.621504 0.475910
O O9 0.822864 0.250000 0.993557
O O10 0.000000 0.369742 0.971227
O O11 0.250000 0.250000 0.750000
O O12 0.245626 0.334454 0.849650
O O13 0.000000 0.250000 0.829007
O O14 0.750000 0.929515 0.250000
O O15 0.000000 0.913811 0.180010
#
# Coordination Sequence:
#
# PCOD9534330 Si02
#       6
#    16   8   8  16   8  16
#     4   9  17  29  47  72  93 124 163 205 242 275
#     4  10  20  34  54  75  95 124 168 196 232 288
#     4  10  18  28  46  76 102 121 145 194 246 284
#     4   9  17  31  51  72  94 125 168 202 230 278
#     4   8  14  26  40  60  88 114 152 192 242 286
#     4   9  17  27  43  67  93 124 159 204 248 288
#
# _framework density 24.364194999999999
#
# number of rings (size 3 to 8) (size 9 to 14) (size 15 to 20)
#    0.000    2.889    0.000    3.000    1.556    1.778 
#    0.000    0.000    0.000    2.667   34.667    0.000 
#    0.000    0.000    0.000    0.000    0.000    0.000 
#
# Total GULP energy -200946.339188 kJ/mol
# GULP energy per Si atom -5581.842755 kJ/mol
# Density = 2.430874 g / cm^3
# Si number density = 24.364195 Si / 1000 Ang^3
#
#
#
# Elastic Constant Matrix: (Units=GPa)
#
#
# Indices 1 2 3 4 5 6 
#
# 1 212.1805 99.2233 43.2408 0.0000 0.0000 0.0000
# 2 99.2233 192.6098 12.5145 0.0000 0.0000 0.0000
# 3 43.2408 12.5145 72.3021 0.0000 0.0000 0.0000
# 4 0.0000 0.0000 0.0000 -83.8251 0.0000 0.0000
# 5 0.0000 0.0000 0.0000 0.0000 -30.1409 0.0000
# 6 0.0000 0.0000 0.0000 0.0000 0.0000 -173.1384
#
#
#
# Elastic Compliance Matrix: (Units=1/GPa)
#
#
# Indices 1 2 3 4 5 6 
#
# 1 0.007036 -0.003389 -0.003621 0.000000 0.000000 0.000000
# 2 -0.003389 0.006884 0.000836 0.000000 0.000000 0.000000
# 3 -0.003621 0.000836 0.015852 0.000000 0.000000 0.000000
# 4 0.000000 0.000000 0.000000 -0.011930 0.000000 0.000000
# 5 0.000000 0.000000 0.000000 0.000000 -0.033177 0.000000
# 6 0.000000 0.000000 0.000000 0.000000 0.000000 -0.005776
#
#
# Mechanical properties :
#
#
# Convention : Reuss Voigt Hill
#
# Bulk Modulus (GPa) = 57.40052 87.44994 72.42523
# Shear Modulus (GPa) = -1692.44225 -35.94664 -864.19444
#
# Velocity S-wave (km/s) = -26.38468 -3.84525 -18.85387
# Velocity P-wave (km/s) = 30.07642 4.03190 21.07528
#
# Compressibility (1/GPa) = 0.01742144
#
# Stress axis : x y z
#
# Youngs Moduli (GPa) = 142.12833 145.27392 63.08373
#
# Poissons Ratio (x) = 0.49237 0.22844
# Poissons Ratio (y) = 0.48171 -0.05271
# Poissons Ratio (z) = 0.51468 -0.12138
#
# Static dielectric constant tensor:
#      x y z
#    x 1.975620 0.000000 0.000000 
#    y 0.000000 1.903320 0.000000 
#    z 0.000000 0.000000 2.028690 
# 
# From -- ./inp_files/70035.got.cif
#   From: 2010.05.17/outbox.cif.g08.bks.cpg/sg74_36_cif.got.tgz:70035.got - 2010.06.03 17:57:02.
