data_PCOD9534932
_publ_section_title
;
Structure prediction by ZEFSAII (Michael W. Deem and Ramdas Pophale) SiO2 
 PCOD9534932
Probable space group: I M M A
;
_chemical_formula_sum "Si O2"
_cell_formula_units_Z 56
_cell_length_a 8.772509
_cell_length_b 18.157947
_cell_length_c 17.852370
_cell_angle_alpha 90.000000
_cell_angle_beta 90.000000
_cell_angle_gamma 90.000000
_cell_volume 2843.717469
_symmetry_space_group_name_H-M "I M M A"
_symmetry_group_IT_number 74
_symmetry_cell_setting 'orthorhombic'
loop_
_space_group_symop_operation_xyz
x,y,z
-x,1/2-y,z
x,-y,-z
-x,1/2+y,-z
-x,-y,-z
x,1/2+y,-z
-x,y,z
x,1/2-y,z
1/2+x,1/2+y,1/2+z
1/2-x,-y,1/2+z
1/2+x,1/2-y,1/2-z
1/2-x,y,1/2-z
1/2-x,1/2-y,1/2-z
1/2+x,y,1/2-z
1/2-x,1/2+y,1/2+z
1/2+x,-y,1/2+z
loop_
_atom_site_type_symbol
_atom_site_label
_atom_site_fract_x
_atom_site_fract_y
_atom_site_fract_z
Si Si1 0.818797 0.750000 0.665187
Si Si2 0.678976 0.396102 0.332171
Si Si3 0.323067 0.470485 0.915135
Si Si4 0.817238 0.836854 0.167160
O O1 0.750000 0.750000 0.750000
O O2 0.757753 0.674763 0.629485
O O3 0.000000 0.750000 0.669050
O O4 0.500000 0.383050 0.327615
O O5 0.750000 0.401431 0.250000
O O6 0.719328 0.471648 0.371380
O O7 0.500000 0.474543 0.890522
O O8 0.259328 0.389961 0.894384
O O9 0.317830 0.500000 0.000000
O O10 0.786492 0.750000 0.153439
O O11 0.750000 0.854743 0.250000
O O12 0.000000 0.847496 0.168001
#
# Coordination Sequence:
#
# PCOD9534932 Si02
#       4
#     8  16  16  16
#     4  10  18  32  54  82 114 144 185 232 279 334
#     4  11  21  36  59  85 115 152 195 242 290 344
#     4  11  24  41  59  84 119 159 199 244 300 360
#     4  10  21  39  65  94 122 156 200 253 305 360
#
# _framework density 19.692533999999998
#
# number of rings (size 3 to 8) (size 9 to 14) (size 15 to 20)
#    0.000    1.429    0.000    8.143    0.000    4.000 
#    2.571    0.000    0.000    0.000    0.000    0.000 
#    0.000    0.000    0.000    0.000    0.000    0.000 
#
# Total GULP energy -156352.056752 kJ/mol
# GULP energy per Si atom -5584.002027 kJ/mol
# Density = 1.964771 g / cm^3
# Si number density = 19.692534 Si / 1000 Ang^3
#
#
#
# Elastic Constant Matrix: (Units=GPa)
#
#
# Indices 1 2 3 4 5 6 
#
# 1 165.4841 48.0401 23.9898 0.0000 0.0000 0.0000
# 2 48.0401 107.0080 28.9951 0.0000 0.0000 0.0000
# 3 23.9898 28.9951 36.3398 0.0000 0.0000 0.0000
# 4 0.0000 0.0000 0.0000 4.4408 0.0000 0.0000
# 5 0.0000 0.0000 0.0000 0.0000 22.7365 0.0000
# 6 0.0000 0.0000 0.0000 0.0000 0.0000 38.1792
#
#
#
# Elastic Compliance Matrix: (Units=1/GPa)
#
#
# Indices 1 2 3 4 5 6 
#
# 1 0.007159 -0.002467 -0.002758 0.000000 0.000000 0.000000
# 2 -0.002467 0.012773 -0.008563 0.000000 0.000000 0.000000
# 3 -0.002758 -0.008563 0.036171 0.000000 0.000000 0.000000
# 4 0.000000 0.000000 0.000000 0.225187 0.000000 0.000000
# 5 0.000000 0.000000 0.000000 0.000000 0.043982 0.000000
# 6 0.000000 0.000000 0.000000 0.000000 0.000000 0.026192
#
#
# Mechanical properties :
#
#
# Convention : Reuss Voigt Hill
#
# Bulk Modulus (GPa) = 35.05358 56.76463 45.90910
# Shear Modulus (GPa) = 12.86847 26.92509 19.89678
#
# Velocity S-wave (km/s) = 2.55908 3.70168 3.18208
# Velocity P-wave (km/s) = 5.15470 6.86716 6.07161
#
# Compressibility (1/GPa) = 0.02852776
#
# Stress axis : x y z
#
# Youngs Moduli (GPa) = 139.68992 78.29237 27.64664
#
# Poissons Ratio (x) = 0.19311 0.07624
# Poissons Ratio (y) = 0.34456 0.23673
# Poissons Ratio (z) = 0.38523 0.67040
#
# Static dielectric constant tensor:
#      x y z
#    x 1.662250 0.000000 0.000000 
#    y 0.000000 1.767040 0.000000 
#    z 0.000000 0.000000 1.604660 
# 
# From -- ./inp_files/28504.got.cif
#   From: 2010.05.17/outbox.cif.g08.bks.cpg/sg74_15_cif.got.tgz:28504.got - 2010.06.03 17:57:02.
