data_PCOD9534906
_publ_section_title
;
Structure prediction by ZEFSAII (Michael W. Deem and Ramdas Pophale) SiO2 
 PCOD9534906
Probable space group: I M M A
;
_chemical_formula_sum "Si O2"
_cell_formula_units_Z 56
_cell_length_a 5.442380
_cell_length_b 21.939735
_cell_length_c 22.419370
_cell_angle_alpha 90.000000
_cell_angle_beta 90.000000
_cell_angle_gamma 90.000000
_cell_volume 2676.970862
_symmetry_space_group_name_H-M "I M M A"
_symmetry_group_IT_number 74
_symmetry_cell_setting 'orthorhombic'
loop_
_space_group_symop_operation_xyz
x,y,z
-x,1/2-y,z
x,-y,-z
-x,1/2+y,-z
-x,-y,-z
x,1/2+y,-z
-x,y,z
x,1/2-y,z
1/2+x,1/2+y,1/2+z
1/2-x,-y,1/2+z
1/2+x,1/2-y,1/2-z
1/2-x,y,1/2-z
1/2-x,1/2-y,1/2-z
1/2+x,y,1/2-z
1/2-x,1/2+y,1/2+z
1/2+x,-y,1/2+z
loop_
_atom_site_type_symbol
_atom_site_label
_atom_site_fract_x
_atom_site_fract_y
_atom_site_fract_z
Si Si1 0.000000 0.426610 0.509654
Si Si2 0.500000 0.421083 0.715398
Si Si3 0.500000 0.250000 0.099188
Si Si4 0.000000 0.958280 0.850738
Si Si5 0.000000 0.113124 0.374383
Si Si6 0.500000 0.250000 0.394909
Si Si7 0.500000 0.680509 0.724256
Si Si8 0.500000 0.576479 0.420632
O O1 0.000000 0.500000 0.500000
O O2 0.751156 0.409671 0.544977
O O3 0.000000 0.394417 0.445861
O O4 0.250000 0.404953 0.750000
O O5 0.500000 0.494554 0.704226
O O6 0.500000 0.397369 0.646971
O O7 0.242507 0.250000 0.066832
O O8 0.500000 0.313661 0.135655
O O9 0.747097 0.920952 0.852991
O O10 0.000000 0.003189 0.908098
O O11 0.000000 0.805451 0.846815
O O12 0.500000 0.750000 0.748568
O O13 0.750000 0.652436 0.750000
#
# Coordination Sequence:
#
# PCOD9534906 Si02
#       8
#     8   8   4   8   8   4   8   8
#     4  12  17  33  54  82 105 129 160 229 260 312
#     4  10  18  32  53  78 112 140 163 205 263 330
#     4  12  26  37  50  70  94 146 174 209 268 304
#     4  10  20  35  55  79  99 135 183 208 258 321
#     4  12  23  37  54  73 108 136 180 225 261 310
#     4  10  18  35  50  62  84 120 164 209 246 314
#     4   8  13  24  48  70  74  94 140 210 281 296
#     4  10  20  29  53  88 102 128 175 196 272 318
#
# _framework density 20.919167000000002
#
# number of rings (size 3 to 8) (size 9 to 14) (size 15 to 20)
#    1.286    0.286    2.857    4.714    0.000    0.000 
#    0.000    0.000    0.000   34.286    0.000    0.000 
#    0.000    0.000    0.000   12.857    0.000    0.000 
#
# Total GULP energy -156073.268156 kJ/mol
# GULP energy per Si atom -5574.045291 kJ/mol
# Density = 2.087155 g / cm^3
# Si number density = 20.919167 Si / 1000 Ang^3
#
#
#
# Elastic Constant Matrix: (Units=GPa)
#
#
# Indices 1 2 3 4 5 6 
#
# 1 220.4926 -12.7497 38.2589 0.0000 0.0000 0.0000
# 2 -12.7497 28.3222 -3.1389 0.0000 0.0000 0.0000
# 3 38.2589 -3.1389 112.1299 0.0000 0.0000 0.0000
# 4 0.0000 0.0000 0.0000 15.3094 0.0000 0.0000
# 5 0.0000 0.0000 0.0000 0.0000 28.3055 0.0000
# 6 0.0000 0.0000 0.0000 0.0000 0.0000 5.2657
#
#
#
# Elastic Compliance Matrix: (Units=1/GPa)
#
#
# Indices 1 2 3 4 5 6 
#
# 1 0.004936 0.002042 -0.001627 0.000000 0.000000 0.000000
# 2 0.002042 0.036262 0.000319 0.000000 0.000000 0.000000
# 3 -0.001627 0.000319 0.009482 0.000000 0.000000 0.000000
# 4 0.000000 0.000000 0.000000 0.065320 0.000000 0.000000
# 5 0.000000 0.000000 0.000000 0.000000 0.035329 0.000000
# 6 0.000000 0.000000 0.000000 0.000000 0.000000 0.189909
#
#
# Mechanical properties :
#
#
# Convention : Reuss Voigt Hill
#
# Bulk Modulus (GPa) = 19.17672 45.07613 32.12643
# Shear Modulus (GPa) = 13.99957 32.34775 23.17366
#
# Velocity S-wave (km/s) = 2.58974 3.93659 3.33193
# Velocity P-wave (km/s) = 4.25785 6.50053 5.49483
#
# Compressibility (1/GPa) = 0.05214655
#
# Stress axis : x y z
#
# Youngs Moduli (GPa) = 202.60797 27.57686 105.46026
#
# Poissons Ratio (x) = -0.05630 0.17157
# Poissons Ratio (y) = -0.41363 -0.03359
# Poissons Ratio (z) = 0.32962 -0.00878
#
# Static dielectric constant tensor:
#      x y z
#    x 1.812810 0.000000 0.000000 
#    y 0.000000 1.802590 0.000000 
#    z 0.000000 0.000000 1.761800 
# 
# From -- ./inp_files/55949.got.cif
#   From: 2010.05.17/outbox.cif.g08.bks.cpg/sg74_28_cif.got.tgz:55949.got - 2010.06.03 17:57:02.
