data_PCOD9534540
_publ_section_title
;
Structure prediction by ZEFSAII (Michael W. Deem and Ramdas Pophale) SiO2 
 PCOD9534540
Probable space group: I M M A
;
_chemical_formula_sum "Si O2"
_cell_formula_units_Z 72
_cell_length_a 15.555291
_cell_length_b 7.449421
_cell_length_c 29.394683
_cell_angle_alpha 90.000000
_cell_angle_beta 90.000000
_cell_angle_gamma 90.000000
_cell_volume 3406.194473
_symmetry_space_group_name_H-M "I M M A"
_symmetry_group_IT_number 74
_symmetry_cell_setting 'orthorhombic'
loop_
_space_group_symop_operation_xyz
x,y,z
-x,1/2-y,z
x,-y,-z
-x,1/2+y,-z
-x,-y,-z
x,1/2+y,-z
-x,y,z
x,1/2-y,z
1/2+x,1/2+y,1/2+z
1/2-x,-y,1/2+z
1/2+x,1/2-y,1/2-z
1/2-x,y,1/2-z
1/2-x,1/2-y,1/2-z
1/2+x,y,1/2-z
1/2-x,1/2+y,1/2+z
1/2+x,-y,1/2+z
loop_
_atom_site_type_symbol
_atom_site_label
_atom_site_fract_x
_atom_site_fract_y
_atom_site_fract_z
Si Si1 0.599240 0.462412 0.049449
Si Si2 0.000000 0.467256 0.796478
Si Si3 0.500000 0.464785 0.554445
Si Si4 0.137491 0.469594 0.870779
Si Si5 0.500000 0.470422 0.807865
Si Si6 0.672310 0.548750 0.142742
O O1 0.500000 0.522990 0.048691
O O2 0.600823 0.250000 0.057733
O O3 0.645401 0.557464 0.090283
O O4 0.637130 0.500000 0.000000
O O5 0.080927 0.519486 0.827071
O O6 0.000000 0.250000 0.794834
O O7 0.000000 0.526622 0.744600
O O8 0.500000 0.250000 0.558658
O O9 0.500000 0.500000 0.500000
O O10 0.415767 0.526786 0.583782
O O11 0.141960 0.250000 0.873534
O O12 0.233500 0.536337 0.860605
O O13 0.500000 0.250000 0.811241
O O14 0.588624 0.531027 0.832030
O O15 0.683052 0.750000 0.162269
#
# Coordination Sequence:
#
# PCOD9534540 Si02
#       6
#    16   8   8  16   8  16
#     4  10  20  33  49  68  93 129 164 195 233 282
#     4   8  14  28  45  69  99 128 161 202 246 287
#     4   9  17  32  50  70  92 123 160 197 237 283
#     4   8  16  29  47  68  98 130 158 195 244 289
#     4   9  17  26  44  71 100 127 160 201 242 286
#     4  10  18  30  47  73 102 128 158 200 244 286
#
# _framework density 21.13796
#
# number of rings (size 3 to 8) (size 9 to 14) (size 15 to 20)
#    0.000    2.889    1.111    2.000    0.000    2.667 
#    0.000    7.778    0.000    0.000    0.000   10.889 
#    0.000    0.000    0.000    0.000    0.000    0.000 
#
# Total GULP energy -200592.994367 kJ/mol
# GULP energy per Si atom -5572.027621 kJ/mol
# Density = 2.108985 g / cm^3
# Si number density = 21.137960 Si / 1000 Ang^3
#
#
#
# Elastic Constant Matrix: (Units=GPa)
#
#
# Indices 1 2 3 4 5 6 
#
# 1 204.9310 8.5606 106.4828 0.0000 0.0000 0.0000
# 2 8.5606 66.3878 0.5367 0.0000 0.0000 0.0000
# 3 106.4828 0.5367 174.8887 0.0000 0.0000 0.0000
# 4 0.0000 0.0000 0.0000 9.5407 0.0000 0.0000
# 5 0.0000 0.0000 0.0000 0.0000 -2.5190 0.0000
# 6 0.0000 0.0000 0.0000 0.0000 0.0000 -6.7658
#
#
#
# Elastic Compliance Matrix: (Units=1/GPa)
#
#
# Indices 1 2 3 4 5 6 
#
# 1 0.007190 -0.000892 -0.004375 0.000000 0.000000 0.000000
# 2 -0.000892 0.015174 0.000496 0.000000 0.000000 0.000000
# 3 -0.004375 0.000496 0.008380 0.000000 0.000000 0.000000
# 4 0.000000 0.000000 0.000000 0.104814 0.000000 0.000000
# 5 0.000000 0.000000 0.000000 0.000000 -0.396986 0.000000
# 6 0.000000 0.000000 0.000000 0.000000 0.000000 -0.147802
#
#
# Mechanical properties :
#
#
# Convention : Reuss Voigt Hill
#
# Bulk Modulus (GPa) = 47.16211 75.26308 61.21259
# Shear Modulus (GPa) = -12.73494 22.09301 4.67904
#
# Velocity S-wave (km/s) = -2.45718 3.23643 1.48942
# Velocity P-wave (km/s) = 3.78281 7.04620 5.65503
#
# Compressibility (1/GPa) = 0.02120346
#
# Stress axis : x y z
#
# Youngs Moduli (GPa) = 139.07660 65.90224 119.32818
#
# Poissons Ratio (x) = 0.05877 0.52208
# Poissons Ratio (y) = 0.12403 -0.05924
# Poissons Ratio (z) = 0.60848 -0.03271
#
# Static dielectric constant tensor:
#      x y z
#    x 1.880320 0.000000 0.000000 
#    y 0.000000 1.869850 0.000000 
#    z 0.000000 0.000000 1.725210 
# 
# From -- ./inp_files/72304.got.cif
#   From: 2010.05.17/outbox.cif.g08.bks.cpg/sg74_37_cif.got.tgz:72304.got - 2010.06.03 17:57:02.
