data_PCOD9534790
_publ_section_title
;
Structure prediction by ZEFSAII (Michael W. Deem and Ramdas Pophale) SiO2 
 PCOD9534790
Probable space group: I M M A
;
_chemical_formula_sum "Si O2"
_cell_formula_units_Z 96
_cell_length_a 18.779100
_cell_length_b 28.409390
_cell_length_c 10.501185
_cell_angle_alpha 90.000000
_cell_angle_beta 90.000000
_cell_angle_gamma 90.000000
_cell_volume 5602.411346
_symmetry_space_group_name_H-M "I M M A"
_symmetry_group_IT_number 74
_symmetry_cell_setting 'orthorhombic'
loop_
_space_group_symop_operation_xyz
x,y,z
-x,1/2-y,z
x,-y,-z
-x,1/2+y,-z
-x,-y,-z
x,1/2+y,-z
-x,y,z
x,1/2-y,z
1/2+x,1/2+y,1/2+z
1/2-x,-y,1/2+z
1/2+x,1/2-y,1/2-z
1/2-x,y,1/2-z
1/2-x,1/2-y,1/2-z
1/2+x,y,1/2-z
1/2-x,1/2+y,1/2+z
1/2+x,-y,1/2+z
loop_
_atom_site_type_symbol
_atom_site_label
_atom_site_fract_x
_atom_site_fract_y
_atom_site_fract_z
Si Si1 0.350503 0.652920 0.349892
Si Si2 0.192728 0.806638 0.402348
Si Si3 0.825573 0.193786 0.309351
Si Si4 0.189677 0.449359 0.855153
Si Si5 0.083195 0.858214 0.887159
Si Si6 0.689695 0.945228 0.642455
O O1 0.268991 0.667558 0.384991
O O2 0.358022 0.596607 0.334811
O O3 0.396568 0.663748 0.474747
O O4 0.279381 0.555154 0.498481
O O5 0.203707 0.750000 0.396113
O O6 0.167240 0.820002 0.543248
O O7 0.141412 0.822134 0.286643
O O8 0.822926 0.250000 0.306274
O O9 0.750000 0.176662 0.250000
O O10 0.889177 0.176274 0.222180
O O11 0.250000 0.445971 0.750000
O O12 0.158482 0.501857 0.842051
O O13 0.129716 0.905341 0.862257
O O14 0.000000 0.867628 0.881482
O O15 0.750000 0.938094 0.750000
#
# Coordination Sequence:
#
# PCOD9534790 Si02
#       6
#    16  16  16  16  16  16
#     4  10  18  31  53  80 111 133 177 220 268 317
#     4  10  19  32  56  83 107 134 171 224 273 316
#     4  10  20  35  56  82 108 137 179 228 273 318
#     4   9  16  29  49  82 105 130 171 226 271 307
#     4  11  23  36  52  77 112 150 182 218 270 325
#     4   9  19  32  52  76 106 136 180 221 270 310
#
# _framework density 17.135479
#
# number of rings (size 3 to 8) (size 9 to 14) (size 15 to 20)
#    0.000    2.167    3.333    1.500    2.333    1.000 
#    0.000    7.500    0.000    1.000    0.000   15.167 
#    0.000    0.000    0.000    0.000    0.000    0.000 
#
# Total GULP energy -267202.753766 kJ/mol
# GULP energy per Si atom -5566.724037 kJ/mol
# Density = 1.709648 g / cm^3
# Si number density = 17.135479 Si / 1000 Ang^3
#
#
#
# Elastic Constant Matrix: (Units=GPa)
#
#
# Indices 1 2 3 4 5 6 
#
# 1 68.7693 14.6945 50.1431 0.0000 0.0000 0.0000
# 2 14.6945 56.4401 40.9058 0.0000 0.0000 0.0000
# 3 50.1431 40.9058 152.7226 0.0000 0.0000 0.0000
# 4 0.0000 0.0000 0.0000 25.4434 0.0000 0.0000
# 5 0.0000 0.0000 0.0000 0.0000 12.9000 0.0000
# 6 0.0000 0.0000 0.0000 0.0000 0.0000 6.1907
#
#
#
# Elastic Compliance Matrix: (Units=1/GPa)
#
#
# Indices 1 2 3 4 5 6 
#
# 1 0.019131 -0.000532 -0.006139 0.000000 0.000000 0.000000
# 2 -0.000532 0.022001 -0.005718 0.000000 0.000000 0.000000
# 3 -0.006139 -0.005718 0.010095 0.000000 0.000000 0.000000
# 4 0.000000 0.000000 0.000000 0.039303 0.000000 0.000000
# 5 0.000000 0.000000 0.000000 0.000000 0.077519 0.000000
# 6 0.000000 0.000000 0.000000 0.000000 0.000000 0.161532
#
#
# Mechanical properties :
#
#
# Convention : Reuss Voigt Hill
#
# Bulk Modulus (GPa) = 37.80815 54.37989 46.09402
# Shear Modulus (GPa) = 13.76748 20.38608 17.07678
#
# Velocity S-wave (km/s) = 2.83759 3.45294 3.16028
# Velocity P-wave (km/s) = 5.73132 6.90661 6.34623
#
# Compressibility (1/GPa) = 0.02644932
#
# Stress axis : x y z
#
# Youngs Moduli (GPa) = 52.27074 45.45322 99.05918
#
# Poissons Ratio (x) = 0.02416 0.60811
# Poissons Ratio (y) = 0.02779 0.56644
# Poissons Ratio (z) = 0.32088 0.25991
#
# Static dielectric constant tensor:
#      x y z
#    x 1.535610 0.000000 0.000000 
#    y 0.000000 1.640620 0.000000 
#    z 0.000000 0.000000 1.616370 
# 
# From -- ./inp_files/24271.got.cif
#   From: 2010.05.17/outbox.cif.g08.bks.cpg/sg74_13_cif.got.tgz:24271.got - 2010.06.03 17:57:02.
