data_PCOD9534589
_publ_section_title
;
Structure prediction by ZEFSAII (Michael W. Deem and Ramdas Pophale) SiO2 
 PCOD9534589
Probable space group: I M M A
;
_chemical_formula_sum "Si O2"
_cell_formula_units_Z 72
_cell_length_a 8.830426
_cell_length_b 33.233310
_cell_length_c 14.977447
_cell_angle_alpha 90.000000
_cell_angle_beta 90.000000
_cell_angle_gamma 90.000000
_cell_volume 4395.345770
_symmetry_space_group_name_H-M "I M M A"
_symmetry_group_IT_number 74
_symmetry_cell_setting 'orthorhombic'
loop_
_space_group_symop_operation_xyz
x,y,z
-x,1/2-y,z
x,-y,-z
-x,1/2+y,-z
-x,-y,-z
x,1/2+y,-z
-x,y,z
x,1/2-y,z
1/2+x,1/2+y,1/2+z
1/2-x,-y,1/2+z
1/2+x,1/2-y,1/2-z
1/2-x,y,1/2-z
1/2-x,1/2-y,1/2-z
1/2+x,y,1/2-z
1/2-x,1/2+y,1/2+z
1/2+x,-y,1/2+z
loop_
_atom_site_type_symbol
_atom_site_label
_atom_site_fract_x
_atom_site_fract_y
_atom_site_fract_z
Si Si1 0.318537 0.250000 0.850265
Si Si2 0.680368 0.590485 0.472497
Si Si3 0.681308 0.332611 0.651003
Si Si4 0.319091 0.975440 0.154485
Si Si5 0.680695 0.929685 0.845165
O O1 0.500000 0.250000 0.848132
O O2 0.250000 0.250000 0.750000
O O3 0.254744 0.208201 0.888154
O O4 0.500000 0.585789 0.478370
O O5 0.713099 0.629436 0.411834
O O6 0.750728 0.552039 0.422492
O O7 0.749874 0.593234 0.570849
O O8 0.500000 0.327489 0.659338
O O9 0.750000 0.339360 0.750000
O O10 0.500000 0.970961 0.156476
O O11 0.250000 0.963016 0.250000
O O12 0.283418 0.022658 0.141927
O O13 0.500000 0.925659 0.843225
O O14 0.750000 0.917652 0.750000
#
# Coordination Sequence:
#
# PCOD9534589 Si02
#       5
#     8  16  16  16  16
#     4  10  18  30  50  72  97 130 161 190 230 282
#     4  11  22  33  49  73  99 129 164 203 245 288
#     4  10  20  33  49  72 102 132 161 194 234 283
#     4  10  20  33  49  70  97 130 165 203 247 291
#     4  10  21  36  52  69  93 127 167 209 250 291
#
# _framework density 16.380965
#
# number of rings (size 3 to 8) (size 9 to 14) (size 15 to 20)
#    0.000    1.778    0.000    6.333    0.000   10.667 
#    0.000    0.000    0.000    0.000    0.000    0.778 
#    0.000    0.000    0.000    0.000    0.000    0.000 
#
# Total GULP energy -201049.184994 kJ/mol
# GULP energy per Si atom -5584.699583 kJ/mol
# Density = 1.634368 g / cm^3
# Si number density = 16.380965 Si / 1000 Ang^3
#
#
#
# Elastic Constant Matrix: (Units=GPa)
#
#
# Indices 1 2 3 4 5 6 
#
# 1 73.0666 47.3802 50.2204 0.0000 0.0000 -0.0002
# 2 47.3802 57.9484 49.0931 0.0000 0.0000 -0.0003
# 3 50.2204 49.0931 117.6229 0.0001 0.0000 -0.0047
# 4 0.0000 0.0000 0.0001 9.5922 0.0000 -0.0012
# 5 0.0000 0.0000 0.0000 0.0000 30.0430 -0.0002
# 6 -0.0002 -0.0003 -0.0047 -0.0012 -0.0002-1485.1783
#
#
#
# Elastic Compliance Matrix: (Units=1/GPa)
#
#
# Indices 1 2 3 4 5 6 
#
# 1 0.030311 -0.021379 -0.004019 0.000000 0.000000 0.000000
# 2 -0.021379 0.041775 -0.008308 0.000000 0.000000 0.000000
# 3 -0.004019 -0.008308 0.013685 0.000000 0.000000 0.000000
# 4 0.000000 0.000000 0.000000 0.104251 0.000000 0.000000
# 5 0.000000 0.000000 0.000000 0.000000 0.033286 0.000000
# 6 0.000000 0.000000 0.000000 0.000000 0.000000 -0.000673
#
#
# Mechanical properties :
#
#
# Convention : Reuss Voigt Hill
#
# Bulk Modulus (GPa) = 54.46485 60.22504 57.34495
# Shear Modulus (GPa) = 16.88237 -282.31236 -132.71499
#
# Velocity S-wave (km/s) = 3.21379 -13.14214 -9.01075
# Velocity P-wave (km/s) = 6.86239 13.90837 8.55425
#
# Compressibility (1/GPa) = 0.01836047
#
# Stress axis : x y z
#
# Youngs Moduli (GPa) = 32.99079 23.93768 73.07151
#
# Poissons Ratio (x) = 0.51176 0.29366
# Poissons Ratio (y) = 0.70530 0.60708
# Poissons Ratio (z) = 0.13258 0.19888
#
# Static dielectric constant tensor:
#      x y z
#    x 1.543380 0.000000 0.000000 
#    y 0.000000 1.565190 0.000000 
#    z 0.000000 0.000000 1.536920 
# 
# From -- ./inp_files/29382.got.cif
#   From: 2010.05.17/outbox.cif.g08.bks.cpg/sg74_15_cif.got.tgz:29382.got - 2010.06.03 17:57:02.
