data_PCOD9534663
_publ_section_title
;
Structure prediction by ZEFSAII (Michael W. Deem and Ramdas Pophale) SiO2 
 PCOD9534663
Probable space group: I M M A
;
_chemical_formula_sum "Si O2"
_cell_formula_units_Z 80
_cell_length_a 17.932661
_cell_length_b 18.657939
_cell_length_c 14.575070
_cell_angle_alpha 90.000000
_cell_angle_beta 90.000000
_cell_angle_gamma 90.000000
_cell_volume 4876.621586
_symmetry_space_group_name_H-M "I M M A"
_symmetry_group_IT_number 74
_symmetry_cell_setting 'orthorhombic'
loop_
_space_group_symop_operation_xyz
x,y,z
-x,1/2-y,z
x,-y,-z
-x,1/2+y,-z
-x,-y,-z
x,1/2+y,-z
-x,y,z
x,1/2-y,z
1/2+x,1/2+y,1/2+z
1/2-x,-y,1/2+z
1/2+x,1/2-y,1/2-z
1/2-x,y,1/2-z
1/2-x,1/2-y,1/2-z
1/2+x,y,1/2-z
1/2-x,1/2+y,1/2+z
1/2+x,-y,1/2+z
loop_
_atom_site_type_symbol
_atom_site_label
_atom_site_fract_x
_atom_site_fract_y
_atom_site_fract_z
Si Si1 0.723534 0.945534 0.352920
Si Si2 0.818986 0.830667 0.815863
Si Si3 0.225960 0.831583 0.501900
Si Si4 0.914478 0.466781 0.210855
Si Si5 0.141950 0.043825 0.414454
O O1 0.750000 0.928166 0.250000
O O2 0.740104 0.878909 0.419424
O O3 0.640728 0.977303 0.339956
O O4 0.776741 0.008957 0.391564
O O5 0.839692 0.750000 0.786125
O O6 0.750000 0.854234 0.750000
O O7 0.786877 0.827779 0.917774
O O8 0.884309 0.887659 0.812222
O O9 0.206203 0.750000 0.475770
O O10 0.158171 0.876213 0.548918
O O11 0.902968 0.468395 0.321320
O O12 0.000000 0.478048 0.186976
O O13 0.109808 0.000000 0.500000
#
# Coordination Sequence:
#
# PCOD9534663 Si02
#       5
#    16  16  16  16  16
#     4   9  18  34  51  73 100 130 172 212 248 292
#     4  10  18  31  50  72 100 131 167 205 247 298
#     4  10  18  30  55  77  94 127 172 215 253 289
#     4  11  20  31  49  74 105 138 166 198 252 308
#     4   9  17  32  53  73  98 126 168 218 256 293
#
# _framework density 16.404799000000001
#
# number of rings (size 3 to 8) (size 9 to 14) (size 15 to 20)
#    0.000    2.200    4.000    0.600    0.000    1.200 
#    0.000    2.000    0.000    1.800    0.000    0.000 
#    0.000    0.000    0.000    0.000    0.000    0.000 
#
# Total GULP energy -222798.310653 kJ/mol
# GULP energy per Si atom -5569.957766 kJ/mol
# Density = 1.636746 g / cm^3
# Si number density = 16.404799 Si / 1000 Ang^3
#
#
#
# Elastic Constant Matrix: (Units=GPa)
#
#
# Indices 1 2 3 4 5 6 
#
# 1 65.5810 16.0475 -4.0449 0.0000 0.0000 0.0000
# 2 16.0475 101.5007 20.8705 0.0000 0.0000 0.0000
# 3 -4.0449 20.8705 58.7180 0.0000 0.0000 0.0000
# 4 0.0000 0.0000 0.0000 22.0659 0.0000 0.0000
# 5 0.0000 0.0000 0.0000 0.0000 10.0570 0.0000
# 6 0.0000 0.0000 0.0000 0.0000 0.0000 10.9622
#
#
#
# Elastic Compliance Matrix: (Units=1/GPa)
#
#
# Indices 1 2 3 4 5 6 
#
# 1 0.016115 -0.002995 0.002175 0.000000 0.000000 0.000000
# 2 -0.002995 0.011186 -0.004182 0.000000 0.000000 0.000000
# 3 0.002175 -0.004182 0.018667 0.000000 0.000000 0.000000
# 4 0.000000 0.000000 0.000000 0.045319 0.000000 0.000000
# 5 0.000000 0.000000 0.000000 0.000000 0.099433 0.000000
# 6 0.000000 0.000000 0.000000 0.000000 0.000000 0.091222
#
#
# Mechanical properties :
#
#
# Convention : Reuss Voigt Hill
#
# Bulk Modulus (GPa) = 27.80645 32.39399 30.10022
# Shear Modulus (GPa) = 16.45093 21.47881 18.96487
#
# Velocity S-wave (km/s) = 3.17016 3.62235 3.40377
# Velocity P-wave (km/s) = 5.51243 6.10612 5.81685
#
# Compressibility (1/GPa) = 0.03596288
#
# Stress axis : x y z
#
# Youngs Moduli (GPa) = 62.05271 89.40079 53.57095
#
# Poissons Ratio (x) = 0.26776 -0.11650
# Poissons Ratio (y) = 0.18585 0.22404
# Poissons Ratio (z) = -0.13494 0.37388
#
# Static dielectric constant tensor:
#      x y z
#    x 1.539230 0.000000 0.000000 
#    y 0.000000 1.587990 0.000000 
#    z 0.000000 0.000000 1.581970 
# 
# From -- ./inp_files/32107.got.cif
#   From: 2010.05.17/outbox.cif.g08.bks.cpg/sg74_17_cif.got.tgz:32107.got - 2010.06.03 17:57:02.
