data_PCOD9534976
_publ_section_title
;
Structure prediction by ZEFSAII (Michael W. Deem and Ramdas Pophale) SiO2 
 PCOD9534976
Probable space group: I M M A
;
_chemical_formula_sum "Si O2"
_cell_formula_units_Z 52
_cell_length_a 13.696709
_cell_length_b 22.711859
_cell_length_c 7.169640
_cell_angle_alpha 90.000000
_cell_angle_beta 90.000000
_cell_angle_gamma 90.000000
_cell_volume 2230.315290
_symmetry_space_group_name_H-M "I M M A"
_symmetry_group_IT_number 74
_symmetry_cell_setting 'orthorhombic'
loop_
_space_group_symop_operation_xyz
x,y,z
-x,1/2-y,z
x,-y,-z
-x,1/2+y,-z
-x,-y,-z
x,1/2+y,-z
-x,y,z
x,1/2-y,z
1/2+x,1/2+y,1/2+z
1/2-x,-y,1/2+z
1/2+x,1/2-y,1/2-z
1/2-x,y,1/2-z
1/2-x,1/2-y,1/2-z
1/2+x,y,1/2-z
1/2-x,1/2+y,1/2+z
1/2+x,-y,1/2+z
loop_
_atom_site_type_symbol
_atom_site_label
_atom_site_fract_x
_atom_site_fract_y
_atom_site_fract_z
Si Si1 0.780370 0.123314 0.531103
Si Si2 0.000000 0.250000 0.831624
Si Si3 0.827961 0.500000 0.000000
Si Si4 0.500000 0.513322 0.220893
Si Si5 0.288716 0.250000 0.534572
Si Si6 0.500000 0.633213 0.092558
O O1 0.750000 0.127048 0.750000
O O2 0.735160 0.059664 0.484972
O O3 0.743730 0.186611 0.455295
O O4 0.896591 0.123674 0.493429
O O5 0.095371 0.250000 0.955576
O O6 0.000000 0.305062 0.693854
O O7 0.901548 0.494829 0.175947
O O8 0.500000 0.583548 0.250400
O O9 0.500000 0.500000 0.000000
O O10 0.250000 0.250000 0.750000
#
# Coordination Sequence:
#
# PCOD9534976 Si02
#       6
#    16   4   8   8   8   8
#     4  11  21  36  61  97 137 181 234 291 356 424
#     4  12  16  30  58  90 132 176 224 298 340 416
#     4  11  24  43  66  98 140 177 224 295 352 414
#     4  11  25  44  67  96 132 180 234 279 348 422
#     4  10  18  32  56  95 136 182 235 293 349 419
#     4  12  21  35  61  94 133 176 233 280 352 425
#
# _framework density 23.315090000000001
#
# number of rings (size 3 to 8) (size 9 to 14) (size 15 to 20)
#    0.000    0.923    9.231    0.000    2.154    1.231 
#    0.000    0.000    0.000    1.846    0.000    5.385 
#    0.000    0.000    0.000    0.000    0.000    0.000 
#
# Total GULP energy -145141.585608 kJ/mol
# GULP energy per Si atom -5582.368677 kJ/mol
# Density = 2.326202 g / cm^3
# Si number density = 23.315090 Si / 1000 Ang^3
#
#
#
# Elastic Constant Matrix: (Units=GPa)
#
#
# Indices 1 2 3 4 5 6 
#
# 1 257.7546 128.3280 41.7259 -0.0001 -0.0001 0.0002
# 2 128.3280 282.9816 39.6971 0.0000 -0.0001 -0.0001
# 3 41.7259 39.6971 107.5325 0.0001 -0.0020 0.0009
# 4 -0.0001 0.0000 0.0001 10.3276 -0.0005 -0.0003
# 5 -0.0001 -0.0001 -0.0020 -0.0005 4.5732 -0.0001
# 6 0.0002 -0.0001 0.0009 -0.0003 -0.0001 50.8030
#
#
#
# Elastic Compliance Matrix: (Units=1/GPa)
#
#
# Indices 1 2 3 4 5 6 
#
# 1 0.005154 -0.002169 -0.001199 0.000000 0.000000 0.000000
# 2 -0.002169 0.004640 -0.000871 0.000000 0.000000 0.000000
# 3 -0.001199 -0.000871 0.010086 0.000000 0.000004 0.000000
# 4 0.000000 0.000000 0.000000 0.096828 0.000010 0.000001
# 5 0.000000 0.000000 0.000004 0.000010 0.218667 0.000000
# 6 0.000000 0.000000 0.000000 0.000001 0.000000 0.019684
#
#
# Mechanical properties :
#
#
# Convention : Reuss Voigt Hill
#
# Bulk Modulus (GPa) = 87.70927 118.64120 103.17523
# Shear Modulus (GPa) = 13.61146 42.37526 27.99336
#
# Velocity S-wave (km/s) = 2.41883 4.26784 3.46881
# Velocity P-wave (km/s) = 6.74550 8.67655 7.77124
#
# Compressibility (1/GPa) = 0.01140130
#
# Stress axis : x y z
#
# Youngs Moduli (GPa) = 194.03987 215.53782 99.14341
#
# Poissons Ratio (x) = 0.46747 0.11888
# Poissons Ratio (y) = 0.42085 0.08637
# Poissons Ratio (z) = 0.23267 0.18777
#
# Static dielectric constant tensor:
#      x y z
#    x 2.525160 0.000000 -0.000010 
#    y 0.000000 1.904730 0.000000 
#    z -0.000010 0.000000 1.932330 
# 
# From -- ./inp_files/8391.got.cif
#   From: 2010.05.17/outbox.cif.g08.bks.cpg/sg74_5_cif.got.tgz:8391.got - 2010.06.03 17:57:02.
