data_PCOD9534123
_publ_section_title
;
Structure prediction by ZEFSAII (Michael W. Deem and Ramdas Pophale) SiO2 
 PCOD9534123
Probable space group: I M M A
;
_chemical_formula_sum "Si O2"
_cell_formula_units_Z 60
_cell_length_a 30.462338
_cell_length_b 5.452479
_cell_length_c 18.010059
_cell_angle_alpha 90.000000
_cell_angle_beta 90.000000
_cell_angle_gamma 90.000000
_cell_volume 2991.385400
_symmetry_space_group_name_H-M "I M M A"
_symmetry_group_IT_number 74
_symmetry_cell_setting 'orthorhombic'
loop_
_space_group_symop_operation_xyz
x,y,z
-x,1/2-y,z
x,-y,-z
-x,1/2+y,-z
-x,-y,-z
x,1/2+y,-z
-x,y,z
x,1/2-y,z
1/2+x,1/2+y,1/2+z
1/2-x,-y,1/2+z
1/2+x,1/2-y,1/2-z
1/2-x,y,1/2-z
1/2-x,1/2-y,1/2-z
1/2+x,y,1/2-z
1/2-x,1/2+y,1/2+z
1/2+x,-y,1/2+z
loop_
_atom_site_type_symbol
_atom_site_label
_atom_site_fract_x
_atom_site_fract_y
_atom_site_fract_z
Si Si1 0.753527 0.250000 0.044928
Si Si2 0.832483 0.750000 0.850782
Si Si3 0.423429 0.750000 0.835562
Si Si4 0.447557 0.250000 0.747922
Si Si5 0.365827 0.750000 0.343067
Si Si6 0.649108 0.250000 0.046291
Si Si7 0.104843 0.750000 0.995681
Si Si8 0.000000 0.250000 0.454185
O O1 0.783761 0.250000 0.117360
O O2 0.701488 0.250000 0.058947
O O3 0.763842 0.500000 0.000000
O O4 0.843864 0.495403 0.811604
O O5 0.866367 0.750000 0.921144
O O6 0.433520 0.500298 0.790376
O O7 0.376542 0.750000 0.875981
O O8 0.457606 0.750000 0.902910
O O9 0.500000 0.250000 0.737668
O O10 0.417395 0.250000 0.674790
O O11 0.362472 0.750000 0.432993
O O12 0.638264 0.500000 0.000000
O O13 0.078699 0.500000 0.000000
O O14 0.000000 0.500000 0.500000
#
# Coordination Sequence:
#
# PCOD9534123 Si02
#       8
#     8   8   8   8   8   8   8   4
#     4  10  18  30  54  87 121 149 179 222 281 347
#     4  10  17  31  54  85 113 141 183 236 281 324
#     4  12  23  41  60  82 116 146 187 237 283 343
#     4  12  24  42  59  79 108 151 203 236 278 337
#     4  10  20  32  54  79 108 147 190 236 276 326
#     4  10  21  37  58  88 119 149 177 220 290 354
#     4   8  14  25  45  73 102 127 165 219 274 309
#     4  12  22  36  62  90 110 134 174 236 296 338
#
# _framework density 20.057597999999999
#
# number of rings (size 3 to 8) (size 9 to 14) (size 15 to 20)
#    0.000    1.600    1.333    6.400    0.000    0.000 
#    0.000    0.000    0.000   12.000    0.000    0.000 
#    0.000    0.000    0.000    0.000    0.000    0.000 
#
# Total GULP energy -167274.855888 kJ/mol
# GULP energy per Si atom -5575.828530 kJ/mol
# Density = 2.001195 g / cm^3
# Si number density = 20.057598 Si / 1000 Ang^3
#
#
#
# Elastic Constant Matrix: (Units=GPa)
#
#
# Indices 1 2 3 4 5 6 
#
# 1 84.8199 34.2007 16.1984 0.0000 0.0000 0.0000
# 2 34.2007 216.3805 11.4641 0.0000 0.0000 0.0000
# 3 16.1984 11.4641 19.4125 0.0000 0.0000 0.0000
# 4 0.0000 0.0000 0.0000 0.3231 0.0000 0.0000
# 5 0.0000 0.0000 0.0000 0.0000 45.2467 0.0000
# 6 0.0000 0.0000 0.0000 0.0000 0.0000 37.5999
#
#
#
# Elastic Compliance Matrix: (Units=1/GPa)
#
#
# Indices 1 2 3 4 5 6 
#
# 1 0.014618 -0.001718 -0.011183 0.000000 0.000000 0.000000
# 2 -0.001718 0.004973 -0.001503 0.000000 0.000000 0.000000
# 3 -0.011183 -0.001503 0.061732 0.000000 0.000000 0.000000
# 4 0.000000 0.000000 0.000000 3.094681 0.000000 0.000000
# 5 0.000000 0.000000 0.000000 0.000000 0.022101 0.000000
# 6 0.000000 0.000000 0.000000 0.000000 0.000000 0.026596
#
#
# Mechanical properties :
#
#
# Convention : Reuss Voigt Hill
#
# Bulk Modulus (GPa) = 19.04231 49.37102 34.20667
# Shear Modulus (GPa) = 1.52858 33.88391 17.70625
#
# Velocity S-wave (km/s) = 0.87393 4.11461 2.97437
# Velocity P-wave (km/s) = 3.24542 6.87324 5.37467
#
# Compressibility (1/GPa) = 0.05251463
#
# Stress axis : x y z
#
# Youngs Moduli (GPa) = 68.40824 201.09923 16.19895
#
# Poissons Ratio (x) = 0.34549 0.18116
# Poissons Ratio (y) = 0.11753 0.02435
# Poissons Ratio (z) = 0.76502 0.30226
#
# Static dielectric constant tensor:
#      x y z
#    x 1.657190 0.000000 0.000000 
#    y 0.000000 1.739710 0.000000 
#    z 0.000000 0.000000 1.716810 
# 
# From -- ./inp_files/46377.got.cif
#   From: 2010.05.17/outbox.cif.g08.bks.cpg/sg74_24_cif.got.tgz:46377.got - 2010.06.03 17:57:02.
