data_PCOD9534189
_publ_section_title
;
Structure prediction by ZEFSAII (Michael W. Deem and Ramdas Pophale) SiO2 
 PCOD9534189
Probable space group: I M M A
;
_chemical_formula_sum "Si O2"
_cell_formula_units_Z 80
_cell_length_a 7.499097
_cell_length_b 25.965328
_cell_length_c 21.225437
_cell_angle_alpha 90.000000
_cell_angle_beta 90.000000
_cell_angle_gamma 90.000000
_cell_volume 4132.943086
_symmetry_space_group_name_H-M "I M M A"
_symmetry_group_IT_number 74
_symmetry_cell_setting 'orthorhombic'
loop_
_space_group_symop_operation_xyz
x,y,z
-x,1/2-y,z
x,-y,-z
-x,1/2+y,-z
-x,-y,-z
x,1/2+y,-z
-x,y,z
x,1/2-y,z
1/2+x,1/2+y,1/2+z
1/2-x,-y,1/2+z
1/2+x,1/2-y,1/2-z
1/2-x,y,1/2-z
1/2-x,1/2-y,1/2-z
1/2+x,y,1/2-z
1/2-x,1/2+y,1/2+z
1/2+x,-y,1/2+z
loop_
_atom_site_type_symbol
_atom_site_label
_atom_site_fract_x
_atom_site_fract_y
_atom_site_fract_z
Si Si1 0.718444 0.138973 0.144586
Si Si2 0.286441 0.139556 0.997974
Si Si3 0.700602 0.250000 0.158454
Si Si4 0.712941 0.472763 0.180911
Si Si5 0.217818 0.465073 0.559879
Si Si6 0.703525 0.750000 0.515597
O O1 0.500000 0.141250 0.146169
O O2 0.782428 0.193876 0.172051
O O3 0.779757 0.086239 0.176494
O O4 0.772190 0.134418 0.070968
O O5 0.500000 0.135696 0.999554
O O6 0.220869 0.092824 0.955119
O O7 0.239464 0.197497 0.978818
O O8 0.500000 0.250000 0.184727
O O9 0.689493 0.250000 0.081456
O O10 0.500000 0.469384 0.172704
O O11 0.750000 0.493904 0.250000
O O12 0.780567 0.507983 0.123860
O O13 0.266505 0.500000 0.500000
O O14 0.000000 0.464326 0.562097
O O15 0.500000 0.750000 0.536322
#
# Coordination Sequence:
#
# PCOD9534189 Si02
#       6
#    16  16   8  16  16   8
#     4   8  13  24  44  65  86 113 153 196 229 260
#     4   9  15  27  48  70  88 115 157 200 230 260
#     4   8  14  26  45  65  81 113 163 207 230 251
#     4  10  19  31  46  67  95 125 154 192 238 282
#     4   9  15  27  51  75  90 113 161 209 232 258
#     4  10  18  26  38  65 102 127 141 175 237 295
#
# _framework density 19.356666000000001
#
# number of rings (size 3 to 8) (size 9 to 14) (size 15 to 20)
#    0.000    3.000    2.000    2.100    0.000    0.000 
#    0.000    5.500    0.000    1.200    0.000    0.700 
#    0.000    0.000    0.000    0.000    0.000    0.000 
#
# Total GULP energy -223040.650503 kJ/mol
# GULP energy per Si atom -5576.016263 kJ/mol
# Density = 1.931261 g / cm^3
# Si number density = 19.356666 Si / 1000 Ang^3
#
#
#
# Elastic Constant Matrix: (Units=GPa)
#
#
# Indices 1 2 3 4 5 6 
#
# 1 53.7142 -0.1680 0.6714 0.0000 0.0000 0.0000
# 2 -0.1680 162.5815 76.5393 0.0000 0.0000 0.0000
# 3 0.6714 76.5393 110.2224 0.0000 0.0000 0.0000
# 4 0.0000 0.0000 0.0000 11.7295 0.0000 0.0000
# 5 0.0000 0.0000 0.0000 0.0000 5.8643 0.0000
# 6 0.0000 0.0000 0.0000 0.0000 0.0000 15.6578
#
#
#
# Elastic Compliance Matrix: (Units=1/GPa)
#
#
# Indices 1 2 3 4 5 6 
#
# 1 0.018620 0.000108 -0.000188 0.000000 0.000000 0.000000
# 2 0.000108 0.009139 -0.006347 0.000000 0.000000 0.000000
# 3 -0.000188 -0.006347 0.013481 0.000000 0.000000 0.000000
# 4 0.000000 0.000000 0.000000 0.085255 0.000000 0.000000
# 5 0.000000 0.000000 0.000000 0.000000 0.170523 0.000000
# 6 0.000000 0.000000 0.000000 0.000000 0.000000 0.063866
#
#
# Mechanical properties :
#
#
# Convention : Reuss Voigt Hill
#
# Bulk Modulus (GPa) = 35.22972 53.40040 44.31506
# Shear Modulus (GPa) = 13.04805 23.28203 18.16504
#
# Velocity S-wave (km/s) = 2.59913 3.47189 3.06672
# Velocity P-wave (km/s) = 5.21988 6.61207 5.95679
#
# Compressibility (1/GPa) = 0.02838513
#
# Stress axis : x y z
#
# Youngs Moduli (GPa) = 53.70647 109.42457 74.17917
#
# Poissons Ratio (x) = -0.01181 0.01397
# Poissons Ratio (y) = -0.00580 0.47079
# Poissons Ratio (z) = 0.01012 0.69448
#
# Static dielectric constant tensor:
#      x y z
#    x 1.742120 0.000000 0.000000 
#    y 0.000000 1.726970 0.000000 
#    z 0.000000 0.000000 1.649560 
# 
# From -- ./inp_files/48979.got.cif
#   From: 2010.05.17/outbox.cif.g08.bks.cpg/sg74_25_cif.got.tgz:48979.got - 2010.06.03 17:57:02.
