data_PCOD9534365
_publ_section_title
;
Structure prediction by ZEFSAII (Michael W. Deem and Ramdas Pophale) SiO2 
 PCOD9534365
Probable space group: I M M A
;
_chemical_formula_sum "Si O2"
_cell_formula_units_Z 80
_cell_length_a 25.593834
_cell_length_b 9.519061
_cell_length_c 23.161840
_cell_angle_alpha 90.000000
_cell_angle_beta 90.000000
_cell_angle_gamma 90.000000
_cell_volume 5642.902103
_symmetry_space_group_name_H-M "I M M A"
_symmetry_group_IT_number 74
_symmetry_cell_setting 'orthorhombic'
loop_
_space_group_symop_operation_xyz
x,y,z
-x,1/2-y,z
x,-y,-z
-x,1/2+y,-z
-x,-y,-z
x,1/2+y,-z
-x,y,z
x,1/2-y,z
1/2+x,1/2+y,1/2+z
1/2-x,-y,1/2+z
1/2+x,1/2-y,1/2-z
1/2-x,y,1/2-z
1/2-x,1/2-y,1/2-z
1/2+x,y,1/2-z
1/2-x,1/2+y,1/2+z
1/2+x,-y,1/2+z
loop_
_atom_site_type_symbol
_atom_site_label
_atom_site_fract_x
_atom_site_fract_y
_atom_site_fract_z
Si Si1 0.562312 0.250000 0.042512
Si Si2 0.181009 0.085578 0.273638
Si Si3 0.281939 0.581998 0.323098
Si Si4 0.765849 0.583432 0.442326
Si Si5 0.938725 0.250000 0.595922
Si Si6 0.375221 0.480727 0.113027
O O1 0.500000 0.250000 0.054190
O O2 0.591574 0.119385 0.071493
O O3 0.568993 0.250000 0.973606
O O4 0.192296 0.250000 0.262389
O O5 0.137997 0.080394 0.323956
O O6 0.229163 0.998290 0.302199
O O7 0.173922 0.999814 0.213692
O O8 0.281033 0.750000 0.310468
O O9 0.277642 0.567103 0.392078
O O10 0.752436 0.500000 0.500000
O O11 0.772782 0.750000 0.452924
O O12 0.820882 0.522568 0.418301
O O13 0.909946 0.383130 0.621327
O O14 0.000000 0.250000 0.606875
#
# Coordination Sequence:
#
# PCOD9534365 Si02
#       6
#     8  16  16  16   8  16
#     4  11  22  36  46  59  84 110 141 188 233 267
#     4  10  18  29  44  62  82 106 138 176 217 256
#     4   9  18  29  44  63  84 108 136 174 212 248
#     4  10  20  30  44  65  88 113 143 177 212 251
#     4  11  22  34  48  61  80 112 147 184 231 269
#     4  11  21  32  46  65  81 108 149 187 220 260
#
# _framework density 14.177102
#
# number of rings (size 3 to 8) (size 9 to 14) (size 15 to 20)
#    0.000    1.800    2.000    4.800    4.200    3.200 
#    0.000    0.000    0.000    0.000    0.000    0.000 
#    0.000    0.000    0.000    0.000    0.000    6.000 
#
# Total GULP energy -222676.830255 kJ/mol
# GULP energy per Si atom -5566.920756 kJ/mol
# Density = 1.414483 g / cm^3
# Si number density = 14.177102 Si / 1000 Ang^3
#
#
#
# Elastic Constant Matrix: (Units=GPa)
#
#
# Indices 1 2 3 4 5 6 
#
# 1 30.0568 17.8648 28.9140 0.0000 0.0000 0.0000
# 2 17.8648 117.3792 47.9167 0.0000 0.0000 0.0000
# 3 28.9140 47.9167 100.3200 0.0000 0.0000 0.0000
# 4 0.0000 0.0000 0.0000 34.5702 0.0000 0.0000
# 5 0.0000 0.0000 0.0000 0.0000 15.2041 0.0000
# 6 0.0000 0.0000 0.0000 0.0000 0.0000 29.1266
#
#
#
# Elastic Compliance Matrix: (Units=1/GPa)
#
#
# Indices 1 2 3 4 5 6 
#
# 1 0.046405 -0.001991 -0.012424 0.000000 0.000000 0.000000
# 2 -0.001991 0.010668 -0.004522 0.000000 0.000000 0.000000
# 3 -0.012424 -0.004522 0.015709 0.000000 0.000000 0.000000
# 4 0.000000 0.000000 0.000000 0.028927 0.000000 0.000000
# 5 0.000000 0.000000 0.000000 0.000000 0.065772 0.000000
# 6 0.000000 0.000000 0.000000 0.000000 0.000000 0.034333
#
#
# Mechanical properties :
#
#
# Convention : Reuss Voigt Hill
#
# Bulk Modulus (GPa) = 28.64596 48.57187 38.60892
# Shear Modulus (GPa) = 19.89471 25.98421 22.93946
#
# Velocity S-wave (km/s) = 3.75013 4.28580 4.02688
# Velocity P-wave (km/s) = 6.24507 7.66981 6.99381
#
# Compressibility (1/GPa) = 0.03490894
#
# Stress axis : x y z
#
# Youngs Moduli (GPa) = 21.54929 93.73564 63.65934
#
# Poissons Ratio (x) = 0.18664 0.79089
# Poissons Ratio (y) = 0.04291 0.28785
# Poissons Ratio (z) = 0.26772 0.42385
#
# Static dielectric constant tensor:
#      x y z
#    x 1.449480 0.000000 0.000000 
#    y 0.000000 1.470140 0.000000 
#    z 0.000000 0.000000 1.511420 
# 
# From -- ./inp_files/55499.got.cif
#   From: 2010.05.17/outbox.cif.g08.bks.cpg/sg74_28_cif.got.tgz:55499.got - 2010.06.03 17:57:02.
