data_PCOD9534109
_publ_section_title
;
Structure prediction by ZEFSAII (Michael W. Deem and Ramdas Pophale) SiO2 
 PCOD9534109
Probable space group: I M M A
;
_chemical_formula_sum "Si O2"
_cell_formula_units_Z 56
_cell_length_a 7.435119
_cell_length_b 14.105971
_cell_length_c 22.255318
_cell_angle_alpha 90.000000
_cell_angle_beta 90.000000
_cell_angle_gamma 90.000000
_cell_volume 2334.128249
_symmetry_space_group_name_H-M "I M M A"
_symmetry_group_IT_number 74
_symmetry_cell_setting 'orthorhombic'
loop_
_space_group_symop_operation_xyz
x,y,z
-x,1/2-y,z
x,-y,-z
-x,1/2+y,-z
-x,-y,-z
x,1/2+y,-z
-x,y,z
x,1/2-y,z
1/2+x,1/2+y,1/2+z
1/2-x,-y,1/2+z
1/2+x,1/2-y,1/2-z
1/2-x,y,1/2-z
1/2-x,1/2-y,1/2-z
1/2+x,y,1/2-z
1/2-x,1/2+y,1/2+z
1/2+x,-y,1/2+z
loop_
_atom_site_type_symbol
_atom_site_label
_atom_site_fract_x
_atom_site_fract_y
_atom_site_fract_z
Si Si1 0.281660 0.644572 0.004596
Si Si2 0.710517 0.250000 0.679892
Si Si3 0.789638 0.949449 0.379111
Si Si4 0.782579 0.146981 0.363054
O O1 0.500000 0.639825 0.005573
O O2 0.229470 0.750000 0.025840
O O3 0.214028 0.570443 0.053917
O O4 0.236950 0.640808 0.934402
O O5 0.500000 0.250000 0.668633
O O6 0.750000 0.250000 0.750000
O O7 0.780459 0.151006 0.653632
O O8 0.000000 0.970456 0.388567
O O9 0.719558 0.041942 0.343328
O O10 0.714424 0.250000 0.340736
O O11 0.000000 0.152323 0.355801
#
# Coordination Sequence:
#
# PCOD9534109 Si02
#       4
#    16   8  16  16
#     4   8  12  20  39  73 111 141 173 208 242 286
#     4  12  26  42  58  76  98 126 172 226 279 324
#     4  10  17  30  53  78 106 138 173 215 261 302
#     4   8  14  23  42  79 117 144 173 207 241 290
#
# _framework density 23.991826
#
# number of rings (size 3 to 8) (size 9 to 14) (size 15 to 20)
#    0.000    2.857    1.429    3.857    0.000    3.429 
#    0.000    0.000    0.000    5.143    0.000    0.000 
#    0.000    0.000    0.000    0.000    0.000    0.000 
#
# Total GULP energy -155988.508953 kJ/mol
# GULP energy per Si atom -5571.018177 kJ/mol
# Density = 2.393722 g / cm^3
# Si number density = 23.991826 Si / 1000 Ang^3
#
#
#
# Elastic Constant Matrix: (Units=GPa)
#
#
# Indices 1 2 3 4 5 6 
#
# 1 73.0596 -1.8395 -15.5845 0.0000 0.0000 0.0000
# 2 -1.8395 225.5607 1.2038 0.0000 0.0000 0.0000
# 3 -15.5845 1.2038 20.9163 0.0000 0.0000 0.0000
# 4 0.0000 0.0000 0.0000 4.6049 0.0000 0.0000
# 5 0.0000 0.0000 0.0000 0.0000 113.1200 0.0000
# 6 0.0000 0.0000 0.0000 0.0000 0.0000 -30.2215
#
#
#
# Elastic Compliance Matrix: (Units=1/GPa)
#
#
# Indices 1 2 3 4 5 6 
#
# 1 0.016275 0.000068 0.012122 0.000000 0.000000 0.000000
# 2 0.000068 0.004435 -0.000205 0.000000 0.000000 0.000000
# 3 0.012122 -0.000205 0.056854 0.000000 0.000000 0.000000
# 4 0.000000 0.000000 0.000000 0.217162 0.000000 0.000000
# 5 0.000000 0.000000 0.000000 0.000000 0.008840 0.000000
# 6 0.000000 0.000000 0.000000 0.000000 0.000000 -0.033089
#
#
# Mechanical properties :
#
#
# Convention : Reuss Voigt Hill
#
# Bulk Modulus (GPa) = 9.84876 31.89958 20.87417
# Shear Modulus (GPa) = 17.83482 39.88446 28.85964
#
# Velocity S-wave (km/s) = 2.72944 4.08170 3.47204
# Velocity P-wave (km/s) = 3.74794 5.96143 4.97924
#
# Compressibility (1/GPa) = 0.10153558
#
# Stress axis : x y z
#
# Youngs Moduli (GPa) = 61.44384 225.47693 17.58900
#
# Poissons Ratio (x) = -0.01534 -0.21322
# Poissons Ratio (y) = -0.00418 0.00360
# Poissons Ratio (z) = -0.74485 0.04612
#
# Static dielectric constant tensor:
#      x y z
#    x 1.952640 0.000000 0.000000 
#    y 0.000000 2.139700 0.000000 
#    z 0.000000 0.000000 1.872290 
# 
# From -- ./inp_files/47815.got.cif
#   From: 2010.05.17/outbox.cif.g08.bks.cpg/sg74_24_cif.got.tgz:47815.got - 2010.06.03 17:57:02.
