data_PCOD9534889
_publ_section_title
;
Structure prediction by ZEFSAII (Michael W. Deem and Ramdas Pophale) SiO2 
 PCOD9534889
Probable space group: I M M A
;
_chemical_formula_sum "Si O2"
_cell_formula_units_Z 104
_cell_length_a 22.015073
_cell_length_b 8.527535
_cell_length_c 27.511084
_cell_angle_alpha 90.000000
_cell_angle_beta 90.000000
_cell_angle_gamma 90.000000
_cell_volume 5164.774249
_symmetry_space_group_name_H-M "I M M A"
_symmetry_group_IT_number 74
_symmetry_cell_setting 'orthorhombic'
loop_
_space_group_symop_operation_xyz
x,y,z
-x,1/2-y,z
x,-y,-z
-x,1/2+y,-z
-x,-y,-z
x,1/2+y,-z
-x,y,z
x,1/2-y,z
1/2+x,1/2+y,1/2+z
1/2-x,-y,1/2+z
1/2+x,1/2-y,1/2-z
1/2-x,y,1/2-z
1/2-x,1/2-y,1/2-z
1/2+x,y,1/2-z
1/2-x,1/2+y,1/2+z
1/2+x,-y,1/2+z
loop_
_atom_site_type_symbol
_atom_site_label
_atom_site_fract_x
_atom_site_fract_y
_atom_site_fract_z
Si Si1 0.390804 0.559119 0.377393
Si Si2 0.500000 0.061559 0.553912
Si Si3 0.191562 0.560216 0.717752
Si Si4 0.179187 0.935992 0.607555
Si Si5 0.929473 0.440228 0.769354
Si Si6 0.287785 0.063744 0.552603
Si Si7 0.571349 0.063698 0.946609
O O1 0.389629 0.750000 0.375145
O O2 0.441750 0.510993 0.415751
O O3 0.410033 0.507436 0.323852
O O4 0.328503 0.504994 0.402054
O O5 0.500000 0.250000 0.552650
O O6 0.500000 0.000000 0.500000
O O7 0.190557 0.750000 0.719558
O O8 0.250000 0.507843 0.750000
O O9 0.198003 0.510809 0.661525
O O10 0.125998 0.500317 0.736299
O O11 0.186998 0.750000 0.604845
O O12 0.220168 0.014841 0.566320
O O13 0.110734 0.982041 0.594761
O O14 0.929351 0.250000 0.767942
O O15 0.000000 0.488601 0.759220
O O16 0.293269 0.250000 0.550540
O O17 0.306582 0.000000 0.500000
O O18 0.500000 0.032170 0.939982
O O19 0.581163 0.250000 0.945262
O O20 0.588367 0.000000 0.000000
#
# Coordination Sequence:
#
# PCOD9534889 Si02
#       7
#    16   8  16  16  16  16  16
#     4   9  18  34  56  80 111 151 190 231 280 333
#     4  10  18  32  52  76 110 146 186 230 275 326
#     4  10  23  42  61  84 116 153 194 245 301 351
#     4  11  23  39  59  82 112 150 189 234 287 343
#     4  10  20  37  62  89 116 151 196 244 294 348
#     4  11  22  36  56  83 115 152 193 236 283 337
#     4  10  21  38  61  88 118 150 185 227 277 338
#
# _framework density 20.136406999999998
#
# number of rings (size 3 to 8) (size 9 to 14) (size 15 to 20)
#    0.000    1.846    0.769    3.231    0.000    3.385 
#    0.000    5.385    0.000    0.000    0.000    0.000 
#    0.000    0.000    0.000    0.000    0.000    0.000 
#
# Total GULP energy -290279.451776 kJ/mol
# GULP energy per Si atom -5582.297150 kJ/mol
# Density = 2.009058 g / cm^3
# Si number density = 20.136407 Si / 1000 Ang^3
#
#
#
# Elastic Constant Matrix: (Units=GPa)
#
#
# Indices 1 2 3 4 5 6 
#
# 1 91.5205 17.5023 29.0912 0.0000 0.0000 0.0000
# 2 17.5023 15.3977 11.5718 0.0000 0.0000 0.0000
# 3 29.0912 11.5718 71.3190 0.0000 0.0000 0.0000
# 4 0.0000 0.0000 0.0000 27.6837 0.0000 0.0000
# 5 0.0000 0.0000 0.0000 0.0000 -20.2555 0.0000
# 6 0.0000 0.0000 0.0000 0.0000 0.0000 20.0156
#
#
#
# Elastic Compliance Matrix: (Units=1/GPa)
#
#
# Indices 1 2 3 4 5 6 
#
# 1 0.014800 -0.013992 -0.003767 0.000000 0.000000 0.000000
# 2 -0.013992 0.087192 -0.008440 0.000000 0.000000 0.000000
# 3 -0.003767 -0.008440 0.016927 0.000000 0.000000 0.000000
# 4 0.000000 0.000000 0.000000 0.036122 0.000000 0.000000
# 5 0.000000 0.000000 0.000000 0.000000 -0.049369 0.000000
# 6 0.000000 0.000000 0.000000 0.000000 0.000000 0.049961
#
#
# Mechanical properties :
#
#
# Convention : Reuss Voigt Hill
#
# Bulk Modulus (GPa) = 15.03256 32.72976 23.88116
# Shear Modulus (GPa) = 21.71990 13.49355 17.60673
#
# Velocity S-wave (km/s) = 3.28783 2.59145 2.96019
# Velocity P-wave (km/s) = 4.67917 5.02429 4.85480
#
# Compressibility (1/GPa) = 0.06652227
#
# Stress axis : x y z
#
# Youngs Moduli (GPa) = 67.56956 11.46894 59.07609
#
# Poissons Ratio (x) = 0.16047 0.22251
# Poissons Ratio (y) = 0.94542 0.49860
# Poissons Ratio (z) = 0.25450 0.09680
#
# Static dielectric constant tensor:
#      x y z
#    x 1.750170 0.000000 0.000000 
#    y 0.000000 1.694240 0.000000 
#    z 0.000000 0.000000 1.715370 
# 
# From -- ./inp_files/68269.got.cif
#   From: 2010.05.17/outbox.cif.g08.bks.cpg/sg74_35_cif.got.tgz:68269.got - 2010.06.03 17:57:02.
