data_PCOD9534616
_publ_section_title
;
Structure prediction by ZEFSAII (Michael W. Deem and Ramdas Pophale) SiO2 
 PCOD9534616
Probable space group: I M M A
;
_chemical_formula_sum "Si O2"
_cell_formula_units_Z 92
_cell_length_a 23.887566
_cell_length_b 9.188800
_cell_length_c 22.143794
_cell_angle_alpha 90.000000
_cell_angle_beta 90.000000
_cell_angle_gamma 90.000000
_cell_volume 4860.519967
_symmetry_space_group_name_H-M "I M M A"
_symmetry_group_IT_number 74
_symmetry_cell_setting 'orthorhombic'
loop_
_space_group_symop_operation_xyz
x,y,z
-x,1/2-y,z
x,-y,-z
-x,1/2+y,-z
-x,-y,-z
x,1/2+y,-z
-x,y,z
x,1/2-y,z
1/2+x,1/2+y,1/2+z
1/2-x,-y,1/2+z
1/2+x,1/2-y,1/2-z
1/2-x,y,1/2-z
1/2-x,1/2-y,1/2-z
1/2+x,y,1/2-z
1/2-x,1/2+y,1/2+z
1/2+x,-y,1/2+z
loop_
_atom_site_type_symbol
_atom_site_label
_atom_site_fract_x
_atom_site_fract_y
_atom_site_fract_z
Si Si1 0.000000 0.750000 0.468633
Si Si2 0.887692 0.577865 0.703174
Si Si3 0.624085 0.579351 0.654633
Si Si4 0.684993 0.918009 0.907798
Si Si5 0.911340 0.000000 0.500000
Si Si6 0.000000 0.079898 0.168006
Si Si7 0.500000 0.921984 0.204978
Si Si8 0.702231 0.422588 0.561267
O O1 0.049008 0.623342 0.472497
O O2 0.900561 0.750000 0.699064
O O3 0.875381 0.546385 0.773495
O O4 0.835445 0.549264 0.660075
O O5 0.942528 0.491315 0.681374
O O6 0.638945 0.750000 0.647291
O O7 0.558996 0.560778 0.635090
O O8 0.664820 0.479780 0.616467
O O9 0.704387 0.750000 0.911368
O O10 0.630417 0.936136 0.949350
O O11 0.734405 0.023310 0.927887
O O12 0.000000 0.250000 0.190418
O O13 0.000000 0.971175 0.224736
O O14 0.500000 0.750000 0.195844
O O15 0.682137 0.500000 0.500000
O O16 0.699950 0.250000 0.555425
#
# Coordination Sequence:
#
# PCOD9534616 Si02
#       8
#     4  16  16  16   8   8   8  16
#     4  10  24  38  60  88 122 158 208 268 306 348
#     4   9  20  38  60  85 118 161 204 247 300 370
#     4   9  18  38  65  93 122 155 200 244 297 357
#     4  11  23  41  64  86 118 163 211 254 303 359
#     4  11  22  42  60  86 120 163 208 258 312 347
#     4   8  16  34  63  89 121 162 192 234 291 362
#     4  10  18  30  50  85 123 159 197 245 297 351
#     4  12  26  42  64  88 118 159 203 249 301 365
#
# _framework density 18.928016
#
# number of rings (size 3 to 8) (size 9 to 14) (size 15 to 20)
#    0.000    1.913    1.739    3.391    1.217    5.565 
#    1.565    3.913    0.000    0.000    0.000    0.000 
#    0.000    0.000    0.000    0.000    0.000    0.000 
#
# Total GULP energy -256283.845634 kJ/mol
# GULP energy per Si atom -5571.387949 kJ/mol
# Density = 1.888494 g / cm^3
# Si number density = 18.928016 Si / 1000 Ang^3
#
#
#
# Elastic Constant Matrix: (Units=GPa)
#
#
# Indices 1 2 3 4 5 6 
#
# 1 71.3074 29.2355 32.7712 0.0000 0.0000 0.0000
# 2 29.2355 94.0704 39.0999 0.0000 0.0000 0.0000
# 3 32.7712 39.0999 69.9739 0.0000 0.0000 0.0000
# 4 0.0000 0.0000 0.0000 19.2521 0.0000 0.0000
# 5 0.0000 0.0000 0.0000 0.0000 -11.7890 0.0000
# 6 0.0000 0.0000 0.0000 0.0000 0.0000 40.4432
#
#
#
# Elastic Compliance Matrix: (Units=1/GPa)
#
#
# Indices 1 2 3 4 5 6 
#
# 1 0.018414 -0.002785 -0.007068 0.000000 0.000000 0.000000
# 2 -0.002785 0.014267 -0.006668 0.000000 0.000000 0.000000
# 3 -0.007068 -0.006668 0.021327 0.000000 0.000000 0.000000
# 4 0.000000 0.000000 0.000000 0.051942 0.000000 0.000000
# 5 0.000000 0.000000 0.000000 0.000000 -0.084824 0.000000
# 6 0.000000 0.000000 0.000000 0.000000 0.000000 0.024726
#
#
# Mechanical properties :
#
#
# Convention : Reuss Voigt Hill
#
# Bulk Modulus (GPa) = 47.69429 48.61834 48.15632
# Shear Modulus (GPa) = 58.21924 18.53091 38.37507
#
# Velocity S-wave (km/s) = 5.55203 3.13232 4.50757
# Velocity P-wave (km/s) = 8.14570 6.23086 7.25176
#
# Compressibility (1/GPa) = 0.02096687
#
# Stress axis : x y z
#
# Youngs Moduli (GPa) = 54.30724 70.08985 46.88899
#
# Poissons Ratio (x) = 0.19521 0.33139
# Poissons Ratio (y) = 0.15125 0.31265
# Poissons Ratio (z) = 0.38382 0.46736
#
# Static dielectric constant tensor:
#      x y z
#    x 1.652820 0.000000 0.000000 
#    y 0.000000 1.633550 0.000000 
#    z 0.000000 0.000000 1.683120 
# 
# From -- ./inp_files/54589.got.cif
#   From: 2010.05.17/outbox.cif.g08.bks.cpg/sg74_28_cif.got.tgz:54589.got - 2010.06.03 17:57:02.
