data_PCOD9534224
_publ_section_title
;
Structure prediction by ZEFSAII (Michael W. Deem and Ramdas Pophale) SiO2 
 PCOD9534224
Probable space group: I M M A
;
_chemical_formula_sum "Si O2"
_cell_formula_units_Z 120
_cell_length_a 24.274821
_cell_length_b 15.630707
_cell_length_c 22.174481
_cell_angle_alpha 90.000000
_cell_angle_beta 90.000000
_cell_angle_gamma 90.000000
_cell_volume 8413.721302
_symmetry_space_group_name_H-M "I M M A"
_symmetry_group_IT_number 74
_symmetry_cell_setting 'orthorhombic'
loop_
_space_group_symop_operation_xyz
x,y,z
-x,1/2-y,z
x,-y,-z
-x,1/2+y,-z
-x,-y,-z
x,1/2+y,-z
-x,y,z
x,1/2-y,z
1/2+x,1/2+y,1/2+z
1/2-x,-y,1/2+z
1/2+x,1/2-y,1/2-z
1/2-x,y,1/2-z
1/2-x,1/2-y,1/2-z
1/2+x,y,1/2-z
1/2-x,1/2+y,1/2+z
1/2+x,-y,1/2+z
loop_
_atom_site_type_symbol
_atom_site_label
_atom_site_fract_x
_atom_site_fract_y
_atom_site_fract_z
Si Si1 0.175162 0.846361 0.960186
Si Si2 0.750000 0.977790 0.250000
Si Si3 0.438325 0.600098 0.480808
Si Si4 0.560609 0.852245 0.217961
Si Si5 0.823567 0.350043 0.672245
Si Si6 0.273566 0.847720 0.411958
Si Si7 0.823284 0.517215 0.856051
Si Si8 0.562591 0.552531 0.344307
O O1 0.181943 0.750000 0.937115
O O2 0.186095 0.916993 0.909932
O O3 0.113143 0.856580 0.986689
O O4 0.215048 0.858914 0.017557
O O5 0.792681 0.914219 0.282927
O O6 0.784365 0.031565 0.201325
O O7 0.435922 0.500000 0.500000
O O8 0.500000 0.631627 0.496236
O O9 0.432264 0.602112 0.408187
O O10 0.500000 0.881428 0.196983
O O11 0.559300 0.750000 0.222872
O O12 0.612128 0.872987 0.175169
O O13 0.569285 0.889550 0.285022
O O14 0.818251 0.250000 0.691508
O O15 0.789548 0.356829 0.610008
O O16 0.290838 0.750000 0.396173
O O17 0.307621 0.920885 0.377670
O O18 0.888270 0.515572 0.842379
O O19 0.500000 0.517514 0.344112
#
# Coordination Sequence:
#
# PCOD9534224 Si02
#       8
#    16   8  16  16  16  16  16  16
#     4  11  21  32  45  61  84 120 156 189 223 255
#     4  10  19  28  43  64  82 112 146 184 224 264
#     4  10  18  29  43  60  82 112 147 186 224 253
#     4   9  17  27  39  60  91 121 144 167 201 254
#     4   9  16  26  41  64  90 113 139 174 214 264
#     4   9  18  29  45  66  87 112 143 178 220 265
#     4  11  19  32  46  63  88 113 147 188 222 262
#     4  10  18  27  42  59  84 119 149 176 212 248
#
# _framework density 14.262416999999999
#
# number of rings (size 3 to 8) (size 9 to 14) (size 15 to 20)
#    0.000    2.133    4.000    0.600    0.000    1.867 
#    0.000    1.667    0.000    0.000    0.000    0.000 
#    0.000    9.600    0.000    2.267    0.000    0.533 
#
# Total GULP energy -334050.927386 kJ/mol
# GULP energy per Si atom -5567.515456 kJ/mol
# Density = 1.422996 g / cm^3
# Si number density = 14.262417 Si / 1000 Ang^3
#
#
#
# Elastic Constant Matrix: (Units=GPa)
#
#
# Indices 1 2 3 4 5 6 
#
# 1 104.8072 28.8309 56.0242 0.0000 0.0000 0.0000
# 2 28.8309 35.0470 27.7722 0.0000 0.0000 0.0000
# 3 56.0242 27.7722 65.8773 0.0000 0.0000 0.0000
# 4 0.0000 0.0000 0.0000 15.6593 0.0000 0.0000
# 5 0.0000 0.0000 0.0000 0.0000 24.1023 0.0000
# 6 0.0000 0.0000 0.0000 0.0000 0.0000 7.0176
#
#
#
# Elastic Compliance Matrix: (Units=1/GPa)
#
#
# Indices 1 2 3 4 5 6 
#
# 1 0.017858 -0.003988 -0.013505 0.000000 0.000000 0.000000
# 2 -0.003988 0.043737 -0.015047 0.000000 0.000000 0.000000
# 3 -0.013505 -0.015047 0.033008 0.000000 0.000000 0.000000
# 4 0.000000 0.000000 0.000000 0.063860 0.000000 0.000000
# 5 0.000000 0.000000 0.000000 0.000000 0.041490 0.000000
# 6 0.000000 0.000000 0.000000 0.000000 0.000000 0.142499
#
#
# Mechanical properties :
#
#
# Convention : Reuss Voigt Hill
#
# Bulk Modulus (GPa) = 33.87227 47.88734 40.87981
# Shear Modulus (GPa) = 11.97967 15.56280 13.77124
#
# Velocity S-wave (km/s) = 2.90133 3.30688 3.11072
# Velocity P-wave (km/s) = 5.91815 6.94474 6.45189
#
# Compressibility (1/GPa) = 0.02952268
#
# Stress axis : x y z
#
# Youngs Moduli (GPa) = 55.99816 22.86368 30.29524
#
# Poissons Ratio (x) = 0.09119 0.40915
# Poissons Ratio (y) = 0.22334 0.45585
# Poissons Ratio (z) = 0.75628 0.34402
#
# Static dielectric constant tensor:
#      x y z
#    x 1.510130 0.000000 0.000000 
#    y 0.000000 1.463270 0.000000 
#    z 0.000000 0.000000 1.465950 
# 
# From -- ./inp_files/54828.got.cif
#   From: 2010.05.17/outbox.cif.g08.bks.cpg/sg74_28_cif.got.tgz:54828.got - 2010.06.03 17:57:02.
