data_PCOD9534548
_publ_section_title
;
Structure prediction by ZEFSAII (Michael W. Deem and Ramdas Pophale) SiO2 
 PCOD9534548
Probable space group: I M M A
;
_chemical_formula_sum "Si O2"
_cell_formula_units_Z 88
_cell_length_a 8.119351
_cell_length_b 20.949827
_cell_length_c 31.265250
_cell_angle_alpha 90.000000
_cell_angle_beta 90.000000
_cell_angle_gamma 90.000000
_cell_volume 5318.187722
_symmetry_space_group_name_H-M "I M M A"
_symmetry_group_IT_number 74
_symmetry_cell_setting 'orthorhombic'
loop_
_space_group_symop_operation_xyz
x,y,z
-x,1/2-y,z
x,-y,-z
-x,1/2+y,-z
-x,-y,-z
x,1/2+y,-z
-x,y,z
x,1/2-y,z
1/2+x,1/2+y,1/2+z
1/2-x,-y,1/2+z
1/2+x,1/2-y,1/2-z
1/2-x,y,1/2-z
1/2-x,1/2-y,1/2-z
1/2+x,y,1/2-z
1/2-x,1/2+y,1/2+z
1/2+x,-y,1/2+z
loop_
_atom_site_type_symbol
_atom_site_label
_atom_site_fract_x
_atom_site_fract_y
_atom_site_fract_z
Si Si1 0.698100 0.180619 0.475245
Si Si2 0.804663 0.250000 0.799797
Si Si3 0.801935 0.039823 0.042045
Si Si4 0.800711 0.681350 0.425829
Si Si5 0.199568 0.949349 0.382443
Si Si6 0.195553 0.609988 0.298951
O O1 0.500000 0.180909 0.470525
O O2 0.759216 0.250000 0.458742
O O3 0.760478 0.112933 0.457502
O O4 0.741204 0.178984 0.525406
O O5 0.750000 0.250000 0.750000
O O6 0.740890 0.181367 0.815333
O O7 0.000000 0.250000 0.802452
O O8 0.000000 0.042108 0.038007
O O9 0.759863 0.004097 0.085938
O O10 0.741282 0.000000 0.000000
O O11 0.745542 0.750000 0.407587
O O12 0.743592 0.617541 0.403161
O O13 0.000000 0.680735 0.425115
O O14 0.255138 0.942730 0.333106
O O15 0.000000 0.951434 0.382955
O O16 0.250000 0.601922 0.250000
O O17 0.000000 0.607732 0.298698
#
# Coordination Sequence:
#
# PCOD9534548 Si02
#       6
#    16   8  16  16  16  16
#     4   9  17  30  46  63  88 122 154 186 224 264
#     4  10  18  30  48  68  88 118 156 196 242 280
#     4  10  19  31  46  67  95 122 152 190 228 269
#     4   9  17  28  42  61  85 116 154 190 225 263
#     4  10  21  32  47  67  88 121 156 192 234 276
#     4  10  20  34  49  65  89 119 155 197 239 280
#
# _framework density 16.546990000000001
#
# number of rings (size 3 to 8) (size 9 to 14) (size 15 to 20)
#    0.000    2.364    1.818    2.455    1.273    2.545 
#    0.000    0.000    0.000    0.000    0.000    0.000 
#    0.000    0.727    0.000    1.636    0.000    2.545 
#
# Total GULP energy -245121.405324 kJ/mol
# GULP energy per Si atom -5570.941030 kJ/mol
# Density = 1.650933 g / cm^3
# Si number density = 16.546990 Si / 1000 Ang^3
#
#
#
# Elastic Constant Matrix: (Units=GPa)
#
#
# Indices 1 2 3 4 5 6 
#
# 1 13.1694 11.1818 4.2004 0.0000 0.0000 0.0000
# 2 11.1818 142.8870 67.6887 0.0000 0.0000 0.0000
# 3 4.2004 67.6887 88.6054 0.0000 0.0000 0.0000
# 4 0.0000 0.0000 0.0000 30.8331 0.0000 0.0000
# 5 0.0000 0.0000 0.0000 0.0000 12.9266 0.0000
# 6 0.0000 0.0000 0.0000 0.0000 0.0000 14.4613
#
#
#
# Elastic Compliance Matrix: (Units=1/GPa)
#
#
# Indices 1 2 3 4 5 6 
#
# 1 0.081479 -0.007125 0.001580 0.000000 0.000000 0.000000
# 2 -0.007125 0.011591 -0.008517 0.000000 0.000000 0.000000
# 3 0.001580 -0.008517 0.017717 0.000000 0.000000 0.000000
# 4 0.000000 0.000000 0.000000 0.032433 0.000000 0.000000
# 5 0.000000 0.000000 0.000000 0.000000 0.077360 0.000000
# 6 0.000000 0.000000 0.000000 0.000000 0.000000 0.069150
#
#
# Mechanical properties :
#
#
# Convention : Reuss Voigt Hill
#
# Bulk Modulus (GPa) = 12.09712 45.64487 28.87099
# Shear Modulus (GPa) = 14.47569 22.41694 18.44632
#
# Velocity S-wave (km/s) = 2.96095 3.68468 3.34246
# Velocity P-wave (km/s) = 4.36077 6.76368 5.69050
#
# Compressibility (1/GPa) = 0.08266432
#
# Stress axis : x y z
#
# Youngs Moduli (GPa) = 12.27311 86.27626 56.44201
#
# Poissons Ratio (x) = 0.61471 -0.08920
# Poissons Ratio (y) = 0.08744 0.48070
# Poissons Ratio (z) = -0.01940 0.73479
#
# Static dielectric constant tensor:
#      x y z
#    x 1.583070 0.000000 0.000000 
#    y 0.000000 1.601470 0.000000 
#    z 0.000000 0.000000 1.574530 
# 
# From -- ./inp_files/70431.got.cif
#   From: 2010.05.17/outbox.cif.g08.bks.cpg/sg74_36_cif.got.tgz:70431.got - 2010.06.03 17:57:02.
