data_PCOD9534228
_publ_section_title
;
Structure prediction by ZEFSAII (Michael W. Deem and Ramdas Pophale) SiO2 
 PCOD9534228
Probable space group: I M M A
;
_chemical_formula_sum "Si O2"
_cell_formula_units_Z 80
_cell_length_a 17.852103
_cell_length_b 11.638526
_cell_length_c 19.536614
_cell_angle_alpha 90.000000
_cell_angle_beta 90.000000
_cell_angle_gamma 90.000000
_cell_volume 4059.164586
_symmetry_space_group_name_H-M "I M M A"
_symmetry_group_IT_number 74
_symmetry_cell_setting 'orthorhombic'
loop_
_space_group_symop_operation_xyz
x,y,z
-x,1/2-y,z
x,-y,-z
-x,1/2+y,-z
-x,-y,-z
x,1/2+y,-z
-x,y,z
x,1/2-y,z
1/2+x,1/2+y,1/2+z
1/2-x,-y,1/2+z
1/2+x,1/2-y,1/2-z
1/2-x,y,1/2-z
1/2-x,1/2-y,1/2-z
1/2+x,y,1/2-z
1/2-x,1/2+y,1/2+z
1/2+x,-y,1/2+z
loop_
_atom_site_type_symbol
_atom_site_label
_atom_site_fract_x
_atom_site_fract_y
_atom_site_fract_z
Si Si1 0.585683 0.878768 0.525781
Si Si2 0.160105 0.250000 0.677483
Si Si3 0.623728 0.004402 0.652118
Si Si4 0.230374 0.375877 0.330935
Si Si5 0.333111 0.750000 0.344508
Si Si6 0.586290 0.491781 0.813230
O O1 0.500000 0.876597 0.499571
O O2 0.617616 0.750000 0.515968
O O3 0.621642 0.000000 0.500000
O O4 0.583331 0.909683 0.606548
O O5 0.243145 0.250000 0.643830
O O6 0.166092 0.250000 0.760992
O O7 0.115139 0.133356 0.662661
O O8 0.622897 0.137475 0.630437
O O9 0.596372 0.002348 0.730421
O O10 0.710972 0.970324 0.645368
O O11 0.244204 0.250000 0.360594
O O12 0.250000 0.369574 0.250000
O O13 0.145713 0.415828 0.340482
O O14 0.500000 0.510416 0.830447
#
# Coordination Sequence:
#
# PCOD9534228 Si02
#       6
#    16   8  16  16   8  16
#     4  10  22  38  53  71  96 124 157 201 247 286
#     4   9  15  28  40  64  94 124 156 194 230 266
#     4  10  18  31  49  67  89 124 165 197 234 278
#     4   9  17  28  42  61  87 120 157 193 230 275
#     4   9  16  26  48  68  88 120 162 200 229 270
#     4  10  18  27  42  66  95 126 158 193 231 276
#
# _framework density 19.708490000000001
#
# number of rings (size 3 to 8) (size 9 to 14) (size 15 to 20)
#    0.000    2.400    2.000    1.500    1.400    1.200 
#    0.000    1.000    0.000    0.000    0.000    0.000 
#    0.000    0.800    0.000    1.800    0.000    0.400 
#
# Total GULP energy -222670.205388 kJ/mol
# GULP energy per Si atom -5566.755135 kJ/mol
# Density = 1.966363 g / cm^3
# Si number density = 19.708490 Si / 1000 Ang^3
#
#
#
# Elastic Constant Matrix: (Units=GPa)
#
#
# Indices 1 2 3 4 5 6 
#
# 1 104.4560 5.8797 -13.8273 0.0000 0.0000 0.0000
# 2 5.8797 133.7572 7.8059 0.0000 0.0000 0.0000
# 3 -13.8273 7.8059 12.8360 0.0000 0.0000 0.0000
# 4 0.0000 0.0000 0.0000 18.2330 0.0000 0.0000
# 5 0.0000 0.0000 0.0000 0.0000 11.7316 0.0000
# 6 0.0000 0.0000 0.0000 0.0000 0.0000 16.2448
#
#
#
# Elastic Compliance Matrix: (Units=1/GPa)
#
#
# Indices 1 2 3 4 5 6 
#
# 1 0.011366 -0.001259 0.013010 0.000000 0.000000 0.000000
# 2 -0.001259 0.007891 -0.006155 0.000000 0.000000 0.000000
# 3 0.013010 -0.006155 0.095663 0.000000 0.000000 0.000000
# 4 0.000000 0.000000 0.000000 0.054846 0.000000 0.000000
# 5 0.000000 0.000000 0.000000 0.000000 0.085240 0.000000
# 6 0.000000 0.000000 0.000000 0.000000 0.000000 0.061558
#
#
# Mechanical properties :
#
#
# Convention : Reuss Voigt Hill
#
# Bulk Modulus (GPa) = 7.92941 27.86285 17.89613
# Shear Modulus (GPa) = 14.39226 25.98795 20.19011
#
# Velocity S-wave (km/s) = 2.70526 3.63522 3.20416
# Velocity P-wave (km/s) = 3.71349 5.63808 4.77378
#
# Compressibility (1/GPa) = 0.12611284
#
# Stress axis : x y z
#
# Youngs Moduli (GPa) = 87.97825 126.73077 10.45336
#
# Poissons Ratio (x) = 0.15954 -0.13600
# Poissons Ratio (y) = 0.11075 0.06434
# Poissons Ratio (z) = -1.14458 0.77998
#
# Static dielectric constant tensor:
#      x y z
#    x 1.712670 0.000000 0.000000 
#    y 0.000000 1.724320 0.000000 
#    z 0.000000 0.000000 1.759870 
# 
# From -- ./inp_files/52814.got.cif
#   From: 2010.05.17/outbox.cif.g08.bks.cpg/sg74_27_cif.got.tgz:52814.got - 2010.06.03 17:57:02.
