data_PCOD9534922
_publ_section_title
;
Structure prediction by ZEFSAII (Michael W. Deem and Ramdas Pophale) SiO2 
 PCOD9534922
Probable space group: I M M A
;
_chemical_formula_sum "Si O2"
_cell_formula_units_Z 100
_cell_length_a 31.760911
_cell_length_b 7.858838
_cell_length_c 20.898508
_cell_angle_alpha 90.000000
_cell_angle_beta 90.000000
_cell_angle_gamma 90.000000
_cell_volume 5216.348146
_symmetry_space_group_name_H-M "I M M A"
_symmetry_group_IT_number 74
_symmetry_cell_setting 'orthorhombic'
loop_
_space_group_symop_operation_xyz
x,y,z
-x,1/2-y,z
x,-y,-z
-x,1/2+y,-z
-x,-y,-z
x,1/2+y,-z
-x,y,z
x,1/2-y,z
1/2+x,1/2+y,1/2+z
1/2-x,-y,1/2+z
1/2+x,1/2-y,1/2-z
1/2-x,y,1/2-z
1/2-x,1/2-y,1/2-z
1/2+x,y,1/2-z
1/2-x,1/2+y,1/2+z
1/2+x,-y,1/2+z
loop_
_atom_site_type_symbol
_atom_site_label
_atom_site_fract_x
_atom_site_fract_y
_atom_site_fract_z
Si Si1 0.046390 0.456494 0.425173
Si Si2 0.632936 0.953665 0.716606
Si Si3 0.866627 0.545422 0.632704
Si Si4 0.220988 0.946861 0.426916
Si Si5 0.500000 0.750000 0.793019
Si Si6 0.955265 0.938995 0.237060
Si Si7 0.723506 0.449447 0.309945
O O1 0.049818 0.500000 0.500000
O O2 0.044376 0.250000 0.417340
O O3 0.088688 0.521076 0.392458
O O4 0.000000 0.520161 0.404602
O O5 0.629024 0.750000 0.708201
O O6 0.638479 0.991317 0.792334
O O7 0.675952 0.018016 0.684500
O O8 0.587707 0.031250 0.699276
O O9 0.866177 0.750000 0.625263
O O10 0.827474 0.476496 0.592725
O O11 0.231017 0.250000 0.579420
O O12 0.249764 0.038660 0.374341
O O13 0.227664 0.000000 0.500000
O O14 0.463417 0.598869 0.784193
O O15 0.952928 0.750000 0.266325
O O16 0.000000 0.944251 0.199198
O O17 0.717377 0.250000 0.294127
O O18 0.750000 0.523604 0.250000
#
# Coordination Sequence:
#
# PCOD9534922 Si02
#       7
#    16  16  16  16   4  16  16
#     4   9  18  32  48  68  93 129 177 227 274 326
#     4  10  18  32  54  78 111 146 178 226 286 345
#     4  10  20  34  54  76 101 137 181 228 285 340
#     4  12  25  40  58  79 109 144 188 237 284 340
#     4   8  14  32  48  66 106 144 190 220 288 326
#     4   9  17  29  48  73 105 146 186 228 273 338
#     4  10  20  38  61  84 112 145 184 228 287 349
#
# _framework density 19.170501000000002
#
# number of rings (size 3 to 8) (size 9 to 14) (size 15 to 20)
#    0.480    1.600    2.400    1.920    0.000    4.160 
#    0.000    1.600    0.000    1.920    0.000    0.000 
#    0.000    0.640    0.000    3.360    0.000    6.080 
#
# Total GULP energy -278369.352738 kJ/mol
# GULP energy per Si atom -5567.387055 kJ/mol
# Density = 1.912687 g / cm^3
# Si number density = 19.170501 Si / 1000 Ang^3
#
#
#
# Elastic Constant Matrix: (Units=GPa)
#
#
# Indices 1 2 3 4 5 6 
#
# 1 179.9810 17.3055 39.5261 0.0000 0.0000 0.0000
# 2 17.3055 64.2389 -4.8945 0.0000 0.0000 0.0000
# 3 39.5261 -4.8945 37.9266 0.0000 0.0000 0.0000
# 4 0.0000 0.0000 0.0000 16.6377 0.0000 0.0000
# 5 0.0000 0.0000 0.0000 0.0000 12.7492 0.0000
# 6 0.0000 0.0000 0.0000 0.0000 0.0000 23.9426
#
#
#
# Elastic Compliance Matrix: (Units=1/GPa)
#
#
# Indices 1 2 3 4 5 6 
#
# 1 0.007640 -0.002691 -0.008309 0.000000 0.000000 0.000000
# 2 -0.002691 0.016669 0.004956 0.000000 0.000000 0.000000
# 3 -0.008309 0.004956 0.035666 0.000000 0.000000 0.000000
# 4 0.000000 0.000000 0.000000 0.060105 0.000000 0.000000
# 5 0.000000 0.000000 0.000000 0.000000 0.078436 0.000000
# 6 0.000000 0.000000 0.000000 0.000000 0.000000 0.041767
#
#
# Mechanical properties :
#
#
# Convention : Reuss Voigt Hill
#
# Bulk Modulus (GPa) = 20.88285 42.89120 31.88702
# Shear Modulus (GPa) = 18.63352 26.01319 22.32336
#
# Velocity S-wave (km/s) = 3.12106 3.68766 3.41613
# Velocity P-wave (km/s) = 4.88926 6.36819 5.67709
#
# Compressibility (1/GPa) = 0.04788619
#
# Stress axis : x y z
#
# Youngs Moduli (GPa) = 130.89495 59.98985 28.03795
#
# Poissons Ratio (x) = 0.16144 0.23297
# Poissons Ratio (y) = 0.35226 -0.13895
# Poissons Ratio (z) = 1.08763 -0.29731
#
# Static dielectric constant tensor:
#      x y z
#    x 1.728890 0.000000 0.000000 
#    y 0.000000 1.702940 0.000000 
#    z 0.000000 0.000000 1.898990 
# 
# From -- ./inp_files/55678.got.cif
#   From: 2010.05.17/outbox.cif.g08.bks.cpg/sg74_28_cif.got.tgz:55678.got - 2010.06.03 17:57:02.
