data_PCOD9534666
_publ_section_title
;
Structure prediction by ZEFSAII (Michael W. Deem and Ramdas Pophale) SiO2 
 PCOD9534666
Probable space group: I M M A
;
_chemical_formula_sum "Si O2"
_cell_formula_units_Z 60
_cell_length_a 25.646665
_cell_length_b 14.233349
_cell_length_c 9.152934
_cell_angle_alpha 90.000000
_cell_angle_beta 90.000000
_cell_angle_gamma 90.000000
_cell_volume 3341.168114
_symmetry_space_group_name_H-M "I M M A"
_symmetry_group_IT_number 74
_symmetry_cell_setting 'orthorhombic'
loop_
_space_group_symop_operation_xyz
x,y,z
-x,1/2-y,z
x,-y,-z
-x,1/2+y,-z
-x,-y,-z
x,1/2+y,-z
-x,y,z
x,1/2-y,z
1/2+x,1/2+y,1/2+z
1/2-x,-y,1/2+z
1/2+x,1/2-y,1/2-z
1/2-x,y,1/2-z
1/2-x,1/2-y,1/2-z
1/2+x,y,1/2-z
1/2-x,1/2+y,1/2+z
1/2+x,-y,1/2+z
loop_
_atom_site_type_symbol
_atom_site_label
_atom_site_fract_x
_atom_site_fract_y
_atom_site_fract_z
Si Si1 0.697415 0.453858 0.344890
Si Si2 0.000000 0.750000 0.635465
Si Si3 0.312912 0.750000 0.734063
Si Si4 0.887658 0.750000 0.479323
Si Si5 0.500000 0.028772 0.173673
Si Si6 0.890557 0.549902 0.341694
O O1 0.708306 0.500000 0.500000
O O2 0.750000 0.452830 0.250000
O O3 0.675850 0.347018 0.349279
O O4 0.654728 0.514411 0.261325
O O5 0.054401 0.750000 0.548349
O O6 0.000000 0.642048 0.700762
O O7 0.250000 0.750000 0.750000
O O8 0.344986 0.750000 0.888096
O O9 0.884323 0.658418 0.379839
O O10 0.446314 0.981224 0.224801
O O11 0.500000 0.000000 0.000000
O O12 0.885925 0.500000 0.500000
#
# Coordination Sequence:
#
# PCOD9534666 Si02
#       6
#    16   4   8   8   8  16
#     4  11  24  41  61  83 117 155 200 245 297 353
#     4  12  16  28  54  92 116 154 194 244 286 346
#     4  10  22  37  59  83 115 155 195 239 298 347
#     4  12  20  33  62  90 121 152 199 247 291 353
#     4  10  18  30  55  88 123 148 199 236 293 344
#     4  11  20  36  58  89 117 154 194 245 292 345
#
# _framework density 17.957792000000001
#
# number of rings (size 3 to 8) (size 9 to 14) (size 15 to 20)
#    0.000    1.067    8.000    0.800    3.733    1.067 
#    0.000    2.000    0.000    0.000    0.000    0.000 
#    0.000    0.000    0.000    0.000    0.000    0.000 
#
# Total GULP energy -167198.023811 kJ/mol
# GULP energy per Si atom -5573.267460 kJ/mol
# Density = 1.791692 g / cm^3
# Si number density = 17.957792 Si / 1000 Ang^3
#
#
#
# Elastic Constant Matrix: (Units=GPa)
#
#
# Indices 1 2 3 4 5 6 
#
# 1 124.7996 45.2809 41.3576 0.0000 0.0000 0.0000
# 2 45.2809 213.9154 55.1833 0.0000 0.0000 0.0000
# 3 41.3576 55.1833 69.8411 0.0000 0.0000 0.0000
# 4 0.0000 0.0000 0.0000 -3.0105 0.0000 0.0000
# 5 0.0000 0.0000 0.0000 0.0000 -7.6958 0.0000
# 6 0.0000 0.0000 0.0000 0.0000 0.0000 36.5931
#
#
#
# Elastic Compliance Matrix: (Units=1/GPa)
#
#
# Indices 1 2 3 4 5 6 
#
# 1 0.010063 -0.000745 -0.005370 0.000000 0.000000 0.000000
# 2 -0.000745 0.005927 -0.004242 0.000000 0.000000 0.000000
# 3 -0.005370 -0.004242 0.020850 0.000000 0.000000 0.000000
# 4 0.000000 0.000000 0.000000 -0.332170 0.000000 0.000000
# 5 0.000000 0.000000 0.000000 0.000000 -0.129941 0.000000
# 6 0.000000 0.000000 0.000000 0.000000 0.000000 0.027328
#
#
# Mechanical properties :
#
#
# Convention : Reuss Voigt Hill
#
# Bulk Modulus (GPa) = 62.01355 76.91107 69.46231
# Shear Modulus (GPa) = -13.44609 22.95964 4.75678
#
# Velocity S-wave (km/s) = -2.73932 3.57954 1.62930
# Velocity P-wave (km/s) = 4.96012 7.74635 6.50418
#
# Compressibility (1/GPa) = 0.01612551
#
# Stress axis : x y z
#
# Youngs Moduli (GPa) = 99.37637 168.73008 47.96161
#
# Poissons Ratio (x) = 0.12564 0.25758
# Poissons Ratio (y) = 0.07400 0.20345
# Poissons Ratio (z) = 0.53370 0.71572
#
# Static dielectric constant tensor:
#      x y z
#    x 1.699840 0.000000 0.000000 
#    y 0.000000 1.695160 0.000000 
#    z 0.000000 0.000000 1.589030 
# 
# From -- ./inp_files/8723.got.cif
#   From: 2010.05.17/outbox.cif.g08.bks.cpg/sg74_5_cif.got.tgz:8723.got - 2010.06.03 17:57:02.
