data_PCOD9534602
_publ_section_title
;
Structure prediction by ZEFSAII (Michael W. Deem and Ramdas Pophale) SiO2 
 PCOD9534602
Probable space group: I M M A
;
_chemical_formula_sum "Si O2"
_cell_formula_units_Z 56
_cell_length_a 17.776825
_cell_length_b 8.953028
_cell_length_c 18.524954
_cell_angle_alpha 90.000000
_cell_angle_beta 90.000000
_cell_angle_gamma 90.000000
_cell_volume 2948.365211
_symmetry_space_group_name_H-M "I M M A"
_symmetry_group_IT_number 74
_symmetry_cell_setting 'orthorhombic'
loop_
_space_group_symop_operation_xyz
x,y,z
-x,1/2-y,z
x,-y,-z
-x,1/2+y,-z
-x,-y,-z
x,1/2+y,-z
-x,y,z
x,1/2-y,z
1/2+x,1/2+y,1/2+z
1/2-x,-y,1/2+z
1/2+x,1/2-y,1/2-z
1/2-x,y,1/2-z
1/2-x,1/2-y,1/2-z
1/2+x,y,1/2-z
1/2-x,1/2+y,1/2+z
1/2+x,-y,1/2+z
loop_
_atom_site_type_symbol
_atom_site_label
_atom_site_fract_x
_atom_site_fract_y
_atom_site_fract_z
Si Si1 0.911398 0.428222 0.922179
Si Si2 0.000000 0.928007 0.418920
Si Si3 0.289616 0.576511 0.677612
Si Si4 0.854343 0.578014 0.576484
O O1 0.902250 0.250000 0.927214
O O2 0.859281 0.491867 0.858482
O O3 0.000000 0.461270 0.909778
O O4 0.890789 0.500000 0.000000
O O5 0.000000 0.750000 0.421561
O O6 0.000000 0.000000 0.500000
O O7 0.076842 0.991165 0.385667
O O8 0.311289 0.750000 0.691830
O O9 0.250000 0.515429 0.750000
O O10 0.222176 0.574784 0.620157
O O11 0.841169 0.500000 0.500000
O O12 0.877276 0.750000 0.565589
#
# Coordination Sequence:
#
# PCOD9534602 Si02
#       4
#    16   8  16  16
#     4  10  21  38  62  90 118 151 195 245 295 346
#     4  10  18  30  50  76 104 134 173 216 263 316
#     4  10  22  39  57  82 115 152 192 233 286 347
#     4  10  19  33  54  78 107 140 182 228 273 325
#
# _framework density 18.993576999999998
#
# number of rings (size 3 to 8) (size 9 to 14) (size 15 to 20)
#    0.000    2.000    0.000    5.571    0.000    6.857 
#    2.571    0.000    0.000    0.000    0.000    0.000 
#    0.000    0.000    0.000    0.000    0.000    0.000 
#
# Total GULP energy -156219.284310 kJ/mol
# GULP energy per Si atom -5579.260154 kJ/mol
# Density = 1.895035 g / cm^3
# Si number density = 18.993577 Si / 1000 Ang^3
#
#
#
# Elastic Constant Matrix: (Units=GPa)
#
#
# Indices 1 2 3 4 5 6 
#
# 1 93.2418 53.7949 48.5975 0.0000 0.0000 0.0000
# 2 53.7949 119.5339 38.1743 0.0000 0.0000 0.0000
# 3 48.5975 38.1743 89.7777 0.0000 0.0000 0.0000
# 4 0.0000 0.0000 0.0000 21.4575 0.0000 0.0000
# 5 0.0000 0.0000 0.0000 0.0000 21.6984 0.0000
# 6 0.0000 0.0000 0.0000 0.0000 0.0000 47.9967
#
#
#
# Elastic Compliance Matrix: (Units=1/GPa)
#
#
# Indices 1 2 3 4 5 6 
#
# 1 0.017759 -0.005696 -0.007191 0.000000 0.000000 0.000000
# 2 -0.005696 0.011507 -0.001810 0.000000 0.000000 0.000000
# 3 -0.007191 -0.001810 0.015801 0.000000 0.000000 0.000000
# 4 0.000000 0.000000 0.000000 0.046604 0.000000 0.000000
# 5 0.000000 0.000000 0.000000 0.000000 0.046086 0.000000
# 6 0.000000 0.000000 0.000000 0.000000 0.000000 0.020835
#
#
# Mechanical properties :
#
#
# Convention : Reuss Voigt Hill
#
# Bulk Modulus (GPa) = 63.80201 64.85410 64.32805
# Shear Modulus (GPa) = 25.87868 29.02966 27.45417
#
# Velocity S-wave (km/s) = 3.69521 3.91371 3.80603
# Velocity P-wave (km/s) = 7.20211 7.39204 7.29769
#
# Compressibility (1/GPa) = 0.01567349
#
# Stress axis : x y z
#
# Youngs Moduli (GPa) = 56.30993 86.90328 63.28775
#
# Poissons Ratio (x) = 0.49497 0.45512
# Poissons Ratio (y) = 0.32072 0.11454
# Poissons Ratio (z) = 0.40494 0.15728
#
# Static dielectric constant tensor:
#      x y z
#    x 1.699920 0.000000 0.000000 
#    y 0.000000 1.657780 0.000000 
#    z 0.000000 0.000000 1.689600 
# 
# From -- ./inp_files/38836.got.cif
#   From: 2010.05.17/outbox.cif.g08.bks.cpg/sg74_20_cif.got.tgz:38836.got - 2010.06.03 17:57:02.
