data_PCOD9534322
_publ_section_title
;
Structure prediction by ZEFSAII (Michael W. Deem and Ramdas Pophale) SiO2 
 PCOD9534322
Probable space group: I M M A
;
_chemical_formula_sum "Si O2"
_cell_formula_units_Z 116
_cell_length_a 7.605839
_cell_length_b 27.815886
_cell_length_c 27.760032
_cell_angle_alpha 90.000000
_cell_angle_beta 90.000000
_cell_angle_gamma 90.000000
_cell_volume 5872.999830
_symmetry_space_group_name_H-M "I M M A"
_symmetry_group_IT_number 74
_symmetry_cell_setting 'orthorhombic'
loop_
_space_group_symop_operation_xyz
x,y,z
-x,1/2-y,z
x,-y,-z
-x,1/2+y,-z
-x,-y,-z
x,1/2+y,-z
-x,y,z
x,1/2-y,z
1/2+x,1/2+y,1/2+z
1/2-x,-y,1/2+z
1/2+x,1/2-y,1/2-z
1/2-x,y,1/2-z
1/2-x,1/2-y,1/2-z
1/2+x,y,1/2-z
1/2-x,1/2+y,1/2+z
1/2+x,-y,1/2+z
loop_
_atom_site_type_symbol
_atom_site_label
_atom_site_fract_x
_atom_site_fract_y
_atom_site_fract_z
Si Si1 0.710729 0.042147 0.698440
Si Si2 0.286252 0.805617 0.926802
Si Si3 0.703144 0.541709 0.925275
Si Si4 0.711247 0.116305 0.996959
Si Si5 0.000000 0.750000 0.706650
Si Si6 0.293198 0.330145 0.317963
Si Si7 0.299411 0.437006 0.318604
Si Si8 0.706750 0.435956 0.593632
O O1 0.500000 0.038605 0.695240
O O2 0.750000 0.064922 0.750000
O O3 0.770941 0.067330 0.648958
O O4 0.784634 0.987289 0.698037
O O5 0.500000 0.807713 0.923093
O O6 0.236760 0.750000 0.931915
O O7 0.214604 0.824937 0.876214
O O8 0.230758 0.837664 0.972244
O O9 0.500000 0.556074 0.918424
O O10 0.798511 0.557349 0.876526
O O11 0.710931 0.484309 0.928809
O O12 0.770515 0.570243 0.971478
O O13 0.500000 0.116942 0.996389
O O14 0.765564 0.108294 0.942060
O O15 0.156156 0.708361 0.701880
O O16 0.500000 0.322299 0.304312
O O17 0.230464 0.384381 0.306193
O O18 0.500000 0.436469 0.301321
O O19 0.500000 0.445594 0.595386
#
# Coordination Sequence:
#
# PCOD9534322 Si02
#       8
#    16  16  16  16   4  16  16  16
#     4   9  19  36  53  74  98 122 156 204 254 308
#     4  10  18  32  48  68 100 135 174 219 251 290
#     4  10  18  28  46  67  97 130 166 201 239 286
#     4  10  20  30  45  68  98 133 172 205 240 286
#     4  12  22  32  48  70 106 126 184 220 258 304
#     4  11  20  32  50  70 100 136 169 217 264 302
#     4   9  19  32  48  72 101 126 162 204 250 306
#     4  10  21  34  46  66  98 130 163 202 244 298
#
# _framework density 19.751404000000001
#
# number of rings (size 3 to 8) (size 9 to 14) (size 15 to 20)
#    0.000    2.069    2.759    2.276    0.966    6.069 
#    0.000    0.000    0.000    0.000    0.000    0.483 
#    0.000    0.552    0.000    1.241    0.000    1.931 
#
# Total GULP energy -323294.411997 kJ/mol
# GULP energy per Si atom -5574.041586 kJ/mol
# Density = 1.970645 g / cm^3
# Si number density = 19.751404 Si / 1000 Ang^3
#
#
#
# Elastic Constant Matrix: (Units=GPa)
#
#
# Indices 1 2 3 4 5 6 
#
# 1 70.1387 7.5401 7.7412 0.0000 0.0000 0.0000
# 2 7.5401 50.4470 47.4343 0.0000 0.0000 0.0000
# 3 7.7412 47.4343 147.4880 0.0000 0.0000 0.0000
# 4 0.0000 0.0000 0.0000 -0.6124 0.0000 0.0000
# 5 0.0000 0.0000 0.0000 0.0000 20.5158 0.0000
# 6 0.0000 0.0000 0.0000 0.0000 0.0000 20.0987
#
#
#
# Elastic Compliance Matrix: (Units=1/GPa)
#
#
# Indices 1 2 3 4 5 6 
#
# 1 0.014491 -0.002080 -0.000092 0.000000 0.000000 0.000000
# 2 -0.002080 0.028714 -0.009126 0.000000 0.000000 0.000000
# 3 -0.000092 -0.009126 0.009720 0.000000 0.000000 0.000000
# 4 0.000000 0.000000 0.000000 -1.632948 0.000000 0.000000
# 5 0.000000 0.000000 0.000000 0.000000 0.048743 0.000000
# 6 0.000000 0.000000 0.000000 0.000000 0.000000 0.049755
#
#
# Mechanical properties :
#
#
# Convention : Reuss Voigt Hill
#
# Bulk Modulus (GPa) = 32.96940 43.72276 38.34608
# Shear Modulus (GPa) = -3.45108 21.69096 9.11994
#
# Velocity S-wave (km/s) = -1.32327 3.31750 2.15114
# Velocity P-wave (km/s) = 3.79390 6.07116 5.06225
#
# Compressibility (1/GPa) = 0.03033116
#
# Stress axis : x y z
#
# Youngs Moduli (GPa) = 69.00757 34.82570 102.88036
#
# Poissons Ratio (x) = 0.07243 0.00944
# Poissons Ratio (y) = 0.14351 0.93887
# Poissons Ratio (z) = 0.00633 0.31781
#
# Static dielectric constant tensor:
#      x y z
#    x 1.748840 0.000000 0.000000 
#    y 0.000000 1.683590 0.000000 
#    z 0.000000 0.000000 1.755290 
# 
# From -- ./inp_files/65361.got.cif
#   From: 2010.05.17/outbox.cif.g08.bks.cpg/sg74_33_cif.got.tgz:65361.got - 2010.06.03 17:57:02.
