data_PCOD9534241
_publ_section_title
;
Structure prediction by ZEFSAII (Michael W. Deem and Ramdas Pophale) SiO2 
 PCOD9534241
Probable space group: I M M A
;
_chemical_formula_sum "Si O2"
_cell_formula_units_Z 80
_cell_length_a 26.001892
_cell_length_b 13.844778
_cell_length_c 11.906438
_cell_angle_alpha 90.000000
_cell_angle_beta 90.000000
_cell_angle_gamma 90.000000
_cell_volume 4286.203644
_symmetry_space_group_name_H-M "I M M A"
_symmetry_group_IT_number 74
_symmetry_cell_setting 'orthorhombic'
loop_
_space_group_symop_operation_xyz
x,y,z
-x,1/2-y,z
x,-y,-z
-x,1/2+y,-z
-x,-y,-z
x,1/2+y,-z
-x,y,z
x,1/2-y,z
1/2+x,1/2+y,1/2+z
1/2-x,-y,1/2+z
1/2+x,1/2-y,1/2-z
1/2-x,y,1/2-z
1/2-x,1/2-y,1/2-z
1/2+x,y,1/2-z
1/2-x,1/2+y,1/2+z
1/2+x,-y,1/2+z
loop_
_atom_site_type_symbol
_atom_site_label
_atom_site_fract_x
_atom_site_fract_y
_atom_site_fract_z
Si Si1 0.705603 0.068936 0.162771
Si Si2 0.055701 0.039021 0.871623
Si Si3 0.344747 0.891350 0.461133
Si Si4 0.729504 0.642787 0.085981
Si Si5 0.391346 0.356716 0.296325
O O1 0.750000 0.096719 0.250000
O O2 0.652587 0.106948 0.212691
O O3 0.708456 0.952105 0.149691
O O4 0.716460 0.118935 0.043833
O O5 0.107003 0.104384 0.875582
O O6 0.000000 0.082457 0.844587
O O7 0.067078 0.942094 0.802133
O O8 0.053422 0.000000 0.000000
O O9 0.291837 0.854506 0.410194
O O10 0.365494 0.850080 0.579002
O O11 0.331256 0.000000 0.500000
O O12 0.710624 0.750000 0.118297
O O13 0.410587 0.250000 0.267592
#
# Coordination Sequence:
#
# PCOD9534241 Si02
#       5
#    16  16  16  16  16
#     4  11  20  33  47  70 103 136 171 218 264 301
#     4   8  16  30  47  67  99 135 161 202 261 310
#     4   9  15  29  45  66  95 129 166 199 245 301
#     4  11  21  32  49  72  99 138 179 212 254 313
#     4  10  18  27  47  72  96 130 170 207 247 299
#
# _framework density 18.664535000000001
#
# number of rings (size 3 to 8) (size 9 to 14) (size 15 to 20)
#    0.000    2.600    4.000    2.400    0.000    1.600 
#    0.000    0.000    0.000    6.600    0.000    2.800 
#    0.000    1.600    0.000    0.000    0.000    0.000 
#
# Total GULP energy -222801.471102 kJ/mol
# GULP energy per Si atom -5570.036778 kJ/mol
# Density = 1.862205 g / cm^3
# Si number density = 18.664535 Si / 1000 Ang^3
#
#
#
# Elastic Constant Matrix: (Units=GPa)
#
#
# Indices 1 2 3 4 5 6 
#
# 1 77.1878 22.2233 15.7644 0.0000 0.0000 0.0000
# 2 22.2233 82.2691 8.1375 0.0000 0.0000 0.0000
# 3 15.7644 8.1375 42.6940 0.0000 0.0000 0.0000
# 4 0.0000 0.0000 0.0000 -10.7748 0.0000 0.0000
# 5 0.0000 0.0000 0.0000 0.0000 3.8575 0.0000
# 6 0.0000 0.0000 0.0000 0.0000 0.0000 -3.5060
#
#
#
# Elastic Compliance Matrix: (Units=1/GPa)
#
#
# Indices 1 2 3 4 5 6 
#
# 1 0.014972 -0.003565 -0.004849 0.000000 0.000000 0.000000
# 2 -0.003565 0.013238 -0.001207 0.000000 0.000000 0.000000
# 3 -0.004849 -0.001207 0.025443 0.000000 0.000000 0.000000
# 4 0.000000 0.000000 0.000000 -0.092809 0.000000 0.000000
# 5 0.000000 0.000000 0.000000 0.000000 0.259238 0.000000
# 6 0.000000 0.000000 0.000000 0.000000 0.000000 -0.285225
#
#
# Mechanical properties :
#
#
# Convention : Reuss Voigt Hill
#
# Bulk Modulus (GPa) = 29.05997 32.71126 30.88561
# Shear Modulus (GPa) = -145.21331 8.31704 -68.44813
#
# Velocity S-wave (km/s) = -8.83010 2.11323 -6.06238
# Velocity P-wave (km/s) = 9.39986 4.84956 5.69382
#
# Compressibility (1/GPa) = 0.03441160
#
# Stress axis : x y z
#
# Youngs Moduli (GPa) = 66.79108 75.54267 39.30369
#
# Poissons Ratio (x) = 0.26929 0.19058
# Poissons Ratio (y) = 0.23810 0.04743
# Poissons Ratio (z) = 0.32386 0.09117
#
# Static dielectric constant tensor:
#      x y z
#    x 1.673840 0.000000 0.000000 
#    y 0.000000 1.722640 0.000000 
#    z 0.000000 0.000000 1.662010 
# 
# From -- ./inp_files/36322.got.cif
#   From: 2010.05.17/outbox.cif.g08.bks.cpg/sg74_19_cif.got.tgz:36322.got - 2010.06.03 17:57:02.
