data_PCOD9534429
_publ_section_title
;
Structure prediction by ZEFSAII (Michael W. Deem and Ramdas Pophale) SiO2 
 PCOD9534429
Probable space group: I M M A
;
_chemical_formula_sum "Si O2"
_cell_formula_units_Z 64
_cell_length_a 27.190350
_cell_length_b 18.937989
_cell_length_c 5.539113
_cell_angle_alpha 90.000000
_cell_angle_beta 90.000000
_cell_angle_gamma 90.000000
_cell_volume 2852.258499
_symmetry_space_group_name_H-M "I M M A"
_symmetry_group_IT_number 74
_symmetry_cell_setting 'orthorhombic'
loop_
_space_group_symop_operation_xyz
x,y,z
-x,1/2-y,z
x,-y,-z
-x,1/2+y,-z
-x,-y,-z
x,1/2+y,-z
-x,y,z
x,1/2-y,z
1/2+x,1/2+y,1/2+z
1/2-x,-y,1/2+z
1/2+x,1/2-y,1/2-z
1/2-x,y,1/2-z
1/2-x,1/2-y,1/2-z
1/2+x,y,1/2-z
1/2-x,1/2+y,1/2+z
1/2+x,-y,1/2+z
loop_
_atom_site_type_symbol
_atom_site_label
_atom_site_fract_x
_atom_site_fract_y
_atom_site_fract_z
Si Si1 0.865377 0.750000 0.876344
Si Si2 0.946133 0.044572 0.250239
Si Si3 0.839947 0.595974 0.847013
Si Si4 0.866311 0.250000 0.623781
Si Si5 0.694982 0.394939 0.845006
O O1 0.831688 0.680288 0.878072
O O2 0.894670 0.750000 0.627129
O O3 0.895083 0.750000 0.125117
O O4 0.896759 0.089284 0.228662
O O5 0.000000 0.080222 0.262102
O O6 0.941891 0.000000 0.500000
O O7 0.946462 0.000000 0.000000
O O8 0.808527 0.572446 0.614265
O O9 0.832010 0.566980 0.118576
O O10 0.832578 0.319810 0.624783
O O11 0.750000 0.387106 0.750000
#
# Coordination Sequence:
#
# PCOD9534429 Si02
#       5
#     8  16  16   8  16
#     4   8  16  28  46  74 104 134 162 198 254 308
#     4  10  21  38  60  80  96 125 173 220 258 298
#     4  10  19  33  52  76 107 135 167 211 254 297
#     4   8  15  26  42  68 101 138 175 206 234 276
#     4  10  18  29  48  74 106 141 173 203 242 297
#
# _framework density 22.438358000000001
#
# number of rings (size 3 to 8) (size 9 to 14) (size 15 to 20)
#    0.000    2.500    0.000    2.625    0.000    0.000 
#    0.000    8.125    0.000   15.000    0.000   15.750 
#    0.000    0.000    0.000    0.000    0.000    0.000 
#
# Total GULP energy -178149.588580 kJ/mol
# GULP energy per Si atom -5567.174643 kJ/mol
# Density = 2.238729 g / cm^3
# Si number density = 22.438358 Si / 1000 Ang^3
#
#
#
# Elastic Constant Matrix: (Units=GPa)
#
#
# Indices 1 2 3 4 5 6 
#
# 1 100.1406 4.6359 18.3833 0.0000 0.0000 0.0000
# 2 4.6359 32.5308 8.5764 0.0000 0.0000 0.0000
# 3 18.3833 8.5764 258.3438 0.0000 0.0000 0.0000
# 4 0.0000 0.0000 0.0000 25.3657 0.0000 0.0000
# 5 0.0000 0.0000 0.0000 0.0000 35.0057 0.0000
# 6 0.0000 0.0000 0.0000 0.0000 0.0000 18.9653
#
#
#
# Elastic Compliance Matrix: (Units=1/GPa)
#
#
# Indices 1 2 3 4 5 6 
#
# 1 0.010170 -0.001270 -0.000682 0.000000 0.000000 0.000000
# 2 -0.001270 0.031170 -0.000944 0.000000 0.000000 0.000000
# 3 -0.000682 -0.000944 0.003951 0.000000 0.000000 0.000000
# 4 0.000000 0.000000 0.000000 0.039423 0.000000 0.000000
# 5 0.000000 0.000000 0.000000 0.000000 0.028567 0.000000
# 6 0.000000 0.000000 0.000000 0.000000 0.000000 0.052728
#
#
# Mechanical properties :
#
#
# Convention : Reuss Voigt Hill
#
# Bulk Modulus (GPa) = 25.31682 50.46736 37.89209
# Shear Modulus (GPa) = 27.03197 39.82865 33.43031
#
# Velocity S-wave (km/s) = 3.47468 4.21768 3.86408
# Velocity P-wave (km/s) = 5.23499 6.80138 6.06893
#
# Compressibility (1/GPa) = 0.03949942
#
# Stress axis : x y z
#
# Youngs Moduli (GPa) = 98.32991 32.08208 253.12229
#
# Poissons Ratio (x) = 0.04073 0.17251
# Poissons Ratio (y) = 0.12484 0.23905
# Poissons Ratio (z) = 0.06701 0.03030
#
# Static dielectric constant tensor:
#      x y z
#    x 1.766100 0.000000 0.000000 
#    y 0.000000 1.886300 0.000000 
#    z 0.000000 0.000000 1.990290 
# 
# From -- ./inp_files/3048.got.cif
#   From: 2010.05.17/outbox.cif.g08.bks.cpg/sg74_2_cif.got.tgz:3048.got - 2010.06.03 17:57:02.
