data_PCOD9534593
_publ_section_title
;
Structure prediction by ZEFSAII (Michael W. Deem and Ramdas Pophale) SiO2 
 PCOD9534593
Probable space group: I M M A
;
_chemical_formula_sum "Si O2"
_cell_formula_units_Z 112
_cell_length_a 27.523387
_cell_length_b 14.237046
_cell_length_c 16.571717
_cell_angle_alpha 90.000000
_cell_angle_beta 90.000000
_cell_angle_gamma 90.000000
_cell_volume 6493.655922
_symmetry_space_group_name_H-M "I M M A"
_symmetry_group_IT_number 74
_symmetry_cell_setting 'orthorhombic'
loop_
_space_group_symop_operation_xyz
x,y,z
-x,1/2-y,z
x,-y,-z
-x,1/2+y,-z
-x,-y,-z
x,1/2+y,-z
-x,y,z
x,1/2-y,z
1/2+x,1/2+y,1/2+z
1/2-x,-y,1/2+z
1/2+x,1/2-y,1/2-z
1/2-x,y,1/2-z
1/2-x,1/2-y,1/2-z
1/2+x,y,1/2-z
1/2-x,1/2+y,1/2+z
1/2+x,-y,1/2+z
loop_
_atom_site_type_symbol
_atom_site_label
_atom_site_fract_x
_atom_site_fract_y
_atom_site_fract_z
Si Si1 0.751124 0.350958 0.846904
Si Si2 0.705535 0.362819 0.386132
Si Si3 0.887379 0.863388 0.991727
Si Si4 0.863255 0.141661 0.837679
Si Si5 0.303337 0.030931 0.087100
Si Si6 0.356072 0.454200 0.247118
Si Si7 0.054688 0.136584 0.163058
O O1 0.731662 0.250000 0.874463
O O2 0.750000 0.352692 0.750000
O O3 0.807643 0.356229 0.868939
O O4 0.721710 0.437030 0.879205
O O5 0.703916 0.250000 0.374931
O O6 0.663894 0.390717 0.450686
O O7 0.758437 0.395615 0.415181
O O8 0.687981 0.414581 0.303811
O O9 0.886327 0.750000 0.996354
O O10 0.928525 0.889577 0.927715
O O11 0.892919 0.893548 0.084159
O O12 0.875371 0.250000 0.815245
O O13 0.863868 0.064292 0.767989
O O14 0.341860 0.061222 0.154609
O O15 0.322639 0.000000 0.000000
O O16 0.404414 0.402183 0.277033
O O17 0.056054 0.250000 0.166870
O O18 0.000000 0.104906 0.180127
#
# Coordination Sequence:
#
# PCOD9534593 Si02
#       7
#    16  16  16  16  16  16  16
#     4  10  18  32  50  69  97 138 186 217 239 290
#     4  10  20  33  49  72 106 141 171 212 263 312
#     4   8  16  30  49  75 100 130 167 204 251 305
#     4  10  18  30  50  73 104 141 176 210 247 298
#     4  12  23  33  47  72 107 140 177 217 261 307
#     4  11  21  34  52  76 101 136 180 219 261 311
#     4   9  19  37  59  79 102 131 167 214 266 325
#
# _framework density 17.247603999999999
#
# number of rings (size 3 to 8) (size 9 to 14) (size 15 to 20)
#    0.000    2.000    2.857    2.571    0.000    5.143 
#    0.000    1.429    0.000    1.714    0.000    0.000 
#    0.000    0.000    0.000    0.000    0.000    0.000 
#
# Total GULP energy -312370.622847 kJ/mol
# GULP energy per Si atom -5578.046837 kJ/mol
# Density = 1.720835 g / cm^3
# Si number density = 17.247604 Si / 1000 Ang^3
#
#
#
# Elastic Constant Matrix: (Units=GPa)
#
#
# Indices 1 2 3 4 5 6 
#
# 1 66.1094 4.0377 22.4294 0.0000 0.0000 0.0000
# 2 4.0377 72.8778 1.3760 0.0000 0.0000 0.0000
# 3 22.4294 1.3760 76.4945 0.0000 0.0000 0.0000
# 4 0.0000 0.0000 0.0000 13.7956 0.0000 0.0000
# 5 0.0000 0.0000 0.0000 0.0000 9.4273 0.0000
# 6 0.0000 0.0000 0.0000 0.0000 0.0000 12.6261
#
#
#
# Elastic Compliance Matrix: (Units=1/GPa)
#
#
# Indices 1 2 3 4 5 6 
#
# 1 0.016849 -0.000841 -0.004925 0.000000 0.000000 0.000000
# 2 -0.000841 0.013768 -0.000001 0.000000 0.000000 0.000000
# 3 -0.004925 -0.000001 0.014517 0.000000 0.000000 0.000000
# 4 0.000000 0.000000 0.000000 0.072487 0.000000 0.000000
# 5 0.000000 0.000000 0.000000 0.000000 0.106075 0.000000
# 6 0.000000 0.000000 0.000000 0.000000 0.000000 0.079201
#
#
# Mechanical properties :
#
#
# Convention : Reuss Voigt Hill
#
# Bulk Modulus (GPa) = 29.76179 30.12977 29.94578
# Shear Modulus (GPa) = 15.35478 19.67901 17.51690
#
# Velocity S-wave (km/s) = 2.98695 3.38149 3.19033
# Velocity P-wave (km/s) = 5.40268 5.72301 5.56515
#
# Compressibility (1/GPa) = 0.03360013
#
# Stress axis : x y z
#
# Youngs Moduli (GPa) = 59.35137 72.63116 68.88464
#
# Poissons Ratio (x) = 0.06105 0.33927
# Poissons Ratio (y) = 0.04989 0.00008
# Poissons Ratio (z) = 0.29232 0.00009
#
# Static dielectric constant tensor:
#      x y z
#    x 1.578800 0.000000 0.000000 
#    y 0.000000 1.632610 0.000000 
#    z 0.000000 0.000000 1.634980 
# 
# From -- ./inp_files/37937.got.cif
#   From: 2010.05.17/outbox.cif.g08.bks.cpg/sg74_19_cif.got.tgz:37937.got - 2010.06.03 17:57:02.
