data_PCOD9534880
_publ_section_title
;
Structure prediction by ZEFSAII (Michael W. Deem and Ramdas Pophale) SiO2 
 PCOD9534880
Probable space group: I M M A
;
_chemical_formula_sum "Si O2"
_cell_formula_units_Z 56
_cell_length_a 8.795635
_cell_length_b 11.340590
_cell_length_c 30.713207
_cell_angle_alpha 90.000000
_cell_angle_beta 90.000000
_cell_angle_gamma 90.000000
_cell_volume 3063.571461
_symmetry_space_group_name_H-M "I M M A"
_symmetry_group_IT_number 74
_symmetry_cell_setting 'orthorhombic'
loop_
_space_group_symop_operation_xyz
x,y,z
-x,1/2-y,z
x,-y,-z
-x,1/2+y,-z
-x,-y,-z
x,1/2+y,-z
-x,y,z
x,1/2-y,z
1/2+x,1/2+y,1/2+z
1/2-x,-y,1/2+z
1/2+x,1/2-y,1/2-z
1/2-x,y,1/2-z
1/2-x,1/2-y,1/2-z
1/2+x,y,1/2-z
1/2-x,1/2+y,1/2+z
1/2+x,-y,1/2+z
loop_
_atom_site_type_symbol
_atom_site_label
_atom_site_fract_x
_atom_site_fract_y
_atom_site_fract_z
Si Si1 0.329371 0.389498 0.376137
Si Si2 0.818313 0.750000 0.201186
Si Si3 0.816550 0.110503 0.468724
Si Si4 0.180186 0.509498 0.298049
O O1 0.500000 0.441007 0.372089
O O2 0.344286 0.250000 0.378613
O O3 0.248847 0.422385 0.421251
O O4 0.230605 0.415956 0.333585
O O5 0.750000 0.750000 0.250000
O O6 0.750873 0.869670 0.182719
O O7 0.000000 0.750000 0.202043
O O8 0.771465 0.250000 0.479030
O O9 0.000000 0.111945 0.467367
O O10 0.771606 0.000000 0.500000
O O11 0.250000 0.488115 0.250000
O O12 0.000000 0.519802 0.293473
#
# Coordination Sequence:
#
# PCOD9534880 Si02
#       4
#    16   8  16  16
#     4  10  21  37  56  79 109 145 184 228 277 330
#     4  10  18  32  52  74 104 140 180 224 272 320
#     4   9  18  35  58  82 110 145 183 229 283 340
#     4  11  21  35  55  79 109 146 186 228 274 328
#
# _framework density 18.279319999999998
#
# number of rings (size 3 to 8) (size 9 to 14) (size 15 to 20)
#    0.000    2.000    0.000    6.429    0.000    2.857 
#    2.571    0.000    0.000    0.000    0.000    0.000 
#    0.000    0.000    0.000    0.000    0.000    0.000 
#
# Total GULP energy -155891.530372 kJ/mol
# GULP energy per Si atom -5567.554656 kJ/mol
# Density = 1.823772 g / cm^3
# Si number density = 18.279320 Si / 1000 Ang^3
#
#
#
# Elastic Constant Matrix: (Units=GPa)
#
#
# Indices 1 2 3 4 5 6 
#
# 1 121.7941 30.1429 53.7155 0.0000 0.0000 0.0000
# 2 30.1429 52.6895 52.6053 0.0000 0.0000 0.0000
# 3 53.7155 52.6053 115.6010 0.0000 0.0000 0.0000
# 4 0.0000 0.0000 0.0000 30.1895 0.0000 0.0000
# 5 0.0000 0.0000 0.0000 0.0000 27.7298 0.0000
# 6 0.0000 0.0000 0.0000 0.0000 0.0000 23.9592
#
#
#
# Elastic Compliance Matrix: (Units=1/GPa)
#
#
# Indices 1 2 3 4 5 6 
#
# 1 0.010449 -0.002071 -0.003913 0.000000 0.000000 0.000000
# 2 -0.002071 0.035192 -0.015052 0.000000 0.000000 0.000000
# 3 -0.003913 -0.015052 0.017318 0.000000 0.000000 0.000000
# 4 0.000000 0.000000 0.000000 0.033124 0.000000 0.000000
# 5 0.000000 0.000000 0.000000 0.000000 0.036062 0.000000
# 6 0.000000 0.000000 0.000000 0.000000 0.000000 0.041738
#
#
# Mechanical properties :
#
#
# Convention : Reuss Voigt Hill
#
# Bulk Modulus (GPa) = 47.87646 62.55690 55.21668
# Shear Modulus (GPa) = 22.42986 26.61709 24.52347
#
# Velocity S-wave (km/s) = 3.50675 3.82007 3.66675
# Velocity P-wave (km/s) = 6.53030 7.33173 6.94259
#
# Compressibility (1/GPa) = 0.02088709
#
# Stress axis : x y z
#
# Youngs Moduli (GPa) = 95.70478 28.41554 57.74312
#
# Poissons Ratio (x) = 0.05885 0.22593
# Poissons Ratio (y) = 0.19823 0.86915
# Poissons Ratio (z) = 0.37446 0.42771
#
# Static dielectric constant tensor:
#      x y z
#    x 1.660710 0.000000 0.000000 
#    y 0.000000 1.753960 0.000000 
#    z 0.000000 0.000000 1.220980 
# 
# From -- ./inp_files/63233.got.cif
#   From: 2010.05.17/outbox.cif.g08.bks.cpg/sg74_32_cif.got.tgz:63233.got - 2010.06.03 17:57:02.
