data_PCOD9534757
_publ_section_title
;
Structure prediction by ZEFSAII (Michael W. Deem and Ramdas Pophale) SiO2 
 PCOD9534757
Probable space group: I M M A
;
_chemical_formula_sum "Si O2"
_cell_formula_units_Z 76
_cell_length_a 11.218071
_cell_length_b 10.320491
_cell_length_c 29.424492
_cell_angle_alpha 90.000000
_cell_angle_beta 90.000000
_cell_angle_gamma 90.000000
_cell_volume 3406.650009
_symmetry_space_group_name_H-M "I M M A"
_symmetry_group_IT_number 74
_symmetry_cell_setting 'orthorhombic'
loop_
_space_group_symop_operation_xyz
x,y,z
-x,1/2-y,z
x,-y,-z
-x,1/2+y,-z
-x,-y,-z
x,1/2+y,-z
-x,y,z
x,1/2-y,z
1/2+x,1/2+y,1/2+z
1/2-x,-y,1/2+z
1/2+x,1/2-y,1/2-z
1/2-x,y,1/2-z
1/2-x,1/2-y,1/2-z
1/2+x,y,1/2-z
1/2-x,1/2+y,1/2+z
1/2+x,-y,1/2+z
loop_
_atom_site_type_symbol
_atom_site_label
_atom_site_fract_x
_atom_site_fract_y
_atom_site_fract_z
Si Si1 0.000000 0.250000 0.502693
Si Si2 0.359471 0.250000 0.714083
Si Si3 0.500000 0.105285 0.821533
Si Si4 0.749373 0.020646 0.301896
Si Si5 0.858823 0.250000 0.925144
Si Si6 0.000000 0.534849 0.421022
Si Si7 0.776626 0.250000 0.028869
Si Si8 0.761923 0.963998 0.902395
O O1 0.868734 0.250000 0.479378
O O2 0.000000 0.376936 0.534763
O O3 0.500000 0.250000 0.719351
O O4 0.250000 0.250000 0.750000
O O5 0.333064 0.392755 0.694505
O O6 0.500000 0.250000 0.804086
O O7 0.615983 0.030250 0.806471
O O8 0.500000 0.117440 0.875300
O O9 0.750000 0.076797 0.250000
O O10 0.723080 0.087805 0.350574
O O11 0.800870 0.115436 0.906619
O O12 0.000000 0.250000 0.915241
O O13 0.833018 0.250000 0.979004
O O14 0.121848 0.458209 0.415154
O O15 0.816777 0.373980 0.058681
#
# Coordination Sequence:
#
# PCOD9534757 Si02
#       8
#     4   8   8  16   8   8   8  16
#     4  12  20  36  72 104 134 166 218 264 330 404
#     4  10  21  32  54  89 124 161 210 268 329 391
#     4  10  18  31  51  89 129 168 200 264 329 384
#     4  10  22  34  58  85 127 167 216 260 322 379
#     4  12  27  46  66  92 128 169 216 276 336 389
#     4  10  19  36  66  99 136 166 209 264 336 392
#     4  12  26  41  70  96 134 170 223 263 330 396
#     4  11  24  44  64 101 132 173 213 274 324 393
#
# _framework density 22.309308000000001
#
# number of rings (size 3 to 8) (size 9 to 14) (size 15 to 20)
#    0.000    1.263    3.684    1.895    8.842    4.211 
#    0.000    0.526    0.000    0.000    0.000    0.000 
#    0.000    0.000    0.000    0.000    0.000    0.000 
#
# Total GULP energy -211613.699119 kJ/mol
# GULP energy per Si atom -5568.781556 kJ/mol
# Density = 2.225853 g / cm^3
# Si number density = 22.309308 Si / 1000 Ang^3
#
#
#
# Elastic Constant Matrix: (Units=GPa)
#
#
# Indices 1 2 3 4 5 6 
#
# 1 109.8457 3.7783 8.4706 0.0000 0.0000 0.0000
# 2 3.7783 49.7394 42.5751 0.0000 0.0000 0.0000
# 3 8.4706 42.5751 178.9078 0.0000 0.0000 0.0000
# 4 0.0000 0.0000 0.0000 -23.8953 0.0000 0.0000
# 5 0.0000 0.0000 0.0000 0.0000 28.9352 0.0000
# 6 0.0000 0.0000 0.0000 0.0000 0.0000 1.4379
#
#
#
# Elastic Compliance Matrix: (Units=1/GPa)
#
#
# Indices 1 2 3 4 5 6 
#
# 1 0.009144 -0.000407 -0.000336 0.000000 0.000000 0.000000
# 2 -0.000407 0.025266 -0.005993 0.000000 0.000000 0.000000
# 3 -0.000336 -0.005993 0.007032 0.000000 0.000000 0.000000
# 4 0.000000 0.000000 0.000000 -0.041849 0.000000 0.000000
# 5 0.000000 0.000000 0.000000 0.000000 0.034560 0.000000
# 6 0.000000 0.000000 0.000000 0.000000 0.000000 0.695448
#
#
# Mechanical properties :
#
#
# Convention : Reuss Voigt Hill
#
# Bulk Modulus (GPa) = 35.75456 49.79341 42.77398
# Shear Modulus (GPa) = 6.64545 20.20683 13.42614
#
# Velocity S-wave (km/s) = 1.72779 3.01285 2.45586
# Velocity P-wave (km/s) = 4.47681 5.87120 5.22077
#
# Compressibility (1/GPa) = 0.02796846
#
# Stress axis : x y z
#
# Youngs Moduli (GPa) = 109.36620 39.57928 142.21474
#
# Poissons Ratio (x) = 0.01610 0.04780
# Poissons Ratio (y) = 0.04450 0.85233
# Poissons Ratio (z) = 0.03676 0.23721
#
# Static dielectric constant tensor:
#      x y z
#    x 1.810180 0.000000 0.000000 
#    y 0.000000 1.871460 0.000000 
#    z 0.000000 0.000000 1.908420 
# 
# From -- ./inp_files/71606.got.cif
#   From: 2010.05.17/outbox.cif.g08.bks.cpg/sg74_36_cif.got.tgz:71606.got - 2010.06.03 17:57:02.
