data_PCOD9534524
_publ_section_title
;
Structure prediction by ZEFSAII (Michael W. Deem and Ramdas Pophale) SiO2 
 PCOD9534524
Probable space group: I M M A
;
_chemical_formula_sum "Si O2"
_cell_formula_units_Z 128
_cell_length_a 20.966538
_cell_length_b 14.662761
_cell_length_c 19.730576
_cell_angle_alpha 90.000000
_cell_angle_beta 90.000000
_cell_angle_gamma 90.000000
_cell_volume 6065.718411
_symmetry_space_group_name_H-M "I M M A"
_symmetry_group_IT_number 74
_symmetry_cell_setting 'orthorhombic'
loop_
_space_group_symop_operation_xyz
x,y,z
-x,1/2-y,z
x,-y,-z
-x,1/2+y,-z
-x,-y,-z
x,1/2+y,-z
-x,y,z
x,1/2-y,z
1/2+x,1/2+y,1/2+z
1/2-x,-y,1/2+z
1/2+x,1/2-y,1/2-z
1/2-x,y,1/2-z
1/2-x,1/2-y,1/2-z
1/2+x,y,1/2-z
1/2-x,1/2+y,1/2+z
1/2+x,-y,1/2+z
loop_
_atom_site_type_symbol
_atom_site_label
_atom_site_fract_x
_atom_site_fract_y
_atom_site_fract_z
Si Si1 0.190883 0.145048 0.563545
Si Si2 0.567163 0.893349 0.669628
Si Si3 0.710941 0.119135 0.684035
Si Si4 0.569557 0.855111 0.510829
Si Si5 0.292861 0.640784 0.534069
Si Si6 0.297872 0.899682 0.692795
Si Si7 0.429332 0.104717 0.696708
Si Si8 0.928122 0.860085 0.353716
O O1 0.174233 0.250000 0.546798
O O2 0.245119 0.143588 0.621210
O O3 0.228577 0.104554 0.500184
O O4 0.127195 0.104782 0.596901
O O5 0.500000 0.866696 0.701395
O O6 0.568372 0.856560 0.593053
O O7 0.630540 0.867194 0.708520
O O8 0.568894 0.003544 0.665377
O O9 0.750000 0.151442 0.750000
O O10 0.637457 0.149743 0.675602
O O11 0.705660 0.009709 0.692226
O O12 0.500000 0.894421 0.488353
O O13 0.569606 0.750000 0.487633
O O14 0.640772 0.894692 0.499523
O O15 0.295216 0.750000 0.523174
O O16 0.288416 0.626068 0.614368
O O17 0.250000 0.865903 0.750000
O O18 0.500000 0.145630 0.683380
O O19 0.423152 0.098343 0.778492
O O20 0.920116 0.750000 0.344549
O O21 0.000000 0.875709 0.378901
#
# Coordination Sequence:
#
# PCOD9534524 Si02
#       8
#    16  16  16  16  16  16  16  16
#     4  10  20  32  48  69  94 125 158 192 232 277
#     4   8  14  25  43  66  91 119 150 186 226 271
#     4  10  18  30  46  69  95 120 156 193 235 277
#     4   8  13  24  44  67  91 121 155 189 225 272
#     4   9  18  32  47  68  95 124 159 193 231 281
#     4   9  18  30  48  71  95 119 153 195 237 282
#     4   9  16  27  43  64  92 124 154 190 232 273
#     4   9  17  29  46  68  91 120 159 194 228 275
#
# _framework density 21.1022
#
# number of rings (size 3 to 8) (size 9 to 14) (size 15 to 20)
#    0.000    3.000    1.250    0.000    0.000    1.500 
#    0.000    0.625    0.000    1.500    0.000    9.625 
#    0.000    0.000    0.000    0.000    0.000    0.000 
#
# Total GULP energy -356512.714367 kJ/mol
# GULP energy per Si atom -5570.511162 kJ/mol
# Density = 2.105417 g / cm^3
# Si number density = 21.102200 Si / 1000 Ang^3
#
#
#
# Elastic Constant Matrix: (Units=GPa)
#
#
# Indices 1 2 3 4 5 6 
#
# 1 165.7471 2.6294 47.9550 0.0000 0.0000 0.0000
# 2 2.6294 65.9741 -0.2944 0.0000 0.0000 0.0000
# 3 47.9550 -0.2944 60.8989 0.0000 0.0000 0.0000
# 4 0.0000 0.0000 0.0000 10.4235 0.0000 0.0000
# 5 0.0000 0.0000 0.0000 0.0000 30.5361 0.0000
# 6 0.0000 0.0000 0.0000 0.0000 0.0000 48.8981
#
#
#
# Elastic Compliance Matrix: (Units=1/GPa)
#
#
# Indices 1 2 3 4 5 6 
#
# 1 0.007821 -0.000339 -0.006160 0.000000 0.000000 0.000000
# 2 -0.000339 0.015173 0.000340 0.000000 0.000000 0.000000
# 3 -0.006160 0.000340 0.021273 0.000000 0.000000 0.000000
# 4 0.000000 0.000000 0.000000 0.095937 0.000000 0.000000
# 5 0.000000 0.000000 0.000000 0.000000 0.032748 0.000000
# 6 0.000000 0.000000 0.000000 0.000000 0.000000 0.020451
#
#
# Mechanical properties :
#
#
# Convention : Reuss Voigt Hill
#
# Bulk Modulus (GPa) = 31.30021 43.68888 37.49454
# Shear Modulus (GPa) = 23.10858 34.12690 28.61774
#
# Velocity S-wave (km/s) = 3.31279 4.02583 3.68659
# Velocity P-wave (km/s) = 5.43117 6.50831 5.99399
#
# Compressibility (1/GPa) = 0.03194867
#
# Stress axis : x y z
#
# Youngs Moduli (GPa) = 127.86073 65.90869 47.00739
#
# Poissons Ratio (x) = 0.02236 0.28958
# Poissons Ratio (y) = 0.04337 -0.01600
# Poissons Ratio (z) = 0.78766 -0.02244
#
# Static dielectric constant tensor:
#      x y z
#    x 1.844400 0.000000 0.000000 
#    y 0.000000 1.780150 0.000000 
#    z 0.000000 0.000000 1.745270 
# 
# From -- ./inp_files/45604.got.cif
#   From: 2010.05.17/outbox.cif.g08.bks.cpg/sg74_23_cif.got.tgz:45604.got - 2010.06.03 17:57:02.
