data_PCOD9534258
_publ_section_title
;
Structure prediction by ZEFSAII (Michael W. Deem and Ramdas Pophale) SiO2 
 PCOD9534258
Probable space group: I M M A
;
_chemical_formula_sum "Si O2"
_cell_formula_units_Z 72
_cell_length_a 8.970628
_cell_length_b 32.664564
_cell_length_c 18.635913
_cell_angle_alpha 90.000000
_cell_angle_beta 90.000000
_cell_angle_gamma 90.000000
_cell_volume 5460.726022
_symmetry_space_group_name_H-M "I M M A"
_symmetry_group_IT_number 74
_symmetry_cell_setting 'orthorhombic'
loop_
_space_group_symop_operation_xyz
x,y,z
-x,1/2-y,z
x,-y,-z
-x,1/2+y,-z
-x,-y,-z
x,1/2+y,-z
-x,y,z
x,1/2-y,z
1/2+x,1/2+y,1/2+z
1/2-x,-y,1/2+z
1/2+x,1/2-y,1/2-z
1/2-x,y,1/2-z
1/2-x,1/2-y,1/2-z
1/2+x,y,1/2-z
1/2-x,1/2+y,1/2+z
1/2+x,-y,1/2+z
loop_
_atom_site_type_symbol
_atom_site_label
_atom_site_fract_x
_atom_site_fract_y
_atom_site_fract_z
Si Si1 0.321705 0.250000 0.171454
Si Si2 0.820555 0.340080 0.329772
Si Si3 0.322325 0.499237 0.328037
Si Si4 0.171769 0.957003 0.456327
Si Si5 0.677723 0.085103 0.413733
O O1 0.500000 0.250000 0.178973
O O2 0.250000 0.250000 0.250000
O O3 0.282412 0.205489 0.140071
O O4 0.750000 0.343441 0.250000
O O5 0.754773 0.375713 0.378681
O O6 0.000000 0.343787 0.324468
O O7 0.500000 0.504100 0.323930
O O8 0.250000 0.501421 0.250000
O O9 0.253213 0.532601 0.382112
O O10 0.292150 0.454549 0.363205
O O11 0.256525 0.925637 0.508207
O O12 0.000000 0.945118 0.445251
O O13 0.172614 0.000000 0.500000
O O14 0.500000 0.090332 0.417393
#
# Coordination Sequence:
#
# PCOD9534258 Si02
#       5
#     8  16  16  16  16
#     4   8  16  28  40  54  74 100 129 162 199 236
#     4  10  18  28  41  57  77 102 133 167 201 235
#     4  10  19  29  41  57  78 103 132 165 198 233
#     4   9  17  29  43  57  75 100 129 161 198 236
#     4  10  19  29  41  58  79 103 132 165 199 234
#
# _framework density 13.18506
#
# number of rings (size 3 to 8) (size 9 to 14) (size 15 to 20)
#    0.000    2.444    0.000    3.333    0.000    8.000 
#    0.000    0.000    0.000    0.000    0.000    0.000 
#    0.000    0.000    0.000    1.000    0.000   12.667 
#
# Total GULP energy -200568.286402 kJ/mol
# GULP energy per Si atom -5571.341289 kJ/mol
# Density = 1.315505 g / cm^3
# Si number density = 13.185060 Si / 1000 Ang^3
#
#
#
# Elastic Constant Matrix: (Units=GPa)
#
#
# Indices 1 2 3 4 5 6 
#
# 1 73.7003 53.7694 57.4839 0.0000 0.0000 0.0000
# 2 53.7694 98.2110 54.3710 0.0000 0.0000 0.0000
# 3 57.4839 54.3710 96.8062 -0.0001 0.0000 0.0000
# 4 0.0000 0.0000 -0.0001 18.3119 0.0000 0.0000
# 5 0.0000 0.0000 0.0000 0.0000 24.3934 0.0000
# 6 0.0000 0.0000 0.0000 0.0000 0.0000 17.8266
#
#
#
# Elastic Compliance Matrix: (Units=1/GPa)
#
#
# Indices 1 2 3 4 5 6 
#
# 1 0.030538 -0.009695 -0.012689 0.000000 0.000000 0.000000
# 2 -0.009695 0.017854 -0.004271 0.000000 0.000000 0.000000
# 3 -0.012689 -0.004271 0.020263 0.000000 0.000000 0.000000
# 4 0.000000 0.000000 0.000000 0.054609 0.000000 0.000000
# 5 0.000000 0.000000 0.000000 0.000000 0.040995 0.000000
# 6 0.000000 0.000000 0.000000 0.000000 0.000000 0.056096
#
#
# Mechanical properties :
#
#
# Convention : Reuss Voigt Hill
#
# Bulk Modulus (GPa) = 65.15952 66.66290 65.91121
# Shear Modulus (GPa) = 17.93526 18.97927 18.45727
#
# Velocity S-wave (km/s) = 3.69219 3.79813 3.74553
# Velocity P-wave (km/s) = 8.22817 8.36083 8.29477
#
# Compressibility (1/GPa) = 0.01534695
#
# Stress axis : x y z
#
# Youngs Moduli (GPa) = 32.74596 56.00843 49.34999
#
# Poissons Ratio (x) = 0.54298 0.62619
# Poissons Ratio (y) = 0.31746 0.21078
# Poissons Ratio (z) = 0.41550 0.23922
#
# Static dielectric constant tensor:
#      x y z
#    x 1.438960 0.000000 0.000000 
#    y 0.000000 1.435970 0.000000 
#    z 0.000000 0.000000 1.402290 
# 
# From -- ./inp_files/29419.got.cif
#   From: 2010.05.17/outbox.cif.g08.bks.cpg/sg74_15_cif.got.tgz:29419.got - 2010.06.03 17:57:02.
