data_PCOD9534339
_publ_section_title
;
Structure prediction by ZEFSAII (Michael W. Deem and Ramdas Pophale) SiO2 
 PCOD9534339
Probable space group: I M M A
;
_chemical_formula_sum "Si O2"
_cell_formula_units_Z 112
_cell_length_a 13.741462
_cell_length_b 15.947120
_cell_length_c 27.674644
_cell_angle_alpha 90.000000
_cell_angle_beta 90.000000
_cell_angle_gamma 90.000000
_cell_volume 6064.531363
_symmetry_space_group_name_H-M "I M M A"
_symmetry_group_IT_number 74
_symmetry_cell_setting 'orthorhombic'
loop_
_space_group_symop_operation_xyz
x,y,z
-x,1/2-y,z
x,-y,-z
-x,1/2+y,-z
-x,-y,-z
x,1/2+y,-z
-x,y,z
x,1/2-y,z
1/2+x,1/2+y,1/2+z
1/2-x,-y,1/2+z
1/2+x,1/2-y,1/2-z
1/2-x,y,1/2-z
1/2-x,1/2-y,1/2-z
1/2+x,y,1/2-z
1/2-x,1/2+y,1/2+z
1/2+x,-y,1/2+z
loop_
_atom_site_type_symbol
_atom_site_label
_atom_site_fract_x
_atom_site_fract_y
_atom_site_fract_z
Si Si1 0.383719 0.099748 0.663176
Si Si2 0.888656 0.350589 0.940410
Si Si3 0.617389 0.349661 0.454225
Si Si4 0.199547 0.923081 0.857288
Si Si5 0.886013 0.342470 0.230421
Si Si6 0.385123 0.020265 0.186485
Si Si7 0.618385 0.342680 0.767974
O O1 0.500000 0.115559 0.662322
O O2 0.342536 0.128711 0.611279
O O3 0.348611 0.142815 0.712459
O O4 0.361841 0.001491 0.663662
O O5 0.894184 0.250000 0.943190
O O6 0.000000 0.383725 0.938903
O O7 0.847696 0.377899 0.992308
O O8 0.500000 0.359547 0.452874
O O9 0.636943 0.250000 0.448661
O O10 0.663909 0.399006 0.410094
O O11 0.175998 0.852012 0.818049
O O12 0.312117 0.948599 0.854545
O O13 0.870285 0.250000 0.252247
O O14 0.867729 0.417061 0.268247
O O15 0.000000 0.347909 0.216888
O O16 0.500000 0.023424 0.175219
O O17 0.357107 0.925655 0.201740
O O18 0.500000 0.343106 0.766960
O O19 0.648035 0.250000 0.784973
#
# Coordination Sequence:
#
# PCOD9534339 Si02
#       7
#    16  16  16  16  16  16  16
#     4  10  18  28  47  76 105 130 161 202 247 306
#     4   8  15  29  47  70 105 140 164 195 246 308
#     4   9  18  32  50  74 104 137 171 205 248 309
#     4  12  21  30  48  71 100 134 173 211 252 296
#     4  10  20  34  52  72  98 132 168 208 254 305
#     4  10  22  38  50  68  99 133 178 224 259 298
#     4   9  17  32  53  72  97 136 173 209 254 300
#
# _framework density 18.468039000000001
#
# number of rings (size 3 to 8) (size 9 to 14) (size 15 to 20)
#    0.000    2.286    1.429    3.429    0.000    5.143 
#    0.000    4.286    0.000    0.000    0.000    2.000 
#    0.000    1.143    0.000    0.000    0.000    0.000 
#
# Total GULP energy -312315.934253 kJ/mol
# GULP energy per Si atom -5577.070255 kJ/mol
# Density = 1.842600 g / cm^3
# Si number density = 18.468039 Si / 1000 Ang^3
#
#
#
# Elastic Constant Matrix: (Units=GPa)
#
#
# Indices 1 2 3 4 5 6 
#
# 1 47.8538 2.0858 10.2062 0.0000 0.0000 0.0000
# 2 2.0858 80.9339 12.0339 0.0000 0.0000 0.0000
# 3 10.2062 12.0339 53.2787 0.0000 0.0000 0.0000
# 4 0.0000 0.0000 0.0000 7.4600 0.0000 0.0000
# 5 0.0000 0.0000 0.0000 0.0000 2.4089 0.0000
# 6 0.0000 0.0000 0.0000 0.0000 0.0000 13.0768
#
#
#
# Elastic Compliance Matrix: (Units=1/GPa)
#
#
# Indices 1 2 3 4 5 6 
#
# 1 0.021787 0.000061 -0.004187 0.000000 0.000000 0.000000
# 2 0.000061 0.012785 -0.002899 0.000000 0.000000 0.000000
# 3 -0.004187 -0.002899 0.020226 0.000000 0.000000 0.000000
# 4 0.000000 0.000000 0.000000 0.134048 0.000000 0.000000
# 5 0.000000 0.000000 0.000000 0.000000 0.415129 0.000000
# 6 0.000000 0.000000 0.000000 0.000000 0.000000 0.076471
#
#
# Mechanical properties :
#
#
# Convention : Reuss Voigt Hill
#
# Bulk Modulus (GPa) = 24.54147 25.63536 25.08842
# Shear Modulus (GPa) = 7.06134 15.10518 11.08326
#
# Velocity S-wave (km/s) = 1.95751 2.86301 2.45242
# Velocity P-wave (km/s) = 4.29262 4.98399 4.65117
#
# Compressibility (1/GPa) = 0.04074735
#
# Stress axis : x y z
#
# Youngs Moduli (GPa) = 45.89808 78.21481 49.44065
#
# Poissons Ratio (x) = -0.00478 0.20703
# Poissons Ratio (y) = -0.00281 0.14335
# Poissons Ratio (z) = 0.19220 0.22678
#
# Static dielectric constant tensor:
#      x y z
#    x 1.665760 0.000000 0.000000 
#    y 0.000000 1.686720 0.000000 
#    z 0.000000 0.000000 1.649400 
# 
# From -- ./inp_files/67216.got.cif
#   From: 2010.05.17/outbox.cif.g08.bks.cpg/sg74_34_cif.got.tgz:67216.got - 2010.06.03 17:57:02.
