data_PCOD9534213
_publ_section_title
;
Structure prediction by ZEFSAII (Michael W. Deem and Ramdas Pophale) SiO2 
 PCOD9534213
Probable space group: I M M A
;
_chemical_formula_sum "Si O2"
_cell_formula_units_Z 80
_cell_length_a 10.036535
_cell_length_b 17.942494
_cell_length_c 33.650633
_cell_angle_alpha 90.000000
_cell_angle_beta 90.000000
_cell_angle_gamma 90.000000
_cell_volume 6059.821773
_symmetry_space_group_name_H-M "I M M A"
_symmetry_group_IT_number 74
_symmetry_cell_setting 'orthorhombic'
loop_
_space_group_symop_operation_xyz
x,y,z
-x,1/2-y,z
x,-y,-z
-x,1/2+y,-z
-x,-y,-z
x,1/2+y,-z
-x,y,z
x,1/2-y,z
1/2+x,1/2+y,1/2+z
1/2-x,-y,1/2+z
1/2+x,1/2-y,1/2-z
1/2-x,y,1/2-z
1/2-x,1/2-y,1/2-z
1/2+x,y,1/2-z
1/2-x,1/2+y,1/2+z
1/2+x,-y,1/2+z
loop_
_atom_site_type_symbol
_atom_site_label
_atom_site_fract_x
_atom_site_fract_y
_atom_site_fract_z
Si Si1 0.500000 0.659911 0.220279
Si Si2 0.154236 0.338455 0.492907
Si Si3 0.500000 0.659546 0.310914
Si Si4 0.151478 0.925605 0.424559
Si Si5 0.783276 0.839892 0.344457
Si Si6 0.846109 0.543596 0.957666
O O1 0.500000 0.750000 0.222950
O O2 0.500000 0.631943 0.265361
O O3 0.372701 0.639786 0.193708
O O4 0.174826 0.250000 0.492529
O O5 0.168593 0.370464 0.537707
O O6 0.260333 0.382297 0.466051
O O7 0.000000 0.353862 0.481052
O O8 0.500000 0.750000 0.308825
O O9 0.367399 0.638784 0.334237
O O10 0.167953 0.880098 0.384021
O O11 0.000000 0.955550 0.427177
O O12 0.261362 0.990030 0.428883
O O13 0.792743 0.750000 0.349576
O O14 0.000000 0.556000 0.945907
O O15 0.848397 0.500000 0.000000
#
# Coordination Sequence:
#
# PCOD9534213 Si02
#       6
#     8  16   8  16  16  16
#     4   9  16  28  42  54  73 102 137 171 202 241
#     4   9  17  29  45  61  78 102 135 170 202 238
#     4   9  18  28  38  54  77 104 133 169 208 243
#     4  10  18  28  42  59  80 105 136 172 205 237
#     4  10  18  27  40  58  78 103 137 174 209 239
#     4   9  18  30  42  57  79 105 131 162 203 247
#
# _framework density 13.201708999999999
#
# number of rings (size 3 to 8) (size 9 to 14) (size 15 to 20)
#    0.000    2.600    1.000    1.800    1.400    6.000 
#    0.000    0.000    0.000    0.000    0.000    0.000 
#    0.000    0.000    0.000    0.000    0.000    6.000 
#
# Total GULP energy -222767.618860 kJ/mol
# GULP energy per Si atom -5569.190472 kJ/mol
# Density = 1.317166 g / cm^3
# Si number density = 13.201709 Si / 1000 Ang^3
#
#
#
# Elastic Constant Matrix: (Units=GPa)
#
#
# Indices 1 2 3 4 5 6 
#
# 1 111.4208 43.2468 22.0192 0.0000 0.0000 0.0000
# 2 43.2468 53.4003 18.6361 0.0000 0.0000 0.0000
# 3 22.0192 18.6361 40.0151 0.0000 0.0000 0.0000
# 4 0.0000 0.0000 0.0000 12.9585 0.0000 0.0000
# 5 0.0000 0.0000 0.0000 0.0000 13.8554 0.0000
# 6 0.0000 0.0000 0.0000 0.0000 0.0000 16.4279
#
#
#
# Elastic Compliance Matrix: (Units=1/GPa)
#
#
# Indices 1 2 3 4 5 6 
#
# 1 0.013340 -0.009841 -0.002757 0.000000 0.000000 0.000000
# 2 -0.009841 0.029621 -0.008380 0.000000 0.000000 0.000000
# 3 -0.002757 -0.008380 0.030411 0.000000 0.000000 0.000000
# 4 0.000000 0.000000 0.000000 0.077170 0.000000 0.000000
# 5 0.000000 0.000000 0.000000 0.000000 0.072174 0.000000
# 6 0.000000 0.000000 0.000000 0.000000 0.000000 0.060872
#
#
# Mechanical properties :
#
#
# Convention : Reuss Voigt Hill
#
# Bulk Modulus (GPa) = 31.83231 41.40450 36.61840
# Shear Modulus (GPa) = 14.88034 16.71065 15.79549
#
# Velocity S-wave (km/s) = 3.36095 3.56166 3.46276
# Velocity P-wave (km/s) = 6.26306 6.95305 6.61706
#
# Compressibility (1/GPa) = 0.03141462
#
# Stress axis : x y z
#
# Youngs Moduli (GPa) = 74.96532 33.76010 32.88333
#
# Poissons Ratio (x) = 0.33223 0.09067
# Poissons Ratio (y) = 0.73773 0.27556
# Poissons Ratio (z) = 0.20669 0.28291
#
# Static dielectric constant tensor:
#      x y z
#    x 1.465770 0.000000 0.000000 
#    y 0.000000 1.403900 0.000000 
#    z 0.000000 0.000000 1.409650 
# 
# From -- ./inp_files/70147.got.cif
#   From: 2010.05.17/outbox.cif.g08.bks.cpg/sg74_36_cif.got.tgz:70147.got - 2010.06.03 17:57:02.
