data_PCOD9534187
_publ_section_title
;
Structure prediction by ZEFSAII (Michael W. Deem and Ramdas Pophale) SiO2 
 PCOD9534187
Probable space group: I M M A
;
_chemical_formula_sum "Si O2"
_cell_formula_units_Z 72
_cell_length_a 21.288468
_cell_length_b 7.896285
_cell_length_c 24.055200
_cell_angle_alpha 90.000000
_cell_angle_beta 90.000000
_cell_angle_gamma 90.000000
_cell_volume 4043.674563
_symmetry_space_group_name_H-M "I M M A"
_symmetry_group_IT_number 74
_symmetry_cell_setting 'orthorhombic'
loop_
_space_group_symop_operation_xyz
x,y,z
-x,1/2-y,z
x,-y,-z
-x,1/2+y,-z
-x,-y,-z
x,1/2+y,-z
-x,y,z
x,1/2-y,z
1/2+x,1/2+y,1/2+z
1/2-x,-y,1/2+z
1/2+x,1/2-y,1/2-z
1/2-x,y,1/2-z
1/2-x,1/2-y,1/2-z
1/2+x,y,1/2-z
1/2-x,1/2+y,1/2+z
1/2+x,-y,1/2+z
loop_
_atom_site_type_symbol
_atom_site_label
_atom_site_fract_x
_atom_site_fract_y
_atom_site_fract_z
Si Si1 0.428997 0.250000 0.647113
Si Si2 0.365510 0.949143 0.935656
Si Si3 0.797974 0.250000 0.801635
Si Si4 0.237577 0.550999 0.882362
Si Si5 0.500000 0.948830 0.065206
Si Si6 0.606485 0.552604 0.562997
O O1 0.500000 0.250000 0.668888
O O2 0.374802 0.250000 0.694720
O O3 0.419880 0.415355 0.607008
O O4 0.359078 0.750000 0.934402
O O5 0.303905 0.015510 0.905472
O O6 0.433690 0.991416 0.910848
O O7 0.365042 0.000000 0.000000
O O8 0.750000 0.250000 0.750000
O O9 0.781970 0.422492 0.834518
O O10 0.242243 0.750000 0.865500
O O11 0.182129 0.543617 0.928114
O O12 0.500000 0.750000 0.066880
O O13 0.500000 0.000000 0.000000
O O14 0.590312 0.500000 0.500000
O O15 0.588154 0.750000 0.572943
#
# Coordination Sequence:
#
# PCOD9534187 Si02
#       6
#     8  16   8  16   8  16
#     4  10  22  38  56  82 114 150 185 223 272 331
#     4  10  18  28  44  69 102 143 173 212 257 318
#     4  10  22  40  64  80 100 136 182 239 280 323
#     4   9  20  33  53  80 106 135 180 224 273 320
#     4  10  18  26  38  60  96 140 180 208 246 306
#     4  10  18  32  50  80 119 156 185 213 253 318
#
# _framework density 17.805586999999999
#
# number of rings (size 3 to 8) (size 9 to 14) (size 15 to 20)
#    0.000    2.222    1.111    3.667    3.111    1.333 
#    0.000    0.000    2.444    0.000    0.000    0.000 
#    0.000    0.000    0.000    0.000    0.000    0.000 
#
# Total GULP energy -200408.559531 kJ/mol
# GULP energy per Si atom -5566.904431 kJ/mol
# Density = 1.776506 g / cm^3
# Si number density = 17.805587 Si / 1000 Ang^3
#
#
#
# Elastic Constant Matrix: (Units=GPa)
#
#
# Indices 1 2 3 4 5 6 
#
# 1 148.4389 20.6322 24.2962 0.0000 0.0000 0.0000
# 2 20.6322 84.0093 17.1287 0.0000 0.0000 0.0000
# 3 24.2962 17.1287 38.4688 0.0000 0.0000 0.0000
# 4 0.0000 0.0000 0.0000 13.8742 0.0000 0.0000
# 5 0.0000 0.0000 0.0000 0.0000 10.9469 0.0000
# 6 0.0000 0.0000 0.0000 0.0000 0.0000 14.1907
#
#
#
# Elastic Compliance Matrix: (Units=1/GPa)
#
#
# Indices 1 2 3 4 5 6 
#
# 1 0.007585 -0.000975 -0.004357 0.000000 0.000000 0.000000
# 2 -0.000975 0.013217 -0.005270 0.000000 0.000000 0.000000
# 3 -0.004357 -0.005270 0.031093 0.000000 0.000000 0.000000
# 4 0.000000 0.000000 0.000000 0.072076 0.000000 0.000000
# 5 0.000000 0.000000 0.000000 0.000000 0.091350 0.000000
# 6 0.000000 0.000000 0.000000 0.000000 0.000000 0.070469
#
#
# Mechanical properties :
#
#
# Convention : Reuss Voigt Hill
#
# Bulk Modulus (GPa) = 32.57999 43.89236 38.23618
# Shear Modulus (GPa) = 15.76175 21.72636 18.74406
#
# Velocity S-wave (km/s) = 2.97848 3.49692 3.24806
# Velocity P-wave (km/s) = 5.49234 6.40383 5.96552
#
# Compressibility (1/GPa) = 0.03069369
#
# Stress axis : x y z
#
# Youngs Moduli (GPa) = 131.83292 75.65889 32.16145
#
# Poissons Ratio (x) = 0.07374 0.14012
# Poissons Ratio (y) = 0.12849 0.16948
# Poissons Ratio (z) = 0.57437 0.39869
#
# Static dielectric constant tensor:
#      x y z
#    x 1.591510 0.000000 0.000000 
#    y 0.000000 1.608120 0.000000 
#    z 0.000000 0.000000 1.452340 
# 
# From -- ./inp_files/61305.got.cif
#   From: 2010.05.17/outbox.cif.g08.bks.cpg/sg74_31_cif.got.tgz:61305.got - 2010.06.03 17:57:02.
