data_PCOD9534083
_publ_section_title
;
Structure prediction by ZEFSAII (Michael W. Deem and Ramdas Pophale) SiO2 
 PCOD9534083
Probable space group: I M M A
;
_chemical_formula_sum "Si O2"
_cell_formula_units_Z 88
_cell_length_a 21.498088
_cell_length_b 24.913305
_cell_length_c 7.568039
_cell_angle_alpha 90.000000
_cell_angle_beta 90.000000
_cell_angle_gamma 90.000000
_cell_volume 4053.354075
_symmetry_space_group_name_H-M "I M M A"
_symmetry_group_IT_number 74
_symmetry_cell_setting 'orthorhombic'
loop_
_space_group_symop_operation_xyz
x,y,z
-x,1/2-y,z
x,-y,-z
-x,1/2+y,-z
-x,-y,-z
x,1/2+y,-z
-x,y,z
x,1/2-y,z
1/2+x,1/2+y,1/2+z
1/2-x,-y,1/2+z
1/2+x,1/2-y,1/2-z
1/2-x,y,1/2-z
1/2-x,1/2-y,1/2-z
1/2+x,y,1/2-z
1/2-x,1/2+y,1/2+z
1/2+x,-y,1/2+z
loop_
_atom_site_type_symbol
_atom_site_label
_atom_site_fract_x
_atom_site_fract_y
_atom_site_fract_z
Si Si1 0.387725 0.136148 0.550639
Si Si2 0.904747 0.750000 0.066219
Si Si3 0.500000 0.562255 0.538234
Si Si4 0.381315 0.635127 0.031176
Si Si5 0.072041 0.250000 0.511517
Si Si6 0.251460 0.130772 0.951781
Si Si7 0.000000 0.936885 0.546439
Si Si8 0.239825 0.250000 0.037409
O O1 0.420945 0.191592 0.489013
O O2 0.437380 0.089557 0.532485
O O3 0.374241 0.144610 0.758389
O O4 0.318534 0.125237 0.471874
O O5 0.924114 0.750000 0.272435
O O6 0.831050 0.750000 0.028428
O O7 0.500000 0.500000 0.500000
O O8 0.500000 0.569625 0.745508
O O9 0.397905 0.693673 0.950858
O O10 0.315900 0.610350 0.963687
O O11 0.438624 0.594543 0.016108
O O12 0.000000 0.250000 0.462040
O O13 0.250000 0.110628 0.750000
O O14 0.265119 0.194892 0.958375
O O15 0.000000 0.000000 0.500000
O O16 0.250000 0.250000 0.250000
#
# Coordination Sequence:
#
# PCOD9534083 Si02
#       8
#    16   8   8  16   8  16   8   8
#     4   9  19  37  61  89 117 155 196 232 284 349
#     4   8  18  30  53  85 119 154 192 224 277 345
#     4  12  26  43  62  81 111 154 196 246 295 356
#     4  10  19  36  61  89 121 150 194 242 285 338
#     4  10  17  29  57  90 122 158 192 233 284 349
#     4   9  18  34  58  84 115 156 195 232 283 355
#     4  12  26  43  60  83 111 148 196 246 303 348
#     4  10  18  29  47  78 122 162 192 234 284 333
#
# _framework density 21.710415000000001
#
# number of rings (size 3 to 8) (size 9 to 14) (size 15 to 20)
#    0.000    2.182    0.909    3.545    3.818    4.364 
#    0.000    2.727    0.000    0.000    0.000    0.000 
#    0.000    0.000    0.000    0.000    0.000    0.000 
#
# Total GULP energy -245215.409912 kJ/mol
# GULP energy per Si atom -5573.077498 kJ/mol
# Density = 2.166100 g / cm^3
# Si number density = 21.710415 Si / 1000 Ang^3
#
#
#
# Elastic Constant Matrix: (Units=GPa)
#
#
# Indices 1 2 3 4 5 6 
#
# 1 192.9784 72.1444 -6.0312 0.0000 0.0000 0.0000
# 2 72.1444 117.3681 -15.9555 0.0000 0.0000 0.0000
# 3 -6.0312 -15.9555 62.2394 0.0000 0.0000 0.0000
# 4 0.0000 0.0000 0.0000 16.0198 0.0000 0.0000
# 5 0.0000 0.0000 0.0000 0.0000 -139.5054 0.0000
# 6 0.0000 0.0000 0.0000 0.0000 0.0000 -2.4354
#
#
#
# Elastic Compliance Matrix: (Units=1/GPa)
#
#
# Indices 1 2 3 4 5 6 
#
# 1 0.006739 -0.004200 -0.000424 0.000000 0.000000 0.000000
# 2 -0.004200 0.011445 0.002527 0.000000 0.000000 0.000000
# 3 -0.000424 0.002527 0.016674 0.000000 0.000000 0.000000
# 4 0.000000 0.000000 0.000000 0.062423 0.000000 0.000000
# 5 0.000000 0.000000 0.000000 0.000000 -0.007168 0.000000
# 6 0.000000 0.000000 0.000000 0.000000 0.000000 -0.410616
#
#
# Mechanical properties :
#
#
# Convention : Reuss Voigt Hill
#
# Bulk Modulus (GPa) = 32.61029 52.54460 42.57745
# Shear Modulus (GPa) = -16.33513 -3.68898 -10.01206
#
# Velocity S-wave (km/s) = -2.74598 -1.30494 -2.14980
# Velocity P-wave (km/s) = 2.23591 4.68877 3.67313
#
# Compressibility (1/GPa) = 0.03066516
#
# Stress axis : x y z
#
# Youngs Moduli (GPa) = 148.39488 87.37200 59.97442
#
# Poissons Ratio (x) = 0.36695 0.02541
# Poissons Ratio (y) = 0.62323 -0.15156
# Poissons Ratio (z) = 0.06287 -0.22080
#
# Static dielectric constant tensor:
#      x y z
#    x 1.900380 0.000000 0.000000 
#    y 0.000000 1.720200 0.000000 
#    z 0.000000 0.000000 1.825510 
# 
# From -- ./inp_files/12534.got.cif
#   From: 2010.05.17/outbox.cif.g08.bks.cpg/sg74_7_cif.got.tgz:12534.got - 2010.06.03 17:57:02.
