data_PCOD9534295
_publ_section_title
;
Structure prediction by ZEFSAII (Michael W. Deem and Ramdas Pophale) SiO2 
 PCOD9534295
Probable space group: I M M A
;
_chemical_formula_sum "Si O2"
_cell_formula_units_Z 104
_cell_length_a 7.598434
_cell_length_b 22.367768
_cell_length_c 28.044517
_cell_angle_alpha 90.000000
_cell_angle_beta 90.000000
_cell_angle_gamma 90.000000
_cell_volume 4766.446358
_symmetry_space_group_name_H-M "I M M A"
_symmetry_group_IT_number 74
_symmetry_cell_setting 'orthorhombic'
loop_
_space_group_symop_operation_xyz
x,y,z
-x,1/2-y,z
x,-y,-z
-x,1/2+y,-z
-x,-y,-z
x,1/2+y,-z
-x,y,z
x,1/2-y,z
1/2+x,1/2+y,1/2+z
1/2-x,-y,1/2+z
1/2+x,1/2-y,1/2-z
1/2-x,y,1/2-z
1/2-x,1/2-y,1/2-z
1/2+x,y,1/2-z
1/2-x,1/2+y,1/2+z
1/2+x,-y,1/2+z
loop_
_atom_site_type_symbol
_atom_site_label
_atom_site_fract_x
_atom_site_fract_y
_atom_site_fract_z
Si Si1 0.715185 0.641881 0.130986
Si Si2 0.788972 0.534436 0.304678
Si Si3 0.784369 0.059793 0.470745
Si Si4 0.708719 0.182727 0.303208
Si Si5 0.707736 0.073036 0.136608
Si Si6 0.214714 0.180990 0.525031
Si Si7 0.789790 0.250000 0.694954
O O1 0.500000 0.640495 0.129360
O O2 0.773493 0.580091 0.154496
O O3 0.769832 0.661457 0.078371
O O4 0.775397 0.691880 0.168020
O O5 0.750000 0.549923 0.250000
O O6 0.721897 0.469952 0.321658
O O7 0.000000 0.535275 0.306503
O O8 0.722539 0.058636 0.415907
O O9 0.731363 0.124481 0.492404
O O10 0.000000 0.059238 0.471778
O O11 0.730011 0.000000 0.500000
O O12 0.500000 0.185848 0.306914
O O13 0.782429 0.250000 0.306227
O O14 0.750000 0.159358 0.250000
O O15 0.771457 0.140091 0.345118
O O16 0.500000 0.061334 0.132948
O O17 0.271448 0.250000 0.514616
O O18 0.000000 0.182567 0.523930
O O19 0.750000 0.250000 0.750000
O O20 0.000000 0.250000 0.689389
#
# Coordination Sequence:
#
# PCOD9534295 Si02
#       7
#    16  16  16  16  16  16   8
#     4   9  16  28  44  65  95 127 162 203 249 294
#     4  10  20  32  47  69  99 133 166 203 248 299
#     4   9  17  29  46  71 104 138 173 217 266 309
#     4  10  21  37  57  80 106 138 173 211 260 319
#     4  10  20  33  51  77 107 138 171 212 264 315
#     4   9  15  25  43  67  94 125 163 207 253 300
#     4  10  18  28  44  66  92 124 162 204 245 288
#
# _framework density 21.819191
#
# number of rings (size 3 to 8) (size 9 to 14) (size 15 to 20)
#    0.000    2.462    0.769    2.308    0.000    7.077 
#    0.000    1.538    0.000    0.462    0.000    2.154 
#    0.000    0.000    0.000    0.000    0.000    0.000 
#
# Total GULP energy -290084.775391 kJ/mol
# GULP energy per Si atom -5578.553373 kJ/mol
# Density = 2.176953 g / cm^3
# Si number density = 21.819191 Si / 1000 Ang^3
#
#
#
# Elastic Constant Matrix: (Units=GPa)
#
#
# Indices 1 2 3 4 5 6 
#
# 1 43.1096 4.7912 5.8889 0.0000 0.0000 0.0000
# 2 4.7912 131.9545 49.7187 0.0000 0.0000 0.0001
# 3 5.8889 49.7187 87.9445 0.0000 0.0000 0.0000
# 4 0.0000 0.0000 0.0000 47.4528 0.0000 0.0002
# 5 0.0000 0.0000 0.0000 0.0000 11.9833 0.0000
# 6 0.0000 0.0001 0.0000 0.0002 0.000010612.6635
#
#
#
# Elastic Compliance Matrix: (Units=1/GPa)
#
#
# Indices 1 2 3 4 5 6 
#
# 1 0.023422 -0.000330 -0.001382 0.000000 0.000000 0.000000
# 2 -0.000330 0.009634 -0.005425 0.000000 0.000000 0.000000
# 3 -0.001382 -0.005425 0.014530 0.000000 0.000000 0.000000
# 4 0.000000 0.000000 0.000000 0.021074 0.000000 0.000000
# 5 0.000000 0.000000 0.000000 0.000000 0.083450 0.000000
# 6 0.000000 0.000000 0.000000 0.000000 0.000000 0.000094
#
#
# Mechanical properties :
#
#
# Convention : Reuss Voigt Hill
#
# Bulk Modulus (GPa) = 30.01748 42.64514 36.33131
# Shear Modulus (GPa) = 28.15614 2147.92724 1088.04169
#
# Velocity S-wave (km/s) = 3.59615 31.40952 22.35498
# Velocity P-wave (km/s) = 5.57049 36.53763 26.13454
#
# Compressibility (1/GPa) = 0.03331392
#
# Stress axis : x y z
#
# Youngs Moduli (GPa) = 42.69464 103.79642 68.82274
#
# Poissons Ratio (x) = 0.03423 0.09511
# Poissons Ratio (y) = 0.01408 0.37333
# Poissons Ratio (z) = 0.05900 0.56305
#
# Static dielectric constant tensor:
#      x y z
#    x 1.852410 0.000000 0.000000 
#    y 0.000000 1.895600 0.000000 
#    z 0.000000 0.000000 1.657240 
# 
# From -- ./inp_files/64802.got.cif
#   From: 2010.05.17/outbox.cif.g08.bks.cpg/sg74_33_cif.got.tgz:64802.got - 2010.06.03 17:57:02.
