data_PCOD9534265
_publ_section_title
;
Structure prediction by ZEFSAII (Michael W. Deem and Ramdas Pophale) SiO2 
 PCOD9534265
Probable space group: I M M A
;
_chemical_formula_sum "Si O2"
_cell_formula_units_Z 96
_cell_length_a 17.034267
_cell_length_b 17.550853
_cell_length_c 19.786172
_cell_angle_alpha 90.000000
_cell_angle_beta 90.000000
_cell_angle_gamma 90.000000
_cell_volume 5915.391038
_symmetry_space_group_name_H-M "I M M A"
_symmetry_group_IT_number 74
_symmetry_cell_setting 'orthorhombic'
loop_
_space_group_symop_operation_xyz
x,y,z
-x,1/2-y,z
x,-y,-z
-x,1/2+y,-z
-x,-y,-z
x,1/2+y,-z
-x,y,z
x,1/2-y,z
1/2+x,1/2+y,1/2+z
1/2-x,-y,1/2+z
1/2+x,1/2-y,1/2-z
1/2-x,y,1/2-z
1/2-x,1/2-y,1/2-z
1/2+x,y,1/2-z
1/2-x,1/2+y,1/2+z
1/2+x,-y,1/2+z
loop_
_atom_site_type_symbol
_atom_site_label
_atom_site_fract_x
_atom_site_fract_y
_atom_site_fract_z
Si Si1 0.094100 0.339393 0.020669
Si Si2 0.904564 0.165366 0.177487
Si Si3 0.194896 0.108289 0.687011
Si Si4 0.410474 0.750000 0.338738
Si Si5 0.589950 0.250000 0.823782
Si Si6 0.156015 0.408856 0.892175
Si Si7 0.407600 0.505926 0.725713
O O1 0.110235 0.250000 0.003063
O O2 0.116758 0.347977 0.099024
O O3 0.000000 0.349976 0.014842
O O4 0.136283 0.398186 0.970587
O O5 0.877884 0.250000 0.197880
O O6 0.000000 0.165948 0.178578
O O7 0.880350 0.093369 0.221775
O O8 0.250000 0.136351 0.750000
O O9 0.139873 0.175118 0.659369
O O10 0.254113 0.079310 0.629597
O O11 0.141954 0.043376 0.721463
O O12 0.500000 0.750000 0.364464
O O13 0.413801 0.750000 0.257913
O O14 0.368731 0.673769 0.362636
O O15 0.500000 0.250000 0.848634
O O16 0.106332 0.469350 0.848750
O O17 0.500000 0.501238 0.741016
#
# Coordination Sequence:
#
# PCOD9534265 Si02
#       7
#    16  16  16   8   8  16  16
#     4   9  16  26  41  61  86 116 149 177 201 239
#     4   8  16  30  45  61  80 106 146 187 214 241
#     4  10  19  27  36  55  83 113 147 174 205 248
#     4  11  17  23  37  55  78 112 148 168 194 241
#     4  11  18  26  38  52  76 112 150 174 197 236
#     4  11  19  25  38  57  85 115 145 170 204 248
#     4  10  18  28  42  58  80 112 147 179 210 245
#
# _framework density 16.228850999999999
#
# number of rings (size 3 to 8) (size 9 to 14) (size 15 to 20)
#    0.000    2.167    4.167    3.750    0.000    0.667 
#    0.000    2.500    0.000    4.500    0.000    0.000 
#    0.000    0.000    0.000   82.500    8.333    0.000 
#
# Total GULP energy -267488.857032 kJ/mol
# GULP energy per Si atom -5572.684522 kJ/mol
# Density = 1.619191 g / cm^3
# Si number density = 16.228851 Si / 1000 Ang^3
#
#
#
# Elastic Constant Matrix: (Units=GPa)
#
#
# Indices 1 2 3 4 5 6 
#
# 1 75.6937 30.7920 18.9597 0.0000 0.0000 0.0000
# 2 30.7920 98.3068 21.3671 0.0000 0.0000 0.0000
# 3 18.9597 21.3671 21.0741 0.0000 0.0000 0.0000
# 4 0.0000 0.0000 0.0000 23.6582 0.0000 0.0000
# 5 0.0000 0.0000 0.0000 0.0000 24.6898 0.0000
# 6 0.0000 0.0000 0.0000 0.0000 0.0000 0.0817
#
#
#
# Elastic Compliance Matrix: (Units=1/GPa)
#
#
# Indices 1 2 3 4 5 6 
#
# 1 0.017578 -0.002653 -0.013124 0.000000 0.000000 0.000000
# 2 -0.002653 0.013448 -0.011248 0.000000 0.000000 0.000000
# 3 -0.013124 -0.011248 0.070663 0.000000 0.000000 0.000001
# 4 0.000000 0.000000 0.000000 0.042269 0.000000 0.000000
# 5 0.000000 0.000000 0.000000 0.000000 0.040503 0.000001
# 6 0.000000 0.000000 0.000001 0.000000 0.000001 12.232960
#
#
# Mechanical properties :
#
#
# Convention : Reuss Voigt Hill
#
# Bulk Modulus (GPa) = 20.99137 37.47912 29.23525
# Shear Modulus (GPa) = 0.40041 17.94967 9.17504
#
# Velocity S-wave (km/s) = 0.49725 3.32932 2.38030
# Velocity P-wave (km/s) = 3.64587 6.15820 5.06042
#
# Compressibility (1/GPa) = 0.04763862
#
# Stress axis : x y z
#
# Youngs Moduli (GPa) = 56.89006 74.36018 14.15161
#
# Poissons Ratio (x) = 0.19730 0.18573
# Poissons Ratio (y) = 0.15094 0.15918
# Poissons Ratio (z) = 0.74663 0.83640
#
# Static dielectric constant tensor:
#      x y z
#    x 1.551350 0.000000 0.000000 
#    y 0.000000 1.580450 0.000000 
#    z 0.000000 0.000000 1.555020 
# 
# From -- ./inp_files/61067.got.cif
#   From: 2010.05.17/outbox.cif.g08.bks.cpg/sg74_31_cif.got.tgz:61067.got - 2010.06.03 17:57:02.
