data_PCOD9534704
_publ_section_title
;
Structure prediction by ZEFSAII (Michael W. Deem and Ramdas Pophale) SiO2 
 PCOD9534704
Probable space group: I M M A
;
_chemical_formula_sum "Si O2"
_cell_formula_units_Z 104
_cell_length_a 18.126583
_cell_length_b 13.161981
_cell_length_c 28.315909
_cell_angle_alpha 90.000000
_cell_angle_beta 90.000000
_cell_angle_gamma 90.000000
_cell_volume 6755.658868
_symmetry_space_group_name_H-M "I M M A"
_symmetry_group_IT_number 74
_symmetry_cell_setting 'orthorhombic'
loop_
_space_group_symop_operation_xyz
x,y,z
-x,1/2-y,z
x,-y,-z
-x,1/2+y,-z
-x,-y,-z
x,1/2+y,-z
-x,y,z
x,1/2-y,z
1/2+x,1/2+y,1/2+z
1/2-x,-y,1/2+z
1/2+x,1/2-y,1/2-z
1/2-x,y,1/2-z
1/2-x,1/2-y,1/2-z
1/2+x,y,1/2-z
1/2-x,1/2+y,1/2+z
1/2+x,-y,1/2+z
loop_
_atom_site_type_symbol
_atom_site_label
_atom_site_fract_x
_atom_site_fract_y
_atom_site_fract_z
Si Si1 0.835765 0.131098 0.735574
Si Si2 0.500000 0.371614 0.019969
Si Si3 0.157073 0.370644 0.433240
Si Si4 0.847858 0.950621 0.367280
Si Si5 0.084238 0.373396 0.831488
Si Si6 0.698762 0.630048 0.413076
Si Si7 0.000000 0.872471 0.411925
Si Si8 0.763361 0.000000 0.000000
O O1 0.853852 0.250000 0.725310
O O2 0.750000 0.127925 0.750000
O O3 0.847037 0.067122 0.688434
O O4 0.883435 0.096436 0.780524
O O5 0.500000 0.250000 0.014276
O O6 0.424915 0.392176 0.047481
O O7 0.500000 0.409968 0.966294
O O8 0.167940 0.250000 0.428746
O O9 0.164424 0.434307 0.385039
O O10 0.212265 0.420534 0.471280
O O11 0.780190 0.888347 0.390945
O O12 0.925671 0.911187 0.387250
O O13 0.084779 0.250000 0.831177
O O14 0.139177 0.402822 0.873707
O O15 0.000000 0.407137 0.838062
O O16 0.689852 0.750000 0.422599
O O17 0.693239 0.563620 0.460459
O O18 0.000000 0.750000 0.410561
#
# Coordination Sequence:
#
# PCOD9534704 Si02
#       8
#    16   8  16  16  16  16   8   8
#     4  10  18  31  49  71  99 127 154 194 244 292
#     4   9  17  31  45  58  89 135 164 191 235 272
#     4  10  20  33  47  66  96 130 168 207 238 283
#     4  11  21  30  46  71  98 133 166 196 245 290
#     4   9  18  31  49  71  97 128 158 192 242 297
#     4  10  18  32  49  69  98 127 157 193 242 297
#     4  11  21  29  44  74 107 132 167 208 234 280
#     4  10  20  29  49  74  90 122 160 200 246 289
#
# _framework density 15.394501
#
# number of rings (size 3 to 8) (size 9 to 14) (size 15 to 20)
#    0.000    2.000    1.538    4.154    1.077    2.154 
#    0.000    0.385    0.000    0.462    0.000    0.000 
#    0.000   11.692    0.000    0.000    0.000    0.000 
#
# Total GULP energy -290028.868438 kJ/mol
# GULP energy per Si atom -5577.478239 kJ/mol
# Density = 1.535946 g / cm^3
# Si number density = 15.394501 Si / 1000 Ang^3
#
#
#
# Elastic Constant Matrix: (Units=GPa)
#
#
# Indices 1 2 3 4 5 6 
#
# 1 79.9689 21.1534 53.0949 0.0000 0.0000 0.0000
# 2 21.1534 94.1023 56.6322 0.0000 0.0000 0.0000
# 3 53.0949 56.6322 151.9777 0.0000 0.0000 0.0000
# 4 0.0000 0.0000 0.0000 28.8343 0.0000 0.0000
# 5 0.0000 0.0000 0.0000 0.0000 20.4106 0.0000
# 6 0.0000 0.0000 0.0000 0.0000 0.0000 4.7291
#
#
#
# Elastic Compliance Matrix: (Units=1/GPa)
#
#
# Indices 1 2 3 4 5 6 
#
# 1 0.016288 -0.000305 -0.005577 0.000000 0.000000 0.000000
# 2 -0.000305 0.013705 -0.005000 0.000000 0.000000 0.000000
# 3 -0.005577 -0.005000 0.010391 0.000000 0.000000 0.000000
# 4 0.000000 0.000000 0.000000 0.034681 0.000000 0.000000
# 5 0.000000 0.000000 0.000000 0.000000 0.048994 0.000000
# 6 0.000000 0.000000 0.000000 0.000000 0.000000 0.211458
#
#
# Mechanical properties :
#
#
# Convention : Reuss Voigt Hill
#
# Bulk Modulus (GPa) = 53.70594 65.31218 59.50906
# Shear Modulus (GPa) = 13.75561 23.80602 18.78082
#
# Velocity S-wave (km/s) = 2.99246 3.93669 3.49659
# Velocity P-wave (km/s) = 6.84850 7.94866 7.41900
#
# Compressibility (1/GPa) = 0.01861991
#
# Stress axis : x y z
#
# Youngs Moduli (GPa) = 61.39404 72.96873 96.23352
#
# Poissons Ratio (x) = 0.02228 0.53666
# Poissons Ratio (y) = 0.01875 0.48118
# Poissons Ratio (z) = 0.34237 0.36485
#
# Static dielectric constant tensor:
#      x y z
#    x 1.507990 0.000000 0.000000 
#    y 0.000000 1.519400 0.000000 
#    z 0.000000 0.000000 1.510720 
# 
# From -- ./inp_files/67900.got.cif
#   From: 2010.05.17/outbox.cif.g08.bks.cpg/sg74_34_cif.got.tgz:67900.got - 2010.06.03 17:57:02.
