data_PCOD9534886
_publ_section_title
;
Structure prediction by ZEFSAII (Michael W. Deem and Ramdas Pophale) SiO2 
 PCOD9534886
Probable space group: I M M A
;
_chemical_formula_sum "Si O2"
_cell_formula_units_Z 72
_cell_length_a 16.837462
_cell_length_b 8.724722
_cell_length_c 28.247638
_cell_angle_alpha 90.000000
_cell_angle_beta 90.000000
_cell_angle_gamma 90.000000
_cell_volume 4149.639465
_symmetry_space_group_name_H-M "I M M A"
_symmetry_group_IT_number 74
_symmetry_cell_setting 'orthorhombic'
loop_
_space_group_symop_operation_xyz
x,y,z
-x,1/2-y,z
x,-y,-z
-x,1/2+y,-z
-x,-y,-z
x,1/2+y,-z
-x,y,z
x,1/2-y,z
1/2+x,1/2+y,1/2+z
1/2-x,-y,1/2+z
1/2+x,1/2-y,1/2-z
1/2-x,y,1/2-z
1/2-x,1/2-y,1/2-z
1/2+x,y,1/2-z
1/2-x,1/2+y,1/2+z
1/2+x,-y,1/2+z
loop_
_atom_site_type_symbol
_atom_site_label
_atom_site_fract_x
_atom_site_fract_y
_atom_site_fract_z
Si Si1 0.259269 0.569606 0.865241
Si Si2 0.410146 0.564826 0.188355
Si Si3 0.000000 0.433486 0.053488
Si Si4 0.335433 0.432174 0.552690
Si Si5 0.330164 0.575672 0.281772
O O1 0.261287 0.750000 0.873624
O O2 0.342706 0.512379 0.843519
O O3 0.235068 0.481296 0.912690
O O4 0.192498 0.528296 0.825891
O O5 0.500000 0.526916 0.174477
O O6 0.399788 0.750000 0.185978
O O7 0.394955 0.523216 0.243577
O O8 0.082575 0.497031 0.073501
O O9 0.000000 0.250000 0.052952
O O10 0.000000 0.500000 0.000000
O O11 0.324344 0.500000 0.500000
O O12 0.343245 0.250000 0.549561
O O13 0.347438 0.750000 0.297827
O O14 0.250000 0.582154 0.250000
#
# Coordination Sequence:
#
# PCOD9534886 Si02
#       5
#    16  16   8  16  16
#     4  11  21  33  51  77 108 141 176 218 263 313
#     4   9  18  34  55  77 103 138 178 220 264 316
#     4  10  18  32  52  76 104 132 166 208 256 306
#     4  11  21  36  56  78 105 140 178 217 261 312
#     4   8  15  30  50  71  98 132 170 212 256 308
#
# _framework density 17.350905000000001
#
# number of rings (size 3 to 8) (size 9 to 14) (size 15 to 20)
#    0.000    2.222    0.000    7.667    0.000    4.444 
#    2.000    0.000    0.000    0.667    0.000    0.000 
#    0.000    0.000    0.000    0.000    0.000    0.000 
#
# Total GULP energy -200729.325681 kJ/mol
# GULP energy per Si atom -5575.814602 kJ/mol
# Density = 1.731141 g / cm^3
# Si number density = 17.350905 Si / 1000 Ang^3
#
#
#
# Elastic Constant Matrix: (Units=GPa)
#
#
# Indices 1 2 3 4 5 6 
#
# 1 91.2333 41.4108 39.5848 0.0000 0.0000 0.0000
# 2 41.4108 124.9122 40.1385 0.0000 0.0000 0.0000
# 3 39.5848 40.1385 68.9772 0.0000 0.0000 0.0000
# 4 0.0000 0.0000 0.0000 26.1860 0.0000 0.0000
# 5 0.0000 0.0000 0.0000 0.0000 22.4346 0.0000
# 6 0.0000 0.0000 0.0000 0.0000 0.0000 13.4304
#
#
#
# Elastic Compliance Matrix: (Units=1/GPa)
#
#
# Indices 1 2 3 4 5 6 
#
# 1 0.015340 -0.002776 -0.007188 0.000000 0.000000 0.000000
# 2 -0.002776 0.010349 -0.004429 0.000000 0.000000 0.000000
# 3 -0.007188 -0.004429 0.021200 0.000000 0.000000 0.000000
# 4 0.000000 0.000000 0.000000 0.038188 0.000000 0.000000
# 5 0.000000 0.000000 0.000000 0.000000 0.044574 0.000000
# 6 0.000000 0.000000 0.000000 0.000000 0.000000 0.074458
#
#
# Mechanical properties :
#
#
# Convention : Reuss Voigt Hill
#
# Bulk Modulus (GPa) = 55.23990 58.59900 56.91945
# Shear Modulus (GPa) = 20.92671 23.34277 22.13474
#
# Velocity S-wave (km/s) = 3.47664 3.67186 3.57558
# Velocity P-wave (km/s) = 6.92980 7.19881 7.06559
#
# Compressibility (1/GPa) = 0.01810286
#
# Stress axis : x y z
#
# Youngs Moduli (GPa) = 65.19114 96.62679 47.16967
#
# Poissons Ratio (x) = 0.26820 0.33905
# Poissons Ratio (y) = 0.18095 0.20893
# Poissons Ratio (z) = 0.46859 0.42800
#
# Static dielectric constant tensor:
#      x y z
#    x 1.619750 0.000000 0.000000 
#    y 0.000000 1.584000 0.000000 
#    z 0.000000 0.000000 1.602730 
# 
# From -- ./inp_files/67459.got.cif
#   From: 2010.05.17/outbox.cif.g08.bks.cpg/sg74_34_cif.got.tgz:67459.got - 2010.06.03 17:57:02.
