data_PCOD9534344
_publ_section_title
;
Structure prediction by ZEFSAII (Michael W. Deem and Ramdas Pophale) SiO2 
 PCOD9534344
Probable space group: I M M A
;
_chemical_formula_sum "Si O2"
_cell_formula_units_Z 96
_cell_length_a 31.492980
_cell_length_b 16.021615
_cell_length_c 12.232834
_cell_angle_alpha 90.000000
_cell_angle_beta 90.000000
_cell_angle_gamma 90.000000
_cell_volume 6172.301488
_symmetry_space_group_name_H-M "I M M A"
_symmetry_group_IT_number 74
_symmetry_cell_setting 'orthorhombic'
loop_
_space_group_symop_operation_xyz
x,y,z
-x,1/2-y,z
x,-y,-z
-x,1/2+y,-z
-x,-y,-z
x,1/2+y,-z
-x,y,z
x,1/2-y,z
1/2+x,1/2+y,1/2+z
1/2-x,-y,1/2+z
1/2+x,1/2-y,1/2-z
1/2-x,y,1/2-z
1/2-x,1/2-y,1/2-z
1/2+x,y,1/2-z
1/2-x,1/2+y,1/2+z
1/2+x,-y,1/2+z
loop_
_atom_site_type_symbol
_atom_site_label
_atom_site_fract_x
_atom_site_fract_y
_atom_site_fract_z
Si Si1 0.231330 0.583557 0.571819
Si Si2 0.317963 0.575494 0.708437
Si Si3 0.609644 0.345210 0.406546
Si Si4 0.737783 0.250000 0.928424
Si Si5 0.178202 0.750000 0.215698
Si Si6 0.547844 0.487993 0.368574
Si Si7 0.371354 0.088494 0.647646
O O1 0.228915 0.500000 0.500000
O O2 0.275995 0.584026 0.635733
O O3 0.195653 0.579795 0.665758
O O4 0.230081 0.666630 0.498688
O O5 0.351352 0.646425 0.676256
O O6 0.340570 0.488645 0.675199
O O7 0.598543 0.250000 0.430052
O O8 0.570701 0.398469 0.358277
O O9 0.625462 0.389288 0.518755
O O10 0.786080 0.250000 0.880802
O O11 0.705655 0.250000 0.826055
O O12 0.148418 0.830859 0.204830
O O13 0.545523 0.500000 0.500000
O O14 0.500000 0.492549 0.325327
O O15 0.581101 0.556628 0.323656
#
# Coordination Sequence:
#
# PCOD9534344 Si02
#       7
#    16  16  16   8   8  16  16
#     4  11  22  35  48  69  96 133 171 210 252 285
#     4  10  21  32  50  65  98 130 169 205 244 287
#     4  10  18  28  48  74  97 131 166 196 238 292
#     4  11  24  33  50  72 100 132 166 219 250 285
#     4  11  20  34  51  70  98 127 175 206 244 286
#     4   8  16  30  45  68 103 131 157 190 237 289
#     4  10  18  32  51  72  94 136 166 204 235 294
#
# _framework density 15.553356000000001
#
# number of rings (size 3 to 8) (size 9 to 14) (size 15 to 20)
#    0.000    2.000    0.833    5.500    2.333    3.667 
#    0.000    0.417    0.000    0.000    0.000    0.000 
#    0.000   48.000    0.000    0.000    0.000    0.000 
#
# Total GULP energy -267579.643751 kJ/mol
# GULP energy per Si atom -5574.575911 kJ/mol
# Density = 1.551796 g / cm^3
# Si number density = 15.553356 Si / 1000 Ang^3
#
#
#
# Elastic Constant Matrix: (Units=GPa)
#
#
# Indices 1 2 3 4 5 6 
#
# 1 116.7933 49.1414 37.7601 0.0000 0.0000 0.0000
# 2 49.1414 129.0531 44.0251 0.0000 0.0000 0.0000
# 3 37.7601 44.0251 72.0473 0.0000 0.0000 0.0000
# 4 0.0000 0.0000 0.0000 3.5953 0.0000 0.0000
# 5 0.0000 0.0000 0.0000 0.0000 16.3836 0.0000
# 6 0.0000 0.0000 0.0000 0.0000 0.0000 9.5320
#
#
#
# Elastic Compliance Matrix: (Units=1/GPa)
#
#
# Indices 1 2 3 4 5 6 
#
# 1 0.011068 -0.002824 -0.004075 0.000000 0.000000 0.000000
# 2 -0.002824 0.010510 -0.004942 0.000000 0.000000 0.000000
# 3 -0.004075 -0.004942 0.019035 0.000000 0.000000 0.000000
# 4 0.000000 0.000000 0.000000 0.278142 0.000000 0.000000
# 5 0.000000 0.000000 0.000000 0.000000 0.061036 0.000000
# 6 0.000000 0.000000 0.000000 0.000000 0.000000 0.104910
#
#
# Mechanical properties :
#
#
# Convention : Reuss Voigt Hill
#
# Bulk Modulus (GPa) = 59.06400 64.41634 61.74017
# Shear Modulus (GPa) = 9.72710 18.36665 14.04687
#
# Velocity S-wave (km/s) = 2.50352 3.44012 3.00849
# Velocity P-wave (km/s) = 6.81281 7.56872 7.20069
#
# Compressibility (1/GPa) = 0.01693079
#
# Stress axis : x y z
#
# Youngs Moduli (GPa) = 90.35092 95.14599 52.53400
#
# Poissons Ratio (x) = 0.26873 0.21407
# Poissons Ratio (y) = 0.25519 0.25963
# Poissons Ratio (z) = 0.36817 0.47022
#
# Static dielectric constant tensor:
#      x y z
#    x 1.523090 0.000000 0.000000 
#    y 0.000000 1.539850 0.000000 
#    z 0.000000 0.000000 1.502050 
# 
# From -- ./inp_files/27139.got.cif
#   From: 2010.05.17/outbox.cif.g08.bks.cpg/sg74_14_cif.got.tgz:27139.got - 2010.06.03 17:57:02.
