data_PCOD9534137
_publ_section_title
;
Structure prediction by ZEFSAII (Michael W. Deem and Ramdas Pophale) SiO2 
 PCOD9534137
Probable space group: I M M A
;
_chemical_formula_sum "Si O2"
_cell_formula_units_Z 108
_cell_length_a 20.262992
_cell_length_b 19.720845
_cell_length_c 13.231904
_cell_angle_alpha 90.000000
_cell_angle_beta 90.000000
_cell_angle_gamma 90.000000
_cell_volume 5287.512827
_symmetry_space_group_name_H-M "I M M A"
_symmetry_group_IT_number 74
_symmetry_cell_setting 'orthorhombic'
loop_
_space_group_symop_operation_xyz
x,y,z
-x,1/2-y,z
x,-y,-z
-x,1/2+y,-z
-x,-y,-z
x,1/2+y,-z
-x,y,z
x,1/2-y,z
1/2+x,1/2+y,1/2+z
1/2-x,-y,1/2+z
1/2+x,1/2-y,1/2-z
1/2-x,y,1/2-z
1/2-x,1/2-y,1/2-z
1/2+x,y,1/2-z
1/2-x,1/2+y,1/2+z
1/2+x,-y,1/2+z
loop_
_atom_site_type_symbol
_atom_site_label
_atom_site_fract_x
_atom_site_fract_y
_atom_site_fract_z
Si Si1 0.421339 0.171451 0.024393
Si Si2 0.077981 0.898990 0.724974
Si Si3 0.500000 0.750000 0.512777
Si Si4 0.369469 0.325238 0.423208
Si Si5 0.072063 0.541314 0.179985
Si Si6 0.750000 0.633493 0.250000
Si Si7 0.891591 0.675203 0.293974
Si Si8 0.701547 0.435646 0.556134
O O1 0.500000 0.160744 0.011409
O O2 0.411612 0.250000 0.054488
O O3 0.397399 0.124564 0.115467
O O4 0.391324 0.162107 0.913798
O O5 0.113353 0.860747 0.817043
O O6 0.000000 0.879774 0.730307
O O7 0.082181 0.979225 0.742649
O O8 0.440001 0.691493 0.521493
O O9 0.340414 0.250000 0.406973
O O10 0.320459 0.372928 0.485990
O O11 0.074563 0.613262 0.236788
O O12 0.132064 0.539191 0.103128
O O13 0.000000 0.531773 0.132785
O O14 0.816992 0.675046 0.254348
O O15 0.745479 0.588556 0.350552
O O16 0.921246 0.750000 0.276281
O O17 0.731736 0.500000 0.500000
#
# Coordination Sequence:
#
# PCOD9534137 Si02
#       8
#    16  16   4  16  16   8  16  16
#     4   9  18  31  57  87 120 157 192 233 291 352
#     4  10  17  32  52  85 128 162 188 226 281 357
#     4   8  20  32  54  98 132 162 196 222 294 354
#     4  10  19  33  58  89 126 159 195 230 284 356
#     4  10  22  33  57  90 122 153 185 233 298 361
#     4  10  25  46  62  84 105 152 208 258 305 340
#     4  10  21  41  59  81 114 156 205 251 292 348
#     4  11  23  42  62  87 117 157 201 246 302 355
#
# _framework density 20.425481999999999
#
# number of rings (size 3 to 8) (size 9 to 14) (size 15 to 20)
#    0.444    1.630    2.222    1.111    1.037    5.333 
#    5.333    2.222    0.000    0.000    0.000    3.630 
#    0.000    0.000    0.000    0.000    0.000    0.000 
#
# Total GULP energy -300759.580179 kJ/mol
# GULP energy per Si atom -5569.621855 kJ/mol
# Density = 2.037899 g / cm^3
# Si number density = 20.425482 Si / 1000 Ang^3
#
#
#
# Elastic Constant Matrix: (Units=GPa)
#
#
# Indices 1 2 3 4 5 6 
#
# 1 25.2322 9.3448 -7.3018 0.0000 0.0000 0.0000
# 2 9.3448 112.4490 45.9471 0.0000 0.0000 0.0000
# 3 -7.3018 45.9471 66.3795 0.0000 0.0000 0.0000
# 4 0.0000 0.0000 0.0000 28.2866 0.0000 0.0000
# 5 0.0000 0.0000 0.0000 0.0000 101.2405 0.0000
# 6 0.0000 0.0000 0.0000 0.0000 0.0000 -11.1203
#
#
#
# Elastic Compliance Matrix: (Units=1/GPa)
#
#
# Indices 1 2 3 4 5 6 
#
# 1 0.045750 -0.008169 0.010687 0.000000 0.000000 0.000000
# 2 -0.008169 0.013859 -0.010491 0.000000 0.000000 0.000000
# 3 0.010687 -0.010491 0.023502 0.000000 0.000000 0.000000
# 4 0.000000 0.000000 0.000000 0.035352 0.000000 0.000000
# 5 0.000000 0.000000 0.000000 0.000000 0.009877 0.000000
# 6 0.000000 0.000000 0.000000 0.000000 0.000000 -0.089926
#
#
# Mechanical properties :
#
#
# Convention : Reuss Voigt Hill
#
# Bulk Modulus (GPa) = 14.88887 33.33788 24.11337
# Shear Modulus (GPa) = 65.14739 34.08606 49.61673
#
# Velocity S-wave (km/s) = 5.65371 4.08953 4.93400
# Velocity P-wave (km/s) = 7.06572 6.21741 6.65509
#
# Compressibility (1/GPa) = 0.06716428
#
# Stress axis : x y z
#
# Youngs Moduli (GPa) = 21.85810 72.15780 42.54891
#
# Poissons Ratio (x) = 0.58942 -0.45471
# Poissons Ratio (y) = 0.17855 0.44639
# Poissons Ratio (z) = -0.23359 0.75703
#
# Static dielectric constant tensor:
#      x y z
#    x 1.724330 0.000000 0.000000 
#    y 0.000000 1.736400 0.000000 
#    z 0.000000 0.000000 1.729840 
# 
# From -- ./inp_files/25431.got.cif
#   From: 2010.05.17/outbox.cif.g08.bks.cpg/sg74_13_cif.got.tgz:25431.got - 2010.06.03 17:57:02.
