data_PCOD9534335
_publ_section_title
;
Structure prediction by ZEFSAII (Michael W. Deem and Ramdas Pophale) SiO2 
 PCOD9534335
Probable space group: I M M A
;
_chemical_formula_sum "Si O2"
_cell_formula_units_Z 80
_cell_length_a 15.120882
_cell_length_b 9.990400
_cell_length_c 28.337446
_cell_angle_alpha 90.000000
_cell_angle_beta 90.000000
_cell_angle_gamma 90.000000
_cell_volume 4280.758295
_symmetry_space_group_name_H-M "I M M A"
_symmetry_group_IT_number 74
_symmetry_cell_setting 'orthorhombic'
loop_
_space_group_symop_operation_xyz
x,y,z
-x,1/2-y,z
x,-y,-z
-x,1/2+y,-z
-x,-y,-z
x,1/2+y,-z
-x,y,z
x,1/2-y,z
1/2+x,1/2+y,1/2+z
1/2-x,-y,1/2+z
1/2+x,1/2-y,1/2-z
1/2-x,y,1/2-z
1/2-x,1/2-y,1/2-z
1/2+x,y,1/2-z
1/2-x,1/2+y,1/2+z
1/2+x,-y,1/2+z
loop_
_atom_site_type_symbol
_atom_site_label
_atom_site_fract_x
_atom_site_fract_y
_atom_site_fract_z
Si Si1 0.671247 0.250000 0.972153
Si Si2 0.897295 0.250000 0.629122
Si Si3 0.605206 0.750000 0.385999
Si Si4 0.688511 0.977650 0.449499
Si Si5 0.891948 0.750000 0.221020
Si Si6 0.392451 0.250000 0.171470
Si Si7 0.286725 0.750000 0.925723
Si Si8 0.607835 0.463333 0.797347
O O1 0.608752 0.250000 0.926930
O O2 0.729644 0.117561 0.964072
O O3 0.650087 0.250000 0.027518
O O4 0.861351 0.380900 0.656092
O O5 0.000000 0.250000 0.641096
O O6 0.500000 0.750000 0.384608
O O7 0.636460 0.883565 0.413202
O O8 0.640168 0.750000 0.332401
O O9 0.640043 0.000000 0.500000
O O10 0.724921 0.117699 0.429476
O O11 0.864584 0.621080 0.251682
O O12 0.000000 0.750000 0.220028
O O13 0.500000 0.250000 0.165851
O O14 0.345685 0.250000 0.120725
O O15 0.364872 0.116017 0.198690
O O16 0.500000 0.464962 0.796881
#
# Coordination Sequence:
#
# PCOD9534335 Si02
#       8
#     8   8   8  16   8   8   8  16
#     4   9  17  30  48  67  94 138 178 201 233 291
#     4   9  15  25  44  69  96 131 176 219 245 262
#     4  10  20  36  61  83  94 114 158 209 243 288
#     4   9  19  35  52  72 101 135 160 184 242 312
#     4   8  15  31  53  74  93 118 157 202 248 295
#     4  10  18  28  47  74 100 134 177 212 239 268
#     4  10  19  32  49  69 102 141 168 198 243 296
#     4   8  15  27  44  68  99 130 162 204 250 290
#
# _framework density 18.688278
#
# number of rings (size 3 to 8) (size 9 to 14) (size 15 to 20)
#    0.000    3.000    0.000    3.000    0.000    0.800 
#    0.000    1.500    0.000   32.400    0.000    0.000 
#    0.000    0.000    0.000    0.000    0.000    0.000 
#
# Total GULP energy -222714.352550 kJ/mol
# GULP energy per Si atom -5567.858814 kJ/mol
# Density = 1.864574 g / cm^3
# Si number density = 18.688278 Si / 1000 Ang^3
#
#
#
# Elastic Constant Matrix: (Units=GPa)
#
#
# Indices 1 2 3 4 5 6 
#
# 1 18.8009 23.8080 19.3490 0.0000 0.0000 0.0000
# 2 23.8080 188.5454 81.1156 0.0000 0.0000 0.0000
# 3 19.3490 81.1156 157.0142 0.0000 0.0000 0.0000
# 4 0.0000 0.0000 0.0000 20.0035 0.0000 0.0000
# 5 0.0000 0.0000 0.0000 0.0000 149.6603 0.0000
# 6 0.0000 0.0000 0.0000 0.0000 0.0000 4.1328
#
#
#
# Elastic Compliance Matrix: (Units=1/GPa)
#
#
# Indices 1 2 3 4 5 6 
#
# 1 0.066157 -0.006231 -0.004933 0.000000 0.000000 0.000000
# 2 -0.006231 0.007406 -0.003058 0.000000 0.000000 0.000000
# 3 -0.004933 -0.003058 0.008557 0.000000 0.000000 0.000000
# 4 0.000000 0.000000 0.000000 0.049991 0.000000 0.000000
# 5 0.000000 0.000000 0.000000 0.000000 0.006682 0.000000
# 6 0.000000 0.000000 0.000000 0.000000 0.000000 0.241964
#
#
# Mechanical properties :
#
#
# Convention : Reuss Voigt Hill
#
# Bulk Modulus (GPa) = 18.63101 68.10063 43.36582
# Shear Modulus (GPa) = 11.70701 50.76519 31.23610
#
# Velocity S-wave (km/s) = 2.50559 5.21758 4.09274
# Velocity P-wave (km/s) = 4.28504 8.53328 6.75198
#
# Compressibility (1/GPa) = 0.05367396
#
# Stress axis : x y z
#
# Youngs Moduli (GPa) = 15.11557 135.01914 116.86663
#
# Poissons Ratio (x) = 0.84135 0.57655
# Poissons Ratio (y) = 0.09419 0.35742
# Poissons Ratio (z) = 0.07457 0.41293
#
# Static dielectric constant tensor:
#      x y z
#    x 1.659470 0.000000 0.000000 
#    y 0.000000 1.639770 0.000000 
#    z 0.000000 0.000000 1.685180 
# 
# From -- ./inp_files/67617.got.cif
#   From: 2010.05.17/outbox.cif.g08.bks.cpg/sg74_34_cif.got.tgz:67617.got - 2010.06.03 17:57:02.
