data_PCOD9534441
_publ_section_title
;
Structure prediction by ZEFSAII (Michael W. Deem and Ramdas Pophale) SiO2 
 PCOD9534441
Probable space group: I M M A
;
_chemical_formula_sum "Si O2"
_cell_formula_units_Z 112
_cell_length_a 15.469531
_cell_length_b 14.910992
_cell_length_c 25.373083
_cell_angle_alpha 90.000000
_cell_angle_beta 90.000000
_cell_angle_gamma 90.000000
_cell_volume 5852.708908
_symmetry_space_group_name_H-M "I M M A"
_symmetry_group_IT_number 74
_symmetry_cell_setting 'orthorhombic'
loop_
_space_group_symop_operation_xyz
x,y,z
-x,1/2-y,z
x,-y,-z
-x,1/2+y,-z
-x,-y,-z
x,1/2+y,-z
-x,y,z
x,1/2-y,z
1/2+x,1/2+y,1/2+z
1/2-x,-y,1/2+z
1/2+x,1/2-y,1/2-z
1/2-x,y,1/2-z
1/2-x,1/2-y,1/2-z
1/2+x,y,1/2-z
1/2-x,1/2+y,1/2+z
1/2+x,-y,1/2+z
loop_
_atom_site_type_symbol
_atom_site_label
_atom_site_fract_x
_atom_site_fract_y
_atom_site_fract_z
Si Si1 0.751015 0.645167 0.813065
Si Si2 0.896188 0.650002 0.088634
Si Si3 0.361712 0.850329 0.534500
Si Si4 0.395980 0.847387 0.091544
Si Si5 0.825826 0.401866 0.479777
Si Si6 0.901121 0.965665 0.868014
Si Si7 0.899890 0.957517 0.627407
O O1 0.753564 0.750000 0.828554
O O2 0.750000 0.640215 0.750000
O O3 0.835242 0.593779 0.834759
O O4 0.666177 0.597468 0.836841
O O5 0.862657 0.750000 0.101230
O O6 0.866758 0.567060 0.124064
O O7 0.000000 0.651760 0.093388
O O8 0.876342 0.632102 0.027273
O O9 0.394058 0.750000 0.545726
O O10 0.258648 0.854065 0.542255
O O11 0.401875 0.921798 0.573684
O O12 0.500000 0.849640 0.090172
O O13 0.368463 0.750000 0.112906
O O14 0.370792 0.938068 0.122098
O O15 0.363348 0.855206 0.031432
O O16 0.797167 0.500000 0.500000
O O17 0.891644 0.418369 0.432138
O O18 0.000000 0.966288 0.847973
O O19 0.000000 0.953169 0.644269
#
# Coordination Sequence:
#
# PCOD9534441 Si02
#       7
#    16  16  16  16  16  16  16
#     4  11  26  46  64  84 109 137 181 242 297 343
#     4   9  19  34  53  83 121 157 191 224 264 324
#     4  11  20  29  48  82 122 159 193 227 267 321
#     4   9  18  32  52  84 123 158 191 225 265 323
#     4  10  18  29  48  79 120 159 193 227 265 318
#     4  11  22  38  61  85 113 151 190 231 281 335
#     4  10  21  38  61  85 113 152 192 231 280 335
#
# _framework density 19.136437000000001
#
# number of rings (size 3 to 8) (size 9 to 14) (size 15 to 20)
#    0.000    1.857    1.429    3.000    2.000    6.000 
#    0.000    1.429    0.000    1.714    0.000    4.000 
#    0.000    0.000    0.000    0.000    0.000    0.000 
#
# Total GULP energy -312610.027491 kJ/mol
# GULP energy per Si atom -5582.321919 kJ/mol
# Density = 1.909288 g / cm^3
# Si number density = 19.136437 Si / 1000 Ang^3
#
#
#
# Elastic Constant Matrix: (Units=GPa)
#
#
# Indices 1 2 3 4 5 6 
#
# 1 86.1679 52.2521 30.1977 0.0000 0.0000 0.0000
# 2 52.2521 156.9671 55.3758 0.0000 0.0000 0.0000
# 3 30.1977 55.3758 52.5061 0.0000 0.0000 0.0000
# 4 0.0000 0.0000 0.0000 22.7792 0.0000 0.0000
# 5 0.0000 0.0000 0.0000 0.0000 0.8408 0.0000
# 6 0.0000 0.0000 0.0000 0.0000 0.0000 24.6094
#
#
#
# Elastic Compliance Matrix: (Units=1/GPa)
#
#
# Indices 1 2 3 4 5 6 
#
# 1 0.015485 -0.003206 -0.005525 0.000000 0.000000 0.000000
# 2 -0.003206 0.010809 -0.009556 0.000000 0.000000 0.000000
# 3 -0.005525 -0.009556 0.032302 0.000000 0.000000 0.000000
# 4 0.000000 0.000000 0.000000 0.043900 0.000000 0.000000
# 5 0.000000 0.000000 0.000000 0.000000 1.189290 0.000000
# 6 0.000000 0.000000 0.000000 0.000000 0.000000 0.040635
#
#
# Mechanical properties :
#
#
# Convention : Reuss Voigt Hill
#
# Bulk Modulus (GPa) = 45.40924 63.47692 54.44308
# Shear Modulus (GPa) = 3.63283 20.16691 11.89987
#
# Velocity S-wave (km/s) = 1.37931 3.24983 2.49638
# Velocity P-wave (km/s) = 5.13005 6.87928 6.06803
#
# Compressibility (1/GPa) = 0.02202195
#
# Stress axis : x y z
#
# Youngs Moduli (GPa) = 64.57655 92.51368 30.95814
#
# Poissons Ratio (x) = 0.29657 0.17105
# Poissons Ratio (y) = 0.20701 0.29585
# Poissons Ratio (z) = 0.35680 0.88409
#
# Static dielectric constant tensor:
#      x y z
#    x 1.678060 0.000000 0.000000 
#    y 0.000000 1.713290 0.000000 
#    z 0.000000 0.000000 1.635330 
# 
# From -- ./inp_files/60198.got.cif
#   From: 2010.05.17/outbox.cif.g08.bks.cpg/sg74_31_cif.got.tgz:60198.got - 2010.06.03 17:57:02.
