data_PCOD9534009
_publ_section_title
;
Structure prediction by ZEFSAII (Michael W. Deem and Ramdas Pophale) SiO2 
 PCOD9534009
Probable space group: I M M A
;
_chemical_formula_sum "Si O2"
_cell_formula_units_Z 96
_cell_length_a 8.801441
_cell_length_b 18.715580
_cell_length_c 32.563675
_cell_angle_alpha 90.000000
_cell_angle_beta 90.000000
_cell_angle_gamma 90.000000
_cell_volume 5364.021183
_symmetry_space_group_name_H-M "I M M A"
_symmetry_group_IT_number 74
_symmetry_cell_setting 'orthorhombic'
loop_
_space_group_symop_operation_xyz
x,y,z
-x,1/2-y,z
x,-y,-z
-x,1/2+y,-z
-x,-y,-z
x,1/2+y,-z
-x,y,z
x,1/2-y,z
1/2+x,1/2+y,1/2+z
1/2-x,-y,1/2+z
1/2+x,1/2-y,1/2-z
1/2-x,y,1/2-z
1/2-x,1/2-y,1/2-z
1/2+x,y,1/2-z
1/2-x,1/2+y,1/2+z
1/2+x,-y,1/2+z
loop_
_atom_site_type_symbol
_atom_site_label
_atom_site_fract_x
_atom_site_fract_y
_atom_site_fract_z
Si Si1 0.823082 0.336084 0.453712
Si Si2 0.183257 0.332372 0.545024
Si Si3 0.318138 0.576587 0.381685
Si Si4 0.681229 0.588925 0.791622
Si Si5 0.317570 0.571955 0.291169
Si Si6 0.819654 0.590983 0.875940
O O1 0.818724 0.250000 0.453087
O O2 0.769433 0.357817 0.499408
O O3 0.727065 0.367327 0.416641
O O4 0.000000 0.357673 0.448670
O O5 0.233394 0.250000 0.550428
O O6 0.241718 0.380600 0.581805
O O7 0.000000 0.332348 0.544680
O O8 0.500000 0.581384 0.386014
O O9 0.279309 0.604294 0.335708
O O10 0.277480 0.492497 0.382589
O O11 0.500000 0.587082 0.789075
O O12 0.750000 0.622415 0.750000
O O13 0.748452 0.508098 0.792477
O O14 0.735894 0.619824 0.835171
O O15 0.500000 0.566741 0.287936
O O16 0.250000 0.606649 0.250000
O O17 0.000000 0.593783 0.868714
#
# Coordination Sequence:
#
# PCOD9534009 Si02
#       6
#    16  16  16  16  16  16
#     4   9  19  36  54  72  96 127 164 203 244 293
#     4   9  19  35  53  72  95 126 165 205 244 293
#     4   9  19  32  47  72 103 130 159 201 246 287
#     4  10  17  27  45  69  98 131 164 198 240 286
#     4   9  16  27  43  67  98 129 162 199 240 287
#     4  10  20  33  49  74 104 130 163 203 243 288
#
# _framework density 17.897020000000001
#
# number of rings (size 3 to 8) (size 9 to 14) (size 15 to 20)
#    0.000    2.667    0.000    5.500    0.000    6.000 
#    0.000    5.000    0.000    1.000    0.000    0.000 
#    0.000    0.000    0.000    0.000    0.000    0.000 
#
# Total GULP energy -267451.899539 kJ/mol
# GULP energy per Si atom -5571.914574 kJ/mol
# Density = 1.785629 g / cm^3
# Si number density = 17.897020 Si / 1000 Ang^3
#
#
#
# Elastic Constant Matrix: (Units=GPa)
#
#
# Indices 1 2 3 4 5 6 
#
# 1 63.4907 12.5132 53.7014 0.0000 0.0000 0.0000
# 2 12.5132 9.6021 31.3968 0.0000 0.0000 0.0000
# 3 53.7014 31.3968 183.1101 0.0000 0.0000 0.0000
# 4 0.0000 0.0000 0.0000 -43.5042 0.0000 0.0000
# 5 0.0000 0.0000 0.0000 0.0000 36.6070 0.0000
# 6 0.0000 0.0000 0.0000 0.0000 0.0000 20.1550
#
#
#
# Elastic Compliance Matrix: (Units=1/GPa)
#
#
# Indices 1 2 3 4 5 6 
#
# 1 0.022148 -0.017353 -0.003520 0.000000 0.000000 0.000000
# 2 -0.017353 0.250638 -0.037886 0.000000 0.000000 0.000000
# 3 -0.003520 -0.037886 0.012990 0.000000 0.000000 0.000000
# 4 0.000000 0.000000 0.000000 -0.022986 0.000000 0.000000
# 5 0.000000 0.000000 0.000000 0.000000 0.027317 0.000000
# 6 0.000000 0.000000 0.000000 0.000000 0.000000 0.049616
#
#
# Mechanical properties :
#
#
# Convention : Reuss Voigt Hill
#
# Bulk Modulus (GPa) = 5.94329 50.15841 28.05085
# Shear Modulus (GPa) = 9.74042 13.22432 11.48237
#
# Velocity S-wave (km/s) = 2.33544 2.72124 2.53569
# Velocity P-wave (km/s) = 3.25583 6.16121 4.92752
#
# Compressibility (1/GPa) = 0.16825693
#
# Stress axis : x y z
#
# Youngs Moduli (GPa) = 45.15174 3.98982 76.98447
#
# Poissons Ratio (x) = 0.06923 0.27098
# Poissons Ratio (y) = 0.78351 2.91665
# Poissons Ratio (z) = 0.15893 0.15116
#
# Static dielectric constant tensor:
#      x y z
#    x 1.600510 0.000000 0.000000 
#    y 0.000000 1.593900 0.000000 
#    z 0.000000 0.000000 1.662780 
# 
# From -- ./inp_files/64295.got.cif
#   From: 2010.05.17/outbox.cif.g08.bks.cpg/sg74_33_cif.got.tgz:64295.got - 2010.06.03 17:57:02.
