data_PCOD9534252
_publ_section_title
;
Structure prediction by ZEFSAII (Michael W. Deem and Ramdas Pophale) SiO2 
 PCOD9534252
Probable space group: I M M A
;
_chemical_formula_sum "Si O2"
_cell_formula_units_Z 104
_cell_length_a 32.890383
_cell_length_b 8.435964
_cell_length_c 21.390338
_cell_angle_alpha 90.000000
_cell_angle_beta 90.000000
_cell_angle_gamma 90.000000
_cell_volume 5935.007822
_symmetry_space_group_name_H-M "I M M A"
_symmetry_group_IT_number 74
_symmetry_cell_setting 'orthorhombic'
loop_
_space_group_symop_operation_xyz
x,y,z
-x,1/2-y,z
x,-y,-z
-x,1/2+y,-z
-x,-y,-z
x,1/2+y,-z
-x,y,z
x,1/2-y,z
1/2+x,1/2+y,1/2+z
1/2-x,-y,1/2+z
1/2+x,1/2-y,1/2-z
1/2-x,y,1/2-z
1/2-x,1/2-y,1/2-z
1/2+x,y,1/2-z
1/2-x,1/2+y,1/2+z
1/2+x,-y,1/2+z
loop_
_atom_site_type_symbol
_atom_site_label
_atom_site_fract_x
_atom_site_fract_y
_atom_site_fract_z
Si Si1 0.283619 0.058504 0.068859
Si Si2 0.135144 0.061904 0.818065
Si Si3 0.500000 0.058563 0.068988
Si Si4 0.341896 0.558151 0.818366
Si Si5 0.067693 0.057630 0.339328
Si Si6 0.689095 0.440111 0.431937
Si Si7 0.545136 0.558503 0.699458
O O1 0.285477 0.250000 0.067570
O O2 0.308688 0.005115 0.130392
O O3 0.236378 0.010214 0.075626
O O4 0.297805 0.000000 0.000000
O O5 0.134011 0.250000 0.813642
O O6 0.156006 0.997765 0.753825
O O7 0.161766 0.007344 0.876646
O O8 0.088409 0.002103 0.826368
O O9 0.500000 0.250000 0.070912
O O10 0.460523 0.000446 0.105637
O O11 0.500000 0.000000 0.000000
O O12 0.339841 0.750000 0.816010
O O13 0.385968 0.506696 0.843836
O O14 0.067883 0.250000 0.340032
O O15 0.048766 0.013524 0.272632
O O16 0.675521 0.500000 0.500000
O O17 0.687629 0.250000 0.430397
O O18 0.500000 0.506716 0.676289
O O19 0.545909 0.750000 0.695057
#
# Coordination Sequence:
#
# PCOD9534252 Si02
#       7
#    16  16   8  16  16  16  16
#     4   9  19  34  54  77 102 137 181 224 271 321
#     4  11  22  34  51  81 113 140 173 218 267 312
#     4  10  18  28  40  60  88 124 167 208 249 298
#     4   9  18  34  53  74 101 138 179 222 267 317
#     4   8  14  27  47  65  88 124 167 207 247 298
#     4  10  20  37  58  79 105 138 175 216 262 323
#     4   9  16  31  56  78  97 131 173 211 254 310
#
# _framework density 17.523146000000001
#
# number of rings (size 3 to 8) (size 9 to 14) (size 15 to 20)
#    0.000    2.615    0.769    2.769    0.000    2.769 
#    0.000    6.154    0.000    0.462    0.000    0.000 
#    0.000    0.000    0.000    0.000    0.000    0.000 
#
# Total GULP energy -289586.914609 kJ/mol
# GULP energy per Si atom -5568.979127 kJ/mol
# Density = 1.748326 g / cm^3
# Si number density = 17.523146 Si / 1000 Ang^3
#
#
#
# Elastic Constant Matrix: (Units=GPa)
#
#
# Indices 1 2 3 4 5 6 
#
# 1 119.2706 28.1826 94.3889 0.0000 0.0000 0.0000
# 2 28.1826 31.6830 25.8762 0.0000 0.0000 0.0000
# 3 94.3889 25.8762 137.9354 0.0000 0.0000 0.0000
# 4 0.0000 0.0000 0.0000 28.8489 0.0000 0.0000
# 5 0.0000 0.0000 0.0000 0.0000 -17.4557 0.0000
# 6 0.0000 0.0000 0.0000 0.0000 0.0000 13.6411
#
#
#
# Elastic Compliance Matrix: (Units=1/GPa)
#
#
# Indices 1 2 3 4 5 6 
#
# 1 0.019767 -0.007718 -0.012078 0.000000 0.000000 0.000000
# 2 -0.007718 0.040287 -0.002276 0.000000 0.000000 0.000000
# 3 -0.012078 -0.002276 0.015942 0.000000 0.000000 0.000000
# 4 0.000000 0.000000 0.000000 0.034663 0.000000 0.000000
# 5 0.000000 0.000000 0.000000 0.000000 -0.057288 0.000000
# 6 0.000000 0.000000 0.000000 0.000000 0.000000 0.073308
#
#
# Mechanical properties :
#
#
# Convention : Reuss Voigt Hill
#
# Bulk Modulus (GPa) = 31.39691 65.08715 48.24203
# Shear Modulus (GPa) = 27.55710 14.36961 20.96335
#
# Velocity S-wave (km/s) = 3.96992 2.86673 3.46254
# Velocity P-wave (km/s) = 6.24259 6.94130 6.60120
#
# Compressibility (1/GPa) = 0.03185027
#
# Stress axis : x y z
#
# Youngs Moduli (GPa) = 50.59008 24.82186 62.72726
#
# Poissons Ratio (x) = 0.19158 0.75765
# Poissons Ratio (y) = 0.39046 0.14278
# Poissons Ratio (z) = 0.61105 0.05650
#
# Static dielectric constant tensor:
#      x y z
#    x 1.621910 0.000000 0.000000 
#    y 0.000000 1.599800 0.000000 
#    z 0.000000 0.000000 1.571800 
# 
# From -- ./inp_files/49634.got.cif
#   From: 2010.05.17/outbox.cif.g08.bks.cpg/sg74_25_cif.got.tgz:49634.got - 2010.06.03 17:57:02.
