data_PCOD9534955
_publ_section_title
;
Structure prediction by ZEFSAII (Michael W. Deem and Ramdas Pophale) SiO2 
 PCOD9534955
Probable space group: I M M A
;
_chemical_formula_sum "Si O2"
_cell_formula_units_Z 104
_cell_length_a 8.894170
_cell_length_b 26.237377
_cell_length_c 20.685024
_cell_angle_alpha 90.000000
_cell_angle_beta 90.000000
_cell_angle_gamma 90.000000
_cell_volume 4827.050817
_symmetry_space_group_name_H-M "I M M A"
_symmetry_group_IT_number 74
_symmetry_cell_setting 'orthorhombic'
loop_
_space_group_symop_operation_xyz
x,y,z
-x,1/2-y,z
x,-y,-z
-x,1/2+y,-z
-x,-y,-z
x,1/2+y,-z
-x,y,z
x,1/2-y,z
1/2+x,1/2+y,1/2+z
1/2-x,-y,1/2+z
1/2+x,1/2-y,1/2-z
1/2-x,y,1/2-z
1/2-x,1/2-y,1/2-z
1/2+x,y,1/2-z
1/2-x,1/2+y,1/2+z
1/2+x,-y,1/2+z
loop_
_atom_site_type_symbol
_atom_site_label
_atom_site_fract_x
_atom_site_fract_y
_atom_site_fract_z
Si Si1 0.673348 0.540276 0.117482
Si Si2 0.681794 0.306667 0.452789
Si Si3 0.821687 0.337867 0.316489
Si Si4 0.678742 0.250000 0.677108
Si Si5 0.671417 0.058165 0.348919
Si Si6 0.175295 0.349128 0.680114
Si Si7 0.827605 0.413753 0.999791
O O1 0.500000 0.524178 0.117356
O O2 0.767193 0.498794 0.157382
O O3 0.687294 0.596716 0.146356
O O4 0.733445 0.549299 0.045300
O O5 0.500000 0.310890 0.447202
O O6 0.718207 0.250000 0.477246
O O7 0.750631 0.313551 0.381136
O O8 0.730268 0.355316 0.495451
O O9 0.750000 0.317737 0.250000
O O10 0.776434 0.397715 0.320914
O O11 0.000000 0.331339 0.316305
O O12 0.500000 0.250000 0.680010
O O13 0.750000 0.250000 0.750000
O O14 0.739085 0.197839 0.646613
O O15 0.500000 0.064040 0.325353
O O16 0.670729 0.067876 0.426262
O O17 0.250000 0.355337 0.750000
O O18 0.000000 0.335580 0.686725
O O19 0.000000 0.413738 0.975607
#
# Coordination Sequence:
#
# PCOD9534955 Si02
#       7
#    16  16  16   8  16  16  16
#     4  11  23  36  54  83 114 145 183 230 280 333
#     4   9  19  38  61  84 115 152 190 237 288 336
#     4  11  22  37  58  85 117 152 193 235 281 340
#     4  10  18  32  56  78  98 132 172 210 257 312
#     4  10  21  38  59  81 110 147 186 232 281 330
#     4  10  21  37  55  77 108 141 177 220 270 322
#     4   9  19  36  57  81 110 146 188 229 277 334
#
# _framework density 21.545245999999999
#
# number of rings (size 3 to 8) (size 9 to 14) (size 15 to 20)
#    0.000    2.000    0.000    5.769    0.000    8.615 
#    1.385    1.538    0.000    0.000    0.000    0.000 
#    0.000    0.000    0.000    0.000    0.000    0.000 
#
# Total GULP energy -290567.468433 kJ/mol
# GULP energy per Si atom -5587.835931 kJ/mol
# Density = 2.149621 g / cm^3
# Si number density = 21.545246 Si / 1000 Ang^3
#
#
#
# Elastic Constant Matrix: (Units=GPa)
#
#
# Indices 1 2 3 4 5 6 
#
# 1 76.5826 30.3245 -3.4056 0.0000 0.0000 -0.0002
# 2 30.3245 98.1267 -4.4535 0.0000 0.0000 -0.0003
# 3 -3.4056 -4.4535 28.5758 0.0000 0.0000 -0.0004
# 4 0.0000 0.0000 0.0000 16.3241 0.0000 0.0002
# 5 0.0000 0.0000 0.0000 0.0000 22.0698 0.0000
# 6 -0.0002 -0.0003 -0.0004 0.0002 0.0000 648.6262
#
#
#
# Elastic Compliance Matrix: (Units=1/GPa)
#
#
# Indices 1 2 3 4 5 6 
#
# 1 0.014911 -0.004560 0.001066 0.000000 0.000000 0.000000
# 2 -0.004560 0.011658 0.001273 0.000000 0.000000 0.000000
# 3 0.001066 0.001273 0.035320 0.000000 0.000000 0.000000
# 4 0.000000 0.000000 0.000000 0.061259 0.000000 0.000000
# 5 0.000000 0.000000 0.000000 0.000000 0.045311 0.000000
# 6 0.000000 0.000000 0.000000 0.000000 0.000000 0.001542
#
#
# Mechanical properties :
#
#
# Convention : Reuss Voigt Hill
#
# Bulk Modulus (GPa) = 17.40664 27.57956 22.49310
# Shear Modulus (GPa) = 25.82787 149.45866 87.64326
#
# Velocity S-wave (km/s) = 3.46609 8.33788 6.38491
# Velocity P-wave (km/s) = 4.91070 10.27240 8.05100
#
# Compressibility (1/GPa) = 0.05744933
#
# Stress axis : x y z
#
# Youngs Moduli (GPa) = 67.06619 85.77988 28.31240
#
# Poissons Ratio (x) = 0.39111 -0.03019
# Poissons Ratio (y) = 0.30579 -0.03605
# Poissons Ratio (z) = -0.07152 -0.10924
#
# Static dielectric constant tensor:
#      x y z
#    x 1.767450 0.000000 0.000000 
#    y 0.000000 1.837660 0.000000 
#    z 0.000000 0.000000 1.814660 
# 
# From -- ./inp_files/49282.got.cif
#   From: 2010.05.17/outbox.cif.g08.bks.cpg/sg74_25_cif.got.tgz:49282.got - 2010.06.03 17:57:02.
