data_PCOD9534821
_publ_section_title
;
Structure prediction by ZEFSAII (Michael W. Deem and Ramdas Pophale) SiO2 
 PCOD9534821
Probable space group: I M M A
;
_chemical_formula_sum "Si O2"
_cell_formula_units_Z 64
_cell_length_a 12.161740
_cell_length_b 9.829879
_cell_length_c 29.475800
_cell_angle_alpha 90.000000
_cell_angle_beta 90.000000
_cell_angle_gamma 90.000000
_cell_volume 3523.785690
_symmetry_space_group_name_H-M "I M M A"
_symmetry_group_IT_number 74
_symmetry_cell_setting 'orthorhombic'
loop_
_space_group_symop_operation_xyz
x,y,z
-x,1/2-y,z
x,-y,-z
-x,1/2+y,-z
-x,-y,-z
x,1/2+y,-z
-x,y,z
x,1/2-y,z
1/2+x,1/2+y,1/2+z
1/2-x,-y,1/2+z
1/2+x,1/2-y,1/2-z
1/2-x,y,1/2-z
1/2-x,1/2-y,1/2-z
1/2+x,y,1/2-z
1/2-x,1/2+y,1/2+z
1/2+x,-y,1/2+z
loop_
_atom_site_type_symbol
_atom_site_label
_atom_site_fract_x
_atom_site_fract_y
_atom_site_fract_z
Si Si1 0.779028 0.913424 0.299804
Si Si2 0.500000 0.087889 0.849391
Si Si3 0.748354 0.403738 0.044058
Si Si4 0.631093 0.406807 0.615510
Si Si5 0.000000 0.960286 0.553465
O O1 0.794128 0.750000 0.294923
O O2 0.750000 0.968061 0.250000
O O3 0.678951 0.932414 0.334509
O O4 0.890162 0.965228 0.324285
O O5 0.500000 0.250000 0.844283
O O6 0.500000 0.062010 0.903475
O O7 0.788734 0.250000 0.035729
O O8 0.814914 0.483932 0.082361
O O9 0.619878 0.393957 0.057811
O O10 0.755473 0.500000 0.000000
O O11 0.500000 0.414854 0.614399
O O12 0.663441 0.250000 0.603138
O O13 0.000000 0.000000 0.500000
#
# Coordination Sequence:
#
# PCOD9534821 Si02
#       5
#    16   8  16  16   8
#     4   9  18  31  52  84 118 151 190 239 292 342
#     4  10  18  31  56  86 120 156 195 243 297 354
#     4  11  23  39  60  85 115 150 190 236 289 348
#     4  10  21  37  57  83 116 152 191 238 287 341
#     4  10  21  35  55  86 118 154 190 237 292 352
#
# _framework density 18.162285000000001
#
# number of rings (size 3 to 8) (size 9 to 14) (size 15 to 20)
#    0.000    2.000    2.500    1.125    1.750    5.000 
#    0.000    0.000    0.000    0.750    0.000    0.000 
#    0.000    0.000    0.000    0.000    0.000    0.000 
#
# Total GULP energy -178149.963433 kJ/mol
# GULP energy per Si atom -5567.186357 kJ/mol
# Density = 1.812095 g / cm^3
# Si number density = 18.162285 Si / 1000 Ang^3
#
#
#
# Elastic Constant Matrix: (Units=GPa)
#
#
# Indices 1 2 3 4 5 6 
#
# 1 92.2403 42.9003 53.9648 0.0000 0.0000 0.0000
# 2 42.9003 95.6362 55.3854 0.0000 0.0000 0.0000
# 3 53.9648 55.3854 128.7022 0.0000 0.0000 0.0000
# 4 0.0000 0.0000 0.0000 21.5792 0.0000 0.0000
# 5 0.0000 0.0000 0.0000 0.0000 22.4516 0.0000
# 6 0.0000 0.0000 0.0000 0.0000 0.0000 2.4608
#
#
#
# Elastic Compliance Matrix: (Units=1/GPa)
#
#
# Indices 1 2 3 4 5 6 
#
# 1 0.015571 -0.004267 -0.004693 0.000000 0.000000 0.000000
# 2 -0.004267 0.015097 -0.004707 0.000000 0.000000 0.000000
# 3 -0.004693 -0.004707 0.011763 0.000000 0.000000 0.000000
# 4 0.000000 0.000000 0.000000 0.046341 0.000000 0.000000
# 5 0.000000 0.000000 0.000000 0.000000 0.044540 0.000000
# 6 0.000000 0.000000 0.000000 0.000000 0.000000 0.406366
#
#
# Mechanical properties :
#
#
# Convention : Reuss Voigt Hill
#
# Bulk Modulus (GPa) = 66.24026 69.00887 67.62456
# Shear Modulus (GPa) = 8.74056 20.25353 14.49704
#
# Velocity S-wave (km/s) = 2.19612 3.34300 2.82830
# Velocity P-wave (km/s) = 6.55599 7.27867 6.92676
#
# Compressibility (1/GPa) = 0.01509656
#
# Stress axis : x y z
#
# Youngs Moduli (GPa) = 64.22029 66.23967 85.01032
#
# Poissons Ratio (x) = 0.28267 0.39893
# Poissons Ratio (y) = 0.27405 0.40018
# Poissons Ratio (z) = 0.30137 0.31182
#
# Static dielectric constant tensor:
#      x y z
#    x 1.632800 0.000000 0.000000 
#    y 0.000000 1.662370 0.000000 
#    z 0.000000 0.000000 1.680620 
# 
# From -- ./inp_files/71295.got.cif
#   From: 2010.05.17/outbox.cif.g08.bks.cpg/sg74_36_cif.got.tgz:71295.got - 2010.06.03 17:57:02.
