data_PCOD9534903
_publ_section_title
;
Structure prediction by ZEFSAII (Michael W. Deem and Ramdas Pophale) SiO2 
 PCOD9534903
Probable space group: I M M A
;
_chemical_formula_sum "Si O2"
_cell_formula_units_Z 92
_cell_length_a 8.672702
_cell_length_b 22.843985
_cell_length_c 29.637908
_cell_angle_alpha 90.000000
_cell_angle_beta 90.000000
_cell_angle_gamma 90.000000
_cell_volume 5871.834900
_symmetry_space_group_name_H-M "I M M A"
_symmetry_group_IT_number 74
_symmetry_cell_setting 'orthorhombic'
loop_
_space_group_symop_operation_xyz
x,y,z
-x,1/2-y,z
x,-y,-z
-x,1/2+y,-z
-x,-y,-z
x,1/2+y,-z
-x,y,z
x,1/2-y,z
1/2+x,1/2+y,1/2+z
1/2-x,-y,1/2+z
1/2+x,1/2-y,1/2-z
1/2-x,y,1/2-z
1/2-x,1/2-y,1/2-z
1/2+x,y,1/2-z
1/2-x,1/2+y,1/2+z
1/2+x,-y,1/2+z
loop_
_atom_site_type_symbol
_atom_site_label
_atom_site_fract_x
_atom_site_fract_y
_atom_site_fract_z
Si Si1 0.828181 0.646776 0.966851
Si Si2 0.184233 0.976040 0.550467
Si Si3 0.184199 0.316505 0.560241
Si Si4 0.817035 0.925543 0.115327
Si Si5 0.000000 0.250000 0.074331
Si Si6 0.816439 0.627280 0.300378
Si Si7 0.684810 0.750000 0.301056
O O1 0.750604 0.589272 0.946998
O O2 0.000000 0.630812 0.985629
O O3 0.867619 0.698156 0.931820
O O4 0.729055 0.671683 0.008238
O O5 0.259473 0.019391 0.586508
O O6 0.000000 0.976116 0.556075
O O7 0.217628 0.000000 0.500000
O O8 0.232462 0.250000 0.572009
O O9 0.264766 0.367483 0.588347
O O10 0.000000 0.321158 0.566219
O O11 0.738491 0.921207 0.164379
O O12 0.000000 0.926327 0.120252
O O13 0.750000 0.618773 0.250000
O O14 0.750352 0.689167 0.319273
O O15 0.000000 0.631220 0.297958
O O16 0.500000 0.750000 0.301604
O O17 0.750000 0.750000 0.250000
#
# Coordination Sequence:
#
# PCOD9534903 Si02
#       7
#    16  16  16  16   4  16   8
#     4  10  18  33  51  71  98 133 170 211 255 311
#     4  11  22  35  52  75 103 138 178 218 262 310
#     4  11  21  33  48  69  99 133 174 222 270 310
#     4  12  25  37  53  75 100 134 180 220 266 314
#     4   8  20  32  50  76 100 128 180 202 268 306
#     4  11  22  39  57  74 100 130 170 219 271 316
#     4  10  18  32  53  76  98 128 172 219 270 321
#
# _framework density 15.668015
#
# number of rings (size 3 to 8) (size 9 to 14) (size 15 to 20)
#    0.522    0.696    2.609    6.522    1.217    1.739 
#    0.000    0.000    0.000    0.000    0.000    0.000 
#    0.000    0.000    0.000    0.783    2.435    0.348 
#
# Total GULP energy -256174.461628 kJ/mol
# GULP energy per Si atom -5569.010035 kJ/mol
# Density = 1.563235 g / cm^3
# Si number density = 15.668015 Si / 1000 Ang^3
#
#
#
# Elastic Constant Matrix: (Units=GPa)
#
#
# Indices 1 2 3 4 5 6 
#
# 1 114.3905 43.8295 26.2150 0.0000 0.0000 0.0000
# 2 43.8295 109.2599 36.6101 0.0000 0.0000 0.0000
# 3 26.2150 36.6101 51.3668 0.0000 0.0000 0.0000
# 4 0.0000 0.0000 0.0000 22.8341 0.0000 0.0000
# 5 0.0000 0.0000 0.0000 0.0000 20.2153 0.0000
# 6 0.0000 0.0000 0.0000 0.0000 0.0000 29.2165
#
#
#
# Elastic Compliance Matrix: (Units=1/GPa)
#
#
# Indices 1 2 3 4 5 6 
#
# 1 0.010706 -0.003237 -0.003157 0.000000 0.000000 0.000000
# 2 -0.003237 0.013003 -0.007615 0.000000 0.000000 0.000000
# 3 -0.003157 -0.007615 0.026506 0.000000 0.000000 0.000000
# 4 0.000000 0.000000 0.000000 0.043794 0.000000 0.000000
# 5 0.000000 0.000000 0.000000 0.000000 0.049467 0.000000
# 6 0.000000 0.000000 0.000000 0.000000 0.000000 0.034227
#
#
# Mechanical properties :
#
#
# Convention : Reuss Voigt Hill
#
# Bulk Modulus (GPa) = 45.05101 54.25850 49.65475
# Shear Modulus (GPa) = 23.46095 25.67735 24.56915
#
# Velocity S-wave (km/s) = 3.87380 4.05265 3.96423
# Velocity P-wave (km/s) = 6.98744 7.52356 7.26045
#
# Compressibility (1/GPa) = 0.02219706
#
# Stress axis : x y z
#
# Youngs Moduli (GPa) = 93.40888 76.90752 37.72673
#
# Poissons Ratio (x) = 0.24894 0.11909
# Poissons Ratio (y) = 0.30235 0.28730
# Poissons Ratio (z) = 0.29486 0.58567
#
# Static dielectric constant tensor:
#      x y z
#    x 1.531700 0.000000 0.000000 
#    y 0.000000 1.525400 0.000000 
#    z 0.000000 0.000000 1.505370 
# 
# From -- ./inp_files/70774.got.cif
#   From: 2010.05.17/outbox.cif.g08.bks.cpg/sg74_36_cif.got.tgz:70774.got - 2010.06.03 17:57:02.
