data_PCOD9534919
_publ_section_title
;
Structure prediction by ZEFSAII (Michael W. Deem and Ramdas Pophale) SiO2 
 PCOD9534919
Probable space group: I M M A
;
_chemical_formula_sum "Si O2"
_cell_formula_units_Z 64
_cell_length_a 21.641371
_cell_length_b 8.638575
_cell_length_c 18.756325
_cell_angle_alpha 90.000000
_cell_angle_beta 90.000000
_cell_angle_gamma 90.000000
_cell_volume 3506.506334
_symmetry_space_group_name_H-M "I M M A"
_symmetry_group_IT_number 74
_symmetry_cell_setting 'orthorhombic'
loop_
_space_group_symop_operation_xyz
x,y,z
-x,1/2-y,z
x,-y,-z
-x,1/2+y,-z
-x,-y,-z
x,1/2+y,-z
-x,y,z
x,1/2-y,z
1/2+x,1/2+y,1/2+z
1/2-x,-y,1/2+z
1/2+x,1/2-y,1/2-z
1/2-x,y,1/2-z
1/2-x,1/2-y,1/2-z
1/2+x,y,1/2-z
1/2-x,1/2+y,1/2+z
1/2+x,-y,1/2+z
loop_
_atom_site_type_symbol
_atom_site_label
_atom_site_fract_x
_atom_site_fract_y
_atom_site_fract_z
Si Si1 0.114982 0.064302 0.580577
Si Si2 0.379344 0.064229 0.419485
Si Si3 0.000000 0.064114 0.331745
Si Si4 0.500000 0.061530 0.332287
Si Si5 0.251754 0.564716 0.419335
O O1 0.110336 0.250000 0.577495
O O2 0.183763 0.024565 0.609815
O O3 0.109726 0.000000 0.500000
O O4 0.060538 0.996729 0.628010
O O5 0.378143 0.250000 0.422910
O O6 0.438264 0.012482 0.373748
O O7 0.385042 0.000000 0.500000
O O8 0.314179 0.005884 0.387419
O O9 0.000000 0.011671 0.249619
O O10 0.000000 0.250000 0.333659
O O11 0.500000 0.250000 0.332784
O O12 0.250617 0.500000 0.500000
O O13 0.257428 0.750000 0.421004
#
# Coordination Sequence:
#
# PCOD9534919 Si02
#       5
#    16  16   8   8  16
#     4  10  20  35  55  79 105 133 167 208 254 303
#     4  10  18  32  54  78 104 132 168 210 252 300
#     4  11  22  37  54  72 100 137 176 213 250 296
#     4   9  21  37  51  72 103 139 174 209 250 300
#     4   9  17  30  50  77 105 130 162 205 252 300
#
# _framework density 18.251785000000002
#
# number of rings (size 3 to 8) (size 9 to 14) (size 15 to 20)
#    0.000    2.250    0.000    4.875    0.000    3.000 
#    0.000    8.125    0.000    7.500    0.000    0.000 
#    0.000    0.000    0.000    0.000    0.000    0.000 
#
# Total GULP energy -178470.999319 kJ/mol
# GULP energy per Si atom -5577.218729 kJ/mol
# Density = 1.821024 g / cm^3
# Si number density = 18.251785 Si / 1000 Ang^3
#
#
#
# Elastic Constant Matrix: (Units=GPa)
#
#
# Indices 1 2 3 4 5 6 
#
# 1 234.1820 60.1148 86.3292 0.0000 0.0000 0.0000
# 2 60.1148 65.7454 27.4465 0.0000 0.0000 0.0000
# 3 86.3292 27.4465 81.1923 0.0000 0.0000 0.0000
# 4 0.0000 0.0000 0.0000 17.5474 0.0000 0.0000
# 5 0.0000 0.0000 0.0000 0.0000 -3.4582 0.0000
# 6 0.0000 0.0000 0.0000 0.0000 0.0000 5.6283
#
#
#
# Elastic Compliance Matrix: (Units=1/GPa)
#
#
# Indices 1 2 3 4 5 6 
#
# 1 0.007971 -0.004367 -0.007000 0.000000 0.000000 0.000000
# 2 -0.004367 0.020101 -0.002152 0.000000 0.000000 0.000000
# 3 -0.007000 -0.002152 0.020487 0.000000 0.000000 0.000000
# 4 0.000000 0.000000 0.000000 0.056988 0.000000 0.000000
# 5 0.000000 0.000000 0.000000 0.000000 -0.289165 0.000000
# 6 0.000000 0.000000 0.000000 0.000000 0.000000 0.177674
#
#
# Mechanical properties :
#
#
# Convention : Reuss Voigt Hill
#
# Bulk Modulus (GPa) = 46.46357 80.98896 63.72627
# Shear Modulus (GPa) = 176.87726 17.75877 97.31802
#
# Velocity S-wave (km/s) = 9.85495 3.12266 7.30996
# Velocity P-wave (km/s) = 12.45012 7.58095 10.30719
#
# Compressibility (1/GPa) = 0.02152224
#
# Stress axis : x y z
#
# Youngs Moduli (GPa) = 125.44701 49.74794 48.81245
#
# Poissons Ratio (x) = 0.21723 0.34167
# Poissons Ratio (y) = 0.54778 0.10506
# Poissons Ratio (z) = 0.87809 0.10707
#
# Static dielectric constant tensor:
#      x y z
#    x 1.670710 0.000000 0.000000 
#    y 0.000000 1.618840 0.000000 
#    z 0.000000 0.000000 1.579180 
# 
# From -- ./inp_files/44782.got.cif
#   From: 2010.05.17/outbox.cif.g08.bks.cpg/sg74_23_cif.got.tgz:44782.got - 2010.06.03 17:57:02.
