data_PCOD9534105
_publ_section_title
;
Structure prediction by ZEFSAII (Michael W. Deem and Ramdas Pophale) SiO2 
 PCOD9534105
Probable space group: I M M A
;
_chemical_formula_sum "Si O2"
_cell_formula_units_Z 128
_cell_length_a 16.206382
_cell_length_b 22.886562
_cell_length_c 17.617137
_cell_angle_alpha 90.000000
_cell_angle_beta 90.000000
_cell_angle_gamma 90.000000
_cell_volume 6534.343506
_symmetry_space_group_name_H-M "I M M A"
_symmetry_group_IT_number 74
_symmetry_cell_setting 'orthorhombic'
loop_
_space_group_symop_operation_xyz
x,y,z
-x,1/2-y,z
x,-y,-z
-x,1/2+y,-z
-x,-y,-z
x,1/2+y,-z
-x,y,z
x,1/2-y,z
1/2+x,1/2+y,1/2+z
1/2-x,-y,1/2+z
1/2+x,1/2-y,1/2-z
1/2-x,y,1/2-z
1/2-x,1/2-y,1/2-z
1/2+x,y,1/2-z
1/2-x,1/2+y,1/2+z
1/2+x,-y,1/2+z
loop_
_atom_site_type_symbol
_atom_site_label
_atom_site_fract_x
_atom_site_fract_y
_atom_site_fract_z
Si Si1 0.701265 0.855535 0.584257
Si Si2 0.777924 0.319865 0.916338
Si Si3 0.176603 0.082495 0.811505
Si Si4 0.089765 0.178723 0.551170
Si Si5 0.849837 0.618328 0.765605
Si Si6 0.592216 0.001138 0.790444
Si Si7 0.621251 0.184049 0.117621
Si Si8 0.735991 0.489254 0.087503
O O1 0.684116 0.839009 0.497611
O O2 0.637259 0.850690 0.653493
O O3 0.780117 0.816443 0.605697
O O4 0.730464 0.923114 0.590522
O O5 0.780990 0.250000 0.909080
O O6 0.824233 0.354584 0.850278
O O7 0.679655 0.338690 0.915853
O O8 0.250000 0.081008 0.750000
O O9 0.101933 0.058678 0.761158
O O10 0.199858 0.036319 0.878101
O O11 0.091450 0.250000 0.550878
O O12 0.090290 0.159523 0.462733
O O13 0.000000 0.160913 0.584450
O O14 0.750000 0.618605 0.750000
O O15 0.880932 0.552298 0.763907
O O16 0.893029 0.648607 0.693910
O O17 0.500000 0.993994 0.817809
O O18 0.656034 0.997025 0.859725
O O19 0.592206 0.250000 0.125687
O O20 0.717158 0.500000 0.000000
#
# Coordination Sequence:
#
# PCOD9534105 Si02
#       8
#    16  16  16  16  16  16  16  16
#     4  10  17  30  52  77 107 144 185 228 279 329
#     4  10  20  34  55  85 109 141 197 243 285 341
#     4  10  21  38  60  79 110 151 187 238 289 336
#     4   8  15  29  47  73 116 156 180 213 265 332
#     4  10  17  31  51  73 108 151 188 224 272 324
#     4  11  22  37  56  84 115 145 190 238 286 345
#     4   9  17  26  42  74 111 151 191 219 256 325
#     4  11  19  35  60  82 109 149 187 222 285 345
#
# _framework density 19.588808
#
# number of rings (size 3 to 8) (size 9 to 14) (size 15 to 20)
#    0.000    2.125    5.000    1.500    0.000    3.750 
#    0.000    2.500    0.000    3.750    0.000    0.000 
#    0.000    0.000    0.000    0.000    0.000    0.000 
#
# Total GULP energy -356578.749081 kJ/mol
# GULP energy per Si atom -5571.542954 kJ/mol
# Density = 1.954422 g / cm^3
# Si number density = 19.588808 Si / 1000 Ang^3
#
#
#
# Elastic Constant Matrix: (Units=GPa)
#
#
# Indices 1 2 3 4 5 6 
#
# 1 12.1650 4.7212 -5.3070 0.0000 0.0000 0.0000
# 2 4.7212 79.5932 27.6794 0.0001 0.0000 0.0001
# 3 -5.3070 27.6794 70.4257 0.0003 0.0000 0.0001
# 4 0.0000 0.0001 0.0003 26.0235 0.0000 0.0001
# 5 0.0000 0.0000 0.0000 0.0000 5.6617 0.0000
# 6 0.0000 0.0001 0.0001 0.0001 0.0000 -17.5547
#
#
#
# Elastic Compliance Matrix: (Units=1/GPa)
#
#
# Indices 1 2 3 4 5 6 
#
# 1 0.090165 -0.008932 0.010305 0.000000 0.000000 0.000000
# 2 -0.008932 0.015438 -0.006741 0.000000 0.000000 0.000000
# 3 0.010305 -0.006741 0.017625 0.000000 0.000000 0.000000
# 4 0.000000 0.000000 0.000000 0.038427 0.000000 0.000000
# 5 0.000000 0.000000 0.000000 0.000000 0.176625 0.000000
# 6 0.000000 0.000000 0.000000 0.000000 0.000000 -0.056965
#
#
# Mechanical properties :
#
#
# Convention : Reuss Voigt Hill
#
# Bulk Modulus (GPa) = 8.88945 24.04122 16.46533
# Shear Modulus (GPa) = 15.17229 11.83213 13.50221
#
# Velocity S-wave (km/s) = 2.78607 2.46036 2.62827
# Velocity P-wave (km/s) = 3.85973 4.51339 4.19930
#
# Compressibility (1/GPa) = 0.11249293
#
# Stress axis : x y z
#
# Youngs Moduli (GPa) = 11.09078 64.77604 56.73704
#
# Poissons Ratio (x) = 0.57858 -0.58468
# Poissons Ratio (y) = 0.09906 0.38244
# Poissons Ratio (z) = -0.11429 0.43663
#
# Static dielectric constant tensor:
#      x y z
#    x 1.714370 0.000000 0.000000 
#    y 0.000000 1.721310 0.000000 
#    z 0.000000 0.000000 1.725610 
# 
# From -- ./inp_files/44616.got.cif
#   From: 2010.05.17/outbox.cif.g08.bks.cpg/sg74_23_cif.got.tgz:44616.got - 2010.06.03 17:57:02.
