data_PCOD9534373
_publ_section_title
;
Structure prediction by ZEFSAII (Michael W. Deem and Ramdas Pophale) SiO2 
 PCOD9534373
Probable space group: I M M A
;
_chemical_formula_sum "Si O2"
_cell_formula_units_Z 64
_cell_length_a 11.494736
_cell_length_b 19.400713
_cell_length_c 14.493695
_cell_angle_alpha 90.000000
_cell_angle_beta 90.000000
_cell_angle_gamma 90.000000
_cell_volume 3232.182022
_symmetry_space_group_name_H-M "I M M A"
_symmetry_group_IT_number 74
_symmetry_cell_setting 'orthorhombic'
loop_
_space_group_symop_operation_xyz
x,y,z
-x,1/2-y,z
x,-y,-z
-x,1/2+y,-z
-x,-y,-z
x,1/2+y,-z
-x,y,z
x,1/2-y,z
1/2+x,1/2+y,1/2+z
1/2-x,-y,1/2+z
1/2+x,1/2-y,1/2-z
1/2-x,y,1/2-z
1/2-x,1/2-y,1/2-z
1/2+x,y,1/2-z
1/2-x,1/2+y,1/2+z
1/2+x,-y,1/2+z
loop_
_atom_site_type_symbol
_atom_site_label
_atom_site_fract_x
_atom_site_fract_y
_atom_site_fract_z
Si Si1 0.190163 0.824879 0.385653
Si Si2 0.000000 0.172037 0.776307
Si Si3 0.500000 0.530888 0.860927
Si Si4 0.000000 0.824707 0.545529
Si Si5 0.252190 0.473661 0.638342
Si Si6 0.500000 0.483859 0.650056
O O1 0.248405 0.750000 0.383391
O O2 0.109256 0.830174 0.294697
O O3 0.108359 0.826970 0.475375
O O4 0.262581 0.893617 0.387138
O O5 0.000000 0.250000 0.817743
O O6 0.000000 0.099790 0.831659
O O7 0.375873 0.498833 0.894164
O O8 0.500000 0.516851 0.752223
O O9 0.500000 0.610379 0.888489
O O10 0.000000 0.750000 0.592963
O O11 0.250000 0.480015 0.750000
O O12 0.375550 0.505800 0.607520
#
# Coordination Sequence:
#
# PCOD9534373 Si02
#       6
#    16   8   8   8  16   8
#     4   9  16  27  43  68  98 124 155 197 234 269
#     4   9  14  24  40  62  94 129 155 180 217 264
#     4  10  18  32  51  70  91 126 159 202 249 277
#     4   9  19  33  52  74  92 112 162 218 247 276
#     4  10  18  29  44  69  99 132 161 189 231 285
#     4  10  19  31  43  70 104 130 161 188 229 291
#
# _framework density 19.800865999999999
#
# number of rings (size 3 to 8) (size 9 to 14) (size 15 to 20)
#    0.000    2.500    5.000    2.250    0.000    3.500 
#    0.000    0.000    0.000    9.750    0.000    1.750 
#    0.000    0.000    0.000    0.000    0.000    0.000 
#
# Total GULP energy -178213.976094 kJ/mol
# GULP energy per Si atom -5569.186753 kJ/mol
# Density = 1.975580 g / cm^3
# Si number density = 19.800866 Si / 1000 Ang^3
#
#
#
# Elastic Constant Matrix: (Units=GPa)
#
#
# Indices 1 2 3 4 5 6 
#
# 1 166.5991 47.5430 21.4009 0.0000 0.0000 0.0000
# 2 47.5430 108.2732 18.2552 0.0001 0.0000 0.0000
# 3 21.4009 18.2552 45.5669 0.0001 0.0000 0.0000
# 4 0.0000 0.0001 0.0001 14.6603 0.0000 0.0000
# 5 0.0000 0.0000 0.0000 0.0000 -6.8903 0.0000
# 6 0.0000 0.0000 0.0000 0.0000 0.0000 11.9331
#
#
#
# Elastic Compliance Matrix: (Units=1/GPa)
#
#
# Indices 1 2 3 4 5 6 
#
# 1 0.007067 -0.002728 -0.002226 0.000000 0.000000 0.000000
# 2 -0.002728 0.010958 -0.003109 0.000000 0.000000 0.000000
# 3 -0.002226 -0.003109 0.024237 0.000000 0.000000 0.000000
# 4 0.000000 0.000000 0.000000 0.068211 0.000000 0.000000
# 5 0.000000 0.000000 0.000000 0.000000 -0.145132 0.000000
# 6 0.000000 0.000000 0.000000 0.000000 0.000000 0.083801
#
#
# Mechanical properties :
#
#
# Convention : Reuss Voigt Hill
#
# Bulk Modulus (GPa) = 38.26163 54.98195 46.62179
# Shear Modulus (GPa) = 67.58654 19.48996 43.53825
#
# Velocity S-wave (km/s) = 5.84869 3.14076 4.69423
# Velocity P-wave (km/s) = 8.06069 6.40158 7.27856
#
# Compressibility (1/GPa) = 0.02613585
#
# Stress axis : x y z
#
# Youngs Moduli (GPa) = 141.50629 91.25919 41.25959
#
# Poissons Ratio (x) = 0.24893 0.09185
# Poissons Ratio (y) = 0.38599 0.12827
# Poissons Ratio (z) = 0.31502 0.28371
#
# Static dielectric constant tensor:
#      x y z
#    x 1.850350 0.000000 0.000000 
#    y 0.000000 1.706240 0.000000 
#    z 0.000000 0.000000 1.669320 
# 
# From -- ./inp_files/33640.got.cif
#   From: 2010.05.17/outbox.cif.g08.bks.cpg/sg74_17_cif.got.tgz:33640.got - 2010.06.03 17:57:02.
