data_PCOD9534531
_publ_section_title
;
Structure prediction by ZEFSAII (Michael W. Deem and Ramdas Pophale) SiO2 
 PCOD9534531
Probable space group: I M M A
;
_chemical_formula_sum "Si O2"
_cell_formula_units_Z 96
_cell_length_a 15.303899
_cell_length_b 26.357134
_cell_length_c 13.774000
_cell_angle_alpha 90.000000
_cell_angle_beta 90.000000
_cell_angle_gamma 90.000000
_cell_volume 5555.975910
_symmetry_space_group_name_H-M "I M M A"
_symmetry_group_IT_number 74
_symmetry_cell_setting 'orthorhombic'
loop_
_space_group_symop_operation_xyz
x,y,z
-x,1/2-y,z
x,-y,-z
-x,1/2+y,-z
-x,-y,-z
x,1/2+y,-z
-x,y,z
x,1/2-y,z
1/2+x,1/2+y,1/2+z
1/2-x,-y,1/2+z
1/2+x,1/2-y,1/2-z
1/2-x,y,1/2-z
1/2-x,1/2-y,1/2-z
1/2+x,y,1/2-z
1/2-x,1/2+y,1/2+z
1/2+x,-y,1/2+z
loop_
_atom_site_type_symbol
_atom_site_label
_atom_site_fract_x
_atom_site_fract_y
_atom_site_fract_z
Si Si1 0.000000 0.810431 0.798858
Si Si2 0.593274 0.513437 0.385862
Si Si3 0.695751 0.189914 0.351391
Si Si4 0.000000 0.809196 0.566138
Si Si5 0.283062 0.461539 0.908995
Si Si6 0.161628 0.375366 0.454214
Si Si7 0.848322 0.547906 0.718095
O O1 0.095117 0.828061 0.837290
O O2 0.000000 0.816455 0.682936
O O3 0.000000 0.750000 0.817405
O O4 0.591634 0.500000 0.500000
O O5 0.500000 0.538452 0.362779
O O6 0.683979 0.543278 0.370269
O O7 0.600741 0.463357 0.317261
O O8 0.695934 0.250000 0.379245
O O9 0.750000 0.187719 0.250000
O O10 0.750554 0.153881 0.422295
O O11 0.086446 0.835276 0.526876
O O12 0.000000 0.750000 0.547204
O O13 0.342220 0.492967 0.834459
O O14 0.276112 0.500000 0.000000
O O15 0.320547 0.410719 0.953759
O O16 0.128761 0.411106 0.363881
O O17 0.750000 0.561405 0.750000
#
# Coordination Sequence:
#
# PCOD9534531 Si02
#       7
#     8  16  16   8  16  16  16
#     4   9  18  32  44  63  95 132 175 212 256 313
#     4   9  17  31  49  70  98 133 163 212 260 295
#     4  10  18  30  47  66  96 136 173 217 265 306
#     4  11  22  34  47  71 107 138 173 224 262 303
#     4   8  17  34  47  66 100 136 169 210 248 290
#     4  11  20  32  50  74 100 142 181 208 249 310
#     4   9  18  32  50  69 101 138 172 206 248 300
#
# _framework density 17.278691999999999
#
# number of rings (size 3 to 8) (size 9 to 14) (size 15 to 20)
#    0.000    2.500    1.667    2.000    1.167    0.000 
#    3.000    1.250    0.000    0.000    0.000    0.000 
#    0.000   24.000    0.000    2.000    0.000    0.000 
#
# Total GULP energy -267267.634130 kJ/mol
# GULP energy per Si atom -5568.075711 kJ/mol
# Density = 1.723936 g / cm^3
# Si number density = 17.278692 Si / 1000 Ang^3
#
#
#
# Elastic Constant Matrix: (Units=GPa)
#
#
# Indices 1 2 3 4 5 6 
#
# 1 114.8213 46.6868 11.0509 0.0000 0.0000 0.0000
# 2 46.6868 97.6098 25.5408 0.0001 -0.0001 0.0004
# 3 11.0509 25.5408 45.4854 0.0002 -0.0001 0.0005
# 4 0.0000 0.0001 0.0002 25.4540 -0.0001 0.0004
# 5 0.0000 -0.0001 -0.0001 -0.0001 -5.7120 -0.0003
# 6 0.0000 0.0004 0.0005 0.0004 -0.0003 54.5264
#
#
#
# Elastic Compliance Matrix: (Units=1/GPa)
#
#
# Indices 1 2 3 4 5 6 
#
# 1 0.010816 -0.005258 0.000325 0.000000 0.000000 0.000000
# 2 -0.005258 0.014566 -0.006901 0.000000 0.000000 0.000000
# 3 0.000325 -0.006901 0.025781 0.000000 0.000000 0.000000
# 4 0.000000 0.000000 0.000000 0.039287 -0.000001 0.000000
# 5 0.000000 0.000000 0.000000 -0.000001 -0.175070 -0.000001
# 6 0.000000 0.000000 0.000000 0.000000 -0.000001 0.018340
#
#
# Mechanical properties :
#
#
# Convention : Reuss Voigt Hill
#
# Bulk Modulus (GPa) = 36.37235 47.16372 41.76804
# Shear Modulus (GPa) = -149.49061 26.49623 -61.49719
#
# Velocity S-wave (km/s) = -9.31156 3.92019 -5.97232
# Velocity P-wave (km/s) = 9.72166 6.91706 4.83038
#
# Compressibility (1/GPa) = 0.02749341
#
# Stress axis : x y z
#
# Youngs Moduli (GPa) = 92.45609 68.65433 38.78770
#
# Poissons Ratio (x) = 0.36100 -0.01260
# Poissons Ratio (y) = 0.48616 0.26769
# Poissons Ratio (z) = -0.03003 0.47381
#
# Static dielectric constant tensor:
#      x y z
#    x 1.637980 0.000000 0.000000 
#    y 0.000000 1.597110 0.000000 
#    z 0.000000 0.000000 1.619910 
# 
# From -- ./inp_files/32624.got.cif
#   From: 2010.05.17/outbox.cif.g08.bks.cpg/sg74_17_cif.got.tgz:32624.got - 2010.06.03 17:57:02.
