data_PCOD9534973
_publ_section_title
;
Structure prediction by ZEFSAII (Michael W. Deem and Ramdas Pophale) SiO2 
 PCOD9534973
Probable space group: I M M A
;
_chemical_formula_sum "Si O2"
_cell_formula_units_Z 72
_cell_length_a 24.324027
_cell_length_b 8.417474
_cell_length_c 17.898076
_cell_angle_alpha 90.000000
_cell_angle_beta 90.000000
_cell_angle_gamma 90.000000
_cell_volume 3664.574948
_symmetry_space_group_name_H-M "I M M A"
_symmetry_group_IT_number 74
_symmetry_cell_setting 'orthorhombic'
loop_
_space_group_symop_operation_xyz
x,y,z
-x,1/2-y,z
x,-y,-z
-x,1/2+y,-z
-x,-y,-z
x,1/2+y,-z
-x,y,z
x,1/2-y,z
1/2+x,1/2+y,1/2+z
1/2-x,-y,1/2+z
1/2+x,1/2-y,1/2-z
1/2-x,y,1/2-z
1/2-x,1/2-y,1/2-z
1/2+x,y,1/2-z
1/2-x,1/2+y,1/2+z
1/2+x,-y,1/2+z
loop_
_atom_site_type_symbol
_atom_site_label
_atom_site_fract_x
_atom_site_fract_y
_atom_site_fract_z
Si Si1 0.722589 0.062723 0.326191
Si Si2 0.000000 0.561121 0.914540
Si Si3 0.617632 0.561557 0.414257
Si Si4 0.323667 0.441441 0.915563
Si Si5 0.058526 0.558370 0.413976
O O1 0.712491 0.250000 0.316362
O O2 0.750000 0.996989 0.250000
O O3 0.667301 0.988175 0.359904
O O4 0.771448 0.030005 0.383656
O O5 0.941447 0.500242 0.884610
O O6 0.000000 0.750000 0.913562
O O7 0.000000 0.500000 0.000000
O O8 0.626407 0.500000 0.500000
O O9 0.615146 0.750000 0.419111
O O10 0.316723 0.250000 0.911247
O O11 0.382769 0.487546 0.879192
O O12 0.328258 0.500000 0.000000
O O13 0.057976 0.500000 0.500000
O O14 0.058811 0.750000 0.415604
O O15 0.000000 0.505442 0.380021
#
# Coordination Sequence:
#
# PCOD9534973 Si02
#       5
#    16   8  16  16  16
#     4  11  24  40  56  75 106 147 189 232 283 336
#     4  10  18  32  56  88 122 150 183 228 283 338
#     4  11  21  36  60  89 119 149 189 234 285 341
#     4  10  19  32  53  79 106 137 176 223 271 323
#     4   8  14  25  43  69  99 129 162 202 251 299
#
# _framework density 19.647572
#
# number of rings (size 3 to 8) (size 9 to 14) (size 15 to 20)
#    0.000    2.000    0.000    6.333    0.000    2.667 
#    0.000    0.000    2.444    0.000    0.000    0.000 
#    0.000    0.000    0.000    0.000    0.000    0.000 
#
# Total GULP energy -200566.811538 kJ/mol
# GULP energy per Si atom -5571.300320 kJ/mol
# Density = 1.960285 g / cm^3
# Si number density = 19.647572 Si / 1000 Ang^3
#
#
#
# Elastic Constant Matrix: (Units=GPa)
#
#
# Indices 1 2 3 4 5 6 
#
# 1 206.4477 39.9817 45.8444 0.0000 0.0000 0.0000
# 2 39.9817 89.4568 16.0093 0.0000 0.0000 0.0000
# 3 45.8444 16.0093 40.5493 0.0000 0.0000 0.0000
# 4 0.0000 0.0000 0.0000 13.4968 0.0000 0.0000
# 5 0.0000 0.0000 0.0000 0.0000 3.3922 0.0000
# 6 0.0000 0.0000 0.0000 0.0000 0.0000 -87.3888
#
#
#
# Elastic Compliance Matrix: (Units=1/GPa)
#
#
# Indices 1 2 3 4 5 6 
#
# 1 0.006718 -0.001768 -0.006897 0.000000 0.000000 0.000000
# 2 -0.001768 0.012494 -0.002934 0.000000 0.000000 0.000000
# 3 -0.006897 -0.002934 0.033617 0.000000 0.000000 0.000000
# 4 0.000000 0.000000 0.000000 0.074092 0.000000 0.000000
# 5 0.000000 0.000000 0.000000 0.000000 0.294796 0.000000
# 6 0.000000 0.000000 0.000000 0.000000 0.000000 -0.011443
#
#
# Mechanical properties :
#
#
# Convention : Reuss Voigt Hill
#
# Bulk Modulus (GPa) = 33.74809 60.01386 46.88097
# Shear Modulus (GPa) = 11.27781 1.54125 6.40953
#
# Velocity S-wave (km/s) = 2.39844 0.88665 1.80813
# Velocity P-wave (km/s) = 4.98839 5.62669 5.31713
#
# Compressibility (1/GPa) = 0.02963131
#
# Stress axis : x y z
#
# Youngs Moduli (GPa) = 148.85725 80.03937 29.74663
#
# Poissons Ratio (x) = 0.14152 0.20516
# Poissons Ratio (y) = 0.26320 0.08727
# Poissons Ratio (z) = 1.02667 0.23481
#
# Static dielectric constant tensor:
#      x y z
#    x 1.780440 0.000000 0.000000 
#    y 0.000000 1.685950 0.000000 
#    z 0.000000 0.000000 1.710520 
# 
# From -- ./inp_files/39421.got.cif
#   From: 2010.05.17/outbox.cif.g08.bks.cpg/sg74_20_cif.got.tgz:39421.got - 2010.06.03 17:57:02.
