data_PCOD9534613
_publ_section_title
;
Structure prediction by ZEFSAII (Michael W. Deem and Ramdas Pophale) SiO2 
 PCOD9534613
Probable space group: I M M A
;
_chemical_formula_sum "Si O2"
_cell_formula_units_Z 120
_cell_length_a 23.495850
_cell_length_b 20.021119
_cell_length_c 14.301469
_cell_angle_alpha 90.000000
_cell_angle_beta 90.000000
_cell_angle_gamma 90.000000
_cell_volume 6727.599924
_symmetry_space_group_name_H-M "I M M A"
_symmetry_group_IT_number 74
_symmetry_cell_setting 'orthorhombic'
loop_
_space_group_symop_operation_xyz
x,y,z
-x,1/2-y,z
x,-y,-z
-x,1/2+y,-z
-x,-y,-z
x,1/2+y,-z
-x,y,z
x,1/2-y,z
1/2+x,1/2+y,1/2+z
1/2-x,-y,1/2+z
1/2+x,1/2-y,1/2-z
1/2-x,y,1/2-z
1/2-x,1/2-y,1/2-z
1/2+x,y,1/2-z
1/2-x,1/2+y,1/2+z
1/2+x,-y,1/2+z
loop_
_atom_site_type_symbol
_atom_site_label
_atom_site_fract_x
_atom_site_fract_y
_atom_site_fract_z
Si Si1 0.066755 0.526945 0.291374
Si Si2 0.634177 0.073796 0.959766
Si Si3 0.750000 0.085564 0.250000
Si Si4 0.240782 0.931009 0.963129
Si Si5 0.139300 0.329328 0.013869
Si Si6 0.434159 0.622940 0.874952
Si Si7 0.640667 0.676502 0.721177
Si Si8 0.567871 0.442723 0.576578
O O1 0.109068 0.570879 0.355517
O O2 0.071411 0.450320 0.325928
O O3 0.080613 0.532606 0.181809
O O4 0.000000 0.546191 0.305546
O O5 0.701090 0.081995 0.979430
O O6 0.599845 0.122505 0.028057
O O7 0.620927 0.000000 0.000000
O O8 0.746296 0.053868 0.146542
O O9 0.691789 0.127024 0.256281
O O10 0.199936 0.867478 0.976243
O O11 0.214256 0.000000 0.000000
O O12 0.143150 0.250000 0.991656
O O13 0.101533 0.374819 0.946148
O O14 0.114504 0.336357 0.119173
O O15 0.500000 0.635798 0.891239
O O16 0.405707 0.671703 0.801149
O O17 0.666598 0.750000 0.716332
O O18 0.581240 0.500000 0.500000
O O19 0.500000 0.430786 0.571042
#
# Coordination Sequence:
#
# PCOD9534613 Si02
#       8
#    16  16   8  16  16  16  16  16
#     4   9  18  32  55  81 109 144 178 223 279 335
#     4   9  17  32  51  79 110 139 181 220 272 332
#     4  10  19  36  56  76 107 138 184 224 268 330
#     4  10  20  36  56  85 110 144 185 232 275 320
#     4  10  22  38  55  78 110 147 187 228 278 335
#     4  10  18  30  50  80 114 140 170 222 275 327
#     4  10  20  33  51  74 104 144 181 218 268 333
#     4  10  20  36  58  85 113 142 183 234 286 333
#
# _framework density 17.836970000000001
#
# number of rings (size 3 to 8) (size 9 to 14) (size 15 to 20)
#    0.000    2.267    1.333    1.800    0.000    5.333 
#    0.000    1.333    0.000    2.400    0.000    1.867 
#    0.000    0.000    0.000    0.000    0.000    0.000 
#
# Total GULP energy -334264.106541 kJ/mol
# GULP energy per Si atom -5571.068442 kJ/mol
# Density = 1.779637 g / cm^3
# Si number density = 17.836970 Si / 1000 Ang^3
#
#
#
# Elastic Constant Matrix: (Units=GPa)
#
#
# Indices 1 2 3 4 5 6 
#
# 1 63.3352 17.7022 40.8564 0.0000 0.0000 0.0000
# 2 17.7022 58.5833 30.6977 0.0000 0.0000 0.0000
# 3 40.8564 30.6977 114.2630 0.0000 0.0000 0.0000
# 4 0.0000 0.0000 0.0000 21.1763 0.0000 0.0000
# 5 0.0000 0.0000 0.0000 0.0000 27.0030 0.0000
# 6 0.0000 0.0000 0.0000 0.0000 0.0000 50.3134
#
#
#
# Elastic Compliance Matrix: (Units=1/GPa)
#
#
# Indices 1 2 3 4 5 6 
#
# 1 0.020908 -0.002794 -0.006726 0.000000 0.000000 0.000000
# 2 -0.002794 0.020240 -0.004439 0.000000 0.000000 0.000000
# 3 -0.006726 -0.004439 0.012349 0.000000 0.000000 0.000000
# 4 0.000000 0.000000 0.000000 0.047223 0.000000 0.000000
# 5 0.000000 0.000000 0.000000 0.000000 0.037033 0.000000
# 6 0.000000 0.000000 0.000000 0.000000 0.000000 0.019875
#
#
# Mechanical properties :
#
#
# Convention : Reuss Voigt Hill
#
# Bulk Modulus (GPa) = 39.09099 46.07714 42.58406
# Shear Modulus (GPa) = 25.76376 29.49355 27.62865
#
# Velocity S-wave (km/s) = 3.80465 4.07074 3.93995
# Velocity P-wave (km/s) = 6.42369 6.92698 6.68008
#
# Compressibility (1/GPa) = 0.02558135
#
# Stress axis : x y z
#
# Youngs Moduli (GPa) = 47.82766 49.40770 80.97797
#
# Poissons Ratio (x) = 0.13803 0.54462
# Poissons Ratio (y) = 0.13362 0.35943
# Poissons Ratio (z) = 0.32167 0.21930
#
# Static dielectric constant tensor:
#      x y z
#    x 1.616140 0.000000 0.000000 
#    y 0.000000 1.620890 0.000000 
#    z 0.000000 0.000000 1.639040 
# 
# From -- ./inp_files/25461.got.cif
#   From: 2010.05.17/outbox.cif.g08.bks.cpg/sg74_13_cif.got.tgz:25461.got - 2010.06.03 17:57:02.
