data_PCOD9534255
_publ_section_title
;
Structure prediction by ZEFSAII (Michael W. Deem and Ramdas Pophale) SiO2 
 PCOD9534255
Probable space group: I M M A
;
_chemical_formula_sum "Si O2"
_cell_formula_units_Z 96
_cell_length_a 9.187814
_cell_length_b 28.165918
_cell_length_c 31.582893
_cell_angle_alpha 90.000000
_cell_angle_beta 90.000000
_cell_angle_gamma 90.000000
_cell_volume 8173.122612
_symmetry_space_group_name_H-M "I M M A"
_symmetry_group_IT_number 74
_symmetry_cell_setting 'orthorhombic'
loop_
_space_group_symop_operation_xyz
x,y,z
-x,1/2-y,z
x,-y,-z
-x,1/2+y,-z
-x,-y,-z
x,1/2+y,-z
-x,y,z
x,1/2-y,z
1/2+x,1/2+y,1/2+z
1/2-x,-y,1/2+z
1/2+x,1/2-y,1/2-z
1/2-x,y,1/2-z
1/2-x,1/2-y,1/2-z
1/2+x,y,1/2-z
1/2-x,1/2+y,1/2+z
1/2+x,-y,1/2+z
loop_
_atom_site_type_symbol
_atom_site_label
_atom_site_fract_x
_atom_site_fract_y
_atom_site_fract_z
Si Si1 0.668108 0.027732 0.954675
Si Si2 0.826355 0.805086 0.538828
Si Si3 0.172585 0.693434 0.794586
Si Si4 0.673852 0.858163 0.872460
Si Si5 0.667263 0.111327 0.504514
Si Si6 0.167932 0.943838 0.914039
O O1 0.500000 0.033043 0.942343
O O2 0.744749 0.077914 0.963379
O O3 0.755735 0.994127 0.922600
O O4 0.669608 0.000000 0.000000
O O5 0.784716 0.750000 0.536078
O O6 0.798340 0.825233 0.586118
O O7 0.743301 0.838941 0.506109
O O8 0.000000 0.809190 0.531926
O O9 0.190918 0.750000 0.802202
O O10 0.250000 0.682557 0.750000
O O11 0.248417 0.664906 0.832279
O O12 0.000000 0.683668 0.792545
O O13 0.500000 0.860990 0.866653
O O14 0.741370 0.909436 0.883473
O O15 0.500000 0.117002 0.517490
O O16 0.667888 0.082927 0.459658
O O17 0.000000 0.948716 0.900826
#
# Coordination Sequence:
#
# PCOD9534255 Si02
#       6
#    16  16  16  16  16  16
#     4   9  15  23  35  49  65  85 107 130 158 194
#     4   9  17  27  37  49  66  88 112 138 169 204
#     4  10  20  32  44  56  69  86 109 137 170 208
#     4  10  18  28  41  55  70  87 108 135 169 208
#     4   9  16  24  34  48  65  85 108 134 163 195
#     4   9  16  25  36  51  69  86 105 130 161 197
#
# _framework density 11.745817000000001
#
# number of rings (size 3 to 8) (size 9 to 14) (size 15 to 20)
#    0.000    2.667    0.000    3.000    0.000    8.667 
#    0.000    0.000    0.000    0.000    0.000    0.000 
#    0.000    0.000    0.000    0.000    0.000    0.000 
#
# Total GULP energy -267425.457129 kJ/mol
# GULP energy per Si atom -5571.363690 kJ/mol
# Density = 1.171908 g / cm^3
# Si number density = 11.745817 Si / 1000 Ang^3
#
#
#
# Elastic Constant Matrix: (Units=GPa)
#
#
# Indices 1 2 3 4 5 6 
#
# 1 100.4454 66.4094 41.3244 0.0000 0.0000 0.0000
# 2 66.4094 93.7914 45.4507 0.0000 0.0000 0.0000
# 3 41.3244 45.4507 35.9897 0.0000 0.0000 0.0000
# 4 0.0000 0.0000 0.0000 19.6040 0.0000 0.0000
# 5 0.0000 0.0000 0.0000 0.0000 16.0092 0.0000
# 6 0.0000 0.0000 0.0000 0.0000 0.0000 20.9786
#
#
#
# Elastic Compliance Matrix: (Units=1/GPa)
#
#
# Indices 1 2 3 4 5 6 
#
# 1 0.021080 -0.008238 -0.013801 0.000000 0.000000 0.000000
# 2 -0.008238 0.030697 -0.029308 0.000000 0.000000 0.000000
# 3 -0.013801 -0.029308 0.080646 0.000000 0.000000 0.000000
# 4 0.000000 0.000000 0.000000 0.051010 0.000000 0.000000
# 5 0.000000 0.000000 0.000000 0.000000 0.062464 0.000000
# 6 0.000000 0.000000 0.000000 0.000000 0.000000 0.047668
#
#
# Mechanical properties :
#
#
# Convention : Reuss Voigt Hill
#
# Bulk Modulus (GPa) = 33.63802 59.62173 46.62988
# Shear Modulus (GPa) = 12.31014 16.45449 14.38232
#
# Velocity S-wave (km/s) = 3.24086 3.74690 3.50303
# Velocity P-wave (km/s) = 6.53489 8.34201 7.49313
#
# Compressibility (1/GPa) = 0.02972827
#
# Stress axis : x y z
#
# Youngs Moduli (GPa) = 47.43811 32.57610 12.39991
#
# Poissons Ratio (x) = 0.26835 0.17114
# Poissons Ratio (y) = 0.39078 0.36342
# Poissons Ratio (z) = 0.65471 0.95475
#
# Static dielectric constant tensor:
#      x y z
#    x 1.392750 0.000000 0.000000 
#    y 0.000000 1.371570 0.000000 
#    z 0.000000 0.000000 1.345890 
# 
# From -- ./inp_files/57495.got.cif
#   From: 2010.05.17/outbox.cif.g08.bks.cpg/sg74_29_cif.got.tgz:57495.got - 2010.06.03 17:57:02.
