data_PCOD9534363
_publ_section_title
;
Structure prediction by ZEFSAII (Michael W. Deem and Ramdas Pophale) SiO2 
 PCOD9534363
Probable space group: I M M A
;
_chemical_formula_sum "Si O2"
_cell_formula_units_Z 96
_cell_length_a 8.814863
_cell_length_b 29.364423
_cell_length_c 29.209363
_cell_angle_alpha 90.000000
_cell_angle_beta 90.000000
_cell_angle_gamma 90.000000
_cell_volume 7560.649832
_symmetry_space_group_name_H-M "I M M A"
_symmetry_group_IT_number 74
_symmetry_cell_setting 'orthorhombic'
loop_
_space_group_symop_operation_xyz
x,y,z
-x,1/2-y,z
x,-y,-z
-x,1/2+y,-z
-x,-y,-z
x,1/2+y,-z
-x,y,z
x,1/2-y,z
1/2+x,1/2+y,1/2+z
1/2-x,-y,1/2+z
1/2+x,1/2-y,1/2-z
1/2-x,y,1/2-z
1/2-x,1/2-y,1/2-z
1/2+x,y,1/2-z
1/2-x,1/2+y,1/2+z
1/2+x,-y,1/2+z
loop_
_atom_site_type_symbol
_atom_site_label
_atom_site_fract_x
_atom_site_fract_y
_atom_site_fract_z
Si Si1 0.684470 0.250000 0.550580
Si Si2 0.180945 0.902298 0.121232
Si Si3 0.818012 0.349105 0.972912
Si Si4 0.179790 0.515658 0.426721
Si Si5 0.681347 0.342613 0.799901
Si Si6 0.321427 0.429501 0.022732
Si Si7 0.816985 0.750000 0.158584
O O1 0.500000 0.250000 0.548516
O O2 0.737371 0.297088 0.527993
O O3 0.721817 0.250000 0.604564
O O4 0.221054 0.871822 0.076325
O O5 0.231180 0.953684 0.109431
O O6 0.265856 0.881012 0.164306
O O7 0.000000 0.899319 0.127537
O O8 0.000000 0.349088 0.975422
O O9 0.756638 0.381565 0.012838
O O10 0.194783 0.542669 0.474983
O O11 0.233593 0.464306 0.437926
O O12 0.000000 0.514634 0.415948
O O13 0.500000 0.339815 0.797841
O O14 0.750000 0.351558 0.750000
O O15 0.749591 0.294933 0.818164
O O16 0.500000 0.422518 0.030040
O O17 0.000000 0.750000 0.162695
#
# Coordination Sequence:
#
# PCOD9534363 Si02
#       7
#     8  16  16  16  16  16   8
#     4   9  16  28  42  55  75 100 124 156 195 233
#     4  10  18  29  44  60  75  95 120 153 192 231
#     4   9  16  26  40  55  73  98 124 152 189 227
#     4   8  14  25  39  55  76  98 117 143 182 225
#     4  12  24  36  47  60  75  95 124 158 200 243
#     4   8  14  24  37  54  76  98 118 146 182 218
#     4  11  20  36  51  59  74  94 124 162 202 241
#
# _framework density 12.697321000000001
#
# number of rings (size 3 to 8) (size 9 to 14) (size 15 to 20)
#    0.000    2.500    1.667    3.500    0.000    1.333 
#    0.000    3.750    0.000    0.000    0.000    0.000 
#    0.000    0.000    0.000    0.000    0.000    0.000 
#
# Total GULP energy -267346.027126 kJ/mol
# GULP energy per Si atom -5569.708898 kJ/mol
# Density = 1.266842 g / cm^3
# Si number density = 12.697321 Si / 1000 Ang^3
#
#
#
# Elastic Constant Matrix: (Units=GPa)
#
#
# Indices 1 2 3 4 5 6 
#
# 1 43.8855 36.4425 25.9698 0.0000 0.0000 0.0000
# 2 36.4425 109.7382 50.9366 0.0000 0.0000 0.0000
# 3 25.9698 50.9366 41.6210 0.0000 0.0000 0.0000
# 4 0.0000 0.0000 0.0000 7.4098 0.0000 0.0000
# 5 0.0000 0.0000 0.0000 0.0000 15.2669 0.0000
# 6 0.0000 0.0000 0.0000 0.0000 0.0000 20.7332
#
#
#
# Elastic Compliance Matrix: (Units=1/GPa)
#
#
# Indices 1 2 3 4 5 6 
#
# 1 0.036733 -0.003611 -0.018501 0.000000 0.000000 0.000000
# 2 -0.003611 0.021452 -0.024000 0.000000 0.000000 0.000000
# 3 -0.018501 -0.024000 0.064941 0.000000 0.000000 0.000000
# 4 0.000000 0.000000 0.000000 0.134957 0.000000 0.000000
# 5 0.000000 0.000000 0.000000 0.000000 0.065501 0.000000
# 6 0.000000 0.000000 0.000000 0.000000 0.000000 0.048232
#
#
# Mechanical properties :
#
#
# Convention : Reuss Voigt Hill
#
# Bulk Modulus (GPa) = 32.35911 46.88250 39.62080
# Shear Modulus (GPa) = 10.54096 14.14170 12.34133
#
# Velocity S-wave (km/s) = 2.88440 3.34092 3.12101
# Velocity P-wave (km/s) = 6.05255 7.20317 6.65278
#
# Compressibility (1/GPa) = 0.03090320
#
# Stress axis : x y z
#
# Youngs Moduli (GPa) = 27.22321 46.61640 15.39853
#
# Poissons Ratio (x) = 0.16835 0.28488
# Poissons Ratio (y) = 0.09831 0.36956
# Poissons Ratio (z) = 0.50364 1.11878
#
# Static dielectric constant tensor:
#      x y z
#    x 1.425900 0.000000 0.000000 
#    y 0.000000 1.437220 0.000000 
#    z 0.000000 0.000000 1.391360 
# 
# From -- ./inp_files/71090.got.cif
#   From: 2010.05.17/outbox.cif.g08.bks.cpg/sg74_36_cif.got.tgz:71090.got - 2010.06.03 17:57:02.
