data_PCOD9534448
_publ_section_title
;
Structure prediction by ZEFSAII (Michael W. Deem and Ramdas Pophale) SiO2 
 PCOD9534448
Probable space group: I M M A
;
_chemical_formula_sum "Si O2"
_cell_formula_units_Z 128
_cell_length_a 26.296066
_cell_length_b 23.138214
_cell_length_c 12.219435
_cell_angle_alpha 90.000000
_cell_angle_beta 90.000000
_cell_angle_gamma 90.000000
_cell_volume 7434.841939
_symmetry_space_group_name_H-M "I M M A"
_symmetry_group_IT_number 74
_symmetry_cell_setting 'orthorhombic'
loop_
_space_group_symop_operation_xyz
x,y,z
-x,1/2-y,z
x,-y,-z
-x,1/2+y,-z
-x,-y,-z
x,1/2+y,-z
-x,y,z
x,1/2-y,z
1/2+x,1/2+y,1/2+z
1/2-x,-y,1/2+z
1/2+x,1/2-y,1/2-z
1/2-x,y,1/2-z
1/2-x,1/2-y,1/2-z
1/2+x,y,1/2-z
1/2-x,1/2+y,1/2+z
1/2+x,-y,1/2+z
loop_
_atom_site_type_symbol
_atom_site_label
_atom_site_fract_x
_atom_site_fract_y
_atom_site_fract_z
Si Si1 0.558713 0.549256 0.645957
Si Si2 0.370931 0.687010 0.386242
Si Si3 0.810901 0.815854 0.558702
Si Si4 0.189161 0.525711 0.248632
Si Si5 0.695450 0.849219 0.189750
Si Si6 0.896756 0.936737 0.093841
Si Si7 0.358501 0.401163 0.217080
Si Si8 0.806480 0.816774 0.891702
O O1 0.500000 0.562648 0.628005
O O2 0.591465 0.558356 0.534942
O O3 0.566802 0.480355 0.659747
O O4 0.584435 0.585729 0.742107
O O5 0.394780 0.750000 0.401521
O O6 0.340623 0.684101 0.273164
O O7 0.405285 0.630388 0.382619
O O8 0.331471 0.678045 0.487476
O O9 0.825977 0.750000 0.585441
O O10 0.804832 0.822052 0.428934
O O11 0.848401 0.863327 0.609681
O O12 0.753964 0.826108 0.604790
O O13 0.250000 0.519117 0.250000
O O14 0.179017 0.583403 0.319264
O O15 0.160014 0.543707 0.134622
O O16 0.166534 0.464844 0.287286
O O17 0.750000 0.849122 0.250000
O O18 0.331961 0.362734 0.311785
O O19 0.815213 0.750000 0.856854
#
# Coordination Sequence:
#
# PCOD9534448 Si02
#       8
#    16  16  16  16  16  16  16  16
#     4  10  20  36  59  79 102 140 188 241 289 337
#     4  10  18  29  49  75 106 145 178 218 268 315
#     4  11  22  33  51  74 106 155 195 222 259 332
#     4   9  19  31  48  77 111 150 179 216 272 328
#     4  10  19  33  48  72 105 144 194 224 251 306
#     4   9  17  32  52  79 107 139 181 227 275 334
#     4  11  21  35  49  76 111 140 178 229 285 339
#     4  10  19  31  49  73 108 152 184 211 262 336
#
# _framework density 17.216237
#
# number of rings (size 3 to 8) (size 9 to 14) (size 15 to 20)
#    0.000    2.000    2.500    2.625    0.000    2.000 
#    0.000    0.000    0.000    4.500    0.000   19.250 
#    0.000   10.000    0.000    0.000    0.000    0.000 
#
# Total GULP energy -356420.725043 kJ/mol
# GULP energy per Si atom -5569.073829 kJ/mol
# Density = 1.717705 g / cm^3
# Si number density = 17.216237 Si / 1000 Ang^3
#
#
#
# Elastic Constant Matrix: (Units=GPa)
#
#
# Indices 1 2 3 4 5 6 
#
# 1 56.0989 16.7053 20.7730 0.0000 0.0000 0.0000
# 2 16.7053 111.9368 24.5104 0.0000 0.0000 0.0000
# 3 20.7730 24.5104 71.5757 0.0000 0.0000 0.0000
# 4 0.0000 0.0000 0.0000 21.5896 0.0000 0.0000
# 5 0.0000 0.0000 0.0000 0.0000 11.3798 0.0000
# 6 0.0000 0.0000 0.0000 0.0000 0.0000 7.8960
#
#
#
# Elastic Compliance Matrix: (Units=1/GPa)
#
#
# Indices 1 2 3 4 5 6 
#
# 1 0.020333 -0.001884 -0.005256 0.000000 0.000000 0.000000
# 2 -0.001884 0.009832 -0.002820 0.000000 0.000000 0.000000
# 3 -0.005256 -0.002820 0.016462 0.000000 0.000000 0.000000
# 4 0.000000 0.000000 0.000000 0.046318 0.000000 0.000000
# 5 0.000000 0.000000 0.000000 0.000000 0.087875 0.000000
# 6 0.000000 0.000000 0.000000 0.000000 0.000000 0.126647
#
#
# Mechanical properties :
#
#
# Convention : Reuss Voigt Hill
#
# Bulk Modulus (GPa) = 37.44238 40.39873 38.92056
# Shear Modulus (GPa) = 14.86808 20.01459 17.44134
#
# Velocity S-wave (km/s) = 2.94191 3.41331 3.18634
# Velocity P-wave (km/s) = 5.77367 6.24905 6.01606
#
# Compressibility (1/GPa) = 0.02670770
#
# Stress axis : x y z
#
# Youngs Moduli (GPa) = 49.18153 101.70599 60.74435
#
# Poissons Ratio (x) = 0.19157 0.31928
# Poissons Ratio (y) = 0.09264 0.17132
# Poissons Ratio (z) = 0.25850 0.28684
#
# Static dielectric constant tensor:
#      x y z
#    x 1.576740 0.000000 0.000000 
#    y 0.000000 1.639710 0.000000 
#    z 0.000000 0.000000 1.607450 
# 
# From -- ./inp_files/26600.got.cif
#   From: 2010.05.17/outbox.cif.g08.bks.cpg/sg74_14_cif.got.tgz:26600.got - 2010.06.03 17:57:02.
