data_PCOD9534885
_publ_section_title
;
Structure prediction by ZEFSAII (Michael W. Deem and Ramdas Pophale) SiO2 
 PCOD9534885
Probable space group: I M M A
;
_chemical_formula_sum "Si O2"
_cell_formula_units_Z 72
_cell_length_a 8.628005
_cell_length_b 34.134286
_cell_length_c 14.640992
_cell_angle_alpha 90.000000
_cell_angle_beta 90.000000
_cell_angle_gamma 90.000000
_cell_volume 4311.930124
_symmetry_space_group_name_H-M "I M M A"
_symmetry_group_IT_number 74
_symmetry_cell_setting 'orthorhombic'
loop_
_space_group_symop_operation_xyz
x,y,z
-x,1/2-y,z
x,-y,-z
-x,1/2+y,-z
-x,-y,-z
x,1/2+y,-z
-x,y,z
x,1/2-y,z
1/2+x,1/2+y,1/2+z
1/2-x,-y,1/2+z
1/2+x,1/2-y,1/2-z
1/2-x,y,1/2-z
1/2-x,1/2-y,1/2-z
1/2+x,y,1/2-z
1/2-x,1/2+y,1/2+z
1/2+x,-y,1/2+z
loop_
_atom_site_type_symbol
_atom_site_label
_atom_site_fract_x
_atom_site_fract_y
_atom_site_fract_z
Si Si1 0.675436 0.516006 0.103639
Si Si2 0.812795 0.568026 0.655473
Si Si3 0.184972 0.168181 0.646844
Si Si4 0.314718 0.250000 0.646406
Si Si5 0.183981 0.905646 0.039279
O O1 0.500000 0.524760 0.135568
O O2 0.740546 0.477656 0.152834
O O3 0.772435 0.555566 0.098011
O O4 0.663850 0.500000 0.000000
O O5 0.750000 0.585531 0.750000
O O6 0.749745 0.587646 0.563018
O O7 0.000000 0.568158 0.652975
O O8 0.250000 0.163398 0.750000
O O9 0.251381 0.209157 0.607579
O O10 0.239311 0.131784 0.586449
O O11 0.000000 0.170363 0.651491
O O12 0.500000 0.250000 0.647292
O O13 0.250000 0.250000 0.750000
O O14 0.000000 0.901340 0.035733
#
# Coordination Sequence:
#
# PCOD9534885 Si02
#       5
#    16  16  16   8  16
#     4   8  16  31  47  64  91 125 161 203 248 291
#     4  10  20  34  51  71  97 132 172 213 255 299
#     4  11  21  35  53  75 103 134 166 201 245 296
#     4  10  18  32  52  76 103 130 161 196 240 296
#     4  11  21  33  50  74 102 132 168 210 253 297
#
# _framework density 16.697858
#
# number of rings (size 3 to 8) (size 9 to 14) (size 15 to 20)
#    0.000    2.000    0.000    8.333    0.000    5.778 
#    0.000    2.222    0.000    0.000    0.000    0.778 
#    0.000    0.000    0.000    0.000    0.000    0.000 
#
# Total GULP energy -200767.472255 kJ/mol
# GULP energy per Si atom -5576.874229 kJ/mol
# Density = 1.665985 g / cm^3
# Si number density = 16.697858 Si / 1000 Ang^3
#
#
#
# Elastic Constant Matrix: (Units=GPa)
#
#
# Indices 1 2 3 4 5 6 
#
# 1 136.5764 65.8246 31.3800 0.0000 0.0000 0.0000
# 2 65.8246 133.7463 48.8054 0.0000 0.0000 0.0000
# 3 31.3800 48.8054 78.2847 0.0001 0.0000 0.0000
# 4 0.0000 0.0000 0.0001 19.5403 0.0000 0.0000
# 5 0.0000 0.0000 0.0000 0.0000 22.2516 0.0000
# 6 0.0000 0.0000 0.0000 0.0000 0.0000 26.0512
#
#
#
# Elastic Compliance Matrix: (Units=1/GPa)
#
#
# Indices 1 2 3 4 5 6 
#
# 1 0.009682 -0.004335 -0.001178 0.000000 0.000000 0.000000
# 2 -0.004335 0.011620 -0.005506 0.000000 0.000000 0.000000
# 3 -0.001178 -0.005506 0.016679 0.000000 0.000000 0.000000
# 4 0.000000 0.000000 0.000000 0.051176 0.000000 0.000000
# 5 0.000000 0.000000 0.000000 0.000000 0.044941 0.000000
# 6 0.000000 0.000000 0.000000 0.000000 0.000000 0.038386
#
#
# Mechanical properties :
#
#
# Convention : Reuss Voigt Hill
#
# Bulk Modulus (GPa) = 62.73086 71.18082 66.95584
# Shear Modulus (GPa) = 25.02036 27.07511 26.04773
#
# Velocity S-wave (km/s) = 3.87514 4.03112 3.95390
# Velocity P-wave (km/s) = 7.59421 8.02420 7.81216
#
# Compressibility (1/GPa) = 0.01594112
#
# Stress axis : x y z
#
# Youngs Moduli (GPa) = 103.28445 86.06019 59.95511
#
# Poissons Ratio (x) = 0.37308 0.07065
# Poissons Ratio (y) = 0.44775 0.33014
# Poissons Ratio (z) = 0.12170 0.47389
#
# Static dielectric constant tensor:
#      x y z
#    x 1.564070 0.000000 0.000000 
#    y 0.000000 1.578200 0.000000 
#    z 0.000000 0.000000 1.603820 
# 
# From -- ./inp_files/29420.got.cif
#   From: 2010.05.17/outbox.cif.g08.bks.cpg/sg74_15_cif.got.tgz:29420.got - 2010.06.03 17:57:02.
