data_PCOD9534485
_publ_section_title
;
Structure prediction by ZEFSAII (Michael W. Deem and Ramdas Pophale) SiO2 
 PCOD9534485
Probable space group: I M M A
;
_chemical_formula_sum "Si O2"
_cell_formula_units_Z 88
_cell_length_a 34.889975
_cell_length_b 8.809625
_cell_length_c 23.761515
_cell_angle_alpha 90.000000
_cell_angle_beta 90.000000
_cell_angle_gamma 90.000000
_cell_volume 7303.519743
_symmetry_space_group_name_H-M "I M M A"
_symmetry_group_IT_number 74
_symmetry_cell_setting 'orthorhombic'
loop_
_space_group_symop_operation_xyz
x,y,z
-x,1/2-y,z
x,-y,-z
-x,1/2+y,-z
-x,-y,-z
x,1/2+y,-z
-x,y,z
x,1/2-y,z
1/2+x,1/2+y,1/2+z
1/2-x,-y,1/2+z
1/2+x,1/2-y,1/2-z
1/2-x,y,1/2-z
1/2-x,1/2-y,1/2-z
1/2+x,y,1/2-z
1/2-x,1/2+y,1/2+z
1/2+x,-y,1/2+z
loop_
_atom_site_type_symbol
_atom_site_label
_atom_site_fract_x
_atom_site_fract_y
_atom_site_fract_z
Si Si1 0.729232 0.427828 0.836736
Si Si2 0.731132 0.569498 0.561480
Si Si3 0.421005 0.068376 0.562922
Si Si4 0.810952 0.428585 0.772088
Si Si5 0.151571 0.930990 0.875803
Si Si6 0.500000 0.067610 0.436615
O O1 0.722410 0.250000 0.847868
O O2 0.736659 0.513987 0.894597
O O3 0.769761 0.438178 0.803523
O O4 0.697350 0.481247 0.791784
O O5 0.735500 0.500000 0.500000
O O6 0.732084 0.750000 0.557947
O O7 0.689481 0.526924 0.587690
O O8 0.424275 0.250000 0.559104
O O9 0.415862 0.000000 0.500000
O O10 0.384724 0.018040 0.599387
O O11 0.460292 0.996987 0.587484
O O12 0.821392 0.250000 0.771049
O O13 0.839424 0.521469 0.811626
O O14 0.146144 0.750000 0.880202
O O15 0.500000 0.250000 0.437753
O O16 0.500000 0.000000 0.500000
#
# Coordination Sequence:
#
# PCOD9534485 Si02
#       6
#    16  16  16  16  16   8
#     4   8  14  25  39  51  66  87 112 139 171 209
#     4  10  19  27  36  50  69  91 116 145 179 214
#     4  11  20  30  42  55  71  91 115 143 176 214
#     4   8  14  25  39  53  67  87 111 138 172 209
#     4  10  19  28  38  54  72  91 114 144 179 213
#     4  10  18  30  44  56  70  88 112 140 171 210
#
# _framework density 12.048985999999999
#
# number of rings (size 3 to 8) (size 9 to 14) (size 15 to 20)
#    0.000    2.545    0.000    6.273    0.000    4.364 
#    0.000    3.636    0.000    0.000    0.000    0.000 
#    0.000    0.000    0.000    0.000    0.000    0.000 
#
# Total GULP energy -245015.222041 kJ/mol
# GULP energy per Si atom -5568.527774 kJ/mol
# Density = 1.202156 g / cm^3
# Si number density = 12.048986 Si / 1000 Ang^3
#
#
#
# Elastic Constant Matrix: (Units=GPa)
#
#
# Indices 1 2 3 4 5 6 
#
# 1 50.3169 32.0431 40.8200 0.0000 0.0000 0.0000
# 2 32.0431 65.5522 37.9024 0.0000 0.0000 0.0000
# 3 40.8200 37.9024 83.3334 0.0000 0.0000 0.0000
# 4 0.0000 0.0000 0.0000 19.3544 0.0000 0.0000
# 5 0.0000 0.0000 0.0000 0.0000 12.7241 0.0000
# 6 0.0000 0.0000 0.0000 0.0000 0.0000 14.6746
#
#
#
# Elastic Compliance Matrix: (Units=1/GPa)
#
#
# Indices 1 2 3 4 5 6 
#
# 1 0.037647 -0.010502 -0.013665 0.000000 0.000000 0.000000
# 2 -0.010502 0.023628 -0.005602 0.000000 0.000000 0.000000
# 3 -0.013665 -0.005602 0.021242 0.000000 0.000000 0.000000
# 4 0.000000 0.000000 0.000000 0.051668 0.000000 0.000000
# 5 0.000000 0.000000 0.000000 0.000000 0.078591 0.000000
# 6 0.000000 0.000000 0.000000 0.000000 0.000000 0.068145
#
#
# Mechanical properties :
#
#
# Convention : Reuss Voigt Hill
#
# Bulk Modulus (GPa) = 43.51783 46.74818 45.13300
# Shear Modulus (GPa) = 14.36295 15.24643 14.80469
#
# Velocity S-wave (km/s) = 3.45635 3.56106 3.50910
# Velocity P-wave (km/s) = 7.21972 7.46933 7.34558
#
# Compressibility (1/GPa) = 0.02297909
#
# Stress axis : x y z
#
# Youngs Moduli (GPa) = 26.56226 42.32299 47.07739
#
# Poissons Ratio (x) = 0.44447 0.64330
# Poissons Ratio (y) = 0.27895 0.26375
# Poissons Ratio (z) = 0.36296 0.23711
#
# Static dielectric constant tensor:
#      x y z
#    x 1.392290 0.000000 0.000000 
#    y 0.000000 1.402250 0.000000 
#    z 0.000000 0.000000 1.394020 
# 
# From -- ./inp_files/49462.got.cif
#   From: 2010.05.17/outbox.cif.g08.bks.cpg/sg74_25_cif.got.tgz:49462.got - 2010.06.03 17:57:02.
