data_PCOD9534008
_publ_section_title
;
Structure prediction by ZEFSAII (Michael W. Deem and Ramdas Pophale) SiO2 
 PCOD9534008
Probable space group: I M M A
;
_chemical_formula_sum "Si O2"
_cell_formula_units_Z 72
_cell_length_a 17.409819
_cell_length_b 11.857250
_cell_length_c 14.421553
_cell_angle_alpha 90.000000
_cell_angle_beta 90.000000
_cell_angle_gamma 90.000000
_cell_volume 2977.078341
_symmetry_space_group_name_H-M "I M M A"
_symmetry_group_IT_number 74
_symmetry_cell_setting 'orthorhombic'
loop_
_space_group_symop_operation_xyz
x,y,z
-x,1/2-y,z
x,-y,-z
-x,1/2+y,-z
-x,-y,-z
x,1/2+y,-z
-x,y,z
x,1/2-y,z
1/2+x,1/2+y,1/2+z
1/2-x,-y,1/2+z
1/2+x,1/2-y,1/2-z
1/2-x,y,1/2-z
1/2-x,1/2-y,1/2-z
1/2+x,y,1/2-z
1/2-x,1/2+y,1/2+z
1/2+x,-y,1/2+z
loop_
_atom_site_type_symbol
_atom_site_label
_atom_site_fract_x
_atom_site_fract_y
_atom_site_fract_z
Si Si1 0.663169 0.750000 0.862885
Si Si2 0.376641 0.506748 0.640891
Si Si3 0.910431 0.484819 0.360086
Si Si4 0.000000 0.376236 0.951826
Si Si5 0.232690 0.874797 0.361538
Si Si6 0.344438 0.750000 0.635776
O O1 0.621081 0.635890 0.894430
O O2 0.656614 0.750000 0.749142
O O3 0.753650 0.750000 0.886520
O O4 0.397525 0.518660 0.748641
O O5 0.424850 0.398789 0.609903
O O6 0.290618 0.474256 0.613195
O O7 0.385876 0.634727 0.603608
O O8 0.852455 0.584771 0.386678
O O9 0.000000 0.500727 0.381178
O O10 0.000000 0.250000 0.987081
O O11 0.000000 0.500000 0.000000
O O12 0.248411 0.750000 0.398132
O O13 0.250000 0.869395 0.250000
#
# Coordination Sequence:
#
# PCOD9534008 Si02
#       6
#     8  16  16   8  16   8
#     4   9  15  26  41  74 104 131 174 210 240 297
#     4  10  19  35  53  68  97 136 177 216 265 309
#     4  10  17  27  44  74 103 139 171 208 251 306
#     4  12  28  44  58  78 102 132 182 238 277 316
#     4   9  17  28  44  66  95 132 172 208 251 311
#     4   9  16  27  54  71  93 134 179 212 247 308
#
# _framework density 24.184785000000002
#
# number of rings (size 3 to 8) (size 9 to 14) (size 15 to 20)
#    0.000    2.222    3.333    1.000    1.556    1.333 
#    0.000    0.000    0.000    0.000    0.000    0.000 
#    0.000    0.889    0.000    2.000    0.000    0.444 
#
# Total GULP energy -200810.456863 kJ/mol
# GULP energy per Si atom -5578.068246 kJ/mol
# Density = 2.412974 g / cm^3
# Si number density = 24.184785 Si / 1000 Ang^3
#
#
#
# Elastic Constant Matrix: (Units=GPa)
#
#
# Indices 1 2 3 4 5 6 
#
# 1 139.5984 56.2738 0.3202 0.0000 0.0000 0.0000
# 2 56.2738 205.4393 23.7624 0.0000 0.0000 0.0000
# 3 0.3202 23.7624 68.3893 0.0000 0.0000 0.0000
# 4 0.0000 0.0000 0.0000 9.8225 0.0000 0.0000
# 5 0.0000 0.0000 0.0000 0.0000 52.5890 0.0000
# 6 0.0000 0.0000 0.0000 0.0000 0.0000 155.0496
#
#
#
# Elastic Compliance Matrix: (Units=1/GPa)
#
#
# Indices 1 2 3 4 5 6 
#
# 1 0.008091 -0.002304 0.000763 0.000000 0.000000 0.000000
# 2 -0.002304 0.005728 -0.001979 0.000000 0.000000 0.000000
# 3 0.000763 -0.001979 0.015306 0.000000 0.000000 0.000000
# 4 0.000000 0.000000 0.000000 0.101807 0.000000 0.000000
# 5 0.000000 0.000000 0.000000 0.000000 0.019015 0.000000
# 6 0.000000 0.000000 0.000000 0.000000 0.000000 0.006450
#
#
# Mechanical properties :
#
#
# Convention : Reuss Voigt Hill
#
# Bulk Modulus (GPa) = 45.28415 63.79331 54.53873
# Shear Modulus (GPa) = 29.27406 65.69694 47.48550
#
# Velocity S-wave (km/s) = 3.48290 5.21762 4.43588
# Velocity P-wave (km/s) = 5.91092 7.92040 6.98827
#
# Compressibility (1/GPa) = 0.02208278
#
# Stress axis : x y z
#
# Youngs Moduli (GPa) = 123.60036 174.58758 65.33238
#
# Poissons Ratio (x) = 0.40232 -0.04984
# Poissons Ratio (y) = 0.28482 0.12932
# Poissons Ratio (z) = -0.09428 0.34557
#
# Static dielectric constant tensor:
#      x y z
#    x 2.192850 0.000000 0.000000 
#    y 0.000000 1.950180 0.000000 
#    z 0.000000 0.000000 2.090700 
# 
# From -- ./inp_files/41012.got.cif
#   From: 2010.05.17/outbox.cif.g08.bks.cpg/sg74_21_cif.got.tgz:41012.got - 2010.06.03 17:57:02.
