data_PCOD9534809
_publ_section_title
;
Structure prediction by ZEFSAII (Michael W. Deem and Ramdas Pophale) SiO2 
 PCOD9534809
Probable space group: I M M A
;
_chemical_formula_sum "Si O2"
_cell_formula_units_Z 72
_cell_length_a 26.224265
_cell_length_b 15.639587
_cell_length_c 7.908223
_cell_angle_alpha 90.000000
_cell_angle_beta 90.000000
_cell_angle_gamma 90.000000
_cell_volume 3243.452278
_symmetry_space_group_name_H-M "I M M A"
_symmetry_group_IT_number 74
_symmetry_cell_setting 'orthorhombic'
loop_
_space_group_symop_operation_xyz
x,y,z
-x,1/2-y,z
x,-y,-z
-x,1/2+y,-z
-x,-y,-z
x,1/2+y,-z
-x,y,z
x,1/2-y,z
1/2+x,1/2+y,1/2+z
1/2-x,-y,1/2+z
1/2+x,1/2-y,1/2-z
1/2-x,y,1/2-z
1/2-x,1/2-y,1/2-z
1/2+x,y,1/2-z
1/2-x,1/2+y,1/2+z
1/2+x,-y,1/2+z
loop_
_atom_site_type_symbol
_atom_site_label
_atom_site_fract_x
_atom_site_fract_y
_atom_site_fract_z
Si Si1 0.716788 0.351140 0.084893
Si Si2 0.891348 0.653843 0.748895
Si Si3 0.250000 0.618236 0.250000
Si Si4 0.865005 0.343245 0.852446
Si Si5 0.056259 0.015063 0.796409
O O1 0.726738 0.250000 0.037429
O O2 0.750000 0.368736 0.250000
O O3 0.657898 0.356786 0.131667
O O4 0.733206 0.412506 0.933935
O O5 0.911991 0.750000 0.728710
O O6 0.929945 0.576864 0.720012
O O7 0.870941 0.647552 0.943840
O O8 0.194259 0.655784 0.197160
O O9 0.886038 0.250000 0.806181
O O10 0.898380 0.417660 0.768797
O O11 0.000000 0.044885 0.744512
O O12 0.054781 0.000000 0.000000
#
# Coordination Sequence:
#
# PCOD9534809 Si02
#       5
#    16  16   8  16  16
#     4  10  18  31  54  84 119 157 193 235 288 353
#     4   9  18  34  55  82 117 154 195 244 299 354
#     4  12  21  34  58  88 125 162 195 238 296 362
#     4  10  19  33  55  84 117 156 197 240 298 359
#     4   9  19  36  56  83 116 151 202 256 299 354
#
# _framework density 22.198568999999999
#
# number of rings (size 3 to 8) (size 9 to 14) (size 15 to 20)
#    0.000    2.222    2.222    2.000    0.000    0.889 
#    2.000    5.556    0.000    2.667    0.000    3.111 
#    0.000    0.000    0.000    0.000    0.000    0.000 
#
# Total GULP energy -200635.484450 kJ/mol
# GULP energy per Si atom -5573.207901 kJ/mol
# Density = 2.214804 g / cm^3
# Si number density = 22.198569 Si / 1000 Ang^3
#
#
#
# Elastic Constant Matrix: (Units=GPa)
#
#
# Indices 1 2 3 4 5 6 
#
# 1 120.8501 65.0835 9.3336 0.0000 0.0000 0.0000
# 2 65.0835 117.0120 29.0801 0.0000 0.0000 0.0000
# 3 9.3336 29.0801 60.2946 0.0000 0.0000 0.0000
# 4 0.0000 0.0000 0.0000 -10.4118 0.0000 0.0000
# 5 0.0000 0.0000 0.0000 0.0000 13.1623 0.0000
# 6 0.0000 0.0000 0.0000 0.0000 0.0000 8.5153
#
#
#
# Elastic Compliance Matrix: (Units=1/GPa)
#
#
# Indices 1 2 3 4 5 6 
#
# 1 0.011938 -0.007022 0.001539 0.000000 0.000000 0.000000
# 2 -0.007022 0.013841 -0.005588 0.000000 0.000000 0.000000
# 3 0.001539 -0.005588 0.019042 0.000000 0.000000 0.000000
# 4 0.000000 0.000000 0.000000 -0.096045 0.000000 0.000000
# 5 0.000000 0.000000 0.000000 0.000000 0.075974 0.000000
# 6 0.000000 0.000000 0.000000 0.000000 0.000000 0.117436
#
#
# Mechanical properties :
#
#
# Convention : Reuss Voigt Hill
#
# Bulk Modulus (GPa) = 44.09704 56.12790 50.11247
# Shear Modulus (GPa) = 29.08843 15.23045 22.15944
#
# Velocity S-wave (km/s) = 3.62384 2.62219 3.16292
# Velocity P-wave (km/s) = 6.11699 5.87428 5.99686
#
# Compressibility (1/GPa) = 0.02267726
#
# Stress axis : x y z
#
# Youngs Moduli (GPa) = 83.76789 72.24953 52.51460
#
# Poissons Ratio (x) = 0.50736 -0.08082
# Poissons Ratio (y) = 0.58825 0.29347
# Poissons Ratio (z) = -0.12891 0.40376
#
# Static dielectric constant tensor:
#      x y z
#    x 1.737420 0.000000 0.000000 
#    y 0.000000 1.851800 0.000000 
#    z 0.000000 0.000000 1.878830 
# 
# From -- ./inp_files/14737.got.cif
#   From: 2010.05.17/outbox.cif.g08.bks.cpg/sg74_8_cif.got.tgz:14737.got - 2010.06.03 17:57:02.
