data_PCOD9534076
_publ_section_title
;
Structure prediction by ZEFSAII (Michael W. Deem and Ramdas Pophale) SiO2 
 PCOD9534076
Probable space group: I M M A
;
_chemical_formula_sum "Si O2"
_cell_formula_units_Z 120
_cell_length_a 17.182737
_cell_length_b 17.308532
_cell_length_c 18.499191
_cell_angle_alpha 90.000000
_cell_angle_beta 90.000000
_cell_angle_gamma 90.000000
_cell_volume 5501.806531
_symmetry_space_group_name_H-M "I M M A"
_symmetry_group_IT_number 74
_symmetry_cell_setting 'orthorhombic'
loop_
_space_group_symop_operation_xyz
x,y,z
-x,1/2-y,z
x,-y,-z
-x,1/2+y,-z
-x,-y,-z
x,1/2+y,-z
-x,y,z
x,1/2-y,z
1/2+x,1/2+y,1/2+z
1/2-x,-y,1/2+z
1/2+x,1/2-y,1/2-z
1/2-x,y,1/2-z
1/2-x,1/2-y,1/2-z
1/2+x,y,1/2-z
1/2-x,1/2+y,1/2+z
1/2+x,-y,1/2+z
loop_
_atom_site_type_symbol
_atom_site_label
_atom_site_fract_x
_atom_site_fract_y
_atom_site_fract_z
Si Si1 0.912645 0.056693 0.249455
Si Si2 0.870092 0.836503 0.881433
Si Si3 0.250000 0.634594 0.250000
Si Si4 0.303489 0.892571 0.878702
Si Si5 0.912666 0.879766 0.197380
Si Si6 0.086650 0.094902 0.504517
Si Si7 0.220138 0.068429 0.596469
Si Si8 0.879184 0.912544 0.029186
O O1 0.904088 0.101769 0.174344
O O2 0.847548 0.090059 0.303496
O O3 0.000000 0.068111 0.279976
O O4 0.904351 0.965858 0.232139
O O5 0.892939 0.750000 0.861805
O O6 0.775636 0.844492 0.875516
O O7 0.897841 0.857205 0.962322
O O8 0.163059 0.666297 0.227914
O O9 0.236629 0.586679 0.321749
O O10 0.278734 0.976613 0.908377
O O11 0.368739 0.868550 0.936523
O O12 0.910710 0.892982 0.109555
O O13 0.000000 0.850883 0.215029
O O14 0.139555 0.106317 0.574154
O O15 0.000000 0.123549 0.510562
O O16 0.083672 0.000000 0.500000
O O17 0.287169 0.097293 0.543909
O O18 0.895420 0.000000 0.000000
#
# Coordination Sequence:
#
# PCOD9534076 Si02
#       8
#    16  16   8  16  16  16  16  16
#     4  11  23  36  54  82 121 158 199 247 291 348
#     4  12  25  39  58  83 112 157 212 248 287 352
#     4  10  18  30  50  80 126 150 178 240 296 350
#     4  11  19  34  55  80 115 151 197 240 289 347
#     4  10  21  33  55  89 118 154 196 242 301 358
#     4   9  17  28  47  79 114 146 187 241 300 349
#     4  10  17  29  53  82 109 152 187 235 296 348
#     4  11  18  35  58  79 110 147 191 247 300 345
#
# _framework density 21.811018000000001
#
# number of rings (size 3 to 8) (size 9 to 14) (size 15 to 20)
#    0.000    1.467    5.333    2.000    0.000    3.200 
#    0.000    0.000    0.000    1.200    0.000    7.467 
#    0.000    0.000    0.000    0.000    0.000    0.000 
#
# Total GULP energy -334587.499128 kJ/mol
# GULP energy per Si atom -5576.458319 kJ/mol
# Density = 2.176138 g / cm^3
# Si number density = 21.811018 Si / 1000 Ang^3
#
#
#
# Elastic Constant Matrix: (Units=GPa)
#
#
# Indices 1 2 3 4 5 6 
#
# 1 135.0422 15.3497 21.2713 0.0000 0.0000 0.0000
# 2 15.3497 50.1424 -2.8019 0.0000 0.0000 0.0000
# 3 21.2713 -2.8019 88.4140 0.0000 0.0000 0.0000
# 4 0.0000 0.0000 0.0000 -5.6195 0.0000 0.0000
# 5 0.0000 0.0000 0.0000 0.0000 20.3768 0.0000
# 6 0.0000 0.0000 0.0000 0.0000 0.0000 -10.5923
#
#
#
# Elastic Compliance Matrix: (Units=1/GPa)
#
#
# Indices 1 2 3 4 5 6 
#
# 1 0.008013 -0.002565 -0.002009 0.000000 0.000000 0.000000
# 2 -0.002565 0.020800 0.001276 0.000000 0.000000 0.000000
# 3 -0.002009 0.001276 0.011834 0.000000 0.000000 0.000000
# 4 0.000000 0.000000 0.000000 -0.177953 0.000000 0.000000
# 5 0.000000 0.000000 0.000000 0.000000 0.049075 0.000000
# 6 0.000000 0.000000 0.000000 0.000000 0.000000 -0.094409
#
#
# Mechanical properties :
#
#
# Convention : Reuss Voigt Hill
#
# Bulk Modulus (GPa) = 29.36769 37.91517 33.64143
# Shear Modulus (GPa) = -30.35963 16.81833 -6.77065
#
# Velocity S-wave (km/s) = -3.73492 2.77987 -1.76379
# Velocity P-wave (km/s) = 2.25957 5.26543 3.36297
#
# Compressibility (1/GPa) = 0.03405103
#
# Stress axis : x y z
#
# Youngs Moduli (GPa) = 124.79489 48.07740 84.50046
#
# Poissons Ratio (x) = 0.12333 0.16977
# Poissons Ratio (y) = 0.32013 -0.10785
# Poissons Ratio (z) = 0.25073 -0.06136
#
# Static dielectric constant tensor:
#      x y z
#    x 1.901440 0.000000 0.000000 
#    y 0.000000 1.746270 0.000000 
#    z 0.000000 0.000000 1.788890 
# 
# From -- ./inp_files/44478.got.cif
#   From: 2010.05.17/outbox.cif.g08.bks.cpg/sg74_23_cif.got.tgz:44478.got - 2010.06.03 17:57:02.
