data_PCOD9534623
_publ_section_title
;
Structure prediction by ZEFSAII (Michael W. Deem and Ramdas Pophale) SiO2 
 PCOD9534623
Probable space group: I M M A
;
_chemical_formula_sum "Si O2"
_cell_formula_units_Z 80
_cell_length_a 16.053405
_cell_length_b 8.331106
_cell_length_c 30.125212
_cell_angle_alpha 90.000000
_cell_angle_beta 90.000000
_cell_angle_gamma 90.000000
_cell_volume 4029.024742
_symmetry_space_group_name_H-M "I M M A"
_symmetry_group_IT_number 74
_symmetry_cell_setting 'orthorhombic'
loop_
_space_group_symop_operation_xyz
x,y,z
-x,1/2-y,z
x,-y,-z
-x,1/2+y,-z
-x,-y,-z
x,1/2+y,-z
-x,y,z
x,1/2-y,z
1/2+x,1/2+y,1/2+z
1/2-x,-y,1/2+z
1/2+x,1/2-y,1/2-z
1/2-x,y,1/2-z
1/2-x,1/2-y,1/2-z
1/2+x,y,1/2-z
1/2-x,1/2+y,1/2+z
1/2+x,-y,1/2+z
loop_
_atom_site_type_symbol
_atom_site_label
_atom_site_fract_x
_atom_site_fract_y
_atom_site_fract_z
Si Si1 0.091740 0.553927 0.642543
Si Si2 0.155131 0.558161 0.047284
Si Si3 0.250528 0.943954 0.699143
Si Si4 0.653606 0.441820 0.047209
Si Si5 0.592240 0.944112 0.357303
O O1 0.093054 0.750000 0.642982
O O2 0.168634 0.498889 0.672622
O O3 0.106891 0.503648 0.591564
O O4 0.000000 0.502837 0.657710
O O5 0.155297 0.750000 0.046628
O O6 0.250684 0.499394 0.050451
O O7 0.108585 0.503786 0.091752
O O8 0.120737 0.500000 0.000000
O O9 0.248076 0.750000 0.699388
O O10 0.250000 0.999971 0.750000
O O11 0.333430 0.995061 0.673373
O O12 0.653611 0.250000 0.046753
O O13 0.619276 0.500000 0.000000
O O14 0.500000 0.996683 0.343012
O O15 0.594215 0.750000 0.356897
#
# Coordination Sequence:
#
# PCOD9534623 Si02
#       5
#    16  16  16  16  16
#     4   9  18  33  53  78 110 144 177 219 275 330
#     4  10  19  32  53  79 110 147 186 226 272 323
#     4  10  21  38  61  86 110 141 184 234 283 331
#     4  10  18  30  51  76 106 144 182 220 269 323
#     4  10  22  39  58  82 115 152 187 226 278 336
#
# _framework density 19.855920999999999
#
# number of rings (size 3 to 8) (size 9 to 14) (size 15 to 20)
#    0.000    2.200    2.000    2.400    0.000    3.200 
#    0.000    2.000    0.000    4.800    0.000    0.000 
#    0.000    0.000    0.000    0.000    0.000    0.000 
#
# Total GULP energy -223288.802162 kJ/mol
# GULP energy per Si atom -5582.220054 kJ/mol
# Density = 1.981073 g / cm^3
# Si number density = 19.855921 Si / 1000 Ang^3
#
#
#
# Elastic Constant Matrix: (Units=GPa)
#
#
# Indices 1 2 3 4 5 6 
#
# 1 162.5996 10.8783 98.4289 0.0000 0.0000 0.0000
# 2 10.8783 18.2870 20.7199 0.0000 0.0000 0.0000
# 3 98.4289 20.7199 169.3442 0.0000 0.0000 0.0000
# 4 0.0000 0.0000 0.0000 12.0132 0.0000 0.0000
# 5 0.0000 0.0000 0.0000 0.0000 0.2133 0.0000
# 6 0.0000 0.0000 0.0000 0.0000 0.0000 10.5351
#
#
#
# Elastic Compliance Matrix: (Units=1/GPa)
#
#
# Indices 1 2 3 4 5 6 
#
# 1 0.009496 0.000702 -0.005606 0.000000 0.000000 0.000000
# 2 0.000702 0.063537 -0.008182 0.000000 0.000000 0.000000
# 3 -0.005606 -0.008182 0.010164 0.000000 0.000000 0.000000
# 4 0.000000 0.000000 0.000000 0.083242 0.000000 0.000000
# 5 0.000000 0.000000 0.000000 0.000000 4.688619 0.000000
# 6 0.000000 0.000000 0.000000 0.000000 0.000000 0.094921
#
#
# Mechanical properties :
#
#
# Convention : Reuss Voigt Hill
#
# Bulk Modulus (GPa) = 17.53571 67.80944 42.67258
# Shear Modulus (GPa) = 1.00097 19.23257 10.11677
#
# Velocity S-wave (km/s) = 0.71078 3.11562 2.25968
# Velocity P-wave (km/s) = 3.08614 6.86787 5.32409
#
# Compressibility (1/GPa) = 0.05702648
#
# Stress axis : x y z
#
# Youngs Moduli (GPa) = 105.30307 15.73898 98.38246
#
# Poissons Ratio (x) = -0.01105 0.55149
# Poissons Ratio (y) = -0.07395 0.80498
# Poissons Ratio (z) = 0.59028 0.12878
#
# Static dielectric constant tensor:
#      x y z
#    x 1.692690 0.000000 0.000000 
#    y 0.000000 1.693910 0.000000 
#    z 0.000000 0.000000 1.702230 
# 
# From -- ./inp_files/72857.got.cif
#   From: 2010.05.17/outbox.cif.g08.bks.cpg/sg74_37_cif.got.tgz:72857.got - 2010.06.03 17:57:02.
