data_PCOD9534851
_publ_section_title
;
Structure prediction by ZEFSAII (Michael W. Deem and Ramdas Pophale) SiO2 
 PCOD9534851
Probable space group: I M M A
;
_chemical_formula_sum "Si O2"
_cell_formula_units_Z 112
_cell_length_a 17.832930
_cell_length_b 24.677025
_cell_length_c 15.019004
_cell_angle_alpha 90.000000
_cell_angle_beta 90.000000
_cell_angle_gamma 90.000000
_cell_volume 6609.317861
_symmetry_space_group_name_H-M "I M M A"
_symmetry_group_IT_number 74
_symmetry_cell_setting 'orthorhombic'
loop_
_space_group_symop_operation_xyz
x,y,z
-x,1/2-y,z
x,-y,-z
-x,1/2+y,-z
-x,-y,-z
x,1/2+y,-z
-x,y,z
x,1/2-y,z
1/2+x,1/2+y,1/2+z
1/2-x,-y,1/2+z
1/2+x,1/2-y,1/2-z
1/2-x,y,1/2-z
1/2-x,1/2-y,1/2-z
1/2+x,y,1/2-z
1/2-x,1/2+y,1/2+z
1/2+x,-y,1/2+z
loop_
_atom_site_type_symbol
_atom_site_label
_atom_site_fract_x
_atom_site_fract_y
_atom_site_fract_z
Si Si1 0.239873 0.187259 0.982434
Si Si2 0.417166 0.188226 0.431016
Si Si3 0.913924 0.442268 0.549838
Si Si4 0.287309 0.477717 0.348514
Si Si5 0.327489 0.886525 0.899477
Si Si6 0.270213 0.411548 0.852422
Si Si7 0.086661 0.404471 0.215870
O O1 0.256016 0.250000 0.961291
O O2 0.151762 0.181276 0.002683
O O3 0.284777 0.167710 0.070777
O O4 0.260943 0.143389 0.907794
O O5 0.500000 0.181429 0.472144
O O6 0.412337 0.250000 0.396868
O O7 0.411006 0.145886 0.351305
O O8 0.905869 0.500000 0.500000
O O9 0.889301 0.399823 0.474028
O O10 0.854189 0.434409 0.628935
O O11 0.000000 0.436288 0.577651
O O12 0.250000 0.481594 0.250000
O O13 0.235452 0.434280 0.399923
O O14 0.281674 0.538342 0.386033
O O15 0.369204 0.453330 0.332277
O O16 0.367065 0.888773 0.804175
O O17 0.250000 0.401562 0.750000
O O18 0.000000 0.417384 0.236837
#
# Coordination Sequence:
#
# PCOD9534851 Si02
#       7
#    16  16  16  16  16  16  16
#     4  10  21  35  55  77 100 141 192 237 276 324
#     4   9  18  33  50  72 105 144 184 223 263 314
#     4  10  19  32  54  82 109 139 177 220 269 333
#     4   9  17  31  49  74 105 141 168 209 264 323
#     4  10  18  32  51  77 111 139 175 221 271 329
#     4  10  21  38  56  78 107 141 179 231 279 326
#     4  10  19  31  50  78 114 149 178 213 268 335
#
# _framework density 16.945772999999999
#
# number of rings (size 3 to 8) (size 9 to 14) (size 15 to 20)
#    0.000    2.286    2.857    0.429    0.000    0.857 
#    0.000    2.857    0.000   12.000    0.000    0.000 
#    0.000    0.000    0.000    0.000    0.000    0.000 
#
# Total GULP energy -311980.838680 kJ/mol
# GULP energy per Si atom -5571.086405 kJ/mol
# Density = 1.690720 g / cm^3
# Si number density = 16.945773 Si / 1000 Ang^3
#
#
#
# Elastic Constant Matrix: (Units=GPa)
#
#
# Indices 1 2 3 4 5 6 
#
# 1 126.2795 56.2176 40.6359 0.0000 0.0000 0.0000
# 2 56.2176 111.6028 30.4232 0.0000 0.0000 0.0000
# 3 40.6359 30.4232 54.1494 0.0000 0.0000 0.0000
# 4 0.0000 0.0000 0.0000 21.1161 0.0000 0.0000
# 5 0.0000 0.0000 0.0000 0.0000 21.8588 0.0000
# 6 0.0000 0.0000 0.0000 0.0000 0.0000 22.9161
#
#
#
# Elastic Compliance Matrix: (Units=1/GPa)
#
#
# Indices 1 2 3 4 5 6 
#
# 1 0.011906 -0.004206 -0.006572 0.000000 0.000000 0.000000
# 2 -0.004206 0.012067 -0.003623 0.000000 0.000000 0.000000
# 3 -0.006572 -0.003623 0.025435 0.000000 0.000000 0.000000
# 4 0.000000 0.000000 0.000000 0.047357 0.000000 0.000000
# 5 0.000000 0.000000 0.000000 0.000000 0.045748 0.000000
# 6 0.000000 0.000000 0.000000 0.000000 0.000000 0.043637
#
#
# Mechanical properties :
#
#
# Convention : Reuss Voigt Hill
#
# Bulk Modulus (GPa) = 48.53014 60.73167 54.63091
# Shear Modulus (GPa) = 22.54070 24.16186 23.35128
#
# Velocity S-wave (km/s) = 3.65110 3.78012 3.71617
# Velocity P-wave (km/s) = 6.81724 7.41411 7.12193
#
# Compressibility (1/GPa) = 0.02060575
#
# Stress axis : x y z
#
# Youngs Moduli (GPa) = 83.99038 82.87247 39.31621
#
# Poissons Ratio (x) = 0.34856 0.25838
# Poissons Ratio (y) = 0.35326 0.14245
# Poissons Ratio (z) = 0.55196 0.30027
#
# Static dielectric constant tensor:
#      x y z
#    x 1.592520 0.000000 0.000000 
#    y 0.000000 1.592320 0.000000 
#    z 0.000000 0.000000 1.582260 
# 
# From -- ./inp_files/44380.got.cif
#   From: 2010.05.17/outbox.cif.g08.bks.cpg/sg74_23_cif.got.tgz:44380.got - 2010.06.03 17:57:02.
