data_PCOD9534561
_publ_section_title
;
Structure prediction by ZEFSAII (Michael W. Deem and Ramdas Pophale) SiO2 
 PCOD9534561
Probable space group: I M M A
;
_chemical_formula_sum "Si O2"
_cell_formula_units_Z 104
_cell_length_a 25.033942
_cell_length_b 8.788640
_cell_length_c 25.563125
_cell_angle_alpha 90.000000
_cell_angle_beta 90.000000
_cell_angle_gamma 90.000000
_cell_volume 5624.253155
_symmetry_space_group_name_H-M "I M M A"
_symmetry_group_IT_number 74
_symmetry_cell_setting 'orthorhombic'
loop_
_space_group_symop_operation_xyz
x,y,z
-x,1/2-y,z
x,-y,-z
-x,1/2+y,-z
-x,-y,-z
x,1/2+y,-z
-x,y,z
x,1/2-y,z
1/2+x,1/2+y,1/2+z
1/2-x,-y,1/2+z
1/2+x,1/2-y,1/2-z
1/2-x,y,1/2-z
1/2-x,1/2-y,1/2-z
1/2+x,y,1/2-z
1/2-x,1/2+y,1/2+z
1/2+x,-y,1/2+z
loop_
_atom_site_type_symbol
_atom_site_label
_atom_site_fract_x
_atom_site_fract_y
_atom_site_fract_z
Si Si1 0.439073 0.934653 0.230166
Si Si2 0.661331 0.071430 0.841083
Si Si3 0.103951 0.576312 0.445146
Si Si4 0.887062 0.932952 0.832601
Si Si5 0.562617 0.933172 0.556144
Si Si6 0.271878 0.072980 0.690809
Si Si7 0.500000 0.428946 0.058551
O O1 0.500000 0.982123 0.215446
O O2 0.438674 0.750000 0.229041
O O3 0.389263 0.986092 0.192967
O O4 0.424831 0.993308 0.288188
O O5 0.666770 0.250000 0.824884
O O6 0.648637 0.070130 0.902082
O O7 0.719733 0.000736 0.836059
O O8 0.117331 0.500000 0.500000
O O9 0.088369 0.750000 0.455569
O O10 0.053818 0.493540 0.418414
O O11 0.890944 0.750000 0.829101
O O12 0.905065 0.978620 0.891488
O O13 0.826904 0.986387 0.819068
O O14 0.500000 0.976145 0.563081
O O15 0.565223 0.750000 0.552691
O O16 0.580589 0.000000 0.500000
O O17 0.281021 0.250000 0.675274
O O18 0.250000 0.074084 0.750000
O O19 0.500000 0.250000 0.056916
O O20 0.500000 0.500000 0.000000
#
# Coordination Sequence:
#
# PCOD9534561 Si02
#       7
#    16  16  16  16  16  16   8
#     4  10  20  35  57  83 109 142 186 226 267 328
#     4   9  19  35  56  80 103 137 180 227 273 313
#     4  10  19  33  53  74 101 135 174 217 268 318
#     4  11  22  36  56  84 119 149 179 226 288 338
#     4   9  19  36  57  82 115 153 188 226 274 331
#     4  10  19  37  61  79 104 143 192 235 267 318
#     4  10  18  30  48  72 100 132 172 210 255 308
#
# _framework density 18.491344999999999
#
# number of rings (size 3 to 8) (size 9 to 14) (size 15 to 20)
#    0.000    2.154    1.538    3.000    1.077    2.462 
#    0.000    5.385    0.000    3.692    0.000    0.000 
#    0.000    0.000    0.000    0.000    0.000    0.000 
#
# Total GULP energy -289627.108339 kJ/mol
# GULP energy per Si atom -5569.752083 kJ/mol
# Density = 1.844926 g / cm^3
# Si number density = 18.491345 Si / 1000 Ang^3
#
#
#
# Elastic Constant Matrix: (Units=GPa)
#
#
# Indices 1 2 3 4 5 6 
#
# 1 100.3539 15.5758 30.1625 0.0000 0.0000 0.0000
# 2 15.5758 45.2695 13.8385 0.0000 0.0000 0.0000
# 3 30.1625 13.8385 86.0717 0.0000 0.0000 0.0000
# 4 0.0000 0.0000 0.0000 19.9958 0.0000 0.0000
# 5 0.0000 0.0000 0.0000 0.0000 28.5765 0.0000
# 6 0.0000 0.0000 0.0000 0.0000 0.0000 13.5293
#
#
#
# Elastic Compliance Matrix: (Units=1/GPa)
#
#
# Indices 1 2 3 4 5 6 
#
# 1 0.011480 -0.002861 -0.003563 0.000000 0.000000 0.000000
# 2 -0.002861 0.023945 -0.002847 0.000000 0.000000 0.000000
# 3 -0.003563 -0.002847 0.013325 0.000000 0.000000 0.000000
# 4 0.000000 0.000000 0.000000 0.050010 0.000000 0.000000
# 5 0.000000 0.000000 0.000000 0.000000 0.034994 0.000000
# 6 0.000000 0.000000 0.000000 0.000000 0.000000 0.073914
#
#
# Mechanical properties :
#
#
# Convention : Reuss Voigt Hill
#
# Bulk Modulus (GPa) = 33.10487 38.98319 36.04403
# Shear Modulus (GPa) = 21.16157 23.89488 22.52822
#
# Velocity S-wave (km/s) = 3.38657 3.59865 3.49422
# Velocity P-wave (km/s) = 5.76486 6.19634 5.98449
#
# Compressibility (1/GPa) = 0.03020704
#
# Stress axis : x y z
#
# Youngs Moduli (GPa) = 87.11099 41.76307 75.04923
#
# Poissons Ratio (x) = 0.11947 0.26739
# Poissons Ratio (y) = 0.24919 0.21369
# Poissons Ratio (z) = 0.31037 0.11891
#
# Static dielectric constant tensor:
#      x y z
#    x 1.717470 0.000000 0.000000 
#    y 0.000000 1.640380 0.000000 
#    z 0.000000 0.000000 1.641640 
# 
# From -- ./inp_files/68644.got.cif
#   From: 2010.05.17/outbox.cif.g08.bks.cpg/sg74_35_cif.got.tgz:68644.got - 2010.06.03 17:57:02.
