data_PCOD9534103
_publ_section_title
;
Structure prediction by ZEFSAII (Michael W. Deem and Ramdas Pophale) SiO2 
 PCOD9534103
Probable space group: I M M A
;
_chemical_formula_sum "Si O2"
_cell_formula_units_Z 84
_cell_length_a 16.543670
_cell_length_b 10.911652
_cell_length_c 24.472539
_cell_angle_alpha 90.000000
_cell_angle_beta 90.000000
_cell_angle_gamma 90.000000
_cell_volume 4417.752635
_symmetry_space_group_name_H-M "I M M A"
_symmetry_group_IT_number 74
_symmetry_cell_setting 'orthorhombic'
loop_
_space_group_symop_operation_xyz
x,y,z
-x,1/2-y,z
x,-y,-z
-x,1/2+y,-z
-x,-y,-z
x,1/2+y,-z
-x,y,z
x,1/2-y,z
1/2+x,1/2+y,1/2+z
1/2-x,-y,1/2+z
1/2+x,1/2-y,1/2-z
1/2-x,y,1/2-z
1/2-x,1/2-y,1/2-z
1/2+x,y,1/2-z
1/2-x,1/2+y,1/2+z
1/2+x,-y,1/2+z
loop_
_atom_site_type_symbol
_atom_site_label
_atom_site_fract_x
_atom_site_fract_y
_atom_site_fract_z
Si Si1 0.299402 0.106065 0.852579
Si Si2 0.594949 0.617343 0.530785
Si Si3 0.590960 0.896442 0.247234
Si Si4 0.500000 0.750000 0.399483
Si Si5 0.902833 0.111353 0.539097
Si Si6 0.619431 0.528623 0.367805
O O1 0.281440 0.250000 0.844638
O O2 0.342558 0.064831 0.796682
O O3 0.361818 0.095082 0.902197
O O4 0.215569 0.044336 0.867701
O O5 0.631407 0.500000 0.500000
O O6 0.500000 0.624513 0.514188
O O7 0.631020 0.750000 0.518000
O O8 0.598200 0.587162 0.594844
O O9 0.500000 0.908340 0.224482
O O10 0.601670 0.750000 0.259649
O O11 0.595785 0.967612 0.304173
O O12 0.570502 0.642150 0.394362
O O13 0.882273 0.250000 0.519408
O O14 0.000000 0.106267 0.544444
O O15 0.877430 0.000000 0.500000
#
# Coordination Sequence:
#
# PCOD9534103 Si02
#       6
#    16  16  16   4  16  16
#     4  10  20  30  50  82 113 142 182 230 273 323
#     4  10  23  38  58  80 105 141 186 229 272 323
#     4  10  17  30  51  80 112 145 183 230 280 327
#     4  12  20  32  54  84 108 160 176 228 274 346
#     4   9  18  35  56  79 107 140 175 219 273 329
#     4  12  20  34  53  79 115 144 186 223 282 325
#
# _framework density 19.014194
#
# number of rings (size 3 to 8) (size 9 to 14) (size 15 to 20)
#    0.000    1.714    3.810    1.143    1.333    4.571 
#    0.000    2.857    0.000    3.429    0.000    2.667 
#    0.000    0.000    0.000    0.000    0.000    0.000 
#
# Total GULP energy -233843.127261 kJ/mol
# GULP energy per Si atom -5567.693506 kJ/mol
# Density = 1.897092 g / cm^3
# Si number density = 19.014194 Si / 1000 Ang^3
#
#
#
# Elastic Constant Matrix: (Units=GPa)
#
#
# Indices 1 2 3 4 5 6 
#
# 1 51.0954 25.3121 29.0438 0.0000 0.0000 0.0000
# 2 25.3121 100.1919 41.7241 0.0000 0.0000 0.0000
# 3 29.0438 41.7241 72.7850 0.0000 0.0000 0.0000
# 4 0.0000 0.0000 0.0000 18.4153 0.0000 0.0000
# 5 0.0000 0.0000 0.0000 0.0000 -45.6411 0.0000
# 6 0.0000 0.0000 0.0000 0.0000 0.0000 12.8112
#
#
#
# Elastic Compliance Matrix: (Units=1/GPa)
#
#
# Indices 1 2 3 4 5 6 
#
# 1 0.025959 -0.002948 -0.008669 0.000000 0.000000 0.000000
# 2 -0.002948 0.013446 -0.006531 0.000000 0.000000 0.000000
# 3 -0.008669 -0.006531 0.020942 0.000000 0.000000 0.000000
# 4 0.000000 0.000000 0.000000 0.054303 0.000000 0.000000
# 5 0.000000 0.000000 0.000000 0.000000 -0.021910 0.000000
# 6 0.000000 0.000000 0.000000 0.000000 0.000000 0.078057
#
#
# Mechanical properties :
#
#
# Convention : Reuss Voigt Hill
#
# Bulk Modulus (GPa) = 41.57858 46.24804 43.91331
# Shear Modulus (GPa) = 23.24399 5.64989 14.44694
#
# Velocity S-wave (km/s) = 3.50016 1.72565 2.75943
# Velocity P-wave (km/s) = 6.18461 5.32411 5.77042
#
# Compressibility (1/GPa) = 0.02405084
#
# Stress axis : x y z
#
# Youngs Moduli (GPa) = 38.52199 74.37391 47.75047
#
# Poissons Ratio (x) = 0.21928 0.41393
# Poissons Ratio (y) = 0.11357 0.31187
# Poissons Ratio (z) = 0.33393 0.48575
#
# Static dielectric constant tensor:
#      x y z
#    x 1.671060 0.000000 0.000000 
#    y 0.000000 1.662990 0.000000 
#    z 0.000000 0.000000 1.698870 
# 
# From -- ./inp_files/59793.got.cif
#   From: 2010.05.17/outbox.cif.g08.bks.cpg/sg74_30_cif.got.tgz:59793.got - 2010.06.03 17:57:02.
