data_PCOD9534514
_publ_section_title
;
Structure prediction by ZEFSAII (Michael W. Deem and Ramdas Pophale) SiO2 
 PCOD9534514
Probable space group: I M M A
;
_chemical_formula_sum "Si O2"
_cell_formula_units_Z 104
_cell_length_a 8.594658
_cell_length_b 28.247019
_cell_length_c 24.663584
_cell_angle_alpha 90.000000
_cell_angle_beta 90.000000
_cell_angle_gamma 90.000000
_cell_volume 5987.663817
_symmetry_space_group_name_H-M "I M M A"
_symmetry_group_IT_number 74
_symmetry_cell_setting 'orthorhombic'
loop_
_space_group_symop_operation_xyz
x,y,z
-x,1/2-y,z
x,-y,-z
-x,1/2+y,-z
-x,-y,-z
x,1/2+y,-z
-x,y,z
x,1/2-y,z
1/2+x,1/2+y,1/2+z
1/2-x,-y,1/2+z
1/2+x,1/2-y,1/2-z
1/2-x,y,1/2-z
1/2-x,1/2-y,1/2-z
1/2+x,y,1/2-z
1/2-x,1/2+y,1/2+z
1/2+x,-y,1/2+z
loop_
_atom_site_type_symbol
_atom_site_label
_atom_site_fract_x
_atom_site_fract_y
_atom_site_fract_z
Si Si1 0.316343 0.443972 0.991790
Si Si2 0.185069 0.750000 0.810967
Si Si3 0.189031 0.302942 0.009181
Si Si4 0.187819 0.129379 0.909622
Si Si5 0.815253 0.116722 0.088004
Si Si6 0.683359 0.349895 0.190035
Si Si7 0.311753 0.304495 0.689006
O O1 0.500000 0.433231 0.996375
O O2 0.224688 0.421126 0.042102
O O3 0.296433 0.500000 0.000000
O O4 0.257242 0.418849 0.935938
O O5 0.250000 0.750000 0.750000
O O6 0.245864 0.800148 0.831428
O O7 0.000000 0.750000 0.813048
O O8 0.249473 0.250000 0.010508
O O9 0.240447 0.335018 0.058922
O O10 0.000000 0.301168 0.011496
O O11 0.227063 0.330685 0.954423
O O12 0.237629 0.153852 0.852803
O O13 0.000000 0.123743 0.908127
O O14 0.731587 0.111719 0.145415
O O15 0.000000 0.118742 0.096884
O O16 0.500000 0.344972 0.194525
O O17 0.750000 0.359146 0.250000
O O18 0.500000 0.305098 0.689579
O O19 0.266585 0.250000 0.672616
O O20 0.250000 0.311997 0.750000
#
# Coordination Sequence:
#
# PCOD9534514 Si02
#       7
#    16   8  16  16  16  16  16
#     4  10  21  37  56  77 101 129 163 212 271 323
#     4  10  18  30  46  66  94 132 176 212 245 284
#     4   8  14  25  43  68  96 127 161 199 244 294
#     4   9  17  30  50  74 100 132 172 213 253 302
#     4  10  20  33  52  77 101 131 169 209 256 311
#     4  11  21  34  50  71 101 136 174 214 253 298
#     4   9  17  29  47  74 109 147 182 212 245 293
#
# _framework density 17.369045
#
# number of rings (size 3 to 8) (size 9 to 14) (size 15 to 20)
#    0.000    2.462    0.000    5.308    1.077    3.692 
#    0.000    0.000    0.000    8.769    0.000    2.154 
#    0.000    0.000    0.000    0.000    0.000    0.000 
#
# Total GULP energy -289571.202879 kJ/mol
# GULP energy per Si atom -5568.676978 kJ/mol
# Density = 1.732951 g / cm^3
# Si number density = 17.369045 Si / 1000 Ang^3
#
#
#
# Elastic Constant Matrix: (Units=GPa)
#
#
# Indices 1 2 3 4 5 6 
#
# 1 66.7149 16.2429 25.0310 0.0000 0.0000 0.0000
# 2 16.2429 54.9693 24.7714 0.0000 0.0000 0.0000
# 3 25.0310 24.7714 104.5031 0.0000 0.0000 0.0000
# 4 0.0000 0.0000 0.0000 19.5690 0.0000 0.0000
# 5 0.0000 0.0000 0.0000 0.0000 25.2699 0.0000
# 6 0.0000 0.0000 0.0000 0.0000 0.0000 21.7033
#
#
#
# Elastic Compliance Matrix: (Units=1/GPa)
#
#
# Indices 1 2 3 4 5 6 
#
# 1 0.017078 -0.003586 -0.003241 0.000000 0.000000 0.000000
# 2 -0.003586 0.021121 -0.004147 0.000000 0.000000 0.000000
# 3 -0.003241 -0.004147 0.011328 0.000000 0.000000 0.000000
# 4 0.000000 0.000000 0.000000 0.051101 0.000000 0.000000
# 5 0.000000 0.000000 0.000000 0.000000 0.039573 0.000000
# 6 0.000000 0.000000 0.000000 0.000000 0.000000 0.046076
#
#
# Mechanical properties :
#
#
# Convention : Reuss Voigt Hill
#
# Bulk Modulus (GPa) = 36.25962 39.80866 38.03414
# Shear Modulus (GPa) = 22.99716 23.98459 23.49087
#
# Velocity S-wave (km/s) = 3.64267 3.72005 3.68157
# Velocity P-wave (km/s) = 6.21397 6.43590 6.32591
#
# Compressibility (1/GPa) = 0.02757888
#
# Stress axis : x y z
#
# Youngs Moduli (GPa) = 58.55453 47.34704 88.27366
#
# Poissons Ratio (x) = 0.16979 0.28606
# Poissons Ratio (y) = 0.20998 0.36611
# Poissons Ratio (z) = 0.18975 0.19637
#
# Static dielectric constant tensor:
#      x y z
#    x 1.599520 0.000000 0.000000 
#    y 0.000000 1.625320 0.000000 
#    z 0.000000 0.000000 1.600550 
# 
# From -- ./inp_files/57574.got.cif
#   From: 2010.05.17/outbox.cif.g08.bks.cpg/sg74_29_cif.got.tgz:57574.got - 2010.06.03 17:57:02.
