data_PCOD9534164
_publ_section_title
;
Structure prediction by ZEFSAII (Michael W. Deem and Ramdas Pophale) SiO2 
 PCOD9534164
Probable space group: I M M A
;
_chemical_formula_sum "Si O2"
_cell_formula_units_Z 72
_cell_length_a 24.995088
_cell_length_b 24.294796
_cell_length_c 5.304659
_cell_angle_alpha 90.000000
_cell_angle_beta 90.000000
_cell_angle_gamma 90.000000
_cell_volume 3221.257169
_symmetry_space_group_name_H-M "I M M A"
_symmetry_group_IT_number 74
_symmetry_cell_setting 'orthorhombic'
loop_
_space_group_symop_operation_xyz
x,y,z
-x,1/2-y,z
x,-y,-z
-x,1/2+y,-z
-x,-y,-z
x,1/2+y,-z
-x,y,z
x,1/2-y,z
1/2+x,1/2+y,1/2+z
1/2-x,-y,1/2+z
1/2+x,1/2-y,1/2-z
1/2-x,y,1/2-z
1/2-x,1/2-y,1/2-z
1/2+x,y,1/2-z
1/2-x,1/2+y,1/2+z
1/2+x,-y,1/2+z
loop_
_atom_site_type_symbol
_atom_site_label
_atom_site_fract_x
_atom_site_fract_y
_atom_site_fract_z
Si Si1 0.060386 0.875255 0.372658
Si Si2 0.919926 0.554872 0.870495
Si Si3 0.839031 0.812328 0.582323
Si Si4 0.250000 0.860141 0.250000
Si Si5 0.307329 0.418214 0.376361
O O1 0.061030 0.920686 0.602256
O O2 0.107325 0.832161 0.439332
O O3 0.000000 0.852243 0.368894
O O4 0.072224 0.901308 0.097771
O O5 0.856743 0.543571 0.821778
O O6 0.942570 0.500000 0.000000
O O7 0.844434 0.750000 0.669842
O O8 0.784486 0.820446 0.424579
O O9 0.828234 0.858136 0.791522
O O10 0.294366 0.904731 0.337457
O O11 0.250000 0.430919 0.250000
#
# Coordination Sequence:
#
# PCOD9534164 Si02
#       5
#    16  16  16   8  16
#     4  11  24  43  64  91 126 161 208 264 308 365
#     4  11  23  43  65  92 123 163 211 259 312 366
#     4  10  21  36  59  88 123 163 204 248 307 369
#     4  10  17  36  60  84 122 158 202 252 301 366
#     4   9  20  37  56  89 126 163 201 253 306 370
#
# _framework density 22.351521000000002
#
# number of rings (size 3 to 8) (size 9 to 14) (size 15 to 20)
#    0.000    1.778    2.222    1.667    0.000    8.000 
#    2.000    0.000    0.000    2.667    0.000    0.000 
#    0.000    0.000    0.000    0.000    0.000    0.000 
#
# Total GULP energy -200422.988050 kJ/mol
# GULP energy per Si atom -5567.305224 kJ/mol
# Density = 2.230065 g / cm^3
# Si number density = 22.351521 Si / 1000 Ang^3
#
#
#
# Elastic Constant Matrix: (Units=GPa)
#
#
# Indices 1 2 3 4 5 6 
#
# 1 151.1811 4.8445 1.2148 0.0000 0.0000 0.0000
# 2 4.8445 35.7214 -7.2965 0.0000 0.0000 0.0000
# 3 1.2148 -7.2965 67.4607 0.0000 0.0000 0.0000
# 4 0.0000 0.0000 0.0000 17.9572 0.0000 0.0000
# 5 0.0000 0.0000 0.0000 0.0000 10.7611 0.0000
# 6 0.0000 0.0000 0.0000 0.0000 0.0000 28.0485
#
#
#
# Elastic Compliance Matrix: (Units=1/GPa)
#
#
# Indices 1 2 3 4 5 6 
#
# 1 0.006647 -0.000947 -0.000222 0.000000 0.000000 0.000000
# 2 -0.000947 0.028762 0.003128 0.000000 0.000000 0.000000
# 3 -0.000222 0.003128 0.015166 0.000000 0.000000 0.000000
# 4 0.000000 0.000000 0.000000 0.055688 0.000000 0.000000
# 5 0.000000 0.000000 0.000000 0.000000 0.092927 0.000000
# 6 0.000000 0.000000 0.000000 0.000000 0.000000 0.035653
#
#
# Mechanical properties :
#
#
# Convention : Reuss Voigt Hill
#
# Bulk Modulus (GPa) = 18.35122 27.98765 23.16943
# Shear Modulus (GPa) = 20.07322 28.39337 24.23330
#
# Velocity S-wave (km/s) = 3.00003 3.56801 3.29628
# Velocity P-wave (km/s) = 4.49759 5.43351 4.98755
#
# Compressibility (1/GPa) = 0.05449230
#
# Stress axis : x y z
#
# Youngs Moduli (GPa) = 150.45045 34.76837 65.93797
#
# Poissons Ratio (x) = 0.03292 0.01464
# Poissons Ratio (y) = 0.14245 -0.20625
# Poissons Ratio (z) = 0.03342 -0.10875
#
# Static dielectric constant tensor:
#      x y z
#    x 1.893690 0.000000 0.000000 
#    y 0.000000 1.844570 0.000000 
#    z 0.000000 0.000000 1.917080 
# 
# From -- ./inp_files/3759.got.cif
#   From: 2010.05.17/outbox.cif.g08.bks.cpg/sg74_2_cif.got.tgz:3759.got - 2010.06.03 17:57:02.
