data_PCOD9534212
_publ_section_title
;
Structure prediction by ZEFSAII (Michael W. Deem and Ramdas Pophale) SiO2 
 PCOD9534212
Probable space group: I M M A
;
_chemical_formula_sum "Si O2"
_cell_formula_units_Z 72
_cell_length_a 17.023817
_cell_length_b 16.824912
_cell_length_c 10.022940
_cell_angle_alpha 90.000000
_cell_angle_beta 90.000000
_cell_angle_gamma 90.000000
_cell_volume 2870.812801
_symmetry_space_group_name_H-M "I M M A"
_symmetry_group_IT_number 74
_symmetry_cell_setting 'orthorhombic'
loop_
_space_group_symop_operation_xyz
x,y,z
-x,1/2-y,z
x,-y,-z
-x,1/2+y,-z
-x,-y,-z
x,1/2+y,-z
-x,y,z
x,1/2-y,z
1/2+x,1/2+y,1/2+z
1/2-x,-y,1/2+z
1/2+x,1/2-y,1/2-z
1/2-x,y,1/2-z
1/2-x,1/2-y,1/2-z
1/2+x,y,1/2-z
1/2-x,1/2+y,1/2+z
1/2+x,-y,1/2+z
loop_
_atom_site_type_symbol
_atom_site_label
_atom_site_fract_x
_atom_site_fract_y
_atom_site_fract_z
Si Si1 0.000000 0.077234 0.741239
Si Si2 0.827934 0.843247 0.549260
Si Si3 0.000000 0.155578 0.456492
Si Si4 0.662617 0.594082 0.531670
Si Si5 0.166256 0.086080 0.741538
Si Si6 0.000000 0.844445 0.964832
O O1 0.000000 0.136364 0.615119
O O2 0.085350 0.037116 0.731842
O O3 0.000000 0.119413 0.884958
O O4 0.822556 0.750000 0.577385
O O5 0.746338 0.883416 0.593386
O O6 0.830315 0.859941 0.389294
O O7 0.914549 0.873086 0.593519
O O8 0.000000 0.250000 0.436793
O O9 0.658683 0.500000 0.500000
O O10 0.662337 0.632438 0.381735
O O11 0.581971 0.624125 0.595902
O O12 0.250000 0.042421 0.750000
O O13 0.000000 0.750000 0.964252
#
# Coordination Sequence:
#
# PCOD9534212 Si02
#       6
#     8  16   8  16  16   8
#     4   8  13  21  35  57  80 100 126 161 197 229
#     4   9  16  27  44  64  84 107 137 170 202 241
#     4   8  13  22  38  60  82 101 127 167 204 233
#     4  10  19  28  37  55  86 117 138 163 203 247
#     4   8  15  24  37  55  77 106 136 162 193 233
#     4  10  18  27  40  55  75 109 147 172 194 234
#
# _framework density 25.080005
#
# number of rings (size 3 to 8) (size 9 to 14) (size 15 to 20)
#    0.000    3.111    0.000    1.333    0.000    9.333 
#    0.000    0.556    0.000    0.000    0.000    0.000 
#    0.000   32.000    0.000   26.000    0.000    0.000 
#
# Total GULP energy -200437.449497 kJ/mol
# GULP energy per Si atom -5567.706930 kJ/mol
# Density = 2.502292 g / cm^3
# Si number density = 25.080005 Si / 1000 Ang^3
#
#
#
# Elastic Constant Matrix: (Units=GPa)
#
#
# Indices 1 2 3 4 5 6 
#
# 1 363.9390 44.3815 -2.3154 0.0000 0.0000 0.0000
# 2 44.3815 76.1328 -5.0563 0.0000 0.0000 0.0000
# 3 -2.3154 -5.0563 74.9328 0.0000 0.0000 0.0000
# 4 0.0000 0.0000 0.0000 15.4280 0.0000 0.0000
# 5 0.0000 0.0000 0.0000 0.0000 -51.7706 0.0000
# 6 0.0000 0.0000 0.0000 0.0000 0.0000 104.6818
#
#
#
# Elastic Compliance Matrix: (Units=1/GPa)
#
#
# Indices 1 2 3 4 5 6 
#
# 1 0.002958 -0.001726 -0.000025 0.000000 0.000000 0.000000
# 2 -0.001726 0.014201 0.000905 0.000000 0.000000 0.000000
# 3 -0.000025 0.000905 0.013406 0.000000 0.000000 0.000000
# 4 0.000000 0.000000 0.000000 0.064817 0.000000 0.000000
# 5 0.000000 0.000000 0.000000 0.000000 -0.019316 0.000000
# 6 0.000000 0.000000 0.000000 0.000000 0.000000 0.009553
#
#
# Mechanical properties :
#
#
# Convention : Reuss Voigt Hill
#
# Bulk Modulus (GPa) = 34.63502 65.44711 50.04106
# Shear Modulus (GPa) = 51.58083 45.53416 48.55750
#
# Velocity S-wave (km/s) = 4.53995 4.26556 4.40489
# Velocity P-wave (km/s) = 6.42817 7.10014 6.77249
#
# Compressibility (1/GPa) = 0.02887251
#
# Stress axis : x y z
#
# Youngs Moduli (GPa) = 338.06158 70.41641 74.59576
#
# Poissons Ratio (x) = 0.12154 0.00187
# Poissons Ratio (y) = 0.58351 -0.06750
# Poissons Ratio (z) = 0.00847 -0.06372
#
# Static dielectric constant tensor:
#      x y z
#    x 2.108900 0.000000 0.000000 
#    y 0.000000 1.861840 0.000000 
#    z 0.000000 0.000000 2.021780 
# 
# From -- ./inp_files/21892.got.cif
#   From: 2010.05.17/outbox.cif.g08.bks.cpg/sg74_11_cif.got.tgz:21892.got - 2010.06.03 17:57:02.
