data_PCOD9534163
_publ_section_title
;
Structure prediction by ZEFSAII (Michael W. Deem and Ramdas Pophale) SiO2 
 PCOD9534163
Probable space group: I M M A
;
_chemical_formula_sum "Si O2"
_cell_formula_units_Z 56
_cell_length_a 20.612374
_cell_length_b 14.351955
_cell_length_c 10.707860
_cell_angle_alpha 90.000000
_cell_angle_beta 90.000000
_cell_angle_gamma 90.000000
_cell_volume 3167.683353
_symmetry_space_group_name_H-M "I M M A"
_symmetry_group_IT_number 74
_symmetry_cell_setting 'orthorhombic'
loop_
_space_group_symop_operation_xyz
x,y,z
-x,1/2-y,z
x,-y,-z
-x,1/2+y,-z
-x,-y,-z
x,1/2+y,-z
-x,y,z
x,1/2-y,z
1/2+x,1/2+y,1/2+z
1/2-x,-y,1/2+z
1/2+x,1/2-y,1/2-z
1/2-x,y,1/2-z
1/2-x,1/2-y,1/2-z
1/2+x,y,1/2-z
1/2-x,1/2+y,1/2+z
1/2+x,-y,1/2+z
loop_
_atom_site_type_symbol
_atom_site_label
_atom_site_fract_x
_atom_site_fract_y
_atom_site_fract_z
Si Si1 0.925693 0.644061 0.804358
Si Si2 0.697961 0.390463 0.145292
Si Si3 0.869416 0.500000 0.000000
Si Si4 0.252169 0.901082 0.115852
O O1 0.918619 0.750000 0.854486
O O2 0.872933 0.633075 0.694729
O O3 0.000000 0.633046 0.762527
O O4 0.909172 0.566437 0.907987
O O5 0.750000 0.358882 0.250000
O O6 0.707892 0.502465 0.137923
O O7 0.717030 0.355985 0.007508
O O8 0.819941 0.565827 0.077133
O O9 0.250000 0.853135 0.250000
#
# Coordination Sequence:
#
# PCOD9534163 Si02
#       4
#    16  16   8  16
#     4  11  22  34  53  83 113 146 190 230 271 335
#     4   9  15  31  51  79 107 139 178 232 266 311
#     4  10  17  36  54  78 109 146 178 236 277 324
#     4   9  15  29  54  82 107 141 179 230 264 330
#
# _framework density 17.678533999999999
#
# number of rings (size 3 to 8) (size 9 to 14) (size 15 to 20)
#    0.000    2.571    8.571    0.429    0.000    0.571 
#    0.000    2.857    0.000    3.429    0.000    4.000 
#    0.000    0.000    0.000    0.000    0.000    0.000 
#
# Total GULP energy -155914.494363 kJ/mol
# GULP energy per Si atom -5568.374799 kJ/mol
# Density = 1.763830 g / cm^3
# Si number density = 17.678534 Si / 1000 Ang^3
#
#
#
# Elastic Constant Matrix: (Units=GPa)
#
#
# Indices 1 2 3 4 5 6 
#
# 1 145.8600 36.2505 64.5969 0.0000 0.0000 0.0000
# 2 36.2505 84.6506 30.4619 0.0000 0.0000 0.0000
# 3 64.5969 30.4619 179.8646 0.0000 0.0000 0.0000
# 4 0.0000 0.0000 0.0000 -10.9272 0.0000 0.0000
# 5 0.0000 0.0000 0.0000 0.0000 24.1806 0.0000
# 6 0.0000 0.0000 0.0000 0.0000 0.0000 310.6691
#
#
#
# Elastic Compliance Matrix: (Units=1/GPa)
#
#
# Indices 1 2 3 4 5 6 
#
# 1 0.008726 -0.002778 -0.002663 0.000000 0.000000 0.000000
# 2 -0.002778 0.013465 -0.001283 0.000000 0.000000 0.000000
# 3 -0.002663 -0.001283 0.006733 0.000000 0.000000 0.000000
# 4 0.000000 0.000000 0.000000 -0.091515 0.000000 0.000000
# 5 0.000000 0.000000 0.000000 0.000000 0.041355 0.000000
# 6 0.000000 0.000000 0.000000 0.000000 0.000000 0.003219
#
#
# Mechanical properties :
#
#
# Convention : Reuss Voigt Hill
#
# Bulk Modulus (GPa) = 64.61803 74.77710 69.69756
# Shear Modulus (GPa) = 8466.10291 83.38889 4274.74590
#
# Velocity S-wave (km/s) = 69.27708 6.87546 49.22695
# Velocity P-wave (km/s) = 80.22291 10.26739 57.18887
#
# Compressibility (1/GPa) = 0.01547556
#
# Stress axis : x y z
#
# Youngs Moduli (GPa) = 114.60168 74.26886 148.51238
#
# Poissons Ratio (x) = 0.20634 0.39553
# Poissons Ratio (y) = 0.31840 0.19047
# Poissons Ratio (z) = 0.30522 0.09525
#
# Static dielectric constant tensor:
#      x y z
#    x 1.577330 0.000000 0.000000 
#    y 0.000000 1.631700 0.000000 
#    z 0.000000 0.000000 1.653290 
# 
# From -- ./inp_files/19784.got.cif
#   From: 2010.05.17/outbox.cif.g08.bks.cpg/sg74_10_cif.got.tgz:19784.got - 2010.06.03 17:57:02.
