data_PCOD9534033
_publ_section_title
;
Structure prediction by ZEFSAII (Michael W. Deem and Ramdas Pophale) SiO2 
 PCOD9534033
Probable space group: I M M A
;
_chemical_formula_sum "Si O2"
_cell_formula_units_Z 112
_cell_length_a 17.912226
_cell_length_b 13.845520
_cell_length_c 29.135132
_cell_angle_alpha 90.000000
_cell_angle_beta 90.000000
_cell_angle_gamma 90.000000
_cell_volume 7225.631704
_symmetry_space_group_name_H-M "I M M A"
_symmetry_group_IT_number 74
_symmetry_cell_setting 'orthorhombic'
loop_
_space_group_symop_operation_xyz
x,y,z
-x,1/2-y,z
x,-y,-z
-x,1/2+y,-z
-x,-y,-z
x,1/2+y,-z
-x,y,z
x,1/2-y,z
1/2+x,1/2+y,1/2+z
1/2-x,-y,1/2+z
1/2+x,1/2-y,1/2-z
1/2-x,y,1/2-z
1/2-x,1/2-y,1/2-z
1/2+x,y,1/2-z
1/2-x,1/2+y,1/2+z
1/2+x,-y,1/2+z
loop_
_atom_site_type_symbol
_atom_site_label
_atom_site_fract_x
_atom_site_fract_y
_atom_site_fract_z
Si Si1 0.816659 0.139459 0.055123
Si Si2 0.921011 0.865574 0.337166
Si Si3 0.867156 0.062321 0.568839
Si Si4 0.760546 0.366526 0.696307
Si Si5 0.414230 0.866408 0.467104
Si Si6 0.357631 0.358319 0.031063
Si Si7 0.698813 0.451308 0.606075
O O1 0.833740 0.250000 0.067979
O O2 0.732876 0.138187 0.034245
O O3 0.815747 0.064684 0.097027
O O4 0.872989 0.106832 0.014880
O O5 0.920618 0.750000 0.332638
O O6 0.913822 0.892725 0.390322
O O7 0.844814 0.900234 0.314556
O O8 0.000000 0.902158 0.318410
O O9 0.878965 0.116786 0.521035
O O10 0.779615 0.071503 0.582914
O O11 0.884091 0.948780 0.561408
O O12 0.754593 0.250000 0.689084
O O13 0.750000 0.385430 0.750000
O O14 0.707243 0.417106 0.658635
O O15 0.500000 0.900325 0.465157
O O16 0.414834 0.750000 0.466873
O O17 0.364778 0.899472 0.423903
O O18 0.381381 0.250000 0.043975
#
# Coordination Sequence:
#
# PCOD9534033 Si02
#       7
#    16  16  16  16  16  16  16
#     4   9  17  27  40  60  88 120 154 187 218 258
#     4   9  17  29  46  66  86 109 137 172 214 258
#     4   9  16  25  41  62  81 111 150 179 206 247
#     4   9  18  32  50  70  89 111 144 186 228 273
#     4  10  19  28  40  63  95 127 157 190 229 274
#     4   9  15  24  38  58  85 115 148 181 208 239
#     4  10  17  28  45  63  85 117 153 186 223 268
#
# _framework density 15.500375
#
# number of rings (size 3 to 8) (size 9 to 14) (size 15 to 20)
#    0.000    2.714    1.429    1.286    0.000    2.286 
#    0.000    2.143    0.000    4.286    0.000    0.000 
#    0.000    0.000    0.000    0.143    0.000    0.000 
#
# Total GULP energy -311812.250674 kJ/mol
# GULP energy per Si atom -5568.075905 kJ/mol
# Density = 1.546510 g / cm^3
# Si number density = 15.500375 Si / 1000 Ang^3
#
#
#
# Elastic Constant Matrix: (Units=GPa)
#
#
# Indices 1 2 3 4 5 6 
#
# 1 58.9703 13.8571 27.1402 0.0000 0.0000 0.0000
# 2 13.8571 48.1070 20.4381 0.0000 0.0000 0.0000
# 3 27.1402 20.4381 88.4034 0.0000 0.0000 0.0000
# 4 0.0000 0.0000 0.0000 20.0818 0.0000 0.0000
# 5 0.0000 0.0000 0.0000 0.0000 4.8789 0.0000
# 6 0.0000 0.0000 0.0000 0.0000 0.0000 9.1703
#
#
#
# Elastic Compliance Matrix: (Units=1/GPa)
#
#
# Indices 1 2 3 4 5 6 
#
# 1 0.020279 -0.003544 -0.005406 0.000000 0.000000 0.000000
# 2 -0.003544 0.023671 -0.004384 0.000000 0.000000 0.000000
# 3 -0.005406 -0.004384 0.013985 0.000000 0.000000 0.000000
# 4 0.000000 0.000000 0.000000 0.049796 0.000000 0.000000
# 5 0.000000 0.000000 0.000000 0.000000 0.204963 0.000000
# 6 0.000000 0.000000 0.000000 0.000000 0.000000 0.109047
#
#
# Mechanical properties :
#
#
# Convention : Reuss Voigt Hill
#
# Bulk Modulus (GPa) = 31.98504 35.37238 33.67871
# Shear Modulus (GPa) = 10.89723 15.76257 13.32990
#
# Velocity S-wave (km/s) = 2.65435 3.19237 2.93571
# Velocity P-wave (km/s) = 5.48397 6.03806 5.76767
#
# Compressibility (1/GPa) = 0.03126462
#
# Stress axis : x y z
#
# Youngs Moduli (GPa) = 49.31290 42.24647 71.50460
#
# Poissons Ratio (x) = 0.14974 0.38657
# Poissons Ratio (y) = 0.17478 0.31350
# Poissons Ratio (z) = 0.26660 0.18522
#
# Static dielectric constant tensor:
#      x y z
#    x 1.559730 0.000000 0.000000 
#    y 0.000000 1.540990 0.000000 
#    z 0.000000 0.000000 1.487200 
# 
# From -- ./inp_files/72669.got.cif
#   From: 2010.05.17/outbox.cif.g08.bks.cpg/sg74_37_cif.got.tgz:72669.got - 2010.06.03 17:57:02.
