data_PCOD9534357
_publ_section_title
;
Structure prediction by ZEFSAII (Michael W. Deem and Ramdas Pophale) SiO2 
 PCOD9534357
Probable space group: I M M A
;
_chemical_formula_sum "Si O2"
_cell_formula_units_Z 104
_cell_length_a 12.783261
_cell_length_b 29.653012
_cell_length_c 19.363582
_cell_angle_alpha 90.000000
_cell_angle_beta 90.000000
_cell_angle_gamma 90.000000
_cell_volume 7340.001835
_symmetry_space_group_name_H-M "I M M A"
_symmetry_group_IT_number 74
_symmetry_cell_setting 'orthorhombic'
loop_
_space_group_symop_operation_xyz
x,y,z
-x,1/2-y,z
x,-y,-z
-x,1/2+y,-z
-x,-y,-z
x,1/2+y,-z
-x,y,z
x,1/2-y,z
1/2+x,1/2+y,1/2+z
1/2-x,-y,1/2+z
1/2+x,1/2-y,1/2-z
1/2-x,y,1/2-z
1/2-x,1/2-y,1/2-z
1/2+x,y,1/2-z
1/2-x,1/2+y,1/2+z
1/2+x,-y,1/2+z
loop_
_atom_site_type_symbol
_atom_site_label
_atom_site_fract_x
_atom_site_fract_y
_atom_site_fract_z
Si Si1 0.750000 0.151791 0.750000
Si Si2 0.622162 0.960474 0.556652
Si Si3 0.310935 0.421557 0.850085
Si Si4 0.124046 0.198814 0.871472
Si Si5 0.622434 0.608032 0.440770
Si Si6 0.500000 0.041684 0.100831
Si Si7 0.500000 0.063740 0.946197
Si Si8 0.291068 0.025306 0.175802
O O1 0.677051 0.117308 0.793233
O O2 0.813034 0.181666 0.804658
O O3 0.500000 0.961846 0.577501
O O4 0.643227 0.914212 0.514901
O O5 0.700533 0.967967 0.619165
O O6 0.638280 0.000000 0.500000
O O7 0.197393 0.415286 0.884884
O O8 0.396954 0.416851 0.909885
O O9 0.317161 0.471742 0.819674
O O10 0.153086 0.250000 0.889640
O O11 0.141307 0.161318 0.930892
O O12 0.000000 0.197989 0.856237
O O13 0.500000 0.598926 0.425655
O O14 0.396061 0.048077 0.146103
O O15 0.500000 0.989385 0.074716
O O16 0.500000 0.068420 0.028553
O O17 0.250000 0.040867 0.250000
#
# Coordination Sequence:
#
# PCOD9534357 Si02
#       8
#     8  16  16  16  16   8   8  16
#     4  10  19  28  42  64  92 118 156 186 231 266
#     4  10  19  30  48  66  87 119 153 193 232 272
#     4  10  18  29  41  64  84 117 152 196 221 259
#     4   9  18  31  46  63  88 118 149 188 235 275
#     4   9  17  30  46  67  83 110 152 189 223 267
#     4   9  20  32  42  58  77 120 153 196 229 268
#     4   9  18  30  46  56  81 112 161 194 223 266
#     4  11  21  31  43  61  93 119 154 190 233 276
#
# _framework density 14.168934
#
# number of rings (size 3 to 8) (size 9 to 14) (size 15 to 20)
#    0.000    2.308    2.308    1.154    4.308    0.000 
#    0.000    0.000    0.000    0.000    0.000    0.000 
#    0.000    0.615    0.000    0.000    0.000    0.000 
#
# Total GULP energy -289678.259723 kJ/mol
# GULP energy per Si atom -5570.735764 kJ/mol
# Density = 1.413668 g / cm^3
# Si number density = 14.168934 Si / 1000 Ang^3
#
#
#
# Elastic Constant Matrix: (Units=GPa)
#
#
# Indices 1 2 3 4 5 6 
#
# 1 63.1408 18.4069 50.9847 0.0000 0.0000 0.0000
# 2 18.4069 67.0982 27.7987 0.0000 0.0000 0.0000
# 3 50.9847 27.7987 85.6074 0.0000 0.0000 0.0000
# 4 0.0000 0.0000 0.0000 17.4989 0.0000 0.0000
# 5 0.0000 0.0000 0.0000 0.0000 23.6784 0.0000
# 6 0.0000 0.0000 0.0000 0.0000 0.0000 10.8355
#
#
#
# Elastic Compliance Matrix: (Units=1/GPa)
#
#
# Indices 1 2 3 4 5 6 
#
# 1 0.030565 -0.000974 -0.017887 0.000000 0.000000 0.000000
# 2 -0.000974 0.017251 -0.005022 0.000000 0.000000 0.000000
# 3 -0.017887 -0.005022 0.023965 0.000000 0.000000 0.000000
# 4 0.000000 0.000000 0.000000 0.057146 0.000000 0.000000
# 5 0.000000 0.000000 0.000000 0.000000 0.042233 0.000000
# 6 0.000000 0.000000 0.000000 0.000000 0.000000 0.092289
#
#
# Mechanical properties :
#
#
# Convention : Reuss Voigt Hill
#
# Bulk Modulus (GPa) = 41.64044 45.58077 43.61060
# Shear Modulus (GPa) = 15.66319 18.31298 16.98808
#
# Velocity S-wave (km/s) = 3.32845 3.59900 3.46637
# Velocity P-wave (km/s) = 6.65010 7.03632 6.84593
#
# Compressibility (1/GPa) = 0.02401512
#
# Stress axis : x y z
#
# Youngs Moduli (GPa) = 32.71720 57.96677 41.72790
#
# Poissons Ratio (x) = 0.05647 0.74639
# Poissons Ratio (y) = 0.03187 0.20954
# Poissons Ratio (z) = 0.58521 0.29109
#
# Static dielectric constant tensor:
#      x y z
#    x 1.480520 0.000000 0.000000 
#    y 0.000000 1.470370 0.000000 
#    z 0.000000 0.000000 1.460710 
# 
# From -- ./inp_files/41837.got.cif
#   From: 2010.05.17/outbox.cif.g08.bks.cpg/sg74_21_cif.got.tgz:41837.got - 2010.06.03 17:57:02.
