data_PCOD9534526
_publ_section_title
;
Structure prediction by ZEFSAII (Michael W. Deem and Ramdas Pophale) SiO2 
 PCOD9534526
Probable space group: I M M A
;
_chemical_formula_sum "Si O2"
_cell_formula_units_Z 116
_cell_length_a 15.709086
_cell_length_b 15.645986
_cell_length_c 21.379707
_cell_angle_alpha 90.000000
_cell_angle_beta 90.000000
_cell_angle_gamma 90.000000
_cell_volume 5254.792891
_symmetry_space_group_name_H-M "I M M A"
_symmetry_group_IT_number 74
_symmetry_cell_setting 'orthorhombic'
loop_
_space_group_symop_operation_xyz
x,y,z
-x,1/2-y,z
x,-y,-z
-x,1/2+y,-z
-x,-y,-z
x,1/2+y,-z
-x,y,z
x,1/2-y,z
1/2+x,1/2+y,1/2+z
1/2-x,-y,1/2+z
1/2+x,1/2-y,1/2-z
1/2-x,y,1/2-z
1/2-x,1/2-y,1/2-z
1/2+x,y,1/2-z
1/2-x,1/2+y,1/2+z
1/2+x,-y,1/2+z
loop_
_atom_site_type_symbol
_atom_site_label
_atom_site_fract_x
_atom_site_fract_y
_atom_site_fract_z
Si Si1 0.842782 0.657089 0.614620
Si Si2 0.759149 0.901371 0.495067
Si Si3 0.336009 0.655353 0.689904
Si Si4 0.896630 0.845120 0.252542
Si Si5 0.594100 0.073598 0.423255
Si Si6 0.098187 0.471750 0.292218
Si Si7 0.500000 0.250000 0.580531
Si Si8 0.351400 0.117542 0.612950
O O1 0.881882 0.750000 0.627205
O O2 0.819766 0.649499 0.541661
O O3 0.753497 0.652297 0.653077
O O4 0.893107 0.577355 0.642384
O O5 0.665431 0.900598 0.527322
O O6 0.737026 0.872505 0.425081
O O7 0.786972 0.000000 0.500000
O O8 0.345573 0.750000 0.717760
O O9 0.402163 0.638456 0.634491
O O10 0.349226 0.582444 0.741168
O O11 0.876206 0.750000 0.276530
O O12 0.850683 0.859741 0.186110
O O13 0.000000 0.845466 0.240352
O O14 0.877040 0.928773 0.293392
O O15 0.500000 0.071192 0.449955
O O16 0.621360 0.981444 0.395909
O O17 0.000000 0.467621 0.271521
O O18 0.425110 0.176536 0.584904
#
# Coordination Sequence:
#
# PCOD9534526 Si02
#       8
#    16  16  16  16  16  16   4  16
#     4  10  22  40  56  81 116 155 196 240 293 349
#     4   9  22  35  53  75 107 156 200 237 284 343
#     4  10  20  34  51  77 109 152 191 229 285 342
#     4  10  18  32  53  86 122 152 185 228 280 344
#     4  10  18  30  46  71 110 146 187 231 274 325
#     4  11  22  35  60  85 113 150 190 239 292 344
#     4  12  20  24  50  80 118 158 200 236 266 332
#     4  11  18  30  47  78 114 157 192 227 277 327
#
# _framework density 22.075085999999999
#
# number of rings (size 3 to 8) (size 9 to 14) (size 15 to 20)
#    0.000    1.793    3.448    1.241    1.931    3.862 
#    0.000    0.000    0.000    2.897    3.586    0.000 
#    0.000    0.000    0.000    0.000    0.000    0.000 
#
# Total GULP energy -323397.600480 kJ/mol
# GULP energy per Si atom -5575.820698 kJ/mol
# Density = 2.202484 g / cm^3
# Si number density = 22.075086 Si / 1000 Ang^3
#
#
#
# Elastic Constant Matrix: (Units=GPa)
#
#
# Indices 1 2 3 4 5 6 
#
# 1 20.4122 20.7987 5.9505 0.0000 0.0000 0.0000
# 2 20.7987 153.4114 44.0558 0.0000 0.0000 0.0000
# 3 5.9505 44.0558 53.4064 0.0000 0.0000 0.0000
# 4 0.0000 0.0000 0.0000 1.9616 0.0000 0.0000
# 5 0.0000 0.0000 0.0000 0.0000 18.3189 0.0000
# 6 0.0000 0.0000 0.0000 0.0000 0.0000 16.9756
#
#
#
# Elastic Compliance Matrix: (Units=1/GPa)
#
#
# Indices 1 2 3 4 5 6 
#
# 1 0.056843 -0.007715 0.000031 0.000000 0.000000 0.000000
# 2 -0.007715 0.009589 -0.007051 0.000000 0.000000 0.000000
# 3 0.000031 -0.007051 0.024537 0.000000 0.000000 0.000000
# 4 0.000000 0.000000 0.000000 0.509784 0.000000 0.000000
# 5 0.000000 0.000000 0.000000 0.000000 0.054588 0.000000
# 6 0.000000 0.000000 0.000000 0.000000 0.000000 0.058908
#
#
# Mechanical properties :
#
#
# Convention : Reuss Voigt Hill
#
# Bulk Modulus (GPa) = 16.26034 40.98222 28.62128
# Shear Modulus (GPa) = 6.54263 17.87956 12.21109
#
# Velocity S-wave (km/s) = 1.72344 2.84904 2.35449
# Velocity P-wave (km/s) = 3.36782 5.42475 4.51498
#
# Compressibility (1/GPa) = 0.06149931
#
# Stress axis : x y z
#
# Youngs Moduli (GPa) = 17.59241 104.28406 40.75466
#
# Poissons Ratio (x) = 0.80459 -0.00127
# Poissons Ratio (y) = 0.13573 0.28735
# Poissons Ratio (z) = -0.00055 0.73527
#
# Static dielectric constant tensor:
#      x y z
#    x 1.818660 0.000000 0.000000 
#    y 0.000000 1.844290 0.000000 
#    z 0.000000 0.000000 1.859700 
# 
# From -- ./inp_files/61038.got.cif
#   From: 2010.05.17/outbox.cif.g08.bks.cpg/sg74_31_cif.got.tgz:61038.got - 2010.06.03 17:57:02.
