data_PCOD9534596
_publ_section_title
;
Structure prediction by ZEFSAII (Michael W. Deem and Ramdas Pophale) SiO2 
 PCOD9534596
Probable space group: I M M A
;
_chemical_formula_sum "Si O2"
_cell_formula_units_Z 88
_cell_length_a 10.266987
_cell_length_b 21.210214
_cell_length_c 16.759665
_cell_angle_alpha 90.000000
_cell_angle_beta 90.000000
_cell_angle_gamma 90.000000
_cell_volume 3649.668305
_symmetry_space_group_name_H-M "I M M A"
_symmetry_group_IT_number 74
_symmetry_cell_setting 'orthorhombic'
loop_
_space_group_symop_operation_xyz
x,y,z
-x,1/2-y,z
x,-y,-z
-x,1/2+y,-z
-x,-y,-z
x,1/2+y,-z
-x,y,z
x,1/2-y,z
1/2+x,1/2+y,1/2+z
1/2-x,-y,1/2+z
1/2+x,1/2-y,1/2-z
1/2-x,y,1/2-z
1/2-x,1/2-y,1/2-z
1/2+x,y,1/2-z
1/2-x,1/2+y,1/2+z
1/2+x,-y,1/2+z
loop_
_atom_site_type_symbol
_atom_site_label
_atom_site_fract_x
_atom_site_fract_y
_atom_site_fract_z
Si Si1 0.000000 0.180383 0.702154
Si Si2 0.751796 0.541050 0.081163
Si Si3 0.000000 0.018743 0.093159
Si Si4 0.770315 0.318318 0.572482
Si Si5 0.000000 0.541250 0.307375
Si Si6 0.500000 0.159699 0.369166
Si Si7 0.801294 0.817283 0.606427
Si Si8 0.000000 0.395906 0.301429
O O1 0.126547 0.181338 0.644604
O O2 0.000000 0.109252 0.739679
O O3 0.000000 0.250000 0.744713
O O4 0.867335 0.507285 0.128078
O O5 0.797879 0.613607 0.070001
O O6 0.624126 0.543321 0.134042
O O7 0.728368 0.500000 0.000000
O O8 0.000000 0.092048 0.092016
O O9 0.000000 0.000000 0.000000
O O10 0.699410 0.250000 0.577017
O O11 0.839868 0.318617 0.486358
O O12 0.000000 0.468943 0.276670
O O13 0.643890 0.184107 0.390748
O O14 0.500000 0.148550 0.275071
O O15 0.845279 0.750000 0.641619
O O16 0.871520 0.875503 0.649022
#
# Coordination Sequence:
#
# PCOD9534596 Si02
#       8
#     8  16   8  16   8   8  16   8
#     4   8  15  29  51  81 112 136 162 206 262 317
#     4  10  18  30  50  74 102 132 167 208 255 308
#     4  10  20  35  53  72  97 126 159 207 266 314
#     4   9  17  30  50  78 108 137 172 212 255 304
#     4  10  19  31  51  76 101 132 167 210 257 303
#     4  12  25  39  54  74 102 135 179 224 259 303
#     4  11  23  38  55  74 104 146 184 217 253 295
#     4  12  24  38  54  75 103 135 182 227 258 295
#
# _framework density 24.111778999999999
#
# number of rings (size 3 to 8) (size 9 to 14) (size 15 to 20)
#    0.000    1.818    0.000    6.273    0.000    5.091 
#    0.000    1.364    0.000    0.000    0.000    1.273 
#    0.000    8.727    0.000    0.000    0.000    0.000 
#
# Total GULP energy -245344.719383 kJ/mol
# GULP energy per Si atom -5576.016350 kJ/mol
# Density = 2.405690 g / cm^3
# Si number density = 24.111779 Si / 1000 Ang^3
#
#
#
# Elastic Constant Matrix: (Units=GPa)
#
#
# Indices 1 2 3 4 5 6 
#
# 1 126.0463 37.3189 2.8327 0.0000 0.0000 0.0000
# 2 37.3189 222.0604 6.7367 0.0000 0.0000 0.0000
# 3 2.8327 6.7367 20.3620 0.0000 0.0000 0.0000
# 4 0.0000 0.0000 0.0000 -790.3700 0.0000 0.0000
# 5 0.0000 0.0000 0.0000 0.0000 16.0806 0.0000
# 6 0.0000 0.0000 0.0000 0.0000 0.0000 5.3199
#
#
#
# Elastic Compliance Matrix: (Units=1/GPa)
#
#
# Indices 1 2 3 4 5 6 
#
# 1 0.008359 -0.001383 -0.000705 0.000000 0.000000 0.000000
# 2 -0.001383 0.004778 -0.001388 0.000000 0.000000 0.000000
# 3 -0.000705 -0.001388 0.049669 0.000000 0.000000 0.000000
# 4 0.000000 0.000000 0.000000 -0.001265 0.000000 0.000000
# 5 0.000000 0.000000 0.000000 0.000000 0.062187 0.000000
# 6 0.000000 0.000000 0.000000 0.000000 0.000000 0.187975
#
#
# Mechanical properties :
#
#
# Convention : Reuss Voigt Hill
#
# Bulk Modulus (GPa) = 17.90458 51.36060 34.63259
# Shear Modulus (GPa) = 14.82480 -132.35522 -58.76521
#
# Velocity S-wave (km/s) = 2.48228 -7.41697 -4.94216
# Velocity P-wave (km/s) = 3.95694 7.21120 4.26286
#
# Compressibility (1/GPa) = 0.05585163
#
# Stress axis : x y z
#
# Youngs Moduli (GPa) = 119.63111 209.29750 20.13348
#
# Poissons Ratio (x) = 0.28954 0.01420
# Poissons Ratio (y) = 0.16550 0.02795
# Poissons Ratio (z) = 0.08436 0.29057
#
# Static dielectric constant tensor:
#      x y z
#    x 1.922980 0.000000 0.000000 
#    y 0.000000 2.087820 0.000000 
#    z 0.000000 0.000000 1.937930 
# 
# From -- ./inp_files/41355.got.cif
#   From: 2010.05.17/outbox.cif.g08.bks.cpg/sg74_21_cif.got.tgz:41355.got - 2010.06.03 17:57:02.
