data_PCOD9534652
_publ_section_title
;
Structure prediction by ZEFSAII (Michael W. Deem and Ramdas Pophale) SiO2 
 PCOD9534652
Probable space group: I M M A
;
_chemical_formula_sum "Si O2"
_cell_formula_units_Z 80
_cell_length_a 13.873119
_cell_length_b 30.768362
_cell_length_c 6.988531
_cell_angle_alpha 90.000000
_cell_angle_beta 90.000000
_cell_angle_gamma 90.000000
_cell_volume 2983.076453
_symmetry_space_group_name_H-M "I M M A"
_symmetry_group_IT_number 74
_symmetry_cell_setting 'orthorhombic'
loop_
_space_group_symop_operation_xyz
x,y,z
-x,1/2-y,z
x,-y,-z
-x,1/2+y,-z
-x,-y,-z
x,1/2+y,-z
-x,y,z
x,1/2-y,z
1/2+x,1/2+y,1/2+z
1/2-x,-y,1/2+z
1/2+x,1/2-y,1/2-z
1/2-x,y,1/2-z
1/2-x,1/2-y,1/2-z
1/2+x,y,1/2-z
1/2-x,1/2+y,1/2+z
1/2+x,-y,1/2+z
loop_
_atom_site_type_symbol
_atom_site_label
_atom_site_fract_x
_atom_site_fract_y
_atom_site_fract_z
Si Si1 0.613576 0.388268 0.708627
Si Si2 0.000000 0.965131 0.112331
Si Si3 0.616066 0.296054 0.683991
Si Si4 0.156134 0.893021 0.623507
Si Si5 0.500000 0.032873 0.132122
Si Si6 0.849723 0.202522 0.366882
O O1 0.500000 0.380774 0.776771
O O2 0.595437 0.434243 0.608921
O O3 0.637807 0.343565 0.599709
O O4 0.677233 0.392060 0.896713
O O5 0.000000 0.977058 0.376643
O O6 0.000000 0.980731 0.873915
O O7 0.500000 0.293519 0.690775
O O8 0.648762 0.250000 0.597281
O O9 0.655435 0.297157 0.901185
O O10 0.250000 0.897285 0.750000
O O11 0.091558 0.935313 0.641627
O O12 0.108570 0.845808 0.669624
O O13 0.895478 0.250000 0.322536
O O14 0.750000 0.202199 0.250000
#
# Coordination Sequence:
#
# PCOD9534652 Si02
#       6
#    16   8  16  16   8  16
#     4   8  14  28  48  75 108 147 196 248 301 362
#     4  10  20  34  57  75 105 155 204 246 316 366
#     4   8  12  18  34  63 100 138 181 237 291 344
#     4  10  18  30  53  85 112 155 206 247 311 379
#     4  12  20  38  59  79 117 157 198 260 322 373
#     4   8  14  23  37  66 111 149 186 241 296 358
#
# _framework density 26.817952999999999
#
# number of rings (size 3 to 8) (size 9 to 14) (size 15 to 20)
#    0.600    2.400    3.000    0.000    1.400    0.000 
#    0.000    1.000    0.000    0.000    0.000    2.800 
#    0.000    0.000    0.000   29.600    0.000    1.800 
#
# Total GULP energy -222999.028837 kJ/mol
# GULP energy per Si atom -5574.975721 kJ/mol
# Density = 2.675691 g / cm^3
# Si number density = 26.817953 Si / 1000 Ang^3
#
#
#
# Elastic Constant Matrix: (Units=GPa)
#
#
# Indices 1 2 3 4 5 6 
#
# 1 103.8390 69.1650 33.5981 -0.0030 0.0075 0.0017
# 2 69.1650 338.5309 78.2262 0.0019 -0.0009 -0.0007
# 3 33.5981 78.2262 175.9193 0.0082 0.0246 -0.0042
# 4 -0.0030 0.0019 0.0082 33.7704 -0.0014 -0.0009
# 5 0.0075 -0.0009 0.0246 -0.0014 26.8210 0.0014
# 6 0.0017 -0.0007 -0.0042 -0.0009 0.0014 13.8697
#
#
#
# Elastic Compliance Matrix: (Units=1/GPa)
#
#
# Indices 1 2 3 4 5 6 
#
# 1 0.011397 -0.002035 -0.001272 0.000001 -0.000002 -0.000002
# 2 -0.002035 0.003655 -0.001237 0.000000 0.000002 0.000000
# 3 -0.001272 -0.001237 0.006477 -0.000002 -0.000006 0.000002
# 4 0.000001 0.000000 -0.000002 0.029612 0.000002 0.000002
# 5 -0.000002 0.000002 -0.000006 0.000002 0.037284 -0.000004
# 6 -0.000002 0.000000 0.000002 0.000002 -0.000004 0.072099
#
#
# Mechanical properties :
#
#
# Convention : Reuss Voigt Hill
#
# Bulk Modulus (GPa) = 80.36665 108.91865 94.64265
# Shear Modulus (GPa) = 28.77536 44.04556 36.41046
#
# Velocity S-wave (km/s) = 3.27920 4.05704 3.68868
# Velocity P-wave (km/s) = 6.66109 7.91507 7.31500
#
# Compressibility (1/GPa) = 0.01244297
#
# Stress axis : x y z
#
# Youngs Moduli (GPa) = 87.74196 273.56464 154.38398
#
# Poissons Ratio (x) = 0.55660 0.19637
# Poissons Ratio (y) = 0.17852 0.19096
# Poissons Ratio (z) = 0.11160 0.33837
#
# Static dielectric constant tensor:
#      x y z
#    x 2.187820 0.000000 0.000000 
#    y 0.000000 2.057070 -0.000010 
#    z 0.000000 -0.000010 2.426300 
# 
# From -- ./inp_files/11194.got.cif
#   From: 2010.05.17/outbox.cif.g08.bks.cpg/sg74_6_cif.got.tgz:11194.got - 2010.06.03 17:57:02.
