data_PCOD9534900
_publ_section_title
;
Structure prediction by ZEFSAII (Michael W. Deem and Ramdas Pophale) SiO2 
 PCOD9534900
Probable space group: I M M A
;
_chemical_formula_sum "Si O2"
_cell_formula_units_Z 116
_cell_length_a 24.044983
_cell_length_b 7.314410
_cell_length_c 27.325133
_cell_angle_alpha 90.000000
_cell_angle_beta 90.000000
_cell_angle_gamma 90.000000
_cell_volume 4805.804053
_symmetry_space_group_name_H-M "I M M A"
_symmetry_group_IT_number 74
_symmetry_cell_setting 'orthorhombic'
loop_
_space_group_symop_operation_xyz
x,y,z
-x,1/2-y,z
x,-y,-z
-x,1/2+y,-z
-x,-y,-z
x,1/2+y,-z
-x,y,z
x,1/2-y,z
1/2+x,1/2+y,1/2+z
1/2-x,-y,1/2+z
1/2+x,1/2-y,1/2-z
1/2-x,y,1/2-z
1/2-x,1/2-y,1/2-z
1/2+x,y,1/2-z
1/2-x,1/2+y,1/2+z
1/2+x,-y,1/2+z
loop_
_atom_site_type_symbol
_atom_site_label
_atom_site_fract_x
_atom_site_fract_y
_atom_site_fract_z
Si Si1 0.121436 0.970107 0.790228
Si Si2 0.063236 0.971206 0.694056
Si Si3 0.785000 0.958491 0.591761
Si Si4 0.167584 0.032034 0.057097
Si Si5 0.000000 0.750000 0.454874
Si Si6 0.745835 0.958790 0.304137
Si Si7 0.091378 0.027595 0.418884
Si Si8 0.939402 0.472316 0.115578
O O1 0.125903 0.750000 0.789260
O O2 0.105980 0.034234 0.735824
O O3 0.072973 0.018450 0.828040
O O4 0.179614 0.036672 0.812334
O O5 0.063423 0.750000 0.696685
O O6 0.077833 0.015662 0.638302
O O7 0.000000 0.031279 0.704398
O O8 0.785186 0.750000 0.574340
O O9 0.727435 0.044081 0.573597
O O10 0.844369 0.029751 0.574549
O O11 0.779159 0.957023 0.650893
O O12 0.169432 0.250000 0.067655
O O13 0.113098 0.961958 0.084602
O O14 0.161195 0.000000 0.000000
O O15 0.048588 0.589776 0.449772
O O16 0.765136 0.750000 0.301017
O O17 0.750000 0.043097 0.250000
O O18 0.085153 0.250000 0.425228
O O19 0.939828 0.250000 0.112622
O O20 0.000000 0.536115 0.099597
#
# Coordination Sequence:
#
# PCOD9534900 Si02
#       8
#    16  16  16  16   4  16  16  16
#     4  10  18  32  53  75 104 153 205 254 300 357
#     4   9  16  29  49  75 108 148 200 249 296 346
#     4  10  21  40  63  85 115 154 203 252 297 357
#     4  10  21  39  62  91 119 151 195 250 311 368
#     4  12  22  36  60  90 124 168 206 236 306 368
#     4  11  23  35  49  78 119 157 196 247 307 365
#     4  10  21  37  57  86 124 158 202 257 297 356
#     4   9  17  32  56  84 114 149 198 250 302 360
#
# _framework density 24.13748
#
# number of rings (size 3 to 8) (size 9 to 14) (size 15 to 20)
#    0.000    2.069    2.069    1.862    0.966    4.690 
#    1.241    0.000    0.000    2.069    0.000    0.483 
#    0.000    0.000    0.000    0.000    0.000    0.000 
#
# Total GULP energy -323743.408655 kJ/mol
# GULP energy per Si atom -5581.782908 kJ/mol
# Density = 2.408254 g / cm^3
# Si number density = 24.137480 Si / 1000 Ang^3
#
#
#
# Elastic Constant Matrix: (Units=GPa)
#
#
# Indices 1 2 3 4 5 6 
#
# 1 197.0573 30.3441 36.1980 0.0000 0.0000 0.0000
# 2 30.3441 112.7396 11.1351 0.0000 0.0000 0.0000
# 3 36.1980 11.1351 79.3134 0.0000 0.0000 0.0000
# 4 0.0000 0.0000 0.0000 3.6626 0.0000 0.0000
# 5 0.0000 0.0000 0.0000 0.0000 8.5809 0.0000
# 6 0.0000 0.0000 0.0000 0.0000 0.0000 3.5194
#
#
#
# Elastic Compliance Matrix: (Units=1/GPa)
#
#
# Indices 1 2 3 4 5 6 
#
# 1 0.005721 -0.001300 -0.002428 0.000000 0.000000 0.000000
# 2 -0.001300 0.009290 -0.000711 0.000000 0.000000 0.000000
# 3 -0.002428 -0.000711 0.013816 0.000000 0.000000 0.000000
# 4 0.000000 0.000000 0.000000 0.273031 0.000000 0.000000
# 5 0.000000 0.000000 0.000000 0.000000 0.116539 0.000000
# 6 0.000000 0.000000 0.000000 0.000000 0.000000 0.284140
#
#
# Mechanical properties :
#
#
# Convention : Reuss Voigt Hill
#
# Bulk Modulus (GPa) = 50.12889 60.49608 55.31248
# Shear Modulus (GPa) = 6.96315 23.91478 15.43896
#
# Velocity S-wave (km/s) = 1.70031 3.15107 2.53183
# Velocity P-wave (km/s) = 4.96668 6.19326 5.61357
#
# Compressibility (1/GPa) = 0.01994858
#
# Stress axis : x y z
#
# Youngs Moduli (GPa) = 174.79669 107.64143 72.37791
#
# Poissons Ratio (x) = 0.13993 0.17577
# Poissons Ratio (y) = 0.22723 0.05146
# Poissons Ratio (z) = 0.42449 0.07653
#
# Static dielectric constant tensor:
#      x y z
#    x 1.918150 0.000000 0.000000 
#    y 0.000000 1.918190 0.000000 
#    z 0.000000 0.000000 1.905230 
# 
# From -- ./inp_files/68781.got.cif
#   From: 2010.05.17/outbox.cif.g08.bks.cpg/sg74_35_cif.got.tgz:68781.got - 2010.06.03 17:57:02.
