data_PCOD9534420
_publ_section_title
;
Structure prediction by ZEFSAII (Michael W. Deem and Ramdas Pophale) SiO2 
 PCOD9534420
Probable space group: I M M A
;
_chemical_formula_sum "Si O2"
_cell_formula_units_Z 96
_cell_length_a 9.290716
_cell_length_b 20.339071
_cell_length_c 30.517010
_cell_angle_alpha 90.000000
_cell_angle_beta 90.000000
_cell_angle_gamma 90.000000
_cell_volume 5766.632524
_symmetry_space_group_name_H-M "I M M A"
_symmetry_group_IT_number 74
_symmetry_cell_setting 'orthorhombic'
loop_
_space_group_symop_operation_xyz
x,y,z
-x,1/2-y,z
x,-y,-z
-x,1/2+y,-z
-x,-y,-z
x,1/2+y,-z
-x,y,z
x,1/2-y,z
1/2+x,1/2+y,1/2+z
1/2-x,-y,1/2+z
1/2+x,1/2-y,1/2-z
1/2-x,y,1/2-z
1/2-x,1/2-y,1/2-z
1/2+x,y,1/2-z
1/2-x,1/2+y,1/2+z
1/2+x,-y,1/2+z
loop_
_atom_site_type_symbol
_atom_site_label
_atom_site_fract_x
_atom_site_fract_y
_atom_site_fract_z
Si Si1 0.333653 0.511670 0.293511
Si Si2 0.668632 0.014584 0.881473
Si Si3 0.832292 0.855542 0.619206
Si Si4 0.334581 0.851342 0.706424
Si Si5 0.329391 0.674991 0.979443
Si Si6 0.169564 0.062369 0.967658
O O1 0.500000 0.532245 0.293583
O O2 0.250000 0.533036 0.250000
O O3 0.249694 0.533459 0.336852
O O4 0.332854 0.431549 0.293307
O O5 0.500000 0.031684 0.880265
O O6 0.746677 0.045599 0.923184
O O7 0.677793 0.934952 0.884178
O O8 0.741647 0.832479 0.660974
O O9 0.786556 0.829255 0.571815
O O10 0.000000 0.838501 0.626192
O O11 0.500000 0.830392 0.707849
O O12 0.250000 0.830097 0.750000
O O13 0.500000 0.657710 0.981135
O O14 0.312699 0.750000 0.994343
O O15 0.239110 0.624459 0.008040
O O16 0.000000 0.072036 0.959352
O O17 0.185215 0.000000 0.000000
#
# Coordination Sequence:
#
# PCOD9534420 Si02
#       6
#    16  16  16  16  16  16
#     4   9  16  26  40  63  97 131 163 199 246 299
#     4  10  18  29  48  71  97 130 168 208 252 298
#     4   9  17  29  46  68  93 123 160 204 250 297
#     4   9  16  25  40  62  89 121 157 200 247 295
#     4  10  21  37  55  74  98 131 169 209 255 307
#     4  11  22  34  51  75 103 133 168 211 256 302
#
# _framework density 16.647497999999999
#
# number of rings (size 3 to 8) (size 9 to 14) (size 15 to 20)
#    0.000    2.333    1.667    2.000    0.000    6.333 
#    0.000    0.000    0.000    0.500    0.000    0.000 
#    0.000    0.667    0.000    2.500    0.000    3.833 
#
# Total GULP energy -267905.015184 kJ/mol
# GULP energy per Si atom -5581.354483 kJ/mol
# Density = 1.660961 g / cm^3
# Si number density = 16.647498 Si / 1000 Ang^3
#
#
#
# Elastic Constant Matrix: (Units=GPa)
#
#
# Indices 1 2 3 4 5 6 
#
# 1 151.2764 47.4450 107.8022 0.0000 0.0000 0.0000
# 2 47.4450 43.0917 43.4258 0.0000 0.0000 0.0000
# 3 107.8022 43.4258 158.5371 0.0000 0.0000 0.0000
# 4 0.0000 0.0000 0.0000 -2.0888 0.0000 0.0000
# 5 0.0000 0.0000 0.0000 0.0000 36.9029 0.0000
# 6 0.0000 0.0000 0.0000 0.0000 0.0000 -13.7342
#
#
#
# Elastic Compliance Matrix: (Units=1/GPa)
#
#
# Indices 1 2 3 4 5 6 
#
# 1 0.014775 -0.008485 -0.007722 0.000000 0.000000 0.000000
# 2 -0.008485 0.036928 -0.004345 0.000000 0.000000 0.000000
# 3 -0.007722 -0.004345 0.012749 0.000000 0.000000 0.000000
# 4 0.000000 0.000000 0.000000 -0.478734 0.000000 0.000000
# 5 0.000000 0.000000 0.000000 0.000000 0.027098 0.000000
# 6 0.000000 0.000000 0.000000 0.000000 0.000000 -0.072811
#
#
# Mechanical properties :
#
#
# Convention : Reuss Voigt Hill
#
# Bulk Modulus (GPa) = 42.83429 83.36124 63.09776
# Shear Modulus (GPa) = -12.16225 14.49811 1.16793
#
# Velocity S-wave (km/s) = -2.70585 2.95428 0.83850
# Velocity P-wave (km/s) = 4.00298 7.86258 6.23875
#
# Compressibility (1/GPa) = 0.02334578
#
# Stress axis : x y z
#
# Youngs Moduli (GPa) = 67.68361 27.07996 78.43799
#
# Poissons Ratio (x) = 0.22978 0.60572
# Poissons Ratio (y) = 0.57430 0.34084
# Poissons Ratio (z) = 0.52267 0.11767
#
# Static dielectric constant tensor:
#      x y z
#    x 1.556680 0.000000 0.000000 
#    y 0.000000 1.549500 0.000000 
#    z 0.000000 0.000000 1.541440 
# 
# From -- ./inp_files/64296.got.cif
#   From: 2010.05.17/outbox.cif.g08.bks.cpg/sg74_33_cif.got.tgz:64296.got - 2010.06.03 17:57:02.
