data_PCOD9534413
_publ_section_title
;
Structure prediction by ZEFSAII (Michael W. Deem and Ramdas Pophale) SiO2 
 PCOD9534413
Probable space group: I M M A
;
_chemical_formula_sum "Si O2"
_cell_formula_units_Z 80
_cell_length_a 21.864970
_cell_length_b 9.889073
_cell_length_c 21.730722
_cell_angle_alpha 90.000000
_cell_angle_beta 90.000000
_cell_angle_gamma 90.000000
_cell_volume 4698.709816
_symmetry_space_group_name_H-M "I M M A"
_symmetry_group_IT_number 74
_symmetry_cell_setting 'orthorhombic'
loop_
_space_group_symop_operation_xyz
x,y,z
-x,1/2-y,z
x,-y,-z
-x,1/2+y,-z
-x,-y,-z
x,1/2+y,-z
-x,y,z
x,1/2-y,z
1/2+x,1/2+y,1/2+z
1/2-x,-y,1/2+z
1/2+x,1/2-y,1/2-z
1/2-x,y,1/2-z
1/2-x,1/2-y,1/2-z
1/2+x,y,1/2-z
1/2-x,1/2+y,1/2+z
1/2+x,-y,1/2+z
loop_
_atom_site_type_symbol
_atom_site_label
_atom_site_fract_x
_atom_site_fract_y
_atom_site_fract_z
Si Si1 0.142633 0.750000 0.603664
Si Si2 0.154174 0.476645 0.927035
Si Si3 0.113771 0.250000 0.542106
Si Si4 0.784945 0.250000 0.090428
Si Si5 0.572063 0.521525 0.129609
Si Si6 0.926736 0.250000 0.867021
Si Si7 0.073961 0.250000 0.725399
Si Si8 0.246711 0.250000 0.944426
O O1 0.124676 0.750000 0.530760
O O2 0.215750 0.750000 0.616404
O O3 0.111813 0.613195 0.628028
O O4 0.173324 0.618886 0.897710
O O5 0.100675 0.384477 0.898999
O O6 0.214166 0.383338 0.920130
O O7 0.142457 0.500000 0.000000
O O8 0.081560 0.116523 0.569225
O O9 0.182396 0.250000 0.568364
O O10 0.768908 0.250000 0.017199
O O11 0.500000 0.489437 0.134475
O O12 0.591301 0.618089 0.186250
O O13 0.906141 0.250000 0.795777
O O14 0.000000 0.250000 0.870356
O O15 0.000000 0.250000 0.725609
#
# Coordination Sequence:
#
# PCOD9534413 Si02
#       8
#     8  16   8   8  16   8   8   8
#     4  11  20  29  49  75 100 133 170 209 254 298
#     4   9  17  31  52  78 106 129 151 191 242 290
#     4  10  18  29  47  72 100 135 174 210 250 298
#     4   9  17  30  47  72 103 133 161 192 238 295
#     4  10  20  32  47  69 101 135 169 217 259 286
#     4  10  20  36  59  78  95 127 164 194 233 299
#     4   8  18  38  55  66  87 131 181 205 229 286
#     4   8  15  28  47  69  97 137 175 193 222 289
#
# _framework density 17.025950000000002
#
# number of rings (size 3 to 8) (size 9 to 14) (size 15 to 20)
#    0.000    2.600    0.000    3.600    0.000    6.000 
#    0.000    1.500    0.000   25.200    0.000    0.000 
#    0.000    0.000    0.000    0.000    0.000    0.000 
#
# Total GULP energy -222794.744196 kJ/mol
# GULP energy per Si atom -5569.868605 kJ/mol
# Density = 1.698720 g / cm^3
# Si number density = 17.025950 Si / 1000 Ang^3
#
#
#
# Elastic Constant Matrix: (Units=GPa)
#
#
# Indices 1 2 3 4 5 6 
#
# 1 96.9288 61.6940 30.0643 0.0000 0.0000 0.0000
# 2 61.6940 166.5626 47.2254 0.0000 0.0000 0.0000
# 3 30.0643 47.2254 72.1115 0.0000 0.0000 0.0000
# 4 0.0000 0.0000 0.0000 -8.3160 0.0000 0.0000
# 5 0.0000 0.0000 0.0000 0.0000 4.7381 0.0000
# 6 0.0000 0.0000 0.0000 0.0000 0.0000 -1.2069
#
#
#
# Elastic Compliance Matrix: (Units=1/GPa)
#
#
# Indices 1 2 3 4 5 6 
#
# 1 0.014008 -0.004338 -0.002999 0.000000 0.000000 0.000000
# 2 -0.004338 0.008716 -0.003900 0.000000 0.000000 0.000000
# 3 -0.002999 -0.003900 0.017672 0.000000 0.000000 0.000000
# 4 0.000000 0.000000 0.000000 -0.120250 0.000000 0.000000
# 5 0.000000 0.000000 0.000000 0.000000 0.211054 0.000000
# 6 0.000000 0.000000 0.000000 0.000000 0.000000 -0.828536
#
#
# Mechanical properties :
#
#
# Convention : Reuss Voigt Hill
#
# Bulk Modulus (GPa) = 55.79657 68.17449 61.98553
# Shear Modulus (GPa) = -7.47510 12.15098 2.33794
#
# Velocity S-wave (km/s) = -2.09761 2.67437 1.17309
# Velocity P-wave (km/s) = 5.19385 7.04732 6.19035
#
# Compressibility (1/GPa) = 0.01792225
#
# Stress axis : x y z
#
# Youngs Moduli (GPa) = 71.38596 114.72808 56.58797
#
# Poissons Ratio (x) = 0.49772 0.16972
# Poissons Ratio (y) = 0.30969 0.22067
# Poissons Ratio (z) = 0.21410 0.44739
#
# Static dielectric constant tensor:
#      x y z
#    x 1.562050 0.000000 0.000000 
#    y 0.000000 1.633310 0.000000 
#    z 0.000000 0.000000 1.581650 
# 
# From -- ./inp_files/61404.got.cif
#   From: 2010.05.17/outbox.cif.g08.bks.cpg/sg74_31_cif.got.tgz:61404.got - 2010.06.03 17:57:02.
