data_PCOD9534197
_publ_section_title
;
Structure prediction by ZEFSAII (Michael W. Deem and Ramdas Pophale) SiO2 
 PCOD9534197
Probable space group: I M M A
;
_chemical_formula_sum "Si O2"
_cell_formula_units_Z 80
_cell_length_a 7.581535
_cell_length_b 26.216921
_cell_length_c 21.204452
_cell_angle_alpha 90.000000
_cell_angle_beta 90.000000
_cell_angle_gamma 90.000000
_cell_volume 4214.692388
_symmetry_space_group_name_H-M "I M M A"
_symmetry_group_IT_number 74
_symmetry_cell_setting 'orthorhombic'
loop_
_space_group_symop_operation_xyz
x,y,z
-x,1/2-y,z
x,-y,-z
-x,1/2+y,-z
-x,-y,-z
x,1/2+y,-z
-x,y,z
x,1/2-y,z
1/2+x,1/2+y,1/2+z
1/2-x,-y,1/2+z
1/2+x,1/2-y,1/2-z
1/2-x,y,1/2-z
1/2-x,1/2-y,1/2-z
1/2+x,y,1/2-z
1/2-x,1/2+y,1/2+z
1/2+x,-y,1/2+z
loop_
_atom_site_type_symbol
_atom_site_label
_atom_site_fract_x
_atom_site_fract_y
_atom_site_fract_z
Si Si1 0.699723 0.250000 0.482609
Si Si2 0.711256 0.031612 0.680223
Si Si3 0.215975 0.639982 0.989538
Si Si4 0.284465 0.467153 0.438879
Si Si5 0.200271 0.750000 0.375236
Si Si6 0.287909 0.140126 0.636822
O O1 0.500000 0.250000 0.457787
O O2 0.779969 0.195251 0.466281
O O3 0.690517 0.250000 0.559555
O O4 0.500000 0.034123 0.672781
O O5 0.750000 0.012597 0.750000
O O6 0.778270 0.089809 0.672196
O O7 0.776920 0.995281 0.624279
O O8 0.272719 0.590927 0.950201
O O9 0.000000 0.641183 0.989168
O O10 0.266064 0.634449 0.063213
O O11 0.233194 0.500000 0.500000
O O12 0.500000 0.466717 0.437858
O O13 0.231994 0.803605 0.340775
O O14 0.000000 0.750000 0.397070
O O15 0.500000 0.140013 0.638626
#
# Coordination Sequence:
#
# PCOD9534197 Si02
#       6
#     8  16  16  16   8  16
#     4   8  14  24  40  65  94 119 143 181 229 269
#     4  10  20  32  48  68  92 121 151 188 233 276
#     4   8  12  21  41  67  90 110 143 188 225 258
#     4   9  14  24  45  71  91 112 151 193 226 263
#     4  10  18  26  41  65  90 117 148 187 227 265
#     4   9  16  29  46  63  85 117 153 188 224 263
#
# _framework density 18.981218999999999
#
# number of rings (size 3 to 8) (size 9 to 14) (size 15 to 20)
#    0.000    3.000    2.000    2.100    0.000    0.800 
#    0.000    0.500    0.000    5.400    0.000    0.700 
#    0.000    0.000    0.000    0.000    0.000    0.000 
#
# Total GULP energy -222934.964199 kJ/mol
# GULP energy per Si atom -5573.374105 kJ/mol
# Density = 1.893802 g / cm^3
# Si number density = 18.981219 Si / 1000 Ang^3
#
#
#
# Elastic Constant Matrix: (Units=GPa)
#
#
# Indices 1 2 3 4 5 6 
#
# 1 48.1457 3.3283 0.0881 0.0000 0.0000 0.0000
# 2 3.3283 168.1966 64.9578 0.0000 0.0000 0.0000
# 3 0.0881 64.9578 92.6494 0.0000 0.0000 0.0000
# 4 0.0000 0.0000 0.0000 15.4722 0.0000 0.0000
# 5 0.0000 0.0000 0.0000 0.0000 5.5685 0.0000
# 6 0.0000 0.0000 0.0000 0.0000 0.0000 -20.5499
#
#
#
# Elastic Compliance Matrix: (Units=1/GPa)
#
#
# Indices 1 2 3 4 5 6 
#
# 1 0.020808 -0.000554 0.000369 0.000000 0.000000 0.000000
# 2 -0.000554 0.008168 -0.005726 0.000000 0.000000 0.000000
# 3 0.000369 -0.005726 0.014808 0.000000 0.000000 0.000000
# 4 0.000000 0.000000 0.000000 0.064632 0.000000 0.000000
# 5 0.000000 0.000000 0.000000 0.000000 0.179581 0.000000
# 6 0.000000 0.000000 0.000000 0.000000 0.000000 -0.048662
#
#
# Mechanical properties :
#
#
# Convention : Reuss Voigt Hill
#
# Bulk Modulus (GPa) = 31.28869 49.52669 40.40769
# Shear Modulus (GPa) = 19.09780 16.13934 17.61857
#
# Velocity S-wave (km/s) = 3.17542 2.91912 3.04996
# Velocity P-wave (km/s) = 5.47395 6.12461 5.80840
#
# Compressibility (1/GPa) = 0.03196043
#
# Stress axis : x y z
#
# Youngs Moduli (GPa) = 48.05862 122.43218 67.53282
#
# Poissons Ratio (x) = 0.06785 -0.02490
# Poissons Ratio (y) = 0.02663 0.38669
# Poissons Ratio (z) = -0.01772 0.70105
#
# Static dielectric constant tensor:
#      x y z
#    x 1.727120 0.000000 0.000000 
#    y 0.000000 1.714410 0.000000 
#    z 0.000000 0.000000 1.619440 
# 
# From -- ./inp_files/39786.got.cif
#   From: 2010.05.17/outbox.cif.g08.bks.cpg/sg74_20_cif.got.tgz:39786.got - 2010.06.03 17:57:02.
