data_PCOD9534727
_publ_section_title
;
Structure prediction by ZEFSAII (Michael W. Deem and Ramdas Pophale) SiO2 
 PCOD9534727
Probable space group: I M M A
;
_chemical_formula_sum "Si O2"
_cell_formula_units_Z 48
_cell_length_a 13.968496
_cell_length_b 11.478511
_cell_length_c 14.083777
_cell_angle_alpha 90.000000
_cell_angle_beta 90.000000
_cell_angle_gamma 90.000000
_cell_volume 2258.158088
_symmetry_space_group_name_H-M "I M M A"
_symmetry_group_IT_number 74
_symmetry_cell_setting 'orthorhombic'
loop_
_space_group_symop_operation_xyz
x,y,z
-x,1/2-y,z
x,-y,-z
-x,1/2+y,-z
-x,-y,-z
x,1/2+y,-z
-x,y,z
x,1/2-y,z
1/2+x,1/2+y,1/2+z
1/2-x,-y,1/2+z
1/2+x,1/2-y,1/2-z
1/2-x,y,1/2-z
1/2-x,1/2-y,1/2-z
1/2+x,y,1/2-z
1/2-x,1/2+y,1/2+z
1/2+x,-y,1/2+z
loop_
_atom_site_type_symbol
_atom_site_label
_atom_site_fract_x
_atom_site_fract_y
_atom_site_fract_z
Si Si1 0.786937 0.623781 0.640308
Si Si2 0.000000 0.446736 0.393639
Si Si3 0.000000 0.884195 0.214932
Si Si4 0.791995 0.119105 0.856894
O O1 0.751753 0.750000 0.603720
O O2 0.750000 0.621624 0.750000
O O3 0.752814 0.498428 0.601067
O O4 0.901283 0.620838 0.626085
O O5 0.000000 0.500000 0.500000
O O6 0.000000 0.544301 0.311555
O O7 0.095220 0.903640 0.154400
O O8 0.000000 0.750000 0.243725
O O9 0.775306 0.250000 0.896465
O O10 0.750000 0.125720 0.750000
#
# Coordination Sequence:
#
# PCOD9534727 Si02
#       4
#    16   8   8  16
#     4  10  20  35  54  78 114 153 196 241 286 349
#     4  12  23  35  52  85 124 156 189 236 304 360
#     4  10  18  31  50  77 108 142 182 235 286 337
#     4   9  16  29  51  75 100 136 190 233 276 334
#
# _framework density 21.256264000000002
#
# number of rings (size 3 to 8) (size 9 to 14) (size 15 to 20)
#    0.000    2.000    6.667    0.500    0.000    1.333 
#    0.000    0.833    0.000    0.000    0.000    4.667 
#    0.000    5.333    0.000    0.000    0.000    0.000 
#
# Total GULP energy -133633.368991 kJ/mol
# GULP energy per Si atom -5568.057041 kJ/mol
# Density = 2.120788 g / cm^3
# Si number density = 21.256264 Si / 1000 Ang^3
#
#
#
# Elastic Constant Matrix: (Units=GPa)
#
#
# Indices 1 2 3 4 5 6 
#
# 1 112.4670 68.6488 16.7287 0.0000 0.0000 0.0000
# 2 68.6488 246.9980 35.5063 0.0000 0.0000 0.0000
# 3 16.7287 35.5063 105.5682 0.0000 0.0000 0.0000
# 4 0.0000 0.0000 0.0000 -44.5538 0.0000 0.0000
# 5 0.0000 0.0000 0.0000 0.0000 -120.0180 0.0000
# 6 0.0000 0.0000 0.0000 0.0000 0.0000 -7.4371
#
#
#
# Elastic Compliance Matrix: (Units=1/GPa)
#
#
# Indices 1 2 3 4 5 6 
#
# 1 0.010762 -0.002885 -0.000735 0.000000 0.000000 0.000000
# 2 -0.002885 0.005028 -0.001234 0.000000 0.000000 0.000000
# 3 -0.000735 -0.001234 0.010004 0.000000 0.000000 0.000000
# 4 0.000000 0.000000 0.000000 -0.022445 0.000000 0.000000
# 5 0.000000 0.000000 0.000000 0.000000 -0.008332 0.000000
# 6 0.000000 0.000000 0.000000 0.000000 0.000000 -0.134461
#
#
# Mechanical properties :
#
#
# Convention : Reuss Voigt Hill
#
# Bulk Modulus (GPa) = 62.16754 78.53343 70.35048
# Shear Modulus (GPa) = -40.20144 -11.45848 -25.82996
#
# Velocity S-wave (km/s) = -4.35360 -2.32429 -3.48971
# Velocity P-wave (km/s) = 2.00959 5.46105 4.11470
#
# Compressibility (1/GPa) = 0.01608557
#
# Stress axis : x y z
#
# Youngs Moduli (GPa) = 92.91882 198.88808 99.96015
#
# Poissons Ratio (x) = 0.57389 0.07346
# Poissons Ratio (y) = 0.26812 0.12333
# Poissons Ratio (z) = 0.06829 0.24539
#
# Static dielectric constant tensor:
#      x y z
#    x 1.772720 0.000000 0.000000 
#    y 0.000000 1.843680 0.000000 
#    z 0.000000 0.000000 1.625210 
# 
# From -- ./inp_files/29822.got.cif
#   From: 2010.05.17/outbox.cif.g08.bks.cpg/sg74_15_cif.got.tgz:29822.got - 2010.06.03 17:57:02.
