data_PCOD9534591
_publ_section_title
;
Structure prediction by ZEFSAII (Michael W. Deem and Ramdas Pophale) SiO2 
 PCOD9534591
Probable space group: I M M A
;
_chemical_formula_sum "Si O2"
_cell_formula_units_Z 104
_cell_length_a 25.149206
_cell_length_b 8.821014
_cell_length_c 25.510794
_cell_angle_alpha 90.000000
_cell_angle_beta 90.000000
_cell_angle_gamma 90.000000
_cell_volume 5659.352762
_symmetry_space_group_name_H-M "I M M A"
_symmetry_group_IT_number 74
_symmetry_cell_setting 'orthorhombic'
loop_
_space_group_symop_operation_xyz
x,y,z
-x,1/2-y,z
x,-y,-z
-x,1/2+y,-z
-x,-y,-z
x,1/2+y,-z
-x,y,z
x,1/2-y,z
1/2+x,1/2+y,1/2+z
1/2-x,-y,1/2+z
1/2+x,1/2-y,1/2-z
1/2-x,y,1/2-z
1/2-x,1/2-y,1/2-z
1/2+x,y,1/2-z
1/2-x,1/2+y,1/2+z
1/2+x,-y,1/2+z
loop_
_atom_site_type_symbol
_atom_site_label
_atom_site_fract_x
_atom_site_fract_y
_atom_site_fract_z
Si Si1 0.396708 0.577979 0.445467
Si Si2 0.561258 0.932331 0.729851
Si Si3 0.500000 0.571605 0.558422
Si Si4 0.937749 0.432329 0.555931
Si Si5 0.156212 0.073053 0.839331
Si Si6 0.233155 0.924047 0.310600
Si Si7 0.112950 0.934341 0.332595
O O1 0.382313 0.500000 0.500000
O O2 0.413210 0.750000 0.457163
O O3 0.446122 0.491978 0.418898
O O4 0.353220 0.576981 0.401206
O O5 0.500000 0.976838 0.716053
O O6 0.563532 0.750000 0.728901
O O7 0.607875 0.996547 0.692136
O O8 0.575732 0.993783 0.787880
O O9 0.500000 0.750000 0.557877
O O10 0.500000 0.500000 0.500000
O O11 0.919573 0.500000 0.500000
O O12 0.935343 0.250000 0.552129
O O13 0.905652 0.475710 0.608541
O O14 0.000000 0.475740 0.562861
O O15 0.157417 0.250000 0.820568
O O16 0.214162 0.999057 0.833379
O O17 0.231092 0.750000 0.330835
O O18 0.250000 0.918552 0.250000
O O19 0.173977 0.983730 0.320604
O O20 0.110108 0.750000 0.327745
#
# Coordination Sequence:
#
# PCOD9534591 Si02
#       7
#    16  16   8  16  16  16  16
#     4  10  20  34  52  74 101 134 175 216 262 314
#     4  11  24  37  51  79 115 144 172 217 277 325
#     4  10  18  30  50  72  98 130 168 210 257 308
#     4   9  18  32  52  80 112 147 184 221 266 319
#     4  10  21  37  57  79 103 139 183 221 260 320
#     4   9  16  32  58  82 103 134 180 228 268 308
#     4  10  19  35  60  83 107 142 186 227 265 322
#
# _framework density 18.376660000000001
#
# number of rings (size 3 to 8) (size 9 to 14) (size 15 to 20)
#    0.000    2.154    1.538    3.000    1.077    3.692 
#    0.000    3.846    0.000    0.000    0.000    0.000 
#    0.000    0.000    0.000    0.000    0.000    0.000 
#
# Total GULP energy -289616.896203 kJ/mol
# GULP energy per Si atom -5569.555696 kJ/mol
# Density = 1.833483 g / cm^3
# Si number density = 18.376660 Si / 1000 Ang^3
#
#
#
# Elastic Constant Matrix: (Units=GPa)
#
#
# Indices 1 2 3 4 5 6 
#
# 1 111.9100 22.3169 36.2338 0.0000 0.0000 0.0000
# 2 22.3169 56.4545 19.1747 0.0000 0.0000 0.0000
# 3 36.2338 19.1747 93.3644 0.0000 0.0000 0.0000
# 4 0.0000 0.0000 0.0000 23.8371 0.0000 0.0000
# 5 0.0000 0.0000 0.0000 0.0000 31.1761 0.0000
# 6 0.0000 0.0000 0.0000 0.0000 0.0000 4.7913
#
#
#
# Elastic Compliance Matrix: (Units=1/GPa)
#
#
# Indices 1 2 3 4 5 6 
#
# 1 0.010680 -0.003025 -0.003523 0.000000 0.000000 0.000000
# 2 -0.003025 0.019898 -0.002913 0.000000 0.000000 0.000000
# 3 -0.003523 -0.002913 0.012676 0.000000 0.000000 0.000000
# 4 0.000000 0.000000 0.000000 0.041951 0.000000 0.000000
# 5 0.000000 0.000000 0.000000 0.000000 0.032076 0.000000
# 6 0.000000 0.000000 0.000000 0.000000 0.000000 0.208713
#
#
# Mechanical properties :
#
#
# Convention : Reuss Voigt Hill
#
# Bulk Modulus (GPa) = 41.09769 46.35330 43.72549
# Shear Modulus (GPa) = 14.16318 24.22778 19.19548
#
# Velocity S-wave (km/s) = 2.77919 3.63492 3.23547
# Velocity P-wave (km/s) = 5.71937 6.54947 6.14844
#
# Compressibility (1/GPa) = 0.02433227
#
# Stress axis : x y z
#
# Youngs Moduli (GPa) = 93.63453 50.25508 78.88723
#
# Poissons Ratio (x) = 0.15203 0.27796
# Poissons Ratio (y) = 0.28325 0.22977
# Poissons Ratio (z) = 0.32992 0.14638
#
# Static dielectric constant tensor:
#      x y z
#    x 1.699770 0.000000 0.000000 
#    y 0.000000 1.645890 0.000000 
#    z 0.000000 0.000000 1.643230 
# 
# From -- ./inp_files/68656.got.cif
#   From: 2010.05.17/outbox.cif.g08.bks.cpg/sg74_35_cif.got.tgz:68656.got - 2010.06.03 17:57:02.
