data_PCOD9534574
_publ_section_title
;
Structure prediction by ZEFSAII (Michael W. Deem and Ramdas Pophale) SiO2 
 PCOD9534574
Probable space group: I M M A
;
_chemical_formula_sum "Si O2"
_cell_formula_units_Z 104
_cell_length_a 21.694139
_cell_length_b 7.442670
_cell_length_c 30.621633
_cell_angle_alpha 90.000000
_cell_angle_beta 90.000000
_cell_angle_gamma 90.000000
_cell_volume 4944.239830
_symmetry_space_group_name_H-M "I M M A"
_symmetry_group_IT_number 74
_symmetry_cell_setting 'orthorhombic'
loop_
_space_group_symop_operation_xyz
x,y,z
-x,1/2-y,z
x,-y,-z
-x,1/2+y,-z
-x,-y,-z
x,1/2+y,-z
-x,y,z
x,1/2-y,z
1/2+x,1/2+y,1/2+z
1/2-x,-y,1/2+z
1/2+x,1/2-y,1/2-z
1/2-x,y,1/2-z
1/2-x,1/2-y,1/2-z
1/2+x,y,1/2-z
1/2-x,1/2+y,1/2+z
1/2+x,-y,1/2+z
loop_
_atom_site_type_symbol
_atom_site_label
_atom_site_fract_x
_atom_site_fract_y
_atom_site_fract_z
Si Si1 0.777463 0.029927 0.128420
Si Si2 0.070397 0.536992 0.451713
Si Si3 0.635121 0.465616 0.448395
Si Si4 0.000000 0.535816 0.948208
Si Si5 0.312426 0.031502 0.275394
Si Si6 0.069699 0.530370 0.719580
Si Si7 0.860803 0.044042 0.365012
O O1 0.776436 0.250000 0.126529
O O2 0.813081 0.968687 0.085084
O O3 0.809497 0.979499 0.173939
O O4 0.707181 0.964097 0.131723
O O5 0.095733 0.500000 0.500000
O O6 0.068851 0.750000 0.445489
O O7 0.108767 0.458636 0.412283
O O8 0.000000 0.467914 0.450748
O O9 0.645510 0.500000 0.500000
O O10 0.633218 0.250000 0.444596
O O11 0.567023 0.533644 0.434099
O O12 0.000000 0.750000 0.940280
O O13 0.000000 0.500000 0.000000
O O14 0.311607 0.250000 0.273841
O O15 0.250000 0.973461 0.250000
O O16 0.375405 0.973982 0.251953
O O17 0.067308 0.750000 0.720753
O O18 0.092808 0.471137 0.671482
O O19 0.000000 0.469062 0.728725
O O20 0.850570 0.250000 0.350961
#
# Coordination Sequence:
#
# PCOD9534574 Si02
#       7
#    16  16  16   8  16  16  16
#     4   9  17  28  44  67  95 127 160 195 238 288
#     4  10  21  36  52  71  97 128 162 200 243 287
#     4   9  17  30  46  66  92 121 155 194 237 283
#     4   8  14  26  44  62  84 116 152 188 230 278
#     4   9  14  25  42  62  93 130 160 190 237 291
#     4   9  16  25  41  68  97 124 159 202 243 285
#     4  10  18  30  49  71  97 129 163 198 240 289
#
# _framework density 21.034578
#
# number of rings (size 3 to 8) (size 9 to 14) (size 15 to 20)
#    0.000    2.769    1.538    0.923    0.000    2.154 
#    1.385    2.308    0.000    0.000    0.000    3.231 
#    0.000    0.000    0.000    0.000    0.000    0.000 
#
# Total GULP energy -290018.960058 kJ/mol
# GULP energy per Si atom -5577.287693 kJ/mol
# Density = 2.098670 g / cm^3
# Si number density = 21.034578 Si / 1000 Ang^3
#
#
#
# Elastic Constant Matrix: (Units=GPa)
#
#
# Indices 1 2 3 4 5 6 
#
# 1 184.2162 4.1992 94.1440 0.0000 0.0000 0.0000
# 2 4.1992 65.2292 -7.3518 0.0000 0.0000 0.0000
# 3 94.1440 -7.3518 140.5233 0.0000 0.0000 0.0000
# 4 0.0000 0.0000 0.0000 5.8261 0.0000 0.0000
# 5 0.0000 0.0000 0.0000 0.0000 41.6132 0.0000
# 6 0.0000 0.0000 0.0000 0.0000 0.0000 9.3665
#
#
#
# Elastic Compliance Matrix: (Units=1/GPa)
#
#
# Indices 1 2 3 4 5 6 
#
# 1 0.008343 -0.001174 -0.005651 0.000000 0.000000 0.000000
# 2 -0.001174 0.015587 0.001602 0.000000 0.000000 0.000000
# 3 -0.005651 0.001602 0.010986 0.000000 0.000000 0.000000
# 4 0.000000 0.000000 0.000000 0.171642 0.000000 0.000000
# 5 0.000000 0.000000 0.000000 0.000000 0.024031 0.000000
# 6 0.000000 0.000000 0.000000 0.000000 0.000000 0.106763
#
#
# Mechanical properties :
#
#
# Convention : Reuss Voigt Hill
#
# Bulk Modulus (GPa) = 40.86666 63.55019 52.20842
# Shear Modulus (GPa) = 14.04677 31.29297 22.66987
#
# Velocity S-wave (km/s) = 2.58697 3.86125 3.28646
# Velocity P-wave (km/s) = 5.32858 7.08215 6.26700
#
# Compressibility (1/GPa) = 0.02446983
#
# Stress axis : x y z
#
# Youngs Moduli (GPa) = 119.86015 64.15736 91.02589
#
# Poissons Ratio (x) = 0.07532 0.51438
# Poissons Ratio (y) = 0.14071 -0.14582
# Poissons Ratio (z) = 0.67731 -0.10278
#
# Static dielectric constant tensor:
#      x y z
#    x 1.761610 0.000000 0.000000 
#    y 0.000000 2.058910 0.000000 
#    z 0.000000 0.000000 1.715240 
# 
# From -- ./inp_files/73352.got.cif
#   From: 2010.05.17/outbox.cif.g08.bks.cpg/sg74_37_cif.got.tgz:73352.got - 2010.06.03 17:57:02.
