data_PCOD9534411
_publ_section_title
;
Structure prediction by ZEFSAII (Michael W. Deem and Ramdas Pophale) SiO2 
 PCOD9534411
Probable space group: I M M A
;
_chemical_formula_sum "Si O2"
_cell_formula_units_Z 72
_cell_length_a 7.407183
_cell_length_b 28.452143
_cell_length_c 15.172645
_cell_angle_alpha 90.000000
_cell_angle_beta 90.000000
_cell_angle_gamma 90.000000
_cell_volume 3197.638423
_symmetry_space_group_name_H-M "I M M A"
_symmetry_group_IT_number 74
_symmetry_cell_setting 'orthorhombic'
loop_
_space_group_symop_operation_xyz
x,y,z
-x,1/2-y,z
x,-y,-z
-x,1/2+y,-z
-x,-y,-z
x,1/2+y,-z
-x,y,z
x,1/2-y,z
1/2+x,1/2+y,1/2+z
1/2-x,-y,1/2+z
1/2+x,1/2-y,1/2-z
1/2-x,y,1/2-z
1/2-x,1/2-y,1/2-z
1/2+x,y,1/2-z
1/2-x,1/2+y,1/2+z
1/2+x,-y,1/2+z
loop_
_atom_site_type_symbol
_atom_site_label
_atom_site_fract_x
_atom_site_fract_y
_atom_site_fract_z
Si Si1 0.216226 0.750000 0.644853
Si Si2 0.785457 0.919561 0.655769
Si Si3 0.784345 0.878884 0.351142
Si Si4 0.279136 0.161348 0.029738
Si Si5 0.219324 0.016948 0.598858
O O1 0.250000 0.750000 0.750000
O O2 0.282090 0.795578 0.590587
O O3 0.000000 0.750000 0.637344
O O4 0.750000 0.896693 0.750000
O O5 0.720200 0.886701 0.577556
O O6 0.000000 0.922997 0.643809
O O7 0.713494 0.972555 0.654942
O O8 0.750000 0.866086 0.250000
O O9 0.721707 0.843345 0.427940
O O10 0.714846 0.931874 0.371759
O O11 0.000000 0.881139 0.360784
O O12 0.500000 0.162795 0.031045
O O13 0.000000 0.019526 0.603535
O O14 0.262627 0.000000 0.500000
#
# Coordination Sequence:
#
# PCOD9534411 Si02
#       5
#     8  16  16  16  16
#     4  10  20  36  57  80 102 128 161 200 247 298
#     4  10  18  29  47  71  96 126 161 198 240 288
#     4  10  19  33  52  73  98 132 170 206 243 287
#     4   9  18  33  53  73  97 130 166 198 239 299
#     4   9  15  27  48  69  93 129 169 200 233 285
#
# _framework density 22.516618999999999
#
# number of rings (size 3 to 8) (size 9 to 14) (size 15 to 20)
#    0.000    2.444    2.222    1.333    0.000    0.000 
#    0.000    2.778    0.000    1.333    0.000    0.000 
#    0.000    0.000    0.000    0.000    0.000    0.000 
#
# Total GULP energy -200884.767747 kJ/mol
# GULP energy per Si atom -5580.132437 kJ/mol
# Density = 2.246537 g / cm^3
# Si number density = 22.516619 Si / 1000 Ang^3
#
#
#
# Elastic Constant Matrix: (Units=GPa)
#
#
# Indices 1 2 3 4 5 6 
#
# 1 74.0839 8.5285 -4.4395 0.0000 0.0000 0.0000
# 2 8.5285 114.3072 82.0030 0.0000 0.0000 0.0000
# 3 -4.4395 82.0030 215.7190 -0.0002 0.0000 0.0000
# 4 0.0000 0.0000 -0.0002 31.3601 0.0000 0.0000
# 5 0.0000 0.0000 0.0000 0.0000 19.5760 0.0000
# 6 0.0000 0.0000 0.0000 0.0000 0.0000 -9.5123
#
#
#
# Elastic Compliance Matrix: (Units=1/GPa)
#
#
# Indices 1 2 3 4 5 6 
#
# 1 0.013748 -0.001689 0.000925 0.000000 0.000000 0.000000
# 2 -0.001689 0.012236 -0.004686 0.000000 0.000000 0.000000
# 3 0.000925 -0.004686 0.006436 0.000000 0.000000 0.000000
# 4 0.000000 0.000000 0.000000 0.031888 0.000000 0.000000
# 5 0.000000 0.000000 0.000000 0.000000 0.051083 0.000000
# 6 0.000000 0.000000 0.000000 0.000000 0.000000 -0.105127
#
#
# Mechanical properties :
#
#
# Convention : Reuss Voigt Hill
#
# Bulk Modulus (GPa) = 46.46958 64.03269 55.25114
# Shear Modulus (GPa) = 176.43819 29.48596 102.96208
#
# Velocity S-wave (km/s) = 8.86167 3.62266 6.76952
# Velocity P-wave (km/s) = 11.19769 6.78217 9.25706
#
# Compressibility (1/GPa) = 0.02151945
#
# Stress axis : x y z
#
# Youngs Moduli (GPa) = 72.73710 81.72423 155.37314
#
# Poissons Ratio (x) = 0.13807 -0.14375
# Poissons Ratio (y) = 0.12289 0.72812
# Poissons Ratio (z) = -0.06729 0.38298
#
# Static dielectric constant tensor:
#      x y z
#    x 1.890290 0.000000 0.000000 
#    y 0.000000 1.830640 0.000000 
#    z 0.000000 0.000000 1.860400 
# 
# From -- ./inp_files/18791.got.cif
#   From: 2010.05.17/outbox.cif.g08.bks.cpg/sg74_10_cif.got.tgz:18791.got - 2010.06.03 17:57:02.
