data_PCOD9534394
_publ_section_title
;
Structure prediction by ZEFSAII (Michael W. Deem and Ramdas Pophale) SiO2 
 PCOD9534394
Probable space group: I M M A
;
_chemical_formula_sum "Si O2"
_cell_formula_units_Z 88
_cell_length_a 9.047233
_cell_length_b 21.414618
_cell_length_c 25.666878
_cell_angle_alpha 90.000000
_cell_angle_beta 90.000000
_cell_angle_gamma 90.000000
_cell_volume 4972.778936
_symmetry_space_group_name_H-M "I M M A"
_symmetry_group_IT_number 74
_symmetry_cell_setting 'orthorhombic'
loop_
_space_group_symop_operation_xyz
x,y,z
-x,1/2-y,z
x,-y,-z
-x,1/2+y,-z
-x,-y,-z
x,1/2+y,-z
-x,y,z
x,1/2-y,z
1/2+x,1/2+y,1/2+z
1/2-x,-y,1/2+z
1/2+x,1/2-y,1/2-z
1/2-x,y,1/2-z
1/2-x,1/2-y,1/2-z
1/2+x,y,1/2-z
1/2-x,1/2+y,1/2+z
1/2+x,-y,1/2+z
loop_
_atom_site_type_symbol
_atom_site_label
_atom_site_fract_x
_atom_site_fract_y
_atom_site_fract_z
Si Si1 0.177123 0.750000 0.692868
Si Si2 0.676303 0.139235 0.695772
Si Si3 0.175920 0.952450 0.452434
Si Si4 0.823863 0.616285 0.693367
Si Si5 0.326734 0.505166 0.348095
Si Si6 0.823528 0.680146 0.412964
O O1 0.250000 0.750000 0.750000
O O2 0.215613 0.816561 0.667811
O O3 0.000000 0.750000 0.699655
O O4 0.500000 0.149933 0.697021
O O5 0.750000 0.160491 0.750000
O O6 0.703135 0.064622 0.688991
O O7 0.744072 0.168112 0.642729
O O8 0.276592 0.974142 0.404991
O O9 0.205432 0.877281 0.453117
O O10 0.000000 0.958819 0.440479
O O11 0.204305 0.000000 0.500000
O O12 0.750000 0.615988 0.750000
O O13 0.764187 0.555973 0.665149
O O14 0.000000 0.612541 0.698295
O O15 0.500000 0.491704 0.345257
O O16 0.784445 0.750000 0.431644
O O17 0.000000 0.678836 0.403171
#
# Coordination Sequence:
#
# PCOD9534394 Si02
#       6
#     8  16  16  16  16  16
#     4   8  16  28  42  62  88 122 162 198 236 284
#     4  10  20  32  47  70 102 137 172 205 242 288
#     4   9  18  34  56  77  97 125 162 205 254 304
#     4  10  18  29  46  68  96 129 165 203 245 294
#     4  10  20  32  48  72  98 128 165 206 250 295
#     4   9  18  33  53  76 101 130 166 206 248 296
#
# _framework density 17.696342000000001
#
# number of rings (size 3 to 8) (size 9 to 14) (size 15 to 20)
#    0.000    2.545    0.000    2.182    0.000    5.455 
#    0.000    0.000    2.000    0.000    0.000    0.000 
#    0.000    0.000    0.000    0.000    0.000    0.000 
#
# Total GULP energy -244940.861631 kJ/mol
# GULP energy per Si atom -5566.837764 kJ/mol
# Density = 1.765606 g / cm^3
# Si number density = 17.696342 Si / 1000 Ang^3
#
#
#
# Elastic Constant Matrix: (Units=GPa)
#
#
# Indices 1 2 3 4 5 6 
#
# 1 28.3390 41.2446 15.0269 0.0000 0.0000 0.0000
# 2 41.2446 148.2966 24.2453 0.0000 0.0000 0.0000
# 3 15.0269 24.2453 37.6105 0.0000 0.0000 0.0000
# 4 0.0000 0.0000 0.0000 16.6807 0.0000 0.0000
# 5 0.0000 0.0000 0.0000 0.0000 22.0051 0.0000
# 6 0.0000 0.0000 0.0000 0.0000 0.0000 19.2461
#
#
#
# Elastic Compliance Matrix: (Units=1/GPa)
#
#
# Indices 1 2 3 4 5 6 
#
# 1 0.067438 -0.016041 -0.016603 0.000000 0.000000 0.000000
# 2 -0.016041 0.011353 -0.000910 0.000000 0.000000 0.000000
# 3 -0.016603 -0.000910 0.033808 0.000000 0.000000 0.000000
# 4 0.000000 0.000000 0.000000 0.059949 0.000000 0.000000
# 5 0.000000 0.000000 0.000000 0.000000 0.045444 0.000000
# 6 0.000000 0.000000 0.000000 0.000000 0.000000 0.051958
#
#
# Mechanical properties :
#
#
# Convention : Reuss Voigt Hill
#
# Bulk Modulus (GPa) = 21.98234 41.69775 31.84004
# Shear Modulus (GPa) = 14.19552 20.50167 17.34860
#
# Velocity S-wave (km/s) = 2.83534 3.40741 3.13445
# Velocity P-wave (km/s) = 4.81329 6.25257 5.57953
#
# Compressibility (1/GPa) = 0.04549107
#
# Stress axis : x y z
#
# Youngs Moduli (GPa) = 14.82848 88.07877 29.57852
#
# Poissons Ratio (x) = 1.41292 0.49109
# Poissons Ratio (y) = 0.23787 0.02691
# Poissons Ratio (z) = 0.24620 0.08013
#
# Static dielectric constant tensor:
#      x y z
#    x 1.584430 0.000000 0.000000 
#    y 0.000000 1.688330 0.000000 
#    z 0.000000 0.000000 1.581390 
# 
# From -- ./inp_files/56960.got.cif
#   From: 2010.05.17/outbox.cif.g08.bks.cpg/sg74_29_cif.got.tgz:56960.got - 2010.06.03 17:57:02.
