data_PCOD9534438
_publ_section_title
;
Structure prediction by ZEFSAII (Michael W. Deem and Ramdas Pophale) SiO2 
 PCOD9534438
Probable space group: I M M A
;
_chemical_formula_sum "Si O2"
_cell_formula_units_Z 112
_cell_length_a 21.230292
_cell_length_b 24.197164
_cell_length_c 12.559385
_cell_angle_alpha 90.000000
_cell_angle_beta 90.000000
_cell_angle_gamma 90.000000
_cell_volume 6451.917554
_symmetry_space_group_name_H-M "I M M A"
_symmetry_group_IT_number 74
_symmetry_cell_setting 'orthorhombic'
loop_
_space_group_symop_operation_xyz
x,y,z
-x,1/2-y,z
x,-y,-z
-x,1/2+y,-z
-x,-y,-z
x,1/2+y,-z
-x,y,z
x,1/2-y,z
1/2+x,1/2+y,1/2+z
1/2-x,-y,1/2+z
1/2+x,1/2-y,1/2-z
1/2-x,y,1/2-z
1/2-x,1/2-y,1/2-z
1/2+x,y,1/2-z
1/2-x,1/2+y,1/2+z
1/2+x,-y,1/2+z
loop_
_atom_site_type_symbol
_atom_site_label
_atom_site_fract_x
_atom_site_fract_y
_atom_site_fract_z
Si Si1 0.367269 0.687299 0.409997
Si Si2 0.571045 0.504562 0.332504
Si Si3 0.723508 0.810488 0.002712
Si Si4 0.679965 0.369085 0.798771
Si Si5 0.140798 0.010863 0.615626
Si Si6 0.882240 0.919237 0.986281
Si Si7 0.254847 0.917826 0.875920
O O1 0.391097 0.750000 0.403363
O O2 0.296148 0.689962 0.457495
O O3 0.361126 0.657039 0.295921
O O4 0.400252 0.643484 0.487548
O O5 0.500000 0.526212 0.325902
O O6 0.599140 0.493500 0.216770
O O7 0.613273 0.546662 0.402887
O O8 0.573060 0.449403 0.402978
O O9 0.708958 0.750000 0.957745
O O10 0.715070 0.862504 0.925607
O O11 0.685342 0.823370 0.109536
O O12 0.750000 0.379268 0.750000
O O13 0.657879 0.425789 0.854913
O O14 0.202752 0.972221 0.610013
O O15 0.110120 0.000000 0.500000
O O16 0.812350 0.923867 0.935369
O O17 0.250000 0.909968 0.750000
#
# Coordination Sequence:
#
# PCOD9534438 Si02
#       7
#    16  16  16  16  16  16  16
#     4   9  17  30  51  81 113 143 177 223 282 339
#     4  11  24  40  58  79 110 152 195 233 279 336
#     4   9  18  30  45  71 111 153 185 215 269 343
#     4  10  18  29  48  76 112 148 179 224 276 339
#     4  12  23  34  55  84 115 146 187 233 290 334
#     4  10  20  35  58  83 111 145 181 229 284 332
#     4  11  21  31  51  83 119 144 181 230 282 342
#
# _framework density 17.359179000000001
#
# number of rings (size 3 to 8) (size 9 to 14) (size 15 to 20)
#    0.000    1.714    4.286    1.714    2.000    2.286 
#    0.000    0.000    0.000    1.714    0.000    0.000 
#    0.000    1.143    0.000    0.000    0.000    0.000 
#
# Total GULP energy -312009.921081 kJ/mol
# GULP energy per Si atom -5571.605734 kJ/mol
# Density = 1.731967 g / cm^3
# Si number density = 17.359179 Si / 1000 Ang^3
#
#
#
# Elastic Constant Matrix: (Units=GPa)
#
#
# Indices 1 2 3 4 5 6 
#
# 1 34.3933 15.0165 23.7368 0.0000 0.0000 0.0000
# 2 15.0165 130.0415 40.5427 0.0000 0.0000 0.0000
# 3 23.7368 40.5427 127.4791 0.0000 0.0000 0.0000
# 4 0.0000 0.0000 0.0000 22.1615 0.0000 0.0000
# 5 0.0000 0.0000 0.0000 0.0000 -13.4561 0.0000
# 6 0.0000 0.0000 0.0000 0.0000 0.0000 4.2441
#
#
#
# Elastic Compliance Matrix: (Units=1/GPa)
#
#
# Indices 1 2 3 4 5 6 
#
# 1 0.033901 -0.002161 -0.005625 0.000000 0.000000 0.000000
# 2 -0.002161 0.008674 -0.002356 0.000000 0.000000 0.000000
# 3 -0.005625 -0.002356 0.009641 0.000000 0.000000 0.000000
# 4 0.000000 0.000000 0.000000 0.045123 0.000000 0.000000
# 5 0.000000 0.000000 0.000000 0.000000 -0.074316 0.000000
# 6 0.000000 0.000000 0.000000 0.000000 0.000000 0.235622
#
#
# Mechanical properties :
#
#
# Convention : Reuss Voigt Hill
#
# Bulk Modulus (GPa) = 31.31696 50.05621 40.68659
# Shear Modulus (GPa) = 17.26669 16.76443 17.01556
#
# Velocity S-wave (km/s) = 3.15726 3.11100 3.13422
# Velocity P-wave (km/s) = 5.60097 6.46550 6.04870
#
# Compressibility (1/GPa) = 0.03193158
#
# Stress axis : x y z
#
# Youngs Moduli (GPa) = 29.49747 115.28717 103.72148
#
# Poissons Ratio (x) = 0.24913 0.58345
# Poissons Ratio (y) = 0.06374 0.24439
# Poissons Ratio (z) = 0.16593 0.27164
#
# Static dielectric constant tensor:
#      x y z
#    x 1.586120 0.000000 0.000000 
#    y 0.000000 1.619310 0.000000 
#    z 0.000000 0.000000 1.607700 
# 
# From -- ./inp_files/25531.got.cif
#   From: 2010.05.17/outbox.cif.g08.bks.cpg/sg74_13_cif.got.tgz:25531.got - 2010.06.03 17:57:02.
