data_PCOD9534585
_publ_section_title
;
Structure prediction by ZEFSAII (Michael W. Deem and Ramdas Pophale) SiO2 
 PCOD9534585
Probable space group: I M M A
;
_chemical_formula_sum "Si O2"
_cell_formula_units_Z 88
_cell_length_a 8.508294
_cell_length_b 20.300415
_cell_length_c 31.051765
_cell_angle_alpha 90.000000
_cell_angle_beta 90.000000
_cell_angle_gamma 90.000000
_cell_volume 5363.319823
_symmetry_space_group_name_H-M "I M M A"
_symmetry_group_IT_number 74
_symmetry_cell_setting 'orthorhombic'
loop_
_space_group_symop_operation_xyz
x,y,z
-x,1/2-y,z
x,-y,-z
-x,1/2+y,-z
-x,-y,-z
x,1/2+y,-z
-x,y,z
x,1/2-y,z
1/2+x,1/2+y,1/2+z
1/2-x,-y,1/2+z
1/2+x,1/2-y,1/2-z
1/2-x,y,1/2-z
1/2-x,1/2-y,1/2-z
1/2+x,y,1/2-z
1/2-x,1/2+y,1/2+z
1/2+x,-y,1/2+z
loop_
_atom_site_type_symbol
_atom_site_label
_atom_site_fract_x
_atom_site_fract_y
_atom_site_fract_z
Si Si1 0.184106 0.175325 0.919832
Si Si2 0.811407 0.608875 0.298449
Si Si3 0.313628 0.457496 0.457890
Si Si4 0.183444 0.955121 0.382557
Si Si5 0.187254 0.250000 0.799047
Si Si6 0.684912 0.177063 0.014761
O O1 0.219684 0.250000 0.905348
O O2 0.291183 0.118342 0.900958
O O3 0.000000 0.161991 0.910790
O O4 0.213942 0.173786 0.971072
O O5 0.750000 0.598305 0.250000
O O6 0.765294 0.552788 0.332804
O O7 0.747453 0.679532 0.315225
O O8 0.000000 0.612954 0.297293
O O9 0.260399 0.500000 0.500000
O O10 0.500000 0.448456 0.462266
O O11 0.275771 0.497325 0.414579
O O12 0.231518 0.386526 0.458074
O O13 0.000000 0.972642 0.384007
O O14 0.250000 0.250000 0.750000
O O15 0.000000 0.250000 0.800484
O O16 0.500000 0.173007 0.003477
O O17 0.711297 0.250000 0.034231
#
# Coordination Sequence:
#
# PCOD9534585 Si02
#       6
#    16  16  16  16   8  16
#     4  10  20  32  46  68  97 129 169 211 251 295
#     4  10  21  36  51  70  94 125 165 209 256 301
#     4  11  22  35  52  75 102 134 169 206 250 295
#     4  11  23  35  51  72  96 130 169 210 254 301
#     4  10  18  30  50  70  92 126 164 208 258 298
#     4  10  20  34  53  74  98 132 169 206 249 293
#
# _framework density 16.407747000000001
#
# number of rings (size 3 to 8) (size 9 to 14) (size 15 to 20)
#    0.000    1.636    1.818    4.636    1.273    5.818 
#    0.000    0.000    0.000    0.000    0.000    0.000 
#    0.000    0.727    0.000    2.364    0.000    2.909 
#
# Total GULP energy -245568.532565 kJ/mol
# GULP energy per Si atom -5581.103013 kJ/mol
# Density = 1.637040 g / cm^3
# Si number density = 16.407747 Si / 1000 Ang^3
#
#
#
# Elastic Constant Matrix: (Units=GPa)
#
#
# Indices 1 2 3 4 5 6 
#
# 1 44.6614 18.3654 14.1204 0.0000 0.0000 0.0000
# 2 18.3654 81.8084 39.6578 0.0000 0.0000 0.0000
# 3 14.1204 39.6578 76.5253 0.0000 0.0000 0.0000
# 4 0.0000 0.0000 0.0000 26.1995 0.0000 0.0000
# 5 0.0000 0.0000 0.0000 0.0000 18.3494 0.0000
# 6 0.0000 0.0000 0.0000 0.0000 0.0000 24.2942
#
#
#
# Elastic Compliance Matrix: (Units=1/GPa)
#
#
# Indices 1 2 3 4 5 6 
#
# 1 0.024960 -0.004502 -0.002273 0.000000 0.000000 0.000000
# 2 -0.004502 0.017137 -0.008050 0.000000 0.000000 0.000000
# 3 -0.002273 -0.008050 0.017659 0.000000 0.000000 0.000000
# 4 0.000000 0.000000 0.000000 0.038169 0.000000 0.000000
# 5 0.000000 0.000000 0.000000 0.000000 0.054498 0.000000
# 6 0.000000 0.000000 0.000000 0.000000 0.000000 0.041162
#
#
# Mechanical properties :
#
#
# Convention : Reuss Voigt Hill
#
# Bulk Modulus (GPa) = 33.21515 38.58691 35.90103
# Shear Modulus (GPa) = 21.43447 22.49205 21.96326
#
# Velocity S-wave (km/s) = 3.61829 3.70647 3.66264
# Velocity P-wave (km/s) = 6.14357 6.47192 6.30989
#
# Compressibility (1/GPa) = 0.03010674
#
# Stress axis : x y z
#
# Youngs Moduli (GPa) = 40.06348 58.35428 56.62903
#
# Poissons Ratio (x) = 0.26269 0.12870
# Poissons Ratio (y) = 0.18035 0.45587
# Poissons Ratio (z) = 0.09106 0.46976
#
# Static dielectric constant tensor:
#      x y z
#    x 1.551710 0.000000 0.000000 
#    y 0.000000 1.554930 0.000000 
#    z 0.000000 0.000000 1.582010 
# 
# From -- ./inp_files/70250.got.cif
#   From: 2010.05.17/outbox.cif.g08.bks.cpg/sg74_36_cif.got.tgz:70250.got - 2010.06.03 17:57:02.
