data_PCOD9534266
_publ_section_title
;
Structure prediction by ZEFSAII (Michael W. Deem and Ramdas Pophale) SiO2 
 PCOD9534266
Probable space group: I M M A
;
_chemical_formula_sum "Si O2"
_cell_formula_units_Z 72
_cell_length_a 8.851120
_cell_length_b 21.788013
_cell_length_c 14.220253
_cell_angle_alpha 90.000000
_cell_angle_beta 90.000000
_cell_angle_gamma 90.000000
_cell_volume 2742.351867
_symmetry_space_group_name_H-M "I M M A"
_symmetry_group_IT_number 74
_symmetry_cell_setting 'orthorhombic'
loop_
_space_group_symop_operation_xyz
x,y,z
-x,1/2-y,z
x,-y,-z
-x,1/2+y,-z
-x,-y,-z
x,1/2+y,-z
-x,y,z
x,1/2-y,z
1/2+x,1/2+y,1/2+z
1/2-x,-y,1/2+z
1/2+x,1/2-y,1/2-z
1/2-x,y,1/2-z
1/2-x,1/2-y,1/2-z
1/2+x,y,1/2-z
1/2-x,1/2+y,1/2+z
1/2+x,-y,1/2+z
loop_
_atom_site_type_symbol
_atom_site_label
_atom_site_fract_x
_atom_site_fract_y
_atom_site_fract_z
Si Si1 0.673162 0.497873 0.113896
Si Si2 0.168310 0.361889 0.428184
Si Si3 0.834478 0.177735 0.634061
Si Si4 0.170851 0.250000 0.151321
Si Si5 0.500000 0.457327 0.593126
Si Si6 0.000000 0.179278 0.875812
O O1 0.500000 0.515314 0.146667
O O2 0.692315 0.424677 0.127245
O O3 0.835624 0.528304 0.142696
O O4 0.665912 0.500000 0.000000
O O5 0.170497 0.365598 0.541524
O O6 0.285836 0.310370 0.404384
O O7 0.000000 0.339260 0.404170
O O8 0.845042 0.250000 0.606209
O O9 0.664360 0.175394 0.673988
O O10 0.000000 0.163540 0.674886
O O11 0.250000 0.250000 0.250000
O O12 0.000000 0.250000 0.172215
O O13 0.500000 0.500000 0.500000
O O14 0.500000 0.385031 0.567337
O O15 0.000000 0.250000 0.915724
#
# Coordination Sequence:
#
# PCOD9534266 Si02
#       6
#    16  16  16   8   8   8
#     4   9  18  30  46  66  90 120 154 198 248 299
#     4  10  19  33  50  66  91 121 158 208 258 304
#     4   9  16  25  39  59  82 111 148 193 240 292
#     4  12  26  38  54  72  98 130 174 228 273 318
#     4  10  18  28  42  58  88 116 154 206 238 294
#     4  10  20  28  40  62  92 120 162 202 250 294
#
# _framework density 26.254836999999998
#
# number of rings (size 3 to 8) (size 9 to 14) (size 15 to 20)
#    0.000    2.222    1.111    3.667    3.111    2.667 
#    0.000    0.000    0.000    0.000    0.000    0.000 
#    0.000    0.000    0.000    0.000    0.000    1.111 
#
# Total GULP energy -200774.266561 kJ/mol
# GULP energy per Si atom -5577.062960 kJ/mol
# Density = 2.619508 g / cm^3
# Si number density = 26.254837 Si / 1000 Ang^3
#
#
#
# Elastic Constant Matrix: (Units=GPa)
#
#
# Indices 1 2 3 4 5 6 
#
# 1 288.0251 73.8105 64.6862 0.0000 0.0000 0.0000
# 2 73.8105 164.3575 11.0661 0.0000 0.0000 0.0000
# 3 64.6862 11.0661 39.3890 -0.0001 -0.0001 0.0000
# 4 0.0000 0.0000 -0.0001 -55.8325 0.0000 0.0000
# 5 0.0000 0.0000 -0.0001 0.0000 40.7421 0.0000
# 6 0.0000 0.0000 0.0000 0.0000 0.0000 37.5394
#
#
#
# Elastic Compliance Matrix: (Units=1/GPa)
#
#
# Indices 1 2 3 4 5 6 
#
# 1 0.006150 -0.002122 -0.009504 0.000000 0.000000 0.000000
# 2 -0.002122 0.006934 0.001537 0.000000 0.000000 0.000000
# 3 -0.009504 0.001537 0.040564 0.000000 0.000000 0.000000
# 4 0.000000 0.000000 0.000000 -0.017911 0.000000 0.000000
# 5 0.000000 0.000000 0.000000 0.000000 0.024545 0.000000
# 6 0.000000 0.000000 0.000000 0.000000 0.000000 0.026639
#
#
# Mechanical properties :
#
#
# Convention : Reuss Voigt Hill
#
# Bulk Modulus (GPa) = 29.87789 87.87749 58.87769
# Shear Modulus (GPa) = 42.28164 27.30371 34.79268
#
# Velocity S-wave (km/s) = 4.01737 3.22832 3.64427
# Velocity P-wave (km/s) = 5.73792 6.88765 6.33891
#
# Compressibility (1/GPa) = 0.03346957
#
# Stress axis : x y z
#
# Youngs Moduli (GPa) = 162.59771 144.22103 24.65265
#
# Poissons Ratio (x) = 0.30604 0.23429
# Poissons Ratio (y) = 0.34504 -0.03789
# Poissons Ratio (z) = 1.54530 -0.22165
#
# Static dielectric constant tensor:
#      x y z
#    x 2.059630 0.000000 0.000000 
#    y 0.000000 1.909610 0.000000 
#    z 0.000000 0.000000 2.099100 
# 
# From -- ./inp_files/48430.got.cif
#   From: 2010.05.17/outbox.cif.g08.bks.cpg/sg74_25_cif.got.tgz:48430.got - 2010.06.03 17:57:02.
