data_PCOD9534286
_publ_section_title
;
Structure prediction by ZEFSAII (Michael W. Deem and Ramdas Pophale) SiO2 
 PCOD9534286
Probable space group: I M M A
;
_chemical_formula_sum "Si O2"
_cell_formula_units_Z 96
_cell_length_a 14.070320
_cell_length_b 12.108097
_cell_length_c 34.670833
_cell_angle_alpha 90.000000
_cell_angle_beta 90.000000
_cell_angle_gamma 90.000000
_cell_volume 5906.689508
_symmetry_space_group_name_H-M "I M M A"
_symmetry_group_IT_number 74
_symmetry_cell_setting 'orthorhombic'
loop_
_space_group_symop_operation_xyz
x,y,z
-x,1/2-y,z
x,-y,-z
-x,1/2+y,-z
-x,-y,-z
x,1/2+y,-z
-x,y,z
x,1/2-y,z
1/2+x,1/2+y,1/2+z
1/2-x,-y,1/2+z
1/2+x,1/2-y,1/2-z
1/2-x,y,1/2-z
1/2-x,1/2-y,1/2-z
1/2+x,y,1/2-z
1/2-x,1/2+y,1/2+z
1/2+x,-y,1/2+z
loop_
_atom_site_type_symbol
_atom_site_label
_atom_site_fract_x
_atom_site_fract_y
_atom_site_fract_z
Si Si1 0.115536 0.622521 0.764326
Si Si2 0.607376 0.883862 0.650060
Si Si3 0.115264 0.006393 0.688437
Si Si4 0.114865 0.984047 0.455413
Si Si5 0.115689 0.250000 0.668644
Si Si6 0.800504 0.617655 0.614144
Si Si7 0.884820 0.750000 0.420535
O O1 0.145475 0.750000 0.760624
O O2 0.139464 0.579286 0.807059
O O3 0.147804 0.553970 0.727430
O O4 0.000000 0.622785 0.763886
O O5 0.500000 0.922579 0.641948
O O6 0.603202 0.750000 0.652611
O O7 0.688955 0.910222 0.619677
O O8 0.147852 0.941737 0.650156
O O9 0.000000 0.005287 0.688238
O O10 0.146634 0.134157 0.686921
O O11 0.144447 0.862147 0.441422
O O12 0.000000 0.992192 0.452509
O O13 0.140756 0.000000 0.500000
O O14 0.159055 0.071236 0.425738
O O15 0.145517 0.250000 0.623893
O O16 0.000000 0.250000 0.669392
O O17 0.812612 0.750000 0.616907
O O18 0.000000 0.750000 0.420441
#
# Coordination Sequence:
#
# PCOD9534286 Si02
#       7
#    16  16  16  16   8  16   8
#     4   8  14  26  45  67  92 122 153 191 243 289
#     4   8  16  32  50  68  92 123 159 198 241 289
#     4  10  18  28  43  67  97 128 161 195 231 278
#     4  10  21  34  50  73 102 131 156 185 224 280
#     4   9  16  28  44  60  88 132 172 190 211 269
#     4  11  21  30  47  74  98 122 156 198 243 281
#     4   9  16  32  50  63  89 137 171 177 211 275
#
# _framework density 16.252758
#
# number of rings (size 3 to 8) (size 9 to 14) (size 15 to 20)
#    0.000    2.667    1.667    2.000    1.167    2.667 
#    0.000    2.500    0.000    3.500    0.000    4.667 
#    0.000    0.000    0.000    0.000    0.000    0.000 
#
# Total GULP energy -267518.028601 kJ/mol
# GULP energy per Si atom -5573.292263 kJ/mol
# Density = 1.621577 g / cm^3
# Si number density = 16.252758 Si / 1000 Ang^3
#
#
#
# Elastic Constant Matrix: (Units=GPa)
#
#
# Indices 1 2 3 4 5 6 
#
# 1 49.2729 14.0149 27.1106 0.0000 0.0000 0.0000
# 2 14.0149 96.2326 43.7943 0.0000 0.0000 0.0000
# 3 27.1106 43.7943 100.3104 0.0000 0.0000 0.0000
# 4 0.0000 0.0000 0.0000 14.3602 0.0000 0.0000
# 5 0.0000 0.0000 0.0000 0.0000 20.9687 0.0000
# 6 0.0000 0.0000 0.0000 0.0000 0.0000 8.3378
#
#
#
# Elastic Compliance Matrix: (Units=1/GPa)
#
#
# Indices 1 2 3 4 5 6 
#
# 1 0.023875 -0.000675 -0.006158 0.000000 0.000000 0.000000
# 2 -0.000675 0.012987 -0.005488 0.000000 0.000000 0.000000
# 3 -0.006158 -0.005488 0.014029 0.000000 0.000000 0.000000
# 4 0.000000 0.000000 0.000000 0.069637 0.000000 0.000000
# 5 0.000000 0.000000 0.000000 0.000000 0.047690 0.000000
# 6 0.000000 0.000000 0.000000 0.000000 0.000000 0.119935
#
#
# Mechanical properties :
#
#
# Convention : Reuss Voigt Hill
#
# Bulk Modulus (GPa) = 38.09410 46.18392 42.13901
# Shear Modulus (GPa) = 15.54992 19.45976 17.50484
#
# Velocity S-wave (km/s) = 3.09650 3.46399 3.28539
# Velocity P-wave (km/s) = 6.02278 6.66908 6.35415
#
# Compressibility (1/GPa) = 0.02625079
#
# Stress axis : x y z
#
# Youngs Moduli (GPa) = 41.88424 76.99940 71.27960
#
# Poissons Ratio (x) = 0.05194 0.43895
# Poissons Ratio (y) = 0.02825 0.39116
# Poissons Ratio (z) = 0.25793 0.42255
#
# Static dielectric constant tensor:
#      x y z
#    x 1.566840 0.000000 0.000000 
#    y 0.000000 1.543110 0.000000 
#    z 0.000000 0.000000 1.533750 
# 
# From -- ./inp_files/72444.got.cif
#   From: 2010.05.17/outbox.cif.g08.bks.cpg/sg74_37_cif.got.tgz:72444.got - 2010.06.03 17:57:02.
