data_PCOD9534220
_publ_section_title
;
Structure prediction by ZEFSAII (Michael W. Deem and Ramdas Pophale) SiO2 
 PCOD9534220
Probable space group: I M M A
;
_chemical_formula_sum "Si O2"
_cell_formula_units_Z 80
_cell_length_a 25.883587
_cell_length_b 13.461594
_cell_length_c 9.756985
_cell_angle_alpha 90.000000
_cell_angle_beta 90.000000
_cell_angle_gamma 90.000000
_cell_volume 3399.668624
_symmetry_space_group_name_H-M "I M M A"
_symmetry_group_IT_number 74
_symmetry_cell_setting 'orthorhombic'
loop_
_space_group_symop_operation_xyz
x,y,z
-x,1/2-y,z
x,-y,-z
-x,1/2+y,-z
-x,-y,-z
x,1/2+y,-z
-x,y,z
x,1/2-y,z
1/2+x,1/2+y,1/2+z
1/2-x,-y,1/2+z
1/2+x,1/2-y,1/2-z
1/2-x,y,1/2-z
1/2-x,1/2-y,1/2-z
1/2+x,y,1/2-z
1/2-x,1/2+y,1/2+z
1/2+x,-y,1/2+z
loop_
_atom_site_type_symbol
_atom_site_label
_atom_site_fract_x
_atom_site_fract_y
_atom_site_fract_z
Si Si1 0.443758 0.574271 0.788430
Si Si2 0.075269 0.138983 0.600440
Si Si3 0.237961 0.614707 0.529147
Si Si4 0.184819 0.642828 0.267137
Si Si5 0.829405 0.088426 0.210409
O O1 0.500000 0.604288 0.732142
O O2 0.443800 0.454778 0.811374
O O3 0.390908 0.602458 0.710392
O O4 0.438128 0.618150 0.942249
O O5 0.057857 0.250000 0.637948
O O6 0.136533 0.135874 0.624310
O O7 0.230475 0.500000 0.500000
O O8 0.231503 0.653135 0.375989
O O9 0.196412 0.632595 0.650309
O O10 0.294366 0.633118 0.590762
O O11 0.174549 0.750000 0.197423
O O12 0.181785 0.531670 0.204084
#
# Coordination Sequence:
#
# PCOD9534220 Si02
#       5
#    16  16  16  16  16
#     4  10  18  27  41  62  90 122 153 185 225 281
#     4   9  16  27  42  64  92 120 150 184 225 277
#     4   9  16  30  48  62  84 120 152 185 230 278
#     4   9  16  28  47  70  94 118 151 194 231 277
#     4   9  17  30  45  64  89 120 153 184 233 277
#
# _framework density 23.531706
#
# number of rings (size 3 to 8) (size 9 to 14) (size 15 to 20)
#    0.000    2.800    2.000    1.200    0.000    1.600 
#    0.000   11.000    0.000    0.600    0.000    0.000 
#    0.000    0.000    0.000    6.600    0.400    0.000 
#
# Total GULP energy -222985.484687 kJ/mol
# GULP energy per Si atom -5574.637117 kJ/mol
# Density = 2.347815 g / cm^3
# Si number density = 23.531706 Si / 1000 Ang^3
#
#
#
# Elastic Constant Matrix: (Units=GPa)
#
#
# Indices 1 2 3 4 5 6 
#
# 1 136.5513 6.1577 22.2621 0.0000 0.0000 0.0000
# 2 6.1577 115.3589 9.7573 0.0000 0.0000 0.0000
# 3 22.2621 9.7573 70.0253 0.0000 0.0000 0.0000
# 4 0.0000 0.0000 0.0000 0.6110 0.0000 0.0000
# 5 0.0000 0.0000 0.0000 0.0000 15.6865 0.0000
# 6 0.0000 0.0000 0.0000 0.0000 0.0000 3.7445
#
#
#
# Elastic Compliance Matrix: (Units=1/GPa)
#
#
# Indices 1 2 3 4 5 6 
#
# 1 0.007728 -0.000207 -0.002428 0.000000 0.000000 0.000000
# 2 -0.000207 0.008778 -0.001157 0.000000 0.000000 0.000000
# 3 -0.002428 -0.001157 0.015214 0.000000 0.000000 0.000000
# 4 0.000000 0.000000 0.000000 1.636763 0.000000 0.000000
# 5 0.000000 0.000000 0.000000 0.000000 0.063749 0.000000
# 6 0.000000 0.000000 0.000000 0.000000 0.000000 0.267056
#
#
# Mechanical properties :
#
#
# Convention : Reuss Voigt Hill
#
# Bulk Modulus (GPa) = 41.43405 44.25444 42.84424
# Shear Modulus (GPa) = 2.48149 22.92563 12.70356
#
# Velocity S-wave (km/s) = 1.02802 3.12467 2.32599
# Velocity P-wave (km/s) = 4.36521 5.64493 5.04581
#
# Compressibility (1/GPa) = 0.02413474
#
# Stress axis : x y z
#
# Youngs Moduli (GPa) = 129.39188 113.92722 65.73011
#
# Poissons Ratio (x) = 0.02360 0.15960
# Poissons Ratio (y) = 0.02680 0.07606
# Poissons Ratio (z) = 0.31418 0.13184
#
# Static dielectric constant tensor:
#      x y z
#    x 2.042650 0.000000 0.000000 
#    y 0.000000 1.978890 0.000000 
#    z 0.000000 0.000000 1.922140 
# 
# From -- ./inp_files/20776.got.cif
#   From: 2010.05.17/outbox.cif.g08.bks.cpg/sg74_11_cif.got.tgz:20776.got - 2010.06.03 17:57:02.
