data_PCOD9534002
_publ_section_title
;
Structure prediction by ZEFSAII (Michael W. Deem and Ramdas Pophale) SiO2 
 PCOD9534002
Probable space group: I M M A
;
_chemical_formula_sum "Si O2"
_cell_formula_units_Z 96
_cell_length_a 27.143849
_cell_length_b 9.217767
_cell_length_c 28.803360
_cell_angle_alpha 90.000000
_cell_angle_beta 90.000000
_cell_angle_gamma 90.000000
_cell_volume 7206.764147
_symmetry_space_group_name_H-M "I M M A"
_symmetry_group_IT_number 74
_symmetry_cell_setting 'orthorhombic'
loop_
_space_group_symop_operation_xyz
x,y,z
-x,1/2-y,z
x,-y,-z
-x,1/2+y,-z
-x,-y,-z
x,1/2+y,-z
-x,y,z
x,1/2-y,z
1/2+x,1/2+y,1/2+z
1/2-x,-y,1/2+z
1/2+x,1/2-y,1/2-z
1/2-x,y,1/2-z
1/2-x,1/2-y,1/2-z
1/2+x,y,1/2-z
1/2-x,1/2+y,1/2+z
1/2+x,-y,1/2+z
loop_
_atom_site_type_symbol
_atom_site_label
_atom_site_fract_x
_atom_site_fract_y
_atom_site_fract_z
Si Si1 0.701074 0.083015 0.282597
Si Si2 0.645474 0.421264 0.794739
Si Si3 0.709991 0.421048 0.047883
Si Si4 0.943652 0.577275 0.360046
Si Si5 0.591272 0.920484 0.952291
Si Si6 0.758155 0.421336 0.640191
O O1 0.690350 0.250000 0.293902
O O2 0.750000 0.081066 0.250000
O O3 0.659148 0.010565 0.251040
O O4 0.716005 0.991562 0.327746
O O5 0.642790 0.250000 0.783530
O O6 0.595838 0.466608 0.821057
O O7 0.690613 0.439096 0.831121
O O8 0.720906 0.250000 0.046121
O O9 0.650585 0.436390 0.052935
O O10 0.735178 0.496841 0.091746
O O11 0.723676 0.500000 0.000000
O O12 0.936287 0.750000 0.368314
O O13 0.933127 0.493576 0.407676
O O14 0.000000 0.554432 0.345527
O O15 0.579847 0.750000 0.954954
O O16 0.576879 0.000000 0.000000
O O17 0.750345 0.250000 0.633671
#
# Coordination Sequence:
#
# PCOD9534002 Si02
#       6
#    16  16  16  16  16  16
#     4   9  17  27  41  61  82 102 126 158 197 240
#     4   9  17  29  43  59  79 102 129 163 203 246
#     4  10  19  29  42  60  81 106 135 167 204 245
#     4  10  20  33  47  61  78 102 133 170 212 254
#     4  10  20  32  46  59  75  99 132 172 214 254
#     4  10  17  27  44  62  81 104 130 163 200 241
#
# _framework density 13.320817999999999
#
# number of rings (size 3 to 8) (size 9 to 14) (size 15 to 20)
#    0.000    2.333    1.667    2.000    0.000    5.333 
#    0.000    0.000    0.000    0.000    0.000    0.000 
#    0.000    0.000    0.000    0.000    0.000    0.833 
#
# Total GULP energy -267679.993239 kJ/mol
# GULP energy per Si atom -5576.666526 kJ/mol
# Density = 1.329050 g / cm^3
# Si number density = 13.320818 Si / 1000 Ang^3
#
#
#
# Elastic Constant Matrix: (Units=GPa)
#
#
# Indices 1 2 3 4 5 6 
#
# 1 56.1323 41.9110 46.7559 0.0000 0.0000 0.0000
# 2 41.9110 88.5534 64.7130 0.0000 0.0000 0.0000
# 3 46.7559 64.7130 82.2175 0.0000 0.0000 0.0000
# 4 0.0000 0.0000 0.0000 27.5505 0.0000 0.0000
# 5 0.0000 0.0000 0.0000 0.0000 14.6825 0.0000
# 6 0.0000 0.0000 0.0000 0.0000 0.0000 12.7482
#
#
#
# Elastic Compliance Matrix: (Units=1/GPa)
#
#
# Indices 1 2 3 4 5 6 
#
# 1 0.034663 -0.004708 -0.016007 0.000000 0.000000 0.000000
# 2 -0.004708 0.027222 -0.018749 0.000000 0.000000 0.000000
# 3 -0.016007 -0.018749 0.036023 0.000000 0.000000 0.000000
# 4 0.000000 0.000000 0.000000 0.036297 0.000000 0.000000
# 5 0.000000 0.000000 0.000000 0.000000 0.068108 0.000000
# 6 0.000000 0.000000 0.000000 0.000000 0.000000 0.078442
#
#
# Mechanical properties :
#
#
# Convention : Reuss Voigt Hill
#
# Bulk Modulus (GPa) = 52.68539 59.29590 55.99065
# Shear Modulus (GPa) = 13.66076 15.89779 14.77927
#
# Velocity S-wave (km/s) = 3.20585 3.45839 3.33451
# Velocity P-wave (km/s) = 7.30344 7.78188 7.54645
#
# Compressibility (1/GPa) = 0.01898059
#
# Stress axis : x y z
#
# Youngs Moduli (GPa) = 28.84886 36.73434 27.76005
#
# Poissons Ratio (x) = 0.17296 0.44435
# Poissons Ratio (y) = 0.13583 0.52048
# Poissons Ratio (z) = 0.46177 0.68874
#
# Static dielectric constant tensor:
#      x y z
#    x 1.417960 0.000000 0.000000 
#    y 0.000000 1.443870 0.000000 
#    z 0.000000 0.000000 1.413470 
# 
# From -- ./inp_files/57477.got.cif
#   From: 2010.05.17/outbox.cif.g08.bks.cpg/sg74_29_cif.got.tgz:57477.got - 2010.06.03 17:57:02.
