data_PCOD9534662
_publ_section_title
;
Structure prediction by ZEFSAII (Michael W. Deem and Ramdas Pophale) SiO2 
 PCOD9534662
Probable space group: I M M A
;
_chemical_formula_sum "Si O2"
_cell_formula_units_Z 68
_cell_length_a 12.392475
_cell_length_b 13.283509
_cell_length_c 21.282193
_cell_angle_alpha 90.000000
_cell_angle_beta 90.000000
_cell_angle_gamma 90.000000
_cell_volume 3503.379974
_symmetry_space_group_name_H-M "I M M A"
_symmetry_group_IT_number 74
_symmetry_cell_setting 'orthorhombic'
loop_
_space_group_symop_operation_xyz
x,y,z
-x,1/2-y,z
x,-y,-z
-x,1/2+y,-z
-x,-y,-z
x,1/2+y,-z
-x,y,z
x,1/2-y,z
1/2+x,1/2+y,1/2+z
1/2-x,-y,1/2+z
1/2+x,1/2-y,1/2-z
1/2-x,y,1/2-z
1/2-x,1/2-y,1/2-z
1/2+x,y,1/2-z
1/2-x,1/2+y,1/2+z
1/2+x,-y,1/2+z
loop_
_atom_site_type_symbol
_atom_site_label
_atom_site_fract_x
_atom_site_fract_y
_atom_site_fract_z
Si Si1 0.000000 0.908605 0.838869
Si Si2 0.796174 0.566609 0.060499
Si Si3 0.252112 0.750000 0.991613
Si Si4 0.763154 0.932889 0.816812
Si Si5 0.500000 0.638940 0.367538
Si Si6 0.500000 0.250000 0.447579
Si Si7 0.871834 0.750000 0.642082
O O1 0.881800 0.881401 0.814505
O O2 0.000000 0.853754 0.906734
O O3 0.000000 0.031128 0.832223
O O4 0.758577 0.499281 0.119511
O O5 0.896213 0.627551 0.088864
O O6 0.828064 0.500000 0.000000
O O7 0.719033 0.650927 0.031431
O O8 0.313651 0.750000 0.925874
O O9 0.121424 0.750000 0.977403
O O10 0.750000 0.988733 0.750000
O O11 0.673033 0.848287 0.823242
O O12 0.500000 0.750000 0.336836
O O13 0.000000 0.750000 0.637291
#
# Coordination Sequence:
#
# PCOD9534662 Si02
#       7
#     8  16   8  16   8   4   8
#     4  10  20  37  66  90 130 162 201 257 310 382
#     4  11  20  36  61  89 128 161 204 256 304 375
#     4  12  20  37  63 100 124 157 209 257 320 355
#     4  11  24  42  62  95 125 166 209 251 319 372
#     4  10  18  30  54  98 130 159 189 250 324 370
#     4  12  18  36  66 102 136 152 198 264 320 398
#     4  12  25  42  65  91 124 163 211 262 313 372
#
# _framework density 19.409828000000001
#
# number of rings (size 3 to 8) (size 9 to 14) (size 15 to 20)
#    0.000    0.941    5.882    2.824    1.647    0.000 
#    0.000    2.941    0.000    0.000    0.000    0.000 
#    0.000    0.000    0.000    0.000    0.000    0.000 
#
# Total GULP energy -189285.571926 kJ/mol
# GULP energy per Si atom -5567.222704 kJ/mol
# Density = 1.936565 g / cm^3
# Si number density = 19.409828 Si / 1000 Ang^3
#
#
#
# Elastic Constant Matrix: (Units=GPa)
#
#
# Indices 1 2 3 4 5 6 
#
# 1 96.5459 22.9029 30.0101 0.0000 0.0000 0.0000
# 2 22.9029 100.7525 36.4603 0.0000 0.0000 0.0000
# 3 30.0101 36.4603 128.6301 0.0000 0.0000 0.0000
# 4 0.0000 0.0000 0.0000 5.4403 0.0000 0.0000
# 5 0.0000 0.0000 0.0000 0.0000 5.1017 0.0000
# 6 0.0000 0.0000 0.0000 0.0000 0.0000 15.6851
#
#
#
# Elastic Compliance Matrix: (Units=1/GPa)
#
#
# Indices 1 2 3 4 5 6 
#
# 1 0.011461 -0.001825 -0.002157 0.000000 0.000000 0.000000
# 2 -0.001825 0.011350 -0.002792 0.000000 0.000000 0.000000
# 3 -0.002157 -0.002792 0.009069 0.000000 0.000000 0.000000
# 4 0.000000 0.000000 0.000000 0.183814 0.000000 0.000000
# 5 0.000000 0.000000 0.000000 0.000000 0.196013 0.000000
# 6 0.000000 0.000000 0.000000 0.000000 0.000000 0.063755
#
#
# Mechanical properties :
#
#
# Convention : Reuss Voigt Hill
#
# Bulk Modulus (GPa) = 54.54360 56.07501 55.30930
# Shear Modulus (GPa) = 10.09858 21.01576 15.55717
#
# Velocity S-wave (km/s) = 2.28344 3.29407 2.83417
# Velocity P-wave (km/s) = 5.92572 6.58943 6.26637
#
# Compressibility (1/GPa) = 0.01833396
#
# Stress axis : x y z
#
# Youngs Moduli (GPa) = 87.25216 88.10314 110.27006
#
# Poissons Ratio (x) = 0.16078 0.23782
# Poissons Ratio (y) = 0.15922 0.30782
# Poissons Ratio (z) = 0.18817 0.24594
#
# Static dielectric constant tensor:
#      x y z
#    x 1.676040 0.000000 0.000000 
#    y 0.000000 1.746380 0.000000 
#    z 0.000000 0.000000 1.715020 
# 
# From -- ./inp_files/50276.got.cif
#   From: 2010.05.17/outbox.cif.g08.bks.cpg/sg74_26_cif.got.tgz:50276.got - 2010.06.03 17:57:02.
