data_PCOD9534007
_publ_section_title
;
Structure prediction by ZEFSAII (Michael W. Deem and Ramdas Pophale) SiO2 
 PCOD9534007
Probable space group: I M M A
;
_chemical_formula_sum "Si O2"
_cell_formula_units_Z 96
_cell_length_a 8.663750
_cell_length_b 32.246724
_cell_length_c 19.660681
_cell_angle_alpha 90.000000
_cell_angle_beta 90.000000
_cell_angle_gamma 90.000000
_cell_volume 5492.752988
_symmetry_space_group_name_H-M "I M M A"
_symmetry_group_IT_number 74
_symmetry_cell_setting 'orthorhombic'
loop_
_space_group_symop_operation_xyz
x,y,z
-x,1/2-y,z
x,-y,-z
-x,1/2+y,-z
-x,-y,-z
x,1/2+y,-z
-x,y,z
x,1/2-y,z
1/2+x,1/2+y,1/2+z
1/2-x,-y,1/2+z
1/2+x,1/2-y,1/2-z
1/2-x,y,1/2-z
1/2-x,1/2-y,1/2-z
1/2+x,y,1/2-z
1/2-x,1/2+y,1/2+z
1/2+x,-y,1/2+z
loop_
_atom_site_type_symbol
_atom_site_label
_atom_site_fract_x
_atom_site_fract_y
_atom_site_fract_z
Si Si1 0.185894 0.631752 0.326230
Si Si2 0.315002 0.959884 0.172964
Si Si3 0.184265 0.702218 0.919139
Si Si4 0.684036 0.044429 0.327305
Si Si5 0.686083 0.797368 0.069893
Si Si6 0.316444 0.369649 0.173768
O O1 0.250000 0.636099 0.250000
O O2 0.225683 0.585777 0.354721
O O3 0.237331 0.668654 0.375376
O O4 0.000000 0.633167 0.321701
O O5 0.500000 0.964194 0.174789
O O6 0.250000 0.958515 0.250000
O O7 0.243697 0.001367 0.140690
O O8 0.223942 0.750000 0.901464
O O9 0.266674 0.669342 0.870967
O O10 0.000000 0.697516 0.913589
O O11 0.236922 0.695676 0.996835
O O12 0.500000 0.044741 0.325135
O O13 0.750000 0.044360 0.250000
O O14 0.747356 0.087534 0.356576
O O15 0.500000 0.800616 0.062134
O O16 0.720687 0.750000 0.091450
O O17 0.500000 0.373428 0.177656
O O18 0.250000 0.364738 0.250000
#
# Coordination Sequence:
#
# PCOD9534007 Si02
#       6
#    16  16  16  16  16  16
#     4   9  18  30  47  73 103 133 167 209 252 294
#     4   9  15  25  41  64  95 129 164 200 242 290
#     4  10  21  37  55  75  99 129 166 205 246 295
#     4  10  17  27  44  68  98 129 162 199 241 288
#     4   9  18  34  53  72  97 132 171 207 248 300
#     4  11  21  34  53  77 104 132 163 201 245 289
#
# _framework density 17.477575000000002
#
# number of rings (size 3 to 8) (size 9 to 14) (size 15 to 20)
#    0.000    2.333    0.000    6.000    0.000    3.000 
#    0.000    0.000    0.000    1.000    0.000    7.000 
#    0.000    0.000    0.000    0.000    0.000    0.000 
#
# Total GULP energy -267554.600351 kJ/mol
# GULP energy per Si atom -5574.054174 kJ/mol
# Density = 1.743780 g / cm^3
# Si number density = 17.477575 Si / 1000 Ang^3
#
#
#
# Elastic Constant Matrix: (Units=GPa)
#
#
# Indices 1 2 3 4 5 6 
#
# 1 97.0542 70.1878 28.0354 0.0000 0.0000 0.0000
# 2 70.1878 181.9451 69.4351 0.0000 0.0000 0.0000
# 3 28.0354 69.4351 41.9711 -0.0001 0.0000 0.0003
# 4 0.0000 0.0000 -0.0001 -10.6960 0.0000 0.0007
# 5 0.0000 0.0000 0.0000 0.0000 20.8435 0.0000
# 6 0.0000 0.0000 0.0003 0.0007 0.0000 157.4715
#
#
#
# Elastic Compliance Matrix: (Units=1/GPa)
#
#
# Indices 1 2 3 4 5 6 
#
# 1 0.014311 -0.005079 -0.001156 0.000000 0.000000 0.000000
# 2 -0.005079 0.016712 -0.024254 0.000000 0.000000 0.000000
# 3 -0.001156 -0.024254 0.064723 -0.000001 0.000000 0.000000
# 4 0.000000 0.000000 -0.000001 -0.093493 0.000000 0.000000
# 5 0.000000 0.000000 0.000000 0.000000 0.047976 0.000000
# 6 0.000000 0.000000 0.000000 0.000000 0.000000 0.006350
#
#
# Mechanical properties :
#
#
# Convention : Reuss Voigt Hill
#
# Bulk Modulus (GPa) = 28.76345 72.92077 50.84211
# Shear Modulus (GPa) = 38.71564 43.74462 41.23013
#
# Velocity S-wave (km/s) = 4.71166 5.00833 4.86225
# Velocity P-wave (km/s) = 6.78916 8.67511 7.78942
#
# Compressibility (1/GPa) = 0.03476635
#
# Stress axis : x y z
#
# Youngs Moduli (GPa) = 69.87741 59.83868 15.45051
#
# Poissons Ratio (x) = 0.30395 0.01786
# Poissons Ratio (y) = 0.35494 0.37474
# Poissons Ratio (z) = 0.08078 1.45133
#
# Static dielectric constant tensor:
#      x y z
#    x 1.576580 0.000000 0.000000 
#    y 0.000000 1.657920 0.000000 
#    z 0.000000 0.000000 1.554690 
# 
# From -- ./inp_files/49110.got.cif
#   From: 2010.05.17/outbox.cif.g08.bks.cpg/sg74_25_cif.got.tgz:49110.got - 2010.06.03 17:57:02.
