data_PCOD9534926
_publ_section_title
;
Structure prediction by ZEFSAII (Michael W. Deem and Ramdas Pophale) SiO2 
 PCOD9534926
Probable space group: I M M A
;
_chemical_formula_sum "Si O2"
_cell_formula_units_Z 104
_cell_length_a 24.683389
_cell_length_b 8.722307
_cell_length_c 25.702004
_cell_angle_alpha 90.000000
_cell_angle_beta 90.000000
_cell_angle_gamma 90.000000
_cell_volume 5533.541137
_symmetry_space_group_name_H-M "I M M A"
_symmetry_group_IT_number 74
_symmetry_cell_setting 'orthorhombic'
loop_
_space_group_symop_operation_xyz
x,y,z
-x,1/2-y,z
x,-y,-z
-x,1/2+y,-z
-x,-y,-z
x,1/2+y,-z
-x,y,z
x,1/2-y,z
1/2+x,1/2+y,1/2+z
1/2-x,-y,1/2+z
1/2+x,1/2-y,1/2-z
1/2-x,y,1/2-z
1/2-x,1/2-y,1/2-z
1/2+x,y,1/2-z
1/2-x,1/2+y,1/2+z
1/2+x,-y,1/2+z
loop_
_atom_site_type_symbol
_atom_site_label
_atom_site_fract_x
_atom_site_fract_y
_atom_site_fract_z
Si Si1 0.391513 0.571219 0.443445
Si Si2 0.561629 0.935938 0.729914
Si Si3 0.500000 0.431388 0.441601
Si Si4 0.936768 0.434794 0.444113
Si Si5 0.156552 0.929754 0.850406
Si Si6 0.237845 0.923917 0.311119
Si Si7 0.120831 0.064158 0.336284
O O1 0.382150 0.500000 0.500000
O O2 0.400668 0.750000 0.449549
O O3 0.445059 0.494181 0.418488
O O4 0.346334 0.527539 0.402906
O O5 0.500000 0.989890 0.718451
O O6 0.560192 0.750000 0.726888
O O7 0.610136 0.982984 0.690686
O O8 0.580079 0.975144 0.788709
O O9 0.500000 0.250000 0.442735
O O10 0.500000 0.500000 0.500000
O O11 0.918100 0.500000 0.500000
O O12 0.935035 0.250000 0.446806
O O13 0.903144 0.480376 0.392717
O O14 0.000000 0.480452 0.437385
O O15 0.147322 0.750000 0.861129
O O16 0.216350 0.959159 0.829854
O O17 0.244488 0.750000 0.332117
O O18 0.250000 0.914693 0.250000
O O19 0.178224 0.985874 0.324140
O O20 0.127070 0.250000 0.335596
#
# Coordination Sequence:
#
# PCOD9534926 Si02
#       7
#    16  16   8  16  16  16  16
#     4  11  22  38  57  81 113 148 187 233 286 339
#     4   9  18  32  54  86 117 145 182 233 288 344
#     4  10  18  32  54  80 108 144 190 230 273 328
#     4   9  18  33  56  87 123 159 195 236 287 346
#     4  11  22  37  60  86 113 149 193 238 289 351
#     4  11  23  39  58  81 114 152 193 242 294 348
#     4  10  19  35  60  86 113 150 198 243 285 345
#
# _framework density 18.794476
#
# number of rings (size 3 to 8) (size 9 to 14) (size 15 to 20)
#    0.000    1.846    1.538    4.385    1.077    3.077 
#    0.000    0.769    0.000    5.077    0.000    0.000 
#    0.000    0.000    0.000    0.000    0.000    0.000 
#
# Total GULP energy -290019.280894 kJ/mol
# GULP energy per Si atom -5577.293863 kJ/mol
# Density = 1.875170 g / cm^3
# Si number density = 18.794476 Si / 1000 Ang^3
#
#
#
# Elastic Constant Matrix: (Units=GPa)
#
#
# Indices 1 2 3 4 5 6 
#
# 1 98.7726 16.3295 39.8988 0.0000 0.0000 0.0000
# 2 16.3295 74.2929 26.9722 0.0000 0.0000 0.0000
# 3 39.8988 26.9722 103.2241 0.0000 0.0000 0.0000
# 4 0.0000 0.0000 0.0000 23.8890 0.0000 0.0000
# 5 0.0000 0.0000 0.0000 0.0000 28.8989 0.0000
# 6 0.0000 0.0000 0.0000 0.0000 0.0000 19.5109
#
#
#
# Elastic Compliance Matrix: (Units=1/GPa)
#
#
# Indices 1 2 3 4 5 6 
#
# 1 0.012073 -0.001060 -0.004389 0.000000 0.000000 0.000000
# 2 -0.001060 0.014964 -0.003500 0.000000 0.000000 0.000000
# 3 -0.004389 -0.003500 0.012299 0.000000 0.000000 0.000000
# 4 0.000000 0.000000 0.000000 0.041860 0.000000 0.000000
# 5 0.000000 0.000000 0.000000 0.000000 0.034603 0.000000
# 6 0.000000 0.000000 0.000000 0.000000 0.000000 0.051253
#
#
# Mechanical properties :
#
#
# Convention : Reuss Voigt Hill
#
# Bulk Modulus (GPa) = 46.65031 49.18784 47.91908
# Shear Modulus (GPa) = 26.02846 27.33236 26.68041
#
# Velocity S-wave (km/s) = 3.72546 3.81763 3.77183
# Velocity P-wave (km/s) = 6.58639 6.75727 6.67238
#
# Compressibility (1/GPa) = 0.02143608
#
# Stress axis : x y z
#
# Youngs Moduli (GPa) = 82.83225 66.82691 81.30796
#
# Poissons Ratio (x) = 0.07083 0.35689
# Poissons Ratio (y) = 0.08780 0.28461
# Poissons Ratio (z) = 0.36358 0.23392
#
# Static dielectric constant tensor:
#      x y z
#    x 1.582040 0.000000 0.000000 
#    y 0.000000 1.648440 0.000000 
#    z 0.000000 0.000000 1.649100 
# 
# From -- ./inp_files/68654.got.cif
#   From: 2010.05.17/outbox.cif.g08.bks.cpg/sg74_35_cif.got.tgz:68654.got - 2010.06.03 17:57:02.
