data_PCOD9534378
_publ_section_title
;
Structure prediction by ZEFSAII (Michael W. Deem and Ramdas Pophale) SiO2 
 PCOD9534378
Probable space group: I M M A
;
_chemical_formula_sum "Si O2"
_cell_formula_units_Z 96
_cell_length_a 8.833230
_cell_length_b 29.611415
_cell_length_c 26.800226
_cell_angle_alpha 90.000000
_cell_angle_beta 90.000000
_cell_angle_gamma 90.000000
_cell_volume 7009.986087
_symmetry_space_group_name_H-M "I M M A"
_symmetry_group_IT_number 74
_symmetry_cell_setting 'orthorhombic'
loop_
_space_group_symop_operation_xyz
x,y,z
-x,1/2-y,z
x,-y,-z
-x,1/2+y,-z
-x,-y,-z
x,1/2+y,-z
-x,y,z
x,1/2-y,z
1/2+x,1/2+y,1/2+z
1/2-x,-y,1/2+z
1/2+x,1/2-y,1/2-z
1/2-x,y,1/2-z
1/2-x,1/2-y,1/2-z
1/2+x,y,1/2-z
1/2-x,1/2+y,1/2+z
1/2+x,-y,1/2+z
loop_
_atom_site_type_symbol
_atom_site_label
_atom_site_fract_x
_atom_site_fract_y
_atom_site_fract_z
Si Si1 0.674565 0.974970 0.053960
Si Si2 0.680663 0.301331 0.465831
Si Si3 0.679707 0.057312 0.397841
Si Si4 0.181496 0.393141 0.303701
Si Si5 0.318215 0.608461 0.993676
Si Si6 0.818648 0.199384 0.355510
O O1 0.500000 0.975046 0.071207
O O2 0.774539 0.005723 0.089811
O O3 0.723532 0.924317 0.039788
O O4 0.676204 0.000000 0.000000
O O5 0.500000 0.306799 0.467277
O O6 0.718428 0.250000 0.481299
O O7 0.760025 0.340656 0.497005
O O8 0.737139 0.306232 0.408676
O O9 0.500000 0.062592 0.396599
O O10 0.753083 0.075094 0.347030
O O11 0.746897 0.087050 0.443466
O O12 0.250000 0.403703 0.250000
O O13 0.222737 0.341634 0.319451
O O14 0.000000 0.396525 0.302631
O O15 0.500000 0.606899 0.988720
O O16 0.783987 0.250000 0.336595
O O17 0.000000 0.196841 0.364181
#
# Coordination Sequence:
#
# PCOD9534378 Si02
#       6
#    16  16  16  16  16  16
#     4   8  16  29  44  62  83 105 131 161 201 247
#     4  10  19  28  41  62  85 109 138 172 208 247
#     4  11  20  30  45  63  83 104 131 169 211 252
#     4  11  22  34  47  61  80 105 137 175 216 259
#     4  10  18  29  45  63  83 109 136 166 203 247
#     4   9  18  32  47  59  74 102 136 170 214 261
#
# _framework density 13.694749
#
# number of rings (size 3 to 8) (size 9 to 14) (size 15 to 20)
#    0.000    2.167    1.667    4.000    0.000    5.667 
#    0.000    0.000    0.000    0.000    0.000    0.000 
#    0.000    0.000    0.000    0.000    0.000    0.833 
#
# Total GULP energy -267626.235076 kJ/mol
# GULP energy per Si atom -5575.546564 kJ/mol
# Density = 1.366358 g / cm^3
# Si number density = 13.694749 Si / 1000 Ang^3
#
#
#
# Elastic Constant Matrix: (Units=GPa)
#
#
# Indices 1 2 3 4 5 6 
#
# 1 56.7581 43.3142 31.2498 0.0000 0.0000 0.0000
# 2 43.3142 100.3769 49.1094 0.0000 0.0000 0.0000
# 3 31.2498 49.1094 48.6396 0.0000 0.0000 0.0000
# 4 0.0000 0.0000 0.0000 16.1505 0.0000 0.0000
# 5 0.0000 0.0000 0.0000 0.0000 17.0401 0.0000
# 6 0.0000 0.0000 0.0000 0.0000 0.0000 19.9277
#
#
#
# Elastic Compliance Matrix: (Units=1/GPa)
#
#
# Indices 1 2 3 4 5 6 
#
# 1 0.029449 -0.006820 -0.012035 0.000000 0.000000 0.000000
# 2 -0.006820 0.021267 -0.017091 0.000000 0.000000 0.000000
# 3 -0.012035 -0.017091 0.045547 0.000000 0.000000 0.000000
# 4 0.000000 0.000000 0.000000 0.061918 0.000000 0.000000
# 5 0.000000 0.000000 0.000000 0.000000 0.058685 0.000000
# 6 0.000000 0.000000 0.000000 0.000000 0.000000 0.050182
#
#
# Mechanical properties :
#
#
# Convention : Reuss Voigt Hill
#
# Bulk Modulus (GPa) = 41.02944 50.34682 45.68813
# Shear Modulus (GPa) = 14.40661 16.09706 15.25184
#
# Velocity S-wave (km/s) = 3.24694 3.43216 3.34083
# Velocity P-wave (km/s) = 6.63942 7.24912 6.95096
#
# Compressibility (1/GPa) = 0.02437274
#
# Stress axis : x y z
#
# Youngs Moduli (GPa) = 33.95688 47.02121 21.95512
#
# Poissons Ratio (x) = 0.32067 0.26422
# Poissons Ratio (y) = 0.23158 0.37523
# Poissons Ratio (z) = 0.40866 0.80364
#
# Static dielectric constant tensor:
#      x y z
#    x 1.453520 0.000000 0.000000 
#    y 0.000000 1.490260 0.000000 
#    z 0.000000 0.000000 1.409840 
# 
# From -- ./inp_files/64921.got.cif
#   From: 2010.05.17/outbox.cif.g08.bks.cpg/sg74_33_cif.got.tgz:64921.got - 2010.06.03 17:57:02.
