data_PCOD9534274
_publ_section_title
;
Structure prediction by ZEFSAII (Michael W. Deem and Ramdas Pophale) SiO2 
 PCOD9534274
Probable space group: I M M A
;
_chemical_formula_sum "Si O2"
_cell_formula_units_Z 88
_cell_length_a 7.272467
_cell_length_b 17.473539
_cell_length_c 29.559915
_cell_angle_alpha 90.000000
_cell_angle_beta 90.000000
_cell_angle_gamma 90.000000
_cell_volume 3756.347947
_symmetry_space_group_name_H-M "I M M A"
_symmetry_group_IT_number 74
_symmetry_cell_setting 'orthorhombic'
loop_
_space_group_symop_operation_xyz
x,y,z
-x,1/2-y,z
x,-y,-z
-x,1/2+y,-z
-x,-y,-z
x,1/2+y,-z
-x,y,z
x,1/2-y,z
1/2+x,1/2+y,1/2+z
1/2-x,-y,1/2+z
1/2+x,1/2-y,1/2-z
1/2-x,y,1/2-z
1/2-x,1/2-y,1/2-z
1/2+x,y,1/2-z
1/2-x,1/2+y,1/2+z
1/2+x,-y,1/2+z
loop_
_atom_site_type_symbol
_atom_site_label
_atom_site_fract_x
_atom_site_fract_y
_atom_site_fract_z
Si Si1 0.281050 0.432889 0.802923
Si Si2 0.717809 0.750000 0.802998
Si Si3 0.776288 0.579842 0.477681
Si Si4 0.275540 0.837501 0.112485
Si Si5 0.775717 0.908875 0.654319
Si Si6 0.223030 0.335369 0.434879
O O1 0.500000 0.435275 0.808245
O O2 0.250000 0.418958 0.750000
O O3 0.215877 0.369773 0.838814
O O4 0.211577 0.515869 0.819686
O O5 0.500000 0.750000 0.812929
O O6 0.750000 0.750000 0.750000
O O7 0.786878 0.829981 0.822718
O O8 0.716121 0.500000 0.500000
O O9 0.716997 0.605815 0.427963
O O10 0.723349 0.356516 0.485434
O O11 0.000000 0.576101 0.475827
O O12 0.500000 0.837113 0.111762
O O13 0.217825 0.750000 0.104908
O O14 0.722203 0.898864 0.601870
O O15 0.000000 0.910706 0.655710
O O16 0.282801 0.250000 0.421844
O O17 0.000000 0.334710 0.434108
#
# Coordination Sequence:
#
# PCOD9534274 Si02
#       6
#    16   8  16  16  16  16
#     4  10  20  33  49  67  90 121 156 195 237 277
#     4  10  18  28  42  60  86 118 152 190 227 266
#     4   9  15  22  35  58  88 121 151 179 219 274
#     4   9  17  29  43  62  90 123 155 189 232 278
#     4   9  16  27  41  61  88 118 151 187 229 273
#     4   9  14  21  35  56  84 118 149 176 214 270
#
# _framework density 23.427009000000002
#
# number of rings (size 3 to 8) (size 9 to 14) (size 15 to 20)
#    0.000    2.727    0.909    2.182    0.000    6.909 
#    0.000    0.000    0.000    0.000    0.000    0.000 
#    0.000    8.000    0.000    0.727    0.000    0.000 
#
# Total GULP energy -245798.373303 kJ/mol
# GULP energy per Si atom -5586.326666 kJ/mol
# Density = 2.337369 g / cm^3
# Si number density = 23.427009 Si / 1000 Ang^3
#
#
#
# Elastic Constant Matrix: (Units=GPa)
#
#
# Indices 1 2 3 4 5 6 
#
# 1 100.8456 4.0124 -4.1195 0.0000 0.0000 0.0000
# 2 4.0124 141.6012 80.0727 0.0000 0.0000 0.0000
# 3 -4.1195 80.0727 197.8072 0.0000 0.0000 0.0000
# 4 0.0000 0.0000 0.0000 37.3128 0.0000 0.0000
# 5 0.0000 0.0000 0.0000 0.0000 2.6692 0.0000
# 6 0.0000 0.0000 0.0000 0.0000 0.0000 -32.8393
#
#
#
# Elastic Compliance Matrix: (Units=1/GPa)
#
#
# Indices 1 2 3 4 5 6 
#
# 1 0.009954 -0.000518 0.000417 0.000000 0.000000 0.000000
# 2 -0.000518 0.009185 -0.003729 0.000000 0.000000 0.000000
# 3 0.000417 -0.003729 0.006574 0.000000 0.000000 0.000000
# 4 0.000000 0.000000 0.000000 0.026800 0.000000 0.000000
# 5 0.000000 0.000000 0.000000 0.000000 0.374638 0.000000
# 6 0.000000 0.000000 0.000000 0.000000 0.000000 -0.030451
#
#
# Mechanical properties :
#
#
# Convention : Reuss Voigt Hill
#
# Bulk Modulus (GPa) = 55.39261 66.68727 61.03994
# Shear Modulus (GPa) = 12.18391 25.44777 18.81584
#
# Velocity S-wave (km/s) = 2.28300 3.29942 2.83710
# Velocity P-wave (km/s) = 5.53584 6.56069 6.06993
#
# Compressibility (1/GPa) = 0.01805295
#
# Stress axis : x y z
#
# Youngs Moduli (GPa) = 100.46431 108.86746 152.12251
#
# Poissons Ratio (x) = 0.05637 -0.06342
# Poissons Ratio (y) = 0.05202 0.56728
# Poissons Ratio (z) = -0.04188 0.40598
#
# Static dielectric constant tensor:
#      x y z
#    x 1.970310 0.000000 0.000000 
#    y 0.000000 1.847960 0.000000 
#    z 0.000000 0.000000 1.850230 
# 
# From -- ./inp_files/65928.got.cif
#   From: 2010.05.17/outbox.cif.g08.bks.cpg/sg74_33_cif.got.tgz:65928.got - 2010.06.03 17:57:02.
