data_PCOD9534606
_publ_section_title
;
Structure prediction by ZEFSAII (Michael W. Deem and Ramdas Pophale) SiO2 
 PCOD9534606
Probable space group: I M M A
;
_chemical_formula_sum "Si O2"
_cell_formula_units_Z 72
_cell_length_a 20.379543
_cell_length_b 8.004861
_cell_length_c 20.919103
_cell_angle_alpha 90.000000
_cell_angle_beta 90.000000
_cell_angle_gamma 90.000000
_cell_volume 3412.646423
_symmetry_space_group_name_H-M "I M M A"
_symmetry_group_IT_number 74
_symmetry_cell_setting 'orthorhombic'
loop_
_space_group_symop_operation_xyz
x,y,z
-x,1/2-y,z
x,-y,-z
-x,1/2+y,-z
-x,-y,-z
x,1/2+y,-z
-x,y,z
x,1/2-y,z
1/2+x,1/2+y,1/2+z
1/2-x,-y,1/2+z
1/2+x,1/2-y,1/2-z
1/2-x,y,1/2-z
1/2-x,1/2-y,1/2-z
1/2+x,y,1/2-z
1/2-x,1/2+y,1/2+z
1/2+x,-y,1/2+z
loop_
_atom_site_type_symbol
_atom_site_label
_atom_site_fract_x
_atom_site_fract_y
_atom_site_fract_z
Si Si1 0.808036 0.044912 0.796718
Si Si2 0.355607 0.053358 0.573659
Si Si3 0.923892 0.549731 0.432612
Si Si4 0.500000 0.948383 0.574345
Si Si5 0.924569 0.953891 0.292294
O O1 0.806228 0.250000 0.797796
O O2 0.750000 0.990504 0.750000
O O3 0.808517 0.986129 0.870283
O O4 0.875389 0.992212 0.762442
O O5 0.347413 0.250000 0.572075
O O6 0.347343 0.000000 0.500000
O O7 0.430231 0.016892 0.597162
O O8 0.892182 0.500000 0.500000
O O9 0.924883 0.750000 0.431866
O O10 0.898996 0.495117 0.363053
O O11 0.000000 0.490173 0.434039
O O12 0.500000 0.750000 0.580276
O O13 0.500000 0.000000 0.500000
O O14 0.925520 0.750000 0.291754
O O15 0.000000 0.008515 0.284082
#
# Coordination Sequence:
#
# PCOD9534606 Si02
#       5
#    16  16  16   8  16
#     4   9  18  31  48  72 102 134 171 215 256 301
#     4  10  19  32  53  78 106 138 175 218 268 317
#     4   8  13  22  38  61  87 115 146 186 233 277
#     4  10  18  30  50  78 110 136 169 214 263 316
#     4   8  14  25  43  66  90 120 162 207 249 294
#
# _framework density 21.097998
#
# number of rings (size 3 to 8) (size 9 to 14) (size 15 to 20)
#    0.000    3.111    0.000    4.333    1.556    0.000 
#    0.000    1.111    0.000    5.333    0.000    0.000 
#    0.000    0.000    0.000    0.000    0.000    0.000 
#
# Total GULP energy -200438.610917 kJ/mol
# GULP energy per Si atom -5567.739192 kJ/mol
# Density = 2.104998 g / cm^3
# Si number density = 21.097998 Si / 1000 Ang^3
#
#
#
# Elastic Constant Matrix: (Units=GPa)
#
#
# Indices 1 2 3 4 5 6 
#
# 1 63.4992 1.2900 71.8442 0.0000 0.0000 0.0000
# 2 1.2900 12.4952 20.0363 0.0000 0.0000 0.0000
# 3 71.8442 20.0363 195.7271 0.0000 0.0000 0.0000
# 4 0.0000 0.0000 0.0000 13.7995 0.0000 0.0000
# 5 0.0000 0.0000 0.0000 0.0000 32.1924 0.0000
# 6 0.0000 0.0000 0.0000 0.0000 0.0000 4.3314
#
#
#
# Elastic Compliance Matrix: (Units=1/GPa)
#
#
# Indices 1 2 3 4 5 6 
#
# 1 0.029756 0.017279 -0.012691 0.000000 0.000000 0.000000
# 2 0.017279 0.105780 -0.017171 0.000000 0.000000 0.000000
# 3 -0.012691 -0.017171 0.011525 0.000000 0.000000 0.000000
# 4 0.000000 0.000000 0.000000 0.072466 0.000000 0.000000
# 5 0.000000 0.000000 0.000000 0.000000 0.031063 0.000000
# 6 0.000000 0.000000 0.000000 0.000000 0.000000 0.230871
#
#
# Mechanical properties :
#
#
# Convention : Reuss Voigt Hill
#
# Bulk Modulus (GPa) = 8.20378 50.89582 29.54980
# Shear Modulus (GPa) = 9.13640 21.96807 15.55223
#
# Velocity S-wave (km/s) = 2.08323 3.23032 2.71798
# Velocity P-wave (km/s) = 3.11181 6.17165 4.88736
#
# Compressibility (1/GPa) = 0.12189500
#
# Stress axis : x y z
#
# Youngs Moduli (GPa) = 33.60637 9.45354 86.76507
#
# Poissons Ratio (x) = -0.16334 1.10115
# Poissons Ratio (y) = -0.58067 1.48983
# Poissons Ratio (z) = 0.42650 0.16233
#
# Static dielectric constant tensor:
#      x y z
#    x 1.785800 0.000000 0.000000 
#    y 0.000000 1.751850 0.000000 
#    z 0.000000 0.000000 1.829540 
# 
# From -- ./inp_files/53654.got.cif
#   From: 2010.05.17/outbox.cif.g08.bks.cpg/sg74_27_cif.got.tgz:53654.got - 2010.06.03 17:57:02.
