data_PCOD9534195
_publ_section_title
;
Structure prediction by ZEFSAII (Michael W. Deem and Ramdas Pophale) SiO2 
 PCOD9534195
Probable space group: I M M A
;
_chemical_formula_sum "Si O2"
_cell_formula_units_Z 88
_cell_length_a 21.046261
_cell_length_b 7.460829
_cell_length_c 31.021939
_cell_angle_alpha 90.000000
_cell_angle_beta 90.000000
_cell_angle_gamma 90.000000
_cell_volume 4871.144105
_symmetry_space_group_name_H-M "I M M A"
_symmetry_group_IT_number 74
_symmetry_cell_setting 'orthorhombic'
loop_
_space_group_symop_operation_xyz
x,y,z
-x,1/2-y,z
x,-y,-z
-x,1/2+y,-z
-x,-y,-z
x,1/2+y,-z
-x,y,z
x,1/2-y,z
1/2+x,1/2+y,1/2+z
1/2-x,-y,1/2+z
1/2+x,1/2-y,1/2-z
1/2-x,y,1/2-z
1/2-x,1/2-y,1/2-z
1/2+x,y,1/2-z
1/2-x,1/2+y,1/2+z
1/2+x,-y,1/2+z
loop_
_atom_site_type_symbol
_atom_site_label
_atom_site_fract_x
_atom_site_fract_y
_atom_site_fract_z
Si Si1 0.199821 0.961467 0.866801
Si Si2 0.430911 0.467370 0.229150
Si Si3 0.931872 0.967491 0.830823
Si Si4 0.791071 0.969295 0.707588
Si Si5 0.860798 0.538414 0.050385
Si Si6 0.500000 0.964355 0.448482
O O1 0.198240 0.750000 0.857772
O O2 0.132192 0.038483 0.851437
O O3 0.255539 0.029591 0.835992
O O4 0.195948 0.980848 0.918152
O O5 0.500000 0.529240 0.212257
O O6 0.431017 0.250000 0.225848
O O7 0.429337 0.509009 0.280057
O O8 0.364132 0.530427 0.209911
O O9 0.932053 0.750000 0.834119
O O10 0.000000 0.031536 0.848345
O O11 0.792687 0.750000 0.708611
O O12 0.750000 0.021643 0.750000
O O13 0.865706 0.750000 0.054303
O O14 0.930427 0.462076 0.064834
O O15 0.850973 0.500000 0.000000
O O16 0.500000 0.750000 0.441810
O O17 0.500000 0.000000 0.500000
#
# Coordination Sequence:
#
# PCOD9534195 Si02
#       6
#    16  16  16  16  16   8
#     4  10  18  26  41  63  84 111 143 177 217 253
#     4   8  12  19  32  51  80 115 146 177 210 241
#     4   8  13  20  31  53  82 109 140 175 208 242
#     4   9  14  22  35  56  86 115 143 176 211 247
#     4  10  20  34  47  60  81 107 140 178 216 255
#     4   8  16  30  46  60  76 104 138 176 216 250
#
# _framework density 18.065570000000001
#
# number of rings (size 3 to 8) (size 9 to 14) (size 15 to 20)
#    0.000    3.091    1.818    1.636    1.273    0.727 
#    0.000    0.000    0.000    0.545    0.000    0.000 
#    0.000    1.455    0.000    1.273    0.000    1.818 
#
# Total GULP energy -245167.243422 kJ/mol
# GULP energy per Si atom -5571.982805 kJ/mol
# Density = 1.802445 g / cm^3
# Si number density = 18.065570 Si / 1000 Ang^3
#
#
#
# Elastic Constant Matrix: (Units=GPa)
#
#
# Indices 1 2 3 4 5 6 
#
# 1 151.2379 5.7840 74.1314 0.0000 0.0000 0.0000
# 2 5.7840 57.5384 -0.2633 0.0000 0.0000 0.0000
# 3 74.1314 -0.2633 90.2917 0.0000 0.0000 0.0000
# 4 0.0000 0.0000 0.0000 -1.9308 0.0000 0.0000
# 5 0.0000 0.0000 0.0000 0.0000 31.5603 0.0000
# 6 0.0000 0.0000 0.0000 0.0000 0.0000 -1.6278
#
#
#
# Elastic Compliance Matrix: (Units=1/GPa)
#
#
# Indices 1 2 3 4 5 6 
#
# 1 0.011142 -0.001162 -0.009151 0.000000 0.000000 0.000000
# 2 -0.001162 0.017501 0.001005 0.000000 0.000000 0.000000
# 3 -0.009151 0.001005 0.018592 0.000000 0.000000 0.000000
# 4 0.000000 0.000000 0.000000 -0.517928 0.000000 0.000000
# 5 0.000000 0.000000 0.000000 0.000000 0.031685 0.000000
# 6 0.000000 0.000000 0.000000 0.000000 0.000000 -0.614326
#
#
# Mechanical properties :
#
#
# Convention : Reuss Voigt Hill
#
# Bulk Modulus (GPa) = 34.94266 50.93026 42.93646
# Shear Modulus (GPa) = -4.87720 20.22807 7.67543
#
# Velocity S-wave (km/s) = -1.64487 3.34983 2.06346
# Velocity P-wave (km/s) = 3.97199 6.57380 5.43100
#
# Compressibility (1/GPa) = 0.02861831
#
# Stress axis : x y z
#
# Youngs Moduli (GPa) = 89.74867 57.13925 53.78761
#
# Poissons Ratio (x) = 0.06639 0.49223
# Poissons Ratio (y) = 0.10428 -0.05406
# Poissons Ratio (z) = 0.82133 -0.05743
#
# Static dielectric constant tensor:
#      x y z
#    x 1.661640 0.000000 0.000000 
#    y 0.000000 1.686850 0.000000 
#    z 0.000000 0.000000 1.588960 
# 
# From -- ./inp_files/70427.got.cif
#   From: 2010.05.17/outbox.cif.g08.bks.cpg/sg74_36_cif.got.tgz:70427.got - 2010.06.03 17:57:02.
