data_PCOD9534215
_publ_section_title
;
Structure prediction by ZEFSAII (Michael W. Deem and Ramdas Pophale) SiO2 
 PCOD9534215
Probable space group: I M M A
;
_chemical_formula_sum "Si O2"
_cell_formula_units_Z 80
_cell_length_a 10.451124
_cell_length_b 26.632979
_cell_length_c 20.553882
_cell_angle_alpha 90.000000
_cell_angle_beta 90.000000
_cell_angle_gamma 90.000000
_cell_volume 5721.061365
_symmetry_space_group_name_H-M "I M M A"
_symmetry_group_IT_number 74
_symmetry_cell_setting 'orthorhombic'
loop_
_space_group_symop_operation_xyz
x,y,z
-x,1/2-y,z
x,-y,-z
-x,1/2+y,-z
-x,-y,-z
x,1/2+y,-z
-x,y,z
x,1/2-y,z
1/2+x,1/2+y,1/2+z
1/2-x,-y,1/2+z
1/2+x,1/2-y,1/2-z
1/2-x,y,1/2-z
1/2-x,1/2-y,1/2-z
1/2+x,y,1/2-z
1/2-x,1/2+y,1/2+z
1/2+x,-y,1/2+z
loop_
_atom_site_type_symbol
_atom_site_label
_atom_site_fract_x
_atom_site_fract_y
_atom_site_fract_z
Si Si1 0.000000 0.982728 0.891613
Si Si2 0.150222 0.310377 0.807420
Si Si3 0.743936 0.882495 0.416070
Si Si4 0.751677 0.982562 0.326796
Si Si5 0.500000 0.415121 0.979852
Si Si6 0.500000 0.080484 0.513960
Si Si7 0.500000 0.518605 0.895822
O O1 0.125517 0.987858 0.848551
O O2 0.000000 0.030511 0.940748
O O3 0.000000 0.935616 0.939375
O O4 0.148791 0.250000 0.811139
O O5 0.250000 0.324530 0.750000
O O6 0.208436 0.334843 0.872289
O O7 0.000000 0.326692 0.797819
O O8 0.749494 0.929620 0.365613
O O9 0.875129 0.884994 0.456358
O O10 0.627509 0.891164 0.465358
O O11 0.750000 0.973735 0.250000
O O12 0.874562 0.013302 0.351584
O O13 0.500000 0.467879 0.939950
O O14 0.500000 0.434311 0.054585
#
# Coordination Sequence:
#
# PCOD9534215 Si02
#       7
#     8  16  16  16   8   8   8
#     4   9  17  26  40  58  77 107 137 174 215 246
#     4  10  21  35  48  63  86 114 144 182 226 265
#     4  10  18  30  44  63  81 107 148 184 216 248
#     4  10  18  27  40  59  85 112 144 179 212 249
#     4   9  18  28  45  61  80 110 142 183 217 248
#     4   9  16  28  43  57  78 102 140 181 209 250
#     4   9  17  30  40  58  85 111 143 178 215 252
#
# _framework density 13.983420000000001
#
# number of rings (size 3 to 8) (size 9 to 14) (size 15 to 20)
#    0.000    2.400    1.000    2.400    1.400    4.800 
#    3.600    0.000    0.000    0.000    0.000    0.000 
#    0.000    0.000    0.000    0.000    0.000   70.000 
#
# Total GULP energy -222783.706985 kJ/mol
# GULP energy per Si atom -5569.592675 kJ/mol
# Density = 1.395159 g / cm^3
# Si number density = 13.983420 Si / 1000 Ang^3
#
#
#
# Elastic Constant Matrix: (Units=GPa)
#
#
# Indices 1 2 3 4 5 6 
#
# 1 132.0117 15.4574 28.5732 0.0000 0.0000 0.0000
# 2 15.4574 14.9178 5.5250 0.0000 0.0000 0.0000
# 3 28.5732 5.5250 47.9360 0.0000 0.0000 0.0000
# 4 0.0000 0.0000 0.0000 26.3074 0.0000 0.0000
# 5 0.0000 0.0000 0.0000 0.0000 21.1131 0.0000
# 6 0.0000 0.0000 0.0000 0.0000 0.0000 -0.7215
#
#
#
# Elastic Compliance Matrix: (Units=1/GPa)
#
#
# Indices 1 2 3 4 5 6 
#
# 1 0.009558 -0.008142 -0.004759 0.000000 0.000000 0.000000
# 2 -0.008142 0.076958 -0.004017 0.000000 0.000000 0.000000
# 3 -0.004759 -0.004017 0.024161 0.000000 0.000000 0.000000
# 4 0.000000 0.000000 0.000000 0.038012 0.000000 0.000000
# 5 0.000000 0.000000 0.000000 0.000000 0.047364 0.000000
# 6 0.000000 0.000000 0.000000 0.000000 0.000000 -1.386049
#
#
# Mechanical properties :
#
#
# Convention : Reuss Voigt Hill
#
# Bulk Modulus (GPa) = 13.01375 32.66406 22.83890
# Shear Modulus (GPa) = -4.42264 19.02713 7.30224
#
# Velocity S-wave (km/s) = -1.78035 3.69276 2.28766
# Velocity P-wave (km/s) = 2.25844 6.44917 4.83179
#
# Compressibility (1/GPa) = 0.07684183
#
# Stress axis : x y z
#
# Youngs Moduli (GPa) = 104.61912 12.99410 41.38912
#
# Poissons Ratio (x) = 0.10579 0.19698
# Poissons Ratio (y) = 0.85177 0.16626
# Poissons Ratio (z) = 0.49790 0.05220
#
# Static dielectric constant tensor:
#      x y z
#    x 1.480990 0.000000 0.000000 
#    y 0.000000 1.444050 0.000000 
#    z 0.000000 0.000000 1.450500 
# 
# From -- ./inp_files/57206.got.cif
#   From: 2010.05.17/outbox.cif.g08.bks.cpg/sg74_29_cif.got.tgz:57206.got - 2010.06.03 17:57:02.
