data_PCOD9534354
_publ_section_title
;
Structure prediction by ZEFSAII (Michael W. Deem and Ramdas Pophale) SiO2 
 PCOD9534354
Probable space group: I M M A
;
_chemical_formula_sum "Si O2"
_cell_formula_units_Z 44
_cell_length_a 31.328014
_cell_length_b 5.506490
_cell_length_c 12.019853
_cell_angle_alpha 90.000000
_cell_angle_beta 90.000000
_cell_angle_gamma 90.000000
_cell_volume 2073.513539
_symmetry_space_group_name_H-M "I M M A"
_symmetry_group_IT_number 74
_symmetry_cell_setting 'orthorhombic'
loop_
_space_group_symop_operation_xyz
x,y,z
-x,1/2-y,z
x,-y,-z
-x,1/2+y,-z
-x,-y,-z
x,1/2+y,-z
-x,y,z
x,1/2-y,z
1/2+x,1/2+y,1/2+z
1/2-x,-y,1/2+z
1/2+x,1/2-y,1/2-z
1/2-x,y,1/2-z
1/2-x,1/2-y,1/2-z
1/2+x,y,1/2-z
1/2-x,1/2+y,1/2+z
1/2+x,-y,1/2+z
loop_
_atom_site_type_symbol
_atom_site_label
_atom_site_fract_x
_atom_site_fract_y
_atom_site_fract_z
Si Si1 0.676624 0.750000 0.696212
Si Si2 0.289689 0.250000 0.050826
Si Si3 0.500000 0.750000 0.923209
Si Si4 0.202920 0.750000 0.196852
Si Si5 0.632141 0.750000 0.106008
Si Si6 0.092061 0.250000 0.327132
O O1 0.692188 0.504089 0.639336
O O2 0.625830 0.750000 0.722278
O O3 0.702571 0.750000 0.816676
O O4 0.337734 0.250000 0.001239
O O5 0.271523 0.500000 0.000000
O O6 0.541201 0.750000 0.841830
O O7 0.500000 0.500000 0.000000
O O8 0.250000 0.750000 0.250000
O O9 0.167992 0.750000 0.297073
O O10 0.604154 0.511271 0.120507
#
# Coordination Sequence:
#
# PCOD9534354 Si02
#       6
#     8   8   4   8   8   8
#     4  10  19  28  43  56  69 104 119 156 198 229
#     4  12  16  25  41  55  71  88 130 144 182 230
#     4  12  26  28  38  56  76 100 126 168 210 226
#     4  10  18  29  40  58  75  88 119 155 200 239
#     4  10  19  29  45  55  69 102 120 160 196 232
#     4  10  20  30  38  51  74  92 130 148 200 240
#
# _framework density 21.220020999999999
#
# number of rings (size 3 to 8) (size 9 to 14) (size 15 to 20)
#    0.000    1.455    7.273    1.636    5.091    0.000 
#    0.000    0.000    0.000    0.000    0.000    0.000 
#    0.000    0.000    0.000    0.000    0.000    0.000 
#
# Total GULP energy -122608.829541 kJ/mol
# GULP energy per Si atom -5573.128616 kJ/mol
# Density = 2.117172 g / cm^3
# Si number density = 21.220021 Si / 1000 Ang^3
#
#
#
# Elastic Constant Matrix: (Units=GPa)
#
#
# Indices 1 2 3 4 5 6 
#
# 1 201.3122 56.9778 24.5020 0.0000 0.0000 0.0000
# 2 56.9778 231.4487 10.7378 0.0000 0.0000 0.0000
# 3 24.5020 10.7378 37.5388 0.0000 0.0000 0.0000
# 4 0.0000 0.0000 0.0000 -9.1042 0.0000 0.0000
# 5 0.0000 0.0000 0.0000 0.0000 20.7729 0.0000
# 6 0.0000 0.0000 0.0000 0.0000 0.0000 -70.8879
#
#
#
# Elastic Compliance Matrix: (Units=1/GPa)
#
#
# Indices 1 2 3 4 5 6 
#
# 1 0.005734 -0.001255 -0.003384 0.000000 0.000000 0.000000
# 2 -0.001255 0.004653 -0.000512 0.000000 0.000000 0.000000
# 3 -0.003384 -0.000512 0.028994 0.000000 0.000000 0.000000
# 4 0.000000 0.000000 0.000000 -0.109839 0.000000 0.000000
# 5 0.000000 0.000000 0.000000 0.000000 0.048140 0.000000
# 6 0.000000 0.000000 0.000000 0.000000 0.000000 -0.014107
#
#
# Mechanical properties :
#
#
# Convention : Reuss Voigt Hill
#
# Bulk Modulus (GPa) = 34.38738 72.74832 53.56785
# Shear Modulus (GPa) = -304.33137 13.36163 -145.48487
#
# Velocity S-wave (km/s) = -11.98868 2.51205 -8.28909
# Velocity P-wave (km/s) = 13.24377 6.53996 8.14329
#
# Compressibility (1/GPa) = 0.02908043
#
# Stress axis : x y z
#
# Youngs Moduli (GPa) = 174.38617 214.90363 34.48946
#
# Poissons Ratio (x) = 0.26964 0.11671
# Poissons Ratio (y) = 0.21880 0.01766
# Poissons Ratio (z) = 0.59012 0.11005
#
# Static dielectric constant tensor:
#      x y z
#    x 1.782220 0.000000 0.000000 
#    y 0.000000 2.019730 0.000000 
#    z 0.000000 0.000000 1.808720 
# 
# From -- ./inp_files/46365.got.cif
#   From: 2010.05.17/outbox.cif.g08.bks.cpg/sg74_24_cif.got.tgz:46365.got - 2010.06.03 17:57:02.
