data_PCOD9534629
_publ_section_title
;
Structure prediction by ZEFSAII (Michael W. Deem and Ramdas Pophale) SiO2 
 PCOD9534629
Probable space group: I M M A
;
_chemical_formula_sum "Si O2"
_cell_formula_units_Z 104
_cell_length_a 27.786248
_cell_length_b 8.466029
_cell_length_c 23.235390
_cell_angle_alpha 90.000000
_cell_angle_beta 90.000000
_cell_angle_gamma 90.000000
_cell_volume 5465.874122
_symmetry_space_group_name_H-M "I M M A"
_symmetry_group_IT_number 74
_symmetry_cell_setting 'orthorhombic'
loop_
_space_group_symop_operation_xyz
x,y,z
-x,1/2-y,z
x,-y,-z
-x,1/2+y,-z
-x,-y,-z
x,1/2+y,-z
-x,y,z
x,1/2-y,z
1/2+x,1/2+y,1/2+z
1/2-x,-y,1/2+z
1/2+x,1/2-y,1/2-z
1/2-x,y,1/2-z
1/2-x,1/2-y,1/2-z
1/2+x,y,1/2-z
1/2-x,1/2+y,1/2+z
1/2+x,-y,1/2+z
loop_
_atom_site_type_symbol
_atom_site_label
_atom_site_fract_x
_atom_site_fract_y
_atom_site_fract_z
Si Si1 0.305567 0.065568 0.101453
Si Si2 0.905823 0.939829 0.627199
Si Si3 0.056157 0.441883 0.748325
Si Si4 0.193709 0.074286 0.261389
Si Si5 0.633104 0.433285 0.665532
Si Si6 0.500000 0.938380 0.064282
Si Si7 0.798122 0.561055 0.063856
O O1 0.301775 0.250000 0.084596
O O2 0.359425 0.002822 0.089807
O O3 0.308908 0.054427 0.170646
O O4 0.256895 0.985390 0.079871
O O5 0.902276 0.750000 0.629240
O O6 0.913713 0.998634 0.692956
O O7 0.953361 0.995514 0.595733
O O8 0.057175 0.250000 0.747017
O O9 0.083137 0.496056 0.807053
O O10 0.000000 0.490708 0.744756
O O11 0.174655 0.250000 0.246258
O O12 0.250000 0.072291 0.250000
O O13 0.168505 0.949928 0.220292
O O14 0.624468 0.250000 0.651790
O O15 0.663363 0.501285 0.611539
O O16 0.500000 0.750000 0.067026
O O17 0.500000 0.000000 0.000000
O O18 0.800417 0.750000 0.064514
O O19 0.808865 0.500000 0.000000
#
# Coordination Sequence:
#
# PCOD9534629 Si02
#       7
#    16  16  16  16  16   8  16
#     4  10  21  36  56  84 117 151 186 227 279 335
#     4  11  22  37  59  87 118 151 190 237 285 337
#     4  10  20  35  57  86 118 150 185 233 293 350
#     4  10  18  30  51  80 112 145 178 216 268 328
#     4  10  21  35  55  84 114 146 189 235 287 345
#     4  12  26  44  62  80 108 152 201 244 285 332
#     4  11  24  40  58  80 111 153 196 241 287 343
#
# _framework density 19.027149000000001
#
# number of rings (size 3 to 8) (size 9 to 14) (size 15 to 20)
#    0.000    1.538    3.846    1.615    0.000    3.385 
#    0.000    0.000    0.000    0.462    0.000    0.000 
#    0.000    0.000    0.000    0.000    0.000    0.154 
#
# Total GULP energy -289826.513267 kJ/mol
# GULP energy per Si atom -5573.586794 kJ/mol
# Density = 1.898384 g / cm^3
# Si number density = 19.027149 Si / 1000 Ang^3
#
#
#
# Elastic Constant Matrix: (Units=GPa)
#
#
# Indices 1 2 3 4 5 6 
#
# 1 87.0404 18.9616 47.1915 0.0000 0.0000 0.0000
# 2 18.9616 32.5501 13.9534 0.0000 0.0000 0.0000
# 3 47.1915 13.9534 86.3200 0.0000 0.0000 0.0000
# 4 0.0000 0.0000 0.0000 23.0346 0.0000 0.0000
# 5 0.0000 0.0000 0.0000 0.0000 69.4061 0.0000
# 6 0.0000 0.0000 0.0000 0.0000 0.0000 17.7354
#
#
#
# Elastic Compliance Matrix: (Units=1/GPa)
#
#
# Indices 1 2 3 4 5 6 
#
# 1 0.017544 -0.006563 -0.008530 0.000000 0.000000 0.000000
# 2 -0.006563 0.035464 -0.002145 0.000000 0.000000 0.000000
# 3 -0.008530 -0.002145 0.016595 0.000000 0.000000 0.000000
# 4 0.000000 0.000000 0.000000 0.043413 0.000000 0.000000
# 5 0.000000 0.000000 0.000000 0.000000 0.014408 0.000000
# 6 0.000000 0.000000 0.000000 0.000000 0.000000 0.056385
#
#
# Mechanical properties :
#
#
# Convention : Reuss Voigt Hill
#
# Bulk Modulus (GPa) = 28.46808 40.68039 34.57424
# Shear Modulus (GPa) = 21.73975 30.42216 26.08095
#
# Velocity S-wave (km/s) = 3.38385 4.00294 3.70634
# Velocity P-wave (km/s) = 5.50105 6.54151 6.04371
#
# Compressibility (1/GPa) = 0.03512706
#
# Stress axis : x y z
#
# Youngs Moduli (GPa) = 57.00085 28.19729 60.25907
#
# Poissons Ratio (x) = 0.18506 0.51403
# Poissons Ratio (y) = 0.37410 0.12924
# Poissons Ratio (z) = 0.48623 0.06047
#
# Static dielectric constant tensor:
#      x y z
#    x 1.708700 0.000000 0.000000 
#    y 0.000000 1.682910 0.000000 
#    z 0.000000 0.000000 1.683620 
# 
# From -- ./inp_files/55202.got.cif
#   From: 2010.05.17/outbox.cif.g08.bks.cpg/sg74_28_cif.got.tgz:55202.got - 2010.06.03 17:57:02.
