data_PCOD9534562
_publ_section_title
;
Structure prediction by ZEFSAII (Michael W. Deem and Ramdas Pophale) SiO2 
 PCOD9534562
Probable space group: I M M A
;
_chemical_formula_sum "Si O2"
_cell_formula_units_Z 88
_cell_length_a 24.874191
_cell_length_b 17.891990
_cell_length_c 12.330130
_cell_angle_alpha 90.000000
_cell_angle_beta 90.000000
_cell_angle_gamma 90.000000
_cell_volume 5487.509272
_symmetry_space_group_name_H-M "I M M A"
_symmetry_group_IT_number 74
_symmetry_cell_setting 'orthorhombic'
loop_
_space_group_symop_operation_xyz
x,y,z
-x,1/2-y,z
x,-y,-z
-x,1/2+y,-z
-x,-y,-z
x,1/2+y,-z
-x,y,z
x,1/2-y,z
1/2+x,1/2+y,1/2+z
1/2-x,-y,1/2+z
1/2+x,1/2-y,1/2-z
1/2-x,y,1/2-z
1/2-x,1/2-y,1/2-z
1/2+x,y,1/2-z
1/2-x,1/2+y,1/2+z
1/2+x,-y,1/2+z
loop_
_atom_site_type_symbol
_atom_site_label
_atom_site_fract_x
_atom_site_fract_y
_atom_site_fract_z
Si Si1 0.150762 0.552780 0.694984
Si Si2 0.861895 0.163510 0.510069
Si Si3 0.438860 0.049110 0.889042
Si Si4 0.799607 0.165281 0.164164
Si Si5 0.240973 0.165575 0.919495
Si Si6 0.250000 0.547051 0.250000
O O1 0.146703 0.610547 0.594611
O O2 0.100058 0.498030 0.689218
O O3 0.157642 0.603791 0.800702
O O4 0.205135 0.503441 0.691473
O O5 0.871919 0.250000 0.480098
O O6 0.909341 0.126044 0.579165
O O7 0.805817 0.161677 0.575038
O O8 0.500000 0.058640 0.851713
O O9 0.440243 0.000000 0.000000
O O10 0.820242 0.250000 0.173713
O O11 0.750000 0.159787 0.250000
O O12 0.778723 0.154292 0.042547
O O13 0.225631 0.250000 0.885889
O O14 0.222709 0.101544 0.837970
#
# Coordination Sequence:
#
# PCOD9534562 Si02
#       6
#    16  16  16  16  16   8
#     4  11  19  29  49  74 100 129 169 216 253 314
#     4  10  18  31  50  69  97 135 169 210 257 300
#     4   9  19  33  48  70 101 135 169 207 257 312
#     4  10  18  30  48  72 100 133 170 213 260 311
#     4  10  20  32  46  70 106 138 168 207 255 315
#     4  12  21  30  47  74 104 144 170 206 265 318
#
# _framework density 16.03642
#
# number of rings (size 3 to 8) (size 9 to 14) (size 15 to 20)
#    0.000    1.818    4.545    0.818    0.000    2.545 
#    0.000    0.000    0.000    1.636    0.000    2.545 
#    0.000    1.455    0.000    0.000    0.000    0.000 
#
# Total GULP energy -245251.680863 kJ/mol
# GULP energy per Si atom -5573.901838 kJ/mol
# Density = 1.599992 g / cm^3
# Si number density = 16.036420 Si / 1000 Ang^3
#
#
#
# Elastic Constant Matrix: (Units=GPa)
#
#
# Indices 1 2 3 4 5 6 
#
# 1 88.4035 47.9805 16.5643 0.0000 0.0000 0.0000
# 2 47.9805 130.1440 45.3051 0.0000 0.0000 0.0000
# 3 16.5643 45.3051 50.1107 0.0000 0.0000 0.0000
# 4 0.0000 0.0000 0.0000 24.3904 0.0000 0.0000
# 5 0.0000 0.0000 0.0000 0.0000 14.8074 0.0000
# 6 0.0000 0.0000 0.0000 0.0000 0.0000 14.9444
#
#
#
# Elastic Compliance Matrix: (Units=1/GPa)
#
#
# Indices 1 2 3 4 5 6 
#
# 1 0.014141 -0.005233 0.000057 0.000000 0.000000 0.000000
# 2 -0.005233 0.013150 -0.010159 0.000000 0.000000 0.000000
# 3 0.000057 -0.010159 0.029121 0.000000 0.000000 0.000000
# 4 0.000000 0.000000 0.000000 0.041000 0.000000 0.000000
# 5 0.000000 0.000000 0.000000 0.000000 0.067534 0.000000
# 6 0.000000 0.000000 0.000000 0.000000 0.000000 0.066915
#
#
# Mechanical properties :
#
#
# Convention : Reuss Voigt Hill
#
# Bulk Modulus (GPa) = 38.84641 54.26197 46.55419
# Shear Modulus (GPa) = 18.44259 21.41566 19.92913
#
# Velocity S-wave (km/s) = 3.39491 3.65833 3.52908
# Velocity P-wave (km/s) = 6.29632 7.19407 6.76012
#
# Compressibility (1/GPa) = 0.02574241
#
# Stress axis : x y z
#
# Youngs Moduli (GPa) = 70.71386 76.04808 34.33908
#
# Poissons Ratio (x) = 0.39799 -0.00196
# Poissons Ratio (y) = 0.37008 0.34884
# Poissons Ratio (z) = -0.00403 0.77254
#
# Static dielectric constant tensor:
#      x y z
#    x 1.527150 0.000000 0.000000 
#    y 0.000000 1.580300 0.000000 
#    z 0.000000 0.000000 1.539950 
# 
# From -- ./inp_files/27290.got.cif
#   From: 2010.05.17/outbox.cif.g08.bks.cpg/sg74_14_cif.got.tgz:27290.got - 2010.06.03 17:57:02.
