data_PCOD9534303
_publ_section_title
;
Structure prediction by ZEFSAII (Michael W. Deem and Ramdas Pophale) SiO2 
 PCOD9534303
Probable space group: I M M A
;
_chemical_formula_sum "Si O2"
_cell_formula_units_Z 128
_cell_length_a 24.087200
_cell_length_b 19.570303
_cell_length_c 17.628938
_cell_angle_alpha 90.000000
_cell_angle_beta 90.000000
_cell_angle_gamma 90.000000
_cell_volume 8310.172116
_symmetry_space_group_name_H-M "I M M A"
_symmetry_group_IT_number 74
_symmetry_cell_setting 'orthorhombic'
loop_
_space_group_symop_operation_xyz
x,y,z
-x,1/2-y,z
x,-y,-z
-x,1/2+y,-z
-x,-y,-z
x,1/2+y,-z
-x,y,z
x,1/2-y,z
1/2+x,1/2+y,1/2+z
1/2-x,-y,1/2+z
1/2+x,1/2-y,1/2-z
1/2-x,y,1/2-z
1/2-x,1/2-y,1/2-z
1/2+x,y,1/2-z
1/2-x,1/2+y,1/2+z
1/2+x,-y,1/2+z
loop_
_atom_site_type_symbol
_atom_site_label
_atom_site_fract_x
_atom_site_fract_y
_atom_site_fract_z
Si Si1 0.268983 0.328091 0.063976
Si Si2 0.436384 0.570872 0.913875
Si Si3 0.625788 0.172522 0.169393
Si Si4 0.246884 0.561145 0.059570
Si Si5 0.804383 0.367940 0.196711
Si Si6 0.433591 0.831325 0.059283
Si Si7 0.134276 0.558044 0.359609
Si Si8 0.690691 0.526950 0.293321
O O1 0.278978 0.250000 0.044203
O O2 0.323000 0.350656 0.113747
O O3 0.216055 0.335213 0.119193
O O4 0.256823 0.372572 0.991087
O O5 0.500000 0.550592 0.921017
O O6 0.423729 0.620643 0.843641
O O7 0.401345 0.503022 0.897730
O O8 0.423388 0.621200 0.984839
O O9 0.611398 0.250000 0.149833
O O10 0.648704 0.168388 0.254406
O O11 0.305768 0.549975 0.101057
O O12 0.200888 0.564237 0.126199
O O13 0.235795 0.500000 0.000000
O O14 0.750000 0.364309 0.250000
O O15 0.818525 0.447353 0.187497
O O16 0.500000 0.835514 0.075384
O O17 0.420658 0.750000 0.049378
O O18 0.395807 0.870327 0.121051
O O19 0.145607 0.549516 0.269413
O O20 0.750000 0.531463 0.250000
#
# Coordination Sequence:
#
# PCOD9534303 Si02
#       8
#    16  16  16  16  16  16  16  16
#     4  10  19  29  45  69  95 123 158 192 225 273
#     4  11  21  32  47  69  94 121 157 201 235 265
#     4  10  18  28  44  67  97 131 156 180 225 280
#     4  11  19  29  47  68  93 125 154 190 230 276
#     4   9  15  28  44  65  94 122 152 189 225 272
#     4  10  21  35  49  67  93 125 161 199 234 264
#     4  11  20  33  50  67  91 125 164 194 228 275
#     4   9  18  30  46  67  91 119 156 194 229 272
#
# _framework density 15.402810000000001
#
# number of rings (size 3 to 8) (size 9 to 14) (size 15 to 20)
#    0.000    1.875    2.500    3.750    0.000    4.750 
#    0.000    0.625    0.000    2.250    0.000    0.000 
#    0.000    9.000    0.000    1.750    0.000    0.000 
#
# Total GULP energy -356516.318655 kJ/mol
# GULP energy per Si atom -5570.567479 kJ/mol
# Density = 1.536775 g / cm^3
# Si number density = 15.402810 Si / 1000 Ang^3
#
#
#
# Elastic Constant Matrix: (Units=GPa)
#
#
# Indices 1 2 3 4 5 6 
#
# 1 42.1335 25.2087 27.4726 0.0000 0.0000 0.0000
# 2 25.2087 68.0273 34.2722 0.0000 0.0000 0.0000
# 3 27.4726 34.2722 78.2069 0.0000 0.0000 0.0000
# 4 0.0000 0.0000 0.0000 22.4376 0.0000 0.0000
# 5 0.0000 0.0000 0.0000 0.0000 16.4899 0.0000
# 6 0.0000 0.0000 0.0000 0.0000 0.0000 15.2768
#
#
#
# Elastic Compliance Matrix: (Units=1/GPa)
#
#
# Indices 1 2 3 4 5 6 
#
# 1 0.034234 -0.008505 -0.008299 0.000000 0.000000 0.000000
# 2 -0.008505 0.020978 -0.006205 0.000000 0.000000 0.000000
# 3 -0.008299 -0.006205 0.018421 0.000000 0.000000 0.000000
# 4 0.000000 0.000000 0.000000 0.044568 0.000000 0.000000
# 5 0.000000 0.000000 0.000000 0.000000 0.060643 0.000000
# 6 0.000000 0.000000 0.000000 0.000000 0.000000 0.065459
#
#
# Mechanical properties :
#
#
# Convention : Reuss Voigt Hill
#
# Bulk Modulus (GPa) = 36.21254 40.25273 38.23264
# Shear Modulus (GPa) = 16.69308 17.60181 17.14745
#
# Velocity S-wave (km/s) = 3.29564 3.38415 3.34019
# Velocity P-wave (km/s) = 6.16790 6.43895 6.30488
#
# Compressibility (1/GPa) = 0.02761474
#
# Stress axis : x y z
#
# Youngs Moduli (GPa) = 29.21103 47.66906 54.28569
#
# Poissons Ratio (x) = 0.40543 0.45049
# Poissons Ratio (y) = 0.24844 0.33686
# Poissons Ratio (z) = 0.24241 0.29581
#
# Static dielectric constant tensor:
#      x y z
#    x 1.519920 0.000000 0.000000 
#    y 0.000000 1.528890 0.000000 
#    z 0.000000 0.000000 1.541380 
# 
# From -- ./inp_files/46347.got.cif
#   From: 2010.05.17/outbox.cif.g08.bks.cpg/sg74_24_cif.got.tgz:46347.got - 2010.06.03 17:57:02.
