data_PCOD9534351
_publ_section_title
;
Structure prediction by ZEFSAII (Michael W. Deem and Ramdas Pophale) SiO2 
 PCOD9534351
Probable space group: I M M A
;
_chemical_formula_sum "Si O2"
_cell_formula_units_Z 96
_cell_length_a 15.667462
_cell_length_b 23.902262
_cell_length_c 13.036115
_cell_angle_alpha 90.000000
_cell_angle_beta 90.000000
_cell_angle_gamma 90.000000
_cell_volume 4881.865787
_symmetry_space_group_name_H-M "I M M A"
_symmetry_group_IT_number 74
_symmetry_cell_setting 'orthorhombic'
loop_
_space_group_symop_operation_xyz
x,y,z
-x,1/2-y,z
x,-y,-z
-x,1/2+y,-z
-x,-y,-z
x,1/2+y,-z
-x,y,z
x,1/2-y,z
1/2+x,1/2+y,1/2+z
1/2-x,-y,1/2+z
1/2+x,1/2-y,1/2-z
1/2-x,y,1/2-z
1/2-x,1/2-y,1/2-z
1/2+x,y,1/2-z
1/2-x,1/2+y,1/2+z
1/2+x,-y,1/2+z
loop_
_atom_site_type_symbol
_atom_site_label
_atom_site_fract_x
_atom_site_fract_y
_atom_site_fract_z
Si Si1 0.397022 0.186255 0.902225
Si Si2 0.598244 0.188250 0.543460
Si Si3 0.896543 0.491686 0.120200
Si Si4 0.104748 0.392885 0.780641
Si Si5 0.354598 0.866529 0.663081
Si Si6 0.166772 0.316466 0.367832
O O1 0.500000 0.186969 0.898226
O O2 0.368779 0.250000 0.874105
O O3 0.368115 0.138086 0.823593
O O4 0.369760 0.174807 0.018917
O O5 0.500000 0.194716 0.575868
O O6 0.638343 0.250000 0.539183
O O7 0.636564 0.146787 0.626878
O O8 0.596962 0.159796 0.433070
O O9 0.869014 0.544275 0.189911
O O10 0.861066 0.433005 0.159477
O O11 0.000000 0.488493 0.122933
O O12 0.873283 0.500000 0.000000
O O13 0.000000 0.394335 0.780639
O O14 0.258614 0.845431 0.641744
O O15 0.384438 0.842243 0.772109
O O16 0.174880 0.250000 0.351741
#
# Coordination Sequence:
#
# PCOD9534351 Si02
#       6
#    16  16  16  16  16  16
#     4   9  18  35  59  84 111 144 181 223 274 334
#     4  10  18  28  51  84 109 133 175 227 273 323
#     4  10  19  34  56  82 112 147 181 220 273 324
#     4   9  17  32  54  81 112 143 175 218 275 326
#     4  11  20  35  54  76 106 148 185 225 270 324
#     4  10  22  39  56  77 109 148 183 224 282 329
#
# _framework density 19.664612999999999
#
# number of rings (size 3 to 8) (size 9 to 14) (size 15 to 20)
#    0.000    2.167    1.667    3.000    0.000    3.333 
#    0.000    6.667    0.000    6.000    0.000    0.000 
#    0.000    0.000    0.000    0.000    0.000    0.000 
#
# Total GULP energy -267737.705189 kJ/mol
# GULP energy per Si atom -5577.868858 kJ/mol
# Density = 1.961986 g / cm^3
# Si number density = 19.664613 Si / 1000 Ang^3
#
#
#
# Elastic Constant Matrix: (Units=GPa)
#
#
# Indices 1 2 3 4 5 6 
#
# 1 14.1037 16.6698 13.4705 0.0001 0.0000 0.0000
# 2 16.6698 220.6216 112.3217 0.0002 0.0000 0.0000
# 3 13.4705 112.3217 141.0415 0.0002 0.0000 0.0000
# 4 0.0001 0.0002 0.0002 -9.7804 0.0001 0.0000
# 5 0.0000 0.0000 0.0000 0.0001 32.5544 0.0000
# 6 0.0000 0.0000 0.0000 0.0000 0.0000 18.8839
#
#
#
# Elastic Compliance Matrix: (Units=1/GPa)
#
#
# Indices 1 2 3 4 5 6 
#
# 1 0.079694 -0.003610 -0.004736 0.000000 0.000000 0.000000
# 2 -0.003610 0.007787 -0.005857 0.000000 0.000000 0.000000
# 3 -0.004736 -0.005857 0.012207 0.000000 0.000000 0.000000
# 4 0.000000 0.000000 0.000000 -0.102245 0.000000 0.000000
# 5 0.000000 0.000000 0.000000 0.000000 0.030718 0.000000
# 6 0.000000 0.000000 0.000000 0.000000 0.000000 0.052955
#
#
# Mechanical properties :
#
#
# Convention : Reuss Voigt Hill
#
# Bulk Modulus (GPa) = 14.02894 73.41008 43.71951
# Shear Modulus (GPa) = 37.51445 23.88525 30.69985
#
# Velocity S-wave (km/s) = 4.37248 3.48894 3.95545
# Velocity P-wave (km/s) = 5.71323 7.32409 6.56823
#
# Compressibility (1/GPa) = 0.07128124
#
# Stress axis : x y z
#
# Youngs Moduli (GPa) = 12.54802 128.41674 81.92318
#
# Poissons Ratio (x) = 0.46361 0.38801
# Poissons Ratio (y) = 0.04530 0.47980
# Poissons Ratio (z) = 0.05943 0.75209
#
# Static dielectric constant tensor:
#      x y z
#    x 1.744200 0.000000 0.000000 
#    y 0.000000 1.687190 0.000000 
#    z 0.000000 0.000000 1.752960 
# 
# From -- ./inp_files/22500.got.cif
#   From: 2010.05.17/outbox.cif.g08.bks.cpg/sg74_12_cif.got.tgz:22500.got - 2010.06.03 17:57:02.
