data_PCOD9534473
_publ_section_title
;
Structure prediction by ZEFSAII (Michael W. Deem and Ramdas Pophale) SiO2 
 PCOD9534473
Probable space group: I M M A
;
_chemical_formula_sum "Si O2"
_cell_formula_units_Z 112
_cell_length_a 13.896106
_cell_length_b 14.110811
_cell_length_c 31.684963
_cell_angle_alpha 90.000000
_cell_angle_beta 90.000000
_cell_angle_gamma 90.000000
_cell_volume 6212.956280
_symmetry_space_group_name_H-M "I M M A"
_symmetry_group_IT_number 74
_symmetry_cell_setting 'orthorhombic'
loop_
_space_group_symop_operation_xyz
x,y,z
-x,1/2-y,z
x,-y,-z
-x,1/2+y,-z
-x,-y,-z
x,1/2+y,-z
-x,y,z
x,1/2-y,z
1/2+x,1/2+y,1/2+z
1/2-x,-y,1/2+z
1/2+x,1/2-y,1/2-z
1/2-x,y,1/2-z
1/2-x,1/2-y,1/2-z
1/2+x,y,1/2-z
1/2-x,1/2+y,1/2+z
1/2+x,-y,1/2+z
loop_
_atom_site_type_symbol
_atom_site_label
_atom_site_fract_x
_atom_site_fract_y
_atom_site_fract_z
Si Si1 0.392132 0.636126 0.883359
Si Si2 0.614173 0.559750 0.236962
Si Si3 0.383726 0.856132 0.787003
Si Si4 0.779725 0.362309 0.817770
Si Si5 0.108494 0.889791 0.012053
Si Si6 0.886545 0.048827 0.896316
Si Si7 0.299089 0.357094 0.426883
O O1 0.500000 0.596407 0.889418
O O2 0.400670 0.750000 0.886216
O O3 0.357449 0.618929 0.835389
O O4 0.309076 0.609640 0.915928
O O5 0.500000 0.568585 0.230850
O O6 0.639239 0.447470 0.240947
O O7 0.675930 0.601283 0.198258
O O8 0.649696 0.613426 0.278591
O O9 0.500000 0.849926 0.787383
O O10 0.348335 0.750000 0.776271
O O11 0.777705 0.250000 0.824822
O O12 0.820786 0.416116 0.858301
O O13 0.135228 0.890339 0.061209
O O14 0.000000 0.851804 0.007029
O O15 0.179579 0.851395 0.976693
O O16 0.102519 0.000000 0.000000
O O17 0.000000 0.060932 0.886996
O O18 0.866709 0.938301 0.907202
O O19 0.313298 0.250000 0.409561
#
# Coordination Sequence:
#
# PCOD9534473 Si02
#       7
#    16  16  16  16  16  16  16
#     4   8  14  25  43  70 104 141 176 203 234 288
#     4  10  20  36  58  81 105 133 169 216 263 305
#     4   8  14  27  49  76 106 139 170 199 239 300
#     4  11  24  39  55  76 100 131 177 223 262 310
#     4   8  16  31  49  69  96 131 167 203 246 301
#     4  10  21  37  54  74 103 135 168 210 261 318
#     4  10  18  29  51  80 107 135 168 210 258 308
#
# _framework density 18.026845999999999
#
# number of rings (size 3 to 8) (size 9 to 14) (size 15 to 20)
#    0.000    2.714    0.000    4.286    0.000    3.714 
#    0.000    3.571    0.000    6.429    0.000    2.000 
#    0.000    0.000    0.000    0.000    0.000    0.000 
#
# Total GULP energy -311831.937216 kJ/mol
# GULP energy per Si atom -5568.427450 kJ/mol
# Density = 1.798582 g / cm^3
# Si number density = 18.026846 Si / 1000 Ang^3
#
#
#
# Elastic Constant Matrix: (Units=GPa)
#
#
# Indices 1 2 3 4 5 6 
#
# 1 86.9355 15.5676 33.0302 0.0000 0.0000 0.0000
# 2 15.5676 97.0475 17.3374 0.0000 0.0000 0.0000
# 3 33.0302 17.3374 65.5623 0.0000 0.0000 0.0000
# 4 0.0000 0.0000 0.0000 19.0427 0.0000 0.0000
# 5 0.0000 0.0000 0.0000 0.0000 25.9738 0.0000
# 6 0.0000 0.0000 0.0000 0.0000 0.0000 34.6222
#
#
#
# Elastic Compliance Matrix: (Units=1/GPa)
#
#
# Indices 1 2 3 4 5 6 
#
# 1 0.014329 -0.001059 -0.006939 0.000000 0.000000 0.000000
# 2 -0.001059 0.010893 -0.002347 0.000000 0.000000 0.000000
# 3 -0.006939 -0.002347 0.019369 0.000000 0.000000 0.000000
# 4 0.000000 0.000000 0.000000 0.052514 0.000000 0.000000
# 5 0.000000 0.000000 0.000000 0.000000 0.038500 0.000000
# 6 0.000000 0.000000 0.000000 0.000000 0.000000 0.028883
#
#
# Mechanical properties :
#
#
# Convention : Reuss Voigt Hill
#
# Bulk Modulus (GPa) = 41.83836 42.37950 42.10893
# Shear Modulus (GPa) = 25.88725 28.16841 27.02783
#
# Velocity S-wave (km/s) = 3.79362 3.95724 3.87629
# Velocity P-wave (km/s) = 6.51522 6.66632 6.59120
#
# Compressibility (1/GPa) = 0.02390151
#
# Stress axis : x y z
#
# Youngs Moduli (GPa) = 69.78995 91.79856 51.62865
#
# Poissons Ratio (x) = 0.09721 0.35824
# Poissons Ratio (y) = 0.07390 0.12118
# Poissons Ratio (z) = 0.48426 0.21547
#
# Static dielectric constant tensor:
#      x y z
#    x 1.641460 0.000000 0.000000 
#    y 0.000000 1.653470 0.000000 
#    z 0.000000 0.000000 1.628180 
# 
# From -- ./inp_files/72672.got.cif
#   From: 2010.05.17/outbox.cif.g08.bks.cpg/sg74_37_cif.got.tgz:72672.got - 2010.06.03 17:57:02.
