data_PCOD9534719
_publ_section_title
;
Structure prediction by ZEFSAII (Michael W. Deem and Ramdas Pophale) SiO2 
 PCOD9534719
Probable space group: I M M A
;
_chemical_formula_sum "Si O2"
_cell_formula_units_Z 112
_cell_length_a 14.553580
_cell_length_b 24.381204
_cell_length_c 16.727189
_cell_angle_alpha 90.000000
_cell_angle_beta 90.000000
_cell_angle_gamma 90.000000
_cell_volume 5935.372085
_symmetry_space_group_name_H-M "I M M A"
_symmetry_group_IT_number 74
_symmetry_cell_setting 'orthorhombic'
loop_
_space_group_symop_operation_xyz
x,y,z
-x,1/2-y,z
x,-y,-z
-x,1/2+y,-z
-x,-y,-z
x,1/2+y,-z
-x,y,z
x,1/2-y,z
1/2+x,1/2+y,1/2+z
1/2-x,-y,1/2+z
1/2+x,1/2-y,1/2-z
1/2-x,y,1/2-z
1/2-x,1/2-y,1/2-z
1/2+x,y,1/2-z
1/2-x,1/2+y,1/2+z
1/2+x,-y,1/2+z
loop_
_atom_site_type_symbol
_atom_site_label
_atom_site_fract_x
_atom_site_fract_y
_atom_site_fract_z
Si Si1 0.352027 0.688370 0.786878
Si Si2 0.856853 0.976669 0.270894
Si Si3 0.798141 0.549088 0.442390
Si Si4 0.099900 0.576660 0.114102
Si Si5 0.744578 0.867202 0.927110
Si Si6 0.599571 0.587095 0.681815
Si Si7 0.896097 0.688863 0.024494
O O1 0.390302 0.750000 0.790593
O O2 0.250000 0.692741 0.750000
O O3 0.331870 0.660536 0.872163
O O4 0.400090 0.643961 0.730608
O O5 0.750000 0.979096 0.250000
O O6 0.892458 0.036709 0.244433
O O7 0.858319 0.957165 0.362346
O O8 0.898792 0.933620 0.208602
O O9 0.823514 0.500000 0.500000
O O10 0.689242 0.545781 0.419469
O O11 0.800820 0.603267 0.496962
O O12 0.110721 0.639942 0.088575
O O13 0.000000 0.557937 0.083223
O O14 0.810569 0.909076 0.875782
O O15 0.819193 0.823438 0.958669
O O16 0.500000 0.581012 0.639926
O O17 0.884076 0.750000 0.057471
O O18 0.000000 0.685804 0.990676
#
# Coordination Sequence:
#
# PCOD9534719 Si02
#       7
#    16  16  16  16  16  16  16
#     4   9  18  32  49  70  99 135 170 199 233 286
#     4  10  19  33  49  68  97 130 163 199 241 291
#     4  10  19  30  49  72  97 126 156 198 248 294
#     4   9  18  31  49  72  97 128 161 195 238 287
#     4  10  18  31  50  73 100 130 164 200 244 290
#     4  11  21  32  50  75 101 130 164 202 244 292
#     4   9  17  29  47  75 107 132 157 195 245 295
#
# _framework density 18.869921000000001
#
# number of rings (size 3 to 8) (size 9 to 14) (size 15 to 20)
#    0.000    2.286    0.000    5.143    0.000    1.714 
#    0.000    0.000    0.000   19.286    0.000    0.000 
#    0.000    0.000    0.000    0.000    0.000    0.000 
#
# Total GULP energy -311955.584658 kJ/mol
# GULP energy per Si atom -5570.635440 kJ/mol
# Density = 1.882697 g / cm^3
# Si number density = 18.869921 Si / 1000 Ang^3
#
#
#
# Elastic Constant Matrix: (Units=GPa)
#
#
# Indices 1 2 3 4 5 6 
#
# 1 29.6865 1.9205 -5.7359 0.0000 0.0000 0.0000
# 2 1.9205 74.9329 26.8843 0.0001 0.0000 0.0000
# 3 -5.7359 26.8843 91.3221 0.0001 0.0000 0.0000
# 4 0.0000 0.0001 0.0001 17.8948 0.0000 0.0000
# 5 0.0000 0.0000 0.0000 0.0000 5.5203 0.0000
# 6 0.0000 0.0000 0.0000 0.0000 0.0000 7.5544
#
#
#
# Elastic Compliance Matrix: (Units=1/GPa)
#
#
# Indices 1 2 3 4 5 6 
#
# 1 0.034327 -0.001849 0.002700 0.000000 0.000000 0.000000
# 2 -0.001849 0.015021 -0.004538 0.000000 0.000000 0.000000
# 3 0.002700 -0.004538 0.012456 0.000000 0.000000 0.000000
# 4 0.000000 0.000000 0.000000 0.055882 0.000000 0.000000
# 5 0.000000 0.000000 0.000000 0.000000 0.181148 0.000000
# 6 0.000000 0.000000 0.000000 0.000000 0.000000 0.132373
#
#
# Mechanical properties :
#
#
# Convention : Reuss Voigt Hill
#
# Bulk Modulus (GPa) = 18.37207 26.89770 22.63488
# Shear Modulus (GPa) = 10.94756 17.71875 14.33316
#
# Velocity S-wave (km/s) = 2.41126 3.06763 2.75903
# Velocity P-wave (km/s) = 4.18444 5.17999 4.70860
#
# Compressibility (1/GPa) = 0.05443045
#
# Stress axis : x y z
#
# Youngs Moduli (GPa) = 29.13191 66.57421 80.28369
#
# Poissons Ratio (x) = 0.12307 -0.21679
# Poissons Ratio (y) = 0.05385 0.36434
# Poissons Ratio (z) = -0.07866 0.30212
#
# Static dielectric constant tensor:
#      x y z
#    x 1.688910 0.000000 0.000000 
#    y 0.000000 1.679760 0.000000 
#    z 0.000000 0.000000 1.695730 
# 
# From -- ./inp_files/32887.got.cif
#   From: 2010.05.17/outbox.cif.g08.bks.cpg/sg74_17_cif.got.tgz:32887.got - 2010.06.03 17:57:02.
