data_PCOD9534857
_publ_section_title
;
Structure prediction by ZEFSAII (Michael W. Deem and Ramdas Pophale) SiO2 
 PCOD9534857
Probable space group: I M M A
;
_chemical_formula_sum "Si O2"
_cell_formula_units_Z 80
_cell_length_a 7.498956
_cell_length_b 15.520968
_cell_length_c 33.031643
_cell_angle_alpha 90.000000
_cell_angle_beta 90.000000
_cell_angle_gamma 90.000000
_cell_volume 3844.587814
_symmetry_space_group_name_H-M "I M M A"
_symmetry_group_IT_number 74
_symmetry_cell_setting 'orthorhombic'
loop_
_space_group_symop_operation_xyz
x,y,z
-x,1/2-y,z
x,-y,-z
-x,1/2+y,-z
-x,-y,-z
x,1/2+y,-z
-x,y,z
x,1/2-y,z
1/2+x,1/2+y,1/2+z
1/2-x,-y,1/2+z
1/2+x,1/2-y,1/2-z
1/2-x,y,1/2-z
1/2-x,1/2-y,1/2-z
1/2+x,y,1/2-z
1/2-x,1/2+y,1/2+z
1/2+x,-y,1/2+z
loop_
_atom_site_type_symbol
_atom_site_label
_atom_site_fract_x
_atom_site_fract_y
_atom_site_fract_z
Si Si1 0.296132 0.484817 0.359765
Si Si2 0.715358 0.902170 0.491953
Si Si3 0.781500 0.153085 0.902355
Si Si4 0.208185 0.342888 0.420814
Si Si5 0.785963 0.653620 0.797301
O O1 0.500000 0.502462 0.347302
O O2 0.217786 0.576342 0.373127
O O3 0.297853 0.424051 0.399540
O O4 0.214939 0.423229 0.325362
O O5 0.500000 0.901219 0.491518
O O6 0.774975 0.867746 0.448450
O O7 0.773863 0.849244 0.531000
O O8 0.774742 0.000000 0.500000
O O9 0.728646 0.250000 0.891257
O O10 0.000000 0.150135 0.902420
O O11 0.280425 0.250000 0.407125
O O12 0.000000 0.347093 0.410395
O O13 0.717566 0.750000 0.807307
O O14 0.750000 0.638603 0.750000
O O15 0.000000 0.656044 0.803143
#
# Coordination Sequence:
#
# PCOD9534857 Si02
#       5
#    16  16  16  16  16
#     4  10  19  34  54  75  99 129 168 208 246 293
#     4  10  18  32  52  71  93 129 174 216 253 291
#     4   9  17  30  50  74  97 125 168 217 255 287
#     4  11  23  34  46  70 103 136 167 205 255 302
#     4   9  18  32  52  77 102 128 157 193 242 301
#
# _framework density 20.808474
#
# number of rings (size 3 to 8) (size 9 to 14) (size 15 to 20)
#    0.000    2.200    2.000    1.800    0.000    4.400 
#    0.000    2.000    0.000    1.200    0.000    0.000 
#    0.000    0.000    0.000    0.000    0.000    0.000 
#
# Total GULP energy -223377.963707 kJ/mol
# GULP energy per Si atom -5584.449093 kJ/mol
# Density = 2.076111 g / cm^3
# Si number density = 20.808474 Si / 1000 Ang^3
#
#
#
# Elastic Constant Matrix: (Units=GPa)
#
#
# Indices 1 2 3 4 5 6 
#
# 1 60.6995 6.4460 -3.9237 0.0000 0.0000 0.0000
# 2 6.4460 202.8328 78.8332 0.0000 0.0000 0.0000
# 3 -3.9237 78.8332 115.4422 0.0000 0.0000 0.0000
# 4 0.0000 0.0000 0.0000 -123.8878 0.0000 0.0000
# 5 0.0000 0.0000 0.0000 0.0000 13.5577 0.0000
# 6 0.0000 0.0000 0.0000 0.0000 0.0000 -85.4206
#
#
#
# Elastic Compliance Matrix: (Units=1/GPa)
#
#
# Indices 1 2 3 4 5 6 
#
# 1 0.016665 -0.001021 0.001263 0.000000 0.000000 0.000000
# 2 -0.001021 0.006774 -0.004660 0.000000 0.000000 0.000000
# 3 0.001263 -0.004660 0.011888 0.000000 0.000000 0.000000
# 4 0.000000 0.000000 0.000000 -0.008072 0.000000 0.000000
# 5 0.000000 0.000000 0.000000 0.000000 0.073759 0.000000
# 6 0.000000 0.000000 0.000000 0.000000 0.000000 -0.011707
#
#
# Mechanical properties :
#
#
# Convention : Reuss Voigt Hill
#
# Bulk Modulus (GPa) = 37.74871 60.18726 48.96799
# Shear Modulus (GPa) = 46.74099 -19.30887 13.71606
#
# Velocity S-wave (km/s) = 4.74460 -3.04950 2.57019
# Velocity P-wave (km/s) = 6.94229 4.07282 5.69137
#
# Compressibility (1/GPa) = 0.02649097
#
# Stress axis : x y z
#
# Youngs Moduli (GPa) = 60.00726 147.62424 84.11954
#
# Poissons Ratio (x) = 0.15067 -0.10627
# Poissons Ratio (y) = 0.06124 0.39204
# Poissons Ratio (z) = -0.07581 0.68800
#
# Static dielectric constant tensor:
#      x y z
#    x 1.818920 0.000000 0.000000 
#    y 0.000000 1.767430 0.000000 
#    z 0.000000 0.000000 1.721250 
# 
# From -- ./inp_files/70126.got.cif
#   From: 2010.05.17/outbox.cif.g08.bks.cpg/sg74_36_cif.got.tgz:70126.got - 2010.06.03 17:57:02.
