data_PCOD9534388
_publ_section_title
;
Structure prediction by ZEFSAII (Michael W. Deem and Ramdas Pophale) SiO2 
 PCOD9534388
Probable space group: I M M A
;
_chemical_formula_sum "Si O2"
_cell_formula_units_Z 112
_cell_length_a 16.647192
_cell_length_b 15.131872
_cell_length_c 26.167388
_cell_angle_alpha 90.000000
_cell_angle_beta 90.000000
_cell_angle_gamma 90.000000
_cell_volume 6591.648210
_symmetry_space_group_name_H-M "I M M A"
_symmetry_group_IT_number 74
_symmetry_cell_setting 'orthorhombic'
loop_
_space_group_symop_operation_xyz
x,y,z
-x,1/2-y,z
x,-y,-z
-x,1/2+y,-z
-x,-y,-z
x,1/2+y,-z
-x,y,z
x,1/2-y,z
1/2+x,1/2+y,1/2+z
1/2-x,-y,1/2+z
1/2+x,1/2-y,1/2-z
1/2-x,y,1/2-z
1/2-x,1/2-y,1/2-z
1/2+x,y,1/2-z
1/2-x,1/2+y,1/2+z
1/2+x,-y,1/2+z
loop_
_atom_site_type_symbol
_atom_site_label
_atom_site_fract_x
_atom_site_fract_y
_atom_site_fract_z
Si Si1 0.407289 0.144493 0.877486
Si Si2 0.821577 0.345901 0.790856
Si Si3 0.092945 0.982851 0.060366
Si Si4 0.655050 0.846820 0.747111
Si Si5 0.266111 0.852066 0.407309
Si Si6 0.407567 0.524118 0.222926
Si Si7 0.096296 0.349947 0.131779
O O1 0.500000 0.129269 0.896050
O O2 0.401000 0.250000 0.866526
O O3 0.328787 0.122784 0.912091
O O4 0.397749 0.088463 0.825518
O O5 0.863337 0.250000 0.787826
O O6 0.750000 0.345679 0.750000
O O7 0.784662 0.355121 0.846618
O O8 0.876390 0.425573 0.773039
O O9 0.163685 0.912110 0.069512
O O10 0.000000 0.956961 0.075464
O O11 0.114982 0.071495 0.092301
O O12 0.090414 0.000000 0.000000
O O13 0.620300 0.750000 0.760689
O O14 0.750000 0.840486 0.750000
O O15 0.629936 0.866126 0.688604
O O16 0.632731 0.929223 0.782225
O O17 0.274456 0.750000 0.424203
O O18 0.500000 0.505871 0.229819
O O19 0.122224 0.250000 0.116054
O O20 0.000000 0.348450 0.135786
#
# Coordination Sequence:
#
# PCOD9534388 Si02
#       7
#    16  16  16  16  16  16  16
#     4   9  18  32  49  74 106 138 173 206 243 304
#     4  10  18  29  45  70 105 140 170 204 249 304
#     4  10  22  38  55  78 106 134 170 221 277 325
#     4  10  21  33  46  68  97 130 172 218 255 295
#     4  10  20  33  53  77 105 141 176 213 259 312
#     4  11  20  28  44  67  96 138 175 207 250 297
#     4   9  18  34  54  72  94 131 175 214 257 310
#
# _framework density 16.991198000000001
#
# number of rings (size 3 to 8) (size 9 to 14) (size 15 to 20)
#    0.000    2.143    1.429    2.143    2.000    4.286 
#    0.000    2.857    0.000    0.429    0.000    0.000 
#    0.000    0.000    0.000    0.000    0.000    0.000 
#
# Total GULP energy -311807.750815 kJ/mol
# GULP energy per Si atom -5567.995550 kJ/mol
# Density = 1.695253 g / cm^3
# Si number density = 16.991198 Si / 1000 Ang^3
#
#
#
# Elastic Constant Matrix: (Units=GPa)
#
#
# Indices 1 2 3 4 5 6 
#
# 1 103.9834 57.2286 13.5585 0.0000 0.0000 0.0000
# 2 57.2286 84.4188 12.7086 0.0000 0.0000 0.0000
# 3 13.5585 12.7086 27.5202 0.0000 0.0000 0.0000
# 4 0.0000 0.0000 0.0000 6.2168 0.0000 0.0000
# 5 0.0000 0.0000 0.0000 0.0000 11.9891 0.0000
# 6 0.0000 0.0000 0.0000 0.0000 0.0000 27.4478
#
#
#
# Elastic Compliance Matrix: (Units=1/GPa)
#
#
# Indices 1 2 3 4 5 6 
#
# 1 0.015568 -0.010102 -0.003005 0.000000 0.000000 0.000000
# 2 -0.010102 0.019285 -0.003929 0.000000 0.000000 0.000000
# 3 -0.003005 -0.003929 0.039632 0.000000 0.000000 0.000000
# 4 0.000000 0.000000 0.000000 0.160855 0.000000 0.000000
# 5 0.000000 0.000000 0.000000 0.000000 0.083409 0.000000
# 6 0.000000 0.000000 0.000000 0.000000 0.000000 0.036433
#
#
# Mechanical properties :
#
#
# Convention : Reuss Voigt Hill
#
# Bulk Modulus (GPa) = 24.74400 42.54598 33.64499
# Shear Modulus (GPa) = 12.41543 17.95920 15.18731
#
# Velocity S-wave (km/s) = 2.70607 3.25464 2.99295
# Velocity P-wave (km/s) = 4.93541 6.26242 5.63809
#
# Compressibility (1/GPa) = 0.04041383
#
# Stress axis : x y z
#
# Youngs Moduli (GPa) = 64.23316 51.85341 25.23218
#
# Poissons Ratio (x) = 0.52380 0.07583
# Poissons Ratio (y) = 0.64885 0.09914
# Poissons Ratio (z) = 0.19304 0.20373
#
# Static dielectric constant tensor:
#      x y z
#    x 1.615250 0.000000 0.000000 
#    y 0.000000 1.657410 0.000000 
#    z 0.000000 0.000000 1.543630 
# 
# From -- ./inp_files/67154.got.cif
#   From: 2010.05.17/outbox.cif.g08.bks.cpg/sg74_34_cif.got.tgz:67154.got - 2010.06.03 17:57:02.
