data_PCOD9534657
_publ_section_title
;
Structure prediction by ZEFSAII (Michael W. Deem and Ramdas Pophale) SiO2 
 PCOD9534657
Probable space group: I M M A
;
_chemical_formula_sum "Si O2"
_cell_formula_units_Z 80
_cell_length_a 21.575295
_cell_length_b 22.396493
_cell_length_c 8.648748
_cell_angle_alpha 90.000000
_cell_angle_beta 90.000000
_cell_angle_gamma 90.000000
_cell_volume 4179.169681
_symmetry_space_group_name_H-M "I M M A"
_symmetry_group_IT_number 74
_symmetry_cell_setting 'orthorhombic'
loop_
_space_group_symop_operation_xyz
x,y,z
-x,1/2-y,z
x,-y,-z
-x,1/2+y,-z
-x,-y,-z
x,1/2+y,-z
-x,y,z
x,1/2-y,z
1/2+x,1/2+y,1/2+z
1/2-x,-y,1/2+z
1/2+x,1/2-y,1/2-z
1/2-x,y,1/2-z
1/2-x,1/2-y,1/2-z
1/2+x,y,1/2-z
1/2-x,1/2+y,1/2+z
1/2+x,-y,1/2+z
loop_
_atom_site_type_symbol
_atom_site_label
_atom_site_fract_x
_atom_site_fract_y
_atom_site_fract_z
Si Si1 0.866608 0.683852 0.662367
Si Si2 0.000000 0.949728 0.362201
Si Si3 0.775744 0.364361 0.599885
Si Si4 0.810974 0.083594 0.145154
Si Si5 0.000000 0.816980 0.499530
Si Si6 0.636663 0.525979 0.178224
O O1 0.854921 0.750000 0.724987
O O2 0.816652 0.671475 0.525244
O O3 0.857374 0.633497 0.790663
O O4 0.936126 0.681082 0.596196
O O5 0.934434 0.960447 0.281340
O O6 0.000000 0.879995 0.410382
O O7 0.000000 0.000000 0.500000
O O8 0.750000 0.330404 0.750000
O O9 0.717607 0.397414 0.517559
O O10 0.821573 0.415813 0.661212
O O11 0.750000 0.087742 0.250000
O O12 0.838052 0.019770 0.193587
O O13 0.000000 0.750000 0.422787
O O14 0.638566 0.500000 0.000000
#
# Coordination Sequence:
#
# PCOD9534657 Si02
#       6
#    16   8  16  16   8  16
#     4  10  20  36  58  81 107 143 193 242 286 339
#     4  10  18  30  54  83 110 143 187 247 288 338
#     4  11  23  34  54  79 114 153 185 227 284 351
#     4  10  20  34  52  80 112 146 182 227 287 344
#     4  10  18  34  58  86 113 147 196 248 296 351
#     4  11  18  32  54  81 108 140 186 227 285 337
#
# _framework density 19.142558000000001
#
# number of rings (size 3 to 8) (size 9 to 14) (size 15 to 20)
#    0.000    1.600    6.000    1.800    0.000    4.000 
#    0.000    0.000    0.000    6.000    0.000    4.200 
#    0.000    0.000    0.000    0.000    0.000    0.000 
#
# Total GULP energy -222793.593664 kJ/mol
# GULP energy per Si atom -5569.839842 kJ/mol
# Density = 1.909899 g / cm^3
# Si number density = 19.142558 Si / 1000 Ang^3
#
#
#
# Elastic Constant Matrix: (Units=GPa)
#
#
# Indices 1 2 3 4 5 6 
#
# 1 66.7311 4.7541 15.9448 0.0000 0.0000 0.0000
# 2 4.7541 72.0421 -18.8324 0.0000 0.0000 0.0000
# 3 15.9448 -18.8324 36.2083 0.0000 0.0000 0.0000
# 4 0.0000 0.0000 0.0000 10.9817 0.0000 0.0000
# 5 0.0000 0.0000 0.0000 0.0000 3.7378 0.0000
# 6 0.0000 0.0000 0.0000 0.0000 0.0000 57.6716
#
#
#
# Elastic Compliance Matrix: (Units=1/GPa)
#
#
# Indices 1 2 3 4 5 6 
#
# 1 0.017552 -0.003679 -0.009642 0.000000 0.000000 0.000000
# 2 -0.003679 0.016836 0.010377 0.000000 0.000000 0.000000
# 3 -0.009642 0.010377 0.037261 0.000000 0.000000 0.000000
# 4 0.000000 0.000000 0.000000 0.091060 0.000000 0.000000
# 5 0.000000 0.000000 0.000000 0.000000 0.267539 0.000000
# 6 0.000000 0.000000 0.000000 0.000000 0.000000 0.017340
#
#
# Mechanical properties :
#
#
# Convention : Reuss Voigt Hill
#
# Bulk Modulus (GPa) = 15.20690 19.85717 17.53203
# Shear Modulus (GPa) = 10.51752 26.01922 18.26837
#
# Velocity S-wave (km/s) = 2.34654 3.69078 3.09258
# Velocity P-wave (km/s) = 3.91189 5.34400 4.68301
#
# Compressibility (1/GPa) = 0.06575964
#
# Stress axis : x y z
#
# Youngs Moduli (GPa) = 56.97489 59.39615 26.83754
#
# Poissons Ratio (x) = 0.21851 0.25878
# Poissons Ratio (y) = 0.20960 -0.27849
# Poissons Ratio (z) = 0.54938 -0.61634
#
# Static dielectric constant tensor:
#      x y z
#    x 1.661950 0.000000 0.000000 
#    y 0.000000 1.703330 0.000000 
#    z 0.000000 0.000000 1.713220 
# 
# From -- ./inp_files/13660.got.cif
#   From: 2010.05.17/outbox.cif.g08.bks.cpg/sg74_7_cif.got.tgz:13660.got - 2010.06.03 17:57:02.
