data_PCOD9534208
_publ_section_title
;
Structure prediction by ZEFSAII (Michael W. Deem and Ramdas Pophale) SiO2 
 PCOD9534208
Probable space group: I M M A
;
_chemical_formula_sum "Si O2"
_cell_formula_units_Z 88
_cell_length_a 26.673533
_cell_length_b 9.238042
_cell_length_c 27.786433
_cell_angle_alpha 90.000000
_cell_angle_beta 90.000000
_cell_angle_gamma 90.000000
_cell_volume 6846.888803
_symmetry_space_group_name_H-M "I M M A"
_symmetry_group_IT_number 74
_symmetry_cell_setting 'orthorhombic'
loop_
_space_group_symop_operation_xyz
x,y,z
-x,1/2-y,z
x,-y,-z
-x,1/2+y,-z
-x,-y,-z
x,1/2+y,-z
-x,y,z
x,1/2-y,z
1/2+x,1/2+y,1/2+z
1/2-x,-y,1/2+z
1/2+x,1/2-y,1/2-z
1/2-x,y,1/2-z
1/2-x,1/2-y,1/2-z
1/2+x,y,1/2-z
1/2-x,1/2+y,1/2+z
1/2+x,-y,1/2+z
loop_
_atom_site_type_symbol
_atom_site_label
_atom_site_fract_x
_atom_site_fract_y
_atom_site_fract_z
Si Si1 0.852080 0.416351 0.694627
Si Si2 0.500000 0.575829 0.948482
Si Si3 0.196635 0.417254 0.221358
Si Si4 0.600729 0.421972 0.108429
Si Si5 0.754241 0.917170 0.137268
Si Si6 0.204162 0.422662 0.448744
O O1 0.865256 0.250000 0.704293
O O2 0.842556 0.505256 0.743295
O O3 0.889846 0.491976 0.657591
O O4 0.798454 0.416726 0.666718
O O5 0.500000 0.750000 0.955012
O O6 0.549868 0.537121 0.918737
O O7 0.500000 0.500000 0.000000
O O8 0.183935 0.250000 0.212467
O O9 0.250000 0.418260 0.250000
O O10 0.206472 0.504819 0.172433
O O11 0.599610 0.250000 0.118730
O O12 0.648604 0.447391 0.073719
O O13 0.767215 0.750000 0.127604
O O14 0.742721 0.006745 0.089142
O O15 0.207706 0.500000 0.500000
O O16 0.211445 0.250000 0.452598
#
# Coordination Sequence:
#
# PCOD9534208 Si02
#       6
#    16   8  16  16  16  16
#     4   9  16  25  38  54  70  88 110 138 173 213
#     4  10  20  32  44  56  70  90 118 154 195 234
#     4   9  15  23  36  53  72  91 109 132 166 207
#     4   9  18  30  41  53  69  89 115 149 189 230
#     4   9  16  25  36  51  70  90 113 140 170 206
#     4  10  18  27  38  51  68  91 119 150 184 219
#
# _framework density 12.852553
#
# number of rings (size 3 to 8) (size 9 to 14) (size 15 to 20)
#    0.000    2.727    0.000    2.727    0.000    8.000 
#    0.000    0.000    0.000    0.000    0.000    0.000 
#    0.000    0.000    0.000    0.000    0.000    0.000 
#
# Total GULP energy -245126.680411 kJ/mol
# GULP energy per Si atom -5571.060918 kJ/mol
# Density = 1.282330 g / cm^3
# Si number density = 12.852553 Si / 1000 Ang^3
#
#
#
# Elastic Constant Matrix: (Units=GPa)
#
#
# Indices 1 2 3 4 5 6 
#
# 1 39.0946 37.6735 50.1693 0.0000 0.0000 0.0000
# 2 37.6735 105.6305 77.2342 0.0000 0.0000 0.0000
# 3 50.1693 77.2342 108.6335 0.0000 0.0000 0.0000
# 4 0.0000 0.0000 0.0000 27.2796 0.0000 0.0000
# 5 0.0000 0.0000 0.0000 0.0000 18.0733 0.0000
# 6 0.0000 0.0000 0.0000 0.0000 0.0000 10.7928
#
#
#
# Elastic Compliance Matrix: (Units=1/GPa)
#
#
# Indices 1 2 3 4 5 6 
#
# 1 0.063107 -0.002495 -0.027371 0.000000 0.000000 0.000000
# 2 -0.002495 0.019815 -0.012935 0.000000 0.000000 0.000000
# 3 -0.027371 -0.012935 0.031042 0.000000 0.000000 0.000000
# 4 0.000000 0.000000 0.000000 0.036657 0.000000 0.000000
# 5 0.000000 0.000000 0.000000 0.000000 0.055330 0.000000
# 6 0.000000 0.000000 0.000000 0.000000 0.000000 0.092654
#
#
# Mechanical properties :
#
#
# Convention : Reuss Voigt Hill
#
# Bulk Modulus (GPa) = 35.25766 64.83475 50.04620
# Shear Modulus (GPa) = 12.70126 17.11458 14.90792
#
# Velocity S-wave (km/s) = 3.14702 3.65308 3.40945
# Velocity P-wave (km/s) = 6.37942 8.26728 7.38393
#
# Compressibility (1/GPa) = 0.02836263
#
# Stress axis : x y z
#
# Youngs Moduli (GPa) = 15.84602 50.46754 32.21424
#
# Poissons Ratio (x) = 0.12591 0.88172
# Poissons Ratio (y) = 0.03953 0.41670
# Poissons Ratio (z) = 0.43372 0.65282
#
# Static dielectric constant tensor:
#      x y z
#    x 1.391640 0.000000 0.000000 
#    y 0.000000 1.430760 0.000000 
#    z 0.000000 0.000000 1.405340 
# 
# From -- ./inp_files/49483.got.cif
#   From: 2010.05.17/outbox.cif.g08.bks.cpg/sg74_25_cif.got.tgz:49483.got - 2010.06.03 17:57:02.
