data_PCOD9534580
_publ_section_title
;
Structure prediction by ZEFSAII (Michael W. Deem and Ramdas Pophale) SiO2 
 PCOD9534580
Probable space group: I M M A
;
_chemical_formula_sum "Si O2"
_cell_formula_units_Z 96
_cell_length_a 14.396058
_cell_length_b 22.928118
_cell_length_c 17.551016
_cell_angle_alpha 90.000000
_cell_angle_beta 90.000000
_cell_angle_gamma 90.000000
_cell_volume 5793.143121
_symmetry_space_group_name_H-M "I M M A"
_symmetry_group_IT_number 74
_symmetry_cell_setting 'orthorhombic'
loop_
_space_group_symop_operation_xyz
x,y,z
-x,1/2-y,z
x,-y,-z
-x,1/2+y,-z
-x,-y,-z
x,1/2+y,-z
-x,y,z
x,1/2-y,z
1/2+x,1/2+y,1/2+z
1/2-x,-y,1/2+z
1/2+x,1/2-y,1/2-z
1/2-x,y,1/2-z
1/2-x,1/2-y,1/2-z
1/2+x,y,1/2-z
1/2-x,1/2+y,1/2+z
1/2+x,-y,1/2+z
loop_
_atom_site_type_symbol
_atom_site_label
_atom_site_fract_x
_atom_site_fract_y
_atom_site_fract_z
Si Si1 0.392112 0.318315 0.982502
Si Si2 0.891868 0.577230 0.376408
Si Si3 0.236196 0.999076 0.919687
Si Si4 0.392474 0.517193 0.282731
Si Si5 0.108489 0.123587 0.228270
Si Si6 0.776720 0.633911 0.623031
O O1 0.500000 0.329988 0.007805
O O2 0.384459 0.250000 0.966463
O O3 0.377907 0.357326 0.906673
O O4 0.318583 0.335600 0.048246
O O5 0.827136 0.538033 0.428789
O O6 0.869013 0.556933 0.290243
O O7 0.000000 0.562737 0.386217
O O8 0.173563 0.026818 0.854014
O O9 0.267394 0.934696 0.895888
O O10 0.184219 0.000000 0.000000
O O11 0.500000 0.527701 0.301602
O O12 0.383164 0.447513 0.266397
O O13 0.151375 0.144845 0.307941
O O14 0.174955 0.146622 0.160078
O O15 0.000000 0.137531 0.218626
#
# Coordination Sequence:
#
# PCOD9534580 Si02
#       6
#    16  16  16  16  16  16
#     4  10  21  35  51  73 101 134 174 219 261 300
#     4  10  19  31  50  74 102 134 167 207 255 308
#     4  11  19  29  48  78 106 131 162 208 256 313
#     4   9  18  31  48  72 105 139 165 198 250 310
#     4   9  17  29  47  73 106 137 167 203 253 314
#     4  10  18  30  49  74 102 137 167 206 261 312
#
# _framework density 16.571314999999998
#
# number of rings (size 3 to 8) (size 9 to 14) (size 15 to 20)
#    0.000    2.167    3.333    1.000    0.000    1.333 
#    0.000    1.667    0.000    3.500    0.000    0.000 
#    0.000    0.000    0.000    0.000    0.000    0.000 
#
# Total GULP energy -267216.219005 kJ/mol
# GULP energy per Si atom -5567.004563 kJ/mol
# Density = 1.653360 g / cm^3
# Si number density = 16.571315 Si / 1000 Ang^3
#
#
#
# Elastic Constant Matrix: (Units=GPa)
#
#
# Indices 1 2 3 4 5 6 
#
# 1 90.2669 27.0839 57.9465 -0.0001 0.0000 0.0000
# 2 27.0839 41.7523 25.1600 0.0000 0.0000 0.0000
# 3 57.9465 25.1600 96.2555 0.0002 0.0000 0.0000
# 4 -0.0001 0.0000 0.0002 11.3650 0.0000 0.0000
# 5 0.0000 0.0000 0.0000 0.0000 20.7854 0.0000
# 6 0.0000 0.0000 0.0000 0.0000 0.0000 12.1305
#
#
#
# Elastic Compliance Matrix: (Units=1/GPa)
#
#
# Indices 1 2 3 4 5 6 
#
# 1 0.019481 -0.006611 -0.010000 0.000000 0.000000 0.000000
# 2 -0.006611 0.030672 -0.004037 0.000000 0.000000 0.000000
# 3 -0.010000 -0.004037 0.017464 0.000000 0.000000 0.000000
# 4 0.000000 0.000000 0.000000 0.087990 0.000000 0.000000
# 5 0.000000 0.000000 0.000000 0.000000 0.048111 0.000000
# 6 0.000000 0.000000 0.000000 0.000000 0.000000 0.082437
#
#
# Mechanical properties :
#
#
# Convention : Reuss Voigt Hill
#
# Bulk Modulus (GPa) = 37.99234 49.85060 43.92147
# Shear Modulus (GPa) = 14.87101 16.72847 15.79974
#
# Velocity S-wave (km/s) = 2.99890 3.18068 3.09113
# Velocity P-wave (km/s) = 5.91334 6.60581 6.26914
#
# Compressibility (1/GPa) = 0.02632109
#
# Stress axis : x y z
#
# Youngs Moduli (GPa) = 51.33162 32.60277 57.25989
#
# Poissons Ratio (x) = 0.21554 0.57258
# Poissons Ratio (y) = 0.33936 0.23118
# Poissons Ratio (z) = 0.51330 0.13163
#
# Static dielectric constant tensor:
#      x y z
#    x 1.579130 0.000000 0.000000 
#    y 0.000000 1.542170 0.000000 
#    z 0.000000 0.000000 1.625730 
# 
# From -- ./inp_files/32382.got.cif
#   From: 2010.05.17/outbox.cif.g08.bks.cpg/sg74_17_cif.got.tgz:32382.got - 2010.06.03 17:57:02.
