data_PCOD9534053
_publ_section_title
;
Structure prediction by ZEFSAII (Michael W. Deem and Ramdas Pophale) SiO2 
 PCOD9534053
Probable space group: I M M A
;
_chemical_formula_sum "Si O2"
_cell_formula_units_Z 96
_cell_length_a 21.640098
_cell_length_b 14.991496
_cell_length_c 15.371665
_cell_angle_alpha 90.000000
_cell_angle_beta 90.000000
_cell_angle_gamma 90.000000
_cell_volume 4986.836248
_symmetry_space_group_name_H-M "I M M A"
_symmetry_group_IT_number 74
_symmetry_cell_setting 'orthorhombic'
loop_
_space_group_symop_operation_xyz
x,y,z
-x,1/2-y,z
x,-y,-z
-x,1/2+y,-z
-x,-y,-z
x,1/2+y,-z
-x,y,z
x,1/2-y,z
1/2+x,1/2+y,1/2+z
1/2-x,-y,1/2+z
1/2+x,1/2-y,1/2-z
1/2-x,y,1/2-z
1/2-x,1/2-y,1/2-z
1/2+x,y,1/2-z
1/2-x,1/2+y,1/2+z
1/2+x,-y,1/2+z
loop_
_atom_site_type_symbol
_atom_site_label
_atom_site_fract_x
_atom_site_fract_y
_atom_site_fract_z
Si Si1 0.728855 0.141967 0.520649
Si Si2 0.934047 0.149121 0.737977
Si Si3 0.796258 0.857814 0.826178
Si Si4 0.303308 0.359064 0.817614
Si Si5 0.906805 0.105367 0.926894
Si Si6 0.432153 0.598654 0.618424
O O1 0.723585 0.250000 0.521014
O O2 0.729244 0.112296 0.420780
O O3 0.784407 0.118128 0.584323
O O4 0.667030 0.105502 0.565403
O O5 0.935364 0.250000 0.702385
O O6 0.870729 0.105192 0.706630
O O7 0.927885 0.156451 0.841924
O O8 0.000000 0.105414 0.717288
O O9 0.794249 0.750000 0.824276
O O10 0.750000 0.889709 0.750000
O O11 0.869728 0.881270 0.827610
O O12 0.305223 0.250000 0.810368
O O13 0.250000 0.387323 0.750000
O O14 0.929309 0.005806 0.905932
O O15 0.927275 0.140648 0.021222
O O16 0.500000 0.620143 0.655887
#
# Coordination Sequence:
#
# PCOD9534053 Si02
#       6
#    16  16  16  16  16  16
#     4   9  16  28  49  71  94 129 162 192 231 274
#     4  10  18  26  40  64  96 130 159 187 218 263
#     4   9  19  36  54  70  90 117 158 208 249 281
#     4   9  15  25  40  63  93 122 154 184 217 266
#     4  10  17  29  45  67 100 129 153 184 231 288
#     4  10  20  32  47  68  96 125 151 190 244 293
#
# _framework density 19.250682000000001
#
# number of rings (size 3 to 8) (size 9 to 14) (size 15 to 20)
#    0.000    2.500    1.667    2.500    0.000    1.000 
#    3.000    0.000    0.000    1.000    0.000    4.667 
#    0.000    2.667    0.000    0.000    0.000    0.000 
#
# Total GULP energy -267429.523419 kJ/mol
# GULP energy per Si atom -5571.448405 kJ/mol
# Density = 1.920687 g / cm^3
# Si number density = 19.250682 Si / 1000 Ang^3
#
#
#
# Elastic Constant Matrix: (Units=GPa)
#
#
# Indices 1 2 3 4 5 6 
#
# 1 204.5314 5.7170 86.2169 0.0000 0.0000 0.0000
# 2 5.7170 31.0240 5.4733 0.0000 0.0000 0.0000
# 3 86.2169 5.4733 86.1176 0.0000 0.0000 0.0000
# 4 0.0000 0.0000 0.0000 5.8934 0.0000 0.0000
# 5 0.0000 0.0000 0.0000 0.0000 21.0407 0.0000
# 6 0.0000 0.0000 0.0000 0.0000 0.0000 9.0800
#
#
#
# Elastic Compliance Matrix: (Units=1/GPa)
#
#
# Indices 1 2 3 4 5 6 
#
# 1 0.008459 -0.000065 -0.008465 0.000000 0.000000 0.000000
# 2 -0.000065 0.032599 -0.002006 0.000000 0.000000 0.000000
# 3 -0.008465 -0.002006 0.020214 0.000000 0.000000 0.000000
# 4 0.000000 0.000000 0.000000 0.169682 0.000000 0.000000
# 5 0.000000 0.000000 0.000000 0.000000 0.047527 0.000000
# 6 0.000000 0.000000 0.000000 0.000000 0.000000 0.110132
#
#
# Mechanical properties :
#
#
# Convention : Reuss Voigt Hill
#
# Bulk Modulus (GPa) = 24.87610 57.38750 41.13180
# Shear Modulus (GPa) = 11.81789 22.15385 16.98587
#
# Velocity S-wave (km/s) = 2.48038 3.39604 2.97366
# Velocity P-wave (km/s) = 4.59927 6.72702 5.76221
#
# Compressibility (1/GPa) = 0.04019923
#
# Stress axis : x y z
#
# Youngs Moduli (GPa) = 118.21320 30.67564 49.47015
#
# Poissons Ratio (x) = 0.00201 0.41876
# Poissons Ratio (y) = 0.00774 0.09926
# Poissons Ratio (z) = 1.00066 0.06155
#
# Static dielectric constant tensor:
#      x y z
#    x 1.718900 0.000000 0.000000 
#    y 0.000000 1.745330 0.000000 
#    z 0.000000 0.000000 1.677930 
# 
# From -- ./inp_files/35612.got.cif
#   From: 2010.05.17/outbox.cif.g08.bks.cpg/sg74_18_cif.got.tgz:35612.got - 2010.06.03 17:57:02.
