data_PCOD9534391
_publ_section_title
;
Structure prediction by ZEFSAII (Michael W. Deem and Ramdas Pophale) SiO2 
 PCOD9534391
Probable space group: I M M A
;
_chemical_formula_sum "Si O2"
_cell_formula_units_Z 96
_cell_length_a 26.486425
_cell_length_b 8.951299
_cell_length_c 29.478694
_cell_angle_alpha 90.000000
_cell_angle_beta 90.000000
_cell_angle_gamma 90.000000
_cell_volume 6989.041939
_symmetry_space_group_name_H-M "I M M A"
_symmetry_group_IT_number 74
_symmetry_cell_setting 'orthorhombic'
loop_
_space_group_symop_operation_xyz
x,y,z
-x,1/2-y,z
x,-y,-z
-x,1/2+y,-z
-x,-y,-z
x,1/2+y,-z
-x,y,z
x,1/2-y,z
1/2+x,1/2+y,1/2+z
1/2-x,-y,1/2+z
1/2+x,1/2-y,1/2-z
1/2-x,y,1/2-z
1/2-x,1/2-y,1/2-z
1/2+x,y,1/2-z
1/2-x,1/2+y,1/2+z
1/2+x,-y,1/2+z
loop_
_atom_site_type_symbol
_atom_site_label
_atom_site_fract_x
_atom_site_fract_y
_atom_site_fract_z
Si Si1 0.647275 0.427523 0.805404
Si Si2 0.218085 0.426580 0.547881
Si Si3 0.695832 0.578020 0.724064
Si Si4 0.096591 0.573343 0.452071
Si Si5 0.941179 0.073196 0.360077
Si Si6 0.758504 0.429684 0.359267
O O1 0.648721 0.250000 0.810238
O O2 0.659243 0.476752 0.753908
O O3 0.595322 0.492705 0.824452
O O4 0.691906 0.499083 0.835964
O O5 0.232151 0.500000 0.500000
O O6 0.228204 0.250000 0.547920
O O7 0.157276 0.445937 0.553061
O O8 0.244040 0.506912 0.590290
O O9 0.678163 0.750000 0.724673
O O10 0.750000 0.575820 0.750000
O O11 0.710946 0.532684 0.673136
O O12 0.081915 0.500000 0.500000
O O13 0.085866 0.750000 0.452319
O O14 0.070626 0.494542 0.409564
O O15 0.930101 0.250000 0.360667
O O16 0.000000 0.051724 0.349502
O O17 0.763764 0.250000 0.359088
#
# Coordination Sequence:
#
# PCOD9534391 Si02
#       6
#    16  16  16  16  16  16
#     4  11  20  30  45  64  84 106 131 169 212 250
#     4  10  19  29  43  63  85 111 140 171 210 251
#     4   8  16  29  44  63  84 108 133 161 201 245
#     4  10  20  33  48  63  79 103 134 173 218 259
#     4  11  23  36  49  62  78 105 138 174 217 261
#     4  10  18  29  46  64  85 110 136 168 204 245
#
# _framework density 13.735787
#
# number of rings (size 3 to 8) (size 9 to 14) (size 15 to 20)
#    0.000    2.000    1.667    4.500    0.000    6.667 
#    0.000    0.000    0.000    0.000    0.000    0.000 
#    0.000    0.000    0.000    0.000    0.000    0.833 
#
# Total GULP energy -267792.988547 kJ/mol
# GULP energy per Si atom -5579.020595 kJ/mol
# Density = 1.370452 g / cm^3
# Si number density = 13.735787 Si / 1000 Ang^3
#
#
#
# Elastic Constant Matrix: (Units=GPa)
#
#
# Indices 1 2 3 4 5 6 
#
# 1 41.8807 44.8555 46.2399 0.0000 0.0000 0.0000
# 2 44.8555 96.4172 65.9358 0.0000 0.0000 0.0000
# 3 46.2399 65.9358 110.6770 0.0000 0.0000 0.0000
# 4 0.0000 0.0000 0.0000 25.9189 0.0000 0.0000
# 5 0.0000 0.0000 0.0000 0.0000 14.7868 0.0000
# 6 0.0000 0.0000 0.0000 0.0000 0.0000 10.9223
#
#
#
# Elastic Compliance Matrix: (Units=1/GPa)
#
#
# Indices 1 2 3 4 5 6 
#
# 1 0.057740 -0.017491 -0.013703 0.000000 0.000000 0.000000
# 2 -0.017491 0.022801 -0.006276 0.000000 0.000000 0.000000
# 3 -0.013703 -0.006276 0.018499 0.000000 0.000000 0.000000
# 4 0.000000 0.000000 0.000000 0.038582 0.000000 0.000000
# 5 0.000000 0.000000 0.000000 0.000000 0.067628 0.000000
# 6 0.000000 0.000000 0.000000 0.000000 0.000000 0.091556
#
#
# Mechanical properties :
#
#
# Convention : Reuss Voigt Hill
#
# Bulk Modulus (GPa) = 41.49379 62.55969 52.02674
# Shear Modulus (GPa) = 13.16556 16.45519 14.81037
#
# Velocity S-wave (km/s) = 3.09930 3.46494 3.28721
# Velocity P-wave (km/s) = 6.56366 7.85186 7.23648
#
# Compressibility (1/GPa) = 0.02409999
#
# Stress axis : x y z
#
# Youngs Moduli (GPa) = 17.31899 43.85847 54.05662
#
# Poissons Ratio (x) = 0.76713 0.74074
# Poissons Ratio (y) = 0.30293 0.33925
# Poissons Ratio (z) = 0.23732 0.27525
#
# Static dielectric constant tensor:
#      x y z
#    x 1.426370 0.000000 0.000000 
#    y 0.000000 1.455140 0.000000 
#    z 0.000000 0.000000 1.464150 
# 
# From -- ./inp_files/64679.got.cif
#   From: 2010.05.17/outbox.cif.g08.bks.cpg/sg74_33_cif.got.tgz:64679.got - 2010.06.03 17:57:02.
