data_PCOD9534173
_publ_section_title
;
Structure prediction by ZEFSAII (Michael W. Deem and Ramdas Pophale) SiO2 
 PCOD9534173
Probable space group: I M M A
;
_chemical_formula_sum "Si O2"
_cell_formula_units_Z 96
_cell_length_a 13.828203
_cell_length_b 14.648371
_cell_length_c 30.594983
_cell_angle_alpha 90.000000
_cell_angle_beta 90.000000
_cell_angle_gamma 90.000000
_cell_volume 6197.339576
_symmetry_space_group_name_H-M "I M M A"
_symmetry_group_IT_number 74
_symmetry_cell_setting 'orthorhombic'
loop_
_space_group_symop_operation_xyz
x,y,z
-x,1/2-y,z
x,-y,-z
-x,1/2+y,-z
-x,-y,-z
x,1/2+y,-z
-x,y,z
x,1/2-y,z
1/2+x,1/2+y,1/2+z
1/2-x,-y,1/2+z
1/2+x,1/2-y,1/2-z
1/2-x,y,1/2-z
1/2-x,1/2-y,1/2-z
1/2+x,y,1/2-z
1/2-x,1/2+y,1/2+z
1/2+x,-y,1/2+z
loop_
_atom_site_type_symbol
_atom_site_label
_atom_site_fract_x
_atom_site_fract_y
_atom_site_fract_z
Si Si1 0.787671 0.026651 0.349726
Si Si2 0.614843 0.352301 0.222142
Si Si3 0.611299 0.394179 0.986029
Si Si4 0.885736 0.644671 0.826615
Si Si5 0.615746 0.357974 0.886958
Si Si6 0.615214 0.350021 0.078916
O O1 0.835246 0.070851 0.306563
O O2 0.678682 0.065592 0.348154
O O3 0.837176 0.075163 0.391188
O O4 0.818148 0.921598 0.356096
O O5 0.500000 0.355505 0.213733
O O6 0.649168 0.250000 0.210039
O O7 0.628681 0.361949 0.274073
O O8 0.500000 0.362120 0.983155
O O9 0.648366 0.376079 0.937434
O O10 0.611359 0.500000 0.000000
O O11 0.654364 0.349282 0.029406
O O12 0.859973 0.750000 0.839292
O O13 0.000000 0.633694 0.834991
O O14 0.500000 0.382550 0.883267
O O15 0.623850 0.250000 0.878198
O O16 0.500000 0.368299 0.076585
O O17 0.628179 0.250000 0.098770
#
# Coordination Sequence:
#
# PCOD9534173 Si02
#       6
#    16  16  16  16  16  16
#     4  12  19  27  46  69  92 118 156 194 225 262
#     4   9  17  29  46  70  98 122 142 173 227 292
#     4   9  15  27  42  58  89 129 157 175 212 271
#     4   9  19  34  49  67  93 123 151 182 231 290
#     4  10  20  32  45  64  95 132 162 188 223 269
#     4  10  18  25  38  65  96 120 143 177 222 271
#
# _framework density 15.490518
#
# number of rings (size 3 to 8) (size 9 to 14) (size 15 to 20)
#    0.000    2.167    1.667    5.000    0.000    4.667 
#    0.000    0.000    0.000    2.500    0.000    4.667 
#    0.000    2.667    0.000    0.000    0.000    0.000 
#
# Total GULP energy -267346.714608 kJ/mol
# GULP energy per Si atom -5569.723221 kJ/mol
# Density = 1.545526 g / cm^3
# Si number density = 15.490518 Si / 1000 Ang^3
#
#
#
# Elastic Constant Matrix: (Units=GPa)
#
#
# Indices 1 2 3 4 5 6 
#
# 1 58.5903 37.4996 20.5036 0.0000 0.0000 0.0000
# 2 37.4996 96.1298 25.1073 0.0000 0.0000 0.0000
# 3 20.5036 25.1073 27.2639 0.0000 0.0000 0.0000
# 4 0.0000 0.0000 0.0000 23.5799 0.0000 0.0000
# 5 0.0000 0.0000 0.0000 0.0000 9.8281 0.0000
# 6 0.0000 0.0000 0.0000 0.0000 0.0000 19.7280
#
#
#
# Elastic Compliance Matrix: (Units=1/GPa)
#
#
# Indices 1 2 3 4 5 6 
#
# 1 0.026026 -0.006637 -0.013461 0.000000 0.000000 0.000000
# 2 -0.006637 0.015389 -0.009181 0.000000 0.000000 0.000000
# 3 -0.013461 -0.009181 0.055256 0.000000 0.000000 0.000000
# 4 0.000000 0.000000 0.000000 0.042409 0.000000 0.000000
# 5 0.000000 0.000000 0.000000 0.000000 0.101749 0.000000
# 6 0.000000 0.000000 0.000000 0.000000 0.000000 0.050689
#
#
# Mechanical properties :
#
#
# Convention : Reuss Voigt Hill
#
# Bulk Modulus (GPa) = 26.23664 38.68946 32.46305
# Shear Modulus (GPa) = 13.78241 17.21878 15.50060
#
# Velocity S-wave (km/s) = 2.98607 3.33764 3.16674
# Velocity P-wave (km/s) = 5.37242 6.31534 5.86287
#
# Compressibility (1/GPa) = 0.03811464
#
# Stress axis : x y z
#
# Youngs Moduli (GPa) = 38.42301 64.97938 18.09748
#
# Poissons Ratio (x) = 0.43126 0.24361
# Poissons Ratio (y) = 0.25501 0.16615
# Poissons Ratio (z) = 0.51720 0.59657
#
# Static dielectric constant tensor:
#      x y z
#    x 1.528920 0.000000 0.000000 
#    y 0.000000 1.586930 0.000000 
#    z 0.000000 0.000000 1.544730 
# 
# From -- ./inp_files/72590.got.cif
#   From: 2010.05.17/outbox.cif.g08.bks.cpg/sg74_37_cif.got.tgz:72590.got - 2010.06.03 17:57:02.
