data_PCOD9534054
_publ_section_title
;
Structure prediction by ZEFSAII (Michael W. Deem and Ramdas Pophale) SiO2 
 PCOD9534054
Probable space group: I M M A
;
_chemical_formula_sum "Si O2"
_cell_formula_units_Z 96
_cell_length_a 29.973990
_cell_length_b 8.829708
_cell_length_c 24.331010
_cell_angle_alpha 90.000000
_cell_angle_beta 90.000000
_cell_angle_gamma 90.000000
_cell_volume 6439.483532
_symmetry_space_group_name_H-M "I M M A"
_symmetry_group_IT_number 74
_symmetry_cell_setting 'orthorhombic'
loop_
_space_group_symop_operation_xyz
x,y,z
-x,1/2-y,z
x,-y,-z
-x,1/2+y,-z
-x,-y,-z
x,1/2+y,-z
-x,y,z
x,1/2-y,z
1/2+x,1/2+y,1/2+z
1/2-x,-y,1/2+z
1/2+x,1/2-y,1/2-z
1/2-x,y,1/2-z
1/2-x,1/2-y,1/2-z
1/2+x,y,1/2-z
1/2-x,1/2+y,1/2+z
1/2+x,-y,1/2+z
loop_
_atom_site_type_symbol
_atom_site_label
_atom_site_fract_x
_atom_site_fract_y
_atom_site_fract_z
Si Si1 0.811051 0.432230 0.057396
Si Si2 0.740619 0.932433 0.667687
Si Si3 0.500000 0.076042 0.594056
Si Si4 0.093424 0.930834 0.770038
Si Si5 0.316928 0.568933 0.232362
Si Si6 0.500000 0.573875 0.272138
Si Si7 0.907010 0.931469 0.900562
O O1 0.812157 0.250000 0.054395
O O2 0.779352 0.472231 0.108447
O O3 0.861810 0.484488 0.070145
O O4 0.795899 0.500000 0.000000
O O5 0.740980 0.750000 0.673444
O O6 0.707840 0.001613 0.713768
O O7 0.788983 0.999934 0.681731
O O8 0.500000 0.250000 0.576932
O O9 0.500000 0.068122 0.660959
O O10 0.546649 0.999495 0.577611
O O11 0.096927 0.750000 0.764335
O O12 0.098227 0.966600 0.835413
O O13 0.132565 0.012553 0.737026
O O14 0.044763 0.990232 0.753595
O O15 0.314003 0.750000 0.232416
O O16 0.500000 0.750000 0.256464
O O17 0.909880 0.750000 0.904902
#
# Coordination Sequence:
#
# PCOD9534054 Si02
#       7
#    16  16   8  16  16   8  16
#     4  10  21  35  50  67  86 114 150 188 231 276
#     4  10  19  34  49  65  89 118 150 183 226 282
#     4   9  17  27  42  64  83 105 140 187 234 268
#     4  10  17  29  46  64  89 123 154 182 222 275
#     4  11  20  29  46  72  94 115 146 189 232 265
#     4   9  17  27  39  64  94 117 148 187 225 265
#     4   9  17  31  46  61  82 112 148 183 224 275
#
# _framework density 14.908027000000001
#
# number of rings (size 3 to 8) (size 9 to 14) (size 15 to 20)
#    0.000    2.167    1.667    4.000    0.000    4.667 
#    0.000    0.417    0.000    0.000    0.000    0.000 
#    0.000    0.000    0.000    0.750    0.000   10.167 
#
# Total GULP energy -267763.500816 kJ/mol
# GULP energy per Si atom -5578.406267 kJ/mol
# Density = 1.487410 g / cm^3
# Si number density = 14.908027 Si / 1000 Ang^3
#
#
#
# Elastic Constant Matrix: (Units=GPa)
#
#
# Indices 1 2 3 4 5 6 
#
# 1 99.7841 41.2242 48.2025 0.0000 0.0000 0.0000
# 2 41.2242 63.6635 31.9748 0.0000 0.0000 0.0000
# 3 48.2025 31.9748 69.1333 0.0000 0.0000 0.0000
# 4 0.0000 0.0000 0.0000 15.9415 0.0000 0.0000
# 5 0.0000 0.0000 0.0000 0.0000 11.4052 0.0000
# 6 0.0000 0.0000 0.0000 0.0000 0.0000 23.2337
#
#
#
# Elastic Compliance Matrix: (Units=1/GPa)
#
#
# Indices 1 2 3 4 5 6 
#
# 1 0.016994 -0.006582 -0.008805 0.000000 0.000000 0.000000
# 2 -0.006582 0.023010 -0.006053 0.000000 0.000000 0.000000
# 3 -0.008805 -0.006053 0.023403 0.000000 0.000000 0.000000
# 4 0.000000 0.000000 0.000000 0.062729 0.000000 0.000000
# 5 0.000000 0.000000 0.000000 0.000000 0.087679 0.000000
# 6 0.000000 0.000000 0.000000 0.000000 0.000000 0.043041
#
#
# Mechanical properties :
#
#
# Convention : Reuss Voigt Hill
#
# Bulk Modulus (GPa) = 48.71450 52.82043 50.76746
# Shear Modulus (GPa) = 16.30902 17.52805 16.91854
#
# Velocity S-wave (km/s) = 3.31112 3.43264 3.37242
# Velocity P-wave (km/s) = 6.88227 7.15671 7.02083
#
# Compressibility (1/GPa) = 0.02052777
#
# Stress axis : x y z
#
# Youngs Moduli (GPa) = 58.84342 43.45978 42.72895
#
# Poissons Ratio (x) = 0.28606 0.37622
# Poissons Ratio (y) = 0.38732 0.25863
# Poissons Ratio (z) = 0.51810 0.26306
#
# Static dielectric constant tensor:
#      x y z
#    x 1.508020 0.000000 0.000000 
#    y 0.000000 1.496260 0.000000 
#    z 0.000000 0.000000 1.473060 
# 
# From -- ./inp_files/62305.got.cif
#   From: 2010.05.17/outbox.cif.g08.bks.cpg/sg74_32_cif.got.tgz:62305.got - 2010.06.03 17:57:02.
