data_PCOD9534795
_publ_section_title
;
Structure prediction by ZEFSAII (Michael W. Deem and Ramdas Pophale) SiO2 
 PCOD9534795
Probable space group: I M M A
;
_chemical_formula_sum "Si O2"
_cell_formula_units_Z 80
_cell_length_a 16.843307
_cell_length_b 18.380877
_cell_length_c 13.870522
_cell_angle_alpha 90.000000
_cell_angle_beta 90.000000
_cell_angle_gamma 90.000000
_cell_volume 4294.240850
_symmetry_space_group_name_H-M "I M M A"
_symmetry_group_IT_number 74
_symmetry_cell_setting 'orthorhombic'
loop_
_space_group_symop_operation_xyz
x,y,z
-x,1/2-y,z
x,-y,-z
-x,1/2+y,-z
-x,-y,-z
x,1/2+y,-z
-x,y,z
x,1/2-y,z
1/2+x,1/2+y,1/2+z
1/2-x,-y,1/2+z
1/2+x,1/2-y,1/2-z
1/2-x,y,1/2-z
1/2-x,1/2-y,1/2-z
1/2+x,y,1/2-z
1/2-x,1/2+y,1/2+z
1/2+x,-y,1/2+z
loop_
_atom_site_type_symbol
_atom_site_label
_atom_site_fract_x
_atom_site_fract_y
_atom_site_fract_z
Si Si1 0.590083 0.555388 0.229462
Si Si2 0.821373 0.031111 0.104777
Si Si3 0.136254 0.072857 0.393489
Si Si4 0.843292 0.668308 0.781829
Si Si5 0.595940 0.833346 0.078714
O O1 0.500000 0.563319 0.266338
O O2 0.646161 0.522071 0.311728
O O3 0.588109 0.497375 0.140945
O O4 0.618593 0.630033 0.180546
O O5 0.726754 0.043563 0.111208
O O6 0.854618 0.111113 0.131937
O O7 0.841390 0.000000 0.000000
O O8 0.117482 0.133037 0.312075
O O9 0.124433 0.113720 0.493558
O O10 0.868452 0.750000 0.803126
O O11 0.750000 0.670014 0.750000
O O12 0.500000 0.833187 0.075800
O O13 0.623544 0.750000 0.067058
#
# Coordination Sequence:
#
# PCOD9534795 Si02
#       5
#    16  16  16  16  16
#     4  10  20  34  52  74 103 140 179 217 261 316
#     4  10  20  33  51  73 100 135 178 221 260 306
#     4  10  18  31  54  78 103 130 166 217 270 319
#     4   8  15  28  46  69  95 123 157 201 252 300
#     4  10  20  33  52  81 113 141 171 212 267 329
#
# _framework density 18.629601999999998
#
# number of rings (size 3 to 8) (size 9 to 14) (size 15 to 20)
#    0.000    2.400    0.000    4.800    0.000    2.800 
#    0.000    1.000    0.000   11.400    0.000    0.000 
#    0.000    0.000    0.000    0.000    0.000    0.000 
#
# Total GULP energy -222843.544582 kJ/mol
# GULP energy per Si atom -5571.088615 kJ/mol
# Density = 1.858720 g / cm^3
# Si number density = 18.629602 Si / 1000 Ang^3
#
#
#
# Elastic Constant Matrix: (Units=GPa)
#
#
# Indices 1 2 3 4 5 6 
#
# 1 34.6706 24.6825 31.9033 0.0000 0.0000 0.0000
# 2 24.6825 87.5845 83.4891 0.0000 0.0000 0.0000
# 3 31.9033 83.4891 125.0568 0.0000 0.0000 0.0000
# 4 0.0000 0.0000 0.0000 18.9508 0.0000 0.0000
# 5 0.0000 0.0000 0.0000 0.0000 19.2642 0.0000
# 6 0.0000 0.0000 0.0000 0.0000 0.0000 12.7455
#
#
#
# Elastic Compliance Matrix: (Units=1/GPa)
#
#
# Indices 1 2 3 4 5 6 
#
# 1 0.038208 -0.004060 -0.007037 0.000000 0.000000 0.000000
# 2 -0.004060 0.031832 -0.020216 0.000000 0.000000 0.000000
# 3 -0.007037 -0.020216 0.023288 0.000000 0.000000 0.000000
# 4 0.000000 0.000000 0.000000 0.052768 0.000000 0.000000
# 5 0.000000 0.000000 0.000000 0.000000 0.051910 0.000000
# 6 0.000000 0.000000 0.000000 0.000000 0.000000 0.078459
#
#
# Mechanical properties :
#
#
# Convention : Reuss Voigt Hill
#
# Bulk Modulus (GPa) = 32.56967 58.60686 45.58826
# Shear Modulus (GPa) = 14.31331 17.34122 15.82727
#
# Velocity S-wave (km/s) = 2.77485 3.05428 2.91791
# Velocity P-wave (km/s) = 5.27134 6.63065 5.98968
#
# Compressibility (1/GPa) = 0.03070341
#
# Stress axis : x y z
#
# Youngs Moduli (GPa) = 26.17222 31.41477 42.94072
#
# Poissons Ratio (x) = 0.12753 0.30218
# Poissons Ratio (y) = 0.10625 0.86808
# Poissons Ratio (z) = 0.18418 0.63508
#
# Static dielectric constant tensor:
#      x y z
#    x 1.673530 0.000000 0.000000 
#    y 0.000000 1.664930 0.000000 
#    z 0.000000 0.000000 1.647340 
# 
# From -- ./inp_files/33955.got.cif
#   From: 2010.05.17/outbox.cif.g08.bks.cpg/sg74_17_cif.got.tgz:33955.got - 2010.06.03 17:57:02.
