data_PCOD9534772
_publ_section_title
;
Structure prediction by ZEFSAII (Michael W. Deem and Ramdas Pophale) SiO2 
 PCOD9534772
Probable space group: I M M A
;
_chemical_formula_sum "Si O2"
_cell_formula_units_Z 96
_cell_length_a 14.267190
_cell_length_b 24.499412
_cell_length_c 12.953667
_cell_angle_alpha 90.000000
_cell_angle_beta 90.000000
_cell_angle_gamma 90.000000
_cell_volume 4527.795823
_symmetry_space_group_name_H-M "I M M A"
_symmetry_group_IT_number 74
_symmetry_cell_setting 'orthorhombic'
loop_
_space_group_symop_operation_xyz
x,y,z
-x,1/2-y,z
x,-y,-z
-x,1/2+y,-z
-x,-y,-z
x,1/2+y,-z
-x,y,z
x,1/2-y,z
1/2+x,1/2+y,1/2+z
1/2-x,-y,1/2+z
1/2+x,1/2-y,1/2-z
1/2-x,y,1/2-z
1/2-x,1/2-y,1/2-z
1/2+x,y,1/2-z
1/2-x,1/2+y,1/2+z
1/2+x,-y,1/2+z
loop_
_atom_site_type_symbol
_atom_site_label
_atom_site_fract_x
_atom_site_fract_y
_atom_site_fract_z
Si Si1 0.356572 0.750000 0.219467
Si Si2 0.885441 0.561361 0.785962
Si Si3 0.388577 0.131214 0.866195
Si Si4 0.114644 0.058058 0.450071
Si Si5 0.893897 0.750000 0.042228
Si Si6 0.385643 0.560769 0.330569
Si Si7 0.885045 0.633192 0.974903
O O1 0.250000 0.750000 0.250000
O O2 0.375196 0.805225 0.157268
O O3 0.402060 0.750000 0.333406
O O4 0.854369 0.565828 0.667571
O O5 0.855557 0.501838 0.826568
O O6 0.857171 0.608674 0.864907
O O7 0.000000 0.561321 0.785712
O O8 0.500000 0.122629 0.867714
O O9 0.354480 0.094702 0.769955
O O10 0.354386 0.106483 0.973905
O O11 0.000000 0.056996 0.446775
O O12 0.142737 0.000000 0.500000
O O13 0.000000 0.750000 0.000729
O O14 0.849779 0.693601 0.003457
O O15 0.500000 0.560390 0.328944
O O16 0.357714 0.592091 0.433672
O O17 0.000000 0.634835 0.977556
#
# Coordination Sequence:
#
# PCOD9534772 Si02
#       7
#     8  16  16  16   8  16  16
#     4  12  24  36  51  74  98 132 169 213 254 296
#     4   9  15  23  37  69 108 133 157 194 244 297
#     4  10  18  31  52  77 102 130 166 206 250 300
#     4   9  15  25  44  73 106 135 161 197 247 298
#     4  10  18  32  51  70  97 132 163 201 254 300
#     4   9  14  22  41  68 100 129 155 196 245 293
#     4   9  16  24  39  66 100 134 164 197 241 290
#
# _framework density 21.202369000000001
#
# number of rings (size 3 to 8) (size 9 to 14) (size 15 to 20)
#    0.000    2.500    3.333    1.250    0.000    2.000 
#    0.000    0.833    0.000    4.000    4.333    2.333 
#    0.000    0.000    0.000    0.000    0.000    0.000 
#
# Total GULP energy -268180.474285 kJ/mol
# GULP energy per Si atom -5587.093214 kJ/mol
# Density = 2.115411 g / cm^3
# Si number density = 21.202369 Si / 1000 Ang^3
#
#
#
# Elastic Constant Matrix: (Units=GPa)
#
#
# Indices 1 2 3 4 5 6 
#
# 1 56.2086 7.4543 4.8764 0.0000 0.0000 0.0000
# 2 7.4543 186.6502 124.9938 0.0001 0.0000 0.0000
# 3 4.8764 124.9938 205.0612 0.0003 0.0000 0.0000
# 4 0.0000 0.0001 0.0003 35.9720 0.0000 0.0000
# 5 0.0000 0.0000 0.0000 0.0000 -6.6326 0.0000
# 6 0.0000 0.0000 0.0000 0.0000 0.0000 -9.6095
#
#
#
# Elastic Compliance Matrix: (Units=1/GPa)
#
#
# Indices 1 2 3 4 5 6 
#
# 1 0.017886 -0.000726 0.000017 0.000000 0.000000 0.000000
# 2 -0.000726 0.009082 -0.005519 0.000000 0.000000 0.000000
# 3 0.000017 -0.005519 0.008240 0.000000 0.000000 0.000000
# 4 0.000000 0.000000 0.000000 0.027799 0.000000 0.000000
# 5 0.000000 0.000000 0.000000 0.000000 -0.150770 0.000000
# 6 0.000000 0.000000 0.000000 0.000000 0.000000 -0.104064
#
#
# Mechanical properties :
#
#
# Convention : Reuss Voigt Hill
#
# Bulk Modulus (GPa) = 43.94997 80.28543 62.11770
# Shear Modulus (GPa) = -29.10583 24.65234 -2.22674
#
# Velocity S-wave (km/s) = -3.70910 3.41356 -1.02592
# Velocity P-wave (km/s) = 1.55903 7.31334 5.28751
#
# Compressibility (1/GPa) = 0.02275314
#
# Stress axis : x y z
#
# Youngs Moduli (GPa) = 55.91075 110.10287 121.35649
#
# Poissons Ratio (x) = 0.07990 -0.00207
# Poissons Ratio (y) = 0.04057 0.66975
# Poissons Ratio (z) = -0.00095 0.60764
#
# Static dielectric constant tensor:
#      x y z
#    x 1.788410 0.000000 0.000000 
#    y 0.000000 1.703190 0.000000 
#    z 0.000000 0.000000 1.695500 
# 
# From -- ./inp_files/24129.got.cif
#   From: 2010.05.17/outbox.cif.g08.bks.cpg/sg74_13_cif.got.tgz:24129.got - 2010.06.03 17:57:02.
