data_PCOD9534066
_publ_section_title
;
Structure prediction by ZEFSAII (Michael W. Deem and Ramdas Pophale) SiO2 
 PCOD9534066
Probable space group: I M M A
;
_chemical_formula_sum "Si O2"
_cell_formula_units_Z 80
_cell_length_a 7.911623
_cell_length_b 24.702422
_cell_length_c 23.944932
_cell_angle_alpha 90.000000
_cell_angle_beta 90.000000
_cell_angle_gamma 90.000000
_cell_volume 4679.707718
_symmetry_space_group_name_H-M "I M M A"
_symmetry_group_IT_number 74
_symmetry_cell_setting 'orthorhombic'
loop_
_space_group_symop_operation_xyz
x,y,z
-x,1/2-y,z
x,-y,-z
-x,1/2+y,-z
-x,-y,-z
x,1/2+y,-z
-x,y,z
x,1/2-y,z
1/2+x,1/2+y,1/2+z
1/2-x,-y,1/2+z
1/2+x,1/2-y,1/2-z
1/2-x,y,1/2-z
1/2-x,1/2-y,1/2-z
1/2+x,y,1/2-z
1/2-x,1/2+y,1/2+z
1/2+x,-y,1/2+z
loop_
_atom_site_type_symbol
_atom_site_label
_atom_site_fract_x
_atom_site_fract_y
_atom_site_fract_z
Si Si1 0.806531 0.870960 0.684762
Si Si2 0.299613 0.397473 0.814466
Si Si3 0.303850 0.014140 0.314557
Si Si4 0.000000 0.684995 0.878985
Si Si5 0.301518 0.685425 0.089155
Si Si6 0.000000 0.684473 0.007261
O O1 0.750000 0.871012 0.750000
O O2 0.795901 0.933567 0.664348
O O3 0.667799 0.836933 0.651456
O O4 0.000000 0.851846 0.680291
O O5 0.500000 0.405119 0.814729
O O6 0.250000 0.387789 0.750000
O O7 0.223574 0.453902 0.837341
O O8 0.257893 0.347917 0.855054
O O9 0.500000 0.028615 0.317390
O O10 0.250000 0.007938 0.250000
O O11 0.000000 0.750000 0.877190
O O12 0.000000 0.666014 0.943376
O O13 0.500000 0.675117 0.075384
O O14 0.284479 0.750000 0.098356
O O15 0.169026 0.669016 0.041194
O O16 0.000000 0.750000 0.005552
#
# Coordination Sequence:
#
# PCOD9534066 Si02
#       6
#    16  16  16   8  16   8
#     4  11  20  37  58  82 114 147 175 211 269 326
#     4  10  19  29  47  80 112 142 182 228 275 322
#     4  10  17  29  50  75 108 144 182 219 257 322
#     4  11  24  40  57  87 113 137 182 223 265 327
#     4   9  19  35  54  76 106 145 186 228 275 323
#     4   9  20  38  59  75 101 145 191 226 261 320
#
# _framework density 17.095085000000001
#
# number of rings (size 3 to 8) (size 9 to 14) (size 15 to 20)
#    0.000    2.000    2.000    4.800    2.800    2.000 
#    0.000    2.000    0.000    2.400    0.000    4.200 
#    0.000    0.000    0.000    0.000    0.000    0.000 
#
# Total GULP energy -222892.414602 kJ/mol
# GULP energy per Si atom -5572.310365 kJ/mol
# Density = 1.705618 g / cm^3
# Si number density = 17.095085 Si / 1000 Ang^3
#
#
#
# Elastic Constant Matrix: (Units=GPa)
#
#
# Indices 1 2 3 4 5 6 
#
# 1 126.6401 41.9672 56.4094 0.0000 0.0000 0.0000
# 2 41.9672 74.6531 44.1266 0.0000 0.0000 0.0000
# 3 56.4094 44.1266 95.3462 0.0000 0.0000 0.0000
# 4 0.0000 0.0000 0.0000 -8.3828 0.0000 0.0000
# 5 0.0000 0.0000 0.0000 0.0000 21.2481 0.0000
# 6 0.0000 0.0000 0.0000 0.0000 0.0000 -146.5106
#
#
#
# Elastic Compliance Matrix: (Units=1/GPa)
#
#
# Indices 1 2 3 4 5 6 
#
# 1 0.011283 -0.003300 -0.005148 0.000000 0.000000 0.000000
# 2 -0.003300 0.019405 -0.007028 0.000000 0.000000 0.000000
# 3 -0.005148 -0.007028 0.016787 0.000000 0.000000 0.000000
# 4 0.000000 0.000000 0.000000 -0.119291 0.000000 0.000000
# 5 0.000000 0.000000 0.000000 0.000000 0.047063 0.000000
# 6 0.000000 0.000000 0.000000 0.000000 0.000000 -0.006825
#
#
# Mechanical properties :
#
#
# Convention : Reuss Voigt Hill
#
# Bulk Modulus (GPa) = 60.52641 64.62732 62.57686
# Shear Modulus (GPa) = 1024.43226 -16.45333 503.98947
#
# Velocity S-wave (km/s) = 24.50625 -3.10572 17.18882
# Velocity P-wave (km/s) = 28.91755 5.00260 20.75151
#
# Compressibility (1/GPa) = 0.01652171
#
# Stress axis : x y z
#
# Youngs Moduli (GPa) = 88.62799 51.53387 59.57128
#
# Poissons Ratio (x) = 0.17006 0.30668
# Poissons Ratio (y) = 0.29246 0.41868
# Poissons Ratio (z) = 0.45627 0.36219
#
# Static dielectric constant tensor:
#      x y z
#    x 1.587430 0.000000 0.000000 
#    y 0.000000 1.608490 0.000000 
#    z 0.000000 0.000000 1.550820 
# 
# From -- ./inp_files/57164.got.cif
#   From: 2010.05.17/outbox.cif.g08.bks.cpg/sg74_29_cif.got.tgz:57164.got - 2010.06.03 17:57:02.
