data_PCOD9534940
_publ_section_title
;
Structure prediction by ZEFSAII (Michael W. Deem and Ramdas Pophale) SiO2 
 PCOD9534940
Probable space group: I M M A
;
_chemical_formula_sum "Si O2"
_cell_formula_units_Z 96
_cell_length_a 24.330089
_cell_length_b 8.350023
_cell_length_c 26.210862
_cell_angle_alpha 90.000000
_cell_angle_beta 90.000000
_cell_angle_gamma 90.000000
_cell_volume 5324.914921
_symmetry_space_group_name_H-M "I M M A"
_symmetry_group_IT_number 74
_symmetry_cell_setting 'orthorhombic'
loop_
_space_group_symop_operation_xyz
x,y,z
-x,1/2-y,z
x,-y,-z
-x,1/2+y,-z
-x,-y,-z
x,1/2+y,-z
-x,y,z
x,1/2-y,z
1/2+x,1/2+y,1/2+z
1/2-x,-y,1/2+z
1/2+x,1/2-y,1/2-z
1/2-x,y,1/2-z
1/2-x,1/2-y,1/2-z
1/2+x,y,1/2-z
1/2-x,1/2+y,1/2+z
1/2+x,-y,1/2+z
loop_
_atom_site_type_symbol
_atom_site_label
_atom_site_fract_x
_atom_site_fract_y
_atom_site_fract_z
Si Si1 0.817550 0.441304 0.943319
Si Si2 0.883509 0.058794 0.152862
Si Si3 0.191710 0.943551 0.443136
Si Si4 0.813117 0.056236 0.751625
Si Si5 0.000000 0.444028 0.195785
Si Si6 0.118933 0.554416 0.348389
Si Si7 0.000000 0.443817 0.686922
O O1 0.816878 0.250000 0.943101
O O2 0.859257 0.499253 0.900408
O O3 0.754640 0.496637 0.932122
O O4 0.831667 0.500000 0.000000
O O5 0.884887 0.250000 0.151747
O O6 0.944694 0.000830 0.167367
O O7 0.843510 0.003487 0.198139
O O8 0.191657 0.750000 0.442653
O O9 0.149692 0.999501 0.399624
O O10 0.177434 0.000000 0.500000
O O11 0.813412 0.250000 0.752558
O O12 0.750000 0.002873 0.750000
O O13 0.846134 0.004913 0.701220
O O14 0.000000 0.250000 0.196545
O O15 0.000000 0.501684 0.254266
O O16 0.118935 0.750000 0.349127
O O17 0.056085 0.502127 0.340450
O O18 0.000000 0.250000 0.687001
#
# Coordination Sequence:
#
# PCOD9534940 Si02
#       7
#    16  16  16  16   8  16   8
#     4  10  20  36  58  81 107 140 177 221 270 323
#     4  11  22  36  54  78 109 143 179 219 268 324
#     4   9  18  34  54  77 106 138 173 215 266 316
#     4  10  19  32  52  78 107 138 175 222 273 323
#     4  10  22  38  53  74 109 146 178 221 270 315
#     4   9  17  30  50  76 103 134 176 221 261 308
#     4  10  18  32  55  76  98 138 188 223 257 315
#
# _framework density 18.028458000000001
#
# number of rings (size 3 to 8) (size 9 to 14) (size 15 to 20)
#    0.000    2.167    1.667    2.000    0.000    4.333 
#    0.000    2.500    0.000    0.000    0.000    0.000 
#    0.000    0.000    0.000    0.000    0.000    0.000 
#
# Total GULP energy -267920.164827 kJ/mol
# GULP energy per Si atom -5581.670101 kJ/mol
# Density = 1.798742 g / cm^3
# Si number density = 18.028458 Si / 1000 Ang^3
#
#
#
# Elastic Constant Matrix: (Units=GPa)
#
#
# Indices 1 2 3 4 5 6 
#
# 1 172.5517 23.9000 108.1426 0.0000 0.0000 0.0000
# 2 23.9000 8.6243 16.0866 0.0000 0.0000 0.0000
# 3 108.1426 16.0866 151.7249 0.0000 0.0000 0.0000
# 4 0.0000 0.0000 0.0000 31.5291 0.0000 0.0000
# 5 0.0000 0.0000 0.0000 0.0000 20.1597 0.0000
# 6 0.0000 0.0000 0.0000 0.0000 0.0000 3.1633
#
#
#
# Elastic Compliance Matrix: (Units=1/GPa)
#
#
# Indices 1 2 3 4 5 6 
#
# 1 0.013675 -0.024577 -0.007141 0.000000 0.000000 0.000000
# 2 -0.024577 0.188704 -0.002490 0.000000 0.000000 0.000000
# 3 -0.007141 -0.002490 0.011945 0.000000 0.000000 0.000000
# 4 0.000000 0.000000 0.000000 0.031717 0.000000 0.000000
# 5 0.000000 0.000000 0.000000 0.000000 0.049604 0.000000
# 6 0.000000 0.000000 0.000000 0.000000 0.000000 0.316124
#
#
# Mechanical properties :
#
#
# Convention : Reuss Voigt Hill
#
# Bulk Modulus (GPa) = 6.85364 69.90659 38.38011
# Shear Modulus (GPa) = 6.86039 23.28853 15.07446
#
# Velocity S-wave (km/s) = 1.95284 3.59801 2.89476
# Velocity P-wave (km/s) = 2.98238 7.49138 5.70155
#
# Compressibility (1/GPa) = 0.14590792
#
# Stress axis : x y z
#
# Youngs Moduli (GPa) = 73.12584 5.29930 83.71823
#
# Poissons Ratio (x) = 0.13024 0.59785
# Poissons Ratio (y) = 1.79719 0.20847
# Poissons Ratio (z) = 0.52221 0.01320
#
# Static dielectric constant tensor:
#      x y z
#    x 1.625840 0.000000 0.000000 
#    y 0.000000 1.653440 0.000000 
#    z 0.000000 0.000000 1.545310 
# 
# From -- ./inp_files/61927.got.cif
#   From: 2010.05.17/outbox.cif.g08.bks.cpg/sg74_31_cif.got.tgz:61927.got - 2010.06.03 17:57:02.
