data_PCOD9534824
_publ_section_title
;
Structure prediction by ZEFSAII (Michael W. Deem and Ramdas Pophale) SiO2 
 PCOD9534824
Probable space group: I M M A
;
_chemical_formula_sum "Si O2"
_cell_formula_units_Z 80
_cell_length_a 18.599871
_cell_length_b 14.463422
_cell_length_c 15.637970
_cell_angle_alpha 90.000000
_cell_angle_beta 90.000000
_cell_angle_gamma 90.000000
_cell_volume 4206.892027
_symmetry_space_group_name_H-M "I M M A"
_symmetry_group_IT_number 74
_symmetry_cell_setting 'orthorhombic'
loop_
_space_group_symop_operation_xyz
x,y,z
-x,1/2-y,z
x,-y,-z
-x,1/2+y,-z
-x,-y,-z
x,1/2+y,-z
-x,y,z
x,1/2-y,z
1/2+x,1/2+y,1/2+z
1/2-x,-y,1/2+z
1/2+x,1/2-y,1/2-z
1/2-x,y,1/2-z
1/2-x,1/2-y,1/2-z
1/2+x,y,1/2-z
1/2-x,1/2+y,1/2+z
1/2+x,-y,1/2+z
loop_
_atom_site_type_symbol
_atom_site_label
_atom_site_fract_x
_atom_site_fract_y
_atom_site_fract_z
Si Si1 0.079623 0.250000 0.063767
Si Si2 0.857873 0.596658 0.050656
Si Si3 0.709438 0.109563 0.015952
Si Si4 0.920504 0.141737 0.598036
Si Si5 0.665889 0.137437 0.737146
Si Si6 0.765300 0.250000 0.149998
O O1 0.149338 0.250000 0.126278
O O2 0.000000 0.250000 0.103233
O O3 0.089298 0.162926 0.000688
O O4 0.867837 0.592986 0.151869
O O5 0.858873 0.500000 0.000000
O O6 0.777350 0.640280 0.042003
O O7 0.729805 0.159081 0.104806
O O8 0.631670 0.137681 0.982982
O O9 0.709489 0.000000 0.000000
O O10 0.928365 0.250000 0.617035
O O11 0.877401 0.103745 0.679588
O O12 0.000000 0.101527 0.586107
O O13 0.661274 0.250000 0.729083
O O14 0.750000 0.114322 0.750000
O O15 0.750000 0.250000 0.250000
#
# Coordination Sequence:
#
# PCOD9534824 Si02
#       6
#     8  16  16  16  16   8
#     4  10  22  40  60  82 119 153 194 247 294 351
#     4  10  20  36  58  86 114 158 199 238 297 363
#     4  10  20  38  62  88 117 156 207 251 298 364
#     4  10  20  34  56  87 121 156 196 247 308 364
#     4  10  18  31  58  85 116 151 195 247 293 356
#     4  10  22  44  69  89 120 164 210 248 302 372
#
# _framework density 19.016414999999999
#
# number of rings (size 3 to 8) (size 9 to 14) (size 15 to 20)
#    0.000    2.000    4.000    0.000    0.000    1.600 
#   10.800    1.000    0.000    0.000    0.000    0.000 
#    0.000    0.000    0.000    0.000    0.000    0.000 
#
# Total GULP energy -222710.395666 kJ/mol
# GULP energy per Si atom -5567.759892 kJ/mol
# Density = 1.897313 g / cm^3
# Si number density = 19.016415 Si / 1000 Ang^3
#
#
#
# Elastic Constant Matrix: (Units=GPa)
#
#
# Indices 1 2 3 4 5 6 
#
# 1 152.0804 24.4553 60.2281 0.0000 0.0000 0.0000
# 2 24.4553 80.5020 26.1798 0.0000 0.0000 0.0000
# 3 60.2281 26.1798 136.0299 0.0000 0.0000 0.0000
# 4 0.0000 0.0000 0.0000 17.0198 0.0000 0.0000
# 5 0.0000 0.0000 0.0000 0.0000 10.0688 0.0000
# 6 0.0000 0.0000 0.0000 0.0000 0.0000 9.1734
#
#
#
# Elastic Compliance Matrix: (Units=1/GPa)
#
#
# Indices 1 2 3 4 5 6 
#
# 1 0.008115 -0.001383 -0.003327 0.000000 0.000000 0.000000
# 2 -0.001383 0.013487 -0.001983 0.000000 0.000000 0.000000
# 3 -0.003327 -0.001983 0.009206 0.000000 0.000000 0.000000
# 4 0.000000 0.000000 0.000000 0.058755 0.000000 0.000000
# 5 0.000000 0.000000 0.000000 0.000000 0.099317 0.000000
# 6 0.000000 0.000000 0.000000 0.000000 0.000000 0.109011
#
#
# Mechanical properties :
#
#
# Convention : Reuss Voigt Hill
#
# Bulk Modulus (GPa) = 57.39976 65.59320 61.49648
# Shear Modulus (GPa) = 15.76856 24.43565 20.10211
#
# Velocity S-wave (km/s) = 2.88272 3.58855 3.25482
# Velocity P-wave (km/s) = 6.42884 7.19292 6.82158
#
# Compressibility (1/GPa) = 0.01742168
#
# Stress axis : x y z
#
# Youngs Moduli (GPa) = 123.22116 74.14408 108.62458
#
# Poissons Ratio (x) = 0.10257 0.36139
# Poissons Ratio (y) = 0.17047 0.21542
# Poissons Ratio (z) = 0.40995 0.14704
#
# Static dielectric constant tensor:
#      x y z
#    x 1.712940 0.000000 0.000000 
#    y 0.000000 1.623930 0.000000 
#    z 0.000000 0.000000 1.656110 
# 
# From -- ./inp_files/34033.got.cif
#   From: 2010.05.17/outbox.cif.g08.bks.cpg/sg74_18_cif.got.tgz:34033.got - 2010.06.03 17:57:02.
