data_PCOD9534767
_publ_section_title
;
Structure prediction by ZEFSAII (Michael W. Deem and Ramdas Pophale) SiO2 
 PCOD9534767
Probable space group: I M M A
;
_chemical_formula_sum "Si O2"
_cell_formula_units_Z 64
_cell_length_a 10.965266
_cell_length_b 14.402207
_cell_length_c 18.670508
_cell_angle_alpha 90.000000
_cell_angle_beta 90.000000
_cell_angle_gamma 90.000000
_cell_volume 2948.521879
_symmetry_space_group_name_H-M "I M M A"
_symmetry_group_IT_number 74
_symmetry_cell_setting 'orthorhombic'
loop_
_space_group_symop_operation_xyz
x,y,z
-x,1/2-y,z
x,-y,-z
-x,1/2+y,-z
-x,-y,-z
x,1/2+y,-z
-x,y,z
x,1/2-y,z
1/2+x,1/2+y,1/2+z
1/2-x,-y,1/2+z
1/2+x,1/2-y,1/2-z
1/2-x,y,1/2-z
1/2-x,1/2-y,1/2-z
1/2+x,y,1/2-z
1/2-x,1/2+y,1/2+z
1/2+x,-y,1/2+z
loop_
_atom_site_type_symbol
_atom_site_label
_atom_site_fract_x
_atom_site_fract_y
_atom_site_fract_z
Si Si1 0.000000 0.360297 0.156693
Si Si2 0.140669 0.637270 0.302263
Si Si3 0.747220 0.145207 0.108151
Si Si4 0.638280 0.103469 0.968069
Si Si5 0.000000 0.859574 0.673256
O O1 0.125665 0.401612 0.127448
O O2 0.000000 0.365910 0.241986
O O3 0.000000 0.250000 0.135966
O O4 0.138319 0.750000 0.298149
O O5 0.250000 0.604593 0.250000
O O6 0.168574 0.611965 0.384890
O O7 0.000000 0.605480 0.286155
O O8 0.752183 0.250000 0.139787
O O9 0.624930 0.100906 0.141235
O O10 0.728374 0.151763 0.023490
O O11 0.500000 0.140453 0.976266
O O12 0.637436 0.000000 0.000000
O O13 0.000000 0.750000 0.652652
#
# Coordination Sequence:
#
# PCOD9534767 Si02
#       5
#     8  16  16  16   8
#     4   9  18  30  45  74 109 135 165 216 262 298
#     4   9  18  35  60  86 109 138 183 235 280 323
#     4  10  18  31  52  76 101 135 180 220 263 315
#     4  10  20  35  56  78 108 141 179 222 270 328
#     4   9  16  28  49  72  99 135 175 210 244 296
#
# _framework density 21.705791000000001
#
# number of rings (size 3 to 8) (size 9 to 14) (size 15 to 20)
#    0.000    2.500    1.250    1.500    0.000    4.000 
#    2.250    3.125    0.000    0.000    0.000    0.000 
#    0.000    0.000    0.000    0.000    0.000    0.000 
#
# Total GULP energy -178545.754032 kJ/mol
# GULP energy per Si atom -5579.554813 kJ/mol
# Density = 2.165639 g / cm^3
# Si number density = 21.705791 Si / 1000 Ang^3
#
#
#
# Elastic Constant Matrix: (Units=GPa)
#
#
# Indices 1 2 3 4 5 6 
#
# 1 219.4217 5.7402 106.5085 0.0000 0.0000 0.0000
# 2 5.7402 36.6761 -9.9189 0.0000 0.0000 0.0000
# 3 106.5085 -9.9189 127.5833 0.0000 0.0000 0.0000
# 4 0.0000 0.0000 0.0000 8.8804 0.0000 0.0000
# 5 0.0000 0.0000 0.0000 0.0000 85.1599 0.0000
# 6 0.0000 0.0000 0.0000 0.0000 0.0000 10.0483
#
#
#
# Elastic Compliance Matrix: (Units=1/GPa)
#
#
# Indices 1 2 3 4 5 6 
#
# 1 0.007998 -0.003123 -0.006920 0.000000 0.000000 0.000000
# 2 -0.003123 0.029071 0.004867 0.000000 0.000000 0.000000
# 3 -0.006920 0.004867 0.013993 0.000000 0.000000 0.000000
# 4 0.000000 0.000000 0.000000 0.112608 0.000000 0.000000
# 5 0.000000 0.000000 0.000000 0.000000 0.011743 0.000000
# 6 0.000000 0.000000 0.000000 0.000000 0.000000 0.099520
#
#
# Mechanical properties :
#
#
# Convention : Reuss Voigt Hill
#
# Bulk Modulus (GPa) = 24.56336 65.37118 44.96727
# Shear Modulus (GPa) = 16.73060 39.57444 28.15252
#
# Velocity S-wave (km/s) = 2.77932 4.27455 3.60530
# Velocity P-wave (km/s) = 4.65194 7.38544 6.17192
#
# Compressibility (1/GPa) = 0.04071105
#
# Stress axis : x y z
#
# Youngs Moduli (GPa) = 125.03179 34.39866 71.46408
#
# Poissons Ratio (x) = 0.10743 0.49451
# Poissons Ratio (y) = 0.39049 -0.34784
# Poissons Ratio (z) = 0.86517 -0.16743
#
# Static dielectric constant tensor:
#      x y z
#    x 1.839210 0.000000 0.000000 
#    y 0.000000 1.912120 0.000000 
#    z 0.000000 0.000000 1.751070 
# 
# From -- ./inp_files/30239.got.cif
#   From: 2010.05.17/outbox.cif.g08.bks.cpg/sg74_16_cif.got.tgz:30239.got - 2010.06.03 17:57:02.
