data_PCOD9534324
_publ_section_title
;
Structure prediction by ZEFSAII (Michael W. Deem and Ramdas Pophale) SiO2 
 PCOD9534324
Probable space group: I M M A
;
_chemical_formula_sum "Si O2"
_cell_formula_units_Z 96
_cell_length_a 7.447214
_cell_length_b 20.926764
_cell_length_c 30.212005
_cell_angle_alpha 90.000000
_cell_angle_beta 90.000000
_cell_angle_gamma 90.000000
_cell_volume 4708.422845
_symmetry_space_group_name_H-M "I M M A"
_symmetry_group_IT_number 74
_symmetry_cell_setting 'orthorhombic'
loop_
_space_group_symop_operation_xyz
x,y,z
-x,1/2-y,z
x,-y,-z
-x,1/2+y,-z
-x,-y,-z
x,1/2+y,-z
-x,y,z
x,1/2-y,z
1/2+x,1/2+y,1/2+z
1/2-x,-y,1/2+z
1/2+x,1/2-y,1/2-z
1/2-x,y,1/2-z
1/2-x,1/2-y,1/2-z
1/2+x,y,1/2-z
1/2-x,1/2+y,1/2+z
1/2+x,-y,1/2+z
loop_
_atom_site_type_symbol
_atom_site_label
_atom_site_fract_x
_atom_site_fract_y
_atom_site_fract_z
Si Si1 0.781925 0.320555 0.984448
Si Si2 0.712647 0.956855 0.197956
Si Si3 0.714954 0.318499 0.802971
Si Si4 0.209662 0.046885 0.121389
Si Si5 0.718465 0.819963 0.588508
Si Si6 0.719314 0.041827 0.543061
O O1 0.720650 0.250000 0.969289
O O2 0.719230 0.384774 0.960355
O O3 0.000000 0.319933 0.982142
O O4 0.736391 0.327335 0.036526
O O5 0.500000 0.954831 0.192468
O O6 0.750000 0.963064 0.250000
O O7 0.785183 0.887483 0.181595
O O8 0.778741 0.015794 0.169338
O O9 0.500000 0.318270 0.809274
O O10 0.784525 0.250000 0.820271
O O11 0.750000 0.318468 0.750000
O O12 0.283799 0.117951 0.114698
O O13 0.000000 0.052512 0.109805
O O14 0.284048 0.996051 0.086112
O O15 0.500000 0.818194 0.590692
O O16 0.781772 0.750000 0.603414
O O17 0.500000 0.044223 0.543380
O O18 0.768822 0.000000 0.500000
#
# Coordination Sequence:
#
# PCOD9534324 Si02
#       6
#    16  16  16  16  16  16
#     4   8  12  19  33  56  89 125 157 190 227 265
#     4  10  20  34  51  70  94 122 156 196 238 282
#     4   8  14  26  45  66  85 109 144 184 223 264
#     4  10  18  28  46  71  97 124 156 194 238 283
#     4   8  13  22  39  65  93 120 155 197 234 270
#     4   9  14  22  37  61  91 121 151 186 226 269
#
# _framework density 20.388994
#
# number of rings (size 3 to 8) (size 9 to 14) (size 15 to 20)
#    0.000    3.167    1.667    1.500    0.000    0.667 
#    0.000    0.833    0.000    2.500    0.000    0.000 
#    0.000    0.000    0.000    0.000    0.000    0.000 
#
# Total GULP energy -267476.747548 kJ/mol
# GULP energy per Si atom -5572.432241 kJ/mol
# Density = 2.034259 g / cm^3
# Si number density = 20.388994 Si / 1000 Ang^3
#
#
#
# Elastic Constant Matrix: (Units=GPa)
#
#
# Indices 1 2 3 4 5 6 
#
# 1 61.5355 10.3174 -5.0039 0.0000 0.0000 0.0000
# 2 10.3174 249.2498 66.4947 0.0000 0.0000 0.0000
# 3 -5.0039 66.4947 47.7892 0.0000 0.0000 0.0000
# 4 0.0000 0.0000 0.0000 29.1292 0.0000 0.0000
# 5 0.0000 0.0000 0.0000 0.0000 -33.7487 0.0000
# 6 0.0000 0.0000 0.0000 0.0000 0.0000 -18.3318
#
#
#
# Elastic Compliance Matrix: (Units=1/GPa)
#
#
# Indices 1 2 3 4 5 6 
#
# 1 0.016919 -0.001865 0.004367 0.000000 0.000000 0.000000
# 2 -0.001865 0.006586 -0.009359 0.000000 0.000000 0.000000
# 3 0.004367 -0.009359 0.034405 0.000000 0.000000 0.000000
# 4 0.000000 0.000000 0.000000 0.034330 0.000000 0.000000
# 5 0.000000 0.000000 0.000000 0.000000 -0.029631 0.000000
# 6 0.000000 0.000000 0.000000 0.000000 0.000000 -0.054550
#
#
# Mechanical properties :
#
#
# Convention : Reuss Voigt Hill
#
# Bulk Modulus (GPa) = 22.62719 55.79898 39.21309
# Shear Modulus (GPa) = 136.96309 14.52750 75.74529
#
# Velocity S-wave (km/s) = 8.20493 2.67220 6.10170
# Velocity P-wave (km/s) = 10.04405 6.07844 8.30152
#
# Compressibility (1/GPa) = 0.04419461
#
# Stress axis : x y z
#
# Youngs Moduli (GPa) = 59.10640 151.83385 29.06527
#
# Poissons Ratio (x) = 0.28322 -0.12693
# Poissons Ratio (y) = 0.11025 0.27203
# Poissons Ratio (z) = -0.25812 1.42107
#
# Static dielectric constant tensor:
#      x y z
#    x 2.361190 0.000000 0.000000 
#    y 0.000000 1.790970 0.000000 
#    z 0.000000 0.000000 1.670850 
# 
# From -- ./inp_files/64281.got.cif
#   From: 2010.05.17/outbox.cif.g08.bks.cpg/sg74_33_cif.got.tgz:64281.got - 2010.06.03 17:57:02.
