data_PCOD9534298
_publ_section_title
;
Structure prediction by ZEFSAII (Michael W. Deem and Ramdas Pophale) SiO2 
 PCOD9534298
Probable space group: I M M A
;
_chemical_formula_sum "Si O2"
_cell_formula_units_Z 80
_cell_length_a 19.359054
_cell_length_b 9.035449
_cell_length_c 23.212189
_cell_angle_alpha 90.000000
_cell_angle_beta 90.000000
_cell_angle_gamma 90.000000
_cell_volume 4060.223759
_symmetry_space_group_name_H-M "I M M A"
_symmetry_group_IT_number 74
_symmetry_cell_setting 'orthorhombic'
loop_
_space_group_symop_operation_xyz
x,y,z
-x,1/2-y,z
x,-y,-z
-x,1/2+y,-z
-x,-y,-z
x,1/2+y,-z
-x,y,z
x,1/2-y,z
1/2+x,1/2+y,1/2+z
1/2-x,-y,1/2+z
1/2+x,1/2-y,1/2-z
1/2-x,y,1/2-z
1/2-x,1/2-y,1/2-z
1/2+x,y,1/2-z
1/2-x,1/2+y,1/2+z
1/2+x,-y,1/2+z
loop_
_atom_site_type_symbol
_atom_site_label
_atom_site_fract_x
_atom_site_fract_y
_atom_site_fract_z
Si Si1 0.348242 0.922083 0.126585
Si Si2 0.000000 0.425676 0.240806
Si Si3 0.500000 0.428158 0.865683
Si Si4 0.076414 0.071655 0.062903
Si Si5 0.858678 0.575993 0.234655
Si Si6 0.288576 0.426277 0.365436
O O1 0.333775 0.750000 0.114562
O O2 0.425999 0.956257 0.104665
O O3 0.352495 0.939618 0.196341
O O4 0.283533 0.019462 0.107712
O O5 0.000000 0.472672 0.308249
O O6 0.069871 0.496930 0.217313
O O7 0.000000 0.250000 0.233103
O O8 0.500000 0.250000 0.849952
O O9 0.078635 0.250000 0.058374
O O10 0.144100 0.026530 0.098251
O O11 0.000000 0.033489 0.087370
O O12 0.080001 0.000000 0.000000
O O13 0.860591 0.750000 0.222253
O O14 0.799789 0.500670 0.196802
O O15 0.288307 0.250000 0.359702
#
# Coordination Sequence:
#
# PCOD9534298 Si02
#       6
#    16   8   8  16  16  16
#     4   9  18  33  50  70 101 139 176 212 247 297
#     4  10  18  28  44  66  93 128 169 214 256 292
#     4   8  16  32  50  66  93 134 173 204 241 292
#     4   9  20  39  58  76 101 132 168 214 264 313
#     4  10  20  33  47  67  99 140 180 213 247 300
#     4  11  22  32  49  77 104 130 166 214 265 310
#
# _framework density 19.703347999999998
#
# number of rings (size 3 to 8) (size 9 to 14) (size 15 to 20)
#    0.000    2.400    0.000    3.900    1.400    8.000 
#    0.000    0.000    0.000    0.000    0.000    0.700 
#    0.000    0.000    0.000    0.000    0.000    0.000 
#
# Total GULP energy -223082.610643 kJ/mol
# GULP energy per Si atom -5577.065266 kJ/mol
# Density = 1.965850 g / cm^3
# Si number density = 19.703348 Si / 1000 Ang^3
#
#
#
# Elastic Constant Matrix: (Units=GPa)
#
#
# Indices 1 2 3 4 5 6 
#
# 1 174.9259 60.2156 18.7940 0.0000 0.0000 0.0000
# 2 60.2156 52.6418 10.8735 0.0000 0.0000 0.0000
# 3 18.7940 10.8735 18.9100 0.0000 0.0000 0.0000
# 4 0.0000 0.0000 0.0000 14.4591 0.0000 0.0000
# 5 0.0000 0.0000 0.0000 0.0000 16.9191 0.0000
# 6 0.0000 0.0000 0.0000 0.0000 0.0000 35.5376
#
#
#
# Elastic Compliance Matrix: (Units=1/GPa)
#
#
# Indices 1 2 3 4 5 6 
#
# 1 0.009650 -0.010279 -0.003681 0.000000 0.000000 0.000000
# 2 -0.010279 0.032504 -0.008475 0.000000 0.000000 0.000000
# 3 -0.003681 -0.008475 0.061413 0.000000 0.000000 0.000000
# 4 0.000000 0.000000 0.000000 0.069161 0.000000 0.000000
# 5 0.000000 0.000000 0.000000 0.000000 0.059105 0.000000
# 6 0.000000 0.000000 0.000000 0.000000 0.000000 0.028139
#
#
# Mechanical properties :
#
#
# Convention : Reuss Voigt Hill
#
# Bulk Modulus (GPa) = 17.03591 47.36045 32.19818
# Shear Modulus (GPa) = 15.41269 23.82280 19.61774
#
# Velocity S-wave (km/s) = 2.79988 3.48095 3.15882
# Velocity P-wave (km/s) = 4.37235 6.34389 5.44804
#
# Compressibility (1/GPa) = 0.05869952
#
# Stress axis : x y z
#
# Youngs Moduli (GPa) = 103.62232 30.76520 16.28308
#
# Poissons Ratio (x) = 0.31622 0.05994
# Poissons Ratio (y) = 1.06509 0.13800
# Poissons Ratio (z) = 0.38143 0.26073
#
# Static dielectric constant tensor:
#      x y z
#    x 1.805190 0.000000 0.000000 
#    y 0.000000 1.652490 0.000000 
#    z 0.000000 0.000000 1.683720 
# 
# From -- ./inp_files/67559.got.cif
#   From: 2010.05.17/outbox.cif.g08.bks.cpg/sg74_34_cif.got.tgz:67559.got - 2010.06.03 17:57:02.
