data_PCOD9534374
_publ_section_title
;
Structure prediction by ZEFSAII (Michael W. Deem and Ramdas Pophale) SiO2 
 PCOD9534374
Probable space group: I M M A
;
_chemical_formula_sum "Si O2"
_cell_formula_units_Z 72
_cell_length_a 10.442526
_cell_length_b 21.497275
_cell_length_c 20.808539
_cell_angle_alpha 90.000000
_cell_angle_beta 90.000000
_cell_angle_gamma 90.000000
_cell_volume 4671.222630
_symmetry_space_group_name_H-M "I M M A"
_symmetry_group_IT_number 74
_symmetry_cell_setting 'orthorhombic'
loop_
_space_group_symop_operation_xyz
x,y,z
-x,1/2-y,z
x,-y,-z
-x,1/2+y,-z
-x,-y,-z
x,1/2+y,-z
-x,y,z
x,1/2-y,z
1/2+x,1/2+y,1/2+z
1/2-x,-y,1/2+z
1/2+x,1/2-y,1/2-z
1/2-x,y,1/2-z
1/2-x,1/2-y,1/2-z
1/2+x,y,1/2-z
1/2-x,1/2+y,1/2+z
1/2+x,-y,1/2+z
loop_
_atom_site_type_symbol
_atom_site_label
_atom_site_fract_x
_atom_site_fract_y
_atom_site_fract_z
Si Si1 0.500000 0.464339 0.901225
Si Si2 0.157526 0.250000 0.187733
Si Si3 0.752094 0.499708 0.326670
Si Si4 0.500000 0.034486 0.604287
Si Si5 0.500000 0.602150 0.965826
Si Si6 0.258082 0.633550 0.601475
Si Si7 0.000000 0.095884 0.025560
O O1 0.625385 0.465671 0.856727
O O2 0.500000 0.532217 0.935874
O O3 0.500000 0.412471 0.957660
O O4 0.250000 0.250000 0.250000
O O5 0.201049 0.310213 0.147211
O O6 0.000000 0.250000 0.198437
O O7 0.750000 0.497008 0.250000
O O8 0.625545 0.533024 0.352784
O O9 0.749663 0.429563 0.355789
O O10 0.500000 0.086788 0.550232
O O11 0.500000 0.970607 0.562564
O O12 0.374956 0.636241 0.937516
O O13 0.371760 0.627623 0.550169
#
# Coordination Sequence:
#
# PCOD9534374 Si02
#       7
#     8   8  16   8   8  16   8
#     4   9  17  30  46  70  97 124 162 199 241 295
#     4  12  26  40  52  70  98 134 175 216 248 278
#     4  10  18  29  44  69  99 132 161 193 238 293
#     4   9  17  26  46  66  89 120 158 197 239 295
#     4   9  18  31  51  70  90 124 165 208 247 289
#     4  10  20  34  50  67  93 129 171 210 243 276
#     4   9  16  31  47  66  86 118 163 204 245 285
#
# _framework density 15.413524000000001
#
# number of rings (size 3 to 8) (size 9 to 14) (size 15 to 20)
#    0.000    2.222    1.111    2.667    1.556    5.333 
#    4.000    0.000    0.000    0.000    0.000    0.000 
#    0.000    0.000    0.000   70.000    0.000    0.000 
#
# Total GULP energy -200528.056173 kJ/mol
# GULP energy per Si atom -5570.223783 kJ/mol
# Density = 1.537844 g / cm^3
# Si number density = 15.413524 Si / 1000 Ang^3
#
#
#
# Elastic Constant Matrix: (Units=GPa)
#
#
# Indices 1 2 3 4 5 6 
#
# 1 192.5808 44.3363 91.3021 0.0000 0.0000 0.0000
# 2 44.3363 42.2874 42.8175 0.0000 0.0000 0.0000
# 3 91.3021 42.8175 139.9631 0.0000 0.0000 0.0000
# 4 0.0000 0.0000 0.0000 24.5904 0.0000 0.0000
# 5 0.0000 0.0000 0.0000 0.0000 23.8189 0.0000
# 6 0.0000 0.0000 0.0000 0.0000 0.0000 43.7135
#
#
#
# Elastic Compliance Matrix: (Units=1/GPa)
#
#
# Indices 1 2 3 4 5 6 
#
# 1 0.008077 -0.004540 -0.003880 0.000000 0.000000 0.000000
# 2 -0.004540 0.036811 -0.008300 0.000000 0.000000 0.000000
# 3 -0.003880 -0.008300 0.012215 0.000000 0.000000 0.000000
# 4 0.000000 0.000000 0.000000 0.040666 0.000000 0.000000
# 5 0.000000 0.000000 0.000000 0.000000 0.041983 0.000000
# 6 0.000000 0.000000 0.000000 0.000000 0.000000 0.022876
#
#
# Mechanical properties :
#
#
# Convention : Reuss Voigt Hill
#
# Bulk Modulus (GPa) = 42.25847 81.30477 61.78162
# Shear Modulus (GPa) = 24.51485 31.51625 28.01555
#
# Velocity S-wave (km/s) = 3.99240 4.52676 4.26795
# Velocity P-wave (km/s) = 6.98057 8.95464 8.02851
#
# Compressibility (1/GPa) = 0.02366390
#
# Stress axis : x y z
#
# Youngs Moduli (GPa) = 123.80135 27.16544 81.86583
#
# Poissons Ratio (x) = 0.12333 0.31767
# Poissons Ratio (y) = 0.56204 0.67948
# Poissons Ratio (z) = 0.48039 0.22547
#
# Static dielectric constant tensor:
#      x y z
#    x 1.525350 0.000000 0.000000 
#    y 0.000000 1.500740 0.000000 
#    z 0.000000 0.000000 1.506110 
# 
# From -- ./inp_files/41022.got.cif
#   From: 2010.05.17/outbox.cif.g08.bks.cpg/sg74_21_cif.got.tgz:41022.got - 2010.06.03 17:57:02.
