data_PCOD9534452
_publ_section_title
;
Structure prediction by ZEFSAII (Michael W. Deem and Ramdas Pophale) SiO2 
 PCOD9534452
Probable space group: I M M A
;
_chemical_formula_sum "Si O2"
_cell_formula_units_Z 64
_cell_length_a 13.943330
_cell_length_b 19.580714
_cell_length_c 9.444916
_cell_angle_alpha 90.000000
_cell_angle_beta 90.000000
_cell_angle_gamma 90.000000
_cell_volume 2578.654338
_symmetry_space_group_name_H-M "I M M A"
_symmetry_group_IT_number 74
_symmetry_cell_setting 'orthorhombic'
loop_
_space_group_symop_operation_xyz
x,y,z
-x,1/2-y,z
x,-y,-z
-x,1/2+y,-z
-x,-y,-z
x,1/2+y,-z
-x,y,z
x,1/2-y,z
1/2+x,1/2+y,1/2+z
1/2-x,-y,1/2+z
1/2+x,1/2-y,1/2-z
1/2-x,y,1/2-z
1/2-x,1/2-y,1/2-z
1/2+x,y,1/2-z
1/2-x,1/2+y,1/2+z
1/2+x,-y,1/2+z
loop_
_atom_site_type_symbol
_atom_site_label
_atom_site_fract_x
_atom_site_fract_y
_atom_site_fract_z
Si Si1 0.362112 0.022695 0.225707
Si Si2 0.396526 0.603169 0.497862
Si Si3 0.629057 0.250000 0.364913
Si Si4 0.149246 0.750000 0.543460
Si Si5 0.165494 0.103518 0.553562
O O1 0.250000 0.029204 0.250000
O O2 0.401703 0.049507 0.372248
O O3 0.376776 0.072474 0.092548
O O4 0.377176 0.945738 0.173047
O O5 0.500000 0.596146 0.420051
O O6 0.400391 0.679076 0.564347
O O7 0.283984 0.597416 0.443259
O O8 0.741897 0.250000 0.400306
O O9 0.601690 0.250000 0.198924
O O10 0.136554 0.817695 0.450330
#
# Coordination Sequence:
#
# PCOD9534452 Si02
#       5
#    16  16   8   8  16
#     4   9  17  31  47  66  95 132 165 199 229 288
#     4  10  18  29  49  77 104 126 153 204 259 288
#     4   9  15  26  46  76 103 122 154 198 251 302
#     4   9  14  26  49  68  89 130 170 194 234 287
#     4   9  17  30  48  68  94 130 166 201 233 290
#
# _framework density 24.819147000000001
#
# number of rings (size 3 to 8) (size 9 to 14) (size 15 to 20)
#    0.000    2.750    2.500    0.375    0.000    0.000 
#    0.000   13.125    0.000    0.000    0.000    0.000 
#    0.000    0.000    0.000    0.000    0.000    0.000 
#
# Total GULP energy -178414.849496 kJ/mol
# GULP energy per Si atom -5575.464047 kJ/mol
# Density = 2.476266 g / cm^3
# Si number density = 24.819147 Si / 1000 Ang^3
#
#
#
# Elastic Constant Matrix: (Units=GPa)
#
#
# Indices 1 2 3 4 5 6 
#
# 1 129.9132 28.0498 13.6848 0.0000 0.0000 0.0000
# 2 28.0498 213.7232 54.1611 0.0000 0.0000 0.0000
# 3 13.6848 54.1611 54.4369 0.0000 0.0000 0.0000
# 4 0.0000 0.0000 0.0000 24.6128 0.0000 0.0000
# 5 0.0000 0.0000 0.0000 0.0000 1.4171 0.0000
# 6 0.0000 0.0000 0.0000 0.0000 0.0000 -159.2495
#
#
#
# Elastic Compliance Matrix: (Units=1/GPa)
#
#
# Indices 1 2 3 4 5 6 
#
# 1 0.007989 -0.000721 -0.001291 0.000000 0.000000 0.000000
# 2 -0.000721 0.006322 -0.006108 0.000000 0.000000 0.000000
# 3 -0.001291 -0.006108 0.024772 0.000000 0.000000 0.000000
# 4 0.000000 0.000000 0.000000 0.040629 0.000000 0.000000
# 5 0.000000 0.000000 0.000000 0.000000 0.705680 0.000000
# 6 0.000000 0.000000 0.000000 0.000000 0.000000 -0.006279
#
#
# Mechanical properties :
#
#
# Convention : Reuss Voigt Hill
#
# Bulk Modulus (GPa) = 43.77927 65.54054 54.65990
# Shear Modulus (GPa) = 6.22691 -6.49876 -0.13592
#
# Velocity S-wave (km/s) = 1.58567 -1.61992 -0.23427
# Velocity P-wave (km/s) = 4.58586 4.79226 4.69019
#
# Compressibility (1/GPa) = 0.02284186
#
# Stress axis : x y z
#
# Youngs Moduli (GPa) = 125.16945 158.18915 40.36894
#
# Poissons Ratio (x) = 0.11413 0.05210
# Poissons Ratio (y) = 0.09031 0.24658
# Poissons Ratio (z) = 0.16154 0.96624
#
# Static dielectric constant tensor:
#      x y z
#    x 2.018700 0.000000 0.000000 
#    y 0.000000 1.948100 0.000000 
#    z 0.000000 0.000000 2.001430 
# 
# From -- ./inp_files/21969.got.cif
#   From: 2010.05.17/outbox.cif.g08.bks.cpg/sg74_11_cif.got.tgz:21969.got - 2010.06.03 17:57:02.
