data_PCOD9534338
_publ_section_title
;
Structure prediction by ZEFSAII (Michael W. Deem and Ramdas Pophale) SiO2 
 PCOD9534338
Probable space group: I M M A
;
_chemical_formula_sum "Si O2"
_cell_formula_units_Z 64
_cell_length_a 21.302868
_cell_length_b 7.490753
_cell_length_c 17.991332
_cell_angle_alpha 90.000000
_cell_angle_beta 90.000000
_cell_angle_gamma 90.000000
_cell_volume 2870.958211
_symmetry_space_group_name_H-M "I M M A"
_symmetry_group_IT_number 74
_symmetry_cell_setting 'orthorhombic'
loop_
_space_group_symop_operation_xyz
x,y,z
-x,1/2-y,z
x,-y,-z
-x,1/2+y,-z
-x,-y,-z
x,1/2+y,-z
-x,y,z
x,1/2-y,z
1/2+x,1/2+y,1/2+z
1/2-x,-y,1/2+z
1/2+x,1/2-y,1/2-z
1/2-x,y,1/2-z
1/2-x,1/2-y,1/2-z
1/2+x,y,1/2-z
1/2-x,1/2+y,1/2+z
1/2+x,-y,1/2+z
loop_
_atom_site_type_symbol
_atom_site_label
_atom_site_fract_x
_atom_site_fract_y
_atom_site_fract_z
Si Si1 0.500000 0.451616 0.605161
Si Si2 0.729356 0.536522 0.081073
Si Si3 0.634799 0.969163 0.378145
Si Si4 0.500000 0.041289 0.223963
Si Si5 0.863744 0.537694 0.293287
O O1 0.500000 0.250000 0.575215
O O2 0.431782 0.533598 0.588936
O O3 0.500000 0.444125 0.695929
O O4 0.732876 0.750000 0.090214
O O5 0.801065 0.470100 0.084135
O O6 0.686786 0.466323 0.148436
O O7 0.701984 0.500000 0.000000
O O8 0.631667 0.750000 0.379374
O O9 0.640685 0.026646 0.291722
O O10 0.500000 0.250000 0.240963
O O11 0.435529 0.995567 0.183055
O O12 0.854035 0.750000 0.288979
#
# Coordination Sequence:
#
# PCOD9534338 Si02
#       5
#     8  16  16   8  16
#     4   8  14  28  51  74  96 124 161 198 230 274
#     4  10  20  33  49  70  98 129 162 200 239 280
#     4   8  14  28  52  76  93 119 163 204 231 268
#     4  10  18  28  47  76 103 120 145 196 253 292
#     4   9  17  32  53  72  92 125 166 199 230 279
#
# _framework density 22.292209
#
# number of rings (size 3 to 8) (size 9 to 14) (size 15 to 20)
#    0.000    3.000    0.000    3.375    0.000    4.000 
#    0.000    6.250    0.000    7.500    0.000    0.000 
#    0.000    0.000    0.000    0.000    0.000    0.000 
#
# Total GULP energy -178529.304639 kJ/mol
# GULP energy per Si atom -5579.040770 kJ/mol
# Density = 2.224147 g / cm^3
# Si number density = 22.292209 Si / 1000 Ang^3
#
#
#
# Elastic Constant Matrix: (Units=GPa)
#
#
# Indices 1 2 3 4 5 6 
#
# 1 123.5782 -13.5940 55.1330 0.0000 0.0000 0.0000
# 2 -13.5940 65.1196 0.3350 0.0000 0.0000 0.0000
# 3 55.1330 0.3350 91.1528 0.0000 0.0000 0.0000
# 4 0.0000 0.0000 0.0000 5.7595 0.0000 0.0000
# 5 0.0000 0.0000 0.0000 0.0000 -47.1905 0.0000
# 6 0.0000 0.0000 0.0000 0.0000 0.0000 112.4878
#
#
#
# Elastic Compliance Matrix: (Units=1/GPa)
#
#
# Indices 1 2 3 4 5 6 
#
# 1 0.011454 0.002427 -0.006937 0.000000 0.000000 0.000000
# 2 0.002427 0.015871 -0.001526 0.000000 0.000000 0.000000
# 3 -0.006937 -0.001526 0.015172 0.000000 0.000000 0.000000
# 4 0.000000 0.000000 0.000000 0.173626 0.000000 0.000000
# 5 0.000000 0.000000 0.000000 0.000000 -0.021191 0.000000
# 6 0.000000 0.000000 0.000000 0.000000 0.000000 0.008890
#
#
# Mechanical properties :
#
#
# Convention : Reuss Voigt Hill
#
# Bulk Modulus (GPa) = 32.86854 40.39985 36.63419
# Shear Modulus (GPa) = 22.12050 30.07646 26.09848
#
# Velocity S-wave (km/s) = 3.15349 3.67712 3.42533
# Velocity P-wave (km/s) = 5.29488 6.01585 5.66684
#
# Compressibility (1/GPa) = 0.03042423
#
# Stress axis : x y z
#
# Youngs Moduli (GPa) = 87.30841 63.00883 65.91208
#
# Poissons Ratio (x) = -0.15290 0.45720
# Poissons Ratio (y) = -0.21187 0.10059
# Poissons Ratio (z) = 0.60562 0.09616
#
# Static dielectric constant tensor:
#      x y z
#    x 1.860810 0.000000 0.000000 
#    y 0.000000 1.861160 0.000000 
#    z 0.000000 0.000000 1.775820 
# 
# From -- ./inp_files/35974.got.cif
#   From: 2010.05.17/outbox.cif.g08.bks.cpg/sg74_18_cif.got.tgz:35974.got - 2010.06.03 17:57:02.
