data_PCOD9534786
_publ_section_title
;
Structure prediction by ZEFSAII (Michael W. Deem and Ramdas Pophale) SiO2 
 PCOD9534786
Probable space group: I M M A
;
_chemical_formula_sum "Si O2"
_cell_formula_units_Z 56
_cell_length_a 26.125821
_cell_length_b 13.764158
_cell_length_c 8.299267
_cell_angle_alpha 90.000000
_cell_angle_beta 90.000000
_cell_angle_gamma 90.000000
_cell_volume 2984.415817
_symmetry_space_group_name_H-M "I M M A"
_symmetry_group_IT_number 74
_symmetry_cell_setting 'orthorhombic'
loop_
_space_group_symop_operation_xyz
x,y,z
-x,1/2-y,z
x,-y,-z
-x,1/2+y,-z
-x,-y,-z
x,1/2+y,-z
-x,y,z
x,1/2-y,z
1/2+x,1/2+y,1/2+z
1/2-x,-y,1/2+z
1/2+x,1/2-y,1/2-z
1/2-x,y,1/2-z
1/2-x,1/2-y,1/2-z
1/2+x,y,1/2-z
1/2-x,1/2+y,1/2+z
1/2+x,-y,1/2+z
loop_
_atom_site_type_symbol
_atom_site_label
_atom_site_fract_x
_atom_site_fract_y
_atom_site_fract_z
Si Si1 0.057365 0.940396 0.163685
Si Si2 0.309983 0.250000 0.281845
Si Si3 0.898254 0.250000 0.997052
Si Si4 0.871925 0.422497 0.380878
Si Si5 0.939691 0.750000 0.627294
O O1 0.083953 0.841758 0.105737
O O2 0.000000 0.924989 0.232805
O O3 0.094202 0.008012 0.268315
O O4 0.050942 0.000000 0.000000
O O5 0.250000 0.250000 0.250000
O O6 0.337940 0.250000 0.456740
O O7 0.332338 0.151010 0.201981
O O8 0.925330 0.250000 0.177806
O O9 0.846797 0.500000 0.500000
O O10 0.913493 0.345146 0.449252
O O11 0.000000 0.750000 0.612405
#
# Coordination Sequence:
#
# PCOD9534786 Si02
#       5
#    16   8   8  16   8
#     4  11  19  32  58  88 119 154 189 227 280 347
#     4  10  22  43  62  78 108 154 196 243 300 339
#     4  10  20  34  55  86 117 145 197 242 273 336
#     4  10  22  38  56  84 119 149 189 237 284 347
#     4  10  18  31  53  77 116 159 182 212 274 339
#
# _framework density 18.764140999999999
#
# number of rings (size 3 to 8) (size 9 to 14) (size 15 to 20)
#    0.000    2.000    5.714    2.143    0.000    4.571 
#    5.143    0.000    0.000    1.714    0.000    0.000 
#    0.000    0.000    0.000    0.000    0.000    0.000 
#
# Total GULP energy -155879.885462 kJ/mol
# GULP energy per Si atom -5567.138766 kJ/mol
# Density = 1.872143 g / cm^3
# Si number density = 18.764141 Si / 1000 Ang^3
#
#
#
# Elastic Constant Matrix: (Units=GPa)
#
#
# Indices 1 2 3 4 5 6 
#
# 1 158.6523 67.2960 19.0228 0.0000 0.0000 0.0000
# 2 67.2960 192.1066 41.3231 0.0000 0.0000 0.0000
# 3 19.0228 41.3231 23.5712 0.0000 0.0000 0.0000
# 4 0.0000 0.0000 0.0000 35.5037 0.0000 0.0000
# 5 0.0000 0.0000 0.0000 0.0000 19.3850 0.0000
# 6 0.0000 0.0000 0.0000 0.0000 0.0000 17.1651
#
#
#
# Elastic Compliance Matrix: (Units=1/GPa)
#
#
# Indices 1 2 3 4 5 6 
#
# 1 0.007481 -0.002122 -0.002317 0.000000 0.000000 0.000000
# 2 -0.002122 0.008959 -0.013993 0.000000 0.000000 0.000000
# 3 -0.002317 -0.013993 0.068826 0.000000 0.000000 0.000000
# 4 0.000000 0.000000 0.000000 0.028166 0.000000 0.000000
# 5 0.000000 0.000000 0.000000 0.000000 0.051586 0.000000
# 6 0.000000 0.000000 0.000000 0.000000 0.000000 0.058258
#
#
# Mechanical properties :
#
#
# Convention : Reuss Voigt Hill
#
# Bulk Modulus (GPa) = 20.66057 69.95712 45.30884
# Shear Modulus (GPa) = 18.09791 30.85664 24.47727
#
# Velocity S-wave (km/s) = 3.10900 4.05958 3.61566
# Velocity P-wave (km/s) = 4.89105 7.70304 6.45210
#
# Compressibility (1/GPa) = 0.04840138
#
# Stress axis : x y z
#
# Youngs Moduli (GPa) = 133.66992 111.62054 14.52935
#
# Poissons Ratio (x) = 0.23689 0.03366
# Poissons Ratio (y) = 0.28369 0.20331
# Poissons Ratio (z) = 0.30969 1.56194
#
# Static dielectric constant tensor:
#      x y z
#    x 1.660430 0.000000 0.000000 
#    y 0.000000 1.699020 0.000000 
#    z 0.000000 0.000000 1.712390 
# 
# From -- ./inp_files/7153.got.cif
#   From: 2010.05.17/outbox.cif.g08.bks.cpg/sg74_4_cif.got.tgz:7153.got - 2010.06.03 17:57:02.
