data_PCOD9534432
_publ_section_title
;
Structure prediction by ZEFSAII (Michael W. Deem and Ramdas Pophale) SiO2 
 PCOD9534432
Probable space group: I M M A
;
_chemical_formula_sum "Si O2"
_cell_formula_units_Z 64
_cell_length_a 14.290051
_cell_length_b 25.699616
_cell_length_c 7.592597
_cell_angle_alpha 90.000000
_cell_angle_beta 90.000000
_cell_angle_gamma 90.000000
_cell_volume 2788.372314
_symmetry_space_group_name_H-M "I M M A"
_symmetry_group_IT_number 74
_symmetry_cell_setting 'orthorhombic'
loop_
_space_group_symop_operation_xyz
x,y,z
-x,1/2-y,z
x,-y,-z
-x,1/2+y,-z
-x,-y,-z
x,1/2+y,-z
-x,y,z
x,1/2-y,z
1/2+x,1/2+y,1/2+z
1/2-x,-y,1/2+z
1/2+x,1/2-y,1/2-z
1/2-x,y,1/2-z
1/2-x,1/2-y,1/2-z
1/2+x,y,1/2-z
1/2-x,1/2+y,1/2+z
1/2+x,-y,1/2+z
loop_
_atom_site_type_symbol
_atom_site_label
_atom_site_fract_x
_atom_site_fract_y
_atom_site_fract_z
Si Si1 0.892084 0.865960 0.299910
Si Si2 0.614708 0.559376 0.505990
Si Si3 0.385168 0.861664 0.802191
Si Si4 0.109117 0.750000 0.721669
Si Si5 0.142154 0.750000 0.298723
O O1 0.852658 0.905948 0.158889
O O2 0.851156 0.866402 0.496795
O O3 0.892422 0.806153 0.233140
O O4 0.000000 0.881417 0.322427
O O5 0.646945 0.500000 0.500000
O O6 0.500000 0.558782 0.503380
O O7 0.641379 0.590282 0.681752
O O8 0.500000 0.859144 0.806731
O O9 0.353450 0.806073 0.721670
O O10 0.118158 0.750000 0.507758
O O11 0.000000 0.750000 0.768905
O O12 0.250000 0.750000 0.250000
#
# Coordination Sequence:
#
# PCOD9534432 Si02
#       5
#    16  16  16   8   8
#     4   9  17  30  48  69  95 127 156 189 238 289
#     4   9  17  27  42  70  98 120 156 199 234 274
#     4   8  14  25  42  65  95 125 152 188 229 274
#     4   8  14  27  46  67  93 127 161 190 233 293
#     4  10  18  29  48  74  95 123 152 199 241 284
#
# _framework density 22.952459999999999
#
# number of rings (size 3 to 8) (size 9 to 14) (size 15 to 20)
#    0.000    3.250    0.000    2.625    0.000    2.000 
#    0.000    8.750    0.000   12.000   13.000    0.000 
#    0.000    0.000    0.000    0.000    0.000    0.000 
#
# Total GULP energy -178563.684398 kJ/mol
# GULP energy per Si atom -5580.115137 kJ/mol
# Density = 2.290022 g / cm^3
# Si number density = 22.952460 Si / 1000 Ang^3
#
#
#
# Elastic Constant Matrix: (Units=GPa)
#
#
# Indices 1 2 3 4 5 6 
#
# 1 68.1760 -6.4792 1.5394 -0.0040 0.0005 -0.0018
# 2 -6.4792 248.0376 103.7897 0.0040 0.0003 0.0019
# 3 1.5394 103.7897 105.8446 -0.0163 0.0017 -0.0001
# 4 -0.0040 0.0040 -0.0163 41.1163 0.0005 -0.0028
# 5 0.0005 0.0003 0.0017 0.0005 1.7936 0.0000
# 6 -0.0018 0.0019 -0.0001 -0.0028 0.0000 -42.5769
#
#
#
# Elastic Compliance Matrix: (Units=1/GPa)
#
#
# Indices 1 2 3 4 5 6 
#
# 1 0.014767 0.000807 -0.001006 0.000001 -0.000003 -0.000001
# 2 0.000807 0.006881 -0.006759 -0.000003 0.000005 0.000000
# 3 -0.001006 -0.006759 0.016090 0.000007 -0.000014 0.000000
# 4 0.000001 -0.000003 0.000007 0.024321 -0.000007 -0.000002
# 5 -0.000003 0.000005 -0.000014 -0.000007 0.557549 0.000000
# 6 -0.000001 0.000000 0.000000 -0.000002 0.000000 -0.023487
#
#
# Mechanical properties :
#
#
# Convention : Reuss Voigt Hill
#
# Bulk Modulus (GPa) = 41.97778 68.86199 55.41988
# Shear Modulus (GPa) = 8.09089 21.61382 14.85235
#
# Velocity S-wave (km/s) = 1.87955 3.07201 2.54656
# Velocity P-wave (km/s) = 4.79990 6.53070 5.73102
#
# Compressibility (1/GPa) = 0.02382213
#
# Stress axis : x y z
#
# Youngs Moduli (GPa) = 67.71730 145.32654 62.14883
#
# Poissons Ratio (x) = -0.11722 0.06250
# Poissons Ratio (y) = -0.05462 0.42008
# Poissons Ratio (z) = 0.06810 0.98229
#
# Static dielectric constant tensor:
#      x y z
#    x 1.916930 0.000000 0.000000 
#    y 0.000000 1.836050 0.000000 
#    z 0.000000 0.000000 1.851940 
# 
# From -- ./inp_files/8838.got.cif
#   From: 2010.05.17/outbox.cif.g08.bks.cpg/sg74_5_cif.got.tgz:8838.got - 2010.06.03 17:57:02.
