data_PCOD9534810
_publ_section_title
;
Structure prediction by ZEFSAII (Michael W. Deem and Ramdas Pophale) SiO2 
 PCOD9534810
Probable space group: I M M A
;
_chemical_formula_sum "Si O2"
_cell_formula_units_Z 120
_cell_length_a 21.907435
_cell_length_b 24.588047
_cell_length_c 11.591923
_cell_angle_alpha 90.000000
_cell_angle_beta 90.000000
_cell_angle_gamma 90.000000
_cell_volume 6244.117315
_symmetry_space_group_name_H-M "I M M A"
_symmetry_group_IT_number 74
_symmetry_cell_setting 'orthorhombic'
loop_
_space_group_symop_operation_xyz
x,y,z
-x,1/2-y,z
x,-y,-z
-x,1/2+y,-z
-x,-y,-z
x,1/2+y,-z
-x,y,z
x,1/2-y,z
1/2+x,1/2+y,1/2+z
1/2-x,-y,1/2+z
1/2+x,1/2-y,1/2-z
1/2-x,y,1/2-z
1/2-x,1/2-y,1/2-z
1/2+x,y,1/2-z
1/2-x,1/2+y,1/2+z
1/2+x,-y,1/2+z
loop_
_atom_site_type_symbol
_atom_site_label
_atom_site_fract_x
_atom_site_fract_y
_atom_site_fract_z
Si Si1 0.638750 0.314810 0.582589
Si Si2 0.564793 0.308567 0.991422
Si Si3 0.667429 0.688298 0.817411
Si Si4 0.250000 0.036821 0.250000
Si Si5 0.429800 0.384908 0.775468
Si Si6 0.243660 0.385765 0.042892
Si Si7 0.567723 0.814005 0.648544
Si Si8 0.338104 0.461402 0.896121
O O1 0.654456 0.250000 0.602365
O O2 0.609139 0.346489 0.690093
O O3 0.694942 0.351412 0.532512
O O4 0.586721 0.315186 0.484259
O O5 0.500000 0.311823 0.056096
O O6 0.566794 0.250000 0.931212
O O7 0.566238 0.353282 0.895879
O O8 0.619431 0.310749 0.078266
O O9 0.683963 0.750000 0.785375
O O10 0.723212 0.656777 0.871863
O O11 0.626018 0.662552 0.716772
O O12 0.222469 0.070620 0.140520
O O13 0.298837 0.999102 0.187695
O O14 0.500000 0.394633 0.735449
O O15 0.390335 0.436420 0.815144
O O16 0.292902 0.416567 0.958424
O O17 0.500000 0.837101 0.667134
O O18 0.565572 0.750000 0.683568
O O19 0.361741 0.500000 0.000000
#
# Coordination Sequence:
#
# PCOD9534810 Si02
#       8
#    16  16  16   8  16  16  16  16
#     4  11  23  37  57  88 129 168 201 238 287 361
#     4   9  17  30  51  82 120 158 189 225 283 353
#     4  10  18  31  54  86 122 153 190 242 294 355
#     4  10  22  40  65  82 109 156 200 258 310 362
#     4  11  22  39  62  87 119 157 201 248 300 364
#     4  11  21  38  60  88 120 156 201 246 303 366
#     4   9  18  32  50  75 113 162 205 236 274 334
#     4  10  22  41  63  88 115 149 203 259 315 362
#
# _framework density 19.218088999999999
#
# number of rings (size 3 to 8) (size 9 to 14) (size 15 to 20)
#    0.000    1.867    1.333    3.200    0.000    3.200 
#    0.000    3.333    0.000    2.400    0.000    0.000 
#    0.000    0.000    0.000    0.000    0.000    0.000 
#
# Total GULP energy -334110.894228 kJ/mol
# GULP energy per Si atom -5568.514904 kJ/mol
# Density = 1.917435 g / cm^3
# Si number density = 19.218089 Si / 1000 Ang^3
#
#
#
# Elastic Constant Matrix: (Units=GPa)
#
#
# Indices 1 2 3 4 5 6 
#
# 1 99.7562 50.1110 36.3207 0.0000 0.0000 0.0000
# 2 50.1110 90.4696 31.7047 0.0000 0.0000 0.0000
# 3 36.3207 31.7047 73.2254 0.0000 0.0000 0.0000
# 4 0.0000 0.0000 0.0000 33.2958 0.0000 0.0000
# 5 0.0000 0.0000 0.0000 0.0000 12.7449 0.0000
# 6 0.0000 0.0000 0.0000 0.0000 0.0000 18.2278
#
#
#
# Elastic Compliance Matrix: (Units=1/GPa)
#
#
# Indices 1 2 3 4 5 6 
#
# 1 0.015075 -0.006755 -0.004553 0.000000 0.000000 0.000000
# 2 -0.006755 0.016057 -0.003602 0.000000 0.000000 0.000000
# 3 -0.004553 -0.003602 0.017474 0.000000 0.000000 0.000000
# 4 0.000000 0.000000 0.000000 0.030034 0.000000 0.000000
# 5 0.000000 0.000000 0.000000 0.000000 0.078463 0.000000
# 6 0.000000 0.000000 0.000000 0.000000 0.000000 0.054861
#
#
# Mechanical properties :
#
#
# Convention : Reuss Voigt Hill
#
# Bulk Modulus (GPa) = 53.22635 55.52490 54.37562
# Shear Modulus (GPa) = 20.15756 22.54135 21.34946
#
# Velocity S-wave (km/s) = 3.24216 3.42851 3.33664
# Velocity P-wave (km/s) = 6.46309 6.68039 6.57264
#
# Compressibility (1/GPa) = 0.01878769
#
# Stress axis : x y z
#
# Youngs Moduli (GPa) = 66.33420 62.27789 57.22686
#
# Poissons Ratio (x) = 0.42066 0.26055
# Poissons Ratio (y) = 0.44806 0.20613
# Poissons Ratio (z) = 0.30201 0.22432
#
# Static dielectric constant tensor:
#      x y z
#    x 2.007790 0.000000 0.000000 
#    y 0.000000 1.719440 0.000000 
#    z 0.000000 0.000000 1.673260 
# 
# From -- ./inp_files/24244.got.cif
#   From: 2010.05.17/outbox.cif.g08.bks.cpg/sg74_13_cif.got.tgz:24244.got - 2010.06.03 17:57:02.
