data_PCOD9534127
_publ_section_title
;
Structure prediction by ZEFSAII (Michael W. Deem and Ramdas Pophale) SiO2 
 PCOD9534127
Probable space group: I M M A
;
_chemical_formula_sum "Si O2"
_cell_formula_units_Z 84
_cell_length_a 22.661862
_cell_length_b 10.871262
_cell_length_c 18.511248
_cell_angle_alpha 90.000000
_cell_angle_beta 90.000000
_cell_angle_gamma 90.000000
_cell_volume 4560.487317
_symmetry_space_group_name_H-M "I M M A"
_symmetry_group_IT_number 74
_symmetry_cell_setting 'orthorhombic'
loop_
_space_group_symop_operation_xyz
x,y,z
-x,1/2-y,z
x,-y,-z
-x,1/2+y,-z
-x,-y,-z
x,1/2+y,-z
-x,y,z
x,1/2-y,z
1/2+x,1/2+y,1/2+z
1/2-x,-y,1/2+z
1/2+x,1/2-y,1/2-z
1/2-x,y,1/2-z
1/2-x,1/2-y,1/2-z
1/2+x,y,1/2-z
1/2-x,1/2+y,1/2+z
1/2+x,-y,1/2+z
loop_
_atom_site_type_symbol
_atom_site_label
_atom_site_fract_x
_atom_site_fract_y
_atom_site_fract_z
Si Si1 0.930954 0.881582 0.039235
Si Si2 0.000000 0.750000 0.866399
Si Si3 0.566746 0.894619 0.828613
Si Si4 0.278246 0.104493 0.325385
Si Si5 0.410638 0.527597 0.670631
Si Si6 0.826355 0.605493 0.560367
O O1 0.903684 0.750000 0.021656
O O2 0.000000 0.874351 0.016553
O O3 0.929121 0.910107 0.123962
O O4 0.904259 0.000000 0.000000
O O5 0.948648 0.858547 0.860438
O O6 0.500000 0.914838 0.855197
O O7 0.570451 0.750000 0.805690
O O8 0.576967 0.972162 0.756112
O O9 0.616340 0.912707 0.888504
O O10 0.289608 0.250000 0.315592
O O11 0.250000 0.059452 0.250000
O O12 0.341060 0.044829 0.339733
O O13 0.230956 0.090180 0.388878
O O14 0.826213 0.500000 0.500000
O O15 0.827443 0.750000 0.535463
#
# Coordination Sequence:
#
# PCOD9534127 Si02
#       6
#    16   4  16  16  16  16
#     4  10  23  37  54  78 115 156 194 238 293 351
#     4  12  20  28  58 100 120 144 184 256 298 348
#     4  10  17  31  58  90 116 148 191 241 289 347
#     4  10  19  33  58  86 112 150 198 240 280 337
#     4  12  19  33  58  89 120 144 195 243 299 344
#     4  10  22  39  59  85 118 151 194 241 287 343
#
# _framework density 18.419084000000002
#
# number of rings (size 3 to 8) (size 9 to 14) (size 15 to 20)
#    0.000    1.524    5.714    0.000    1.333    1.143 
#    0.000    3.810    0.000    2.286    0.000    0.000 
#    0.000    0.000    0.000    0.000    0.000    0.000 
#
# Total GULP energy -233836.212888 kJ/mol
# GULP energy per Si atom -5567.528878 kJ/mol
# Density = 1.837716 g / cm^3
# Si number density = 18.419084 Si / 1000 Ang^3
#
#
#
# Elastic Constant Matrix: (Units=GPa)
#
#
# Indices 1 2 3 4 5 6 
#
# 1 122.3658 22.7783 23.2715 0.0000 0.0000 0.0000
# 2 22.7783 104.0307 47.6847 0.0000 0.0000 0.0000
# 3 23.2715 47.6847 78.2964 0.0000 0.0000 0.0000
# 4 0.0000 0.0000 0.0000 21.5744 0.0000 0.0000
# 5 0.0000 0.0000 0.0000 0.0000 18.2283 0.0000
# 6 0.0000 0.0000 0.0000 0.0000 0.0000 14.9470
#
#
#
# Elastic Compliance Matrix: (Units=1/GPa)
#
#
# Indices 1 2 3 4 5 6 
#
# 1 0.008737 -0.001003 -0.001986 0.000000 0.000000 0.000000
# 2 -0.001003 0.013450 -0.007894 0.000000 0.000000 0.000000
# 3 -0.001986 -0.007894 0.018170 0.000000 0.000000 0.000000
# 4 0.000000 0.000000 0.000000 0.046351 0.000000 0.000000
# 5 0.000000 0.000000 0.000000 0.000000 0.054860 0.000000
# 6 0.000000 0.000000 0.000000 0.000000 0.000000 0.066903
#
#
# Mechanical properties :
#
#
# Convention : Reuss Voigt Hill
#
# Bulk Modulus (GPa) = 53.78660 54.68464 54.23562
# Shear Modulus (GPa) = 21.14768 25.01384 23.08076
#
# Velocity S-wave (km/s) = 3.39210 3.68916 3.54374
# Velocity P-wave (km/s) = 6.67883 6.92099 6.80098
#
# Compressibility (1/GPa) = 0.01859199
#
# Stress axis : x y z
#
# Youngs Moduli (GPa) = 114.46147 74.34791 55.03656
#
# Poissons Ratio (x) = 0.07454 0.10931
# Poissons Ratio (y) = 0.11475 0.43444
# Poissons Ratio (z) = 0.22733 0.58687
#
# Static dielectric constant tensor:
#      x y z
#    x 1.627030 0.000000 0.000000 
#    y 0.000000 1.640590 0.000000 
#    z 0.000000 0.000000 1.692670 
# 
# From -- ./inp_files/36265.got.cif
#   From: 2010.05.17/outbox.cif.g08.bks.cpg/sg74_19_cif.got.tgz:36265.got - 2010.06.03 17:57:02.
