data_PCOD9534793
_publ_section_title
;
Structure prediction by ZEFSAII (Michael W. Deem and Ramdas Pophale) SiO2 
 PCOD9534793
Probable space group: I M M A
;
_chemical_formula_sum "Si O2"
_cell_formula_units_Z 80
_cell_length_a 18.838010
_cell_length_b 18.286193
_cell_length_c 12.842435
_cell_angle_alpha 90.000000
_cell_angle_beta 90.000000
_cell_angle_gamma 90.000000
_cell_volume 4423.904046
_symmetry_space_group_name_H-M "I M M A"
_symmetry_group_IT_number 74
_symmetry_cell_setting 'orthorhombic'
loop_
_space_group_symop_operation_xyz
x,y,z
-x,1/2-y,z
x,-y,-z
-x,1/2+y,-z
-x,-y,-z
x,1/2+y,-z
-x,y,z
x,1/2-y,z
1/2+x,1/2+y,1/2+z
1/2-x,-y,1/2+z
1/2+x,1/2-y,1/2-z
1/2-x,y,1/2-z
1/2-x,1/2-y,1/2-z
1/2+x,y,1/2-z
1/2-x,1/2+y,1/2+z
1/2+x,-y,1/2+z
loop_
_atom_site_type_symbol
_atom_site_label
_atom_site_fract_x
_atom_site_fract_y
_atom_site_fract_z
Si Si1 0.221429 0.897227 0.555591
Si Si2 0.637655 0.750000 0.253210
Si Si3 0.578377 0.964582 0.885611
Si Si4 0.580408 0.089713 0.708605
Si Si5 0.247208 0.250000 0.560932
Si Si6 0.219139 0.530349 0.139529
O O1 0.145284 0.909819 0.609666
O O2 0.242031 0.817658 0.517978
O O3 0.226338 0.938066 0.444021
O O4 0.277759 0.943211 0.624353
O O5 0.595542 0.826905 0.256065
O O6 0.685975 0.750000 0.359060
O O7 0.683670 0.750000 0.146704
O O8 0.500000 0.931227 0.866066
O O9 0.587578 0.029968 0.801809
O O10 0.576033 0.000000 0.000000
O O11 0.500000 0.085136 0.669100
O O12 0.641915 0.065209 0.628825
O O13 0.250000 0.552494 0.250000
#
# Coordination Sequence:
#
# PCOD9534793 Si02
#       6
#    16   8  16  16   8  16
#     4  11  21  34  57  84 110 147 195 230 277 332
#     4  11  21  34  56  84 120 146 172 234 287 352
#     4  10  18  31  53  81 111 144 181 225 277 334
#     4  11  22  36  57  85 116 149 182 226 289 341
#     4  11  22  34  55  86 112 150 187 227 289 329
#     4  11  19  35  59  81 110 148 186 237 268 327
#
# _framework density 18.083575
#
# number of rings (size 3 to 8) (size 9 to 14) (size 15 to 20)
#    0.000    1.200    6.000    2.700    0.000    0.000 
#    0.000    4.000    0.000    0.000    0.000    0.000 
#    0.000    0.000    0.000    0.000    0.000    0.000 
#
# Total GULP energy -222700.405059 kJ/mol
# GULP energy per Si atom -5567.510126 kJ/mol
# Density = 1.804242 g / cm^3
# Si number density = 18.083575 Si / 1000 Ang^3
#
#
#
# Elastic Constant Matrix: (Units=GPa)
#
#
# Indices 1 2 3 4 5 6 
#
# 1 125.2162 32.8172 15.3133 0.0000 0.0000 0.0000
# 2 32.8172 103.9257 11.9054 0.0000 0.0000 0.0000
# 3 15.3133 11.9054 25.3421 0.0000 0.0000 0.0000
# 4 0.0000 0.0000 0.0000 30.9526 0.0000 0.0000
# 5 0.0000 0.0000 0.0000 0.0000 18.6516 0.0000
# 6 0.0000 0.0000 0.0000 0.0000 0.0000 20.5438
#
#
#
# Elastic Compliance Matrix: (Units=1/GPa)
#
#
# Indices 1 2 3 4 5 6 
#
# 1 0.009150 -0.002384 -0.004409 0.000000 0.000000 0.000000
# 2 -0.002384 0.010791 -0.003629 0.000000 0.000000 0.000000
# 3 -0.004409 -0.003629 0.043829 0.000000 0.000000 0.000000
# 4 0.000000 0.000000 0.000000 0.032307 0.000000 0.000000
# 5 0.000000 0.000000 0.000000 0.000000 0.053615 0.000000
# 6 0.000000 0.000000 0.000000 0.000000 0.000000 0.048677
#
#
# Mechanical properties :
#
#
# Convention : Reuss Voigt Hill
#
# Bulk Modulus (GPa) = 23.29586 41.61731 32.45658
# Shear Modulus (GPa) = 21.41127 26.99278 24.20203
#
# Velocity S-wave (km/s) = 3.44469 3.86770 3.66231
# Velocity P-wave (km/s) = 5.36017 6.55815 5.98919
#
# Compressibility (1/GPa) = 0.04292608
#
# Stress axis : x y z
#
# Youngs Moduli (GPa) = 109.28610 92.67093 22.81593
#
# Poissons Ratio (x) = 0.22096 0.10060
# Poissons Ratio (y) = 0.26058 0.08279
# Poissons Ratio (z) = 0.48185 0.33627
#
# Static dielectric constant tensor:
#      x y z
#    x 1.687090 0.000000 0.000000 
#    y 0.000000 1.727480 0.000000 
#    z 0.000000 0.000000 1.631260 
# 
# From -- ./inp_files/34213.got.cif
#   From: 2010.05.17/outbox.cif.g08.bks.cpg/sg74_18_cif.got.tgz:34213.got - 2010.06.03 17:57:02.
