data_PCOD9534545
_publ_section_title
;
Structure prediction by ZEFSAII (Michael W. Deem and Ramdas Pophale) SiO2 
 PCOD9534545
Probable space group: I M M A
;
_chemical_formula_sum "Si O2"
_cell_formula_units_Z 104
_cell_length_a 9.210906
_cell_length_b 29.578260
_cell_length_c 28.040004
_cell_angle_alpha 90.000000
_cell_angle_beta 90.000000
_cell_angle_gamma 90.000000
_cell_volume 7639.290823
_symmetry_space_group_name_H-M "I M M A"
_symmetry_group_IT_number 74
_symmetry_cell_setting 'orthorhombic'
loop_
_space_group_symop_operation_xyz
x,y,z
-x,1/2-y,z
x,-y,-z
-x,1/2+y,-z
-x,-y,-z
x,1/2+y,-z
-x,y,z
x,1/2-y,z
1/2+x,1/2+y,1/2+z
1/2-x,-y,1/2+z
1/2+x,1/2-y,1/2-z
1/2-x,y,1/2-z
1/2-x,1/2-y,1/2-z
1/2+x,y,1/2-z
1/2-x,1/2+y,1/2+z
1/2+x,-y,1/2+z
loop_
_atom_site_type_symbol
_atom_site_label
_atom_site_fract_x
_atom_site_fract_y
_atom_site_fract_z
Si Si1 0.166980 0.750000 0.201641
Si Si2 0.334493 0.966821 0.954094
Si Si3 0.669904 0.803221 0.444934
Si Si4 0.169366 0.602233 0.015247
Si Si5 0.334119 0.825146 0.148902
Si Si6 0.829528 0.576795 0.301527
Si Si7 0.326437 0.960885 0.393327
O O1 0.250000 0.750000 0.250000
O O2 0.218264 0.793439 0.173740
O O3 0.000000 0.750000 0.210235
O O4 0.500000 0.961047 0.937418
O O5 0.236249 0.993166 0.916070
O O6 0.265394 0.921232 0.974884
O O7 0.337555 0.000000 0.000000
O O8 0.500000 0.805743 0.427966
O O9 0.695024 0.750000 0.456746
O O10 0.682068 0.843454 0.483438
O O11 0.783963 0.820162 0.405475
O O12 0.205928 0.578856 0.067016
O O13 0.000000 0.590561 0.007302
O O14 0.500000 0.808977 0.154105
O O15 0.325488 0.873299 0.174622
O O16 0.750000 0.575972 0.250000
O O17 0.749338 0.547940 0.342570
O O18 0.000000 0.564590 0.296079
O O19 0.500000 0.962087 0.387962
#
# Coordination Sequence:
#
# PCOD9534545 Si02
#       7
#     8  16  16  16  16  16  16
#     4  12  24  36  48  58  72  94 130 178 226 270
#     4   9  17  28  44  66  88 109 135 170 215 260
#     4  10  19  31  47  65  85 114 145 179 220 264
#     4   9  17  29  45  65  87 111 141 175 216 262
#     4  11  22  34  47  62  79 103 137 179 223 265
#     4  11  23  35  47  63  84 110 143 179 220 266
#     4  10  18  30  48  66  86 110 138 175 218 262
#
# _framework density 13.613829000000001
#
# number of rings (size 3 to 8) (size 9 to 14) (size 15 to 20)
#    0.000    1.846    2.308    3.000    0.000    6.154 
#    0.000    0.000    0.000    0.000    0.000    0.000 
#    0.000    0.000    0.000    0.000    0.000    0.769 
#
# Total GULP energy -289571.912265 kJ/mol
# GULP energy per Si atom -5568.690620 kJ/mol
# Density = 1.358284 g / cm^3
# Si number density = 13.613829 Si / 1000 Ang^3
#
#
#
# Elastic Constant Matrix: (Units=GPa)
#
#
# Indices 1 2 3 4 5 6 
#
# 1 97.8305 43.6717 40.0191 0.0000 0.0000 0.0000
# 2 43.6717 68.3279 39.7701 0.0000 0.0000 0.0000
# 3 40.0191 39.7701 47.8823 0.0000 0.0000 0.0000
# 4 0.0000 0.0000 0.0000 18.4741 0.0000 0.0000
# 5 0.0000 0.0000 0.0000 0.0000 21.7713 0.0000
# 6 0.0000 0.0000 0.0000 0.0000 0.0000 24.2478
#
#
#
# Elastic Compliance Matrix: (Units=1/GPa)
#
#
# Indices 1 2 3 4 5 6 
#
# 1 0.016313 -0.004822 -0.009629 0.000000 0.000000 0.000000
# 2 -0.004822 0.029757 -0.020686 0.000000 0.000000 0.000000
# 3 -0.009629 -0.020686 0.046114 0.000000 0.000000 0.000000
# 4 0.000000 0.000000 0.000000 0.054130 0.000000 0.000000
# 5 0.000000 0.000000 0.000000 0.000000 0.045932 0.000000
# 6 0.000000 0.000000 0.000000 0.000000 0.000000 0.041241
#
#
# Mechanical properties :
#
#
# Convention : Reuss Voigt Hill
#
# Bulk Modulus (GPa) = 45.64064 51.21805 48.42935
# Shear Modulus (GPa) = 16.07381 18.93729 17.50555
#
# Velocity S-wave (km/s) = 3.43986 3.73370 3.58979
# Velocity P-wave (km/s) = 7.02672 7.50274 7.26863
#
# Compressibility (1/GPa) = 0.02191030
#
# Stress axis : x y z
#
# Youngs Moduli (GPa) = 61.29964 33.60512 21.68544
#
# Poissons Ratio (x) = 0.16204 0.20882
# Poissons Ratio (y) = 0.29558 0.44858
# Poissons Ratio (z) = 0.59028 0.69515
#
# Static dielectric constant tensor:
#      x y z
#    x 1.462640 0.000000 0.000000 
#    y 0.000000 1.469110 0.000000 
#    z 0.000000 0.000000 1.413440 
# 
# From -- ./inp_files/57837.got.cif
#   From: 2010.05.17/outbox.cif.g08.bks.cpg/sg74_29_cif.got.tgz:57837.got - 2010.06.03 17:57:02.
