data_PCOD9534058
_publ_section_title
;
Structure prediction by ZEFSAII (Michael W. Deem and Ramdas Pophale) SiO2 
 PCOD9534058
Probable space group: I M M A
;
_chemical_formula_sum "Si O2"
_cell_formula_units_Z 64
_cell_length_a 17.504332
_cell_length_b 12.883171
_cell_length_c 14.572598
_cell_angle_alpha 90.000000
_cell_angle_beta 90.000000
_cell_angle_gamma 90.000000
_cell_volume 3286.285554
_symmetry_space_group_name_H-M "I M M A"
_symmetry_group_IT_number 74
_symmetry_cell_setting 'orthorhombic'
loop_
_space_group_symop_operation_xyz
x,y,z
-x,1/2-y,z
x,-y,-z
-x,1/2+y,-z
-x,-y,-z
x,1/2+y,-z
-x,y,z
x,1/2-y,z
1/2+x,1/2+y,1/2+z
1/2-x,-y,1/2+z
1/2+x,1/2-y,1/2-z
1/2-x,y,1/2-z
1/2-x,1/2-y,1/2-z
1/2+x,y,1/2-z
1/2-x,1/2+y,1/2+z
1/2+x,-y,1/2+z
loop_
_atom_site_type_symbol
_atom_site_label
_atom_site_fract_x
_atom_site_fract_y
_atom_site_fract_z
Si Si1 0.286242 0.907748 0.622113
Si Si2 0.917332 0.942142 0.401792
Si Si3 0.376182 0.362175 0.212393
Si Si4 0.247751 0.136031 0.909608
O O1 0.357922 0.867707 0.679465
O O2 0.207634 0.866654 0.665581
O O3 0.278541 0.877341 0.515828
O O4 0.285289 0.032436 0.636029
O O5 0.839727 0.875892 0.399596
O O6 0.000000 0.888469 0.395229
O O7 0.913734 0.000000 0.500000
O O8 0.914500 0.034781 0.327027
O O9 0.410819 0.250000 0.189131
O O10 0.224522 0.250000 0.876361
#
# Coordination Sequence:
#
# PCOD9534058 Si02
#       4
#    16  16  16  16
#     4   9  17  28  44  71  94 116 158 206 240 286
#     4  10  20  32  43  65  99 130 164 198 230 285
#     4  10  17  29  48  66  90 125 161 203 245 278
#     4  10  17  30  48  68  96 128 158 193 244 296
#
# _framework density 19.474875000000001
#
# number of rings (size 3 to 8) (size 9 to 14) (size 15 to 20)
#    0.000    2.250    5.000    3.000    0.000    1.000 
#    0.000   12.500    0.000    0.000    0.000    3.500 
#    0.000    2.000    0.000    0.000    0.000    0.000 
#
# Total GULP energy -178204.304145 kJ/mol
# GULP energy per Si atom -5568.884505 kJ/mol
# Density = 1.943055 g / cm^3
# Si number density = 19.474875 Si / 1000 Ang^3
#
#
#
# Elastic Constant Matrix: (Units=GPa)
#
#
# Indices 1 2 3 4 5 6 
#
# 1 29.8236 4.1936 15.1137 0.0000 0.0000 0.0000
# 2 4.1936 141.2259 10.8941 0.0000 0.0000 0.0000
# 3 15.1137 10.8941 51.4699 0.0000 0.0000 0.0000
# 4 0.0000 0.0000 0.0000 10.8192 0.0000 0.0000
# 5 0.0000 0.0000 0.0000 0.0000 -29.0572 0.0000
# 6 0.0000 0.0000 0.0000 0.0000 0.0000 4.0277
#
#
#
# Elastic Compliance Matrix: (Units=1/GPa)
#
#
# Indices 1 2 3 4 5 6 
#
# 1 0.039403 -0.000282 -0.011511 0.000000 0.000000 0.000000
# 2 -0.000282 0.007200 -0.001441 0.000000 0.000000 0.000000
# 3 -0.011511 -0.001441 0.023114 0.000000 0.000000 0.000000
# 4 0.000000 0.000000 0.000000 0.092428 0.000000 0.000000
# 5 0.000000 0.000000 0.000000 0.000000 -0.034415 0.000000
# 6 0.000000 0.000000 0.000000 0.000000 0.000000 0.248281
#
#
# Mechanical properties :
#
#
# Convention : Reuss Voigt Hill
#
# Bulk Modulus (GPa) = 23.12157 31.43578 27.27868
# Shear Modulus (GPa) = 11.99337 9.97916 10.98626
#
# Velocity S-wave (km/s) = 2.48430 2.26611 2.37771
# Velocity P-wave (km/s) = 4.48634 4.79831 4.64495
#
# Compressibility (1/GPa) = 0.04324967
#
# Stress axis : x y z
#
# Youngs Moduli (GPa) = 25.37847 138.88113 43.26406
#
# Poissons Ratio (x) = 0.03918 0.49800
# Poissons Ratio (y) = 0.00716 0.06235
# Poissons Ratio (z) = 0.29212 0.20015
#
# Static dielectric constant tensor:
#      x y z
#    x 1.683140 0.000000 0.000000 
#    y 0.000000 1.734550 0.000000 
#    z 0.000000 0.000000 1.724490 
# 
# From -- ./inp_files/34900.got.cif
#   From: 2010.05.17/outbox.cif.g08.bks.cpg/sg74_18_cif.got.tgz:34900.got - 2010.06.03 17:57:02.
