data_PCOD9534064
_publ_section_title
;
Structure prediction by ZEFSAII (Michael W. Deem and Ramdas Pophale) SiO2 
 PCOD9534064
Probable space group: I M M A
;
_chemical_formula_sum "Si O2"
_cell_formula_units_Z 80
_cell_length_a 17.017212
_cell_length_b 13.521694
_cell_length_c 19.643273
_cell_angle_alpha 90.000000
_cell_angle_beta 90.000000
_cell_angle_gamma 90.000000
_cell_volume 4519.947238
_symmetry_space_group_name_H-M "I M M A"
_symmetry_group_IT_number 74
_symmetry_cell_setting 'orthorhombic'
loop_
_space_group_symop_operation_xyz
x,y,z
-x,1/2-y,z
x,-y,-z
-x,1/2+y,-z
-x,-y,-z
x,1/2+y,-z
-x,y,z
x,1/2-y,z
1/2+x,1/2+y,1/2+z
1/2-x,-y,1/2+z
1/2+x,1/2-y,1/2-z
1/2-x,y,1/2-z
1/2-x,1/2-y,1/2-z
1/2+x,y,1/2-z
1/2-x,1/2+y,1/2+z
1/2+x,-y,1/2+z
loop_
_atom_site_type_symbol
_atom_site_label
_atom_site_fract_x
_atom_site_fract_y
_atom_site_fract_z
Si Si1 0.000000 0.369604 0.379721
Si Si2 0.000000 0.129608 0.533063
Si Si3 0.146790 0.868874 0.711558
Si Si4 0.821821 0.366282 0.541558
Si Si5 0.250040 0.445311 0.096890
Si Si6 0.909257 0.630630 0.863829
O O1 0.076186 0.397929 0.338373
O O2 0.000000 0.250000 0.382939
O O3 0.000000 0.408189 0.455589
O O4 0.087490 0.106708 0.559517
O O5 0.000000 0.250000 0.531148
O O6 0.157559 0.750000 0.711451
O O7 0.221259 0.913384 0.672145
O O8 0.115915 0.895200 0.786357
O O9 0.810432 0.250000 0.553223
O O10 0.800867 0.389203 0.461988
O O11 0.766673 0.439743 0.583700
O O12 0.158844 0.416434 0.090105
O O13 0.904907 0.750000 0.869733
O O14 0.000000 0.601875 0.876275
#
# Coordination Sequence:
#
# PCOD9534064 Si02
#       6
#     8   8  16  16  16  16
#     4   9  14  23  45  75 105 133 153 188 241 300
#     4   9  16  30  50  70 104 140 159 190 243 299
#     4  10  17  29  49  76 107 131 158 197 249 307
#     4  10  21  35  50  74 105 135 170 207 246 295
#     4  11  21  31  52  77 100 134 169 206 249 301
#     4  10  20  34  52  75 104 133 164 210 261 303
#
# _framework density 17.699321999999999
#
# number of rings (size 3 to 8) (size 9 to 14) (size 15 to 20)
#    0.000    2.000    3.000    2.400    0.000    4.000 
#    0.000    2.000    0.000    4.200    0.000    0.000 
#    0.000    0.000    0.000    0.000    0.000    0.000 
#
# Total GULP energy -222943.916803 kJ/mol
# GULP energy per Si atom -5573.597920 kJ/mol
# Density = 1.765904 g / cm^3
# Si number density = 17.699322 Si / 1000 Ang^3
#
#
#
# Elastic Constant Matrix: (Units=GPa)
#
#
# Indices 1 2 3 4 5 6 
#
# 1 158.5385 36.7837 16.2860 0.0000 0.0000 0.0000
# 2 36.7837 74.8037 9.6427 0.0000 0.0000 0.0000
# 3 16.2860 9.6427 26.0042 0.0000 0.0000 0.0000
# 4 0.0000 0.0000 0.0000 16.1215 0.0000 0.0000
# 5 0.0000 0.0000 0.0000 0.0000 17.1373 0.0000
# 6 0.0000 0.0000 0.0000 0.0000 0.0000 26.6642
#
#
#
# Elastic Compliance Matrix: (Units=1/GPa)
#
#
# Indices 1 2 3 4 5 6 
#
# 1 0.007404 -0.003196 -0.003452 0.000000 0.000000 0.000000
# 2 -0.003196 0.015419 -0.003716 0.000000 0.000000 0.000000
# 3 -0.003452 -0.003716 0.041995 0.000000 0.000000 0.000000
# 4 0.000000 0.000000 0.000000 0.062029 0.000000 0.000000
# 5 0.000000 0.000000 0.000000 0.000000 0.058352 0.000000
# 6 0.000000 0.000000 0.000000 0.000000 0.000000 0.037504
#
#
# Mechanical properties :
#
#
# Convention : Reuss Voigt Hill
#
# Bulk Modulus (GPa) = 22.68064 42.75236 32.71650
# Shear Modulus (GPa) = 19.37037 25.09353 22.23195
#
# Velocity S-wave (km/s) = 3.31178 3.76941 3.54798
# Velocity P-wave (km/s) = 5.24081 6.56901 5.94213
#
# Compressibility (1/GPa) = 0.04409046
#
# Stress axis : x y z
#
# Youngs Moduli (GPa) = 135.06829 64.85597 23.81227
#
# Poissons Ratio (x) = 0.20726 0.08220
# Poissons Ratio (y) = 0.43164 0.08849
# Poissons Ratio (z) = 0.46623 0.24101
#
# Static dielectric constant tensor:
#      x y z
#    x 1.650950 0.000000 0.000000 
#    y 0.000000 1.607290 0.000000 
#    z 0.000000 0.000000 1.619300 
# 
# From -- ./inp_files/43885.got.cif
#   From: 2010.05.17/outbox.cif.g08.bks.cpg/sg74_22_cif.got.tgz:43885.got - 2010.06.03 17:57:02.
