data_PCOD9534451
_publ_section_title
;
Structure prediction by ZEFSAII (Michael W. Deem and Ramdas Pophale) SiO2 
 PCOD9534451
Probable space group: I M M A
;
_chemical_formula_sum "Si O2"
_cell_formula_units_Z 96
_cell_length_a 7.531422
_cell_length_b 24.622157
_cell_length_c 26.078587
_cell_angle_alpha 90.000000
_cell_angle_beta 90.000000
_cell_angle_gamma 90.000000
_cell_volume 4836.009390
_symmetry_space_group_name_H-M "I M M A"
_symmetry_group_IT_number 74
_symmetry_cell_setting 'orthorhombic'
loop_
_space_group_symop_operation_xyz
x,y,z
-x,1/2-y,z
x,-y,-z
-x,1/2+y,-z
-x,-y,-z
x,1/2+y,-z
-x,y,z
x,1/2-y,z
1/2+x,1/2+y,1/2+z
1/2-x,-y,1/2+z
1/2+x,1/2-y,1/2-z
1/2-x,y,1/2-z
1/2-x,1/2-y,1/2-z
1/2+x,y,1/2-z
1/2-x,1/2+y,1/2+z
1/2+x,-y,1/2+z
loop_
_atom_site_type_symbol
_atom_site_label
_atom_site_fract_x
_atom_site_fract_y
_atom_site_fract_z
Si Si1 0.289625 0.810925 0.809328
Si Si2 0.209464 0.616311 0.904455
Si Si3 0.787232 0.311666 0.808708
Si Si4 0.782843 0.812104 0.999036
Si Si5 0.217021 0.883219 0.097305
Si Si6 0.716994 0.000018 0.439992
O O1 0.500000 0.807936 0.814685
O O2 0.216319 0.750000 0.820439
O O3 0.250000 0.823368 0.750000
O O4 0.228943 0.856076 0.849318
O O5 0.279850 0.656996 0.948072
O O6 0.278869 0.555407 0.912837
O O7 0.000000 0.612050 0.914674
O O8 0.719366 0.250000 0.817105
O O9 0.750000 0.326868 0.750000
O O10 0.721561 0.354292 0.850672
O O11 0.000000 0.309171 0.814499
O O12 0.723104 0.750000 0.000840
O O13 0.000000 0.811037 0.998448
O O14 0.731000 0.846178 0.048952
O O15 0.276227 0.944740 0.087368
O O16 0.000000 0.884149 0.098082
O O17 0.500000 0.999033 0.439378
O O18 0.768316 0.000000 0.500000
#
# Coordination Sequence:
#
# PCOD9534451 Si02
#       6
#    16  16  16  16  16  16
#     4  10  21  37  56  76 100 131 166 205 250 301
#     4  10  18  29  49  76 104 131 163 203 247 295
#     4   9  17  29  46  67  91 121 157 199 245 288
#     4   9  15  22  38  68 100 124 153 201 251 290
#     4   9  15  25  42  66  96 126 161 201 240 284
#     4   9  15  26  44  70 102 134 165 199 240 285
#
# _framework density 19.851078000000001
#
# number of rings (size 3 to 8) (size 9 to 14) (size 15 to 20)
#    0.000    2.667    1.667    1.500    0.000    3.667 
#    0.000    0.833    0.000    4.500    0.000    2.333 
#    0.000    0.000    0.000    0.000    0.000    0.000 
#
# Total GULP energy -267883.897197 kJ/mol
# GULP energy per Si atom -5580.914525 kJ/mol
# Density = 1.980590 g / cm^3
# Si number density = 19.851078 Si / 1000 Ang^3
#
#
#
# Elastic Constant Matrix: (Units=GPa)
#
#
# Indices 1 2 3 4 5 6 
#
# 1 46.5526 5.8806 -6.8211 0.0000 0.0000 0.0000
# 2 5.8806 224.8760 130.2950 0.0000 0.0000 0.0000
# 3 -6.8211 130.2950 150.0797 0.0000 0.0000 0.0000
# 4 0.0000 0.0000 0.0000 25.7499 0.0000 0.0000
# 5 0.0000 0.0000 0.0000 0.0000 11.5170 0.0000
# 6 0.0000 0.0000 0.0000 0.0000 0.0000 -6.9034
#
#
#
# Elastic Compliance Matrix: (Units=1/GPa)
#
#
# Indices 1 2 3 4 5 6 
#
# 1 0.022224 -0.002347 0.003048 0.000000 0.000000 0.000000
# 2 -0.002347 0.009196 -0.008090 0.000000 0.000000 0.000000
# 3 0.003048 -0.008090 0.013825 0.000000 0.000000 0.000000
# 4 0.000000 0.000000 0.000000 0.038835 0.000000 0.000000
# 5 0.000000 0.000000 0.000000 0.000000 0.086828 0.000000
# 6 0.000000 0.000000 0.000000 0.000000 0.000000 -0.144855
#
#
# Mechanical properties :
#
#
# Convention : Reuss Voigt Hill
#
# Bulk Modulus (GPa) = 32.82323 75.57969 54.20146
# Shear Modulus (GPa) = 98.06279 25.54961 61.80620
#
# Velocity S-wave (km/s) = 7.03608 3.59146 5.58592
# Velocity P-wave (km/s) = 9.08731 7.44003 8.30462
#
# Compressibility (1/GPa) = 0.03046623
#
# Stress axis : x y z
#
# Youngs Moduli (GPa) = 44.99611 108.74506 72.33083
#
# Poissons Ratio (x) = 0.25523 -0.22045
# Poissons Ratio (y) = 0.10561 0.58517
# Poissons Ratio (z) = -0.13714 0.87977
#
# Static dielectric constant tensor:
#      x y z
#    x 1.759810 0.000000 0.000000 
#    y 0.000000 1.698180 0.000000 
#    z 0.000000 0.000000 1.706570 
# 
# From -- ./inp_files/50909.got.cif
#   From: 2010.05.17/outbox.cif.g08.bks.cpg/sg74_26_cif.got.tgz:50909.got - 2010.06.03 17:57:02.
