data_PCOD9534026
_publ_section_title
;
Structure prediction by ZEFSAII (Michael W. Deem and Ramdas Pophale) SiO2 
 PCOD9534026
Probable space group: I M M A
;
_chemical_formula_sum "Si O2"
_cell_formula_units_Z 128
_cell_length_a 18.657927
_cell_length_b 18.722582
_cell_length_c 25.549712
_cell_angle_alpha 90.000000
_cell_angle_beta 90.000000
_cell_angle_gamma 90.000000
_cell_volume 8925.142112
_symmetry_space_group_name_H-M "I M M A"
_symmetry_group_IT_number 74
_symmetry_cell_setting 'orthorhombic'
loop_
_space_group_symop_operation_xyz
x,y,z
-x,1/2-y,z
x,-y,-z
-x,1/2+y,-z
-x,-y,-z
x,1/2+y,-z
-x,y,z
x,1/2-y,z
1/2+x,1/2+y,1/2+z
1/2-x,-y,1/2+z
1/2+x,1/2-y,1/2-z
1/2-x,y,1/2-z
1/2-x,1/2-y,1/2-z
1/2+x,y,1/2-z
1/2-x,1/2+y,1/2+z
1/2+x,-y,1/2+z
loop_
_atom_site_type_symbol
_atom_site_label
_atom_site_fract_x
_atom_site_fract_y
_atom_site_fract_z
Si Si1 0.168558 0.089950 0.351609
Si Si2 0.792175 0.332726 0.805636
Si Si3 0.916030 0.568787 0.463312
Si Si4 0.082962 0.417210 0.245825
Si Si5 0.329574 0.422592 0.855841
Si Si6 0.915982 0.167389 0.440650
Si Si7 0.583427 0.912048 0.249629
Si Si8 0.295518 0.168265 0.304316
O O1 0.114968 0.102915 0.302744
O O2 0.127977 0.115403 0.403065
O O3 0.240762 0.134792 0.345269
O O4 0.187329 0.006505 0.348931
O O5 0.801199 0.250000 0.820770
O O6 0.750000 0.334445 0.750000
O O7 0.741627 0.375762 0.846031
O O8 0.867016 0.370756 0.791220
O O9 0.897412 0.500000 0.500000
O O10 0.868151 0.580332 0.412046
O O11 0.910030 0.637404 0.500775
O O12 0.000000 0.558707 0.448091
O O13 0.088645 0.502792 0.240496
O O14 0.133864 0.378070 0.204640
O O15 0.000000 0.396892 0.242047
O O16 0.384216 0.401248 0.808844
O O17 0.893701 0.250000 0.435722
O O18 0.000000 0.162757 0.426273
O O19 0.500000 0.891411 0.251522
O O20 0.312877 0.250000 0.315616
O O21 0.250000 0.165838 0.250000
#
# Coordination Sequence:
#
# PCOD9534026 Si02
#       8
#    16  16  16  16  16  16  16  16
#     4  10  17  28  44  61  82 113 151 185 220 261
#     4   9  18  31  45  65  93 121 150 188 232 278
#     4  10  19  31  46  65  90 120 157 195 228 264
#     4   9  17  27  41  61  85 112 146 184 219 261
#     4  10  18  29  48  67  88 121 156 188 228 270
#     4  10  20  31  43  62  88 116 147 187 229 263
#     4   9  17  29  46  68  91 118 152 187 225 273
#     4   9  17  27  38  55  81 112 144 179 218 260
#
# _framework density 14.341509
#
# number of rings (size 3 to 8) (size 9 to 14) (size 15 to 20)
#    0.000    2.500    1.250    1.875    0.000    5.500 
#    0.000    0.000    0.000    2.250    0.000    0.000 
#    0.000    1.500    0.000    2.750    0.000    0.625 
#
# Total GULP energy -356483.282443 kJ/mol
# GULP energy per Si atom -5570.051288 kJ/mol
# Density = 1.430887 g / cm^3
# Si number density = 14.341509 Si / 1000 Ang^3
#
#
#
# Elastic Constant Matrix: (Units=GPa)
#
#
# Indices 1 2 3 4 5 6 
#
# 1 108.8345 49.1367 42.6924 0.0000 0.0000 0.0000
# 2 49.1367 58.1292 26.3617 0.0000 0.0000 0.0000
# 3 42.6924 26.3617 60.2954 0.0000 0.0000 0.0000
# 4 0.0000 0.0000 0.0000 15.2600 0.0000 0.0000
# 5 0.0000 0.0000 0.0000 0.0000 21.4085 0.0000
# 6 0.0000 0.0000 0.0000 0.0000 0.0000 18.6616
#
#
#
# Elastic Compliance Matrix: (Units=1/GPa)
#
#
# Indices 1 2 3 4 5 6 
#
# 1 0.017041 -0.011142 -0.007194 0.000000 0.000000 0.000000
# 2 -0.011142 0.028743 -0.004677 0.000000 0.000000 0.000000
# 3 -0.007194 -0.004677 0.023724 0.000000 0.000000 0.000000
# 4 0.000000 0.000000 0.000000 0.065531 0.000000 0.000000
# 5 0.000000 0.000000 0.000000 0.000000 0.046710 0.000000
# 6 0.000000 0.000000 0.000000 0.000000 0.000000 0.053586
#
#
# Mechanical properties :
#
#
# Convention : Reuss Voigt Hill
#
# Bulk Modulus (GPa) = 42.58971 51.51563 47.05267
# Shear Modulus (GPa) = 17.28975 18.33725 17.81350
#
# Velocity S-wave (km/s) = 3.47590 3.57965 3.52816
# Velocity P-wave (km/s) = 6.77278 7.28586 7.03400
#
# Compressibility (1/GPa) = 0.02347985
#
# Stress axis : x y z
#
# Youngs Moduli (GPa) = 58.68279 34.79165 42.15131
#
# Poissons Ratio (x) = 0.38765 0.30326
# Poissons Ratio (y) = 0.65384 0.19716
# Poissons Ratio (z) = 0.42219 0.16273
#
# Static dielectric constant tensor:
#      x y z
#    x 1.459600 0.000000 0.000000 
#    y 0.000000 1.488910 0.000000 
#    z 0.000000 0.000000 1.454210 
# 
# From -- ./inp_files/53398.got.cif
#   From: 2010.05.17/outbox.cif.g08.bks.cpg/sg74_27_cif.got.tgz:53398.got - 2010.06.03 17:57:02.
