data_PCOD9534113
_publ_section_title
;
Structure prediction by ZEFSAII (Michael W. Deem and Ramdas Pophale) SiO2 
 PCOD9534113
Probable space group: I M M A
;
_chemical_formula_sum "Si O2"
_cell_formula_units_Z 64
_cell_length_a 29.045442
_cell_length_b 23.428200
_cell_length_c 5.248501
_cell_angle_alpha 90.000000
_cell_angle_beta 90.000000
_cell_angle_gamma 90.000000
_cell_volume 3571.512684
_symmetry_space_group_name_H-M "I M M A"
_symmetry_group_IT_number 74
_symmetry_cell_setting 'orthorhombic'
loop_
_space_group_symop_operation_xyz
x,y,z
-x,1/2-y,z
x,-y,-z
-x,1/2+y,-z
-x,-y,-z
x,1/2+y,-z
-x,y,z
x,1/2-y,z
1/2+x,1/2+y,1/2+z
1/2-x,-y,1/2+z
1/2+x,1/2-y,1/2-z
1/2-x,y,1/2-z
1/2-x,1/2-y,1/2-z
1/2+x,y,1/2-z
1/2-x,1/2+y,1/2+z
1/2+x,-y,1/2+z
loop_
_atom_site_type_symbol
_atom_site_label
_atom_site_fract_x
_atom_site_fract_y
_atom_site_fract_z
Si Si1 0.351338 0.912688 0.324158
Si Si2 0.050913 0.460571 0.749352
Si Si3 0.798953 0.315385 0.607207
Si Si4 0.800774 0.572447 0.672856
O O1 0.404641 0.920904 0.266375
O O2 0.335998 0.846992 0.287875
O O3 0.336420 0.935710 0.598611
O O4 0.320409 0.943882 0.105498
O O5 0.055289 0.500000 0.500000
O O6 0.000000 0.432976 0.739630
O O7 0.052096 0.500000 0.000000
O O8 0.809033 0.250000 0.546307
O O9 0.750000 0.318500 0.750000
O O10 0.797044 0.358487 0.369272
O O11 0.750000 0.551647 0.750000
#
# Coordination Sequence:
#
# PCOD9534113 Si02
#       4
#    16  16  16  16
#     4  10  19  32  52  76 105 136 167 217 262 300
#     4  10  21  38  60  81  97 124 174 227 270 312
#     4   9  18  30  50  77 107 144 179 208 243 295
#     4  10  17  31  47  73 107 140 168 203 244 299
#
# _framework density 17.919577
#
# number of rings (size 3 to 8) (size 9 to 14) (size 15 to 20)
#    1.500    0.750    2.500    2.250    0.000    1.500 
#    0.000    0.000    0.000   26.250    0.000    0.000 
#    0.000    0.000    0.000    0.000    0.000    0.000 
#
# Total GULP energy -178260.082801 kJ/mol
# GULP energy per Si atom -5570.627588 kJ/mol
# Density = 1.787879 g / cm^3
# Si number density = 17.919577 Si / 1000 Ang^3
#
#
#
# Elastic Constant Matrix: (Units=GPa)
#
#
# Indices 1 2 3 4 5 6 
#
# 1 141.3715 18.8856 20.4060 0.0000 0.0000 0.0000
# 2 18.8856 55.9659 2.7083 0.0000 0.0000 0.0000
# 3 20.4060 2.7083 114.3307 0.0000 0.0000 0.0000
# 4 0.0000 0.0000 0.0000 20.9805 0.0000 0.0000
# 5 0.0000 0.0000 0.0000 0.0000 26.6826 0.0000
# 6 0.0000 0.0000 0.0000 0.0000 0.0000 13.6656
#
#
#
# Elastic Compliance Matrix: (Units=1/GPa)
#
#
# Indices 1 2 3 4 5 6 
#
# 1 0.007595 -0.002500 -0.001296 0.000000 0.000000 0.000000
# 2 -0.002500 0.018712 0.000003 0.000000 0.000000 0.000000
# 3 -0.001296 0.000003 0.008978 0.000000 0.000000 0.000000
# 4 0.000000 0.000000 0.000000 0.047663 0.000000 0.000000
# 5 0.000000 0.000000 0.000000 0.000000 0.037478 0.000000
# 6 0.000000 0.000000 0.000000 0.000000 0.000000 0.073177
#
#
# Mechanical properties :
#
#
# Convention : Reuss Voigt Hill
#
# Bulk Modulus (GPa) = 36.10465 43.96310 40.03387
# Shear Modulus (GPa) = 23.76191 30.24360 27.00276
#
# Velocity S-wave (km/s) = 3.64542 4.11267 3.88607
# Velocity P-wave (km/s) = 6.15717 6.86578 6.52110
#
# Compressibility (1/GPa) = 0.02769727
#
# Stress axis : x y z
#
# Youngs Moduli (GPa) = 131.67159 53.44297 111.38520
#
# Poissons Ratio (x) = 0.13361 0.14439
# Poissons Ratio (y) = 0.32919 -0.00033
# Poissons Ratio (z) = 0.17068 -0.00016
#
# Static dielectric constant tensor:
#      x y z
#    x 1.609480 0.000000 0.000000 
#    y 0.000000 1.662280 0.000000 
#    z 0.000000 0.000000 1.643010 
# 
# From -- ./inp_files/3021.got.cif
#   From: 2010.05.17/outbox.cif.g08.bks.cpg/sg74_2_cif.got.tgz:3021.got - 2010.06.03 17:57:02.
