data_PCOD9534278
_publ_section_title
;
Structure prediction by ZEFSAII (Michael W. Deem and Ramdas Pophale) SiO2 
 PCOD9534278
Probable space group: I M M A
;
_chemical_formula_sum "Si O2"
_cell_formula_units_Z 72
_cell_length_a 7.320317
_cell_length_b 18.699472
_cell_length_c 24.208163
_cell_angle_alpha 90.000000
_cell_angle_beta 90.000000
_cell_angle_gamma 90.000000
_cell_volume 3313.760120
_symmetry_space_group_name_H-M "I M M A"
_symmetry_group_IT_number 74
_symmetry_cell_setting 'orthorhombic'
loop_
_space_group_symop_operation_xyz
x,y,z
-x,1/2-y,z
x,-y,-z
-x,1/2+y,-z
-x,-y,-z
x,1/2+y,-z
-x,y,z
x,1/2-y,z
1/2+x,1/2+y,1/2+z
1/2-x,-y,1/2+z
1/2+x,1/2-y,1/2-z
1/2-x,y,1/2-z
1/2-x,1/2-y,1/2-z
1/2+x,y,1/2-z
1/2-x,1/2+y,1/2+z
1/2+x,-y,1/2+z
loop_
_atom_site_type_symbol
_atom_site_label
_atom_site_fract_x
_atom_site_fract_y
_atom_site_fract_z
Si Si1 0.723594 0.107015 0.377277
Si Si2 0.282702 0.250000 0.315202
Si Si3 0.717805 0.465421 0.684977
Si Si4 0.777212 0.168600 0.883784
Si Si5 0.778332 0.667583 0.991056
O O1 0.500000 0.106344 0.376469
O O2 0.784316 0.177276 0.343599
O O3 0.780156 0.117522 0.440856
O O4 0.786459 0.034858 0.347800
O O5 0.500000 0.250000 0.324233
O O6 0.250000 0.250000 0.250000
O O7 0.500000 0.464893 0.677087
O O8 0.750000 0.471035 0.750000
O O9 0.786059 0.391372 0.658765
O O10 0.719170 0.250000 0.871783
O O11 0.000000 0.169561 0.883300
O O12 0.721480 0.149859 0.946637
O O13 0.725176 0.750000 0.979477
O O14 0.000000 0.666718 0.991199
#
# Coordination Sequence:
#
# PCOD9534278 Si02
#       5
#    16   8  16  16  16
#     4   9  16  26  42  64  90 118 146 179 219 262
#     4  10  18  28  42  62  88 120 153 178 208 254
#     4  10  20  32  45  65  92 119 150 185 217 258
#     4   8  15  27  44  66  91 115 141 181 231 271
#     4   8  12  22  41  65  92 115 137 177 231 270
#
# _framework density 21.727582999999999
#
# number of rings (size 3 to 8) (size 9 to 14) (size 15 to 20)
#    0.000    3.111    1.111    2.000    0.000    1.333 
#    0.000    4.444    0.000    0.000    0.000    4.667 
#    0.000    0.000    0.000    0.000    0.000    0.000 
#
# Total GULP energy -200993.107159 kJ/mol
# GULP energy per Si atom -5583.141866 kJ/mol
# Density = 2.167813 g / cm^3
# Si number density = 21.727583 Si / 1000 Ang^3
#
#
#
# Elastic Constant Matrix: (Units=GPa)
#
#
# Indices 1 2 3 4 5 6 
#
# 1 85.7960 10.0552 -0.9700 0.0000 0.0000 0.0000
# 2 10.0552 161.6213 87.5291 0.0000 0.0000 0.0000
# 3 -0.9700 87.5291 103.7189 0.0000 0.0000 0.0000
# 4 0.0000 0.0000 0.0000 41.1729 0.0000 0.0000
# 5 0.0000 0.0000 0.0000 0.0000 12.5285 0.0000
# 6 0.0000 0.0000 0.0000 0.0000 0.0000 -16.1210
#
#
#
# Elastic Compliance Matrix: (Units=1/GPa)
#
#
# Indices 1 2 3 4 5 6 
#
# 1 0.011843 -0.001467 0.001349 0.000000 0.000000 0.000000
# 2 -0.001467 0.011577 -0.009784 0.000000 0.000000 0.000000
# 3 0.001349 -0.009784 0.017911 0.000000 0.000000 0.000000
# 4 0.000000 0.000000 0.000000 0.024288 0.000000 0.000000
# 5 0.000000 0.000000 0.000000 0.000000 0.079818 0.000000
# 6 0.000000 0.000000 0.000000 0.000000 0.000000 -0.062031
#
#
# Mechanical properties :
#
#
# Convention : Reuss Voigt Hill
#
# Bulk Modulus (GPa) = 46.45446 60.48498 53.46972
# Shear Modulus (GPa) = 45.29572 24.48420 34.88996
#
# Velocity S-wave (km/s) = 4.57082 3.36053 4.01158
# Velocity P-wave (km/s) = 7.02021 6.55407 6.79114
#
# Compressibility (1/GPa) = 0.02152646
#
# Stress axis : x y z
#
# Youngs Moduli (GPa) = 84.43956 86.37653 55.83252
#
# Poissons Ratio (x) = 0.12675 -0.07533
# Poissons Ratio (y) = 0.12391 0.54626
# Poissons Ratio (z) = -0.11392 0.84509
#
# Static dielectric constant tensor:
#      x y z
#    x 1.884620 0.000000 0.000000 
#    y 0.000000 1.758220 0.000000 
#    z 0.000000 0.000000 1.762340 
# 
# From -- ./inp_files/40976.got.cif
#   From: 2010.05.17/outbox.cif.g08.bks.cpg/sg74_21_cif.got.tgz:40976.got - 2010.06.03 17:57:02.
