data_PCOD9534656
_publ_section_title
;
Structure prediction by ZEFSAII (Michael W. Deem and Ramdas Pophale) SiO2 
 PCOD9534656
Probable space group: I M M A
;
_chemical_formula_sum "Si O2"
_cell_formula_units_Z 116
_cell_length_a 22.908503
_cell_length_b 7.354206
_cell_length_c 28.754542
_cell_angle_alpha 90.000000
_cell_angle_beta 90.000000
_cell_angle_gamma 90.000000
_cell_volume 4844.388402
_symmetry_space_group_name_H-M "I M M A"
_symmetry_group_IT_number 74
_symmetry_cell_setting 'orthorhombic'
loop_
_space_group_symop_operation_xyz
x,y,z
-x,1/2-y,z
x,-y,-z
-x,1/2+y,-z
-x,-y,-z
x,1/2+y,-z
-x,y,z
x,1/2-y,z
1/2+x,1/2+y,1/2+z
1/2-x,-y,1/2+z
1/2+x,1/2-y,1/2-z
1/2-x,y,1/2-z
1/2-x,1/2-y,1/2-z
1/2+x,y,1/2-z
1/2-x,1/2+y,1/2+z
1/2+x,-y,1/2+z
loop_
_atom_site_type_symbol
_atom_site_label
_atom_site_fract_x
_atom_site_fract_y
_atom_site_fract_z
Si Si1 0.233634 0.039383 0.147900
Si Si2 0.652636 0.454693 0.272703
Si Si3 0.069067 0.466132 0.851003
Si Si4 0.766993 0.033941 0.448111
Si Si5 0.000000 0.750000 0.457091
Si Si6 0.098954 0.472171 0.427980
Si Si7 0.870170 0.458756 0.327164
Si Si8 0.567176 0.033403 0.549844
O O1 0.213409 0.250000 0.146691
O O2 0.200980 0.959508 0.192884
O O3 0.230361 0.959308 0.095816
O O4 0.302465 0.039468 0.157759
O O5 0.674056 0.250000 0.260152
O O6 0.597966 0.445276 0.306909
O O7 0.632055 0.541512 0.224342
O O8 0.080090 0.250000 0.847011
O O9 0.092469 0.532515 0.901196
O O10 0.000000 0.493461 0.851795
O O11 0.767747 0.250000 0.440940
O O12 0.835240 0.978830 0.444473
O O13 0.745119 0.000000 0.500000
O O14 0.948928 0.590441 0.453496
O O15 0.091774 0.250000 0.432026
O O16 0.096018 0.524985 0.372792
O O17 0.890342 0.250000 0.321664
O O18 0.500000 0.962683 0.546898
O O19 0.563246 0.250000 0.554714
O O20 0.595902 0.000000 0.500000
#
# Coordination Sequence:
#
# PCOD9534656 Si02
#       8
#    16  16  16  16   4  16  16  16
#     4   8  15  30  54  83 105 131 172 224 282 334
#     4  10  18  30  54  81 103 131 178 227 269 325
#     4   9  19  35  47  62  99 142 168 201 259 323
#     4   9  18  34  59  82 112 151 187 231 287 353
#     4  12  22  36  62  86 116 160 202 250 286 346
#     4   9  20  38  57  83 119 154 198 246 295 339
#     4   8  15  32  55  78 104 139 176 224 281 333
#     4   8  14  26  45  63  79 109 155 197 238 281
#
# _framework density 23.945233000000002
#
# number of rings (size 3 to 8) (size 9 to 14) (size 15 to 20)
#    0.000    3.172    0.000    3.103    0.966    2.483 
#    2.483    3.103    1.517    4.138    0.000    0.000 
#    0.000    0.000    0.000    0.000    0.000    1.103 
#
# Total GULP energy -322907.121026 kJ/mol
# GULP energy per Si atom -5567.364156 kJ/mol
# Density = 2.389073 g / cm^3
# Si number density = 23.945233 Si / 1000 Ang^3
#
#
#
# Elastic Constant Matrix: (Units=GPa)
#
#
# Indices 1 2 3 4 5 6 
#
# 1 54.2044 16.8485 10.7332 0.0000 0.0000 0.0000
# 2 16.8485 99.0666 16.7071 0.0000 0.0000 0.0000
# 3 10.7332 16.7071 201.7277 0.0000 0.0000 0.0000
# 4 0.0000 0.0000 0.0000 5.3484 0.0000 0.0000
# 5 0.0000 0.0000 0.0000 0.0000 47.3924 0.0000
# 6 0.0000 0.0000 0.0000 0.0000 0.0000 21.2575
#
#
#
# Elastic Compliance Matrix: (Units=1/GPa)
#
#
# Indices 1 2 3 4 5 6 
#
# 1 0.019598 -0.003202 -0.000778 0.000000 0.000000 0.000000
# 2 -0.003202 0.010760 -0.000721 0.000000 0.000000 0.000000
# 3 -0.000778 -0.000721 0.005058 0.000000 0.000000 0.000000
# 4 0.000000 0.000000 0.000000 0.186970 0.000000 0.000000
# 5 0.000000 0.000000 0.000000 0.000000 0.021100 0.000000
# 6 0.000000 0.000000 0.000000 0.000000 0.000000 0.047042
#
#
# Mechanical properties :
#
#
# Convention : Reuss Voigt Hill
#
# Bulk Modulus (GPa) = 38.43799 49.28625 43.86212
# Shear Modulus (GPa) = 16.20210 35.51366 25.85788
#
# Velocity S-wave (km/s) = 2.60404 3.85531 3.28971
# Velocity P-wave (km/s) = 5.01285 6.35967 5.72600
#
# Compressibility (1/GPa) = 0.02601593
#
# Stress axis : x y z
#
# Youngs Moduli (GPa) = 51.02578 92.93385 197.69700
#
# Poissons Ratio (x) = 0.29757 0.15372
# Poissons Ratio (y) = 0.16338 0.14250
# Poissons Ratio (z) = 0.03968 0.06699
#
# Static dielectric constant tensor:
#      x y z
#    x 1.888660 0.000000 0.000000 
#    y 0.000000 1.970900 0.000000 
#    z 0.000000 0.000000 2.019740 
# 
# From -- ./inp_files/73778.got.cif
#   From: 2010.05.17/outbox.cif.g08.bks.cpg/sg74_37_cif.got.tgz:73778.got - 2010.06.03 17:57:02.
