data_PCOD9534699
_publ_section_title
;
Structure prediction by ZEFSAII (Michael W. Deem and Ramdas Pophale) SiO2 
 PCOD9534699
Probable space group: I M M A
;
_chemical_formula_sum "Si O2"
_cell_formula_units_Z 104
_cell_length_a 8.669788
_cell_length_b 30.258277
_cell_length_c 28.804565
_cell_angle_alpha 90.000000
_cell_angle_beta 90.000000
_cell_angle_gamma 90.000000
_cell_volume 7556.383538
_symmetry_space_group_name_H-M "I M M A"
_symmetry_group_IT_number 74
_symmetry_cell_setting 'orthorhombic'
loop_
_space_group_symop_operation_xyz
x,y,z
-x,1/2-y,z
x,-y,-z
-x,1/2+y,-z
-x,-y,-z
x,1/2+y,-z
-x,y,z
x,1/2-y,z
1/2+x,1/2+y,1/2+z
1/2-x,-y,1/2+z
1/2+x,1/2-y,1/2-z
1/2-x,y,1/2-z
1/2-x,1/2-y,1/2-z
1/2+x,y,1/2-z
1/2-x,1/2+y,1/2+z
1/2+x,-y,1/2+z
loop_
_atom_site_type_symbol
_atom_site_label
_atom_site_fract_x
_atom_site_fract_y
_atom_site_fract_z
Si Si1 0.184045 0.664726 0.349194
Si Si2 0.686539 0.198897 0.952417
Si Si3 0.816533 0.923112 0.197757
Si Si4 0.184411 0.750000 0.199370
Si Si5 0.686479 0.894584 0.020097
Si Si6 0.816220 0.459667 0.605581
Si Si7 0.824138 0.466823 0.043961
O O1 0.221353 0.677935 0.402043
O O2 0.263852 0.623618 0.324321
O O3 0.242390 0.707350 0.323186
O O4 0.000000 0.658045 0.346542
O O5 0.500000 0.201884 0.955844
O O6 0.743498 0.250000 0.957628
O O7 0.736702 0.156840 0.983481
O O8 0.750000 0.928951 0.250000
O O9 0.757321 0.955130 0.156510
O O10 0.000000 0.925078 0.201026
O O11 0.250000 0.750000 0.250000
O O12 0.000000 0.750000 0.196680
O O13 0.500000 0.895574 0.020495
O O14 0.733102 0.920870 0.068202
O O15 0.748176 0.923021 0.977077
O O16 0.769762 0.506075 0.582359
O O17 0.000000 0.455599 0.609895
O O18 0.000000 0.459140 0.059056
O O19 0.827892 0.500000 0.000000
#
# Coordination Sequence:
#
# PCOD9534699 Si02
#       7
#    16  16  16   8  16  16  16
#     4  11  20  35  51  62  78 105 140 182 226 269
#     4   9  16  28  47  66  83 109 143 179 220 265
#     4  12  24  36  48  64  86 112 144 181 223 269
#     4  12  24  36  46  60  74  96 132 180 230 274
#     4   9  16  28  46  66  86 111 141 175 217 265
#     4  10  18  31  49  67  86 110 141 178 219 265
#     4   9  17  28  43  66  90 111 135 170 216 261
#
# _framework density 13.763197999999999
#
# number of rings (size 3 to 8) (size 9 to 14) (size 15 to 20)
#    0.000    1.846    2.308    3.923    0.000    2.462 
#    0.000    0.000    0.000    0.000    0.000    0.000 
#    0.000    0.000    0.000    0.000    0.000    0.769 
#
# Total GULP energy -289491.044261 kJ/mol
# GULP energy per Si atom -5567.135467 kJ/mol
# Density = 1.373187 g / cm^3
# Si number density = 13.763198 Si / 1000 Ang^3
#
#
#
# Elastic Constant Matrix: (Units=GPa)
#
#
# Indices 1 2 3 4 5 6 
#
# 1 43.2029 28.2142 27.5526 0.0000 0.0000 0.0000
# 2 28.2142 99.9904 56.8216 0.0000 0.0000 0.0000
# 3 27.5526 56.8216 62.2229 0.0000 0.0000 0.0000
# 4 0.0000 0.0000 0.0000 28.2764 0.0000 0.0000
# 5 0.0000 0.0000 0.0000 0.0000 17.7115 0.0000
# 6 0.0000 0.0000 0.0000 0.0000 0.0000 18.1681
#
#
#
# Elastic Compliance Matrix: (Units=1/GPa)
#
#
# Indices 1 2 3 4 5 6 
#
# 1 0.032458 -0.002060 -0.012491 0.000000 0.000000 0.000000
# 2 -0.002060 0.020920 -0.018192 0.000000 0.000000 0.000000
# 3 -0.012491 -0.018192 0.038215 0.000000 0.000000 0.000000
# 4 0.000000 0.000000 0.000000 0.035365 0.000000 0.000000
# 5 0.000000 0.000000 0.000000 0.000000 0.056460 0.000000
# 6 0.000000 0.000000 0.000000 0.000000 0.000000 0.055042
#
#
# Mechanical properties :
#
#
# Convention : Reuss Voigt Hill
#
# Bulk Modulus (GPa) = 38.30414 47.84366 43.07390
# Shear Modulus (GPa) = 15.99232 19.01972 17.50602
#
# Velocity S-wave (km/s) = 3.41245 3.72146 3.57030
# Velocity P-wave (km/s) = 6.58921 7.30090 6.95417
#
# Compressibility (1/GPa) = 0.02610684
#
# Stress axis : x y z
#
# Youngs Moduli (GPa) = 30.80870 47.80058 26.16767
#
# Poissons Ratio (x) = 0.09849 0.32686
# Poissons Ratio (y) = 0.06348 0.47604
# Poissons Ratio (z) = 0.38484 0.86958
#
# Static dielectric constant tensor:
#      x y z
#    x 1.455910 0.000000 0.000000 
#    y 0.000000 1.471550 0.000000 
#    z 0.000000 0.000000 1.453070 
# 
# From -- ./inp_files/57864.got.cif
#   From: 2010.05.17/outbox.cif.g08.bks.cpg/sg74_29_cif.got.tgz:57864.got - 2010.06.03 17:57:02.
