data_PCOD9534783
_publ_section_title
;
Structure prediction by ZEFSAII (Michael W. Deem and Ramdas Pophale) SiO2 
 PCOD9534783
Probable space group: I M M A
;
_chemical_formula_sum "Si O2"
_cell_formula_units_Z 112
_cell_length_a 16.683029
_cell_length_b 15.541675
_cell_length_c 25.615187
_cell_angle_alpha 90.000000
_cell_angle_beta 90.000000
_cell_angle_gamma 90.000000
_cell_volume 6641.562416
_symmetry_space_group_name_H-M "I M M A"
_symmetry_group_IT_number 74
_symmetry_cell_setting 'orthorhombic'
loop_
_space_group_symop_operation_xyz
x,y,z
-x,1/2-y,z
x,-y,-z
-x,1/2+y,-z
-x,-y,-z
x,1/2+y,-z
-x,y,z
x,1/2-y,z
1/2+x,1/2+y,1/2+z
1/2-x,-y,1/2+z
1/2+x,1/2-y,1/2-z
1/2-x,y,1/2-z
1/2-x,1/2-y,1/2-z
1/2+x,y,1/2-z
1/2-x,1/2+y,1/2+z
1/2+x,-y,1/2+z
loop_
_atom_site_type_symbol
_atom_site_label
_atom_site_fract_x
_atom_site_fract_y
_atom_site_fract_z
Si Si1 0.590467 0.000000 0.331588
Si Si2 0.711560 0.650253 0.693606
Si Si3 0.592657 0.396384 1.000000
Si Si4 0.288440 0.150253 0.693606
Si Si5 0.275266 0.349213 0.918010
Si Si6 0.724734 0.849213 0.918010
Si Si7 0.652144 0.500000 0.556275
O O1 0.500000 0.000000 0.312659
O O2 0.639696 0.083838 0.314139
O O3 0.594591 0.000000 0.394439
O O4 0.639696 0.916162 0.314139
O O5 0.685332 0.750000 0.691178
O O6 0.750000 0.635323 0.750000
O O7 0.772993 0.637699 0.644842
O O8 0.500000 0.367962 1.000000
O O9 0.642497 0.365875 0.949125
O O10 0.594114 0.500000 0.000000
O O11 0.642497 0.365875 0.050875
O O12 0.314669 0.250000 0.691178
O O13 0.250000 0.135323 0.750000
O O14 0.227007 0.137699 0.644842
O O15 0.252095 0.250000 0.927717
O O16 0.210405 0.417140 0.938973
O O17 0.747905 0.750000 0.927717
O O18 0.789595 0.917140 0.938973
O O19 0.612445 0.500000 0.500000
#
# Coordination Sequence:
#
# PCOD9534783 Si02
#       7
#    16  16  16  16  16  16  16
#     4  10  21  34  52  79 108 136 166 208 264 309
#     4   9  19  36  58  79 101 135 179 218 253 305
#     4  11  21  33  49  74 109 140 168 212 268 313
#     4   9  19  36  58  79 101 135 179 218 253 305
#     4  10  18  31  53  75  98 133 173 211 253 301
#     4  10  18  31  53  75  98 133 173 211 253 301
#     4  10  18  32  50  73 102 131 169 208 245 302
#
# _framework density 16.863502
#
# number of rings (size 3 to 8) (size 9 to 14) (size 15 to 20)
#    0.000    2.143    2.857    0.857    0.000    2.000 
#    0.000    1.429    0.000    5.143    0.000    8.000 
#    0.000    0.000    0.000    0.000    0.000    0.000 
#
# Total GULP energy -312046.099297 kJ/mol
# GULP energy per Si atom -5572.251773 kJ/mol
# Density = 1.682512 g / cm^3
# Si number density = 16.863502 Si / 1000 Ang^3
#
#
#
# Elastic Constant Matrix: (Units=GPa)
#
#
# Indices 1 2 3 4 5 6 
#
# 1 107.1272 52.8971 50.9887 0.0000 0.0000 0.0000
# 2 52.8971 99.3483 55.2711 0.0000 0.0000 0.0000
# 3 50.9887 55.2711 135.3636 0.0000 0.0000 0.0000
# 4 0.0000 0.0000 0.0000 24.0893 0.0000 0.0000
# 5 0.0000 0.0000 0.0000 0.0000 12.3703 0.0000
# 6 0.0000 0.0000 0.0000 0.0000 0.0000 -15.3898
#
#
#
# Elastic Compliance Matrix: (Units=1/GPa)
#
#
# Indices 1 2 3 4 5 6 
#
# 1 0.013419 -0.005606 -0.002766 0.000000 0.000000 0.000000
# 2 -0.005606 0.015366 -0.004163 0.000000 0.000000 0.000000
# 3 -0.002766 -0.004163 0.010129 0.000000 0.000000 0.000000
# 4 0.000000 0.000000 0.000000 0.041512 0.000000 0.000000
# 5 0.000000 0.000000 0.000000 0.000000 0.080839 0.000000
# 6 0.000000 0.000000 0.000000 0.000000 0.000000 -0.064978
#
#
# Mechanical properties :
#
#
# Convention : Reuss Voigt Hill
#
# Bulk Modulus (GPa) = 72.22528 73.35035 72.78781
# Shear Modulus (GPa) = 39.69128 16.39275 28.04202
#
# Velocity S-wave (km/s) = 4.85674 3.12121 4.08227
# Velocity P-wave (km/s) = 8.62397 7.52198 8.09176
#
# Compressibility (1/GPa) = 0.01384557
#
# Stress axis : x y z
#
# Youngs Moduli (GPa) = 74.51928 65.07682 98.72738
#
# Poissons Ratio (x) = 0.36485 0.27304
# Poissons Ratio (y) = 0.41778 0.41096
# Poissons Ratio (z) = 0.20609 0.27089
#
# Static dielectric constant tensor:
#      x y z
#    x 1.520450 0.000000 0.000000 
#    y 0.000000 1.578580 0.000000 
#    z 0.000000 0.000000 1.596290 
# 
# From -- ./inp_files/67169.got.cif
#   From: 2010.05.17/outbox.cif.g08.bks.cpg/sg74_34_cif.got.tgz:67169.got - 2010.06.03 17:57:02.
