data_PCOD9534762
_publ_section_title
;
Structure prediction by ZEFSAII (Michael W. Deem and Ramdas Pophale) SiO2 
 PCOD9534762
Probable space group: I M M A
;
_chemical_formula_sum "Si O2"
_cell_formula_units_Z 72
_cell_length_a 7.857721
_cell_length_b 15.008955
_cell_length_c 31.048494
_cell_angle_alpha 90.000000
_cell_angle_beta 90.000000
_cell_angle_gamma 90.000000
_cell_volume 3661.740805
_symmetry_space_group_name_H-M "I M M A"
_symmetry_group_IT_number 74
_symmetry_cell_setting 'orthorhombic'
loop_
_space_group_symop_operation_xyz
x,y,z
-x,1/2-y,z
x,-y,-z
-x,1/2+y,-z
-x,-y,-z
x,1/2+y,-z
-x,y,z
x,1/2-y,z
1/2+x,1/2+y,1/2+z
1/2-x,-y,1/2+z
1/2+x,1/2-y,1/2-z
1/2-x,y,1/2-z
1/2-x,1/2-y,1/2-z
1/2+x,y,1/2-z
1/2-x,1/2+y,1/2+z
1/2+x,-y,1/2+z
loop_
_atom_site_type_symbol
_atom_site_label
_atom_site_fract_x
_atom_site_fract_y
_atom_site_fract_z
Si Si1 0.208931 0.440045 0.622855
Si Si2 0.792339 0.557347 0.541614
Si Si3 0.200083 0.055201 0.300017
Si Si4 0.292079 0.250000 0.912674
Si Si5 0.708088 0.750000 0.986819
Si Si6 0.200611 0.250000 0.199448
O O1 0.261140 0.506997 0.584701
O O2 0.271818 0.480747 0.667904
O O3 0.263579 0.340379 0.610817
O O4 0.000000 0.438726 0.623195
O O5 0.740354 0.500000 0.500000
O O6 0.735539 0.659013 0.535863
O O7 0.000000 0.558077 0.541714
O O8 0.250000 0.049147 0.250000
O O9 0.235903 0.155123 0.317482
O O10 0.000000 0.044426 0.300461
O O11 0.500000 0.250000 0.912876
O O12 0.240741 0.250000 0.962888
O O13 0.500000 0.750000 0.986604
O O14 0.250000 0.250000 0.250000
O O15 0.000000 0.250000 0.196336
#
# Coordination Sequence:
#
# PCOD9534762 Si02
#       6
#    16  16  16   8   8   8
#     4   9  17  26  40  61  90 127 165 198 238 289
#     4   9  14  21  33  54  83 120 158 190 233 290
#     4  10  19  32  49  71  99 131 162 201 242 285
#     4   9  14  24  38  56  83 125 168 194 227 285
#     4   9  14  19  33  52  80 119 157 192 226 284
#     4  10  18  31  52  74  95 124 157 194 241 295
#
# _framework density 19.662779
#
# number of rings (size 3 to 8) (size 9 to 14) (size 15 to 20)
#    0.000    2.667    2.222    3.000    0.000    0.889 
#    0.000    3.889    0.000    0.000    0.000    2.333 
#    0.000    3.556    0.000    0.000    0.889    0.000 
#
# Total GULP energy -200752.479657 kJ/mol
# GULP energy per Si atom -5576.457768 kJ/mol
# Density = 1.961803 g / cm^3
# Si number density = 19.662779 Si / 1000 Ang^3
#
#
#
# Elastic Constant Matrix: (Units=GPa)
#
#
# Indices 1 2 3 4 5 6 
#
# 1 20.6156 4.5803 10.6702 0.0000 0.0000 0.0000
# 2 4.5803 216.3702 96.9632 0.0000 0.0000 0.0000
# 3 10.6702 96.9632 112.9045 0.0000 0.0000 0.0000
# 4 0.0000 0.0000 0.0000 33.9184 0.0000 0.0000
# 5 0.0000 0.0000 0.0000 0.0000 3.4422 0.0000
# 6 0.0000 0.0000 0.0000 0.0000 0.0000 -0.0408
#
#
#
# Elastic Compliance Matrix: (Units=1/GPa)
#
#
# Indices 1 2 3 4 5 6 
#
# 1 0.051416 0.001771 -0.006380 0.000000 0.000000 0.000000
# 2 0.001771 0.007574 -0.006672 0.000000 0.000000 0.000000
# 3 -0.006380 -0.006672 0.015190 0.000000 0.000000 0.000000
# 4 0.000000 0.000000 0.000000 0.029483 0.000000 0.000000
# 5 0.000000 0.000000 0.000000 0.000000 0.290508 0.000001
# 6 0.000000 0.000000 0.000000 0.000000 0.000001-24.488264
#
#
# Mechanical properties :
#
#
# Convention : Reuss Voigt Hill
#
# Bulk Modulus (GPa) = 19.37332 63.81308 41.59320
# Shear Modulus (GPa) = -0.20786 23.30907 11.55060
#
# Velocity S-wave (km/s) = -0.32549 3.44676 2.42634
# Velocity P-wave (km/s) = 3.11976 6.95445 5.38968
#
# Compressibility (1/GPa) = 0.05161738
#
# Stress axis : x y z
#
# Youngs Moduli (GPa) = 19.44933 132.02620 65.83254
#
# Poissons Ratio (x) = -0.23376 0.41999
# Poissons Ratio (y) = -0.03444 0.43924
# Poissons Ratio (z) = 0.12408 0.88090
#
# Static dielectric constant tensor:
#      x y z
#    x 1.986710 0.000000 0.000000 
#    y 0.000000 1.631830 0.000000 
#    z 0.000000 0.000000 1.704710 
# 
# From -- ./inp_files/70025.got.cif
#   From: 2010.05.17/outbox.cif.g08.bks.cpg/sg74_36_cif.got.tgz:70025.got - 2010.06.03 17:57:02.
