data_PCOD9534529
_publ_section_title
;
Structure prediction by ZEFSAII (Michael W. Deem and Ramdas Pophale) SiO2 
 PCOD9534529
Probable space group: I M M A
;
_chemical_formula_sum "Si O2"
_cell_formula_units_Z 100
_cell_length_a 8.916246
_cell_length_b 29.119167
_cell_length_c 28.718866
_cell_angle_alpha 90.000000
_cell_angle_beta 90.000000
_cell_angle_gamma 90.000000
_cell_volume 7456.384184
_symmetry_space_group_name_H-M "I M M A"
_symmetry_group_IT_number 74
_symmetry_cell_setting 'orthorhombic'
loop_
_space_group_symop_operation_xyz
x,y,z
-x,1/2-y,z
x,-y,-z
-x,1/2+y,-z
-x,-y,-z
x,1/2+y,-z
-x,y,z
x,1/2-y,z
1/2+x,1/2+y,1/2+z
1/2-x,-y,1/2+z
1/2+x,1/2-y,1/2-z
1/2-x,y,1/2-z
1/2-x,1/2-y,1/2-z
1/2+x,y,1/2-z
1/2-x,1/2+y,1/2+z
1/2+x,-y,1/2+z
loop_
_atom_site_type_symbol
_atom_site_label
_atom_site_fract_x
_atom_site_fract_y
_atom_site_fract_z
Si Si1 0.180005 0.197648 0.574221
Si Si2 0.827533 0.962218 0.958436
Si Si3 0.321244 0.069815 0.700000
Si Si4 0.750000 0.250000 0.750000
Si Si5 0.320545 0.324264 0.673900
Si Si6 0.678988 0.968057 0.107822
Si Si7 0.679581 0.604922 0.026772
O O1 0.213656 0.250000 0.559929
O O2 0.263376 0.186389 0.622292
O O3 0.219285 0.157451 0.537972
O O4 0.000000 0.194385 0.582212
O O5 0.000000 0.955260 0.945111
O O6 0.735740 0.985527 0.916821
O O7 0.757555 0.917234 0.981998
O O8 0.823263 0.000000 0.000000
O O9 0.500000 0.064215 0.701956
O O10 0.250000 0.059057 0.750000
O O11 0.289264 0.123242 0.687667
O O12 0.253817 0.040883 0.657449
O O13 0.756906 0.210079 0.709680
O O14 0.500000 0.316142 0.677303
O O15 0.500000 0.968233 0.112208
O O16 0.719629 0.926269 0.072141
O O17 0.500000 0.601087 0.021219
#
# Coordination Sequence:
#
# PCOD9534529 Si02
#       7
#    16  16  16   4  16  16  16
#     4  10  20  32  46  62  82 109 140 176 219 262
#     4   9  17  28  44  66  86 106 131 165 208 256
#     4  11  22  34  45  60  81 108 141 178 220 264
#     4  12  22  36  44  58  74 104 144 190 234 272
#     4  11  23  34  45  58  75 102 139 184 227 265
#     4  10  18  30  47  65  84 107 134 171 215 261
#     4   9  17  29  44  63  85 109 136 170 213 260
#
# _framework density 13.411325
#
# number of rings (size 3 to 8) (size 9 to 14) (size 15 to 20)
#    0.000    1.920    3.200    1.680    0.000    5.120 
#    0.000    0.000    0.000    0.000    0.000    0.000 
#    0.000    0.000    0.000    0.000    0.000    0.800 
#
# Total GULP energy -278369.323052 kJ/mol
# GULP energy per Si atom -5567.386461 kJ/mol
# Density = 1.338080 g / cm^3
# Si number density = 13.411325 Si / 1000 Ang^3
#
#
#
# Elastic Constant Matrix: (Units=GPa)
#
#
# Indices 1 2 3 4 5 6 
#
# 1 34.6612 28.9196 37.9343 0.0000 0.0000 0.0000
# 2 28.9196 68.6906 55.3393 0.0000 0.0000 0.0000
# 3 37.9343 55.3393 80.0866 0.0000 0.0000 0.0000
# 4 0.0000 0.0000 0.0000 29.2258 0.0000 0.0000
# 5 0.0000 0.0000 0.0000 0.0000 12.5152 0.0000
# 6 0.0000 0.0000 0.0000 0.0000 0.0000 9.6878
#
#
#
# Elastic Compliance Matrix: (Units=1/GPa)
#
#
# Indices 1 2 3 4 5 6 
#
# 1 0.060782 -0.005404 -0.025056 0.000000 0.000000 0.000000
# 2 -0.005404 0.033320 -0.020464 0.000000 0.000000 0.000000
# 3 -0.025056 -0.020464 0.038495 0.000000 0.000000 0.000000
# 4 0.000000 0.000000 0.000000 0.034216 0.000000 0.000000
# 5 0.000000 0.000000 0.000000 0.000000 0.079903 0.000000
# 6 0.000000 0.000000 0.000000 0.000000 0.000000 0.103223
#
#
# Mechanical properties :
#
#
# Convention : Reuss Voigt Hill
#
# Bulk Modulus (GPa) = 32.52194 47.53609 40.02902
# Shear Modulus (GPa) = 10.82166 14.36878 12.59522
#
# Velocity S-wave (km/s) = 2.84369 3.27676 3.06788
# Velocity P-wave (km/s) = 5.92320 7.05960 6.51622
#
# Compressibility (1/GPa) = 0.03074847
#
# Stress axis : x y z
#
# Youngs Moduli (GPa) = 16.45231 30.01243 25.97715
#
# Poissons Ratio (x) = 0.16218 0.65089
# Poissons Ratio (y) = 0.08890 0.53160
# Poissons Ratio (z) = 0.41224 0.61418
#
# Static dielectric constant tensor:
#      x y z
#    x 1.462280 0.000000 0.000000 
#    y 0.000000 1.436170 0.000000 
#    z 0.000000 0.000000 1.411700 
# 
# From -- ./inp_files/65262.got.cif
#   From: 2010.05.17/outbox.cif.g08.bks.cpg/sg74_33_cif.got.tgz:65262.got - 2010.06.03 17:57:02.
