data_PCOD9534256
_publ_section_title
;
Structure prediction by ZEFSAII (Michael W. Deem and Ramdas Pophale) SiO2 
 PCOD9534256
Probable space group: I M M A
;
_chemical_formula_sum "Si O2"
_cell_formula_units_Z 80
_cell_length_a 18.716627
_cell_length_b 9.155433
_cell_length_c 37.257002
_cell_angle_alpha 90.000000
_cell_angle_beta 90.000000
_cell_angle_gamma 90.000000
_cell_volume 6384.316067
_symmetry_space_group_name_H-M "I M M A"
_symmetry_group_IT_number 74
_symmetry_cell_setting 'orthorhombic'
loop_
_space_group_symop_operation_xyz
x,y,z
-x,1/2-y,z
x,-y,-z
-x,1/2+y,-z
-x,-y,-z
x,1/2+y,-z
-x,y,z
x,1/2-y,z
1/2+x,1/2+y,1/2+z
1/2-x,-y,1/2+z
1/2+x,1/2-y,1/2-z
1/2-x,y,1/2-z
1/2-x,1/2-y,1/2-z
1/2+x,y,1/2-z
1/2-x,1/2+y,1/2+z
1/2+x,-y,1/2+z
loop_
_atom_site_type_symbol
_atom_site_label
_atom_site_fract_x
_atom_site_fract_y
_atom_site_fract_z
Si Si1 0.914475 0.923407 0.110052
Si Si2 0.913095 0.581462 0.963854
Si Si3 0.209511 0.082054 0.711449
Si Si4 0.161259 0.575667 0.823069
Si Si5 0.083066 0.075591 0.252476
O O1 0.901497 0.750000 0.109563
O O2 0.000000 0.945817 0.114400
O O3 0.892939 0.995760 0.072211
O O4 0.874006 0.999608 0.142754
O O5 0.889856 0.750000 0.962973
O O6 0.000000 0.581873 0.964714
O O7 0.889045 0.500000 0.000000
O O8 0.202904 0.250000 0.699871
O O9 0.250000 0.081086 0.750000
O O10 0.260882 0.990386 0.685492
O O11 0.133640 0.008347 0.719695
O O12 0.164723 0.750000 0.827698
O O13 0.112697 0.545864 0.787697
O O14 0.090104 0.250000 0.258044
O O15 0.000000 0.035568 0.255016
#
# Coordination Sequence:
#
# PCOD9534256 Si02
#       5
#    16  16  16  16  16
#     4  10  19  28  38  54  75  97 123 156 191 224
#     4   9  16  26  39  53  70  93 121 152 185 220
#     4   9  17  28  40  54  72  94 120 150 186 226
#     4  10  18  28  41  55  73  97 124 154 189 226
#     4   9  17  28  41  56  73  94 122 155 189 225
#
# _framework density 12.530708000000001
#
# number of rings (size 3 to 8) (size 9 to 14) (size 15 to 20)
#    0.000    2.600    0.000    3.000    0.000    8.000 
#    0.000    0.000    0.000    0.000    0.000    0.000 
#    0.000    0.000    0.000    0.000    0.000    1.000 
#
# Total GULP energy -222908.962415 kJ/mol
# GULP energy per Si atom -5572.724060 kJ/mol
# Density = 1.250219 g / cm^3
# Si number density = 12.530708 Si / 1000 Ang^3
#
#
#
# Elastic Constant Matrix: (Units=GPa)
#
#
# Indices 1 2 3 4 5 6 
#
# 1 78.5417 52.0650 42.2106 0.0000 0.0000 0.0000
# 2 52.0650 99.6988 68.1096 0.0000 0.0000 0.0000
# 3 42.2106 68.1096 88.3645 0.0000 0.0000 0.0000
# 4 0.0000 0.0000 0.0000 23.5142 0.0000 0.0000
# 5 0.0000 0.0000 0.0000 0.0000 13.8612 0.0000
# 6 0.0000 0.0000 0.0000 0.0000 0.0000 18.6025
#
#
#
# Elastic Compliance Matrix: (Units=1/GPa)
#
#
# Indices 1 2 3 4 5 6 
#
# 1 0.019882 -0.008226 -0.003157 0.000000 0.000000 0.000000
# 2 -0.008226 0.024590 -0.015024 0.000000 0.000000 0.000000
# 3 -0.003157 -0.015024 0.024405 0.000000 0.000000 0.000000
# 4 0.000000 0.000000 0.000000 0.042528 0.000000 0.000000
# 5 0.000000 0.000000 0.000000 0.000000 0.072144 0.000000
# 6 0.000000 0.000000 0.000000 0.000000 0.000000 0.053756
#
#
# Mechanical properties :
#
#
# Convention : Reuss Voigt Hill
#
# Bulk Modulus (GPa) = 62.25522 65.70838 63.98180
# Shear Modulus (GPa) = 16.92215 18.14354 17.53284
#
# Velocity S-wave (km/s) = 3.67884 3.80929 3.74463
# Velocity P-wave (km/s) = 8.23621 8.47935 8.35866
#
# Compressibility (1/GPa) = 0.01606291
#
# Stress axis : x y z
#
# Youngs Moduli (GPa) = 50.29754 40.66770 40.97602
#
# Poissons Ratio (x) = 0.33454 0.12935
# Poissons Ratio (y) = 0.41376 0.61561
# Poissons Ratio (z) = 0.15877 0.61097
#
# Static dielectric constant tensor:
#      x y z
#    x 1.385110 0.000000 0.000000 
#    y 0.000000 1.419360 0.000000 
#    z 0.000000 0.000000 1.387580 
# 
# From -- ./inp_files/70119.got.cif
#   From: 2010.05.17/outbox.cif.g08.bks.cpg/sg74_36_cif.got.tgz:70119.got - 2010.06.03 17:57:02.
