data_PCOD9534321
_publ_section_title
;
Structure prediction by ZEFSAII (Michael W. Deem and Ramdas Pophale) SiO2 
 PCOD9534321
Probable space group: I M M A
;
_chemical_formula_sum "Si O2"
_cell_formula_units_Z 80
_cell_length_a 15.499844
_cell_length_b 23.226397
_cell_length_c 11.265786
_cell_angle_alpha 90.000000
_cell_angle_beta 90.000000
_cell_angle_gamma 90.000000
_cell_volume 4055.745262
_symmetry_space_group_name_H-M "I M M A"
_symmetry_group_IT_number 74
_symmetry_cell_setting 'orthorhombic'
loop_
_space_group_symop_operation_xyz
x,y,z
-x,1/2-y,z
x,-y,-z
-x,1/2+y,-z
-x,-y,-z
x,1/2+y,-z
-x,y,z
x,1/2-y,z
1/2+x,1/2+y,1/2+z
1/2-x,-y,1/2+z
1/2+x,1/2-y,1/2-z
1/2-x,y,1/2-z
1/2-x,1/2-y,1/2-z
1/2+x,y,1/2-z
1/2-x,1/2+y,1/2+z
1/2+x,-y,1/2+z
loop_
_atom_site_type_symbol
_atom_site_label
_atom_site_fract_x
_atom_site_fract_y
_atom_site_fract_z
Si Si1 0.400369 0.914585 0.466836
Si Si2 0.403303 0.502882 0.243546
Si Si3 0.150353 0.182978 0.782033
Si Si4 0.770223 0.942686 0.582288
Si Si5 0.406876 0.614007 0.069305
O O1 0.500000 0.915018 0.506166
O O2 0.389971 0.966850 0.371196
O O3 0.381806 0.857862 0.387772
O O4 0.327935 0.920361 0.567728
O O5 0.500000 0.477681 0.239311
O O6 0.327166 0.462480 0.195708
O O7 0.404181 0.557276 0.153211
O O8 0.141857 0.250000 0.810668
O O9 0.250000 0.169493 0.750000
O O10 0.101593 0.166068 0.661237
O O11 0.828447 0.893658 0.519705
O O12 0.772868 0.000000 0.500000
O O13 0.500000 0.614877 0.008832
#
# Coordination Sequence:
#
# PCOD9534321 Si02
#       5
#    16  16  16  16  16
#     4  10  20  33  47  67  95 127 165 195 229 277
#     4   8  16  29  46  65  86 118 158 197 232 276
#     4  10  18  29  45  63  89 124 161 191 226 274
#     4  10  18  28  46  63  89 119 158 194 239 271
#     4   9  16  26  41  61  83 109 150 190 224 262
#
# _framework density 19.725104999999999
#
# number of rings (size 3 to 8) (size 9 to 14) (size 15 to 20)
#    0.000    2.600    2.000    2.400    0.000    4.400 
#    0.000    0.000    0.000    2.400    0.000    0.000 
#    0.000    0.000    0.000   64.800    0.000  238.800 
#
# Total GULP energy -223107.032332 kJ/mol
# GULP energy per Si atom -5577.675808 kJ/mol
# Density = 1.968021 g / cm^3
# Si number density = 19.725105 Si / 1000 Ang^3
#
#
#
# Elastic Constant Matrix: (Units=GPa)
#
#
# Indices 1 2 3 4 5 6 
#
# 1 205.4779 39.9720 66.5851 0.0000 0.0000 0.0000
# 2 39.9720 42.5943 22.7710 0.0000 0.0000 0.0000
# 3 66.5851 22.7710 68.2252 -0.0002 0.0000 0.0000
# 4 0.0000 0.0000 -0.0002 20.3720 0.0000 0.0000
# 5 0.0000 0.0000 0.0000 0.0000 16.9103 0.0000
# 6 0.0000 0.0000 0.0000 0.0000 0.0000 19.5268
#
#
#
# Elastic Compliance Matrix: (Units=1/GPa)
#
#
# Indices 1 2 3 4 5 6 
#
# 1 0.007605 -0.003857 -0.006135 0.000000 0.000000 0.000000
# 2 -0.003857 0.030532 -0.006426 0.000000 0.000000 0.000000
# 3 -0.006135 -0.006426 0.022789 0.000000 0.000000 0.000000
# 4 0.000000 0.000000 0.000000 0.049087 0.000000 0.000000
# 5 0.000000 0.000000 0.000000 0.000000 0.059135 0.000000
# 6 0.000000 0.000000 0.000000 0.000000 0.000000 0.051212
#
#
# Mechanical properties :
#
#
# Convention : Reuss Voigt Hill
#
# Bulk Modulus (GPa) = 35.59896 63.88373 49.74134
# Shear Modulus (GPa) = 19.04320 23.82645 21.43483
#
# Velocity S-wave (km/s) = 3.11051 3.47929 3.30006
# Velocity P-wave (km/s) = 5.56660 6.97122 6.30813
#
# Compressibility (1/GPa) = 0.02809071
#
# Stress axis : x y z
#
# Youngs Moduli (GPa) = 131.49188 32.75204 43.87986
#
# Poissons Ratio (x) = 0.12633 0.26920
# Poissons Ratio (y) = 0.50718 0.28198
# Poissons Ratio (z) = 0.80668 0.21047
#
# Static dielectric constant tensor:
#      x y z
#    x 1.775690 0.000000 0.000000 
#    y 0.000000 1.660030 0.000000 
#    z 0.000000 0.000000 1.754490 
# 
# From -- ./inp_files/20491.got.cif
#   From: 2010.05.17/outbox.cif.g08.bks.cpg/sg74_11_cif.got.tgz:20491.got - 2010.06.03 17:57:02.
