data_PCOD9534864
_publ_section_title
;
Structure prediction by ZEFSAII (Michael W. Deem and Ramdas Pophale) SiO2 
 PCOD9534864
Probable space group: I M M A
;
_chemical_formula_sum "Si O2"
_cell_formula_units_Z 88
_cell_length_a 22.132323
_cell_length_b 8.881660
_cell_length_c 25.556140
_cell_angle_alpha 90.000000
_cell_angle_beta 90.000000
_cell_angle_gamma 90.000000
_cell_volume 5023.615620
_symmetry_space_group_name_H-M "I M M A"
_symmetry_group_IT_number 74
_symmetry_cell_setting 'orthorhombic'
loop_
_space_group_symop_operation_xyz
x,y,z
-x,1/2-y,z
x,-y,-z
-x,1/2+y,-z
-x,-y,-z
x,1/2+y,-z
-x,y,z
x,1/2-y,z
1/2+x,1/2+y,1/2+z
1/2-x,-y,1/2+z
1/2+x,1/2-y,1/2-z
1/2-x,y,1/2-z
1/2-x,1/2-y,1/2-z
1/2+x,y,1/2-z
1/2-x,1/2+y,1/2+z
1/2+x,-y,1/2+z
loop_
_atom_site_type_symbol
_atom_site_label
_atom_site_fract_x
_atom_site_fract_y
_atom_site_fract_z
Si Si1 0.152716 0.572571 0.654218
Si Si2 0.879225 0.927027 0.056887
Si Si3 0.177610 0.920818 0.239461
Si Si4 0.795993 0.576563 0.864818
Si Si5 0.929277 0.931335 0.556025
Si Si6 0.500000 0.070035 0.441190
O O1 0.140161 0.750000 0.663597
O O2 0.145893 0.481895 0.708251
O O3 0.223738 0.560930 0.639941
O O4 0.111636 0.521477 0.605435
O O5 0.889645 0.750000 0.051755
O O6 0.822046 0.966048 0.091857
O O7 0.938182 0.006001 0.082214
O O8 0.870621 0.000000 0.000000
O O9 0.158630 0.750000 0.227064
O O10 0.250000 0.916977 0.250000
O O11 0.173155 0.030493 0.189983
O O12 0.809561 0.750000 0.877977
O O13 0.925035 0.750000 0.552321
O O14 0.000000 0.970792 0.564488
O O15 0.910607 0.000000 0.500000
O O16 0.500000 0.250000 0.443146
O O17 0.500000 0.000000 0.500000
#
# Coordination Sequence:
#
# PCOD9534864 Si02
#       6
#    16  16  16  16  16   8
#     4   9  18  32  51  74 100 132 168 209 258 309
#     4  11  21  34  51  73 101 133 169 208 250 298
#     4   9  17  30  49  73  98 127 164 204 249 304
#     4  10  19  32  50  74 103 133 167 210 258 308
#     4   9  18  33  52  74 101 134 172 212 255 308
#     4  10  18  32  52  72  94 126 166 200 237 286
#
# _framework density 17.517264000000001
#
# number of rings (size 3 to 8) (size 9 to 14) (size 15 to 20)
#    0.000    2.364    0.000    4.636    0.000    4.364 
#    0.000    1.818    2.000    0.000    0.000    0.000 
#    0.000    0.000    0.000    0.000    0.000    0.000 
#
# Total GULP energy -245254.224836 kJ/mol
# GULP energy per Si atom -5573.959655 kJ/mol
# Density = 1.747739 g / cm^3
# Si number density = 17.517264 Si / 1000 Ang^3
#
#
#
# Elastic Constant Matrix: (Units=GPa)
#
#
# Indices 1 2 3 4 5 6 
#
# 1 32.8848 22.5475 33.7818 0.0000 0.0000 0.0000
# 2 22.5475 94.7740 25.6918 0.0000 0.0000 0.0000
# 3 33.7818 25.6918 94.2155 0.0000 0.0000 0.0000
# 4 0.0000 0.0000 0.0000 30.7881 0.0000 0.0000
# 5 0.0000 0.0000 0.0000 0.0000 19.3297 0.0000
# 6 0.0000 0.0000 0.0000 0.0000 0.0000 21.2885
#
#
#
# Elastic Compliance Matrix: (Units=1/GPa)
#
#
# Indices 1 2 3 4 5 6 
#
# 1 0.053345 -0.008105 -0.016917 0.000000 0.000000 0.000000
# 2 -0.008105 0.012625 -0.000537 0.000000 0.000000 0.000000
# 3 -0.016917 -0.000537 0.016826 0.000000 0.000000 0.000000
# 4 0.000000 0.000000 0.000000 0.032480 0.000000 0.000000
# 5 0.000000 0.000000 0.000000 0.000000 0.051734 0.000000
# 6 0.000000 0.000000 0.000000 0.000000 0.000000 0.046974
#
#
# Mechanical properties :
#
#
# Convention : Reuss Voigt Hill
#
# Bulk Modulus (GPa) = 31.56716 42.87961 37.22338
# Shear Modulus (GPa) = 18.13818 23.60479 20.87149
#
# Velocity S-wave (km/s) = 3.22133 3.67484 3.45553
# Velocity P-wave (km/s) = 5.64762 6.52208 6.10054
#
# Compressibility (1/GPa) = 0.03167849
#
# Stress axis : x y z
#
# Youngs Moduli (GPa) = 18.74586 79.20686 59.43162
#
# Poissons Ratio (x) = 0.64199 1.00541
# Poissons Ratio (y) = 0.15194 0.03189
# Poissons Ratio (z) = 0.31713 0.04250
#
# Static dielectric constant tensor:
#      x y z
#    x 1.624730 0.000000 0.000000 
#    y 0.000000 1.598300 0.000000 
#    z 0.000000 0.000000 1.596600 
# 
# From -- ./inp_files/61455.got.cif
#   From: 2010.05.17/outbox.cif.g08.bks.cpg/sg74_31_cif.got.tgz:61455.got - 2010.06.03 17:57:02.
