data_PCOD9534179
_publ_section_title
;
Structure prediction by ZEFSAII (Michael W. Deem and Ramdas Pophale) SiO2 
 PCOD9534179
Probable space group: I M M A
;
_chemical_formula_sum "Si O2"
_cell_formula_units_Z 96
_cell_length_a 9.247814
_cell_length_b 24.330864
_cell_length_c 36.316609
_cell_angle_alpha 90.000000
_cell_angle_beta 90.000000
_cell_angle_gamma 90.000000
_cell_volume 8171.502308
_symmetry_space_group_name_H-M "I M M A"
_symmetry_group_IT_number 74
_symmetry_cell_setting 'orthorhombic'
loop_
_space_group_symop_operation_xyz
x,y,z
-x,1/2-y,z
x,-y,-z
-x,1/2+y,-z
-x,-y,-z
x,1/2+y,-z
-x,y,z
x,1/2-y,z
1/2+x,1/2+y,1/2+z
1/2-x,-y,1/2+z
1/2+x,1/2-y,1/2-z
1/2-x,y,1/2-z
1/2-x,1/2-y,1/2-z
1/2+x,y,1/2-z
1/2-x,1/2+y,1/2+z
1/2+x,-y,1/2+z
loop_
_atom_site_type_symbol
_atom_site_label
_atom_site_fract_x
_atom_site_fract_y
_atom_site_fract_z
Si Si1 0.173315 0.628527 0.998003
Si Si2 0.326298 0.750000 0.486319
Si Si3 0.828914 0.362668 0.634925
Si Si4 0.327602 0.933620 0.424870
Si Si5 0.833484 0.750000 0.409913
Si Si6 0.173826 0.185548 0.711864
Si Si7 0.333815 0.968065 0.960760
O O1 0.218990 0.692154 0.995861
O O2 0.255010 0.589073 0.969634
O O3 0.000000 0.624206 0.992690
O O4 0.202992 0.605682 0.039494
O O5 0.500000 0.750000 0.485785
O O6 0.270103 0.750000 0.444678
O O7 0.739157 0.406055 0.611310
O O8 0.812825 0.304041 0.614526
O O9 0.784208 0.351745 0.677061
O O10 0.000000 0.376579 0.634075
O O11 0.500000 0.939020 0.422231
O O12 0.253872 0.991917 0.433805
O O13 0.000000 0.750000 0.423110
O O14 0.208884 0.250000 0.704218
O O15 0.250000 0.170372 0.750000
O O16 0.000000 0.182519 0.715593
O O17 0.000000 0.960920 0.550750
O O18 0.334325 0.000000 0.000000
#
# Coordination Sequence:
#
# PCOD9534179 Si02
#       7
#    16   8  16  16   8  16  16
#     4   9  17  27  38  52  72  94 116 144 179 216
#     4  10  18  28  38  53  75  96 117 146 183 221
#     4  10  18  28  40  54  72  93 117 148 186 224
#     4  10  18  27  40  55  71  90 116 148 182 218
#     4  10  18  26  37  51  71  94 116 146 184 223
#     4   9  17  29  41  53  70  93 119 147 181 221
#     4   9  17  28  40  52  68  90 117 145 177 216
#
# _framework density 11.748144999999999
#
# number of rings (size 3 to 8) (size 9 to 14) (size 15 to 20)
#    0.000    2.500    2.500    1.000    0.000    4.000 
#    0.000    0.000    0.000    0.000    0.000    0.000 
#    0.000    0.000    0.000    0.000    0.000    0.000 
#
# Total GULP energy -267402.189935 kJ/mol
# GULP energy per Si atom -5570.878957 kJ/mol
# Density = 1.172141 g / cm^3
# Si number density = 11.748145 Si / 1000 Ang^3
#
#
#
# Elastic Constant Matrix: (Units=GPa)
#
#
# Indices 1 2 3 4 5 6 
#
# 1 41.6670 41.5034 38.1541 0.0000 0.0000 0.0000
# 2 41.5034 86.2147 43.9603 0.0000 0.0000 0.0000
# 3 38.1541 43.9603 67.2991 0.0000 0.0000 0.0000
# 4 0.0000 0.0000 0.0000 19.1441 0.0000 0.0000
# 5 0.0000 0.0000 0.0000 0.0000 18.1243 0.0000
# 6 0.0000 0.0000 0.0000 0.0000 0.0000 17.4734
#
#
#
# Elastic Compliance Matrix: (Units=1/GPa)
#
#
# Indices 1 2 3 4 5 6 
#
# 1 0.065553 -0.018903 -0.024816 0.000000 0.000000 0.000000
# 2 -0.018903 0.022842 -0.004204 0.000000 0.000000 0.000000
# 3 -0.024816 -0.004204 0.031674 0.000000 0.000000 0.000000
# 4 0.000000 0.000000 0.000000 0.052235 0.000000 0.000000
# 5 0.000000 0.000000 0.000000 0.000000 0.055175 0.000000
# 6 0.000000 0.000000 0.000000 0.000000 0.000000 0.057230
#
#
# Mechanical properties :
#
#
# Convention : Reuss Voigt Hill
#
# Bulk Modulus (GPa) = 41.28392 49.15736 45.22064
# Shear Modulus (GPa) = 12.86569 15.71921 14.29245
#
# Velocity S-wave (km/s) = 3.31286 3.66186 3.49172
# Velocity P-wave (km/s) = 7.06049 7.73385 7.40483
#
# Compressibility (1/GPa) = 0.02422251
#
# Stress axis : x y z
#
# Youngs Moduli (GPa) = 15.25493 43.77812 31.57129
#
# Poissons Ratio (x) = 0.82754 0.78348
# Poissons Ratio (y) = 0.28836 0.13273
# Poissons Ratio (z) = 0.37857 0.18405
#
# Static dielectric constant tensor:
#      x y z
#    x 1.391380 0.000000 0.000000 
#    y 0.000000 1.377110 0.000000 
#    z 0.000000 0.000000 1.357530 
# 
# From -- ./inp_files/66441.got.cif
#   From: 2010.05.17/outbox.cif.g08.bks.cpg/sg74_34_cif.got.tgz:66441.got - 2010.06.03 17:57:02.
