data_PCOD9534717
_publ_section_title
;
Structure prediction by ZEFSAII (Michael W. Deem and Ramdas Pophale) SiO2 
 PCOD9534717
Probable space group: I M M A
;
_chemical_formula_sum "Si O2"
_cell_formula_units_Z 64
_cell_length_a 14.251262
_cell_length_b 15.779112
_cell_length_c 17.565765
_cell_angle_alpha 90.000000
_cell_angle_beta 90.000000
_cell_angle_gamma 90.000000
_cell_volume 3950.053261
_symmetry_space_group_name_H-M "I M M A"
_symmetry_group_IT_number 74
_symmetry_cell_setting 'orthorhombic'
loop_
_space_group_symop_operation_xyz
x,y,z
-x,1/2-y,z
x,-y,-z
-x,1/2+y,-z
-x,-y,-z
x,1/2+y,-z
-x,y,z
x,1/2-y,z
1/2+x,1/2+y,1/2+z
1/2-x,-y,1/2+z
1/2+x,1/2-y,1/2-z
1/2-x,y,1/2-z
1/2-x,1/2-y,1/2-z
1/2+x,y,1/2-z
1/2-x,1/2+y,1/2+z
1/2+x,-y,1/2+z
loop_
_atom_site_type_symbol
_atom_site_label
_atom_site_fract_x
_atom_site_fract_y
_atom_site_fract_z
Si Si1 0.655909 0.087162 0.043701
Si Si2 0.000000 0.154966 0.568502
Si Si3 0.500000 0.908961 0.457762
Si Si4 0.500000 0.980885 0.844809
Si Si5 0.859521 0.653207 0.925396
Si Si6 0.000000 0.964690 0.835061
O O1 0.590267 0.061381 0.114614
O O2 0.750196 0.133667 0.067516
O O3 0.590146 0.139521 0.985834
O O4 0.681343 0.000000 0.000000
O O5 0.000000 0.250000 0.599042
O O6 0.000000 0.079485 0.629840
O O7 0.409977 0.861591 0.492469
O O8 0.500000 0.000000 0.500000
O O9 0.500000 0.940494 0.371379
O O10 0.500000 0.968542 0.755196
O O11 0.876163 0.750000 0.901913
O O12 0.911227 0.588090 0.868333
#
# Coordination Sequence:
#
# PCOD9534717 Si02
#       6
#    16   8   8   8  16   8
#     4   9  17  32  52  71  92 124 159 191 232 281
#     4   9  17  32  52  75  94 116 157 205 234 264
#     4   8  16  30  49  66  87 121 159 193 230 273
#     4   9  20  33  48  69 100 130 155 182 230 294
#     4  10  18  31  50  72  93 120 160 205 236 266
#     4  10  19  33  47  68  99 131 156 186 233 293
#
# _framework density 16.202314000000001
#
# number of rings (size 3 to 8) (size 9 to 14) (size 15 to 20)
#    0.000    3.000    0.000    6.000    0.000    1.000 
#    0.000   10.000    0.000    0.000    0.000    8.750 
#    0.000    0.000    0.000    0.000    0.000    0.000 
#
# Total GULP energy -178188.237454 kJ/mol
# GULP energy per Si atom -5568.382420 kJ/mol
# Density = 1.616544 g / cm^3
# Si number density = 16.202314 Si / 1000 Ang^3
#
#
#
# Elastic Constant Matrix: (Units=GPa)
#
#
# Indices 1 2 3 4 5 6 
#
# 1 109.1664 37.9965 35.2786 0.0000 0.0000 0.0000
# 2 37.9965 80.1549 32.4321 0.0000 0.0000 0.0000
# 3 35.2786 32.4321 113.3671 0.0000 0.0000 0.0000
# 4 0.0000 0.0000 0.0000 9.1262 0.0000 0.0000
# 5 0.0000 0.0000 0.0000 0.0000 4.8730 0.0000
# 6 0.0000 0.0000 0.0000 0.0000 0.0000 1.6922
#
#
#
# Elastic Compliance Matrix: (Units=1/GPa)
#
#
# Indices 1 2 3 4 5 6 
#
# 1 0.011468 -0.004515 -0.002277 0.000000 0.000000 0.000000
# 2 -0.004515 0.015886 -0.003140 0.000000 0.000000 0.000000
# 3 -0.002277 -0.003140 0.010428 0.000000 0.000000 0.000000
# 4 0.000000 0.000000 0.000000 0.109575 0.000000 0.000000
# 5 0.000000 0.000000 0.000000 0.000000 0.205214 0.000000
# 6 0.000000 0.000000 0.000000 0.000000 0.000000 0.590964
#
#
# Mechanical properties :
#
#
# Convention : Reuss Voigt Hill
#
# Bulk Modulus (GPa) = 55.80817 57.12255 56.46536
# Shear Modulus (GPa) = 5.15799 16.27034 10.71416
#
# Velocity S-wave (km/s) = 1.78617 3.17235 2.57431
# Velocity P-wave (km/s) = 6.22681 6.98217 6.61528
#
# Compressibility (1/GPa) = 0.01791852
#
# Stress axis : x y z
#
# Youngs Moduli (GPa) = 87.20234 62.94673 95.89814
#
# Poissons Ratio (x) = 0.28419 0.21836
# Poissons Ratio (y) = 0.39370 0.30111
# Poissons Ratio (z) = 0.19856 0.19764
#
# Static dielectric constant tensor:
#      x y z
#    x 1.543430 0.000000 0.000000 
#    y 0.000000 1.557730 0.000000 
#    z 0.000000 0.000000 1.539600 
# 
# From -- ./inp_files/42454.got.cif
#   From: 2010.05.17/outbox.cif.g08.bks.cpg/sg74_22_cif.got.tgz:42454.got - 2010.06.03 17:57:02.
