data_PCOD9534396
_publ_section_title
;
Structure prediction by ZEFSAII (Michael W. Deem and Ramdas Pophale) SiO2 
 PCOD9534396
Probable space group: I M M A
;
_chemical_formula_sum "Si O2"
_cell_formula_units_Z 112
_cell_length_a 14.390307
_cell_length_b 19.677590
_cell_length_c 19.505541
_cell_angle_alpha 90.000000
_cell_angle_beta 90.000000
_cell_angle_gamma 90.000000
_cell_volume 5523.316968
_symmetry_space_group_name_H-M "I M M A"
_symmetry_group_IT_number 74
_symmetry_cell_setting 'orthorhombic'
loop_
_space_group_symop_operation_xyz
x,y,z
-x,1/2-y,z
x,-y,-z
-x,1/2+y,-z
-x,-y,-z
x,1/2+y,-z
-x,y,z
x,1/2-y,z
1/2+x,1/2+y,1/2+z
1/2-x,-y,1/2+z
1/2+x,1/2-y,1/2-z
1/2-x,y,1/2-z
1/2-x,1/2-y,1/2-z
1/2+x,y,1/2-z
1/2-x,1/2+y,1/2+z
1/2+x,-y,1/2+z
loop_
_atom_site_type_symbol
_atom_site_label
_atom_site_fract_x
_atom_site_fract_y
_atom_site_fract_z
Si Si1 0.385814 0.322335 0.615360
Si Si2 0.608175 0.555824 0.862212
Si Si3 0.387060 0.972122 0.426789
Si Si4 0.603377 0.145760 0.762096
Si Si5 0.386122 0.095519 0.901394
Si Si6 0.386434 0.327981 0.040825
Si Si7 0.853037 0.496756 0.223413
O O1 0.500000 0.324588 0.616887
O O2 0.359133 0.250000 0.583071
O O3 0.356288 0.393633 0.582682
O O4 0.353807 0.322231 0.694722
O O5 0.500000 0.553882 0.881722
O O6 0.645254 0.482821 0.890439
O O7 0.647164 0.623021 0.897764
O O8 0.612797 0.557124 0.779576
O O9 0.500000 0.973186 0.427168
O O10 0.358887 0.013330 0.357846
O O11 0.354561 0.000000 0.500000
O O12 0.500000 0.174371 0.770589
O O13 0.647120 0.140587 0.836894
O O14 0.595057 0.066833 0.739448
O O15 0.500000 0.094212 0.897572
O O16 0.361263 0.131736 0.971606
O O17 0.500000 0.324585 0.042406
O O18 0.353651 0.250000 0.042832
O O19 0.750000 0.509963 0.250000
#
# Coordination Sequence:
#
# PCOD9534396 Si02
#       7
#    16  16  16  16  16  16  16
#     4   8  13  22  40  67  94 117 144 182 230 281
#     4   9  16  28  45  62  85 118 152 184 224 275
#     4   9  17  31  51  72  94 122 156 195 238 278
#     4   8  14  25  41  62  89 120 148 175 218 277
#     4   8  13  22  37  58  84 114 147 178 209 251
#     4   9  16  24  37  61  90 117 148 187 221 248
#     4  10  18  29  46  69  91 113 147 193 235 275
#
# _framework density 20.277668999999999
#
# number of rings (size 3 to 8) (size 9 to 14) (size 15 to 20)
#    0.000    3.286    0.000    3.429    0.000    2.286 
#    0.000    5.714    0.000    8.143    0.000   12.000 
#    0.000    0.000    0.000    0.000    0.000    0.000 
#
# Total GULP energy -311844.165655 kJ/mol
# GULP energy per Si atom -5568.645815 kJ/mol
# Density = 2.023152 g / cm^3
# Si number density = 20.277669 Si / 1000 Ang^3
#
#
#
# Elastic Constant Matrix: (Units=GPa)
#
#
# Indices 1 2 3 4 5 6 
#
# 1 41.4899 12.3715 -2.5741 0.0000 0.0000 0.0000
# 2 12.3715 127.9434 96.7719 0.0000 0.0000 0.0000
# 3 -2.5741 96.7719 170.6988 0.0000 0.0000 0.0000
# 4 0.0000 0.0000 0.0000 11.8137 0.0000 0.0000
# 5 0.0000 0.0000 0.0000 0.0000 14.4970 0.0000
# 6 0.0000 0.0000 0.0000 0.0000 0.0000 -4.7992
#
#
#
# Elastic Compliance Matrix: (Units=1/GPa)
#
#
# Indices 1 2 3 4 5 6 
#
# 1 0.025751 -0.004873 0.003151 0.000000 0.000000 0.000000
# 2 -0.004873 0.014606 -0.008354 0.000000 0.000000 0.000000
# 3 0.003151 -0.008354 0.010642 0.000000 0.000000 0.000000
# 4 0.000000 0.000000 0.000000 0.084647 0.000000 0.000000
# 5 0.000000 0.000000 0.000000 0.000000 0.068980 0.000000
# 6 0.000000 0.000000 0.000000 0.000000 0.000000 -0.208366
#
#
# Mechanical properties :
#
#
# Convention : Reuss Voigt Hill
#
# Bulk Modulus (GPa) = 32.41879 61.47453 46.94666
# Shear Modulus (GPa) = 187.31809 19.87316 103.59562
#
# Velocity S-wave (km/s) = 9.62170 3.13397 7.15538
# Velocity P-wave (km/s) = 11.80924 6.59378 9.56389
#
# Compressibility (1/GPa) = 0.03084630
#
# Stress axis : x y z
#
# Youngs Moduli (GPa) = 38.83357 68.46697 93.97087
#
# Poissons Ratio (x) = 0.33367 -0.29611
# Poissons Ratio (y) = 0.18925 0.78500
# Poissons Ratio (z) = -0.12237 0.57195
#
# Static dielectric constant tensor:
#      x y z
#    x 1.817880 0.000000 0.000000 
#    y 0.000000 1.721990 0.000000 
#    z 0.000000 0.000000 1.746280 
# 
# From -- ./inp_files/44440.got.cif
#   From: 2010.05.17/outbox.cif.g08.bks.cpg/sg74_23_cif.got.tgz:44440.got - 2010.06.03 17:57:02.
