data_PCOD9534491
_publ_section_title
;
Structure prediction by ZEFSAII (Michael W. Deem and Ramdas Pophale) SiO2 
 PCOD9534491
Probable space group: I M M A
;
_chemical_formula_sum "Si O2"
_cell_formula_units_Z 72
_cell_length_a 17.401518
_cell_length_b 8.691831
_cell_length_c 28.836593
_cell_angle_alpha 90.000000
_cell_angle_beta 90.000000
_cell_angle_gamma 90.000000
_cell_volume 4361.565073
_symmetry_space_group_name_H-M "I M M A"
_symmetry_group_IT_number 74
_symmetry_cell_setting 'orthorhombic'
loop_
_space_group_symop_operation_xyz
x,y,z
-x,1/2-y,z
x,-y,-z
-x,1/2+y,-z
-x,-y,-z
x,1/2+y,-z
-x,y,z
x,1/2-y,z
1/2+x,1/2+y,1/2+z
1/2-x,-y,1/2+z
1/2+x,1/2-y,1/2-z
1/2-x,y,1/2-z
1/2-x,1/2-y,1/2-z
1/2+x,y,1/2-z
1/2-x,1/2+y,1/2+z
1/2+x,-y,1/2+z
loop_
_atom_site_type_symbol
_atom_site_label
_atom_site_fract_x
_atom_site_fract_y
_atom_site_fract_z
Si Si1 0.500000 0.565660 0.552292
Si Si2 0.914240 0.935375 0.799087
Si Si3 0.731110 0.065900 0.362014
Si Si4 0.338785 0.566741 0.448244
Si Si5 0.325753 0.928839 0.217139
O O1 0.500000 0.750000 0.553417
O O2 0.500000 0.500000 0.500000
O O3 0.419495 0.503005 0.570872
O O4 0.913101 0.750000 0.798431
O O5 0.845936 0.983557 0.833631
O O6 0.000000 0.985641 0.812807
O O7 0.892187 0.996052 0.748106
O O8 0.730025 0.250000 0.366853
O O9 0.725382 0.986854 0.411956
O O10 0.801984 0.014010 0.329986
O O11 0.326990 0.500000 0.500000
O O12 0.344978 0.750000 0.450978
O O13 0.341353 0.750000 0.208402
O O14 0.250000 0.939275 0.250000
#
# Coordination Sequence:
#
# PCOD9534491 Si02
#       5
#     8  16  16  16  16
#     4  10  18  30  44  58  80 112 148 186 228 266
#     4   9  18  31  47  68  92 120 153 190 230 276
#     4  10  19  31  48  67  90 123 157 192 231 276
#     4  11  21  33  46  64  88 118 154 194 233 272
#     4   9  17  30  46  65  90 119 150 188 230 275
#
# _framework density 16.507836000000001
#
# number of rings (size 3 to 8) (size 9 to 14) (size 15 to 20)
#    0.000    2.222    0.000    5.667    1.556    4.000 
#    0.000    0.000    0.000    0.000    0.000    0.000 
#    0.000    0.889    0.000    3.333    0.000    5.111 
#
# Total GULP energy -200735.772522 kJ/mol
# GULP energy per Si atom -5575.993681 kJ/mol
# Density = 1.647026 g / cm^3
# Si number density = 16.507836 Si / 1000 Ang^3
#
#
#
# Elastic Constant Matrix: (Units=GPa)
#
#
# Indices 1 2 3 4 5 6 
#
# 1 17.4346 -0.1777 11.5426 0.0000 0.0000 0.0000
# 2 -0.1777 74.8866 30.4022 0.0000 0.0000 0.0000
# 3 11.5426 30.4022 92.1604 0.0000 0.0000 0.0000
# 4 0.0000 0.0000 0.0000 24.8980 0.0000 0.0000
# 5 0.0000 0.0000 0.0000 0.0000 26.0393 0.0000
# 6 0.0000 0.0000 0.0000 0.0000 0.0000 16.3152
#
#
#
# Elastic Compliance Matrix: (Units=1/GPa)
#
#
# Indices 1 2 3 4 5 6 
#
# 1 0.063516 0.003903 -0.009243 0.000000 0.000000 0.000000
# 2 0.003903 0.015658 -0.005654 0.000000 0.000000 0.000000
# 3 -0.009243 -0.005654 0.013873 0.000000 0.000000 0.000000
# 4 0.000000 0.000000 0.000000 0.040164 0.000000 0.000000
# 5 0.000000 0.000000 0.000000 0.000000 0.038403 0.000000
# 6 0.000000 0.000000 0.000000 0.000000 0.000000 0.061293
#
#
# Mechanical properties :
#
#
# Convention : Reuss Voigt Hill
#
# Bulk Modulus (GPa) = 14.07257 29.77953 21.92605
# Shear Modulus (GPa) = 17.94801 22.96479 20.45640
#
# Velocity S-wave (km/s) = 3.30091 3.73385 3.52404
# Velocity P-wave (km/s) = 4.80326 6.05538 5.46530
#
# Compressibility (1/GPa) = 0.07106022
#
# Stress axis : x y z
#
# Youngs Moduli (GPa) = 15.74402 63.86404 72.08002
#
# Poissons Ratio (x) = -0.24926 0.66621
# Poissons Ratio (y) = -0.06145 0.40756
# Poissons Ratio (z) = 0.14552 0.36110
#
# Static dielectric constant tensor:
#      x y z
#    x 1.570230 0.000000 0.000000 
#    y 0.000000 1.546800 0.000000 
#    z 0.000000 0.000000 1.561970 
# 
# From -- ./inp_files/56689.got.cif
#   From: 2010.05.17/outbox.cif.g08.bks.cpg/sg74_29_cif.got.tgz:56689.got - 2010.06.03 17:57:02.
