data_PCOD9534844
_publ_section_title
;
Structure prediction by ZEFSAII (Michael W. Deem and Ramdas Pophale) SiO2 
 PCOD9534844
Probable space group: I M M A
;
_chemical_formula_sum "Si O2"
_cell_formula_units_Z 112
_cell_length_a 30.216695
_cell_length_b 14.085662
_cell_length_c 12.335623
_cell_angle_alpha 90.000000
_cell_angle_beta 90.000000
_cell_angle_gamma 90.000000
_cell_volume 5250.314414
_symmetry_space_group_name_H-M "I M M A"
_symmetry_group_IT_number 74
_symmetry_cell_setting 'orthorhombic'
loop_
_space_group_symop_operation_xyz
x,y,z
-x,1/2-y,z
x,-y,-z
-x,1/2+y,-z
-x,-y,-z
x,1/2+y,-z
-x,y,z
x,1/2-y,z
1/2+x,1/2+y,1/2+z
1/2-x,-y,1/2+z
1/2+x,1/2-y,1/2-z
1/2-x,y,1/2-z
1/2-x,1/2-y,1/2-z
1/2+x,y,1/2-z
1/2-x,1/2+y,1/2+z
1/2+x,-y,1/2+z
loop_
_atom_site_type_symbol
_atom_site_label
_atom_site_fract_x
_atom_site_fract_y
_atom_site_fract_z
Si Si1 0.677104 0.036258 0.248566
Si Si2 0.579814 0.954390 0.820978
Si Si3 0.951768 0.044531 0.880373
Si Si4 0.206725 0.358731 0.039212
Si Si5 0.097981 0.638867 0.462243
Si Si6 0.197595 0.361287 0.462327
Si Si7 0.641702 0.357516 0.659563
O O1 0.627204 0.074166 0.229755
O O2 0.697153 0.074638 0.359414
O O3 0.701741 0.073796 0.143857
O O4 0.669002 0.924675 0.260064
O O5 0.549434 0.966206 0.716091
O O6 0.582274 0.059679 0.876685
O O7 0.573593 0.885044 0.923372
O O8 0.908381 0.107452 0.857930
O O9 0.000000 0.092844 0.875267
O O10 0.947264 0.000000 0.000000
O O11 0.207402 0.250000 0.080046
O O12 0.254556 0.374481 0.982519
O O13 0.167373 0.366572 0.953848
O O14 0.092360 0.750000 0.434213
O O15 0.150575 0.618199 0.481756
O O16 0.194262 0.250000 0.431749
O O17 0.642532 0.250000 0.697151
#
# Coordination Sequence:
#
# PCOD9534844 Si02
#       7
#    16  16  16  16  16  16  16
#     4  10  18  32  50  79 106 147 192 245 294 345
#     4   9  19  35  57  88 120 150 201 244 296 365
#     4  10  21  40  67  92 118 152 195 251 312 374
#     4  10  19  33  53  78 110 150 196 254 305 350
#     4   9  18  36  59  83 118 164 202 245 296 354
#     4   9  18  33  54  80 108 145 203 255 295 343
#     4  10  21  36  54  79 115 155 194 234 288 360
#
# _framework density 21.332055
#
# number of rings (size 3 to 8) (size 9 to 14) (size 15 to 20)
#    0.000    2.429    0.000    3.000    0.000    4.286 
#   12.857    2.143    0.000    3.857    0.000    0.000 
#    0.000    0.000    0.000    0.000    0.000    0.000 
#
# Total GULP energy -312325.237900 kJ/mol
# GULP energy per Si atom -5577.236391 kJ/mol
# Density = 2.128350 g / cm^3
# Si number density = 21.332055 Si / 1000 Ang^3
#
#
#
# Elastic Constant Matrix: (Units=GPa)
#
#
# Indices 1 2 3 4 5 6 
#
# 1 72.4318 28.3813 25.0144 0.0000 0.0000 0.0000
# 2 28.3813 85.9858 25.1341 0.0000 0.0000 0.0000
# 3 25.0144 25.1341 96.2972 0.0000 0.0000 0.0000
# 4 0.0000 0.0000 0.0000 18.6242 0.0000 0.0000
# 5 0.0000 0.0000 0.0000 0.0000 -17.9969 0.0000
# 6 0.0000 0.0000 0.0000 0.0000 0.0000 16.6069
#
#
#
# Elastic Compliance Matrix: (Units=1/GPa)
#
#
# Indices 1 2 3 4 5 6 
#
# 1 0.016688 -0.004592 -0.003137 0.000000 0.000000 0.000000
# 2 -0.004592 0.013854 -0.002423 0.000000 0.000000 0.000000
# 3 -0.003137 -0.002423 0.011832 0.000000 0.000000 0.000000
# 4 0.000000 0.000000 0.000000 0.053694 0.000000 0.000000
# 5 0.000000 0.000000 0.000000 0.000000 -0.055565 0.000000
# 6 0.000000 0.000000 0.000000 0.000000 0.000000 0.060216
#
#
# Mechanical properties :
#
#
# Convention : Reuss Voigt Hill
#
# Bulk Modulus (GPa) = 45.30783 45.75272 45.53028
# Shear Modulus (GPa) = 38.94753 15.19251 27.07002
#
# Velocity S-wave (km/s) = 4.27754 2.67159 3.56614
# Velocity P-wave (km/s) = 6.75884 5.56875 6.19245
#
# Compressibility (1/GPa) = 0.02207124
#
# Stress axis : x y z
#
# Youngs Moduli (GPa) = 59.92173 72.18314 84.51824
#
# Poissons Ratio (x) = 0.33143 0.26510
# Poissons Ratio (y) = 0.27513 0.20480
# Poissons Ratio (z) = 0.18795 0.17491
#
# Static dielectric constant tensor:
#      x y z
#    x 1.788690 0.000000 0.000000 
#    y 0.000000 1.791910 0.000000 
#    z 0.000000 0.000000 1.786580 
# 
# From -- ./inp_files/27256.got.cif
#   From: 2010.05.17/outbox.cif.g08.bks.cpg/sg74_14_cif.got.tgz:27256.got - 2010.06.03 17:57:02.
