data_PCOD9534418
_publ_section_title
;
Structure prediction by ZEFSAII (Michael W. Deem and Ramdas Pophale) SiO2 
 PCOD9534418
Probable space group: I M M A
;
_chemical_formula_sum "Si O2"
_cell_formula_units_Z 104
_cell_length_a 10.617823
_cell_length_b 18.189301
_cell_length_c 29.175042
_cell_angle_alpha 90.000000
_cell_angle_beta 90.000000
_cell_angle_gamma 90.000000
_cell_volume 5634.598575
_symmetry_space_group_name_H-M "I M M A"
_symmetry_group_IT_number 74
_symmetry_cell_setting 'orthorhombic'
loop_
_space_group_symop_operation_xyz
x,y,z
-x,1/2-y,z
x,-y,-z
-x,1/2+y,-z
-x,-y,-z
x,1/2+y,-z
-x,y,z
x,1/2-y,z
1/2+x,1/2+y,1/2+z
1/2-x,-y,1/2+z
1/2+x,1/2-y,1/2-z
1/2-x,y,1/2-z
1/2-x,1/2-y,1/2-z
1/2+x,y,1/2-z
1/2-x,1/2+y,1/2+z
1/2+x,-y,1/2+z
loop_
_atom_site_type_symbol
_atom_site_label
_atom_site_fract_x
_atom_site_fract_y
_atom_site_fract_z
Si Si1 0.346509 0.334401 0.460072
Si Si2 0.258943 0.164041 0.649627
Si Si3 0.638106 0.250000 0.285374
Si Si4 0.648970 0.083666 0.291760
Si Si5 0.500000 0.839993 0.295760
Si Si6 0.848019 0.603773 0.058544
Si Si7 0.652438 0.454371 0.390306
Si Si8 0.500000 0.840147 0.189702
O O1 0.500000 0.333787 0.459341
O O2 0.304545 0.250000 0.460070
O O3 0.310502 0.375509 0.507204
O O4 0.303604 0.381299 0.416497
O O5 0.255436 0.250000 0.661696
O O6 0.376875 0.132690 0.677781
O O7 0.287265 0.156504 0.596238
O O8 0.125831 0.132827 0.665108
O O9 0.500000 0.250000 0.262494
O O10 0.750000 0.250000 0.250000
O O11 0.646924 0.169986 0.308391
O O12 0.500000 0.066868 0.279976
O O13 0.750000 0.076029 0.250000
O O14 0.691287 0.040365 0.337335
O O15 0.500000 0.750000 0.297458
O O16 0.500000 0.861069 0.242918
O O17 0.814731 0.523059 0.077291
O O18 0.000000 0.611076 0.061008
O O19 0.500000 0.452075 0.388616
O O20 0.500000 0.750000 0.188158
#
# Coordination Sequence:
#
# PCOD9534418 Si02
#       8
#    16  16   8  16   8  16  16   8
#     4   9  17  28  47  76 104 129 163 213 263 308
#     4  10  18  29  48  70  95 128 168 212 254 301
#     4   8  14  24  42  68  94 122 160 202 244 286
#     4   9  17  30  49  73 102 135 170 207 250 301
#     4   9  16  28  46  68  93 128 167 217 263 302
#     4  10  18  30  47  70 103 133 167 203 253 303
#     4   9  18  30  47  70 104 137 166 205 259 309
#     4   9  18  30  44  68  99 126 167 215 263 302
#
# _framework density 18.457393
#
# number of rings (size 3 to 8) (size 9 to 14) (size 15 to 20)
#    0.000    2.769    0.769    1.385    1.077    4.308 
#    0.000    1.538    1.692    0.000    2.000    1.077 
#    0.000    0.000    0.000    0.000    0.000    0.000 
#
# Total GULP energy -289518.047076 kJ/mol
# GULP energy per Si atom -5567.654751 kJ/mol
# Density = 1.841538 g / cm^3
# Si number density = 18.457393 Si / 1000 Ang^3
#
#
#
# Elastic Constant Matrix: (Units=GPa)
#
#
# Indices 1 2 3 4 5 6 
#
# 1 72.0986 24.4533 47.8329 0.0000 0.0000 0.0000
# 2 24.4533 60.3519 32.2885 0.0000 0.0000 0.0000
# 3 47.8329 32.2885 114.7168 0.0000 0.0000 0.0000
# 4 0.0000 0.0000 0.0000 99.8093 0.0000 0.0000
# 5 0.0000 0.0000 0.0000 0.0000 6.0593 0.0000
# 6 0.0000 0.0000 0.0000 0.0000 0.0000 5.5807
#
#
#
# Elastic Compliance Matrix: (Units=1/GPa)
#
#
# Indices 1 2 3 4 5 6 
#
# 1 0.020081 -0.004305 -0.007161 0.000000 0.000000 0.000000
# 2 -0.004305 0.020430 -0.003955 0.000000 0.000000 0.000000
# 3 -0.007161 -0.003955 0.012816 0.000000 0.000000 0.000000
# 4 0.000000 0.000000 0.000000 0.010019 0.000000 0.000000
# 5 0.000000 0.000000 0.000000 0.000000 0.165037 0.000000
# 6 0.000000 0.000000 0.000000 0.000000 0.000000 0.179188
#
#
# Mechanical properties :
#
#
# Convention : Reuss Voigt Hill
#
# Bulk Modulus (GPa) = 44.47589 50.70185 47.58887
# Shear Modulus (GPa) = 11.21303 31.79602 21.50453
#
# Velocity S-wave (km/s) = 2.46744 4.15501 3.41704
# Velocity P-wave (km/s) = 5.68036 7.10972 6.43485
#
# Compressibility (1/GPa) = 0.02248409
#
# Stress axis : x y z
#
# Youngs Moduli (GPa) = 49.79782 48.94797 78.02488
#
# Poissons Ratio (x) = 0.21073 0.55877
# Poissons Ratio (y) = 0.21438 0.30860
# Poissons Ratio (z) = 0.35662 0.19360
#
# Static dielectric constant tensor:
#      x y z
#    x 1.620660 0.000000 0.000000 
#    y 0.000000 1.732240 0.000000 
#    z 0.000000 0.000000 1.622330 
# 
# From -- ./inp_files/64536.got.cif
#   From: 2010.05.17/outbox.cif.g08.bks.cpg/sg74_33_cif.got.tgz:64536.got - 2010.06.03 17:57:02.
