data_PCOD9534933
_publ_section_title
;
Structure prediction by ZEFSAII (Michael W. Deem and Ramdas Pophale) SiO2 
 PCOD9534933
Probable space group: I M M A
;
_chemical_formula_sum "Si O2"
_cell_formula_units_Z 88
_cell_length_a 30.746241
_cell_length_b 27.162739
_cell_length_c 5.478901
_cell_angle_alpha 90.000000
_cell_angle_beta 90.000000
_cell_angle_gamma 90.000000
_cell_volume 4575.715783
_symmetry_space_group_name_H-M "I M M A"
_symmetry_group_IT_number 74
_symmetry_cell_setting 'orthorhombic'
loop_
_space_group_symop_operation_xyz
x,y,z
-x,1/2-y,z
x,-y,-z
-x,1/2+y,-z
-x,-y,-z
x,1/2+y,-z
-x,y,z
x,1/2-y,z
1/2+x,1/2+y,1/2+z
1/2-x,-y,1/2+z
1/2+x,1/2-y,1/2-z
1/2-x,y,1/2-z
1/2-x,1/2-y,1/2-z
1/2+x,y,1/2-z
1/2-x,1/2+y,1/2+z
1/2+x,-y,1/2+z
loop_
_atom_site_type_symbol
_atom_site_label
_atom_site_fract_x
_atom_site_fract_y
_atom_site_fract_z
Si Si1 0.609048 0.305052 0.682863
Si Si2 0.750000 0.152700 0.750000
Si Si3 0.334871 0.622109 0.022245
Si Si4 0.086539 0.441787 0.500380
Si Si5 0.804957 0.696555 0.855012
Si Si6 0.448233 0.391531 0.500758
O O1 0.594076 0.250000 0.749029
O O2 0.652117 0.300296 0.520779
O O3 0.574164 0.338202 0.540146
O O4 0.628011 0.337667 0.904342
O O5 0.793750 0.121597 0.703793
O O6 0.736757 0.187796 0.525639
O O7 0.362279 0.572791 0.000516
O O8 0.312976 0.646338 0.788798
O O9 0.079824 0.500000 0.500000
O O10 0.066222 0.421249 0.754292
O O11 0.067481 0.416949 0.252327
O O12 0.803280 0.750000 0.726427
O O13 0.500000 0.387760 0.495169
#
# Coordination Sequence:
#
# PCOD9534933 Si02
#       6
#    16   8  16  16  16  16
#     4   9  19  35  56  85 122 164 200 237 296 368
#     4  10  21  32  52  84 122 154 198 258 297 346
#     4  10  20  36  57  81 118 161 204 253 299 361
#     4  11  24  43  67  89 119 161 204 255 316 368
#     4  10  18  32  54  82 117 158 200 241 294 356
#     4  11  23  41  65  96 124 153 200 256 308 368
#
# _framework density 19.231961999999999
#
# number of rings (size 3 to 8) (size 9 to 14) (size 15 to 20)
#    0.000    1.818    1.818    2.455    0.000    5.455 
#    0.000    0.000    4.000    2.182    0.000    0.000 
#    0.000    0.000    0.000    0.000    0.000    0.000 
#
# Total GULP energy -245068.063336 kJ/mol
# GULP energy per Si atom -5569.728712 kJ/mol
# Density = 1.918819 g / cm^3
# Si number density = 19.231962 Si / 1000 Ang^3
#
#
#
# Elastic Constant Matrix: (Units=GPa)
#
#
# Indices 1 2 3 4 5 6 
#
# 1 122.2555 39.2987 25.8874 0.0000 0.0000 0.0000
# 2 39.2987 88.7218 20.6309 0.0000 0.0000 0.0000
# 3 25.8874 20.6309 85.3524 0.0000 0.0000 0.0000
# 4 0.0000 0.0000 0.0000 20.4682 0.0000 0.0000
# 5 0.0000 0.0000 0.0000 0.0000 28.3546 0.0000
# 6 0.0000 0.0000 0.0000 0.0000 0.0000 -45.5959
#
#
#
# Elastic Compliance Matrix: (Units=1/GPa)
#
#
# Indices 1 2 3 4 5 6 
#
# 1 0.009865 -0.003893 -0.002051 0.000000 0.000000 0.000000
# 2 -0.003893 0.013478 -0.002077 0.000000 0.000000 0.000000
# 3 -0.002051 -0.002077 0.012840 0.000000 0.000000 0.000000
# 4 0.000000 0.000000 0.000000 0.048856 0.000000 0.000000
# 5 0.000000 0.000000 0.000000 0.000000 0.035268 0.000000
# 6 0.000000 0.000000 0.000000 0.000000 0.000000 -0.021932
#
#
# Mechanical properties :
#
#
# Convention : Reuss Voigt Hill
#
# Bulk Modulus (GPa) = 49.64835 51.99595 50.82215
# Shear Modulus (GPa) = 41.27709 14.67957 27.97833
#
# Velocity S-wave (km/s) = 4.63782 2.76577 3.81830
# Velocity P-wave (km/s) = 7.38585 6.10690 6.77661
#
# Compressibility (1/GPa) = 0.02014166
#
# Stress axis : x y z
#
# Youngs Moduli (GPa) = 101.36590 74.19230 77.87941
#
# Poissons Ratio (x) = 0.28881 0.15975
# Poissons Ratio (y) = 0.39459 0.16178
# Poissons Ratio (z) = 0.20792 0.15412
#
# Static dielectric constant tensor:
#      x y z
#    x 1.672460 0.000000 0.000000 
#    y 0.000000 1.699240 0.000000 
#    z 0.000000 0.000000 1.759550 
# 
# From -- ./inp_files/5225.got.cif
#   From: 2010.05.17/outbox.cif.g08.bks.cpg/sg74_3_cif.got.tgz:5225.got - 2010.06.03 17:57:02.
