data_PCOD9534586
_publ_section_title
;
Structure prediction by ZEFSAII (Michael W. Deem and Ramdas Pophale) SiO2 
 PCOD9534586
Probable space group: I M M A
;
_chemical_formula_sum "Si O2"
_cell_formula_units_Z 72
_cell_length_a 16.955121
_cell_length_b 8.833568
_cell_length_c 28.637255
_cell_angle_alpha 90.000000
_cell_angle_beta 90.000000
_cell_angle_gamma 90.000000
_cell_volume 4289.122367
_symmetry_space_group_name_H-M "I M M A"
_symmetry_group_IT_number 74
_symmetry_cell_setting 'orthorhombic'
loop_
_space_group_symop_operation_xyz
x,y,z
-x,1/2-y,z
x,-y,-z
-x,1/2+y,-z
-x,-y,-z
x,1/2+y,-z
-x,y,z
x,1/2-y,z
1/2+x,1/2+y,1/2+z
1/2-x,-y,1/2+z
1/2+x,1/2-y,1/2-z
1/2-x,y,1/2-z
1/2-x,1/2-y,1/2-z
1/2+x,y,1/2-z
1/2-x,1/2+y,1/2+z
1/2+x,-y,1/2+z
loop_
_atom_site_type_symbol
_atom_site_label
_atom_site_fract_x
_atom_site_fract_y
_atom_site_fract_z
Si Si1 0.000000 0.568296 0.947499
Si Si2 0.162499 0.931843 0.051603
Si Si3 0.911620 0.433084 0.310900
Si Si4 0.261580 0.929351 0.139248
Si Si5 0.830627 0.577787 0.780485
O O1 0.081806 0.503844 0.927902
O O2 0.000000 0.750000 0.948234
O O3 0.000000 0.500000 0.000000
O O4 0.153229 0.750000 0.048201
O O5 0.233095 0.967254 0.087160
O O6 0.175107 0.000000 0.000000
O O7 0.906615 0.250000 0.310737
O O8 0.842565 0.494228 0.343926
O O9 0.893320 0.481020 0.257296
O O10 0.000000 0.477845 0.324588
O O11 0.270996 0.750000 0.142847
O O12 0.192640 0.981272 0.174803
O O13 0.850767 0.750000 0.794427
O O14 0.750000 0.584386 0.750000
#
# Coordination Sequence:
#
# PCOD9534586 Si02
#       5
#     8  16  16  16  16
#     4  10  18  30  50  72  94 124 160 198 242 290
#     4  10  20  34  51  72 101 132 165 205 246 293
#     4   9  18  33  52  73  99 131 167 205 241 286
#     4  10  20  32  49  74 102 130 162 204 249 292
#     4   8  15  29  48  68  94 126 160 197 235 283
#
# _framework density 16.786652
#
# number of rings (size 3 to 8) (size 9 to 14) (size 15 to 20)
#    0.000    2.667    0.000    5.000    0.000    8.000 
#    2.000    0.000    0.000    0.667    0.000    0.000 
#    0.000    0.000    0.000    0.000    0.000    0.000 
#
# Total GULP energy -200499.436136 kJ/mol
# GULP energy per Si atom -5569.428782 kJ/mol
# Density = 1.674845 g / cm^3
# Si number density = 16.786652 Si / 1000 Ang^3
#
#
#
# Elastic Constant Matrix: (Units=GPa)
#
#
# Indices 1 2 3 4 5 6 
#
# 1 115.3536 41.7196 57.7012 0.0000 0.0000 0.0000
# 2 41.7196 54.4751 38.1371 0.0000 0.0000 0.0000
# 3 57.7012 38.1371 86.8674 0.0000 0.0000 0.0000
# 4 0.0000 0.0000 0.0000 24.2353 0.0000 0.0000
# 5 0.0000 0.0000 0.0000 0.0000 23.5141 0.0000
# 6 0.0000 0.0000 0.0000 0.0000 0.0000 13.5081
#
#
#
# Elastic Compliance Matrix: (Units=1/GPa)
#
#
# Indices 1 2 3 4 5 6 
#
# 1 0.014304 -0.006212 -0.006774 0.000000 0.000000 0.000000
# 2 -0.006212 0.029201 -0.008693 0.000000 0.000000 0.000000
# 3 -0.006774 -0.008693 0.019828 0.000000 0.000000 0.000000
# 4 0.000000 0.000000 0.000000 0.041262 0.000000 0.000000
# 5 0.000000 0.000000 0.000000 0.000000 0.042528 0.000000
# 6 0.000000 0.000000 0.000000 0.000000 0.000000 0.074030
#
#
# Mechanical properties :
#
#
# Convention : Reuss Voigt Hill
#
# Bulk Modulus (GPa) = 50.06661 59.09019 54.57840
# Shear Modulus (GPa) = 18.43856 20.19403 19.31629
#
# Velocity S-wave (km/s) = 3.31782 3.47216 3.39587
# Velocity P-wave (km/s) = 6.67587 7.16601 6.92528
#
# Compressibility (1/GPa) = 0.01997339
#
# Stress axis : x y z
#
# Youngs Moduli (GPa) = 69.90882 34.24553 50.43353
#
# Poissons Ratio (x) = 0.21275 0.34164
# Poissons Ratio (y) = 0.43431 0.43844
# Poissons Ratio (z) = 0.47357 0.29771
#
# Static dielectric constant tensor:
#      x y z
#    x 1.593520 0.000000 0.000000 
#    y 0.000000 1.565810 0.000000 
#    z 0.000000 0.000000 1.577450 
# 
# From -- ./inp_files/67472.got.cif
#   From: 2010.05.17/outbox.cif.g08.bks.cpg/sg74_34_cif.got.tgz:67472.got - 2010.06.03 17:57:02.
