data_PCOD9534273
_publ_section_title
;
Structure prediction by ZEFSAII (Michael W. Deem and Ramdas Pophale) SiO2 
 PCOD9534273
Probable space group: I M M A
;
_chemical_formula_sum "Si O2"
_cell_formula_units_Z 104
_cell_length_a 22.629350
_cell_length_b 7.350056
_cell_length_c 27.579533
_cell_angle_alpha 90.000000
_cell_angle_beta 90.000000
_cell_angle_gamma 90.000000
_cell_volume 4587.220702
_symmetry_space_group_name_H-M "I M M A"
_symmetry_group_IT_number 74
_symmetry_cell_setting 'orthorhombic'
loop_
_space_group_symop_operation_xyz
x,y,z
-x,1/2-y,z
x,-y,-z
-x,1/2+y,-z
-x,-y,-z
x,1/2+y,-z
-x,y,z
x,1/2-y,z
1/2+x,1/2+y,1/2+z
1/2-x,-y,1/2+z
1/2+x,1/2-y,1/2-z
1/2-x,y,1/2-z
1/2-x,1/2-y,1/2-z
1/2+x,y,1/2-z
1/2-x,1/2+y,1/2+z
1/2+x,-y,1/2+z
loop_
_atom_site_type_symbol
_atom_site_label
_atom_site_fract_x
_atom_site_fract_y
_atom_site_fract_z
Si Si1 0.566154 0.532825 0.944794
Si Si2 0.289291 0.466889 0.444413
Si Si3 0.677519 0.027764 0.109851
Si Si4 0.308355 0.471712 0.219728
Si Si5 0.000000 0.533861 0.943620
Si Si6 0.393730 0.027767 0.378183
Si Si7 0.068364 0.528390 0.770056
O O1 0.500000 0.458979 0.939800
O O2 0.562810 0.750000 0.938825
O O3 0.613051 0.464580 0.906128
O O4 0.586224 0.500000 0.000000
O O5 0.307191 0.500000 0.500000
O O6 0.289137 0.250000 0.439886
O O7 0.224154 0.531902 0.430799
O O8 0.332678 0.533778 0.402021
O O9 0.676631 0.250000 0.110121
O O10 0.696390 0.973475 0.163637
O O11 0.308011 0.250000 0.222110
O O12 0.250000 0.530360 0.250000
O O13 0.373845 0.527234 0.238772
O O14 0.942510 0.466168 0.916496
O O15 0.000000 0.750000 0.936570
O O16 0.000000 0.500000 0.000000
O O17 0.392022 0.250000 0.376398
O O18 0.413948 0.972726 0.324801
O O19 0.066831 0.750000 0.768229
O O20 0.000000 0.470896 0.758804
#
# Coordination Sequence:
#
# PCOD9534273 Si02
#       7
#    16  16  16  16   8  16  16
#     4   9  17  29  45  64  89 119 147 177 216 263
#     4  10  19  30  45  64  89 120 150 182 220 262
#     4   9  17  28  41  60  87 118 147 178 222 268
#     4   9  16  25  38  58  85 116 147 179 219 270
#     4  10  18  28  42  60  86 114 144 180 213 250
#     4   9  16  27  41  59  85 116 146 177 216 257
#     4   9  15  24  39  59  84 116 149 178 217 270
#
# _framework density 22.671681
#
# number of rings (size 3 to 8) (size 9 to 14) (size 15 to 20)
#    0.000    2.769    0.769    1.846    0.000    4.308 
#    0.000    3.077    0.000    0.000    0.000    0.000 
#    0.000   13.538    0.000    0.154    0.000    0.000 
#
# Total GULP energy -290148.195788 kJ/mol
# GULP energy per Si atom -5579.772996 kJ/mol
# Density = 2.262008 g / cm^3
# Si number density = 22.671681 Si / 1000 Ang^3
#
#
#
# Elastic Constant Matrix: (Units=GPa)
#
#
# Indices 1 2 3 4 5 6 
#
# 1 140.9504 4.7396 45.1735 0.0000 0.0000 0.0000
# 2 4.7396 83.9100 -4.6283 0.0000 0.0000 0.0000
# 3 45.1735 -4.6283 60.2347 0.0000 0.0000 0.0000
# 4 0.0000 0.0000 0.0000 8.0083 0.0000 0.0000
# 5 0.0000 0.0000 0.0000 0.0000 105.9737 0.0000
# 6 0.0000 0.0000 0.0000 0.0000 0.0000 -40.2309
#
#
#
# Elastic Compliance Matrix: (Units=1/GPa)
#
#
# Indices 1 2 3 4 5 6 
#
# 1 0.009410 -0.000925 -0.007128 0.000000 0.000000 0.000000
# 2 -0.000925 0.012059 0.001620 0.000000 0.000000 0.000000
# 3 -0.007128 0.001620 0.022072 0.000000 0.000000 0.000000
# 4 0.000000 0.000000 0.000000 0.124870 0.000000 0.000000
# 5 0.000000 0.000000 0.000000 0.000000 0.009436 0.000000
# 6 0.000000 0.000000 0.000000 0.000000 0.000000 -0.024857
#
#
# Mechanical properties :
#
#
# Convention : Reuss Voigt Hill
#
# Bulk Modulus (GPa) = 32.59918 41.74051 37.16984
# Shear Modulus (GPa) = 28.39575 30.73759 29.56667
#
# Velocity S-wave (km/s) = 3.54287 3.68607 3.61518
# Velocity P-wave (km/s) = 5.58086 6.04707 5.81863
#
# Compressibility (1/GPa) = 0.03067562
#
# Stress axis : x y z
#
# Youngs Moduli (GPa) = 106.26539 82.92480 45.30575
#
# Poissons Ratio (x) = 0.07668 0.32296
# Poissons Ratio (y) = 0.09827 -0.07340
# Poissons Ratio (z) = 0.75751 -0.13435
#
# Static dielectric constant tensor:
#      x y z
#    x 1.868630 0.000000 0.000000 
#    y 0.000000 0.713910 0.000000 
#    z 0.000000 0.000000 1.783260 
# 
# From -- ./inp_files/73360.got.cif
#   From: 2010.05.17/outbox.cif.g08.bks.cpg/sg74_37_cif.got.tgz:73360.got - 2010.06.03 17:57:02.
