data_PCOD9535124
_publ_section_title
;
Structure prediction by ZEFSAII (Michael W. Deem and Ramdas Pophale) SiO2 
 PCOD9535124
Probable space group: I M M A
;
_chemical_formula_sum "Si O2"
_cell_formula_units_Z 104
_cell_length_a 25.625845
_cell_length_b 23.571560
_cell_length_c 9.643933
_cell_angle_alpha 90.000000
_cell_angle_beta 90.000000
_cell_angle_gamma 90.000000
_cell_volume 5825.332312
_symmetry_space_group_name_H-M "I M M A"
_symmetry_group_IT_number 74
_symmetry_cell_setting 'orthorhombic'
loop_
_space_group_symop_operation_xyz
x,y,z
-x,1/2-y,z
x,-y,-z
-x,1/2+y,-z
-x,-y,-z
x,1/2+y,-z
-x,y,z
x,1/2-y,z
1/2+x,1/2+y,1/2+z
1/2-x,-y,1/2+z
1/2+x,1/2-y,1/2-z
1/2-x,y,1/2-z
1/2-x,1/2-y,1/2-z
1/2+x,y,1/2-z
1/2-x,1/2+y,1/2+z
1/2+x,-y,1/2+z
loop_
_atom_site_type_symbol
_atom_site_label
_atom_site_fract_x
_atom_site_fract_y
_atom_site_fract_z
Si Si1 0.804788 0.750000 0.666340
Si Si2 0.445633 0.750000 0.005228
Si Si3 0.344675 0.123847 0.214550
Si Si4 0.860371 0.371932 0.718496
Si Si5 0.559239 0.874472 0.969803
Si Si6 0.717988 0.934303 0.016059
Si Si7 0.840551 0.066739 0.987826
Si Si8 0.334707 0.250000 0.852629
O O1 0.750000 0.750000 0.750000
O O2 0.835311 0.691838 0.704810
O O3 0.800872 0.750000 0.495930
O O4 0.500000 0.750000 0.089365
O O5 0.445419 0.691459 0.924380
O O6 0.393828 0.750000 0.092265
O O7 0.297076 0.097704 0.125616
O O8 0.346684 0.099316 0.367644
O O9 0.397016 0.102777 0.134626
O O10 0.912019 0.372755 0.620136
O O11 0.817724 0.407911 0.634399
O O12 0.870153 0.400885 0.865158
O O13 0.833827 0.309291 0.728546
O O14 0.500000 0.897772 0.972588
O O15 0.778933 0.929863 0.047440
O O16 0.704848 0.000000 0.000000
O O17 0.854109 0.000000 0.000000
#
# Coordination Sequence:
#
# PCOD9535124 Si02
#       8
#     8   8  16  16  16  16  16   8
#     4  12  20  33  54  84 123 154 178 219 277 340
#     4   8  12  26  52  78 100 127 172 227 267 298
#     4  11  21  35  56  82 113 146 188 228 277 333
#     4  10  20  35  55  81 115 142 185 232 279 337
#     4   9  17  33  58  81 103 140 190 235 274 327
#     4  10  19  35  57  77 102 146 196 231 261 317
#     4  11  23  37  54  80 111 149 187 232 283 325
#     4  10  18  35  51  82 115 150 182 221 275 343
#
# _framework density 17.853058999999998
#
# number of rings (size 3 to 8) (size 9 to 14) (size 15 to 20)
#    0.000    1.846    4.615    2.769    0.000    3.077 
#    0.000    3.077    0.000   17.538    0.000    5.385 
#    0.000    0.000    0.000    0.000    0.000    0.000 
#
# Total GULP energy -289493.017135 kJ/mol
# GULP energy per Si atom -5567.173406 kJ/mol
# Density = 1.781242 g / cm^3
# Si number density = 17.853059 Si / 1000 Ang^3
#
#
#
# Elastic Constant Matrix: (Units=GPa)
#
#
# Indices 1 2 3 4 5 6 
#
# 1 69.0988 18.9039 14.0877 0.0000 0.0000 0.0000
# 2 18.9039 83.1930 21.8218 0.0000 0.0000 0.0000
# 3 14.0877 21.8218 85.2550 0.0000 0.0000 0.0000
# 4 0.0000 0.0000 0.0000 17.8963 0.0000 0.0000
# 5 0.0000 0.0000 0.0000 0.0000 35.9603 0.0000
# 6 0.0000 0.0000 0.0000 0.0000 0.0000 5.8943
#
#
#
# Elastic Compliance Matrix: (Units=1/GPa)
#
#
# Indices 1 2 3 4 5 6 
#
# 1 0.015685 -0.003092 -0.001800 0.000000 0.000000 0.000000
# 2 -0.003092 0.013495 -0.002943 0.000000 0.000000 0.000000
# 3 -0.001800 -0.002943 0.012780 0.000000 0.000000 0.000000
# 4 0.000000 0.000000 0.000000 0.055877 0.000000 0.000000
# 5 0.000000 0.000000 0.000000 0.000000 0.027808 0.000000
# 6 0.000000 0.000000 0.000000 0.000000 0.000000 0.169656
#
#
# Mechanical properties :
#
#
# Convention : Reuss Voigt Hill
#
# Bulk Modulus (GPa) = 38.03848 38.57486 38.30667
# Shear Modulus (GPa) = 15.63790 24.13240 19.88515
#
# Velocity S-wave (km/s) = 2.96281 3.68057 3.34102
# Velocity P-wave (km/s) = 5.74952 6.30205 6.03212
#
# Compressibility (1/GPa) = 0.02628917
#
# Stress axis : x y z
#
# Youngs Moduli (GPa) = 63.75532 74.10256 78.24504
#
# Poissons Ratio (x) = 0.22911 0.14088
# Poissons Ratio (y) = 0.19712 0.23029
# Poissons Ratio (z) = 0.11479 0.21810
#
# Static dielectric constant tensor:
#      x y z
#    x 1.642040 0.000000 0.000000 
#    y 0.000000 1.656640 0.000000 
#    z 0.000000 0.000000 1.623030 
# 
# From -- ./inp_files/15253.got.cif
#   From: 2010.05.17/outbox.cif.g08.bks.cpg/sg74_8_cif.got.tgz:15253.got - 2010.06.03 17:57:02.
