data_PCOD9535595
_publ_section_title
;
Structure prediction by ZEFSAII (Michael W. Deem and Ramdas Pophale) SiO2 
 PCOD9535595
Probable space group: I M M A
;
_chemical_formula_sum "Si O2"
_cell_formula_units_Z 96
_cell_length_a 27.381541
_cell_length_b 15.072158
_cell_length_c 12.087180
_cell_angle_alpha 90.000000
_cell_angle_beta 90.000000
_cell_angle_gamma 90.000000
_cell_volume 4988.366038
_symmetry_space_group_name_H-M "I M M A"
_symmetry_group_IT_number 74
_symmetry_cell_setting 'orthorhombic'
loop_
_space_group_symop_operation_xyz
x,y,z
-x,1/2-y,z
x,-y,-z
-x,1/2+y,-z
-x,-y,-z
x,1/2+y,-z
-x,y,z
x,1/2-y,z
1/2+x,1/2+y,1/2+z
1/2-x,-y,1/2+z
1/2+x,1/2-y,1/2-z
1/2-x,y,1/2-z
1/2-x,1/2-y,1/2-z
1/2+x,y,1/2-z
1/2-x,1/2+y,1/2+z
1/2+x,-y,1/2+z
loop_
_atom_site_type_symbol
_atom_site_label
_atom_site_fract_x
_atom_site_fract_y
_atom_site_fract_z
Si Si1 0.707234 0.592624 0.431979
Si Si2 0.141854 0.355012 0.745955
Si Si3 0.316166 0.104705 0.979438
Si Si4 0.695399 0.647052 0.770783
Si Si5 0.444421 0.641401 0.407926
Si Si6 0.125575 0.150110 0.091573
O O1 0.707060 0.500000 0.500000
O O2 0.684701 0.592312 0.309970
O O3 0.762117 0.627110 0.434180
O O4 0.669637 0.651572 0.502597
O O5 0.149343 0.250000 0.765822
O O6 0.145776 0.369825 0.615167
O O7 0.091278 0.381294 0.805906
O O8 0.318461 0.145266 0.101321
O O9 0.318811 0.000000 0.000000
O O10 0.699165 0.750000 0.733759
O O11 0.750000 0.607943 0.750000
O O12 0.651516 0.607081 0.697654
O O13 0.500000 0.611743 0.396100
O O14 0.444501 0.750000 0.413176
O O15 0.418700 0.609047 0.521769
O O16 0.110262 0.250000 0.121915
#
# Coordination Sequence:
#
# PCOD9535595 Si02
#       6
#    16  16  16  16  16  16
#     4  10  20  31  48  72 104 139 171 213 255 305
#     4  10  21  35  53  78 105 138 180 222 264 311
#     4  11  23  32  47  71 106 145 181 208 253 306
#     4  10  19  31  49  69  99 138 174 210 251 306
#     4   8  15  31  56  81 101 124 164 222 278 317
#     4   9  17  30  50  75  99 130 170 209 259 310
#
# _framework density 19.244779000000001
#
# number of rings (size 3 to 8) (size 9 to 14) (size 15 to 20)
#    0.000    2.333    1.667    2.500    2.333    2.667 
#    0.000    0.000    0.000    9.500    0.000    4.667 
#    0.000    0.000    0.000    0.000    0.000    0.000 
#
# Total GULP energy -267602.492475 kJ/mol
# GULP energy per Si atom -5575.051927 kJ/mol
# Density = 1.920098 g / cm^3
# Si number density = 19.244779 Si / 1000 Ang^3
#
#
#
# Elastic Constant Matrix: (Units=GPa)
#
#
# Indices 1 2 3 4 5 6 
#
# 1 127.9926 1.5246 69.5916 0.0000 0.0000 0.0000
# 2 1.5246 36.7939 -3.9249 0.0000 0.0000 0.0000
# 3 69.5916 -3.9249 149.6291 0.0000 0.0000 0.0000
# 4 0.0000 0.0000 0.0000 13.2295 0.0000 0.0000
# 5 0.0000 0.0000 0.0000 0.0000 15.5502 0.0000
# 6 0.0000 0.0000 0.0000 0.0000 0.0000 10.4662
#
#
#
# Elastic Compliance Matrix: (Units=1/GPa)
#
#
# Indices 1 2 3 4 5 6 
#
# 1 0.010491 -0.000958 -0.004904 0.000000 0.000000 0.000000
# 2 -0.000958 0.027342 0.001163 0.000000 0.000000 0.000000
# 3 -0.004904 0.001163 0.008995 0.000000 0.000000 0.000000
# 4 0.000000 0.000000 0.000000 0.075589 0.000000 0.000000
# 5 0.000000 0.000000 0.000000 0.000000 0.064308 0.000000
# 6 0.000000 0.000000 0.000000 0.000000 0.000000 0.095546
#
#
# Mechanical properties :
#
#
# Convention : Reuss Voigt Hill
#
# Bulk Modulus (GPa) = 26.71748 49.86646 38.29197
# Shear Modulus (GPa) = 16.43950 24.33079 20.38514
#
# Velocity S-wave (km/s) = 2.92589 3.55953 3.25815
# Velocity P-wave (km/s) = 5.03265 6.54688 5.83906
#
# Compressibility (1/GPa) = 0.03742868
#
# Stress axis : x y z
#
# Youngs Moduli (GPa) = 95.32005 36.57356 111.17655
#
# Poissons Ratio (x) = 0.03503 0.54526
# Poissons Ratio (y) = 0.09130 -0.12927
# Poissons Ratio (z) = 0.46749 -0.04252
#
# Static dielectric constant tensor:
#      x y z
#    x 1.666910 0.000000 0.000000 
#    y 0.000000 1.808250 0.000000 
#    z 0.000000 0.000000 1.713010 
# 
# From -- ./inp_files/22651.got.cif
#   From: 2010.05.17/outbox.cif.g08.bks.cpg/sg74_12_cif.got.tgz:22651.got - 2010.06.03 17:57:02.
