data_PCOD9535446
_publ_section_title
;
Structure prediction by ZEFSAII (Michael W. Deem and Ramdas Pophale) SiO2 
 PCOD9535446
Probable space group: I M M A
;
_chemical_formula_sum "Si O2"
_cell_formula_units_Z 76
_cell_length_a 14.651118
_cell_length_b 12.035142
_cell_length_c 22.862158
_cell_angle_alpha 90.000000
_cell_angle_beta 90.000000
_cell_angle_gamma 90.000000
_cell_volume 4031.245125
_symmetry_space_group_name_H-M "I M M A"
_symmetry_group_IT_number 74
_symmetry_cell_setting 'orthorhombic'
loop_
_space_group_symop_operation_xyz
x,y,z
-x,1/2-y,z
x,-y,-z
-x,1/2+y,-z
-x,-y,-z
x,1/2+y,-z
-x,y,z
x,1/2-y,z
1/2+x,1/2+y,1/2+z
1/2-x,-y,1/2+z
1/2+x,1/2-y,1/2-z
1/2-x,y,1/2-z
1/2-x,1/2-y,1/2-z
1/2+x,y,1/2-z
1/2-x,1/2+y,1/2+z
1/2+x,-y,1/2+z
loop_
_atom_site_type_symbol
_atom_site_label
_atom_site_fract_x
_atom_site_fract_y
_atom_site_fract_z
Si Si1 0.000000 0.250000 0.236458
Si Si2 0.166413 0.375719 0.879891
Si Si3 0.797766 0.750000 0.812698
Si Si4 0.000000 0.626102 0.644646
Si Si5 0.891662 0.381181 0.747788
Si Si6 0.500000 0.622103 0.469263
Si Si7 0.307715 0.032277 0.148067
O O1 0.093081 0.250000 0.198848
O O2 0.000000 0.351589 0.283892
O O3 0.198753 0.250000 0.874112
O O4 0.126157 0.407833 0.815992
O O5 0.087990 0.379607 0.927556
O O6 0.250709 0.453596 0.893803
O O7 0.750000 0.750000 0.750000
O O8 0.756094 0.639521 0.841620
O O9 0.092984 0.568424 0.627358
O O10 0.000000 0.750000 0.620193
O O11 0.869661 0.250000 0.738814
O O12 0.831785 0.460115 0.706366
O O13 0.000000 0.393831 0.735500
O O14 0.500000 0.750000 0.497683
O O15 0.500000 0.500000 0.500000
#
# Coordination Sequence:
#
# PCOD9535446 Si02
#       7
#     4  16   8   8  16   8  16
#     4  10  22  32  38  58  96 150 216 234 290 318
#     4  10  21  36  55  80 111 150 190 240 298 351
#     4  12  20  32  44  66 100 160 206 248 284 326
#     4  10  20  31  42  62 103 151 190 232 280 326
#     4  10  19  30  47  74 111 155 196 230 269 333
#     4  10  22  46  71  90 119 151 196 259 324 370
#     4  12  21  31  50  74 112 157 202 235 282 344
#
# _framework density 18.852737000000001
#
# number of rings (size 3 to 8) (size 9 to 14) (size 15 to 20)
#    0.316    1.053    5.263    2.526    0.000    2.526 
#    1.895    0.000    0.000    0.000    0.000    0.737 
#    0.000    0.000    0.000    0.000    0.000    0.000 
#
# Total GULP energy -211878.705596 kJ/mol
# GULP energy per Si atom -5575.755410 kJ/mol
# Density = 1.880983 g / cm^3
# Si number density = 18.852737 Si / 1000 Ang^3
#
#
#
# Elastic Constant Matrix: (Units=GPa)
#
#
# Indices 1 2 3 4 5 6 
#
# 1 169.8061 59.6697 5.5810 0.0000 0.0000 0.0000
# 2 59.6697 123.5318 20.2322 0.0000 0.0000 0.0000
# 3 5.5810 20.2322 8.9955 0.0000 0.0000 0.0000
# 4 0.0000 0.0000 0.0000 21.5199 0.0000 0.0000
# 5 0.0000 0.0000 0.0000 0.0000 3.8994 0.0000
# 6 0.0000 0.0000 0.0000 0.0000 0.0000 38.9008
#
#
#
# Elastic Compliance Matrix: (Units=1/GPa)
#
#
# Indices 1 2 3 4 5 6 
#
# 1 0.007252 -0.004379 0.005350 0.000000 0.000000 0.000000
# 2 -0.004379 0.015461 -0.032056 0.000000 0.000000 0.000000
# 3 0.005350 -0.032056 0.179945 0.000000 0.000000 0.000000
# 4 0.000000 0.000000 0.000000 0.046469 0.000000 0.000000
# 5 0.000000 0.000000 0.000000 0.000000 0.256449 0.000000
# 6 0.000000 0.000000 0.000000 0.000000 0.000000 0.025706
#
#
# Mechanical properties :
#
#
# Convention : Reuss Voigt Hill
#
# Bulk Modulus (GPa) = 7.11806 52.58879 29.85343
# Shear Modulus (GPa) = 7.80908 27.32074 17.56491
#
# Velocity S-wave (km/s) = 2.03743 3.81092 3.05567
# Velocity P-wave (km/s) = 3.05265 6.87890 5.32155
#
# Compressibility (1/GPa) = 0.14048770
#
# Stress axis : x y z
#
# Youngs Moduli (GPa) = 137.89135 64.68076 5.55725
#
# Poissons Ratio (x) = 0.28325 -0.02973
# Poissons Ratio (y) = 0.60386 0.17814
# Poissons Ratio (z) = -0.73774 2.07340
#
# Static dielectric constant tensor:
#      x y z
#    x 1.710610 0.000000 0.000000 
#    y 0.000000 2.112000 0.000000 
#    z 0.000000 0.000000 1.629510 
# 
# From -- ./inp_files/59777.got.cif
#   From: 2010.05.17/outbox.cif.g08.bks.cpg/sg74_30_cif.got.tgz:59777.got - 2010.06.03 17:57:02.
