data_PCOD9535854
_publ_section_title
;
Structure prediction by ZEFSAII (Michael W. Deem and Ramdas Pophale) SiO2 
 PCOD9535854
Probable space group: I M M A
;
_chemical_formula_sum "Si O2"
_cell_formula_units_Z 104
_cell_length_a 24.156692
_cell_length_b 8.969391
_cell_length_c 23.219661
_cell_angle_alpha 90.000000
_cell_angle_beta 90.000000
_cell_angle_gamma 90.000000
_cell_volume 5031.022892
_symmetry_space_group_name_H-M "I M M A"
_symmetry_group_IT_number 74
_symmetry_cell_setting 'orthorhombic'
loop_
_space_group_symop_operation_xyz
x,y,z
-x,1/2-y,z
x,-y,-z
-x,1/2+y,-z
-x,-y,-z
x,1/2+y,-z
-x,y,z
x,1/2-y,z
1/2+x,1/2+y,1/2+z
1/2-x,-y,1/2+z
1/2+x,1/2-y,1/2-z
1/2-x,y,1/2-z
1/2-x,1/2-y,1/2-z
1/2+x,y,1/2-z
1/2-x,1/2+y,1/2+z
1/2+x,-y,1/2+z
loop_
_atom_site_type_symbol
_atom_site_label
_atom_site_fract_x
_atom_site_fract_y
_atom_site_fract_z
Si Si1 0.500000 0.071757 0.563492
Si Si2 0.892637 0.424802 0.118583
Si Si3 0.500000 0.074665 0.789284
Si Si4 0.306141 0.923055 0.839769
Si Si5 0.884610 0.079148 0.447801
Si Si6 0.123661 0.927446 0.239429
Si Si7 0.500000 0.070252 0.088964
Si Si8 0.776650 0.925586 0.938435
O O1 0.500000 0.750000 0.440552
O O2 0.445673 0.015469 0.597013
O O3 0.500000 0.000000 0.500000
O O4 0.906864 0.250000 0.123872
O O5 0.871409 0.487438 0.179318
O O6 0.841739 0.438750 0.074454
O O7 0.500000 0.250000 0.805575
O O8 0.441059 0.048059 0.757931
O O9 0.500000 0.971298 0.844687
O O10 0.294741 0.750000 0.823119
O O11 0.354969 0.925184 0.886972
O O12 0.255718 0.980548 0.880499
O O13 0.331290 0.011187 0.785501
O O14 0.890479 0.250000 0.464549
O O15 0.944523 0.007886 0.438631
O O16 0.854399 0.000000 0.500000
O O17 0.131129 0.750000 0.233110
O O18 0.500000 0.250000 0.083930
O O19 0.761397 0.750000 0.942466
O O20 0.765368 0.000000 0.000000
#
# Coordination Sequence:
#
# PCOD9535854 Si02
#       8
#     8  16   8  16  16  16   8  16
#     4  12  25  44  71 104 138 170 209 258 312 380
#     4  11  24  43  67  97 130 169 209 253 315 381
#     4  10  21  36  55  81 115 152 196 249 304 357
#     4  10  21  39  60  85 119 163 210 258 310 372
#     4  10  20  32  50  76 109 148 197 252 308 363
#     4  11  23  39  61  91 125 165 212 266 319 375
#     4  10  19  32  50  75 103 144 193 241 299 361
#     4  10  23  42  66  94 125 162 208 258 314 376
#
# _framework density 20.671738999999999
#
# number of rings (size 3 to 8) (size 9 to 14) (size 15 to 20)
#    0.000    1.538    1.538    3.231    0.000    6.154 
#    0.000    3.077    0.000    0.000    0.000    0.000 
#    0.000    0.000    0.000    0.000    0.000    0.000 
#
# Total GULP energy -290233.938590 kJ/mol
# GULP energy per Si atom -5581.421896 kJ/mol
# Density = 2.062469 g / cm^3
# Si number density = 20.671739 Si / 1000 Ang^3
#
#
#
# Elastic Constant Matrix: (Units=GPa)
#
#
# Indices 1 2 3 4 5 6 
#
# 1 97.6500 43.7770 32.4195 0.0000 0.0000 0.0000
# 2 43.7770 85.3847 62.2499 0.0000 0.0000 0.0000
# 3 32.4195 62.2499 120.6444 0.0000 0.0000 0.0000
# 4 0.0000 0.0000 0.0000 37.1319 0.0000 0.0000
# 5 0.0000 0.0000 0.0000 0.0000 2.7443 0.0000
# 6 0.0000 0.0000 0.0000 0.0000 0.0000 13.3374
#
#
#
# Elastic Compliance Matrix: (Units=1/GPa)
#
#
# Indices 1 2 3 4 5 6 
#
# 1 0.013298 -0.006753 -0.000089 0.000000 0.000000 0.000000
# 2 -0.006753 0.022203 -0.009642 0.000000 0.000000 0.000000
# 3 -0.000089 -0.009642 0.013288 0.000000 0.000000 0.000000
# 4 0.000000 0.000000 0.000000 0.026931 0.000000 0.000000
# 5 0.000000 0.000000 0.000000 0.000000 0.364398 0.000000
# 6 0.000000 0.000000 0.000000 0.000000 0.000000 0.074977
#
#
# Mechanical properties :
#
#
# Convention : Reuss Voigt Hill
#
# Bulk Modulus (GPa) = 63.20600 64.50800 63.85700
# Shear Modulus (GPa) = 9.03612 21.65824 15.34718
#
# Velocity S-wave (km/s) = 2.09302 3.24037 2.72770
# Velocity P-wave (km/s) = 6.04015 6.72857 6.39363
#
# Compressibility (1/GPa) = 0.01582128
#
# Stress axis : x y z
#
# Youngs Moduli (GPa) = 75.20205 45.03848 75.25764
#
# Poissons Ratio (x) = 0.30414 0.00670
# Poissons Ratio (y) = 0.50782 0.72562
# Poissons Ratio (z) = 0.00669 0.43425
#
# Static dielectric constant tensor:
#      x y z
#    x 1.799360 0.000000 0.000000 
#    y 0.000000 1.687070 0.000000 
#    z 0.000000 0.000000 1.728670 
# 
# From -- ./inp_files/55301.got.cif
#   From: 2010.05.17/outbox.cif.g08.bks.cpg/sg74_28_cif.got.tgz:55301.got - 2010.06.03 17:57:02.
