data_PCOD9535177
_publ_section_title
;
Structure prediction by ZEFSAII (Michael W. Deem and Ramdas Pophale) SiO2 
 PCOD9535177
Probable space group: I M M A
;
_chemical_formula_sum "Si O2"
_cell_formula_units_Z 72
_cell_length_a 20.328236
_cell_length_b 20.874936
_cell_length_c 9.691109
_cell_angle_alpha 90.000000
_cell_angle_beta 90.000000
_cell_angle_gamma 90.000000
_cell_volume 4112.428166
_symmetry_space_group_name_H-M "I M M A"
_symmetry_group_IT_number 74
_symmetry_cell_setting 'orthorhombic'
loop_
_space_group_symop_operation_xyz
x,y,z
-x,1/2-y,z
x,-y,-z
-x,1/2+y,-z
-x,-y,-z
x,1/2+y,-z
-x,y,z
x,1/2-y,z
1/2+x,1/2+y,1/2+z
1/2-x,-y,1/2+z
1/2+x,1/2-y,1/2-z
1/2-x,y,1/2-z
1/2-x,1/2-y,1/2-z
1/2+x,y,1/2-z
1/2-x,1/2+y,1/2+z
1/2+x,-y,1/2+z
loop_
_atom_site_type_symbol
_atom_site_label
_atom_site_fract_x
_atom_site_fract_y
_atom_site_fract_z
Si Si1 0.245368 0.826474 0.458394
Si Si2 0.360801 0.371959 0.740744
Si Si3 0.132639 0.483345 0.162485
Si Si4 0.500000 0.565810 0.589339
Si Si5 0.500000 0.824387 0.358937
Si Si6 0.250000 0.893316 0.750000
O O1 0.247664 0.750000 0.448862
O O2 0.311823 0.853522 0.386057
O O3 0.182201 0.851115 0.372316
O O4 0.241454 0.850597 0.614176
O O5 0.372145 0.448122 0.736060
O O6 0.431999 0.339136 0.722438
O O7 0.189761 0.440693 0.222998
O O8 0.066553 0.441545 0.173248
O O9 0.144135 0.500000 0.000000
O O10 0.500000 0.500000 0.500000
O O11 0.500000 0.626325 0.488078
O O12 0.500000 0.750000 0.400400
#
# Coordination Sequence:
#
# PCOD9535177 Si02
#       6
#    16  16  16   8   8   8
#     4  11  23  39  55  82 120 155 191 240 296 353
#     4  11  21  37  61  85 115 152 195 244 290 349
#     4  11  20  36  60  87 114 148 194 248 289 338
#     4  10  18  38  57  85 120 153 189 246 289 338
#     4  12  20  32  59  91 117 155 200 242 294 350
#     4  12  23  36  60  86 111 154 198 240 294 352
#
# _framework density 17.507904
#
# number of rings (size 3 to 8) (size 9 to 14) (size 15 to 20)
#    0.000    0.889    6.667    4.333    0.000    0.000 
#    0.000    2.222    0.000    2.667    0.000    4.667 
#    0.000    0.000    0.000    0.000    0.000    0.000 
#
# Total GULP energy -200968.394041 kJ/mol
# GULP energy per Si atom -5582.455390 kJ/mol
# Density = 1.746806 g / cm^3
# Si number density = 17.507904 Si / 1000 Ang^3
#
#
#
# Elastic Constant Matrix: (Units=GPa)
#
#
# Indices 1 2 3 4 5 6 
#
# 1 171.9156 37.6404 48.5140 0.0000 0.0000 0.0000
# 2 37.6404 99.5904 29.5456 0.0000 0.0000 0.0000
# 3 48.5140 29.5456 97.7534 0.0000 0.0000 0.0000
# 4 0.0000 0.0000 0.0000 18.6251 0.0000 0.0000
# 5 0.0000 0.0000 0.0000 0.0000 18.0014 0.0000
# 6 0.0000 0.0000 0.0000 0.0000 0.0000 17.1698
#
#
#
# Elastic Compliance Matrix: (Units=1/GPa)
#
#
# Indices 1 2 3 4 5 6 
#
# 1 0.007042 -0.001785 -0.002955 0.000000 0.000000 0.000000
# 2 -0.001785 0.011482 -0.002585 0.000000 0.000000 0.000000
# 3 -0.002955 -0.002585 0.012478 0.000000 0.000000 0.000000
# 4 0.000000 0.000000 0.000000 0.053691 0.000000 0.000000
# 5 0.000000 0.000000 0.000000 0.000000 0.055551 0.000000
# 6 0.000000 0.000000 0.000000 0.000000 0.000000 0.058242
#
#
# Mechanical properties :
#
#
# Convention : Reuss Voigt Hill
#
# Bulk Modulus (GPa) = 61.15338 66.73992 63.94665
# Shear Modulus (GPa) = 22.87430 27.66322 25.26876
#
# Velocity S-wave (km/s) = 3.61849 3.97929 3.80317
# Velocity P-wave (km/s) = 7.24312 7.70166 7.47591
#
# Compressibility (1/GPa) = 0.01635233
#
# Stress axis : x y z
#
# Youngs Moduli (GPa) = 142.01512 87.08918 80.14274
#
# Poissons Ratio (x) = 0.15542 0.23684
# Poissons Ratio (y) = 0.25344 0.20716
# Poissons Ratio (z) = 0.41969 0.22511
#
# Static dielectric constant tensor:
#      x y z
#    x 1.596420 0.000000 0.000000 
#    y 0.000000 1.583340 0.000000 
#    z 0.000000 0.000000 1.589630 
# 
# From -- ./inp_files/12195.got.cif
#   From: 2010.05.17/outbox.cif.g08.bks.cpg/sg74_7_cif.got.tgz:12195.got - 2010.06.03 17:57:02.
