data_PCOD9535641
_publ_section_title
;
Structure prediction by ZEFSAII (Michael W. Deem and Ramdas Pophale) SiO2 
 PCOD9535641
Probable space group: I M M A
;
_chemical_formula_sum "Si O2"
_cell_formula_units_Z 104
_cell_length_a 7.907792
_cell_length_b 27.585240
_cell_length_c 23.683949
_cell_angle_alpha 90.000000
_cell_angle_beta 90.000000
_cell_angle_gamma 90.000000
_cell_volume 5166.377324
_symmetry_space_group_name_H-M "I M M A"
_symmetry_group_IT_number 74
_symmetry_cell_setting 'orthorhombic'
loop_
_space_group_symop_operation_xyz
x,y,z
-x,1/2-y,z
x,-y,-z
-x,1/2+y,-z
-x,-y,-z
x,1/2+y,-z
-x,y,z
x,1/2-y,z
1/2+x,1/2+y,1/2+z
1/2-x,-y,1/2+z
1/2+x,1/2-y,1/2-z
1/2-x,y,1/2-z
1/2-x,1/2-y,1/2-z
1/2+x,y,1/2-z
1/2-x,1/2+y,1/2+z
1/2+x,-y,1/2+z
loop_
_atom_site_type_symbol
_atom_site_label
_atom_site_fract_x
_atom_site_fract_y
_atom_site_fract_z
Si Si1 0.795800 0.153382 0.123591
Si Si2 0.699463 0.551537 0.863081
Si Si3 0.299702 0.552239 0.314560
Si Si4 0.796751 0.750000 0.814769
Si Si5 0.194577 0.556457 0.512303
Si Si6 0.207059 0.306299 0.002704
Si Si7 0.305303 0.879107 0.412453
O O1 0.733074 0.105983 0.157485
O O2 0.735442 0.201540 0.155031
O O3 0.000000 0.151676 0.123565
O O4 0.741648 0.162252 0.057926
O O5 0.500000 0.544659 0.870107
O O6 0.758394 0.503414 0.831550
O O7 0.775359 0.557325 0.925829
O O8 0.500000 0.556097 0.319065
O O9 0.250000 0.561069 0.250000
O O10 0.227333 0.592017 0.359055
O O11 0.750000 0.750000 0.750000
O O12 0.000000 0.750000 0.820912
O O13 0.183032 0.500000 0.500000
O O14 0.297680 0.582358 0.463552
O O15 0.000000 0.575411 0.511742
O O16 0.257435 0.250000 0.008170
O O17 0.266584 0.331597 0.944386
O O18 0.000000 0.307106 0.002286
O O19 0.500000 0.867484 0.398163
#
# Coordination Sequence:
#
# PCOD9535641 Si02
#       7
#    16  16  16   8  16  16  16
#     4  10  19  34  56  81 109 145 188 231 276 322
#     4  11  22  35  54  82 114 148 182 221 272 325
#     4  11  24  40  57  79 108 146 189 231 274 330
#     4  10  22  38  56  76 102 146 193 230 272 319
#     4  10  19  31  49  77 112 145 172 208 265 322
#     4   9  16  30  55  85 113 138 173 230 286 329
#     4  10  20  33  56  85 108 138 184 228 273 329
#
# _framework density 20.130158999999999
#
# number of rings (size 3 to 8) (size 9 to 14) (size 15 to 20)
#    0.000    1.846    3.846    0.923    0.000    2.769 
#    0.000    1.538    0.000    1.846    0.000    0.000 
#    0.000    0.000    0.000    0.000    0.000    0.154 
#
# Total GULP energy -289797.815974 kJ/mol
# GULP energy per Si atom -5573.034923 kJ/mol
# Density = 2.008434 g / cm^3
# Si number density = 20.130159 Si / 1000 Ang^3
#
#
#
# Elastic Constant Matrix: (Units=GPa)
#
#
# Indices 1 2 3 4 5 6 
#
# 1 25.5236 3.8465 3.9406 0.0000 0.0000 0.0000
# 2 3.8465 93.9406 36.7677 0.0000 0.0000 0.0000
# 3 3.9406 36.7677 111.5165 0.0000 0.0000 0.0000
# 4 0.0000 0.0000 0.0000 16.2266 0.0000 0.0000
# 5 0.0000 0.0000 0.0000 0.0000 5.4862 0.0000
# 6 0.0000 0.0000 0.0000 0.0000 0.0000 20.0023
#
#
#
# Elastic Compliance Matrix: (Units=1/GPa)
#
#
# Indices 1 2 3 4 5 6 
#
# 1 0.039518 -0.001230 -0.000991 0.000000 0.000000 0.000000
# 2 -0.001230 0.012261 -0.003999 0.000000 0.000000 0.000000
# 3 -0.000991 -0.003999 0.010321 0.000000 0.000000 0.000000
# 4 0.000000 0.000000 0.000000 0.061627 0.000000 0.000000
# 5 0.000000 0.000000 0.000000 0.000000 0.182276 0.000000
# 6 0.000000 0.000000 0.000000 0.000000 0.000000 0.049994
#
#
# Mechanical properties :
#
#
# Convention : Reuss Voigt Hill
#
# Bulk Modulus (GPa) = 20.13729 35.56558 27.85144
# Shear Modulus (GPa) = 12.98735 20.77141 16.87938
#
# Velocity S-wave (km/s) = 2.54277 3.21574 2.89885
# Velocity P-wave (km/s) = 4.31812 5.61196 5.00701
#
# Compressibility (1/GPa) = 0.04965911
#
# Stress axis : x y z
#
# Youngs Moduli (GPa) = 25.30508 81.56241 96.89212
#
# Poissons Ratio (x) = 0.10035 0.09600
# Poissons Ratio (y) = 0.03113 0.38746
# Poissons Ratio (z) = 0.02507 0.32616
#
# Static dielectric constant tensor:
#      x y z
#    x 1.753930 0.000000 0.000000 
#    y 0.000000 1.818710 0.000000 
#    z 0.000000 0.000000 1.788750 
# 
# From -- ./inp_files/57634.got.cif
#   From: 2010.05.17/outbox.cif.g08.bks.cpg/sg74_29_cif.got.tgz:57634.got - 2010.06.03 17:57:02.
