data_PCOD9535301
_publ_section_title
;
Structure prediction by ZEFSAII (Michael W. Deem and Ramdas Pophale) SiO2 
 PCOD9535301
Probable space group: I M M A
;
_chemical_formula_sum "Si O2"
_cell_formula_units_Z 96
_cell_length_a 20.623365
_cell_length_b 9.297355
_cell_length_c 30.483932
_cell_angle_alpha 90.000000
_cell_angle_beta 90.000000
_cell_angle_gamma 90.000000
_cell_volume 5845.072821
_symmetry_space_group_name_H-M "I M M A"
_symmetry_group_IT_number 74
_symmetry_cell_setting 'orthorhombic'
loop_
_space_group_symop_operation_xyz
x,y,z
-x,1/2-y,z
x,-y,-z
-x,1/2+y,-z
-x,-y,-z
x,1/2+y,-z
-x,y,z
x,1/2-y,z
1/2+x,1/2+y,1/2+z
1/2-x,-y,1/2+z
1/2+x,1/2-y,1/2-z
1/2-x,y,1/2-z
1/2-x,1/2-y,1/2-z
1/2+x,y,1/2-z
1/2-x,1/2+y,1/2+z
1/2+x,-y,1/2+z
loop_
_atom_site_type_symbol
_atom_site_label
_atom_site_fract_x
_atom_site_fract_y
_atom_site_fract_z
Si Si1 0.262786 0.582112 0.630995
Si Si2 0.426610 0.419024 0.779106
Si Si3 0.259146 0.415498 0.543340
Si Si4 0.809759 0.580203 0.216416
Si Si5 0.105781 0.918115 0.632238
Si Si6 0.101078 0.083694 0.543889
O O1 0.278931 0.750000 0.627419
O O2 0.280813 0.496639 0.587078
O O3 0.294922 0.510839 0.673374
O O4 0.184337 0.571562 0.634704
O O5 0.500000 0.431718 0.762671
O O6 0.413869 0.250000 0.789302
O O7 0.374113 0.463201 0.742913
O O8 0.419651 0.508385 0.823680
O O9 0.280080 0.500000 0.500000
O O10 0.279775 0.250000 0.542780
O O11 0.180112 0.416147 0.543261
O O12 0.814181 0.750000 0.205211
O O13 0.750000 0.563208 0.250000
O O14 0.088547 0.750000 0.629661
O O15 0.083107 0.001391 0.588565
O O16 0.080176 0.250000 0.543909
O O17 0.080031 0.000000 0.500000
#
# Coordination Sequence:
#
# PCOD9535301 Si02
#       6
#    16  16  16  16  16  16
#     4  10  19  29  45  70  98 127 162 201 241 285
#     4  10  21  36  52  70  94 125 161 201 245 292
#     4   9  16  26  41  63  95 130 161 195 239 287
#     4  10  19  32  51  72  95 125 162 202 244 289
#     4  10  19  30  46  68  94 124 160 200 242 288
#     4   9  16  26  42  64  91 122 158 199 243 288
#
# _framework density 16.42409
#
# number of rings (size 3 to 8) (size 9 to 14) (size 15 to 20)
#    0.000    2.333    1.667    2.000    0.000    6.667 
#    0.000    0.000    0.000    0.500    0.000    0.000 
#    0.000    0.667    0.000    1.833    0.000    2.667 
#
# Total GULP energy -267895.096692 kJ/mol
# GULP energy per Si atom -5581.147848 kJ/mol
# Density = 1.638671 g / cm^3
# Si number density = 16.424090 Si / 1000 Ang^3
#
#
#
# Elastic Constant Matrix: (Units=GPa)
#
#
# Indices 1 2 3 4 5 6 
#
# 1 48.5572 40.6373 45.7614 0.0000 0.0000 0.0000
# 2 40.6373 132.8813 95.7737 0.0000 0.0000 0.0000
# 3 45.7614 95.7737 146.3679 0.0000 0.0000 0.0000
# 4 0.0000 0.0000 0.0000 37.0940 0.0000 0.0000
# 5 0.0000 0.0000 0.0000 0.0000 -0.3462 0.0000
# 6 0.0000 0.0000 0.0000 0.0000 0.0000 9.7003
#
#
#
# Elastic Compliance Matrix: (Units=1/GPa)
#
#
# Indices 1 2 3 4 5 6 
#
# 1 0.030655 -0.004669 -0.006529 0.000000 0.000000 0.000000
# 2 -0.004669 0.014953 -0.008325 0.000000 0.000000 0.000000
# 3 -0.006529 -0.008325 0.014321 0.000000 0.000000 0.000000
# 4 0.000000 0.000000 0.000000 0.026959 0.000000 0.000000
# 5 0.000000 0.000000 0.000000 0.000000 -2.888253 0.000000
# 6 0.000000 0.000000 0.000000 0.000000 0.000000 0.103089
#
#
# Mechanical properties :
#
#
# Convention : Reuss Voigt Hill
#
# Bulk Modulus (GPa) = 47.88540 76.90570 62.39555
# Shear Modulus (GPa) = -1.88518 18.99854 8.55668
#
# Velocity S-wave (km/s) = -1.07252 3.40479 2.28498
# Velocity P-wave (km/s) = 5.26167 7.89832 6.71076
#
# Compressibility (1/GPa) = 0.02088319
#
# Stress axis : x y z
#
# Youngs Moduli (GPa) = 32.62126 66.87411 69.82928
#
# Poissons Ratio (x) = 0.31223 0.45592
# Poissons Ratio (y) = 0.15231 0.58132
# Poissons Ratio (z) = 0.21299 0.55672
#
# Static dielectric constant tensor:
#      x y z
#    x 1.545170 0.000000 0.000000 
#    y 0.000000 1.551400 0.000000 
#    z 0.000000 0.000000 1.521500 
# 
# From -- ./inp_files/64304.got.cif
#   From: 2010.05.17/outbox.cif.g08.bks.cpg/sg74_33_cif.got.tgz:64304.got - 2010.06.03 17:57:02.
