data_PCOD9535753
_publ_section_title
;
Structure prediction by ZEFSAII (Michael W. Deem and Ramdas Pophale) SiO2 
 PCOD9535753
Probable space group: I M M A
;
_chemical_formula_sum "Si O2"
_cell_formula_units_Z 88
_cell_length_a 7.495575
_cell_length_b 19.091734
_cell_length_c 29.222193
_cell_angle_alpha 90.000000
_cell_angle_beta 90.000000
_cell_angle_gamma 90.000000
_cell_volume 4181.798800
_symmetry_space_group_name_H-M "I M M A"
_symmetry_group_IT_number 74
_symmetry_cell_setting 'orthorhombic'
loop_
_space_group_symop_operation_xyz
x,y,z
-x,1/2-y,z
x,-y,-z
-x,1/2+y,-z
-x,-y,-z
x,1/2+y,-z
-x,y,z
x,1/2-y,z
1/2+x,1/2+y,1/2+z
1/2-x,-y,1/2+z
1/2+x,1/2-y,1/2-z
1/2-x,y,1/2-z
1/2-x,1/2-y,1/2-z
1/2+x,y,1/2-z
1/2-x,1/2+y,1/2+z
1/2+x,-y,1/2+z
loop_
_atom_site_type_symbol
_atom_site_label
_atom_site_fract_x
_atom_site_fract_y
_atom_site_fract_z
Si Si1 0.789657 0.040420 0.366050
Si Si2 0.782236 0.565640 0.531627
Si Si3 0.213783 0.750000 0.303792
Si Si4 0.211369 0.327464 0.196344
Si Si5 0.782632 0.670455 0.456680
Si Si6 0.717475 0.886810 0.141609
O O1 0.716865 0.057640 0.416635
O O2 0.772212 0.106713 0.333144
O O3 0.000000 0.028740 0.372748
O O4 0.721321 0.965742 0.347007
O O5 0.732750 0.500000 0.500000
O O6 0.724126 0.633585 0.503309
O O7 0.000000 0.567138 0.533033
O O8 0.250000 0.750000 0.250000
O O9 0.281019 0.678495 0.327743
O O10 0.000000 0.750000 0.310361
O O11 0.284155 0.250000 0.183447
O O12 0.250000 0.337859 0.250000
O O13 0.000000 0.324608 0.190756
O O14 0.722080 0.750000 0.452692
O O15 0.732666 0.628159 0.411137
O O16 0.000000 0.670919 0.456879
O O17 0.500000 0.885012 0.144462
#
# Coordination Sequence:
#
# PCOD9535753 Si02
#       6
#    16  16   8  16  16  16
#     4  10  19  31  53  84 115 141 173 220 269 317
#     4   9  15  24  41  71 110 143 172 211 257 300
#     4  10  20  34  50  70  98 134 178 224 267 312
#     4  10  22  41  62  81 104 137 175 217 270 330
#     4   9  14  22  39  65  98 137 178 214 249 296
#     4   9  16  28  47  71 100 139 179 215 260 310
#
# _framework density 21.043576999999999
#
# number of rings (size 3 to 8) (size 9 to 14) (size 15 to 20)
#    0.000    2.545    2.727    0.545    0.000    2.545 
#    0.000    4.545    0.000    0.545    0.000    0.000 
#    0.000    0.000    0.000    0.000    0.000    0.000 
#
# Total GULP energy -245504.205655 kJ/mol
# GULP energy per Si atom -5579.641038 kJ/mol
# Density = 2.099568 g / cm^3
# Si number density = 21.043577 Si / 1000 Ang^3
#
#
#
# Elastic Constant Matrix: (Units=GPa)
#
#
# Indices 1 2 3 4 5 6 
#
# 1 52.3091 -0.7287 -4.4257 0.0000 0.0000 0.0000
# 2 -0.7287 205.8725 99.3724 0.0000 0.0000 0.0000
# 3 -4.4257 99.3724 120.6822 0.0000 0.0000 0.0000
# 4 0.0000 0.0000 0.0000 36.2432 0.0000 0.0000
# 5 0.0000 0.0000 0.0000 0.0000 -4.3219 0.0000
# 6 0.0000 0.0000 0.0000 0.0000 0.0000 -13.5196
#
#
#
# Elastic Compliance Matrix: (Units=1/GPa)
#
#
# Indices 1 2 3 4 5 6 
#
# 1 0.019202 -0.000451 0.001076 0.000000 0.000000 0.000000
# 2 -0.000451 0.008072 -0.006663 0.000000 0.000000 0.000000
# 3 0.001076 -0.006663 0.013812 0.000000 0.000000 0.000000
# 4 0.000000 0.000000 0.000000 0.027591 0.000000 0.000000
# 5 0.000000 0.000000 0.000000 0.000000 -0.231378 0.000000
# 6 0.000000 0.000000 0.000000 0.000000 0.000000 -0.073967
#
#
# Mechanical properties :
#
#
# Convention : Reuss Voigt Hill
#
# Bulk Modulus (GPa) = 34.47235 63.03329 48.75282
# Shear Modulus (GPa) = -23.26448 22.65671 -0.30388
#
# Velocity S-wave (km/s) = -3.32857 3.28480 -0.38042
# Velocity P-wave (km/s) = 1.28237 6.66373 4.79843
#
# Compressibility (1/GPa) = 0.02900876
#
# Stress axis : x y z
#
# Youngs Moduli (GPa) = 52.07822 123.88404 72.39889
#
# Poissons Ratio (x) = 0.05591 -0.07789
# Poissons Ratio (y) = 0.02350 0.48241
# Poissons Ratio (z) = -0.05603 0.82547
#
# Static dielectric constant tensor:
#      x y z
#    x 1.834850 0.000000 0.000000 
#    y 0.000000 1.780720 0.000000 
#    z 0.000000 0.000000 1.696760 
# 
# From -- ./inp_files/70313.got.cif
#   From: 2010.05.17/outbox.cif.g08.bks.cpg/sg74_36_cif.got.tgz:70313.got - 2010.06.03 17:57:02.
