data_PCOD9535591
_publ_section_title
;
Structure prediction by ZEFSAII (Michael W. Deem and Ramdas Pophale) SiO2 
 PCOD9535591
Probable space group: I M M A
;
_chemical_formula_sum "Si O2"
_cell_formula_units_Z 80
_cell_length_a 11.794759
_cell_length_b 15.414826
_cell_length_c 23.858387
_cell_angle_alpha 90.000000
_cell_angle_beta 90.000000
_cell_angle_gamma 90.000000
_cell_volume 4337.792536
_symmetry_space_group_name_H-M "I M M A"
_symmetry_group_IT_number 74
_symmetry_cell_setting 'orthorhombic'
loop_
_space_group_symop_operation_xyz
x,y,z
-x,1/2-y,z
x,-y,-z
-x,1/2+y,-z
-x,-y,-z
x,1/2+y,-z
-x,y,z
x,1/2-y,z
1/2+x,1/2+y,1/2+z
1/2-x,-y,1/2+z
1/2+x,1/2-y,1/2-z
1/2-x,y,1/2-z
1/2-x,1/2-y,1/2-z
1/2+x,y,1/2-z
1/2-x,1/2+y,1/2+z
1/2+x,-y,1/2+z
loop_
_atom_site_type_symbol
_atom_site_label
_atom_site_fract_x
_atom_site_fract_y
_atom_site_fract_z
Si Si1 0.129501 0.851516 0.217529
Si Si2 0.758272 0.152022 0.403211
Si Si3 0.249767 0.156544 0.538475
Si Si4 0.000000 0.610082 0.448279
Si Si5 0.370785 0.480978 0.612435
Si Si6 0.000000 0.582123 0.583239
O O1 0.132091 0.750000 0.199935
O O2 0.250000 0.864619 0.250000
O O3 0.133527 0.918750 0.166389
O O4 0.000000 0.862979 0.243671
O O5 0.732487 0.250000 0.384718
O O6 0.746520 0.150270 0.471143
O O7 0.888637 0.126706 0.392874
O O8 0.683782 0.074840 0.378537
O O9 0.301937 0.250000 0.554333
O O10 0.306369 0.072460 0.564530
O O11 0.119839 0.155894 0.559933
O O12 0.000000 0.593793 0.515603
O O13 0.000000 0.521774 0.412405
O O14 0.500000 0.492987 0.595342
#
# Coordination Sequence:
#
# PCOD9535591 Si02
#       6
#    16  16  16   8  16   8
#     4   9  19  39  63  84 108 137 170 214 272 331
#     4  10  20  33  50  73 106 146 184 220 257 303
#     4  10  19  31  48  74 108 144 180 217 259 310
#     4   9  15  27  47  68  97 137 178 223 263 300
#     4  11  22  35  52  75 106 142 178 217 262 310
#     4   9  15  29  49  66  95 141 182 219 267 296
#
# _framework density 18.44256
#
# number of rings (size 3 to 8) (size 9 to 14) (size 15 to 20)
#    0.000    2.200    2.000    1.800    0.000    5.600 
#    3.600    2.000    0.000    0.600    0.000    0.000 
#    0.000    0.000    0.000    0.000    0.000    0.000 
#
# Total GULP energy -222755.044868 kJ/mol
# GULP energy per Si atom -5568.876122 kJ/mol
# Density = 1.840058 g / cm^3
# Si number density = 18.442560 Si / 1000 Ang^3
#
#
#
# Elastic Constant Matrix: (Units=GPa)
#
#
# Indices 1 2 3 4 5 6 
#
# 1 123.7213 47.9037 18.8743 0.0000 0.0000 0.0000
# 2 47.9037 135.9385 12.4214 0.0000 0.0000 0.0000
# 3 18.8743 12.4214 10.7637 0.0000 0.0000 0.0000
# 4 0.0000 0.0000 0.0000 10.7968 0.0000 0.0000
# 5 0.0000 0.0000 0.0000 0.0000 14.6592 0.0000
# 6 0.0000 0.0000 0.0000 0.0000 0.0000 13.7328
#
#
#
# Elastic Compliance Matrix: (Units=1/GPa)
#
#
# Indices 1 2 3 4 5 6 
#
# 1 0.011763 -0.002527 -0.017710 0.000000 0.000000 0.000000
# 2 -0.002527 0.008766 -0.005685 0.000000 0.000000 0.000000
# 3 -0.017710 -0.005685 0.130520 0.000000 0.000000 0.000000
# 4 0.000000 0.000000 0.000000 0.092620 0.000000 0.000000
# 5 0.000000 0.000000 0.000000 0.000000 0.068217 0.000000
# 6 0.000000 0.000000 0.000000 0.000000 0.000000 0.072818
#
#
# Mechanical properties :
#
#
# Convention : Reuss Voigt Hill
#
# Bulk Modulus (GPa) = 10.08019 47.64692 28.86356
# Shear Modulus (GPa) = 10.64697 20.58604 15.61651
#
# Velocity S-wave (km/s) = 2.40532 3.34462 2.91308
# Velocity P-wave (km/s) = 3.63204 6.38801 5.19607
#
# Compressibility (1/GPa) = 0.09920451
#
# Stress axis : x y z
#
# Youngs Moduli (GPa) = 85.01350 114.07430 7.66164
#
# Poissons Ratio (x) = 0.28825 0.13569
# Poissons Ratio (y) = 0.21482 0.04356
# Poissons Ratio (z) = 1.50561 0.64856
#
# Static dielectric constant tensor:
#      x y z
#    x 1.670660 0.000000 0.000000 
#    y 0.000000 1.643920 0.000000 
#    z 0.000000 0.000000 1.620150 
# 
# From -- ./inp_files/58572.got.cif
#   From: 2010.05.17/outbox.cif.g08.bks.cpg/sg74_30_cif.got.tgz:58572.got - 2010.06.03 17:57:02.
