data_PCOD9535093
_publ_section_title
;
Structure prediction by ZEFSAII (Michael W. Deem and Ramdas Pophale) SiO2 
 PCOD9535093
Probable space group: I M M A
;
_chemical_formula_sum "Si O2"
_cell_formula_units_Z 88
_cell_length_a 26.350177
_cell_length_b 9.247944
_cell_length_c 14.511089
_cell_angle_alpha 90.000000
_cell_angle_beta 90.000000
_cell_angle_gamma 90.000000
_cell_volume 3536.134161
_symmetry_space_group_name_H-M "I M M A"
_symmetry_group_IT_number 74
_symmetry_cell_setting 'orthorhombic'
loop_
_space_group_symop_operation_xyz
x,y,z
-x,1/2-y,z
x,-y,-z
-x,1/2+y,-z
-x,-y,-z
x,1/2+y,-z
-x,y,z
x,1/2-y,z
1/2+x,1/2+y,1/2+z
1/2-x,-y,1/2+z
1/2+x,1/2-y,1/2-z
1/2-x,y,1/2-z
1/2-x,1/2-y,1/2-z
1/2+x,y,1/2-z
1/2-x,1/2+y,1/2+z
1/2+x,-y,1/2+z
loop_
_atom_site_type_symbol
_atom_site_label
_atom_site_fract_x
_atom_site_fract_y
_atom_site_fract_z
Si Si1 0.324538 0.406712 0.846311
Si Si2 0.558970 0.250000 0.338009
Si Si3 0.870292 0.987187 0.157883
Si Si4 0.060306 0.750000 0.060406
Si Si5 0.237403 0.091128 0.138797
Si Si6 0.000000 0.078657 0.601088
Si Si7 0.091460 0.083861 0.403505
O O1 0.340811 0.250000 0.885586
O O2 0.340988 0.400928 0.739165
O O3 0.268872 0.445564 0.882182
O O4 0.352911 0.556735 0.868164
O O5 0.500000 0.250000 0.307343
O O6 0.591894 0.112931 0.307398
O O7 0.559028 0.250000 0.449641
O O8 0.821470 0.066107 0.113788
O O9 0.907029 0.885554 0.097821
O O10 0.000000 0.750000 0.090467
O O11 0.251995 0.250000 0.102270
O O12 0.250000 0.098646 0.250000
O O13 0.000000 0.250000 0.593960
O O14 0.000000 0.000000 0.500000
O O15 0.049954 0.015646 0.647311
O O16 0.076158 0.250000 0.409729
O O17 0.095751 0.000000 0.500000
#
# Coordination Sequence:
#
# PCOD9535093 Si02
#       7
#    16   8  16   8  16   8  16
#     4  11  23  39  63  95 129 168 213 270 331 385
#     4  11  24  44  69  94 131 179 222 272 339 402
#     4  11  22  41  67  96 128 164 222 271 322 395
#     4  11  24  44  67  96 133 179 220 274 339 402
#     4   9  19  36  63  91 123 163 207 260 324 388
#     4  10  18  34  58  82 114 158 205 242 293 366
#     4  11  22  39  61  86 124 167 210 254 315 384
#
# _framework density 24.885932
#
# number of rings (size 3 to 8) (size 9 to 14) (size 15 to 20)
#    0.000    1.455    1.818    5.182    3.818    2.545 
#    3.273    1.818    0.000    0.000    0.000    0.000 
#    0.000    0.000    0.000    0.000    0.000    0.000 
#
# Total GULP energy -245115.783566 kJ/mol
# GULP energy per Si atom -5570.813263 kJ/mol
# Density = 2.482929 g / cm^3
# Si number density = 24.885932 Si / 1000 Ang^3
#
#
#
# Elastic Constant Matrix: (Units=GPa)
#
#
# Indices 1 2 3 4 5 6 
#
# 1 172.6112 66.1785 21.2147 0.0000 0.0000 0.0000
# 2 66.1785 218.9337 19.7297 0.0000 0.0000 0.0000
# 3 21.2147 19.7297 34.6097 0.0000 0.0000 0.0000
# 4 0.0000 0.0000 0.0000 17.1979 0.0000 0.0000
# 5 0.0000 0.0000 0.0000 0.0000 37.7502 0.0000
# 6 0.0000 0.0000 0.0000 0.0000 0.0000 36.8016
#
#
#
# Elastic Compliance Matrix: (Units=1/GPa)
#
#
# Indices 1 2 3 4 5 6 
#
# 1 0.006872 -0.001790 -0.003192 0.000000 0.000000 0.000000
# 2 -0.001790 0.005281 -0.001914 0.000000 0.000000 0.000000
# 3 -0.003192 -0.001914 0.031941 0.000000 0.000000 0.000000
# 4 0.000000 0.000000 0.000000 0.058147 0.000000 0.000000
# 5 0.000000 0.000000 0.000000 0.000000 0.026490 0.000000
# 6 0.000000 0.000000 0.000000 0.000000 0.000000 0.027173
#
#
# Mechanical properties :
#
#
# Convention : Reuss Voigt Hill
#
# Bulk Modulus (GPa) = 32.99939 71.15560 52.07750
# Shear Modulus (GPa) = 27.80949 39.61870 33.71409
#
# Velocity S-wave (km/s) = 3.34650 3.99433 3.68468
# Velocity P-wave (km/s) = 5.31235 7.06595 6.25095
#
# Compressibility (1/GPa) = 0.03030359
#
# Stress axis : x y z
#
# Youngs Moduli (GPa) = 145.52269 189.35926 31.30760
#
# Poissons Ratio (x) = 0.33886 0.09994
# Poissons Ratio (y) = 0.26042 0.05991
# Poissons Ratio (z) = 0.46452 0.36235
#
# Static dielectric constant tensor:
#      x y z
#    x 2.528480 0.000000 0.000000 
#    y 0.000000 1.984190 0.000000 
#    z 0.000000 0.000000 2.150730 
# 
# From -- ./inp_files/54570.got.cif
#   From: 2010.05.17/outbox.cif.g08.bks.cpg/sg74_28_cif.got.tgz:54570.got - 2010.06.03 17:57:02.
