data_PCOD9535962
_publ_section_title
;
Structure prediction by ZEFSAII (Michael W. Deem and Ramdas Pophale) SiO2 
 PCOD9535962
Probable space group: I M M A
;
_chemical_formula_sum "Si O2"
_cell_formula_units_Z 88
_cell_length_a 9.383707
_cell_length_b 21.849930
_cell_length_c 24.184176
_cell_angle_alpha 90.000000
_cell_angle_beta 90.000000
_cell_angle_gamma 90.000000
_cell_volume 4958.562407
_symmetry_space_group_name_H-M "I M M A"
_symmetry_group_IT_number 74
_symmetry_cell_setting 'orthorhombic'
loop_
_space_group_symop_operation_xyz
x,y,z
-x,1/2-y,z
x,-y,-z
-x,1/2+y,-z
-x,-y,-z
x,1/2+y,-z
-x,y,z
x,1/2-y,z
1/2+x,1/2+y,1/2+z
1/2-x,-y,1/2+z
1/2+x,1/2-y,1/2-z
1/2-x,y,1/2-z
1/2-x,1/2-y,1/2-z
1/2+x,y,1/2-z
1/2-x,1/2+y,1/2+z
1/2+x,-y,1/2+z
loop_
_atom_site_type_symbol
_atom_site_label
_atom_site_fract_x
_atom_site_fract_y
_atom_site_fract_z
Si Si1 0.835994 0.607227 0.398658
Si Si2 0.166360 0.474287 0.440125
Si Si3 0.161923 0.180754 0.981315
Si Si4 0.326414 0.750000 0.690228
Si Si5 0.165102 0.857628 0.894652
Si Si6 0.833269 0.321157 0.807115
O O1 0.827734 0.534325 0.401919
O O2 0.776538 0.635667 0.455519
O O3 0.737098 0.635793 0.352171
O O4 0.000000 0.625193 0.390452
O O5 0.220907 0.500000 0.500000
O O6 0.247209 0.418682 0.410314
O O7 0.000000 0.457036 0.448905
O O8 0.186474 0.250000 0.962089
O O9 0.000000 0.162814 0.964900
O O10 0.167569 0.178902 0.047393
O O11 0.500000 0.750000 0.695874
O O12 0.250000 0.750000 0.750000
O O13 0.288408 0.810909 0.653952
O O14 0.000000 0.874437 0.883531
O O15 0.818508 0.250000 0.824164
O O16 0.750000 0.328591 0.750000
O O17 0.000000 0.333823 0.799932
#
# Coordination Sequence:
#
# PCOD9535962 Si02
#       6
#    16  16  16   8  16  16
#     4  11  22  35  53  80 116 153 189 231 275 331
#     4  10  21  37  54  80 119 155 188 230 283 341
#     4  10  19  32  52  80 113 147 183 232 286 338
#     4  10  22  42  64  90 118 150 195 248 299 350
#     4  10  20  36  59  84 112 146 189 237 288 348
#     4  10  21  38  59  82 110 145 186 232 278 327
#
# _framework density 17.747078999999999
#
# number of rings (size 3 to 8) (size 9 to 14) (size 15 to 20)
#    0.000    1.818    2.727    1.636    0.000    6.182 
#    0.000    0.909    0.000    2.182    0.000    0.000 
#    0.000    0.000    0.000    0.000    0.000    0.000 
#
# Total GULP energy -245372.006054 kJ/mol
# GULP energy per Si atom -5576.636501 kJ/mol
# Density = 1.770669 g / cm^3
# Si number density = 17.747079 Si / 1000 Ang^3
#
#
#
# Elastic Constant Matrix: (Units=GPa)
#
#
# Indices 1 2 3 4 5 6 
#
# 1 91.3800 66.5942 47.7962 0.0000 0.0000 0.0000
# 2 66.5942 95.2760 50.8312 0.0000 0.0000 0.0000
# 3 47.7962 50.8312 99.3264 0.0000 0.0000 0.0000
# 4 0.0000 0.0000 0.0000 -10.7361 0.0000 0.0000
# 5 0.0000 0.0000 0.0000 0.0000 31.3931 0.0000
# 6 0.0000 0.0000 0.0000 0.0000 0.0000 25.5609
#
#
#
# Elastic Compliance Matrix: (Units=1/GPa)
#
#
# Indices 1 2 3 4 5 6 
#
# 1 0.023392 -0.014230 -0.003974 0.000000 0.000000 0.000000
# 2 -0.014230 0.023094 -0.004971 0.000000 0.000000 0.000000
# 3 -0.003974 -0.004971 0.014524 0.000000 0.000000 0.000000
# 4 0.000000 0.000000 0.000000 -0.093143 0.000000 0.000000
# 5 0.000000 0.000000 0.000000 0.000000 0.031854 0.000000
# 6 0.000000 0.000000 0.000000 0.000000 0.000000 0.039122
#
#
# Mechanical properties :
#
#
# Convention : Reuss Voigt Hill
#
# Bulk Modulus (GPa) = 68.21210 68.49172 68.35191
# Shear Modulus (GPa) = 55.50577 17.29431 36.40004
#
# Velocity S-wave (km/s) = 5.59856 3.12507 4.53376
# Velocity P-wave (km/s) = 8.96164 7.19016 8.12433
#
# Compressibility (1/GPa) = 0.01466016
#
# Stress axis : x y z
#
# Youngs Moduli (GPa) = 42.74927 43.30088 68.85073
#
# Poissons Ratio (x) = 0.61617 0.27362
# Poissons Ratio (y) = 0.60832 0.34227
# Poissons Ratio (z) = 0.16989 0.21525
#
# Static dielectric constant tensor:
#      x y z
#    x 1.607370 0.000000 0.000000 
#    y 0.000000 1.605330 0.000000 
#    z 0.000000 0.000000 1.626170 
# 
# From -- ./inp_files/56961.got.cif
#   From: 2010.05.17/outbox.cif.g08.bks.cpg/sg74_29_cif.got.tgz:56961.got - 2010.06.03 17:57:02.
