data_PCOD9535948
_publ_section_title
;
Structure prediction by ZEFSAII (Michael W. Deem and Ramdas Pophale) SiO2 
 PCOD9535948
Probable space group: I M M A
;
_chemical_formula_sum "Si O2"
_cell_formula_units_Z 88
_cell_length_a 8.228844
_cell_length_b 28.969589
_cell_length_c 19.617555
_cell_angle_alpha 90.000000
_cell_angle_beta 90.000000
_cell_angle_gamma 90.000000
_cell_volume 4676.554951
_symmetry_space_group_name_H-M "I M M A"
_symmetry_group_IT_number 74
_symmetry_cell_setting 'orthorhombic'
loop_
_space_group_symop_operation_xyz
x,y,z
-x,1/2-y,z
x,-y,-z
-x,1/2+y,-z
-x,-y,-z
x,1/2+y,-z
-x,y,z
x,1/2-y,z
1/2+x,1/2+y,1/2+z
1/2-x,-y,1/2+z
1/2+x,1/2-y,1/2-z
1/2-x,y,1/2-z
1/2-x,1/2-y,1/2-z
1/2+x,y,1/2-z
1/2-x,1/2+y,1/2+z
1/2+x,-y,1/2+z
loop_
_atom_site_type_symbol
_atom_site_label
_atom_site_fract_x
_atom_site_fract_y
_atom_site_fract_z
Si Si1 0.803912 0.750000 0.327678
Si Si2 0.695774 0.802722 0.555163
Si Si3 0.696662 0.629585 0.671694
Si Si4 0.804195 0.528588 0.828691
Si Si5 0.305792 0.660925 0.088022
Si Si6 0.194981 0.927573 0.171195
O O1 0.750000 0.750000 0.250000
O O2 0.745901 0.795836 0.366449
O O3 0.000000 0.750000 0.329474
O O4 0.500000 0.800612 0.558843
O O5 0.757342 0.750000 0.550596
O O6 0.754754 0.830083 0.621874
O O7 0.740915 0.830955 0.487727
O O8 0.500000 0.629762 0.671178
O O9 0.750000 0.635216 0.750000
O O10 0.751073 0.578698 0.645003
O O11 0.750000 0.528756 0.750000
O O12 0.748347 0.478426 0.854587
O O13 0.000000 0.528443 0.832509
O O14 0.500000 0.662988 0.085752
O O15 0.255588 0.613619 0.124040
O O16 0.250000 0.921538 0.250000
O O17 0.000000 0.927089 0.171187
#
# Coordination Sequence:
#
# PCOD9535948 Si02
#       6
#     8  16  16  16  16  16
#     4  10  22  36  52  74  99 130 171 214 255 302
#     4  10  21  37  56  77 104 140 178 218 266 317
#     4   9  18  34  56  82 108 136 173 215 262 316
#     4   8  15  29  50  75 105 137 170 211 258 309
#     4  11  22  37  53  74 104 140 179 218 263 314
#     4  10  19  32  52  79 107 139 177 217 261 307
#
# _framework density 18.817270000000001
#
# number of rings (size 3 to 8) (size 9 to 14) (size 15 to 20)
#    0.000    2.364    0.909    1.636    0.000    4.727 
#    0.000    0.909    0.000    5.455    0.000    0.000 
#    0.000    0.000    0.000    0.000    0.000    0.000 
#
# Total GULP energy -245280.344981 kJ/mol
# GULP energy per Si atom -5574.553295 kJ/mol
# Density = 1.877444 g / cm^3
# Si number density = 18.817270 Si / 1000 Ang^3
#
#
#
# Elastic Constant Matrix: (Units=GPa)
#
#
# Indices 1 2 3 4 5 6 
#
# 1 12.4121 16.4342 6.6258 0.0000 0.0000 0.0000
# 2 16.4342 140.5481 71.5932 0.0001 0.0000 0.0000
# 3 6.6258 71.5932 103.3235 -0.0001 0.0000 0.0000
# 4 0.0000 0.0001 -0.0001 -25.0620 0.0000 0.0000
# 5 0.0000 0.0000 0.0000 0.0000 22.8328 0.0000
# 6 0.0000 0.0000 0.0000 0.0000 0.0000 15.8452
#
#
#
# Elastic Compliance Matrix: (Units=1/GPa)
#
#
# Indices 1 2 3 4 5 6 
#
# 1 0.095741 -0.012468 0.002500 0.000000 0.000000 0.000000
# 2 -0.012468 0.012620 -0.007945 0.000000 0.000000 0.000000
# 3 0.002500 -0.007945 0.015023 0.000000 0.000000 0.000000
# 4 0.000000 0.000000 0.000000 -0.039901 0.000000 0.000000
# 5 0.000000 0.000000 0.000000 0.000000 0.043797 0.000000
# 6 0.000000 0.000000 0.000000 0.000000 0.000000 0.063111
#
#
# Mechanical properties :
#
#
# Convention : Reuss Voigt Hill
#
# Bulk Modulus (GPa) = 11.42109 49.51000 30.46555
# Shear Modulus (GPa) = 19.57694 13.49857 16.53776
#
# Velocity S-wave (km/s) = 3.22898 2.68125 2.96777
# Velocity P-wave (km/s) = 4.47039 5.99612 5.28857
#
# Compressibility (1/GPa) = 0.08755728
#
# Stress axis : x y z
#
# Youngs Moduli (GPa) = 10.44484 79.24012 66.56456
#
# Poissons Ratio (x) = 0.98799 -0.16639
# Poissons Ratio (y) = 0.13023 0.52884
# Poissons Ratio (z) = -0.02611 0.62955
#
# Static dielectric constant tensor:
#      x y z
#    x 1.657490 0.000000 0.000000 
#    y 0.000000 1.706530 0.000000 
#    z 0.000000 0.000000 1.604550 
# 
# From -- ./inp_files/40117.got.cif
#   From: 2010.05.17/outbox.cif.g08.bks.cpg/sg74_21_cif.got.tgz:40117.got - 2010.06.03 17:57:02.
