data_PCOD9535549
_publ_section_title
;
Structure prediction by ZEFSAII (Michael W. Deem and Ramdas Pophale) SiO2 
 PCOD9535549
Probable space group: I M M A
;
_chemical_formula_sum "Si O2"
_cell_formula_units_Z 88
_cell_length_a 28.834279
_cell_length_b 7.461691
_cell_length_c 18.498678
_cell_angle_alpha 90.000000
_cell_angle_beta 90.000000
_cell_angle_gamma 90.000000
_cell_volume 3980.036450
_symmetry_space_group_name_H-M "I M M A"
_symmetry_group_IT_number 74
_symmetry_cell_setting 'orthorhombic'
loop_
_space_group_symop_operation_xyz
x,y,z
-x,1/2-y,z
x,-y,-z
-x,1/2+y,-z
-x,-y,-z
x,1/2+y,-z
-x,y,z
x,1/2-y,z
1/2+x,1/2+y,1/2+z
1/2-x,-y,1/2+z
1/2+x,1/2-y,1/2-z
1/2-x,y,1/2-z
1/2-x,1/2-y,1/2-z
1/2+x,y,1/2-z
1/2-x,1/2+y,1/2+z
1/2+x,-y,1/2+z
loop_
_atom_site_type_symbol
_atom_site_label
_atom_site_fract_x
_atom_site_fract_y
_atom_site_fract_z
Si Si1 0.500000 0.540307 0.583449
Si Si2 0.079852 0.542792 0.188097
Si Si3 0.750869 0.964520 0.420452
Si Si4 0.820010 0.967732 0.200359
Si Si5 0.948660 0.531123 0.346262
Si Si6 0.345430 0.967671 0.134760
O O1 0.500000 0.750000 0.595949
O O2 0.500000 0.500000 0.500000
O O3 0.455120 0.466471 0.623011
O O4 0.088416 0.750000 0.206294
O O5 0.130364 0.472051 0.168709
O O6 0.057149 0.472615 0.262072
O O7 0.752713 0.750000 0.412631
O O8 0.720705 0.032586 0.352308
O O9 0.803957 0.031327 0.416258
O O10 0.730857 0.000000 0.500000
O O11 0.814998 0.750000 0.200779
O O12 0.826782 0.017196 0.284595
O O13 0.949749 0.750000 0.349989
O O14 0.898669 0.473251 0.378946
O O15 0.000000 0.471784 0.372358
O O16 0.347444 0.750000 0.133103
#
# Coordination Sequence:
#
# PCOD9535549 Si02
#       6
#     8  16  16  16  16  16
#     4  12  24  34  44  60  88 126 161 190 225 272
#     4   9  16  30  49  68  89 113 145 191 240 279
#     4  10  19  31  47  69  97 127 158 195 237 285
#     4   8  15  28  50  74  92 116 156 202 239 273
#     4   8  12  21  44  74  95 111 140 189 238 274
#     4   8  14  25  45  72  96 120 156 198 236 274
#
# _framework density 22.11035
#
# number of rings (size 3 to 8) (size 9 to 14) (size 15 to 20)
#    0.000    3.091    0.909    3.545    0.000    2.909 
#    0.000    2.727    0.000    7.091    0.000    0.000 
#    0.000    0.000    0.000    0.000    0.000    0.000 
#
# Total GULP energy -245040.081113 kJ/mol
# GULP energy per Si atom -5569.092753 kJ/mol
# Density = 2.206003 g / cm^3
# Si number density = 22.110350 Si / 1000 Ang^3
#
#
#
# Elastic Constant Matrix: (Units=GPa)
#
#
# Indices 1 2 3 4 5 6 
#
# 1 154.0636 4.7555 16.0360 0.0000 0.0000 0.0000
# 2 4.7555 59.5649 -8.8952 0.0000 0.0000 0.0000
# 3 16.0360 -8.8952 21.4805 0.0000 0.0000 0.0000
# 4 0.0000 0.0000 0.0000 3.6377 0.0000 0.0000
# 5 0.0000 0.0000 0.0000 0.0000 20.7727 0.0000
# 6 0.0000 0.0000 0.0000 0.0000 0.0000 -1.3132
#
#
#
# Elastic Compliance Matrix: (Units=1/GPa)
#
#
# Indices 1 2 3 4 5 6 
#
# 1 0.007155 -0.001459 -0.005945 0.000000 0.000000 0.000000
# 2 -0.001459 0.018193 0.008623 0.000000 0.000000 0.000000
# 3 -0.005945 0.008623 0.054563 0.000000 0.000000 0.000000
# 4 0.000000 0.000000 0.000000 0.274902 0.000000 0.000000
# 5 0.000000 0.000000 0.000000 0.000000 0.048140 0.000000
# 6 0.000000 0.000000 0.000000 0.000000 0.000000 -0.761481
#
#
# Mechanical properties :
#
#
# Convention : Reuss Voigt Hill
#
# Bulk Modulus (GPa) = 12.14367 28.76681 20.45524
# Shear Modulus (GPa) = -14.99177 19.50027 2.25425
#
# Velocity S-wave (km/s) = -2.60675 2.97299 1.01082
# Velocity P-wave (km/s) = 1.88573 4.98234 3.26096
#
# Compressibility (1/GPa) = 0.08234745
#
# Stress axis : x y z
#
# Youngs Moduli (GPa) = 139.76807 54.96729 18.32734
#
# Poissons Ratio (x) = 0.08020 0.10896
# Poissons Ratio (y) = 0.20393 -0.15804
# Poissons Ratio (z) = 0.83099 -0.47398
#
# Static dielectric constant tensor:
#      x y z
#    x 1.845740 0.000000 0.000000 
#    y 0.000000 1.858610 0.000000 
#    z 0.000000 0.000000 1.767040 
# 
# From -- ./inp_files/40149.got.cif
#   From: 2010.05.17/outbox.cif.g08.bks.cpg/sg74_21_cif.got.tgz:40149.got - 2010.06.03 17:57:02.
