data_PCOD9535405
_publ_section_title
;
Structure prediction by ZEFSAII (Michael W. Deem and Ramdas Pophale) SiO2 
 PCOD9535405
Probable space group: I M M A
;
_chemical_formula_sum "Si O2"
_cell_formula_units_Z 88
_cell_length_a 17.277368
_cell_length_b 14.522829
_cell_length_c 21.489691
_cell_angle_alpha 90.000000
_cell_angle_beta 90.000000
_cell_angle_gamma 90.000000
_cell_volume 5392.112916
_symmetry_space_group_name_H-M "I M M A"
_symmetry_group_IT_number 74
_symmetry_cell_setting 'orthorhombic'
loop_
_space_group_symop_operation_xyz
x,y,z
-x,1/2-y,z
x,-y,-z
-x,1/2+y,-z
-x,-y,-z
x,1/2+y,-z
-x,y,z
x,1/2-y,z
1/2+x,1/2+y,1/2+z
1/2-x,-y,1/2+z
1/2+x,1/2-y,1/2-z
1/2-x,y,1/2-z
1/2-x,1/2-y,1/2-z
1/2+x,y,1/2-z
1/2-x,1/2+y,1/2+z
1/2+x,-y,1/2+z
loop_
_atom_site_type_symbol
_atom_site_label
_atom_site_fract_x
_atom_site_fract_y
_atom_site_fract_z
Si Si1 0.587304 0.640933 0.968192
Si Si2 0.912053 0.995891 0.224961
Si Si3 0.179944 0.146777 0.700167
Si Si4 0.769160 0.011297 0.134321
Si Si5 0.784934 0.500000 0.500000
Si Si6 0.638922 0.858721 0.826590
O O1 0.500000 0.613683 0.986373
O O2 0.595612 0.750000 0.978384
O O3 0.654850 0.585379 0.002332
O O4 0.597941 0.625331 0.893648
O O5 0.898955 0.082041 0.271620
O O6 0.000000 0.993007 0.203766
O O7 0.889631 0.905503 0.265251
O O8 0.850382 0.001307 0.169024
O O9 0.161699 0.250000 0.678820
O O10 0.250000 0.152514 0.750000
O O11 0.214401 0.076240 0.650130
O O12 0.767521 0.015823 0.060332
O O13 0.724565 0.099087 0.163372
O O14 0.638850 0.750000 0.814100
#
# Coordination Sequence:
#
# PCOD9535405 Si02
#       6
#    16  16  16  16   8  16
#     4   9  17  29  47  72  96 117 146 184 228 278
#     4  10  19  30  46  71  98 120 149 191 235 276
#     4   8  15  30  50  68  87 112 144 187 237 282
#     4   9  19  32  47  68  92 123 161 192 221 267
#     4  10  19  32  47  62  90 130 164 190 217 254
#     4   9  17  31  51  72  95 122 149 182 231 287
#
# _framework density 16.320132999999998
#
# number of rings (size 3 to 8) (size 9 to 14) (size 15 to 20)
#    0.000    2.909    0.000    2.455    0.000    3.636 
#    0.000    1.364    0.000    0.000    0.000    0.000 
#    0.000    7.273    0.000    0.000    0.000    0.000 
#
# Total GULP energy -245071.457530 kJ/mol
# GULP energy per Si atom -5569.805853 kJ/mol
# Density = 1.628299 g / cm^3
# Si number density = 16.320133 Si / 1000 Ang^3
#
#
#
# Elastic Constant Matrix: (Units=GPa)
#
#
# Indices 1 2 3 4 5 6 
#
# 1 93.4538 15.6067 23.8148 0.0000 0.0000 0.0000
# 2 15.6067 83.7793 7.0136 0.0000 0.0000 0.0000
# 3 23.8148 7.0136 40.6601 0.0000 0.0000 0.0000
# 4 0.0000 0.0000 0.0000 18.2617 0.0000 0.0000
# 5 0.0000 0.0000 0.0000 0.0000 10.0529 0.0000
# 6 0.0000 0.0000 0.0000 0.0000 0.0000 12.5542
#
#
#
# Elastic Compliance Matrix: (Units=1/GPa)
#
#
# Indices 1 2 3 4 5 6 
#
# 1 0.012836 -0.001788 -0.007210 0.000000 0.000000 0.000000
# 2 -0.001788 0.012360 -0.001085 0.000000 0.000000 0.000000
# 3 -0.007210 -0.001085 0.029004 0.000000 0.000000 0.000000
# 4 0.000000 0.000000 0.000000 0.054759 0.000000 0.000000
# 5 0.000000 0.000000 0.000000 0.000000 0.099474 0.000000
# 6 0.000000 0.000000 0.000000 0.000000 0.000000 0.079655
#
#
# Mechanical properties :
#
#
# Convention : Reuss Voigt Hill
#
# Bulk Modulus (GPa) = 29.38123 34.52927 31.95525
# Shear Modulus (GPa) = 15.64462 19.60430 17.62446
#
# Velocity S-wave (km/s) = 3.09950 3.46964 3.28978
# Velocity P-wave (km/s) = 5.55440 6.10366 5.83549
#
# Compressibility (1/GPa) = 0.03403534
#
# Stress axis : x y z
#
# Youngs Moduli (GPa) = 77.90410 80.90643 34.47784
#
# Poissons Ratio (x) = 0.14463 0.24858
# Poissons Ratio (y) = 0.13926 0.03741
# Poissons Ratio (z) = 0.56168 0.08778
#
# Static dielectric constant tensor:
#      x y z
#    x 1.538430 0.000000 0.000000 
#    y 0.000000 1.569190 0.000000 
#    z 0.000000 0.000000 1.556690 
# 
# From -- ./inp_files/51721.got.cif
#   From: 2010.05.17/outbox.cif.g08.bks.cpg/sg74_26_cif.got.tgz:51721.got - 2010.06.03 17:57:02.
