data_PCOD9535100
_publ_section_title
;
Structure prediction by ZEFSAII (Michael W. Deem and Ramdas Pophale) SiO2 
 PCOD9535100
Probable space group: I M M A
;
_chemical_formula_sum "Si O2"
_cell_formula_units_Z 100
_cell_length_a 7.934622
_cell_length_b 22.560386
_cell_length_c 30.137295
_cell_angle_alpha 90.000000
_cell_angle_beta 90.000000
_cell_angle_gamma 90.000000
_cell_volume 5394.820974
_symmetry_space_group_name_H-M "I M M A"
_symmetry_group_IT_number 74
_symmetry_cell_setting 'orthorhombic'
loop_
_space_group_symop_operation_xyz
x,y,z
-x,1/2-y,z
x,-y,-z
-x,1/2+y,-z
-x,-y,-z
x,1/2+y,-z
-x,y,z
x,1/2-y,z
1/2+x,1/2+y,1/2+z
1/2-x,-y,1/2+z
1/2+x,1/2-y,1/2-z
1/2-x,y,1/2-z
1/2-x,1/2-y,1/2-z
1/2+x,y,1/2-z
1/2-x,1/2+y,1/2+z
1/2+x,-y,1/2+z
loop_
_atom_site_type_symbol
_atom_site_label
_atom_site_fract_x
_atom_site_fract_y
_atom_site_fract_z
Si Si1 0.500000 0.750000 0.004467
Si Si2 0.795850 0.489213 0.551496
Si Si3 0.701931 0.924507 0.201912
Si Si4 0.500000 0.317122 0.080167
Si Si5 0.702555 0.061632 0.201513
Si Si6 0.311555 0.603029 0.607727
Si Si7 0.294852 0.626945 0.107707
Si Si8 0.813104 0.250000 0.931206
O O1 0.666774 0.750000 0.032803
O O2 0.500000 0.693077 0.972639
O O3 0.747547 0.500000 0.500000
O O4 0.721590 0.540902 0.582413
O O5 0.750547 0.425248 0.572566
O O6 0.000000 0.493829 0.554032
O O7 0.500000 0.925932 0.200078
O O8 0.750000 0.899010 0.250000
O O9 0.758632 0.892615 0.157142
O O10 0.760207 0.992841 0.200572
O O11 0.500000 0.250000 0.098754
O O12 0.334074 0.352318 0.093220
O O13 0.500000 0.063475 0.195601
O O14 0.750000 0.085434 0.250000
O O15 0.788361 0.092914 0.160150
O O16 0.500000 0.623694 0.597550
O O17 0.500000 0.632629 0.106702
O O18 0.215105 0.689793 0.096109
O O19 0.000000 0.250000 0.950534
#
# Coordination Sequence:
#
# PCOD9535100 Si02
#       8
#     4  16  16   8  16  16  16   8
#     4  10  26  50  68  88 120 172 212 274 316 364
#     4  10  21  36  62  89 125 167 205 259 327 379
#     4   9  18  32  56  86 124 166 206 260 318 375
#     4  10  26  46  68  87 127 171 205 262 321 366
#     4  10  18  34  58  93 133 166 207 257 317 375
#     4  12  23  39  65  98 128 163 213 260 318 386
#     4  10  20  39  61  86 126 172 210 262 324 381
#     4  12  26  42  67  93 123 167 223 266 317 386
#
# _framework density 18.536294999999999
#
# number of rings (size 3 to 8) (size 9 to 14) (size 15 to 20)
#    0.240    1.440    4.000    0.480    2.240    3.200 
#    0.000    0.400    0.000    0.480    0.000    0.000 
#    0.000    0.000    0.000    0.000    0.000    0.000 
#
# Total GULP energy -279088.875431 kJ/mol
# GULP energy per Si atom -5581.777509 kJ/mol
# Density = 1.849411 g / cm^3
# Si number density = 18.536295 Si / 1000 Ang^3
#
#
#
# Elastic Constant Matrix: (Units=GPa)
#
#
# Indices 1 2 3 4 5 6 
#
# 1 92.2107 41.1691 33.2432 0.0000 0.0000 0.0000
# 2 41.1691 94.5920 36.1002 0.0000 0.0000 0.0000
# 3 33.2432 36.1002 127.1011 0.0000 0.0000 0.0000
# 4 0.0000 0.0000 0.0000 2.7523 0.0000 0.0000
# 5 0.0000 0.0000 0.0000 0.0000 -152.7692 0.0000
# 6 0.0000 0.0000 0.0000 0.0000 0.0000 -3.4189
#
#
#
# Elastic Compliance Matrix: (Units=1/GPa)
#
#
# Indices 1 2 3 4 5 6 
#
# 1 0.013970 -0.005255 -0.002161 0.000000 0.000000 0.000000
# 2 -0.005255 0.013834 -0.002555 0.000000 0.000000 0.000000
# 3 -0.002161 -0.002555 0.009159 0.000000 0.000000 0.000000
# 4 0.000000 0.000000 0.000000 0.363336 0.000000 0.000000
# 5 0.000000 0.000000 0.000000 0.000000 -0.006546 0.000000
# 6 0.000000 0.000000 0.000000 0.000000 0.000000 -0.292491
#
#
# Mechanical properties :
#
#
# Convention : Reuss Voigt Hill
#
# Bulk Modulus (GPa) = 58.75370 59.43652 59.09511
# Shear Modulus (GPa) = 39.40788 -17.12774 11.14007
#
# Velocity S-wave (km/s) = 4.61584 -3.04305 2.45416
# Velocity P-wave (km/s) = 7.75715 4.44833 6.32302
#
# Compressibility (1/GPa) = 0.01702020
#
# Stress axis : x y z
#
# Youngs Moduli (GPa) = 71.58055 72.28560 109.18683
#
# Poissons Ratio (x) = 0.37989 0.23598
# Poissons Ratio (y) = 0.37619 0.27894
# Poissons Ratio (z) = 0.15470 0.18467
#
# Static dielectric constant tensor:
#      x y z
#    x 1.628000 0.000000 0.000000 
#    y 0.000000 1.606260 0.000000 
#    z 0.000000 0.000000 1.651860 
# 
# From -- ./inp_files/70674.got.cif
#   From: 2010.05.17/outbox.cif.g08.bks.cpg/sg74_36_cif.got.tgz:70674.got - 2010.06.03 17:57:02.
