data_PCOD9535652
_publ_section_title
;
Structure prediction by ZEFSAII (Michael W. Deem and Ramdas Pophale) SiO2 
 PCOD9535652
Probable space group: I M M A
;
_chemical_formula_sum "Si O2"
_cell_formula_units_Z 72
_cell_length_a 24.559899
_cell_length_b 7.501004
_cell_length_c 18.028589
_cell_angle_alpha 90.000000
_cell_angle_beta 90.000000
_cell_angle_gamma 90.000000
_cell_volume 3321.296989
_symmetry_space_group_name_H-M "I M M A"
_symmetry_group_IT_number 74
_symmetry_cell_setting 'orthorhombic'
loop_
_space_group_symop_operation_xyz
x,y,z
-x,1/2-y,z
x,-y,-z
-x,1/2+y,-z
-x,-y,-z
x,1/2+y,-z
-x,y,z
x,1/2-y,z
1/2+x,1/2+y,1/2+z
1/2-x,-y,1/2+z
1/2+x,1/2-y,1/2-z
1/2-x,y,1/2-z
1/2-x,1/2-y,1/2-z
1/2+x,y,1/2-z
1/2-x,1/2+y,1/2+z
1/2+x,-y,1/2+z
loop_
_atom_site_type_symbol
_atom_site_label
_atom_site_fract_x
_atom_site_fract_y
_atom_site_fract_z
Si Si1 0.000000 0.037105 0.411925
Si Si2 0.278043 0.953556 0.821811
Si Si3 0.380756 0.464683 0.088103
Si Si4 0.175469 0.537551 0.087157
Si Si5 0.441702 0.463657 0.588665
O O1 0.940732 0.969119 0.386951
O O2 0.000000 0.250000 0.400090
O O3 0.000000 0.000000 0.500000
O O4 0.292908 0.750000 0.800541
O O5 0.250000 0.040345 0.750000
O O6 0.331153 0.032919 0.861495
O O7 0.228835 0.950987 0.879801
O O8 0.380959 0.250000 0.093994
O O9 0.372842 0.500000 0.000000
O O10 0.179025 0.750000 0.099063
O O11 0.116755 0.471992 0.117926
O O12 0.174567 0.500000 0.000000
O O13 0.441808 0.500000 0.500000
O O14 0.500000 0.532181 0.617823
O O15 0.441578 0.250000 0.597709
#
# Coordination Sequence:
#
# PCOD9535652 Si02
#       5
#     8  16  16  16  16
#     4   8  14  26  46  72  96 116 149 194 243 292
#     4  10  21  35  49  66  97 135 166 199 244 291
#     4   9  17  30  50  74  96 123 156 198 245 291
#     4  10  19  31  50  74  97 124 161 203 244 289
#     4   8  14  25  42  65  91 118 148 187 233 275
#
# _framework density 21.678279
#
# number of rings (size 3 to 8) (size 9 to 14) (size 15 to 20)
#    0.000    2.889    0.000    1.333    0.000    4.000 
#    0.000    0.000    2.444    0.000    0.000    0.000 
#    0.000    0.000    0.000    0.000    0.000    0.000 
#
# Total GULP energy -200484.603640 kJ/mol
# GULP energy per Si atom -5569.016768 kJ/mol
# Density = 2.162894 g / cm^3
# Si number density = 21.678279 Si / 1000 Ang^3
#
#
#
# Elastic Constant Matrix: (Units=GPa)
#
#
# Indices 1 2 3 4 5 6 
#
# 1 248.3099 7.6227 65.7781 0.0000 0.0000 0.0000
# 2 7.6227 71.3652 -1.0110 0.0000 0.0000 0.0000
# 3 65.7781 -1.0110 50.4148 0.0000 0.0000 0.0000
# 4 0.0000 0.0000 0.0000 6.5071 0.0000 0.0000
# 5 0.0000 0.0000 0.0000 0.0000 3.2066 0.0000
# 6 0.0000 0.0000 0.0000 0.0000 0.0000 93.9773
#
#
#
# Elastic Compliance Matrix: (Units=1/GPa)
#
#
# Indices 1 2 3 4 5 6 
#
# 1 0.006197 -0.000777 -0.008101 0.000000 0.000000 0.000000
# 2 -0.000777 0.014114 0.001296 0.000000 0.000000 0.000000
# 3 -0.008101 0.001296 0.030431 0.000000 0.000000 0.000000
# 4 0.000000 0.000000 0.000000 0.153678 0.000000 0.000000
# 5 0.000000 0.000000 0.000000 0.000000 0.311855 0.000000
# 6 0.000000 0.000000 0.000000 0.000000 0.000000 0.010641
#
#
# Mechanical properties :
#
#
# Convention : Reuss Voigt Hill
#
# Bulk Modulus (GPa) = 28.10621 57.20772 42.65696
# Shear Modulus (GPa) = 9.02626 40.58487 24.80557
#
# Velocity S-wave (km/s) = 2.04274 4.33152 3.38636
# Velocity P-wave (km/s) = 4.30778 7.17376 5.91692
#
# Compressibility (1/GPa) = 0.03557933
#
# Stress axis : x y z
#
# Youngs Moduli (GPa) = 161.36589 70.85282 32.86082
#
# Poissons Ratio (x) = 0.05503 0.26621
# Poissons Ratio (y) = 0.12533 -0.04260
# Poissons Ratio (z) = 1.30725 -0.09185
#
# Static dielectric constant tensor:
#      x y z
#    x 1.882680 0.000000 0.000000 
#    y 0.000000 1.976500 0.000000 
#    z 0.000000 0.000000 1.757020 
# 
# From -- ./inp_files/45804.got.cif
#   From: 2010.05.17/outbox.cif.g08.bks.cpg/sg74_23_cif.got.tgz:45804.got - 2010.06.03 17:57:02.
