data_PCOD9535291
_publ_section_title
;
Structure prediction by ZEFSAII (Michael W. Deem and Ramdas Pophale) SiO2 
 PCOD9535291
Probable space group: I M M A
;
_chemical_formula_sum "Si O2"
_cell_formula_units_Z 96
_cell_length_a 14.777758
_cell_length_b 14.916732
_cell_length_c 24.564188
_cell_angle_alpha 90.000000
_cell_angle_beta 90.000000
_cell_angle_gamma 90.000000
_cell_volume 5414.827800
_symmetry_space_group_name_H-M "I M M A"
_symmetry_group_IT_number 74
_symmetry_cell_setting 'orthorhombic'
loop_
_space_group_symop_operation_xyz
x,y,z
-x,1/2-y,z
x,-y,-z
-x,1/2+y,-z
-x,-y,-z
x,1/2+y,-z
-x,y,z
x,1/2-y,z
1/2+x,1/2+y,1/2+z
1/2-x,-y,1/2+z
1/2+x,1/2-y,1/2-z
1/2-x,y,1/2-z
1/2-x,1/2-y,1/2-z
1/2+x,y,1/2-z
1/2-x,1/2+y,1/2+z
1/2+x,-y,1/2+z
loop_
_atom_site_type_symbol
_atom_site_label
_atom_site_fract_x
_atom_site_fract_y
_atom_site_fract_z
Si Si1 0.141881 0.147810 0.747088
Si Si2 0.294960 0.565331 0.945613
Si Si3 0.893898 0.060683 0.638647
Si Si4 0.394600 0.348278 0.626924
Si Si5 0.604021 0.250000 0.029658
Si Si6 0.605141 0.250000 0.899886
Si Si7 0.897753 0.522930 0.936738
O O1 0.112958 0.250000 0.731186
O O2 0.250000 0.147329 0.750000
O O3 0.111679 0.073045 0.703897
O O4 0.109697 0.134172 0.808676
O O5 0.339501 0.513860 0.894260
O O6 0.347342 0.658042 0.953908
O O7 0.189120 0.586789 0.934061
O O8 0.301677 0.500000 0.000000
O O9 0.854181 0.157109 0.620109
O O10 0.000000 0.053586 0.623113
O O11 0.500000 0.342245 0.611372
O O12 0.352790 0.250000 0.616260
O O13 0.362290 0.433537 0.593782
O O14 0.500000 0.250000 0.048905
O O15 0.604011 0.250000 0.964376
O O16 0.500000 0.250000 0.881043
O O17 0.000000 0.547711 0.917130
O O18 0.907357 0.500000 0.000000
#
# Coordination Sequence:
#
# PCOD9535291 Si02
#       7
#    16  16  16  16   8   8  16
#     4  10  19  29  44  73 110 146 181 219 264 325
#     4  11  22  36  54  80 107 144 185 229 276 330
#     4  11  20  32  51  78 111 148 185 222 267 328
#     4   9  17  31  51  75 105 143 178 219 274 324
#     4  11  22  38  55  78 111 145 182 228 280 332
#     4   9  18  30  49  74 106 147 182 218 262 317
#     4   9  19  37  54  74 107 143 184 229 268 321
#
# _framework density 17.729095999999998
#
# number of rings (size 3 to 8) (size 9 to 14) (size 15 to 20)
#    0.000    2.000    2.500    2.000    0.000    1.333 
#    7.500    0.417    0.000    0.000    0.000    5.250 
#    0.000    5.333    0.000    0.000    0.000    0.000 
#
# Total GULP energy -267392.040776 kJ/mol
# GULP energy per Si atom -5570.667516 kJ/mol
# Density = 1.768874 g / cm^3
# Si number density = 17.729096 Si / 1000 Ang^3
#
#
#
# Elastic Constant Matrix: (Units=GPa)
#
#
# Indices 1 2 3 4 5 6 
#
# 1 110.5595 37.3227 5.9370 0.0000 0.0000 0.0000
# 2 37.3227 82.2932 29.6230 0.0000 0.0000 0.0000
# 3 5.9370 29.6230 64.7099 0.0000 0.0000 0.0000
# 4 0.0000 0.0000 0.0000 30.1116 0.0000 0.0000
# 5 0.0000 0.0000 0.0000 0.0000 23.9571 0.0000
# 6 0.0000 0.0000 0.0000 0.0000 0.0000 32.6023
#
#
#
# Elastic Compliance Matrix: (Units=1/GPa)
#
#
# Indices 1 2 3 4 5 6 
#
# 1 0.010800 -0.005438 0.001498 0.000000 0.000000 0.000000
# 2 -0.005438 0.017287 -0.007415 0.000000 0.000000 0.000000
# 3 0.001498 -0.007415 0.018710 0.000000 0.000000 0.000000
# 4 0.000000 0.000000 0.000000 0.033210 0.000000 0.000000
# 5 0.000000 0.000000 0.000000 0.000000 0.041741 0.000000
# 6 0.000000 0.000000 0.000000 0.000000 0.000000 0.030673
#
#
# Mechanical properties :
#
#
# Convention : Reuss Voigt Hill
#
# Bulk Modulus (GPa) = 41.51190 44.81421 43.16306
# Shear Modulus (GPa) = 27.29873 29.64620 28.47247
#
# Velocity S-wave (km/s) = 3.92825 4.09366 4.01181
# Velocity P-wave (km/s) = 6.63628 6.90479 6.77187
#
# Compressibility (1/GPa) = 0.02408948
#
# Stress axis : x y z
#
# Youngs Moduli (GPa) = 92.59221 57.84747 53.44616
#
# Poissons Ratio (x) = 0.31455 -0.08008
# Poissons Ratio (y) = 0.50347 0.39629
# Poissons Ratio (z) = -0.13873 0.42892
#
# Static dielectric constant tensor:
#      x y z
#    x 1.678970 0.000000 0.000000 
#    y 0.000000 1.609130 0.000000 
#    z 0.000000 0.000000 1.619490 
# 
# From -- ./inp_files/60033.got.cif
#   From: 2010.05.17/outbox.cif.g08.bks.cpg/sg74_31_cif.got.tgz:60033.got - 2010.06.03 17:57:02.
