data_PCOD9535352
_publ_section_title
;
Structure prediction by ZEFSAII (Michael W. Deem and Ramdas Pophale) SiO2 
 PCOD9535352
Probable space group: I M M A
;
_chemical_formula_sum "Si O2"
_cell_formula_units_Z 112
_cell_length_a 14.466345
_cell_length_b 27.480378
_cell_length_c 17.176462
_cell_angle_alpha 90.000000
_cell_angle_beta 90.000000
_cell_angle_gamma 90.000000
_cell_volume 6828.341505
_symmetry_space_group_name_H-M "I M M A"
_symmetry_group_IT_number 74
_symmetry_cell_setting 'orthorhombic'
loop_
_space_group_symop_operation_xyz
x,y,z
-x,1/2-y,z
x,-y,-z
-x,1/2+y,-z
-x,-y,-z
x,1/2+y,-z
-x,y,z
x,1/2-y,z
1/2+x,1/2+y,1/2+z
1/2-x,-y,1/2+z
1/2+x,1/2-y,1/2-z
1/2-x,y,1/2-z
1/2-x,1/2-y,1/2-z
1/2+x,y,1/2-z
1/2-x,1/2+y,1/2+z
1/2+x,-y,1/2+z
loop_
_atom_site_type_symbol
_atom_site_label
_atom_site_fract_x
_atom_site_fract_y
_atom_site_fract_z
Si Si1 0.109374 0.851402 0.815730
Si Si2 0.606306 0.805687 0.841594
Si Si3 0.725954 0.695204 0.547537
Si Si4 0.894506 0.538374 0.572100
Si Si5 0.608563 0.453007 0.399631
Si Si6 0.743849 0.405663 0.517433
Si Si7 0.755715 0.027114 0.659983
O O1 0.139799 0.840327 0.727875
O O2 0.160508 0.818505 0.879454
O O3 0.121712 0.907072 0.841605
O O4 0.000000 0.840428 0.818098
O O5 0.500000 0.816785 0.860654
O O6 0.610095 0.750000 0.810708
O O7 0.671798 0.806856 0.915593
O O8 0.707145 0.750000 0.519997
O O9 0.719371 0.651017 0.487020
O O10 0.896498 0.500000 0.500000
O O11 0.830536 0.581816 0.539674
O O12 0.839651 0.510302 0.640184
O O13 0.000000 0.551548 0.591782
O O14 0.500000 0.461318 0.410645
O O15 0.659835 0.436149 0.478632
O O16 0.663502 0.498294 0.365184
O O17 0.765000 0.427318 0.601824
O O18 0.750000 0.039801 0.750000
#
# Coordination Sequence:
#
# PCOD9535352 Si02
#       7
#    16  16  16  16  16  16  16
#     4   9  17  28  43  66  94 121 147 176 214 260
#     4   9  17  28  42  63  91 120 149 181 217 257
#     4  10  19  30  45  63  85 117 156 192 224 261
#     4   8  15  30  50  69  90 117 147 178 217 268
#     4   9  18  32  49  69  94 123 151 178 215 268
#     4   9  19  33  48  67  91 120 152 188 227 266
#     4  10  20  32  47  69  94 119 150 187 227 270
#
# _framework density 16.402225999999999
#
# number of rings (size 3 to 8) (size 9 to 14) (size 15 to 20)
#    0.000    2.857    0.000    2.143    0.000    7.714 
#    0.000    1.429    0.000    0.429    0.000    0.000 
#    0.000    0.000    0.000   11.286    0.000    0.000 
#
# Total GULP energy -312231.522847 kJ/mol
# GULP energy per Si atom -5575.562908 kJ/mol
# Density = 1.636489 g / cm^3
# Si number density = 16.402226 Si / 1000 Ang^3
#
#
#
# Elastic Constant Matrix: (Units=GPa)
#
#
# Indices 1 2 3 4 5 6 
#
# 1 72.7567 8.1743 8.4215 0.0000 0.0000 0.0000
# 2 8.1743 76.0292 27.4553 0.0000 0.0000 0.0000
# 3 8.4215 27.4553 74.7493 0.0000 0.0000 0.0000
# 4 0.0000 0.0000 0.0000 12.2882 0.0000 0.0000
# 5 0.0000 0.0000 0.0000 0.0000 11.7456 0.0000
# 6 0.0000 0.0000 0.0000 0.0000 0.0000 16.5448
#
#
#
# Elastic Compliance Matrix: (Units=1/GPa)
#
#
# Indices 1 2 3 4 5 6 
#
# 1 0.014002 -0.001079 -0.001181 0.000000 0.000000 0.000000
# 2 -0.001079 0.015247 -0.005479 0.000000 0.000000 0.000000
# 3 -0.001181 -0.005479 0.015523 0.000000 0.000000 0.000000
# 4 0.000000 0.000000 0.000000 0.081379 0.000000 0.000000
# 5 0.000000 0.000000 0.000000 0.000000 0.085138 0.000000
# 6 0.000000 0.000000 0.000000 0.000000 0.000000 0.060442
#
#
# Mechanical properties :
#
#
# Convention : Reuss Voigt Hill
#
# Bulk Modulus (GPa) = 34.13515 34.62637 34.38076
# Shear Modulus (GPa) = 16.83644 20.08134 18.45889
#
# Velocity S-wave (km/s) = 3.20734 3.50280 3.35832
# Velocity P-wave (km/s) = 5.87984 6.12504 6.00369
#
# Compressibility (1/GPa) = 0.02929531
#
# Stress axis : x y z
#
# Youngs Moduli (GPa) = 71.41643 65.58533 64.41848
#
# Poissons Ratio (x) = 0.07076 0.07610
# Poissons Ratio (y) = 0.07705 0.35293
# Poissons Ratio (z) = 0.08436 0.35933
#
# Static dielectric constant tensor:
#      x y z
#    x 1.576330 0.000000 0.000000 
#    y 0.000000 1.577820 0.000000 
#    z 0.000000 0.000000 1.543050 
# 
# From -- ./inp_files/32961.got.cif
#   From: 2010.05.17/outbox.cif.g08.bks.cpg/sg74_17_cif.got.tgz:32961.got - 2010.06.03 17:57:02.
