data_PCOD9535800
_publ_section_title
;
Structure prediction by ZEFSAII (Michael W. Deem and Ramdas Pophale) SiO2 
 PCOD9535800
Probable space group: I M M A
;
_chemical_formula_sum "Si O2"
_cell_formula_units_Z 112
_cell_length_a 34.823407
_cell_length_b 35.308448
_cell_length_c 5.186423
_cell_angle_alpha 90.000000
_cell_angle_beta 90.000000
_cell_angle_gamma 90.000000
_cell_volume 6377.020625
_symmetry_space_group_name_H-M "I M M A"
_symmetry_group_IT_number 74
_symmetry_cell_setting 'orthorhombic'
loop_
_space_group_symop_operation_xyz
x,y,z
-x,1/2-y,z
x,-y,-z
-x,1/2+y,-z
-x,-y,-z
x,1/2+y,-z
-x,y,z
x,1/2-y,z
1/2+x,1/2+y,1/2+z
1/2-x,-y,1/2+z
1/2+x,1/2-y,1/2-z
1/2-x,y,1/2-z
1/2-x,1/2-y,1/2-z
1/2+x,y,1/2-z
1/2-x,1/2+y,1/2+z
1/2+x,-y,1/2+z
loop_
_atom_site_type_symbol
_atom_site_label
_atom_site_fract_x
_atom_site_fract_y
_atom_site_fract_z
Si Si1 0.881935 0.128787 0.736066
Si Si2 0.954543 0.792003 0.620164
Si Si3 0.795843 0.525019 0.749326
Si Si4 0.337660 0.605141 0.742419
Si Si5 0.955146 0.160891 0.896119
Si Si6 0.795328 0.183770 0.280427
Si Si7 0.659264 0.207851 0.726555
O O1 0.869139 0.111153 0.466376
O O2 0.926737 0.127931 0.804565
O O3 0.870441 0.173501 0.734780
O O4 0.857033 0.110821 0.964820
O O5 0.937572 0.750000 0.643203
O O6 0.953055 0.807864 0.331558
O O7 0.000000 0.789149 0.682565
O O8 0.939820 0.821151 0.835871
O O9 0.804935 0.500000 0.500000
O O10 0.750000 0.532393 0.750000
O O11 0.817651 0.564684 0.742728
O O12 0.805035 0.500000 0.000000
O O13 0.307234 0.639354 0.783723
O O14 0.000000 0.149942 0.922518
O O15 0.750000 0.188239 0.250000
O O16 0.810391 0.202483 0.542474
O O17 0.818637 0.201498 0.041804
O O18 0.642433 0.250000 0.734698
#
# Coordination Sequence:
#
# PCOD9535800 Si02
#       7
#    16  16  16  16  16  16  16
#     4  10  21  35  50  70  98 136 170 204 255 303
#     4   9  17  28  43  65  91 120 157 207 268 320
#     4  10  20  34  56  86 114 138 164 196 235 284
#     4  10  20  36  53  73 106 135 162 195 239 302
#     4  10  19  32  49  69  94 123 166 218 257 302
#     4  10  20  33  50  68  89 126 168 204 246 288
#     4  10  21  33  45  65  92 124 166 215 257 288
#
# _framework density 17.563061000000001
#
# number of rings (size 3 to 8) (size 9 to 14) (size 15 to 20)
#    0.000    2.143    0.000    3.429    0.000    4.571 
#    0.000    4.286    0.000    0.000    0.000    0.000 
#    0.000   11.429    0.000    0.000    0.000    0.000 
#
# Total GULP energy -312649.970297 kJ/mol
# GULP energy per Si atom -5583.035184 kJ/mol
# Density = 1.752309 g / cm^3
# Si number density = 17.563061 Si / 1000 Ang^3
#
#
#
# Elastic Constant Matrix: (Units=GPa)
#
#
# Indices 1 2 3 4 5 6 
#
# 1 48.1545 22.2929 -12.0330 0.0000 0.0000 0.0000
# 2 22.2929 105.8015 26.8531 0.0000 0.0000 0.0000
# 3 -12.0330 26.8531 54.2040 0.0000 0.0000 0.0000
# 4 0.0000 0.0000 0.0000 202.1253 0.0000 0.0000
# 5 0.0000 0.0000 0.0000 0.0000 5.7648 0.0000
# 6 0.0000 0.0000 0.0000 0.0000 0.0000 8.3402
#
#
#
# Elastic Compliance Matrix: (Units=1/GPa)
#
#
# Indices 1 2 3 4 5 6 
#
# 1 0.027135 -0.008289 0.010130 0.000000 0.000000 0.000000
# 2 -0.008289 0.013343 -0.008450 0.000000 0.000000 0.000000
# 3 0.010130 -0.008450 0.024884 0.000000 0.000000 0.000000
# 4 0.000000 0.000000 0.000000 0.004947 0.000000 0.000000
# 5 0.000000 0.000000 0.000000 0.000000 0.173467 0.000000
# 6 0.000000 0.000000 0.000000 0.000000 0.000000 0.119902
#
#
# Mechanical properties :
#
#
# Convention : Reuss Voigt Hill
#
# Bulk Modulus (GPa) = 19.17757 31.37624 25.27691
# Shear Modulus (GPa) = 12.68147 54.64919 33.66533
#
# Velocity S-wave (km/s) = 2.69002 5.58422 4.38291
# Velocity P-wave (km/s) = 4.53776 7.71244 6.32744
#
# Compressibility (1/GPa) = 0.05214426
#
# Stress axis : x y z
#
# Youngs Moduli (GPa) = 36.85288 74.94679 40.18666
#
# Poissons Ratio (x) = 0.62120 -0.40709
# Poissons Ratio (y) = 0.30546 0.33958
# Poissons Ratio (z) = -0.37332 0.63331
#
# Static dielectric constant tensor:
#      x y z
#    x 1.618520 0.000000 0.000000 
#    y 0.000000 1.556820 0.000000 
#    z 0.000000 0.000000 1.596740 
# 
# From -- ./inp_files/5328.got.cif
#   From: 2010.05.17/outbox.cif.g08.bks.cpg/sg74_3_cif.got.tgz:5328.got - 2010.06.03 17:57:02.
