data_PCOD9535297
_publ_section_title
;
Structure prediction by ZEFSAII (Michael W. Deem and Ramdas Pophale) SiO2 
 PCOD9535297
Probable space group: I M M A
;
_chemical_formula_sum "Si O2"
_cell_formula_units_Z 116
_cell_length_a 7.773809
_cell_length_b 27.313798
_cell_length_c 27.957100
_cell_angle_alpha 90.000000
_cell_angle_beta 90.000000
_cell_angle_gamma 90.000000
_cell_volume 5936.193911
_symmetry_space_group_name_H-M "I M M A"
_symmetry_group_IT_number 74
_symmetry_cell_setting 'orthorhombic'
loop_
_space_group_symop_operation_xyz
x,y,z
-x,1/2-y,z
x,-y,-z
-x,1/2+y,-z
-x,-y,-z
x,1/2+y,-z
-x,y,z
x,1/2-y,z
1/2+x,1/2+y,1/2+z
1/2-x,-y,1/2+z
1/2+x,1/2-y,1/2-z
1/2-x,y,1/2-z
1/2-x,1/2-y,1/2-z
1/2+x,y,1/2-z
1/2-x,1/2+y,1/2+z
1/2+x,-y,1/2+z
loop_
_atom_site_type_symbol
_atom_site_label
_atom_site_fract_x
_atom_site_fract_y
_atom_site_fract_z
Si Si1 0.199642 0.390738 0.000229
Si Si2 0.706545 0.042730 0.802355
Si Si3 0.696088 0.421866 0.900968
Si Si4 0.207153 0.064113 0.332878
Si Si5 0.207897 0.827003 0.681716
Si Si6 0.500000 0.750000 0.710324
Si Si7 0.300199 0.027731 0.432971
Si Si8 0.795224 0.304219 0.429543
O O1 0.226932 0.389956 0.943636
O O2 0.000000 0.397070 0.009506
O O3 0.276643 0.440007 0.024184
O O4 0.251333 0.343405 0.030091
O O5 0.500000 0.041722 0.807079
O O6 0.750000 0.061552 0.750000
O O7 0.774645 0.073394 0.847806
O O8 0.765664 0.985993 0.807353
O O9 0.500000 0.405964 0.896127
O O10 0.704868 0.477902 0.919734
O O11 0.241812 0.115778 0.308161
O O12 0.287607 0.061424 0.385748
O O13 0.000000 0.062102 0.338980
O O14 0.346454 0.792379 0.706467
O O15 0.244975 0.819936 0.624738
O O16 0.000000 0.815734 0.688945
O O17 0.500000 0.013681 0.441499
O O18 0.720680 0.250000 0.438020
O O19 0.000000 0.300597 0.430339
#
# Coordination Sequence:
#
# PCOD9535297 Si02
#       8
#    16  16  16  16  16   4  16  16
#     4  11  22  31  46  70 100 133 171 210 249 288
#     4   9  19  35  54  76  98 126 159 204 257 309
#     4  10  21  35  49  68  97 133 168 199 247 307
#     4   9  18  32  49  70 100 130 165 204 254 309
#     4  10  20  33  48  70 102 133 171 222 260 307
#     4  12  22  28  52  70 102 130 184 212 274 304
#     4  10  19  29  45  69  99 130 167 205 244 290
#     4  10  20  33  48  67  96 137 179 212 253 293
#
# _framework density 19.541139999999999
#
# number of rings (size 3 to 8) (size 9 to 14) (size 15 to 20)
#    0.000    2.069    2.069    2.690    1.931    6.345 
#    0.000    0.000    0.000    0.000    0.000    0.483 
#    0.000    0.552    0.000    1.793    0.000    2.207 
#
# Total GULP energy -323163.956933 kJ/mol
# GULP energy per Si atom -5571.792361 kJ/mol
# Density = 1.949666 g / cm^3
# Si number density = 19.541140 Si / 1000 Ang^3
#
#
#
# Elastic Constant Matrix: (Units=GPa)
#
#
# Indices 1 2 3 4 5 6 
#
# 1 41.6636 12.5605 9.8636 0.0000 0.0000 0.0000
# 2 12.5605 43.8365 35.7391 0.0000 0.0000 0.0000
# 3 9.8636 35.7391 141.0540 0.0000 0.0000 0.0000
# 4 0.0000 0.0000 0.0000 -2.3533 0.0000 0.0000
# 5 0.0000 0.0000 0.0000 0.0000 11.4011 0.0000
# 6 0.0000 0.0000 0.0000 0.0000 0.0000 27.7981
#
#
#
# Elastic Compliance Matrix: (Units=1/GPa)
#
#
# Indices 1 2 3 4 5 6 
#
# 1 0.026272 -0.007600 0.000088 0.000000 0.000000 0.000000
# 2 -0.007600 0.030950 -0.007310 0.000000 0.000000 0.000000
# 3 0.000088 -0.007310 0.008936 0.000000 0.000000 0.000000
# 4 0.000000 0.000000 0.000000 -0.424941 0.000000 0.000000
# 5 0.000000 0.000000 0.000000 0.000000 0.087710 0.000000
# 6 0.000000 0.000000 0.000000 0.000000 0.000000 0.035974
#
#
# Mechanical properties :
#
#
# Convention : Reuss Voigt Hill
#
# Bulk Modulus (GPa) = 27.38700 38.09783 32.74242
# Shear Modulus (GPa) = -25.86852 18.59526 -3.63663
#
# Velocity S-wave (km/s) = -3.64235 3.08814 -1.36567
# Velocity P-wave (km/s) = 1.90879 5.67926 3.78223
#
# Compressibility (1/GPa) = 0.03651367
#
# Stress axis : x y z
#
# Youngs Moduli (GPa) = 38.06338 32.31059 111.91279
#
# Poissons Ratio (x) = 0.24556 -0.00990
# Poissons Ratio (y) = 0.28928 0.81812
# Poissons Ratio (z) = -0.00337 0.23620
#
# Static dielectric constant tensor:
#      x y z
#    x 1.704200 0.000000 0.000000 
#    y 0.000000 1.714740 0.000000 
#    z 0.000000 0.000000 1.753990 
# 
# From -- ./inp_files/71036.got.cif
#   From: 2010.05.17/outbox.cif.g08.bks.cpg/sg74_36_cif.got.tgz:71036.got - 2010.06.03 17:57:02.
