data_PCOD9535360
_publ_section_title
;
Structure prediction by ZEFSAII (Michael W. Deem and Ramdas Pophale) SiO2 
 PCOD9535360
Probable space group: I M M A
;
_chemical_formula_sum "Si O2"
_cell_formula_units_Z 116
_cell_length_a 7.877585
_cell_length_b 26.668447
_cell_length_c 23.925201
_cell_angle_alpha 90.000000
_cell_angle_beta 90.000000
_cell_angle_gamma 90.000000
_cell_volume 5026.276998
_symmetry_space_group_name_H-M "I M M A"
_symmetry_group_IT_number 74
_symmetry_cell_setting 'orthorhombic'
loop_
_space_group_symop_operation_xyz
x,y,z
-x,1/2-y,z
x,-y,-z
-x,1/2+y,-z
-x,-y,-z
x,1/2+y,-z
-x,y,z
x,1/2-y,z
1/2+x,1/2+y,1/2+z
1/2-x,-y,1/2+z
1/2+x,1/2-y,1/2-z
1/2-x,y,1/2-z
1/2-x,1/2-y,1/2-z
1/2+x,y,1/2-z
1/2-x,1/2+y,1/2+z
1/2+x,-y,1/2+z
loop_
_atom_site_type_symbol
_atom_site_label
_atom_site_fract_x
_atom_site_fract_y
_atom_site_fract_z
Si Si1 0.197418 0.031216 0.898251
Si Si2 0.196179 0.042546 0.188348
Si Si3 0.695339 0.321547 0.068148
Si Si4 0.795558 0.193265 0.594226
Si Si5 0.200262 0.396753 0.989575
Si Si6 0.500000 0.750000 0.535375
Si Si7 0.797973 0.882172 0.314584
Si Si8 0.801243 0.843544 0.691680
O O1 0.269817 0.055637 0.954958
O O2 0.207571 0.075106 0.851310
O O3 0.000000 0.020637 0.912036
O O4 0.277680 0.984460 0.865269
O O5 0.250000 0.024730 0.250000
O O6 0.214758 0.102263 0.187741
O O7 0.000000 0.029893 0.184840
O O8 0.500000 0.306198 0.056316
O O9 0.728906 0.315346 0.134088
O O10 0.848316 0.292403 0.039523
O O11 0.712942 0.378707 0.046545
O O12 0.729600 0.250000 0.585518
O O13 0.728945 0.150435 0.552645
O O14 0.758339 0.171051 0.655686
O O15 0.000000 0.194841 0.587357
O O16 0.000000 0.403722 0.999289
O O17 0.750000 0.883538 0.250000
O O18 0.000000 0.890463 0.320363
O O19 0.750000 0.818473 0.750000
O O20 0.000000 0.853836 0.694755
#
# Coordination Sequence:
#
# PCOD9535360 Si02
#       8
#    16  16  16  16  16   4  16  16
#     4   9  19  34  52  80 116 153 203 252 301 361
#     4  10  19  32  56  88 120 161 211 261 308 373
#     4  11  25  44  67  99 130 161 211 254 310 377
#     4   9  19  33  48  68  95 133 184 243 298 361
#     4  10  20  36  57  83 117 160 198 250 314 365
#     4  12  26  44  74  98 124 172 204 262 308 368
#     4  10  19  30  45  65  95 138 181 235 306 359
#     4  10  22  40  67  94 127 165 200 247 304 371
#
# _framework density 23.078710999999998
#
# number of rings (size 3 to 8) (size 9 to 14) (size 15 to 20)
#    0.000    2.069    0.690    3.103    2.897    3.862 
#    0.000    1.034    0.000    4.138    0.000    0.000 
#    0.000    0.000    0.000    0.000    0.000    0.000 
#
# Total GULP energy -323222.625903 kJ/mol
# GULP energy per Si atom -5572.803895 kJ/mol
# Density = 2.302618 g / cm^3
# Si number density = 23.078711 Si / 1000 Ang^3
#
#
#
# Elastic Constant Matrix: (Units=GPa)
#
#
# Indices 1 2 3 4 5 6 
#
# 1 63.8238 7.8215 9.0803 0.0000 0.0000 0.0000
# 2 7.8215 44.0175 6.1247 0.0000 0.0000 0.0000
# 3 9.0803 6.1247 85.8858 0.0000 0.0000 0.0000
# 4 0.0000 0.0000 0.0000 -11.5826 0.0000 0.0000
# 5 0.0000 0.0000 0.0000 0.0000 15.0371 0.0000
# 6 0.0000 0.0000 0.0000 0.0000 0.0000 29.3593
#
#
#
# Elastic Compliance Matrix: (Units=1/GPa)
#
#
# Indices 1 2 3 4 5 6 
#
# 1 0.016212 -0.002669 -0.001524 0.000000 0.000000 0.000000
# 2 -0.002669 0.023385 -0.001386 0.000000 0.000000 0.000000
# 3 -0.001524 -0.001386 0.011903 0.000000 0.000000 0.000000
# 4 0.000000 0.000000 0.000000 -0.086336 0.000000 0.000000
# 5 0.000000 0.000000 0.000000 0.000000 0.066502 0.000000
# 6 0.000000 0.000000 0.000000 0.000000 0.000000 0.034061
#
#
# Mechanical properties :
#
#
# Convention : Reuss Voigt Hill
#
# Bulk Modulus (GPa) = 24.78644 26.64224 25.71434
# Shear Modulus (GPa) = 55.35170 17.94278 36.64724
#
# Velocity S-wave (km/s) = 4.90265 2.79132 3.98920
# Velocity P-wave (km/s) = 6.54303 4.68591 5.69074
#
# Compressibility (1/GPa) = 0.04034463
#
# Stress axis : x y z
#
# Youngs Moduli (GPa) = 61.68289 42.76207 84.01053
#
# Poissons Ratio (x) = 0.11412 0.12801
# Poissons Ratio (y) = 0.16461 0.11640
# Poissons Ratio (z) = 0.09399 0.05925
#
# Static dielectric constant tensor:
#      x y z
#    x 1.860750 0.000000 0.000000 
#    y 0.000000 1.919910 0.000000 
#    z 0.000000 0.000000 1.934260 
# 
# From -- ./inp_files/57686.got.cif
#   From: 2010.05.17/outbox.cif.g08.bks.cpg/sg74_29_cif.got.tgz:57686.got - 2010.06.03 17:57:02.
