data_PCOD9535170
_publ_section_title
;
Structure prediction by ZEFSAII (Michael W. Deem and Ramdas Pophale) SiO2 
 PCOD9535170
Probable space group: I M M A
;
_chemical_formula_sum "Si O2"
_cell_formula_units_Z 104
_cell_length_a 24.533678
_cell_length_b 26.503786
_cell_length_c 7.887432
_cell_angle_alpha 90.000000
_cell_angle_beta 90.000000
_cell_angle_gamma 90.000000
_cell_volume 5128.687119
_symmetry_space_group_name_H-M "I M M A"
_symmetry_group_IT_number 74
_symmetry_cell_setting 'orthorhombic'
loop_
_space_group_symop_operation_xyz
x,y,z
-x,1/2-y,z
x,-y,-z
-x,1/2+y,-z
-x,-y,-z
x,1/2+y,-z
-x,y,z
x,1/2-y,z
1/2+x,1/2+y,1/2+z
1/2-x,-y,1/2+z
1/2+x,1/2-y,1/2-z
1/2-x,y,1/2-z
1/2-x,1/2-y,1/2-z
1/2+x,y,1/2-z
1/2-x,1/2+y,1/2+z
1/2+x,-y,1/2+z
loop_
_atom_site_type_symbol
_atom_site_label
_atom_site_fract_x
_atom_site_fract_y
_atom_site_fract_z
Si Si1 0.439277 0.250000 0.043703
Si Si2 0.745111 0.638163 0.062046
Si Si3 0.142526 0.840100 0.943848
Si Si4 0.935800 0.443074 0.436649
Si Si5 0.750000 0.438029 0.250000
Si Si6 0.130123 0.155021 0.467199
Si Si7 0.062855 0.750000 0.957379
Si Si8 0.632500 0.048022 0.387891
O O1 0.500000 0.250000 0.981487
O O2 0.410096 0.199550 0.987574
O O3 0.439062 0.250000 0.250414
O O4 0.750000 0.616368 0.250000
O O5 0.796921 0.671956 0.010333
O O6 0.740753 0.595904 0.916511
O O7 0.687326 0.665136 0.054940
O O8 0.140749 0.842102 0.737302
O O9 0.097422 0.800207 0.002736
O O10 0.135946 0.899265 0.990757
O O11 0.926072 0.500000 0.500000
O O12 0.897386 0.398788 0.511091
O O13 0.916623 0.444246 0.242383
O O14 0.000000 0.431168 0.456328
O O15 0.690832 0.462084 0.291349
O O16 0.000000 0.750000 0.015875
O O17 0.621828 0.000000 0.500000
#
# Coordination Sequence:
#
# PCOD9535170 Si02
#       8
#     8  16  16  16   8  16   8  16
#     4   9  18  31  59  92 112 153 211 251 314 380
#     4  11  20  36  64  89 123 167 201 252 315 374
#     4   9  19  37  58  89 128 153 206 258 307 379
#     4  10  21  36  57  83 119 164 207 254 309 376
#     4  10  20  44  56  93 128 157 216 252 314 376
#     4  10  18  37  58  84 124 158 199 264 312 375
#     4   9  18  35  65  94 118 167 215 257 316 378
#     4  10  21  38  60  87 126 162 203 265 321 373
#
# _framework density 20.278092999999998
#
# number of rings (size 3 to 8) (size 9 to 14) (size 15 to 20)
#    0.000    2.154    4.615    0.462    0.000    7.692 
#    5.538    3.846    0.000    2.769    0.000    0.000 
#    0.000    0.000    0.000    0.000    0.000    0.000 
#
# Total GULP energy -289804.105767 kJ/mol
# GULP energy per Si atom -5573.155880 kJ/mol
# Density = 2.023194 g / cm^3
# Si number density = 20.278093 Si / 1000 Ang^3
#
#
#
# Elastic Constant Matrix: (Units=GPa)
#
#
# Indices 1 2 3 4 5 6 
#
# 1 153.3335 72.3975 10.2915 0.0000 0.0000 0.0000
# 2 72.3975 117.1255 10.8332 0.0000 0.0000 0.0000
# 3 10.2915 10.8332 46.2384 0.0000 0.0000 0.0000
# 4 0.0000 0.0000 0.0000 26.9002 0.0000 0.0000
# 5 0.0000 0.0000 0.0000 0.0000 7.5410 0.0000
# 6 0.0000 0.0000 0.0000 0.0000 0.0000 30.2590
#
#
#
# Elastic Compliance Matrix: (Units=1/GPa)
#
#
# Indices 1 2 3 4 5 6 
#
# 1 0.009234 -0.005640 -0.000734 0.000000 0.000000 0.000000
# 2 -0.005640 0.012172 -0.001596 0.000000 0.000000 0.000000
# 3 -0.000734 -0.001596 0.022164 0.000000 0.000000 0.000000
# 4 0.000000 0.000000 0.000000 0.037174 0.000000 0.000000
# 5 0.000000 0.000000 0.000000 0.000000 0.132609 0.000000
# 6 0.000000 0.000000 0.000000 0.000000 0.000000 0.033048
#
#
# Mechanical properties :
#
#
# Convention : Reuss Voigt Hill
#
# Bulk Modulus (GPa) = 36.19292 55.97131 46.08211
# Shear Modulus (GPa) = 18.41273 27.81838 23.11556
#
# Velocity S-wave (km/s) = 3.01659 3.70786 3.37994
# Velocity P-wave (km/s) = 5.47906 6.78180 6.16494
#
# Compressibility (1/GPa) = 0.02762972
#
# Stress axis : x y z
#
# Youngs Moduli (GPa) = 108.29751 82.15905 45.11740
#
# Poissons Ratio (x) = 0.46335 0.03311
# Poissons Ratio (y) = 0.61077 0.07203
# Poissons Ratio (z) = 0.07948 0.13116
#
# Static dielectric constant tensor:
#      x y z
#    x 1.760610 0.000000 0.000000 
#    y 0.000000 1.664090 0.000000 
#    z 0.000000 0.000000 1.744750 
# 
# From -- ./inp_files/12812.got.cif
#   From: 2010.05.17/outbox.cif.g08.bks.cpg/sg74_7_cif.got.tgz:12812.got - 2010.06.03 17:57:02.
