data_PCOD9535588
_publ_section_title
;
Structure prediction by ZEFSAII (Michael W. Deem and Ramdas Pophale) SiO2 
 PCOD9535588
Probable space group: I M M A
;
_chemical_formula_sum "Si O2"
_cell_formula_units_Z 80
_cell_length_a 27.843883
_cell_length_b 8.867536
_cell_length_c 18.081602
_cell_angle_alpha 90.000000
_cell_angle_beta 90.000000
_cell_angle_gamma 90.000000
_cell_volume 4464.467503
_symmetry_space_group_name_H-M "I M M A"
_symmetry_group_IT_number 74
_symmetry_cell_setting 'orthorhombic'
loop_
_space_group_symop_operation_xyz
x,y,z
-x,1/2-y,z
x,-y,-z
-x,1/2+y,-z
-x,-y,-z
x,1/2+y,-z
-x,y,z
x,1/2-y,z
1/2+x,1/2+y,1/2+z
1/2-x,-y,1/2+z
1/2+x,1/2-y,1/2-z
1/2-x,y,1/2-z
1/2-x,1/2-y,1/2-z
1/2+x,y,1/2-z
1/2-x,1/2+y,1/2+z
1/2+x,-y,1/2+z
loop_
_atom_site_type_symbol
_atom_site_label
_atom_site_fract_x
_atom_site_fract_y
_atom_site_fract_z
Si Si1 0.151026 0.928410 0.291760
Si Si2 0.313491 0.570519 0.374034
Si Si3 0.553686 0.069312 0.261919
Si Si4 0.912735 0.570531 0.925737
Si Si5 0.287535 0.570374 0.921556
O O1 0.152365 0.750000 0.306721
O O2 0.178576 0.954262 0.213806
O O3 0.096732 0.984138 0.278575
O O4 0.176847 0.017130 0.357039
O O5 0.311481 0.750000 0.387289
O O6 0.360023 0.500582 0.413331
O O7 0.265130 0.493373 0.401572
O O8 0.500000 0.027998 0.237723
O O9 0.559910 0.250000 0.252698
O O10 0.559165 0.038399 0.349776
O O11 0.908994 0.750000 0.933839
O O12 0.934045 0.500000 0.000000
O O13 0.285964 0.750000 0.926369
O O14 0.302109 0.500000 0.000000
#
# Coordination Sequence:
#
# PCOD9535588 Si02
#       5
#    16  16  16  16  16
#     4  10  21  37  57  81 108 138 175 218 262 311
#     4  10  20  35  54  77 108 144 180 216 255 305
#     4   9  19  36  56  77 102 136 178 221 266 316
#     4  10  19  31  48  73 107 144 181 220 261 307
#     4  12  24  37  55  79 109 142 176 215 260 311
#
# _framework density 17.919270000000001
#
# number of rings (size 3 to 8) (size 9 to 14) (size 15 to 20)
#    0.000    1.800    0.000    4.800    0.000    6.400 
#    0.000    0.000    0.000    0.600    0.000    0.000 
#    0.000    0.000    0.000    0.000    0.000    0.000 
#
# Total GULP energy -223549.163980 kJ/mol
# GULP energy per Si atom -5588.729099 kJ/mol
# Density = 1.787848 g / cm^3
# Si number density = 17.919270 Si / 1000 Ang^3
#
#
#
# Elastic Constant Matrix: (Units=GPa)
#
#
# Indices 1 2 3 4 5 6 
#
# 1 53.6547 23.2858 15.7578 0.0000 0.0000 0.0000
# 2 23.2858 84.8079 38.1212 0.0000 0.0000 0.0000
# 3 15.7578 38.1212 55.2980 0.0000 0.0000 0.0000
# 4 0.0000 0.0000 0.0000 32.2733 0.0000 0.0000
# 5 0.0000 0.0000 0.0000 0.0000 0.3188 0.0000
# 6 0.0000 0.0000 0.0000 0.0000 0.0000 22.8463
#
#
#
# Elastic Compliance Matrix: (Units=1/GPa)
#
#
# Indices 1 2 3 4 5 6 
#
# 1 0.021493 -0.004562 -0.002980 0.000000 0.000000 0.000000
# 2 -0.004562 0.018054 -0.011146 0.000000 0.000000 0.000000
# 3 -0.002980 -0.011146 0.026617 0.000000 0.000000 0.000000
# 4 0.000000 0.000000 0.000000 0.030985 0.000000 0.000000
# 5 0.000000 0.000000 0.000000 0.000000 3.137048 0.000000
# 6 0.000000 0.000000 0.000000 0.000000 0.000000 0.043771
#
#
# Mechanical properties :
#
#
# Convention : Reuss Voigt Hill
#
# Bulk Modulus (GPa) = 34.73653 38.67667 36.70660
# Shear Modulus (GPa) = 1.50379 18.86073 10.18226
#
# Velocity S-wave (km/s) = 0.91707 3.24781 2.38634
# Velocity P-wave (km/s) = 4.53304 5.97453 5.30299
#
# Compressibility (1/GPa) = 0.02878814
#
# Stress axis : x y z
#
# Youngs Moduli (GPa) = 46.52764 55.38916 37.57022
#
# Poissons Ratio (x) = 0.25268 0.11195
# Poissons Ratio (y) = 0.21225 0.41876
# Poissons Ratio (z) = 0.13864 0.61737
#
# Static dielectric constant tensor:
#      x y z
#    x 1.589340 0.000000 0.000000 
#    y 0.000000 1.592830 0.000000 
#    z 0.000000 0.000000 1.612030 
# 
# From -- ./inp_files/39671.got.cif
#   From: 2010.05.17/outbox.cif.g08.bks.cpg/sg74_20_cif.got.tgz:39671.got - 2010.06.03 17:57:02.
