data_PCOD9535242
_publ_section_title
;
Structure prediction by ZEFSAII (Michael W. Deem and Ramdas Pophale) SiO2 
 PCOD9535242
Probable space group: I M M A
;
_chemical_formula_sum "Si O2"
_cell_formula_units_Z 104
_cell_length_a 20.171149
_cell_length_b 7.317470
_cell_length_c 32.159656
_cell_angle_alpha 90.000000
_cell_angle_beta 90.000000
_cell_angle_gamma 90.000000
_cell_volume 4746.822395
_symmetry_space_group_name_H-M "I M M A"
_symmetry_group_IT_number 74
_symmetry_cell_setting 'orthorhombic'
loop_
_space_group_symop_operation_xyz
x,y,z
-x,1/2-y,z
x,-y,-z
-x,1/2+y,-z
-x,-y,-z
x,1/2+y,-z
-x,y,z
x,1/2-y,z
1/2+x,1/2+y,1/2+z
1/2-x,-y,1/2+z
1/2+x,1/2-y,1/2-z
1/2-x,y,1/2-z
1/2-x,1/2-y,1/2-z
1/2+x,y,1/2-z
1/2-x,1/2+y,1/2+z
1/2+x,-y,1/2+z
loop_
_atom_site_type_symbol
_atom_site_label
_atom_site_fract_x
_atom_site_fract_y
_atom_site_fract_z
Si Si1 0.000000 0.972578 0.337870
Si Si2 0.856610 0.526807 0.370498
Si Si3 0.134168 0.025331 0.912707
Si Si4 0.762972 0.458021 0.705332
Si Si5 0.888555 0.457071 0.821467
Si Si6 0.000000 0.035413 0.952396
Si Si7 0.225366 0.468102 0.549490
Si Si8 0.000000 0.027280 0.758329
O O1 0.931921 0.028497 0.360485
O O2 0.000000 0.033353 0.289553
O O3 0.000000 0.750000 0.337713
O O4 0.854397 0.750000 0.370356
O O5 0.809558 0.468795 0.331553
O O6 0.827659 0.467834 0.415424
O O7 0.138821 0.250000 0.910991
O O8 0.116346 0.957670 0.866656
O O9 0.202724 0.965926 0.934027
O O10 0.070069 0.965021 0.937345
O O11 0.789192 0.250000 0.713651
O O12 0.750000 0.548356 0.750000
O O13 0.688218 0.446057 0.689716
O O14 0.914430 0.250000 0.827403
O O15 0.935504 0.531418 0.785056
O O16 0.000000 0.250000 0.941313
O O17 0.000000 0.000000 0.000000
O O18 0.214550 0.500000 0.500000
O O19 0.225827 0.250000 0.553221
O O20 0.000000 0.250000 0.755436
#
# Coordination Sequence:
#
# PCOD9535242 Si02
#       8
#     8  16  16  16  16   8  16   8
#     4   9  16  25  37  55  82 117 148 178 222 276
#     4   9  16  27  40  57  83 115 150 183 224 276
#     4   9  16  27  41  59  84 116 151 182 218 264
#     4   9  14  20  33  53  79 112 144 172 207 260
#     4   9  14  21  32  50  78 112 145 172 202 250
#     4  10  19  29  42  60  82 110 145 182 216 253
#     4  10  19  32  49  67  89 120 156 194 234 274
#     4   9  15  20  30  53  84 119 153 176 206 263
#
# _framework density 21.909393000000001
#
# number of rings (size 3 to 8) (size 9 to 14) (size 15 to 20)
#    0.000    2.769    1.538    1.846    0.000    5.538 
#    0.000    0.385    0.000    0.000    0.000    0.000 
#    0.000    0.615    0.000    4.615    0.000    4.769 
#
# Total GULP energy -289721.978450 kJ/mol
# GULP energy per Si atom -5571.576509 kJ/mol
# Density = 2.185953 g / cm^3
# Si number density = 21.909393 Si / 1000 Ang^3
#
#
#
# Elastic Constant Matrix: (Units=GPa)
#
#
# Indices 1 2 3 4 5 6 
#
# 1 194.3711 7.9758 121.9558 0.0000 0.0000 0.0000
# 2 7.9758 85.1737 8.0514 0.0000 0.0000 0.0000
# 3 121.9558 8.0514 224.9334 0.0000 0.0000 0.0000
# 4 0.0000 0.0000 0.0000 2.1119 0.0000 0.0000
# 5 0.0000 0.0000 0.0000 0.0000 21.8757 0.0000
# 6 0.0000 0.0000 0.0000 0.0000 0.0000 7.5993
#
#
#
# Elastic Compliance Matrix: (Units=1/GPa)
#
#
# Indices 1 2 3 4 5 6 
#
# 1 0.007807 -0.000332 -0.004221 0.000000 0.000000 0.000000
# 2 -0.000332 0.011795 -0.000242 0.000000 0.000000 0.000000
# 3 -0.004221 -0.000242 0.006743 0.000000 0.000000 0.000000
# 4 0.000000 0.000000 0.000000 0.473518 0.000000 0.000000
# 5 0.000000 0.000000 0.000000 0.000000 0.045713 0.000000
# 6 0.000000 0.000000 0.000000 0.000000 0.000000 0.131591
#
#
# Mechanical properties :
#
#
# Convention : Reuss Voigt Hill
#
# Bulk Modulus (GPa) = 59.68619 86.71601 73.20110
# Shear Modulus (GPa) = 7.22187 30.75037 18.98612
#
# Velocity S-wave (km/s) = 1.81753 3.75043 2.94696
# Velocity P-wave (km/s) = 5.63080 7.64327 6.71288
#
# Compressibility (1/GPa) = 0.01675429
#
# Stress axis : x y z
#
# Youngs Moduli (GPa) = 128.09468 84.78383 148.30418
#
# Poissons Ratio (x) = 0.02815 0.62596
# Poissons Ratio (y) = 0.04253 0.03591
# Poissons Ratio (z) = 0.54066 0.02053
#
# Static dielectric constant tensor:
#      x y z
#    x 1.761760 0.000000 0.000000 
#    y 0.000000 1.954540 0.000000 
#    z 0.000000 0.000000 1.652030 
# 
# From -- ./inp_files/67809.got.cif
#   From: 2010.05.17/outbox.cif.g08.bks.cpg/sg74_34_cif.got.tgz:67809.got - 2010.06.03 17:57:02.
