data_PCOD9535584
_publ_section_title
;
Structure prediction by ZEFSAII (Michael W. Deem and Ramdas Pophale) SiO2 
 PCOD9535584
Probable space group: I M M A
;
_chemical_formula_sum "Si O2"
_cell_formula_units_Z 112
_cell_length_a 28.582220
_cell_length_b 14.141834
_cell_length_c 13.605665
_cell_angle_alpha 90.000000
_cell_angle_beta 90.000000
_cell_angle_gamma 90.000000
_cell_volume 5499.477965
_symmetry_space_group_name_H-M "I M M A"
_symmetry_group_IT_number 74
_symmetry_cell_setting 'orthorhombic'
loop_
_space_group_symop_operation_xyz
x,y,z
-x,1/2-y,z
x,-y,-z
-x,1/2+y,-z
-x,-y,-z
x,1/2+y,-z
-x,y,z
x,1/2-y,z
1/2+x,1/2+y,1/2+z
1/2-x,-y,1/2+z
1/2+x,1/2-y,1/2-z
1/2-x,y,1/2-z
1/2-x,1/2-y,1/2-z
1/2+x,y,1/2-z
1/2-x,1/2+y,1/2+z
1/2+x,-y,1/2+z
loop_
_atom_site_type_symbol
_atom_site_label
_atom_site_fract_x
_atom_site_fract_y
_atom_site_fract_z
Si Si1 0.286770 0.137949 0.138954
Si Si2 0.212818 0.510496 0.116262
Si Si3 0.640320 0.859654 0.271994
Si Si4 0.609651 0.360584 0.180760
Si Si5 0.446898 0.141842 0.982330
Si Si6 0.946207 0.538814 0.277169
Si Si7 0.298944 0.359769 0.910714
O O1 0.280607 0.250000 0.149243
O O2 0.236626 0.087420 0.152338
O O3 0.335693 0.112800 0.191647
O O4 0.301110 0.116340 0.025215
O O5 0.170517 0.564840 0.167274
O O6 0.257218 0.578969 0.131590
O O7 0.203095 0.500000 0.000000
O O8 0.649935 0.750000 0.298178
O O9 0.586196 0.885957 0.278308
O O10 0.656147 0.872630 0.157733
O O11 0.604137 0.250000 0.208596
O O12 0.577588 0.436555 0.235109
O O13 0.591450 0.366676 0.067528
O O14 0.500000 0.133069 0.025053
O O15 0.443128 0.250000 0.943207
O O16 0.443912 0.069568 0.892489
O O17 0.000000 0.539526 0.248203
O O18 0.286297 0.250000 0.904762
#
# Coordination Sequence:
#
# PCOD9535584 Si02
#       7
#    16  16  16  16  16  16  16
#     4   9  18  32  50  74 106 142 178 213 250 299
#     4  10  20  34  53  77 106 137 171 211 259 313
#     4  11  22  36  57  83 109 137 172 216 266 318
#     4  10  19  31  48  72 106 150 191 218 246 298
#     4   9  17  29  46  71 105 145 188 228 263 304
#     4  11  22  34  50  74 105 140 179 227 278 319
#     4   9  17  30  51  80 110 139 171 211 258 306
#
# _framework density 20.365569000000001
#
# number of rings (size 3 to 8) (size 9 to 14) (size 15 to 20)
#    0.000    2.143    0.000    3.857    0.000    9.143 
#    0.000    0.714    0.000    3.857    0.000    0.000 
#    0.000    0.000    0.000    0.000    0.000    0.000 
#
# Total GULP energy -312661.984490 kJ/mol
# GULP energy per Si atom -5583.249723 kJ/mol
# Density = 2.031922 g / cm^3
# Si number density = 20.365569 Si / 1000 Ang^3
#
#
#
# Elastic Constant Matrix: (Units=GPa)
#
#
# Indices 1 2 3 4 5 6 
#
# 1 160.3591 61.9428 27.1184 0.0000 0.0000 0.0000
# 2 61.9428 104.0662 24.3636 0.0000 0.0000 0.0000
# 3 27.1184 24.3636 38.2332 0.0000 0.0000 0.0000
# 4 0.0000 0.0000 0.0000 15.6599 0.0000 0.0000
# 5 0.0000 0.0000 0.0000 0.0000 3.9053 0.0000
# 6 0.0000 0.0000 0.0000 0.0000 0.0000 21.6839
#
#
#
# Elastic Compliance Matrix: (Units=1/GPa)
#
#
# Indices 1 2 3 4 5 6 
#
# 1 0.008432 -0.004253 -0.003270 0.000000 0.000000 0.000000
# 2 -0.004253 0.013440 -0.005547 0.000000 0.000000 0.000000
# 3 -0.003270 -0.005547 0.032010 0.000000 0.000000 0.000000
# 4 0.000000 0.000000 0.000000 0.063857 0.000000 0.000000
# 5 0.000000 0.000000 0.000000 0.000000 0.256059 0.000000
# 6 0.000000 0.000000 0.000000 0.000000 0.000000 0.046117
#
#
# Mechanical properties :
#
#
# Convention : Reuss Voigt Hill
#
# Bulk Modulus (GPa) = 36.04981 58.83425 47.44203
# Shear Modulus (GPa) = 10.98167 20.86542 15.92355
#
# Velocity S-wave (km/s) = 2.32465 3.20432 2.79926
# Velocity P-wave (km/s) = 4.99451 6.53009 5.81322
#
# Compressibility (1/GPa) = 0.02773940
#
# Stress axis : x y z
#
# Youngs Moduli (GPa) = 118.59586 74.40653 31.24029
#
# Poissons Ratio (x) = 0.31647 0.10217
# Poissons Ratio (y) = 0.50442 0.17330
# Poissons Ratio (z) = 0.38785 0.41277
#
# Static dielectric constant tensor:
#      x y z
#    x 1.729780 0.000000 0.000000 
#    y 0.000000 1.779840 0.000000 
#    z 0.000000 0.000000 1.750060 
# 
# From -- ./inp_files/37422.got.cif
#   From: 2010.05.17/outbox.cif.g08.bks.cpg/sg74_19_cif.got.tgz:37422.got - 2010.06.03 17:57:02.
