data_PCOD9535129
_publ_section_title
;
Structure prediction by ZEFSAII (Michael W. Deem and Ramdas Pophale) SiO2 
 PCOD9535129
Probable space group: I M M A
;
_chemical_formula_sum "Si O2"
_cell_formula_units_Z 116
_cell_length_a 25.485391
_cell_length_b 7.588182
_cell_length_c 24.514232
_cell_angle_alpha 90.000000
_cell_angle_beta 90.000000
_cell_angle_gamma 90.000000
_cell_volume 4740.753034
_symmetry_space_group_name_H-M "I M M A"
_symmetry_group_IT_number 74
_symmetry_cell_setting 'orthorhombic'
loop_
_space_group_symop_operation_xyz
x,y,z
-x,1/2-y,z
x,-y,-z
-x,1/2+y,-z
-x,-y,-z
x,1/2+y,-z
-x,y,z
x,1/2-y,z
1/2+x,1/2+y,1/2+z
1/2-x,-y,1/2+z
1/2+x,1/2-y,1/2-z
1/2-x,y,1/2-z
1/2-x,1/2-y,1/2-z
1/2+x,y,1/2-z
1/2-x,1/2+y,1/2+z
1/2+x,-y,1/2+z
loop_
_atom_site_type_symbol
_atom_site_label
_atom_site_fract_x
_atom_site_fract_y
_atom_site_fract_z
Si Si1 0.417190 0.444793 0.717449
Si Si2 0.943578 0.038421 0.935118
Si Si3 0.829532 0.542727 0.064421
Si Si4 0.000000 0.250000 0.182548
Si Si5 0.219587 0.039070 0.384487
Si Si6 0.560667 0.046682 0.161992
Si Si7 0.808593 0.537439 0.735174
Si Si8 0.378090 0.460682 0.058972
O O1 0.427057 0.250000 0.694014
O O2 0.453096 0.594575 0.690493
O O3 0.433029 0.449250 0.781313
O O4 0.354389 0.473604 0.724622
O O5 0.945749 0.250000 0.928601
O O6 0.886501 0.969293 0.916363
O O7 0.000000 0.961557 0.915441
O O8 0.942665 0.000000 0.000000
O O9 0.836146 0.750000 0.065976
O O10 0.779628 0.502329 0.101931
O O11 0.820282 0.500000 0.000000
O O12 0.218556 0.250000 0.381412
O O13 0.190978 0.980613 0.328475
O O14 0.181806 0.977455 0.433263
O O15 0.500000 0.055805 0.148381
O O16 0.578989 0.250000 0.172705
O O17 0.589562 0.970252 0.109946
O O18 0.810924 0.750000 0.737498
O O19 0.750000 0.481628 0.750000
O O20 0.378618 0.250000 0.064050
O O21 0.399704 0.500000 0.000000
#
# Coordination Sequence:
#
# PCOD9535129 Si02
#       8
#    16  16  16   4  16  16  16  16
#     4  12  22  36  64  96 125 164 206 256 312 370
#     4   8  14  25  41  63  92 126 167 214 266 320
#     4  10  19  30  47  74 106 142 185 232 280 337
#     4  12  22  40  62  94 138 160 204 254 312 370
#     4  10  20  35  55  77 109 147 191 235 293 359
#     4  10  18  35  56  76 111 155 199 253 304 351
#     4  10  21  41  66  91 121 157 195 252 322 373
#     4  10  21  34  50  72 108 153 197 242 295 348
#
# _framework density 24.468688
#
# number of rings (size 3 to 8) (size 9 to 14) (size 15 to 20)
#    0.000    1.931    3.448    1.034    0.000    3.862 
#    0.000    0.000    0.000    0.000    1.793    0.000 
#    0.000    0.000    0.000    0.000    0.000    0.000 
#
# Total GULP energy -323426.671836 kJ/mol
# GULP energy per Si atom -5576.321928 kJ/mol
# Density = 2.441300 g / cm^3
# Si number density = 24.468688 Si / 1000 Ang^3
#
#
#
# Elastic Constant Matrix: (Units=GPa)
#
#
# Indices 1 2 3 4 5 6 
#
# 1 153.0048 22.0451 26.3091 0.0000 0.0000 0.0000
# 2 22.0451 107.7937 3.8358 0.0000 0.0000 0.0000
# 3 26.3091 3.8358 94.0271 0.0000 0.0000 0.0000
# 4 0.0000 0.0000 0.0000 -63.6332 0.0000 0.0000
# 5 0.0000 0.0000 0.0000 0.0000 38.6847 0.0000
# 6 0.0000 0.0000 0.0000 0.0000 0.0000 11.4715
#
#
#
# Elastic Compliance Matrix: (Units=1/GPa)
#
#
# Indices 1 2 3 4 5 6 
#
# 1 0.007064 -0.001376 -0.001920 0.000000 0.000000 0.000000
# 2 -0.001376 0.009559 -0.000005 0.000000 0.000000 0.000000
# 3 -0.001920 -0.000005 0.011173 0.000000 0.000000 0.000000
# 4 0.000000 0.000000 0.000000 -0.015715 0.000000 0.000000
# 5 0.000000 0.000000 0.000000 0.000000 0.025850 0.000000
# 6 0.000000 0.000000 0.000000 0.000000 0.000000 0.087173
#
#
# Mechanical properties :
#
#
# Convention : Reuss Voigt Hill
#
# Bulk Modulus (GPa) = 47.18684 51.02284 49.10484
# Shear Modulus (GPa) = 36.03065 17.48030 26.75547
#
# Velocity S-wave (km/s) = 3.84151 2.67572 3.31033
# Velocity P-wave (km/s) = 6.24521 5.51756 5.89263
#
# Compressibility (1/GPa) = 0.02119235
#
# Stress axis : x y z
#
# Youngs Moduli (GPa) = 141.55734 104.61740 89.50326
#
# Poissons Ratio (x) = 0.14399 0.17189
# Poissons Ratio (y) = 0.19484 0.00043
# Poissons Ratio (z) = 0.27185 0.00051
#
# Static dielectric constant tensor:
#      x y z
#    x 2.023630 0.000000 0.000000 
#    y 0.000000 1.918720 0.000000 
#    z 0.000000 0.000000 1.986990 
# 
# From -- ./inp_files/73791.got.cif
#   From: 2010.05.17/outbox.cif.g08.bks.cpg/sg74_37_cif.got.tgz:73791.got - 2010.06.03 17:57:02.
