data_PCOD9535814
_publ_section_title
;
Structure prediction by ZEFSAII (Michael W. Deem and Ramdas Pophale) SiO2 
 PCOD9535814
Probable space group: I M M A
;
_chemical_formula_sum "Si O2"
_cell_formula_units_Z 96
_cell_length_a 11.650866
_cell_length_b 13.711741
_cell_length_c 32.671670
_cell_angle_alpha 90.000000
_cell_angle_beta 90.000000
_cell_angle_gamma 90.000000
_cell_volume 5219.418763
_symmetry_space_group_name_H-M "I M M A"
_symmetry_group_IT_number 74
_symmetry_cell_setting 'orthorhombic'
loop_
_space_group_symop_operation_xyz
x,y,z
-x,1/2-y,z
x,-y,-z
-x,1/2+y,-z
-x,-y,-z
x,1/2+y,-z
-x,y,z
x,1/2-y,z
1/2+x,1/2+y,1/2+z
1/2-x,-y,1/2+z
1/2+x,1/2-y,1/2-z
1/2-x,y,1/2-z
1/2-x,1/2-y,1/2-z
1/2+x,y,1/2-z
1/2-x,1/2+y,1/2+z
1/2+x,-y,1/2+z
loop_
_atom_site_type_symbol
_atom_site_label
_atom_site_fract_x
_atom_site_fract_y
_atom_site_fract_z
Si Si1 0.371782 0.368340 0.479582
Si Si2 0.133800 0.537936 0.136818
Si Si3 0.744182 0.865830 0.895332
Si Si4 0.758541 0.632212 0.439573
Si Si5 0.000000 0.630957 0.478108
Si Si6 0.000000 0.131301 0.426234
Si Si7 0.131713 0.132303 0.773757
O O1 0.500000 0.403328 0.472857
O O2 0.374113 0.250000 0.482004
O O3 0.295929 0.388780 0.440149
O O4 0.321137 0.400784 0.522684
O O5 0.184757 0.428893 0.136747
O O6 0.209755 0.592430 0.102707
O O7 0.141345 0.589003 0.180655
O O8 0.000000 0.537653 0.124419
O O9 0.753189 0.750000 0.888316
O O10 0.612291 0.895254 0.900708
O O11 0.756312 0.750000 0.437692
O O12 0.886303 0.602810 0.453336
O O13 0.000000 0.598882 0.525924
O O14 0.000000 0.750000 0.479952
O O15 0.000000 0.250000 0.429082
O O16 0.133001 0.250000 0.775411
O O17 0.250000 0.103179 0.750000
O O18 0.000000 0.105727 0.758625
#
# Coordination Sequence:
#
# PCOD9535814 Si02
#       7
#    16  16  16  16   8   8  16
#     4   9  16  27  45  66  95 140 183 219 261 308
#     4  11  23  36  54  82 111 140 176 221 272 323
#     4  10  20  35  53  74 104 143 189 232 269 312
#     4  10  19  32  49  73 106 141 180 226 275 323
#     4   9  16  31  51  69 100 147 189 230 279 323
#     4   9  16  33  55  69  96 149 197 232 277 319
#     4   9  19  40  67  91 117 146 173 207 261 332
#
# _framework density 18.392852000000001
#
# number of rings (size 3 to 8) (size 9 to 14) (size 15 to 20)
#    0.000    2.333    1.667    1.500    0.000    4.000 
#    3.000    2.500    0.000    0.500    0.000    0.000 
#    0.000    0.000    0.000    0.000    0.000    0.000 
#
# Total GULP energy -267888.020272 kJ/mol
# GULP energy per Si atom -5581.000422 kJ/mol
# Density = 1.835099 g / cm^3
# Si number density = 18.392852 Si / 1000 Ang^3
#
#
#
# Elastic Constant Matrix: (Units=GPa)
#
#
# Indices 1 2 3 4 5 6 
#
# 1 152.6377 16.6281 46.0401 0.0000 0.0000 0.0000
# 2 16.6281 51.4753 9.5219 0.0000 0.0000 0.0000
# 3 46.0401 9.5219 53.1157 0.0000 0.0000 0.0000
# 4 0.0000 0.0000 0.0000 24.7241 0.0000 0.0000
# 5 0.0000 0.0000 0.0000 0.0000 30.6223 0.0000
# 6 0.0000 0.0000 0.0000 0.0000 0.0000 19.9328
#
#
#
# Elastic Compliance Matrix: (Units=1/GPa)
#
#
# Indices 1 2 3 4 5 6 
#
# 1 0.008983 -0.001512 -0.007515 0.000000 0.000000 0.000000
# 2 -0.001512 0.020347 -0.002337 0.000000 0.000000 0.000000
# 3 -0.007515 -0.002337 0.025760 0.000000 0.000000 0.000000
# 4 0.000000 0.000000 0.000000 0.040446 0.000000 0.000000
# 5 0.000000 0.000000 0.000000 0.000000 0.032656 0.000000
# 6 0.000000 0.000000 0.000000 0.000000 0.000000 0.050169
#
#
# Mechanical properties :
#
#
# Convention : Reuss Voigt Hill
#
# Bulk Modulus (GPa) = 30.90064 44.62322 37.76193
# Shear Modulus (GPa) = 23.59854 27.39174 25.49514
#
# Velocity S-wave (km/s) = 3.58582 3.86328 3.72713
# Velocity P-wave (km/s) = 5.82932 6.64934 6.25279
#
# Compressibility (1/GPa) = 0.03236178
#
# Stress axis : x y z
#
# Youngs Moduli (GPa) = 111.32140 49.14622 38.81971
#
# Poissons Ratio (x) = 0.07429 0.29175
# Poissons Ratio (y) = 0.16827 0.09074
# Poissons Ratio (z) = 0.83662 0.11487
#
# Static dielectric constant tensor:
#      x y z
#    x 1.685770 0.000000 0.000000 
#    y 0.000000 1.718450 0.000000 
#    z 0.000000 0.000000 1.570360 
# 
# From -- ./inp_files/71813.got.cif
#   From: 2010.05.17/outbox.cif.g08.bks.cpg/sg74_36_cif.got.tgz:71813.got - 2010.06.03 17:57:02.
