data_PCOD9535029
_publ_section_title
;
Structure prediction by ZEFSAII (Michael W. Deem and Ramdas Pophale) SiO2 
 PCOD9535029
Probable space group: I M M A
;
_chemical_formula_sum "Si O2"
_cell_formula_units_Z 64
_cell_length_a 8.928619
_cell_length_b 14.707631
_cell_length_c 25.444447
_cell_angle_alpha 90.000000
_cell_angle_beta 90.000000
_cell_angle_gamma 90.000000
_cell_volume 3341.335101
_symmetry_space_group_name_H-M "I M M A"
_symmetry_group_IT_number 74
_symmetry_cell_setting 'orthorhombic'
loop_
_space_group_symop_operation_xyz
x,y,z
-x,1/2-y,z
x,-y,-z
-x,1/2+y,-z
-x,-y,-z
x,1/2+y,-z
-x,y,z
x,1/2-y,z
1/2+x,1/2+y,1/2+z
1/2-x,-y,1/2+z
1/2+x,1/2-y,1/2-z
1/2-x,y,1/2-z
1/2-x,1/2-y,1/2-z
1/2+x,y,1/2-z
1/2-x,1/2+y,1/2+z
1/2+x,-y,1/2+z
loop_
_atom_site_type_symbol
_atom_site_label
_atom_site_fract_x
_atom_site_fract_y
_atom_site_fract_z
Si Si1 0.179856 0.250000 0.998279
Si Si2 0.823064 0.063599 0.146022
Si Si3 0.675982 0.388147 0.591408
Si Si4 0.822537 0.398236 0.697225
Si Si5 0.821750 0.750000 0.612506
O O1 0.253097 0.340385 0.138272
O O2 0.000000 0.250000 0.008996
O O3 0.268378 0.250000 0.052083
O O4 0.742602 0.000741 0.189298
O O5 0.000000 0.072235 0.156536
O O6 0.806576 0.997743 0.094362
O O7 0.500000 0.369556 0.601012
O O8 0.767489 0.354923 0.642329
O O9 0.715866 0.337132 0.538246
O O10 0.750000 0.359868 0.750000
O O11 0.000000 0.397235 0.700949
O O12 0.000000 0.750000 0.616452
#
# Coordination Sequence:
#
# PCOD9535029 Si02
#       5
#     8  16  16  16   8
#     4  10  20  38  59  80 109 146 183 224 271 322
#     4   9  19  37  57  79 108 143 183 224 268 320
#     4   8  18  35  57  81 108 141 182 224 268 321
#     4  10  18  33  57  82 111 143 178 221 271 322
#     4  12  24  36  53  82 113 144 182 224 271 322
#
# _framework density 19.154021
#
# number of rings (size 3 to 8) (size 9 to 14) (size 15 to 20)
#    1.500    1.000    0.000    3.375    0.000    2.000 
#    0.000    6.250    0.000    0.000    0.000    0.000 
#    0.000    0.000    0.000    0.000    0.000    0.000 
#
# Total GULP energy -178157.888093 kJ/mol
# GULP energy per Si atom -5567.434003 kJ/mol
# Density = 1.911043 g / cm^3
# Si number density = 19.154021 Si / 1000 Ang^3
#
#
#
# Elastic Constant Matrix: (Units=GPa)
#
#
# Indices 1 2 3 4 5 6 
#
# 1 103.5486 25.9787 21.4959 0.0000 0.0000 0.0000
# 2 25.9787 98.3910 4.2569 0.0000 0.0000 0.0000
# 3 21.4959 4.2569 45.4385 0.0000 0.0000 0.0000
# 4 0.0000 0.0000 0.0000 14.9476 0.0000 0.0000
# 5 0.0000 0.0000 0.0000 0.0000 31.5910 0.0000
# 6 0.0000 0.0000 0.0000 0.0000 0.0000 12.2282
#
#
#
# Elastic Compliance Matrix: (Units=1/GPa)
#
#
# Indices 1 2 3 4 5 6 
#
# 1 0.011426 -0.002794 -0.005144 0.000000 0.000000 0.000000
# 2 -0.002794 0.010888 0.000302 0.000000 0.000000 0.000000
# 3 -0.005144 0.000302 0.024413 0.000000 0.000000 0.000000
# 4 0.000000 0.000000 0.000000 0.066900 0.000000 0.000000
# 5 0.000000 0.000000 0.000000 0.000000 0.031655 0.000000
# 6 0.000000 0.000000 0.000000 0.000000 0.000000 0.081778
#
#
# Mechanical properties :
#
#
# Convention : Reuss Voigt Hill
#
# Bulk Modulus (GPa) = 31.79144 38.98233 35.38689
# Shear Modulus (GPa) = 19.77713 24.79649 22.28681
#
# Velocity S-wave (km/s) = 3.21679 3.60194 3.41480
# Velocity P-wave (km/s) = 5.51641 6.13961 5.83633
#
# Compressibility (1/GPa) = 0.03145501
#
# Stress axis : x y z
#
# Youngs Moduli (GPa) = 87.51862 91.84188 40.96207
#
# Poissons Ratio (x) = 0.25664 0.21069
# Poissons Ratio (y) = 0.24456 -0.01237
# Poissons Ratio (z) = 0.45016 -0.02773
#
# Static dielectric constant tensor:
#      x y z
#    x 1.628220 0.000000 0.000000 
#    y 0.000000 1.703980 0.000000 
#    z 0.000000 0.000000 1.658810 
# 
# From -- ./inp_files/69925.got.cif
#   From: 2010.05.17/outbox.cif.g08.bks.cpg/sg74_35_cif.got.tgz:69925.got - 2010.06.03 17:57:02.
