data_PCOD9535229
_publ_section_title
;
Structure prediction by ZEFSAII (Michael W. Deem and Ramdas Pophale) SiO2 
 PCOD9535229
Probable space group: I M M A
;
_chemical_formula_sum "Si O2"
_cell_formula_units_Z 104
_cell_length_a 9.198088
_cell_length_b 28.052726
_cell_length_c 33.031457
_cell_angle_alpha 90.000000
_cell_angle_beta 90.000000
_cell_angle_gamma 90.000000
_cell_volume 8523.154494
_symmetry_space_group_name_H-M "I M M A"
_symmetry_group_IT_number 74
_symmetry_cell_setting 'orthorhombic'
loop_
_space_group_symop_operation_xyz
x,y,z
-x,1/2-y,z
x,-y,-z
-x,1/2+y,-z
-x,-y,-z
x,1/2+y,-z
-x,y,z
x,1/2-y,z
1/2+x,1/2+y,1/2+z
1/2-x,-y,1/2+z
1/2+x,1/2-y,1/2-z
1/2-x,y,1/2-z
1/2-x,1/2-y,1/2-z
1/2+x,y,1/2-z
1/2-x,1/2+y,1/2+z
1/2+x,-y,1/2+z
loop_
_atom_site_type_symbol
_atom_site_label
_atom_site_fract_x
_atom_site_fract_y
_atom_site_fract_z
Si Si1 0.833129 0.118832 0.089043
Si Si2 0.830584 0.527253 0.437392
Si Si3 0.671499 0.837484 0.837633
Si Si4 0.166448 0.015668 0.134110
Si Si5 0.330278 0.424193 0.017624
Si Si6 0.674850 0.250000 0.293902
Si Si7 0.828924 0.060649 0.292927
O O1 0.732821 0.151013 0.117761
O O2 0.766111 0.110703 0.044681
O O3 0.000000 0.135382 0.087901
O O4 0.833206 0.066698 0.110622
O O5 0.737163 0.521611 0.397052
O O6 0.825118 0.475670 0.459797
O O7 0.783136 0.565162 0.471542
O O8 0.000000 0.535858 0.427778
O O9 0.500000 0.825428 0.838491
O O10 0.766253 0.796276 0.817391
O O11 0.687922 0.886041 0.811475
O O12 0.000000 0.003878 0.143488
O O13 0.258632 0.024974 0.174404
O O14 0.500000 0.409798 0.017627
O O15 0.500000 0.250000 0.290656
O O16 0.750000 0.250000 0.250000
O O17 0.750000 0.057948 0.250000
O O18 0.000000 0.051614 0.288634
#
# Coordination Sequence:
#
# PCOD9535229 Si02
#       7
#    16  16  16  16  16   8  16
#     4   9  16  25  37  53  70  86 104 127 154 187
#     4   8  13  21  32  46  65  87 109 129 150 178
#     4  10  20  33  46  57  69  85 104 129 163 203
#     4   9  16  24  34  48  66  85 105 129 157 188
#     4   8  13  21  33  48  66  88 109 127 148 179
#     4  12  24  36  48  60  72  84 102 130 166 208
#     4  10  19  29  41  53  65  82 105 133 164 199
#
# _framework density 12.202055
#
# number of rings (size 3 to 8) (size 9 to 14) (size 15 to 20)
#    0.000    2.769    0.000    3.923    0.000    7.385 
#    0.000    3.077    0.000    0.000    0.000    0.000 
#    0.000    0.000    0.000    0.000    0.000    0.000 
#
# Total GULP energy -289548.730849 kJ/mol
# GULP energy per Si atom -5568.244824 kJ/mol
# Density = 1.217428 g / cm^3
# Si number density = 12.202055 Si / 1000 Ang^3
#
#
#
# Elastic Constant Matrix: (Units=GPa)
#
#
# Indices 1 2 3 4 5 6 
#
# 1 105.2737 26.7889 70.5107 0.0000 0.0000 0.0000
# 2 26.7889 18.5134 32.0984 0.0000 0.0000 0.0000
# 3 70.5107 32.0984 92.1018 0.0000 0.0000 0.0000
# 4 0.0000 0.0000 0.0000 14.7190 0.0000 0.0000
# 5 0.0000 0.0000 0.0000 0.0000 23.5182 0.0000
# 6 0.0000 0.0000 0.0000 0.0000 0.0000 12.2710
#
#
#
# Elastic Compliance Matrix: (Units=1/GPa)
#
#
# Indices 1 2 3 4 5 6 
#
# 1 0.019754 -0.005973 -0.013042 0.000000 0.000000 0.000000
# 2 -0.005973 0.138290 -0.043623 0.000000 0.000000 0.000000
# 3 -0.013042 -0.043623 0.036045 0.000000 0.000000 0.000000
# 4 0.000000 0.000000 0.000000 0.067940 0.000000 0.000000
# 5 0.000000 0.000000 0.000000 0.000000 0.042520 0.000000
# 6 0.000000 0.000000 0.000000 0.000000 0.000000 0.081493
#
#
# Mechanical properties :
#
#
# Convention : Reuss Voigt Hill
#
# Bulk Modulus (GPa) = 14.53178 52.74276 33.63727
# Shear Modulus (GPa) = 9.35884 15.86770 12.61327
#
# Velocity S-wave (km/s) = 2.77246 3.61003 3.21861
# Velocity P-wave (km/s) = 4.70997 7.79069 6.43734
#
# Compressibility (1/GPa) = 0.06881467
#
# Stress axis : x y z
#
# Youngs Moduli (GPa) = 50.62274 7.23117 27.74314
#
# Poissons Ratio (x) = 0.04319 0.36182
# Poissons Ratio (y) = 0.30235 1.21024
# Poissons Ratio (z) = 0.66020 0.31545
#
# Static dielectric constant tensor:
#      x y z
#    x 1.409080 0.000000 0.000000 
#    y 0.000000 1.371630 0.000000 
#    z 0.000000 0.000000 1.399940 
# 
# From -- ./inp_files/65280.got.cif
#   From: 2010.05.17/outbox.cif.g08.bks.cpg/sg74_33_cif.got.tgz:65280.got - 2010.06.03 17:57:02.
