data_PCOD9535076
_publ_section_title
;
Structure prediction by ZEFSAII (Michael W. Deem and Ramdas Pophale) SiO2 
 PCOD9535076
Probable space group: I M M A
;
_chemical_formula_sum "Si O2"
_cell_formula_units_Z 96
_cell_length_a 24.462525
_cell_length_b 7.616378
_cell_length_c 26.182874
_cell_angle_alpha 90.000000
_cell_angle_beta 90.000000
_cell_angle_gamma 90.000000
_cell_volume 4878.284091
_symmetry_space_group_name_H-M "I M M A"
_symmetry_group_IT_number 74
_symmetry_cell_setting 'orthorhombic'
loop_
_space_group_symop_operation_xyz
x,y,z
-x,1/2-y,z
x,-y,-z
-x,1/2+y,-z
-x,-y,-z
x,1/2+y,-z
-x,y,z
x,1/2-y,z
1/2+x,1/2+y,1/2+z
1/2-x,-y,1/2+z
1/2+x,1/2-y,1/2-z
1/2-x,y,1/2-z
1/2-x,1/2-y,1/2-z
1/2+x,y,1/2-z
1/2-x,1/2+y,1/2+z
1/2+x,-y,1/2+z
loop_
_atom_site_type_symbol
_atom_site_label
_atom_site_fract_x
_atom_site_fract_y
_atom_site_fract_z
Si Si1 0.817742 0.460822 0.941522
Si Si2 0.885131 0.962083 0.154288
Si Si3 0.193452 0.960606 0.441429
Si Si4 0.812474 0.035582 0.750236
Si Si5 0.000000 0.451152 0.203107
Si Si6 0.118798 0.534452 0.348920
Si Si7 0.000000 0.452771 0.680412
O O1 0.815468 0.250000 0.936569
O O2 0.860733 0.525512 0.899521
O O3 0.755586 0.526884 0.932314
O O4 0.832474 0.500000 0.000000
O O5 0.884117 0.750000 0.153620
O O6 0.844864 0.021316 0.199533
O O7 0.946160 0.012487 0.170009
O O8 0.195729 0.750000 0.435994
O O9 0.149601 0.024053 0.400173
O O10 0.179025 0.000000 0.500000
O O11 0.811928 0.250000 0.750654
O O12 0.750000 0.976684 0.750000
O O13 0.845061 0.981829 0.699827
O O14 0.000000 0.548222 0.257684
O O15 0.000000 0.250000 0.218527
O O16 0.117647 0.750000 0.348868
O O17 0.056910 0.471275 0.340277
O O18 0.000000 0.250000 0.663805
#
# Coordination Sequence:
#
# PCOD9535076 Si02
#       7
#    16  16  16  16   8  16   8
#     4   9  18  32  53  78 104 133 167 208 254 305
#     4  10  19  34  55  77 101 133 175 213 251 302
#     4   9  17  31  50  76 105 135 169 207 254 303
#     4   9  15  24  46  79 104 121 155 213 262 295
#     4  12  24  36  51  74 105 140 172 209 258 313
#     4   9  16  27  48  74  99 128 170 214 248 293
#     4  10  18  34  55  74  96 134 178 217 257 297
#
# _framework density 19.679048999999999
#
# number of rings (size 3 to 8) (size 9 to 14) (size 15 to 20)
#    0.000    2.500    1.667    1.750    0.000    4.667 
#    0.000    1.667    0.000    0.500    0.000    0.000 
#    0.000    0.000    0.000    0.000    0.000    0.000 
#
# Total GULP energy -267890.727360 kJ/mol
# GULP energy per Si atom -5581.056820 kJ/mol
# Density = 1.963426 g / cm^3
# Si number density = 19.679049 Si / 1000 Ang^3
#
#
#
# Elastic Constant Matrix: (Units=GPa)
#
#
# Indices 1 2 3 4 5 6 
#
# 1 187.4395 1.4365 103.2497 0.0000 0.0000 0.0000
# 2 1.4365 40.1523 -4.0851 0.0000 0.0000 0.0000
# 3 103.2497 -4.0851 136.7310 0.0000 0.0000 0.0000
# 4 0.0000 0.0000 0.0000 16.8356 0.0000 0.0000
# 5 0.0000 0.0000 0.0000 0.0000 18.2455 0.0000
# 6 0.0000 0.0000 0.0000 0.0000 0.0000 -7.4471
#
#
#
# Elastic Compliance Matrix: (Units=1/GPa)
#
#
# Indices 1 2 3 4 5 6 
#
# 1 0.009178 -0.001037 -0.006961 0.000000 0.000000 0.000000
# 2 -0.001037 0.025098 0.001533 0.000000 0.000000 0.000000
# 3 -0.006961 0.001533 0.012616 0.000000 0.000000 0.000000
# 4 0.000000 0.000000 0.000000 0.059398 0.000000 0.000000
# 5 0.000000 0.000000 0.000000 0.000000 0.054808 0.000000
# 6 0.000000 0.000000 0.000000 0.000000 0.000000 -0.134281
#
#
# Mechanical properties :
#
#
# Convention : Reuss Voigt Hill
#
# Bulk Modulus (GPa) = 29.44518 62.83612 46.14065
# Shear Modulus (GPa) = 97.90898 23.10824 60.50861
#
# Velocity S-wave (km/s) = 7.06123 3.43046 5.55108
# Velocity P-wave (km/s) = 9.02643 6.90583 8.03638
#
# Compressibility (1/GPa) = 0.03396141
#
# Stress axis : x y z
#
# Youngs Moduli (GPa) = 108.96185 39.84351 79.26421
#
# Poissons Ratio (x) = 0.04130 0.55177
# Poissons Ratio (y) = 0.11295 -0.12148
# Poissons Ratio (z) = 0.75850 -0.06106
#
# Static dielectric constant tensor:
#      x y z
#    x 1.679210 0.000000 0.000000 
#    y 0.000000 1.767390 0.000000 
#    z 0.000000 0.000000 1.663190 
# 
# From -- ./inp_files/57344.got.cif
#   From: 2010.05.17/outbox.cif.g08.bks.cpg/sg74_29_cif.got.tgz:57344.got - 2010.06.03 17:57:02.
