data_PCOD9535659
_publ_section_title
;
Structure prediction by ZEFSAII (Michael W. Deem and Ramdas Pophale) SiO2 
 PCOD9535659
Probable space group: I M M A
;
_chemical_formula_sum "Si O2"
_cell_formula_units_Z 80
_cell_length_a 14.271221
_cell_length_b 19.230747
_cell_length_c 16.380318
_cell_angle_alpha 90.000000
_cell_angle_beta 90.000000
_cell_angle_gamma 90.000000
_cell_volume 4495.516692
_symmetry_space_group_name_H-M "I M M A"
_symmetry_group_IT_number 74
_symmetry_cell_setting 'orthorhombic'
loop_
_space_group_symop_operation_xyz
x,y,z
-x,1/2-y,z
x,-y,-z
-x,1/2+y,-z
-x,-y,-z
x,1/2+y,-z
-x,y,z
x,1/2-y,z
1/2+x,1/2+y,1/2+z
1/2-x,-y,1/2+z
1/2+x,1/2-y,1/2-z
1/2-x,y,1/2-z
1/2-x,1/2-y,1/2-z
1/2+x,y,1/2-z
1/2-x,1/2+y,1/2+z
1/2+x,-y,1/2+z
loop_
_atom_site_type_symbol
_atom_site_label
_atom_site_fract_x
_atom_site_fract_y
_atom_site_fract_z
Si Si1 0.896799 0.884066 0.385020
Si Si2 0.103629 0.250000 0.909358
Si Si3 0.201333 0.893276 0.040653
Si Si4 0.358011 0.750000 0.224465
Si Si5 0.105982 0.966896 0.696351
Si Si6 0.809854 0.460877 0.128105
O O1 0.814000 0.888233 0.450654
O O2 0.881527 0.816902 0.329220
O O3 0.000000 0.882613 0.423015
O O4 0.893039 0.950914 0.325530
O O5 0.157733 0.179713 0.933185
O O6 0.094497 0.250000 0.811903
O O7 0.000000 0.250000 0.946615
O O8 0.179408 0.958424 0.100335
O O9 0.167673 0.915113 0.950965
O O10 0.250000 0.750000 0.250000
O O11 0.128213 0.952234 0.791161
O O12 0.200777 0.943657 0.649651
O O13 0.000000 0.942217 0.675186
#
# Coordination Sequence:
#
# PCOD9535659 Si02
#       6
#    16   8  16   8  16  16
#     4  10  19  31  50  75 102 134 170 207 246 294
#     4  12  24  35  50  74 106 141 171 201 244 300
#     4  10  20  35  50  75 106 136 167 208 251 303
#     4  12  20  31  49  70 103 141 171 195 233 295
#     4   9  18  32  52  76  99 128 171 214 253 300
#     4   9  19  33  54  75 102 134 167 208 259 297
#
# _framework density 17.795507000000001
#
# number of rings (size 3 to 8) (size 9 to 14) (size 15 to 20)
#    0.000    2.000    2.000    2.100    2.800    4.000 
#    0.000    6.000    0.000    2.400    0.000    1.400 
#    0.000    0.000    0.000    0.000    0.000    0.000 
#
# Total GULP energy -222853.329720 kJ/mol
# GULP energy per Si atom -5571.333243 kJ/mol
# Density = 1.775500 g / cm^3
# Si number density = 17.795507 Si / 1000 Ang^3
#
#
#
# Elastic Constant Matrix: (Units=GPa)
#
#
# Indices 1 2 3 4 5 6 
#
# 1 80.7509 6.5337 -2.1425 0.0000 0.0000 0.0000
# 2 6.5337 44.0672 12.5170 0.0000 0.0000 0.0000
# 3 -2.1425 12.5170 55.7522 0.0000 0.0000 0.0000
# 4 0.0000 0.0000 0.0000 9.4478 0.0000 0.0000
# 5 0.0000 0.0000 0.0000 0.0000 7.1438 0.0000
# 6 0.0000 0.0000 0.0000 0.0000 0.0000 1.9848
#
#
#
# Elastic Compliance Matrix: (Units=1/GPa)
#
#
# Indices 1 2 3 4 5 6 
#
# 1 0.012582 -0.002139 0.000964 0.000000 0.000000 0.000000
# 2 -0.002139 0.024602 -0.005606 0.000000 0.000000 0.000000
# 3 0.000964 -0.005606 0.019232 0.000000 0.000000 0.000000
# 4 0.000000 0.000000 0.000000 0.105844 0.000000 0.000000
# 5 0.000000 0.000000 0.000000 0.000000 0.139982 0.000000
# 6 0.000000 0.000000 0.000000 0.000000 0.000000 0.503825
#
#
# Mechanical properties :
#
#
# Convention : Reuss Voigt Hill
#
# Bulk Modulus (GPa) = 23.33488 23.82073 23.57781
# Shear Modulus (GPa) = 5.99581 14.62609 10.31095
#
# Velocity S-wave (km/s) = 1.83755 2.86999 2.40971
# Velocity P-wave (km/s) = 4.20040 4.93936 4.58480
#
# Compressibility (1/GPa) = 0.04285430
#
# Stress axis : x y z
#
# Youngs Moduli (GPa) = 79.47592 40.64697 51.99641
#
# Poissons Ratio (x) = 0.08696 -0.05012
# Poissons Ratio (y) = 0.17002 0.29147
# Poissons Ratio (z) = -0.07660 0.22785
#
# Static dielectric constant tensor:
#      x y z
#    x 1.656250 0.000000 0.000000 
#    y 0.000000 1.572450 0.000000 
#    z 0.000000 0.000000 1.586740 
# 
# From -- ./inp_files/42734.got.cif
#   From: 2010.05.17/outbox.cif.g08.bks.cpg/sg74_22_cif.got.tgz:42734.got - 2010.06.03 17:57:02.
