data_PCOD9535312
_publ_section_title
;
Structure prediction by ZEFSAII (Michael W. Deem and Ramdas Pophale) SiO2 
 PCOD9535312
Probable space group: I M M A
;
_chemical_formula_sum "Si O2"
_cell_formula_units_Z 112
_cell_length_a 14.972558
_cell_length_b 27.460471
_cell_length_c 16.303204
_cell_angle_alpha 90.000000
_cell_angle_beta 90.000000
_cell_angle_gamma 90.000000
_cell_volume 6703.119300
_symmetry_space_group_name_H-M "I M M A"
_symmetry_group_IT_number 74
_symmetry_cell_setting 'orthorhombic'
loop_
_space_group_symop_operation_xyz
x,y,z
-x,1/2-y,z
x,-y,-z
-x,1/2+y,-z
-x,-y,-z
x,1/2+y,-z
-x,y,z
x,1/2-y,z
1/2+x,1/2+y,1/2+z
1/2-x,-y,1/2+z
1/2+x,1/2-y,1/2-z
1/2-x,y,1/2-z
1/2-x,1/2-y,1/2-z
1/2+x,y,1/2-z
1/2-x,1/2+y,1/2+z
1/2+x,-y,1/2+z
loop_
_atom_site_type_symbol
_atom_site_label
_atom_site_fract_x
_atom_site_fract_y
_atom_site_fract_z
Si Si1 0.891295 0.805189 0.286405
Si Si2 0.595500 0.488854 0.903365
Si Si3 0.726318 0.032561 0.660892
Si Si4 0.893191 0.692016 0.100778
Si Si5 0.600810 0.124051 0.933591
Si Si6 0.601838 0.964705 0.580554
Si Si7 0.284994 0.889456 0.486769
O O1 0.860095 0.750000 0.301580
O O2 0.864009 0.820003 0.194607
O O3 0.868204 0.840388 0.360708
O O4 0.000000 0.804240 0.284068
O O5 0.500000 0.508526 0.873142
O O6 0.689176 0.501558 0.863510
O O7 0.593099 0.430241 0.896950
O O8 0.600986 0.500000 0.000000
O O9 0.750000 0.052362 0.750000
O O10 0.714992 0.074604 0.593100
O O11 0.640386 0.998027 0.653433
O O12 0.879899 0.750000 0.089699
O O13 0.839396 0.658390 0.038592
O O14 0.000000 0.682659 0.094324
O O15 0.500000 0.137502 0.961154
O O16 0.680229 0.122079 0.999635
O O17 0.500000 0.949713 0.593865
O O18 0.665343 0.919678 0.557281
O O19 0.603889 0.000000 0.500000
#
# Coordination Sequence:
#
# PCOD9535312 Si02
#       7
#    16  16  16  16  16  16  16
#     4   8  15  27  39  54  83 119 151 189 234 272
#     4   9  17  30  45  59  81 112 144 182 227 267
#     4  10  20  30  44  68  93 112 150 193 228 275
#     4   9  18  30  43  62  89 121 160 203 239 271
#     4   9  17  27  40  57  79 108 147 188 226 268
#     4   9  18  34  49  64  88 122 154 188 234 281
#     4  10  19  29  47  64  87 122 161 190 229 280
#
# _framework density 16.708638000000001
#
# number of rings (size 3 to 8) (size 9 to 14) (size 15 to 20)
#    0.000    2.857    0.000    3.429    4.000    1.714 
#    0.000    1.429    0.000    0.000    0.000    0.000 
#    0.000    0.571    0.000    0.286    0.000   27.286 
#
# Total GULP energy -311764.969022 kJ/mol
# GULP energy per Si atom -5567.231590 kJ/mol
# Density = 1.667061 g / cm^3
# Si number density = 16.708638 Si / 1000 Ang^3
#
#
#
# Elastic Constant Matrix: (Units=GPa)
#
#
# Indices 1 2 3 4 5 6 
#
# 1 94.2619 18.0559 -1.0518 0.0000 0.0000 0.0000
# 2 18.0559 42.4166 5.8125 0.0002 0.0000 0.0000
# 3 -1.0518 5.8125 12.4215 0.0002 0.0000 0.0000
# 4 0.0000 0.0002 0.0002 20.1996 -0.0001 0.0000
# 5 0.0000 0.0000 0.0000 -0.0001 7.9662 0.0000
# 6 0.0000 0.0000 0.0000 0.0000 0.0000 24.4199
#
#
#
# Elastic Compliance Matrix: (Units=1/GPa)
#
#
# Indices 1 2 3 4 5 6 
#
# 1 0.011695 -0.005464 0.003547 0.000000 0.000000 0.000000
# 2 -0.005464 0.027744 -0.013445 0.000000 0.000000 0.000000
# 3 0.003547 -0.013445 0.087097 -0.000001 0.000000 0.000000
# 4 0.000000 0.000000 -0.000001 0.049506 0.000000 0.000000
# 5 0.000000 0.000000 0.000000 0.000000 0.125531 0.000000
# 6 0.000000 0.000000 0.000000 0.000000 0.000000 0.040950
#
#
# Mechanical properties :
#
#
# Convention : Reuss Voigt Hill
#
# Bulk Modulus (GPa) = 10.43711 21.63701 16.03706
# Shear Modulus (GPa) = 12.34002 18.93603 15.63802
#
# Velocity S-wave (km/s) = 2.72056 3.37012 3.06261
# Velocity P-wave (km/s) = 4.01605 5.30295 4.70372
#
# Compressibility (1/GPa) = 0.09581193
#
# Stress axis : x y z
#
# Youngs Moduli (GPa) = 85.50632 36.04351 11.48139
#
# Poissons Ratio (x) = 0.19696 -0.04073
# Poissons Ratio (y) = 0.46724 0.15437
# Poissons Ratio (z) = -0.30332 0.48461
#
# Static dielectric constant tensor:
#      x y z
#    x 1.661910 0.000000 0.000000 
#    y 0.000000 1.559470 0.000000 
#    z 0.000000 0.000000 1.558390 
# 
# From -- ./inp_files/32877.got.cif
#   From: 2010.05.17/outbox.cif.g08.bks.cpg/sg74_17_cif.got.tgz:32877.got - 2010.06.03 17:57:02.
