data_PCOD9535110
_publ_section_title
;
Structure prediction by ZEFSAII (Michael W. Deem and Ramdas Pophale) SiO2 
 PCOD9535110
Probable space group: I M M A
;
_chemical_formula_sum "Si O2"
_cell_formula_units_Z 88
_cell_length_a 10.074082
_cell_length_b 21.546301
_cell_length_c 22.962526
_cell_angle_alpha 90.000000
_cell_angle_beta 90.000000
_cell_angle_gamma 90.000000
_cell_volume 4984.227594
_symmetry_space_group_name_H-M "I M M A"
_symmetry_group_IT_number 74
_symmetry_cell_setting 'orthorhombic'
loop_
_space_group_symop_operation_xyz
x,y,z
-x,1/2-y,z
x,-y,-z
-x,1/2+y,-z
-x,-y,-z
x,1/2+y,-z
-x,y,z
x,1/2-y,z
1/2+x,1/2+y,1/2+z
1/2-x,-y,1/2+z
1/2+x,1/2-y,1/2-z
1/2-x,y,1/2-z
1/2-x,1/2-y,1/2-z
1/2+x,y,1/2-z
1/2-x,1/2+y,1/2+z
1/2+x,-y,1/2+z
loop_
_atom_site_type_symbol
_atom_site_label
_atom_site_fract_x
_atom_site_fract_y
_atom_site_fract_z
Si Si1 0.837470 0.003157 0.309150
Si Si2 0.000000 0.322727 0.704249
Si Si3 0.341867 0.626296 0.878731
Si Si4 0.223745 0.378656 0.624140
Si Si5 0.659518 0.677805 0.000075
Si Si6 0.654375 0.250000 0.195708
Si Si7 0.500000 0.674481 0.336677
O O1 0.750000 0.995295 0.250000
O O2 0.797591 0.067617 0.340691
O O3 0.000000 0.001663 0.298660
O O4 0.800724 0.948884 0.354948
O O5 0.872391 0.341889 0.667966
O O6 0.000000 0.347881 0.769449
O O7 0.000000 0.250000 0.710483
O O8 0.500000 0.616295 0.885387
O O9 0.322400 0.689081 0.842613
O O10 0.288130 0.641083 0.943312
O O11 0.186418 0.360513 0.558562
O O12 0.370609 0.354011 0.634403
O O13 0.500000 0.682236 0.993897
O O14 0.707335 0.750000 0.003360
O O15 0.500000 0.250000 0.213761
O O16 0.750000 0.250000 0.250000
O O17 0.500000 0.750000 0.339743
#
# Coordination Sequence:
#
# PCOD9535110 Si02
#       7
#    16   8  16  16  16   8   8
#     4  11  23  39  60  88 122 158 200 245 299 359
#     4  11  20  36  56  83 110 147 203 250 285 345
#     4   9  19  35  59  90 117 156 199 246 298 348
#     4  12  23  36  58  87 116 158 197 238 299 357
#     4  10  18  34  61  88 119 153 201 252 293 344
#     4  10  18  34  60  90 120 150 195 249 302 348
#     4  11  24  38  56  81 120 157 197 254 305 345
#
# _framework density 17.655694
#
# number of rings (size 3 to 8) (size 9 to 14) (size 15 to 20)
#    0.000    1.455    2.727    3.818    1.273    2.182 
#    0.000    2.727    4.000    1.091    0.000    0.000 
#    0.000    0.000    0.000    0.000    0.000    0.000 
#
# Total GULP energy -245359.121798 kJ/mol
# GULP energy per Si atom -5576.343677 kJ/mol
# Density = 1.761551 g / cm^3
# Si number density = 17.655694 Si / 1000 Ang^3
#
#
#
# Elastic Constant Matrix: (Units=GPa)
#
#
# Indices 1 2 3 4 5 6 
#
# 1 67.8728 21.3775 13.6818 0.0000 0.0000 0.0000
# 2 21.3775 103.4960 35.8802 0.0000 0.0000 0.0000
# 3 13.6818 35.8802 99.8157 0.0000 0.0000 0.0000
# 4 0.0000 0.0000 0.0000 -10.9025 0.0000 0.0000
# 5 0.0000 0.0000 0.0000 0.0000 36.4914 0.0000
# 6 0.0000 0.0000 0.0000 0.0000 0.0000 21.3512
#
#
#
# Elastic Compliance Matrix: (Units=1/GPa)
#
#
# Indices 1 2 3 4 5 6 
#
# 1 0.015871 -0.002883 -0.001139 0.000000 0.000000 0.000000
# 2 -0.002883 0.011562 -0.003761 0.000000 0.000000 0.000000
# 3 -0.001139 -0.003761 0.011526 0.000000 0.000000 0.000000
# 4 0.000000 0.000000 0.000000 -0.091722 0.000000 0.000000
# 5 0.000000 0.000000 0.000000 0.000000 0.027404 0.000000
# 6 0.000000 0.000000 0.000000 0.000000 0.000000 0.046836
#
#
# Mechanical properties :
#
#
# Convention : Reuss Voigt Hill
#
# Bulk Modulus (GPa) = 42.74793 45.89594 44.32194
# Shear Modulus (GPa) = 111.50692 22.73770 67.12231
#
# Velocity S-wave (km/s) = 7.95572 3.59254 6.17251
# Velocity P-wave (km/s) = 10.42381 6.57722 8.71538
#
# Compressibility (1/GPa) = 0.02339294
#
# Stress axis : x y z
#
# Youngs Moduli (GPa) = 63.00724 86.49350 86.75701
#
# Poissons Ratio (x) = 0.24939 0.09882
# Poissons Ratio (y) = 0.18167 0.32627
# Poissons Ratio (z) = 0.07177 0.32528
#
# Static dielectric constant tensor:
#      x y z
#    x 1.607790 0.000000 0.000000 
#    y 0.000000 1.620900 0.000000 
#    z 0.000000 0.000000 1.594860 
# 
# From -- ./inp_files/57063.got.cif
#   From: 2010.05.17/outbox.cif.g08.bks.cpg/sg74_29_cif.got.tgz:57063.got - 2010.06.03 17:57:02.
