data_PCOD9535223
_publ_section_title
;
Structure prediction by ZEFSAII (Michael W. Deem and Ramdas Pophale) SiO2 
 PCOD9535223
Probable space group: I M M A
;
_chemical_formula_sum "Si O2"
_cell_formula_units_Z 80
_cell_length_a 14.583755
_cell_length_b 11.489383
_cell_length_c 17.675355
_cell_angle_alpha 90.000000
_cell_angle_beta 90.000000
_cell_angle_gamma 90.000000
_cell_volume 2961.653262
_symmetry_space_group_name_H-M "I M M A"
_symmetry_group_IT_number 74
_symmetry_cell_setting 'orthorhombic'
loop_
_space_group_symop_operation_xyz
x,y,z
-x,1/2-y,z
x,-y,-z
-x,1/2+y,-z
-x,-y,-z
x,1/2+y,-z
-x,y,z
x,1/2-y,z
1/2+x,1/2+y,1/2+z
1/2-x,-y,1/2+z
1/2+x,1/2-y,1/2-z
1/2-x,y,1/2-z
1/2-x,1/2-y,1/2-z
1/2+x,y,1/2-z
1/2-x,1/2+y,1/2+z
1/2+x,-y,1/2+z
loop_
_atom_site_type_symbol
_atom_site_label
_atom_site_fract_x
_atom_site_fract_y
_atom_site_fract_z
Si Si1 0.891385 0.497758 0.218503
Si Si2 0.611014 0.750000 0.281344
Si Si3 0.869737 0.750000 0.608925
Si Si4 0.188737 0.750000 0.987405
Si Si5 0.352949 0.250000 0.892095
Si Si6 0.353005 0.499336 0.108612
Si Si7 0.682467 0.500000 0.500000
Si Si8 0.352551 0.750000 0.719900
O O1 0.867779 0.623751 0.183221
O O2 0.843348 0.490903 0.300688
O O3 0.875406 0.372281 0.181132
O O4 0.000000 0.502310 0.233789
O O5 0.500000 0.750000 0.269431
O O6 0.658391 0.750000 0.198738
O O7 0.760510 0.750000 0.584577
O O8 0.897845 0.621560 0.581737
O O9 0.899385 0.750000 0.696734
O O10 0.135978 0.873107 0.994195
O O11 0.262138 0.750000 0.056752
O O12 0.397629 0.375601 0.907138
O O13 0.254206 0.502476 0.069642
O O14 0.250000 0.750000 0.750000
#
# Coordination Sequence:
#
# PCOD9535223 Si02
#       8
#    16   8   8   8   8  16   8   8
#     4   9  16  27  41  55  71  92 118 150 188 228
#     4   8  14  24  39  57  76  99 124 149 180 215
#     4   8  14  23  33  43  60  85 114 148 184 217
#     4   8  12  18  29  42  59  85 112 141 172 201
#     4   8  12  18  30  47  66  86 112 141 165 198
#     4   8  13  20  31  46  65  89 115 143 174 205
#     4   8  12  18  27  42  64  88 114 142 169 198
#     4  10  19  29  40  53  68  89 121 161 199 233
#
# _framework density 27.011941
#
# number of rings (size 3 to 8) (size 9 to 14) (size 15 to 20)
#    0.000    3.600    0.000    0.300    0.000    0.000 
#    0.000    1.000    0.000   18.000    0.000    0.000 
#    0.000    0.000    0.000    0.000    0.000    0.000 
#
# Total GULP energy -222903.874959 kJ/mol
# GULP energy per Si atom -5572.596874 kJ/mol
# Density = 2.695046 g / cm^3
# Si number density = 27.011941 Si / 1000 Ang^3
#
#
#
# Elastic Constant Matrix: (Units=GPa)
#
#
# Indices 1 2 3 4 5 6 
#
# 1 43.3982 20.3636 29.6830 0.0000 0.0000 0.0000
# 2 20.3636 431.4621 9.8984 0.0000 0.0000 0.0000
# 3 29.6830 9.8984 103.9308 0.0000 0.0000 0.0000
# 4 0.0000 0.0000 0.0000 8.3513 0.0000 0.0000
# 5 0.0000 0.0000 0.0000 0.0000 -21.4893 0.0000
# 6 0.0000 0.0000 0.0000 0.0000 0.0000 -3.6283
#
#
#
# Elastic Compliance Matrix: (Units=1/GPa)
#
#
# Indices 1 2 3 4 5 6 
#
# 1 0.029234 -0.001191 -0.008236 0.000000 0.000000 0.000000
# 2 -0.001191 0.002371 0.000114 0.000000 0.000000 0.000000
# 3 -0.008236 0.000114 0.011963 0.000000 0.000000 0.000000
# 4 0.000000 0.000000 0.000000 0.119742 0.000000 0.000000
# 5 0.000000 0.000000 0.000000 0.000000 -0.046535 0.000000
# 6 0.000000 0.000000 0.000000 0.000000 0.000000 -0.275613
#
#
# Mechanical properties :
#
#
# Convention : Reuss Voigt Hill
#
# Bulk Modulus (GPa) = 40.09037 77.63121 58.86079
# Shear Modulus (GPa) = -37.90819 31.23649 -3.33585
#
# Velocity S-wave (km/s) = -3.75024 3.40427 -1.11249
# Velocity P-wave (km/s) = 1.96939 6.65237 4.49308
#
# Compressibility (1/GPa) = 0.02494365
#
# Stress axis : x y z
#
# Youngs Moduli (GPa) = 34.20632 421.71286 83.59015
#
# Poissons Ratio (x) = 0.50218 0.68845
# Poissons Ratio (y) = 0.04073 -0.00955
# Poissons Ratio (z) = 0.28172 -0.04819
#
# Static dielectric constant tensor:
#      x y z
#    x 2.032830 0.000000 0.000000 
#    y 0.000000 2.188020 0.000000 
#    z 0.000000 0.000000 2.092410 
# 
# From -- ./inp_files/66938.got.cif
#   From: 2010.05.17/outbox.cif.g08.bks.cpg/sg74_34_cif.got.tgz:66938.got - 2010.06.03 17:57:02.
