data_PCOD9535322
_publ_section_title
;
Structure prediction by ZEFSAII (Michael W. Deem and Ramdas Pophale) SiO2 
 PCOD9535322
Probable space group: I M M A
;
_chemical_formula_sum "Si O2"
_cell_formula_units_Z 80
_cell_length_a 28.134927
_cell_length_b 9.040184
_cell_length_c 13.471519
_cell_angle_alpha 90.000000
_cell_angle_beta 90.000000
_cell_angle_gamma 90.000000
_cell_volume 3426.412381
_symmetry_space_group_name_H-M "I M M A"
_symmetry_group_IT_number 74
_symmetry_cell_setting 'orthorhombic'
loop_
_space_group_symop_operation_xyz
x,y,z
-x,1/2-y,z
x,-y,-z
-x,1/2+y,-z
-x,-y,-z
x,1/2+y,-z
-x,y,z
x,1/2-y,z
1/2+x,1/2+y,1/2+z
1/2-x,-y,1/2+z
1/2+x,1/2-y,1/2-z
1/2-x,y,1/2-z
1/2-x,1/2-y,1/2-z
1/2+x,y,1/2-z
1/2-x,1/2+y,1/2+z
1/2+x,-y,1/2+z
loop_
_atom_site_type_symbol
_atom_site_label
_atom_site_fract_x
_atom_site_fract_y
_atom_site_fract_z
Si Si1 0.947046 0.428147 0.173477
Si Si2 0.850818 0.582926 0.133764
Si Si3 0.429748 0.077661 0.098778
Si Si4 0.756036 0.583900 0.870060
Si Si5 0.836373 0.086369 0.628728
O O1 0.939604 0.250000 0.168833
O O2 0.903000 0.511623 0.123104
O O3 0.946555 0.470124 0.291396
O O4 0.000000 0.461599 0.134747
O O5 0.848446 0.750000 0.092808
O O6 0.808218 0.474457 0.103558
O O7 0.841488 0.595353 0.252282
O O8 0.439099 0.250000 0.091311
O O9 0.373818 0.038966 0.100081
O O10 0.448690 0.000000 0.000000
O O11 0.747776 0.750000 0.907858
O O12 0.750000 0.592460 0.750000
O O13 0.716271 0.464352 0.897859
O O14 0.848494 0.250000 0.589757
#
# Coordination Sequence:
#
# PCOD9535322 Si02
#       5
#    16  16  16  16  16
#     4   9  18  31  43  54  71  97 129 165 203 239
#     4   9  16  25  38  56  75  94 118 150 187 227
#     4  10  19  30  42  55  72  96 128 165 203 239
#     4   9  15  23  37  56  76  96 116 141 178 225
#     4   9  16  26  39  55  74  94 118 150 187 227
#
# _framework density 23.348036
#
# number of rings (size 3 to 8) (size 9 to 14) (size 15 to 20)
#    0.000    2.800    0.000    2.400    0.000    8.800 
#    0.000    0.000    0.000    0.000    0.000    0.000 
#    0.000    0.000    0.000    0.000    0.000    1.000 
#
# Total GULP energy -223437.603239 kJ/mol
# GULP energy per Si atom -5585.940081 kJ/mol
# Density = 2.329489 g / cm^3
# Si number density = 23.348036 Si / 1000 Ang^3
#
#
#
# Elastic Constant Matrix: (Units=GPa)
#
#
# Indices 1 2 3 4 5 6 
#
# 1 170.1673 44.8919 -12.8663 0.0000 0.0000 0.0000
# 2 44.8919 90.8368 10.3819 0.0000 0.0000 0.0000
# 3 -12.8663 10.3819 68.1443 0.0000 0.0000 0.0000
# 4 0.0000 0.0000 0.0000 17.7967 0.0000 0.0000
# 5 0.0000 0.0000 0.0000 0.0000 -15.9363 0.0000
# 6 0.0000 0.0000 0.0000 0.0000 0.0000 18.4295
#
#
#
# Elastic Compliance Matrix: (Units=1/GPa)
#
#
# Indices 1 2 3 4 5 6 
#
# 1 0.006986 -0.003667 0.001878 0.000000 0.000000 0.000000
# 2 -0.003667 0.013129 -0.002693 0.000000 0.000000 0.000000
# 3 0.001878 -0.002693 0.015439 0.000000 0.000000 0.000000
# 4 0.000000 0.000000 0.000000 0.056190 0.000000 0.000000
# 5 0.000000 0.000000 0.000000 0.000000 -0.062750 0.000000
# 6 0.000000 0.000000 0.000000 0.000000 0.000000 0.054261
#
#
# Mechanical properties :
#
#
# Convention : Reuss Voigt Hill
#
# Bulk Modulus (GPa) = 37.60769 45.99594 41.80181
# Shear Modulus (GPa) = 49.46428 23.17403 36.31916
#
# Velocity S-wave (km/s) = 4.60778 3.15389 3.94833
# Velocity P-wave (km/s) = 6.66718 5.74505 6.22322
#
# Compressibility (1/GPa) = 0.02659031
#
# Stress axis : x y z
#
# Youngs Moduli (GPa) = 143.14424 76.16844 64.76897
#
# Poissons Ratio (x) = 0.27932 -0.12162
# Poissons Ratio (y) = 0.52492 0.17440
# Poissons Ratio (z) = -0.26878 0.20509
#
# Static dielectric constant tensor:
#      x y z
#    x 1.853780 0.000000 0.000000 
#    y 0.000000 1.805160 0.000000 
#    z 0.000000 0.000000 1.969650 
# 
# From -- ./inp_files/39717.got.cif
#   From: 2010.05.17/outbox.cif.g08.bks.cpg/sg74_20_cif.got.tgz:39717.got - 2010.06.03 17:57:02.
