data_PCOD9535230
_publ_section_title
;
Structure prediction by ZEFSAII (Michael W. Deem and Ramdas Pophale) SiO2 
 PCOD9535230
Probable space group: I M M A
;
_chemical_formula_sum "Si O2"
_cell_formula_units_Z 104
_cell_length_a 9.097028
_cell_length_b 23.404217
_cell_length_c 37.574367
_cell_angle_alpha 90.000000
_cell_angle_beta 90.000000
_cell_angle_gamma 90.000000
_cell_volume 7999.914041
_symmetry_space_group_name_H-M "I M M A"
_symmetry_group_IT_number 74
_symmetry_cell_setting 'orthorhombic'
loop_
_space_group_symop_operation_xyz
x,y,z
-x,1/2-y,z
x,-y,-z
-x,1/2+y,-z
-x,-y,-z
x,1/2+y,-z
-x,y,z
x,1/2-y,z
1/2+x,1/2+y,1/2+z
1/2-x,-y,1/2+z
1/2+x,1/2-y,1/2-z
1/2-x,y,1/2-z
1/2-x,1/2-y,1/2-z
1/2+x,y,1/2-z
1/2-x,1/2+y,1/2+z
1/2+x,-y,1/2+z
loop_
_atom_site_type_symbol
_atom_site_label
_atom_site_fract_x
_atom_site_fract_y
_atom_site_fract_z
Si Si1 0.175338 0.250000 0.711635
Si Si2 0.830752 0.877112 0.465502
Si Si3 0.676062 0.813834 0.404174
Si Si4 0.823983 0.923771 0.144242
Si Si5 0.830185 0.991113 0.415845
Si Si6 0.677136 0.123143 0.789064
Si Si7 0.830190 0.557165 0.975186
O O1 0.250000 0.250000 0.750000
O O2 0.213931 0.312273 0.696710
O O3 0.000000 0.250000 0.715631
O O4 0.751691 0.829867 0.441448
O O5 0.828296 0.934610 0.441104
O O6 0.747132 0.894056 0.501480
O O7 0.000000 0.862667 0.472297
O O8 0.500000 0.815084 0.408751
O O9 0.719130 0.750000 0.392362
O O10 0.711709 0.864450 0.376662
O O11 0.759847 0.973434 0.119135
O O12 0.746321 0.919632 0.182376
O O13 0.000000 0.927910 0.147502
O O14 0.000000 0.003696 0.407769
O O15 0.755349 0.040225 0.439428
O O16 0.500000 0.117920 0.786717
O O17 0.750000 0.117361 0.750000
O O18 0.000000 0.570431 0.968102
O O19 0.827590 0.500000 0.000000
#
# Coordination Sequence:
#
# PCOD9535230 Si02
#       7
#     8  16  16  16  16  16  16
#     4   8  16  28  40  52  64  78 100 132 168 206
#     4   9  16  25  37  53  70  89 113 139 167 201
#     4   9  18  30  40  51  69  93 118 144 176 213
#     4  10  19  29  41  55  71  90 113 141 176 218
#     4   9  16  26  38  53  72  90 109 135 167 204
#     4  10  19  31  43  55  68  85 109 140 176 215
#     4   9  15  23  37  54  71  90 110 133 163 200
#
# _framework density 13.000139000000001
#
# number of rings (size 3 to 8) (size 9 to 14) (size 15 to 20)
#    0.000    2.769    0.000    2.308    1.077    7.077 
#    0.000    0.000    0.000    0.000    0.000    0.000 
#    0.000    0.000    0.000    0.000    0.000    0.000 
#
# Total GULP energy -289503.842778 kJ/mol
# GULP energy per Si atom -5567.381592 kJ/mol
# Density = 1.297055 g / cm^3
# Si number density = 13.000139 Si / 1000 Ang^3
#
#
#
# Elastic Constant Matrix: (Units=GPa)
#
#
# Indices 1 2 3 4 5 6 
#
# 1 54.7437 12.4315 45.6580 0.0000 0.0000 0.0000
# 2 12.4315 9.5125 19.6472 0.0000 0.0000 0.0000
# 3 45.6580 19.6472 81.7661 0.0000 0.0000 0.0000
# 4 0.0000 0.0000 0.0000 21.5168 0.0000 0.0000
# 5 0.0000 0.0000 0.0000 0.0000 20.8238 0.0000
# 6 0.0000 0.0000 0.0000 0.0000 0.0000 12.2131
#
#
#
# Elastic Compliance Matrix: (Units=1/GPa)
#
#
# Indices 1 2 3 4 5 6 
#
# 1 0.034718 -0.010583 -0.016844 0.000000 0.000000 0.000000
# 2 -0.010583 0.211923 -0.045013 0.000000 0.000000 0.000000
# 3 -0.016844 -0.045013 0.032451 0.000000 0.000000 0.000000
# 4 0.000000 0.000000 0.000000 0.046475 0.000000 0.000000
# 5 0.000000 0.000000 0.000000 0.000000 0.048022 0.000000
# 6 0.000000 0.000000 0.000000 0.000000 0.000000 0.081879
#
#
# Mechanical properties :
#
#
# Convention : Reuss Voigt Hill
#
# Bulk Modulus (GPa) = 7.45074 33.49953 20.47514
# Shear Modulus (GPa) = 7.75090 15.46313 11.60702
#
# Velocity S-wave (km/s) = 2.44440 3.45259 2.99128
# Velocity P-wave (km/s) = 3.70277 6.45898 5.26445
#
# Compressibility (1/GPa) = 0.13421489
#
# Stress axis : x y z
#
# Youngs Moduli (GPa) = 28.80317 4.71869 30.81527
#
# Poissons Ratio (x) = 0.04994 0.51905
# Poissons Ratio (y) = 0.30481 1.38708
# Poissons Ratio (z) = 0.48516 0.21240
#
# Static dielectric constant tensor:
#      x y z
#    x 1.430260 0.000000 0.000000 
#    y 0.000000 1.409650 0.000000 
#    z 0.000000 0.000000 1.417530 
# 
# From -- ./inp_files/64981.got.cif
#   From: 2010.05.17/outbox.cif.g08.bks.cpg/sg74_33_cif.got.tgz:64981.got - 2010.06.03 17:57:02.
