data_PCOD9535275
_publ_section_title
;
Structure prediction by ZEFSAII (Michael W. Deem and Ramdas Pophale) SiO2 
 PCOD9535275
Probable space group: I M M A
;
_chemical_formula_sum "Si O2"
_cell_formula_units_Z 104
_cell_length_a 23.728933
_cell_length_b 7.395128
_cell_length_c 24.998081
_cell_angle_alpha 90.000000
_cell_angle_beta 90.000000
_cell_angle_gamma 90.000000
_cell_volume 4386.625678
_symmetry_space_group_name_H-M "I M M A"
_symmetry_group_IT_number 74
_symmetry_cell_setting 'orthorhombic'
loop_
_space_group_symop_operation_xyz
x,y,z
-x,1/2-y,z
x,-y,-z
-x,1/2+y,-z
-x,-y,-z
x,1/2+y,-z
-x,y,z
x,1/2-y,z
1/2+x,1/2+y,1/2+z
1/2-x,-y,1/2+z
1/2+x,1/2-y,1/2-z
1/2-x,y,1/2-z
1/2-x,1/2-y,1/2-z
1/2+x,y,1/2-z
1/2-x,1/2+y,1/2+z
1/2+x,-y,1/2+z
loop_
_atom_site_type_symbol
_atom_site_label
_atom_site_fract_x
_atom_site_fract_y
_atom_site_fract_z
Si Si1 0.500000 0.037964 0.937327
Si Si2 0.275300 0.968430 0.306589
Si Si3 0.768117 0.545805 0.580199
Si Si4 0.856988 0.466405 0.059210
Si Si5 0.402125 0.454316 0.331996
Si Si6 0.562945 0.470840 0.218449
Si Si7 0.880952 0.539151 0.614437
O O1 0.500000 0.250000 0.927490
O O2 0.441870 0.966760 0.912864
O O3 0.500000 0.000000 0.000000
O O4 0.278030 0.750000 0.310679
O O5 0.250000 0.017530 0.250000
O O6 0.239792 0.042675 0.355759
O O7 0.337247 0.047022 0.313408
O O8 0.769188 0.750000 0.557632
O O9 0.708098 0.463324 0.561551
O O10 0.830651 0.462064 0.577152
O O11 0.852846 0.250000 0.068047
O O12 0.895410 0.535417 0.108368
O O13 0.879332 0.500000 0.000000
O O14 0.424809 0.250000 0.337917
O O15 0.431017 0.536427 0.279537
O O16 0.500000 0.515790 0.199463
O O17 0.567185 0.250000 0.220103
O O18 0.608255 0.535500 0.174570
O O19 0.866137 0.750000 0.620411
#
# Coordination Sequence:
#
# PCOD9535275 Si02
#       7
#     8  16  16  16  16  16  16
#     4  12  26  42  58  76 104 144 187 228 267 310
#     4  10  19  29  43  69 105 138 167 204 252 309
#     4   9  19  33  52  76 101 132 171 214 258 311
#     4   9  18  32  49  73 103 136 175 214 260 315
#     4   9  18  32  51  75 101 133 176 219 262 321
#     4   9  16  29  55  84 105 130 170 222 274 323
#     4  10  19  36  59  82 107 135 173 223 276 324
#
# _framework density 23.708428999999999
#
# number of rings (size 3 to 8) (size 9 to 14) (size 15 to 20)
#    0.000    2.462    0.769    3.000    0.000    6.154 
#    0.000    2.308    0.000    0.462    0.000    0.000 
#    0.000    0.000    0.000    0.000    0.000    0.308 
#
# Total GULP energy -290012.328085 kJ/mol
# GULP energy per Si atom -5577.160155 kJ/mol
# Density = 2.365447 g / cm^3
# Si number density = 23.708429 Si / 1000 Ang^3
#
#
#
# Elastic Constant Matrix: (Units=GPa)
#
#
# Indices 1 2 3 4 5 6 
#
# 1 45.7413 -1.6947 -9.8490 0.0000 0.0000 0.0000
# 2 -1.6947 95.1692 -6.2771 0.0000 0.0000 0.0000
# 3 -9.8490 -6.2771 128.7700 0.0000 0.0000 0.0000
# 4 0.0000 0.0000 0.0000 15.8783 0.0000 0.0000
# 5 0.0000 0.0000 0.0000 0.0000 22.4995 0.0000
# 6 0.0000 0.0000 0.0000 0.0000 0.0000 -29.9470
#
#
#
# Elastic Compliance Matrix: (Units=1/GPa)
#
#
# Indices 1 2 3 4 5 6 
#
# 1 0.022253 0.000510 0.001727 0.000000 0.000000 0.000000
# 2 0.000510 0.010553 0.000553 0.000000 0.000000 0.000000
# 3 0.001727 0.000553 0.007925 0.000000 0.000000 0.000000
# 4 0.000000 0.000000 0.000000 0.062979 0.000000 0.000000
# 5 0.000000 0.000000 0.000000 0.000000 0.044445 0.000000
# 6 0.000000 0.000000 0.000000 0.000000 0.000000 -0.033392
#
#
# Mechanical properties :
#
#
# Convention : Reuss Voigt Hill
#
# Bulk Modulus (GPa) = 21.59276 26.00432 23.79854
# Shear Modulus (GPa) = 40.12218 20.85291 30.48755
#
# Velocity S-wave (km/s) = 4.11824 2.96895 3.58989
# Velocity P-wave (km/s) = 5.63388 4.76918 5.21947
#
# Compressibility (1/GPa) = 0.04631183
#
# Stress axis : x y z
#
# Youngs Moduli (GPa) = 44.93815 94.75811 126.18543
#
# Poissons Ratio (x) = -0.04834 -0.21791
# Poissons Ratio (y) = -0.02293 -0.06984
# Poissons Ratio (z) = -0.07760 -0.05244
#
# Static dielectric constant tensor:
#      x y z
#    x 1.955040 0.000000 0.000000 
#    y 0.000000 1.909960 0.000000 
#    z 0.000000 0.000000 1.917630 
# 
# From -- ./inp_files/57633.got.cif
#   From: 2010.05.17/outbox.cif.g08.bks.cpg/sg74_29_cif.got.tgz:57633.got - 2010.06.03 17:57:02.
