data_PCOD9535168
_publ_section_title
;
Structure prediction by ZEFSAII (Michael W. Deem and Ramdas Pophale) SiO2 
 PCOD9535168
Probable space group: I M M A
;
_chemical_formula_sum "Si O2"
_cell_formula_units_Z 72
_cell_length_a 16.534663
_cell_length_b 8.669997
_cell_length_c 26.785044
_cell_angle_alpha 90.000000
_cell_angle_beta 90.000000
_cell_angle_gamma 90.000000
_cell_volume 3839.782802
_symmetry_space_group_name_H-M "I M M A"
_symmetry_group_IT_number 74
_symmetry_cell_setting 'orthorhombic'
loop_
_space_group_symop_operation_xyz
x,y,z
-x,1/2-y,z
x,-y,-z
-x,1/2+y,-z
-x,-y,-z
x,1/2+y,-z
-x,y,z
x,1/2-y,z
1/2+x,1/2+y,1/2+z
1/2-x,-y,1/2+z
1/2+x,1/2-y,1/2-z
1/2-x,y,1/2-z
1/2-x,1/2-y,1/2-z
1/2+x,y,1/2-z
1/2-x,1/2+y,1/2+z
1/2+x,-y,1/2+z
loop_
_atom_site_type_symbol
_atom_site_label
_atom_site_fract_x
_atom_site_fract_y
_atom_site_fract_z
Si Si1 0.593308 0.250000 0.375638
Si Si2 0.844152 0.929123 0.392793
Si Si3 0.500000 0.930972 0.944531
Si Si4 0.159873 0.575307 0.273570
Si Si5 0.655924 0.750000 0.733258
Si Si6 0.307009 0.075727 0.447891
O O1 0.500000 0.250000 0.362511
O O2 0.647172 0.250000 0.326218
O O3 0.618922 0.395053 0.410043
O O4 0.857211 0.750000 0.403643
O O5 0.835585 0.946136 0.333197
O O6 0.920837 0.018043 0.414280
O O7 0.763452 0.984722 0.420266
O O8 0.500000 0.750000 0.949834
O O9 0.500000 0.000000 0.000000
O O10 0.124867 0.750000 0.264309
O O11 0.250000 0.580338 0.250000
O O12 0.121386 0.415585 0.252446
O O13 0.750000 0.750000 0.750000
O O14 0.276150 0.250000 0.458030
O O15 0.329939 0.000000 0.500000
#
# Coordination Sequence:
#
# PCOD9535168 Si02
#       6
#     8  16   8  16   8  16
#     4  10  24  42  64  95 131 172 217 275 337 396
#     4  11  22  39  64  93 131 170 223 268 328 396
#     4  12  26  42  62  90 136 178 220 276 332 387
#     4   9  19  34  59  92 123 165 212 269 321 383
#     4  10  18  36  66  88 126 169 211 265 329 388
#     4  10  21  37  63  90 121 165 220 263 326 388
#
# _framework density 18.751061
#
# number of rings (size 3 to 8) (size 9 to 14) (size 15 to 20)
#    0.667    1.111    0.000    5.667    3.111    0.444 
#    2.000    1.111    0.000    2.667    0.000    0.000 
#    0.000    0.000    0.000    0.000    0.000    0.000 
#
# Total GULP energy -200617.600344 kJ/mol
# GULP energy per Si atom -5572.711121 kJ/mol
# Density = 1.870838 g / cm^3
# Si number density = 18.751061 Si / 1000 Ang^3
#
#
#
# Elastic Constant Matrix: (Units=GPa)
#
#
# Indices 1 2 3 4 5 6 
#
# 1 61.5714 3.0684 29.9980 0.0000 0.0000 0.0000
# 2 3.0684 154.1477 54.4277 0.0000 0.0000 0.0000
# 3 29.9980 54.4277 129.4930 0.0000 0.0000 0.0000
# 4 0.0000 0.0000 0.0000 38.9056 0.0000 0.0000
# 5 0.0000 0.0000 0.0000 0.0000 13.3617 0.0000
# 6 0.0000 0.0000 0.0000 0.0000 0.0000 11.4510
#
#
#
# Elastic Compliance Matrix: (Units=1/GPa)
#
#
# Indices 1 2 3 4 5 6 
#
# 1 0.018543 0.001348 -0.004862 0.000000 0.000000 0.000000
# 2 0.001348 0.007716 -0.003555 0.000000 0.000000 0.000000
# 3 -0.004862 -0.003555 0.010343 0.000000 0.000000 0.000000
# 4 0.000000 0.000000 0.000000 0.025703 0.000000 0.000000
# 5 0.000000 0.000000 0.000000 0.000000 0.074841 0.000000
# 6 0.000000 0.000000 0.000000 0.000000 0.000000 0.087329
#
#
# Mechanical properties :
#
#
# Convention : Reuss Voigt Hill
#
# Bulk Modulus (GPa) = 44.51866 57.80003 51.15935
# Shear Modulus (GPa) = 20.31682 29.92485 25.12083
#
# Velocity S-wave (km/s) = 3.29523 3.99921 3.66416
# Velocity P-wave (km/s) = 6.18640 7.22612 6.72638
#
# Compressibility (1/GPa) = 0.02246249
#
# Stress axis : x y z
#
# Youngs Moduli (GPa) = 53.92885 129.60477 96.68319
#
# Poissons Ratio (x) = -0.17466 0.47008
# Poissons Ratio (y) = -0.07268 0.34373
# Poissons Ratio (z) = 0.26220 0.46077
#
# Static dielectric constant tensor:
#      x y z
#    x 1.630220 0.000000 0.000000 
#    y 0.000000 1.693540 0.000000 
#    z 0.000000 0.000000 1.634790 
# 
# From -- ./inp_files/60625.got.cif
#   From: 2010.05.17/outbox.cif.g08.bks.cpg/sg74_31_cif.got.tgz:60625.got - 2010.06.03 17:57:02.
