data_PCOD9535201
_publ_section_title
;
Structure prediction by ZEFSAII (Michael W. Deem and Ramdas Pophale) SiO2 
 PCOD9535201
Probable space group: I M M A
;
_chemical_formula_sum "Si O2"
_cell_formula_units_Z 96
_cell_length_a 27.560391
_cell_length_b 7.931207
_cell_length_c 30.142667
_cell_angle_alpha 90.000000
_cell_angle_beta 90.000000
_cell_angle_gamma 90.000000
_cell_volume 6588.800156
_symmetry_space_group_name_H-M "I M M A"
_symmetry_group_IT_number 74
_symmetry_cell_setting 'orthorhombic'
loop_
_space_group_symop_operation_xyz
x,y,z
-x,1/2-y,z
x,-y,-z
-x,1/2+y,-z
-x,-y,-z
x,1/2+y,-z
-x,y,z
x,1/2-y,z
1/2+x,1/2+y,1/2+z
1/2-x,-y,1/2+z
1/2+x,1/2-y,1/2-z
1/2-x,y,1/2-z
1/2-x,1/2-y,1/2-z
1/2+x,y,1/2-z
1/2-x,1/2+y,1/2+z
1/2+x,-y,1/2+z
loop_
_atom_site_type_symbol
_atom_site_label
_atom_site_fract_x
_atom_site_fract_y
_atom_site_fract_z
Si Si1 0.553971 0.548688 0.860140
Si Si2 0.146786 0.457450 0.306868
Si Si3 0.214006 0.049870 0.548728
Si Si4 0.602879 0.451568 0.950815
Si Si5 0.199139 0.553738 0.777441
Si Si6 0.756182 0.047662 0.357816
O O1 0.500000 0.479515 0.852782
O O2 0.552092 0.750000 0.853467
O O3 0.596387 0.483811 0.827778
O O4 0.571053 0.518557 0.910524
O O5 0.146991 0.250000 0.306437
O O6 0.159925 0.516834 0.257117
O O7 0.191638 0.510352 0.338468
O O8 0.210857 0.250000 0.550307
O O9 0.158532 0.982098 0.553401
O O10 0.231894 0.000000 0.500000
O O11 0.245299 0.992560 0.590528
O O12 0.603808 0.250000 0.947678
O O13 0.585531 0.500000 0.000000
O O14 0.185815 0.750000 0.784239
O O15 0.250000 0.552028 0.750000
O O16 0.213992 0.480228 0.825183
O O17 0.755791 0.250000 0.352879
#
# Coordination Sequence:
#
# PCOD9535201 Si02
#       6
#    16  16  16  16  16  16
#     4  10  19  29  42  58  73  92 119 152 191 226
#     4   8  13  23  38  55  75  93 114 148 180 214
#     4  10  19  28  39  55  74  96 122 150 184 222
#     4  10  20  32  44  54  67  90 121 156 194 230
#     4   7  11  19  35  58  74  89 115 142 173 212
#     4   9  14  23  41  58  72  92 118 148 180 213
#
# _framework density 14.570180000000001
#
# number of rings (size 3 to 8) (size 9 to 14) (size 15 to 20)
#    0.000    3.000    1.667    3.000    0.000    2.000 
#    0.000    0.000    0.000    5.500    0.000    0.000 
#    0.000    0.000    0.000    0.000    0.000    0.833 
#
# Total GULP energy -267215.452276 kJ/mol
# GULP energy per Si atom -5566.988589 kJ/mol
# Density = 1.453702 g / cm^3
# Si number density = 14.570180 Si / 1000 Ang^3
#
#
#
# Elastic Constant Matrix: (Units=GPa)
#
#
# Indices 1 2 3 4 5 6 
#
# 1 60.8776 3.0159 65.3009 0.0000 0.0000 0.0000
# 2 3.0159 12.5228 2.2971 0.0000 0.0000 0.0000
# 3 65.3009 2.2971 129.7123 0.0000 0.0000 0.0000
# 4 0.0000 0.0000 0.0000 12.4412 0.0000 0.0000
# 5 0.0000 0.0000 0.0000 0.0000 17.0569 0.0000
# 6 0.0000 0.0000 0.0000 0.0000 0.0000 6.0194
#
#
#
# Elastic Compliance Matrix: (Units=1/GPa)
#
#
# Indices 1 2 3 4 5 6 
#
# 1 0.036067 -0.005373 -0.018062 0.000000 0.000000 0.000000
# 2 -0.005373 0.080915 0.001272 0.000000 0.000000 0.000000
# 3 -0.018062 0.001272 0.016780 0.000000 0.000000 0.000000
# 4 0.000000 0.000000 0.000000 0.080378 0.000000 0.000000
# 5 0.000000 0.000000 0.000000 0.000000 0.058627 0.000000
# 6 0.000000 0.000000 0.000000 0.000000 0.000000 0.166129
#
#
# Mechanical properties :
#
#
# Convention : Reuss Voigt Hill
#
# Bulk Modulus (GPa) = 11.18121 38.26008 24.72064
# Shear Modulus (GPa) = 9.74593 15.93675 12.84134
#
# Velocity S-wave (km/s) = 2.58911 3.31084 2.97196
# Velocity P-wave (km/s) = 4.07783 6.39779 5.36472
#
# Compressibility (1/GPa) = 0.08943579
#
# Stress axis : x y z
#
# Youngs Moduli (GPa) = 27.72624 12.35864 59.59559
#
# Poissons Ratio (x) = 0.06640 1.07641
# Poissons Ratio (y) = 0.14897 -0.07580
# Poissons Ratio (z) = 0.50079 -0.01572
#
# Static dielectric constant tensor:
#      x y z
#    x 1.481450 0.000000 0.000000 
#    y 0.000000 1.530840 0.000000 
#    z 0.000000 0.000000 1.549770 
# 
# From -- ./inp_files/68883.got.cif
#   From: 2010.05.17/outbox.cif.g08.bks.cpg/sg74_35_cif.got.tgz:68883.got - 2010.06.03 17:57:02.
