data_PCOD9535332
_publ_section_title
;
Structure prediction by ZEFSAII (Michael W. Deem and Ramdas Pophale) SiO2 
 PCOD9535332
Probable space group: I M M A
;
_chemical_formula_sum "Si O2"
_cell_formula_units_Z 120
_cell_length_a 14.635482
_cell_length_b 14.382753
_cell_length_c 33.062856
_cell_angle_alpha 90.000000
_cell_angle_beta 90.000000
_cell_angle_gamma 90.000000
_cell_volume 6959.682342
_symmetry_space_group_name_H-M "I M M A"
_symmetry_group_IT_number 74
_symmetry_cell_setting 'orthorhombic'
loop_
_space_group_symop_operation_xyz
x,y,z
-x,1/2-y,z
x,-y,-z
-x,1/2+y,-z
-x,-y,-z
x,1/2+y,-z
-x,y,z
x,1/2-y,z
1/2+x,1/2+y,1/2+z
1/2-x,-y,1/2+z
1/2+x,1/2-y,1/2-z
1/2-x,y,1/2-z
1/2-x,1/2-y,1/2-z
1/2+x,y,1/2-z
1/2-x,1/2+y,1/2+z
1/2+x,-y,1/2+z
loop_
_atom_site_type_symbol
_atom_site_label
_atom_site_fract_x
_atom_site_fract_y
_atom_site_fract_z
Si Si1 0.774632 0.642298 0.796552
Si Si2 0.899405 0.964952 0.410148
Si Si3 0.604859 0.145932 0.143620
Si Si4 0.110411 0.516298 0.853920
Si Si5 0.807156 0.639457 0.010532
Si Si6 0.392007 0.354390 0.427872
Si Si7 0.148515 0.500000 0.500000
Si Si8 0.710015 0.861103 0.398226
O O1 0.807780 0.750000 0.800187
O O2 0.750000 0.624434 0.750000
O O3 0.680964 0.635690 0.822080
O O4 0.846277 0.570106 0.815840
O O5 0.814693 0.897543 0.400254
O O6 0.000000 0.929011 0.397992
O O7 0.883335 0.062886 0.387883
O O8 0.901208 0.986235 0.457863
O O9 0.500000 0.139919 0.159112
O O10 0.615283 0.250000 0.125819
O O11 0.141431 0.577725 0.892996
O O12 0.154554 0.416492 0.864014
O O13 0.000000 0.512000 0.851793
O O14 0.796277 0.750000 0.010953
O O15 0.830395 0.614261 0.056863
O O16 0.874603 0.615196 0.973957
O O17 0.714664 0.588963 0.997829
O O18 0.500000 0.348844 0.422173
O O19 0.353292 0.250000 0.422590
O O20 0.706496 0.750000 0.393188
#
# Coordination Sequence:
#
# PCOD9535332 Si02
#       8
#    16  16  16  16  16  16   8  16
#     4  10  21  37  59  87 118 146 169 202 259 330
#     4  10  19  33  53  76 105 142 184 230 276 325
#     4   9  18  33  55  83 111 139 172 210 258 321
#     4  11  22  36  55  82 111 144 184 224 271 321
#     4   9  18  30  46  68 101 145 187 227 270 316
#     4   9  17  29  47  73 105 140 179 222 266 317
#     4  10  19  30  43  70 104 136 179 226 274 320
#     4  10  21  37  53  75 106 144 192 237 277 314
#
# _framework density 17.242165
#
# number of rings (size 3 to 8) (size 9 to 14) (size 15 to 20)
#    0.000    2.267    1.333    2.200    0.000    2.933 
#    0.000    4.333    0.000    2.800    0.000    0.000 
#    0.000    0.000    0.000    0.000    0.000    0.000 
#
# Total GULP energy -334338.057118 kJ/mol
# GULP energy per Si atom -5572.300952 kJ/mol
# Density = 1.720292 g / cm^3
# Si number density = 17.242165 Si / 1000 Ang^3
#
#
#
# Elastic Constant Matrix: (Units=GPa)
#
#
# Indices 1 2 3 4 5 6 
#
# 1 71.5782 41.0327 35.9336 0.0000 0.0000 0.0000
# 2 41.0327 86.0199 53.1510 0.0000 0.0000 0.0000
# 3 35.9336 53.1510 69.3504 0.0000 0.0000 0.0000
# 4 0.0000 0.0000 0.0000 22.7834 0.0000 0.0000
# 5 0.0000 0.0000 0.0000 0.0000 6.2465 0.0000
# 6 0.0000 0.0000 0.0000 0.0000 0.0000 16.7777
#
#
#
# Elastic Compliance Matrix: (Units=1/GPa)
#
#
# Indices 1 2 3 4 5 6 
#
# 1 0.020434 -0.006088 -0.005921 0.000000 0.000000 0.000000
# 2 -0.006088 0.023897 -0.015160 0.000000 0.000000 0.000000
# 3 -0.005921 -0.015160 0.029107 0.000000 0.000000 0.000000
# 4 0.000000 0.000000 0.000000 0.043892 0.000000 0.000000
# 5 0.000000 0.000000 0.000000 0.000000 0.160089 0.000000
# 6 0.000000 0.000000 0.000000 0.000000 0.000000 0.059603
#
#
# Mechanical properties :
#
#
# Convention : Reuss Voigt Hill
#
# Bulk Modulus (GPa) = 52.36371 54.13149 53.24760
# Shear Modulus (GPa) = 12.57148 15.61693 14.09420
#
# Velocity S-wave (km/s) = 2.70314 3.01282 2.86217
# Velocity P-wave (km/s) = 6.33862 6.60044 6.47085
#
# Compressibility (1/GPa) = 0.01909720
#
# Stress axis : x y z
#
# Youngs Moduli (GPa) = 48.93913 41.84669 34.35648
#
# Poissons Ratio (x) = 0.25478 0.20344
# Poissons Ratio (y) = 0.29796 0.52085
# Poissons Ratio (z) = 0.28979 0.63440
#
# Static dielectric constant tensor:
#      x y z
#    x 1.606460 0.000000 0.000000 
#    y 0.000000 1.600670 0.000000 
#    z 0.000000 0.000000 1.535180 
# 
# From -- ./inp_files/72750.got.cif
#   From: 2010.05.17/outbox.cif.g08.bks.cpg/sg74_37_cif.got.tgz:72750.got - 2010.06.03 17:57:02.
