data_PCOD9535543
_publ_section_title
;
Structure prediction by ZEFSAII (Michael W. Deem and Ramdas Pophale) SiO2 
 PCOD9535543
Probable space group: I M M A
;
_chemical_formula_sum "Si O2"
_cell_formula_units_Z 80
_cell_length_a 7.384541
_cell_length_b 17.024615
_cell_length_c 28.470981
_cell_angle_alpha 90.000000
_cell_angle_beta 90.000000
_cell_angle_gamma 90.000000
_cell_volume 3579.342334
_symmetry_space_group_name_H-M "I M M A"
_symmetry_group_IT_number 74
_symmetry_cell_setting 'orthorhombic'
loop_
_space_group_symop_operation_xyz
x,y,z
-x,1/2-y,z
x,-y,-z
-x,1/2+y,-z
-x,-y,-z
x,1/2+y,-z
-x,y,z
x,1/2-y,z
1/2+x,1/2+y,1/2+z
1/2-x,-y,1/2+z
1/2+x,1/2-y,1/2-z
1/2-x,y,1/2-z
1/2-x,1/2-y,1/2-z
1/2+x,y,1/2-z
1/2-x,1/2+y,1/2+z
1/2+x,-y,1/2+z
loop_
_atom_site_type_symbol
_atom_site_label
_atom_site_fract_x
_atom_site_fract_y
_atom_site_fract_z
Si Si1 0.720972 0.750000 0.467597
Si Si2 0.720395 0.085789 0.480451
Si Si3 0.721049 0.250000 0.643176
Si Si4 0.778464 0.049016 0.125080
Si Si5 0.215288 0.336371 0.201571
Si Si6 0.283394 0.908963 0.306102
O O1 0.500000 0.750000 0.468519
O O2 0.777715 0.832495 0.493530
O O3 0.775088 0.750000 0.412177
O O4 0.500000 0.088755 0.482697
O O5 0.777534 0.073891 0.426687
O O6 0.774038 0.000000 0.500000
O O7 0.500000 0.250000 0.642179
O O8 0.779682 0.325953 0.672790
O O9 0.716047 0.119731 0.157336
O O10 0.000000 0.044129 0.123144
O O11 0.719208 0.973487 0.155522
O O12 0.294789 0.250000 0.205201
O O13 0.250000 0.380807 0.250000
O O14 0.000000 0.330975 0.196853
O O15 0.500000 0.910573 0.309620
O O16 0.250000 0.919488 0.250000
#
# Coordination Sequence:
#
# PCOD9535543 Si02
#       6
#     8  16   8  16  16  16
#     4   9  16  25  41  62  89 123 153 185 232 285
#     4   9  16  25  38  59  87 119 152 183 223 279
#     4   9  17  29  44  64  92 123 151 187 236 279
#     4   9  17  27  41  60  87 119 147 179 222 264
#     4   9  17  28  42  60  85 114 143 175 211 253
#     4  10  19  31  47  67  94 124 154 189 230 276
#
# _framework density 22.350474999999999
#
# number of rings (size 3 to 8) (size 9 to 14) (size 15 to 20)
#    0.000    2.800    0.000    2.100    1.400    4.800 
#    0.000    0.000    0.000    0.000    0.000    0.000 
#    0.000   17.600    0.000    0.000    0.000    0.000 
#
# Total GULP energy -222738.546215 kJ/mol
# GULP energy per Si atom -5568.463655 kJ/mol
# Density = 2.229960 g / cm^3
# Si number density = 22.350475 Si / 1000 Ang^3
#
#
#
# Elastic Constant Matrix: (Units=GPa)
#
#
# Indices 1 2 3 4 5 6 
#
# 1 78.0150 3.9882 -2.4203 0.0000 0.0000 0.0000
# 2 3.9882 154.8500 92.9992 0.0000 0.0000 0.0000
# 3 -2.4203 92.9992 193.7594 0.0000 0.0000 0.0000
# 4 0.0000 0.0000 0.0000 52.4995 0.0000 0.0000
# 5 0.0000 0.0000 0.0000 0.0000 11.3255 0.0000
# 6 0.0000 0.0000 0.0000 0.0000 0.0000 -6.1710
#
#
#
# Elastic Compliance Matrix: (Units=1/GPa)
#
#
# Indices 1 2 3 4 5 6 
#
# 1 0.012863 -0.000601 0.000449 0.000000 0.000000 0.000000
# 2 -0.000601 0.009101 -0.004376 0.000000 0.000000 0.000000
# 3 0.000449 -0.004376 0.007267 0.000000 0.000000 0.000000
# 4 0.000000 0.000000 0.000000 0.019048 0.000000 0.000000
# 5 0.000000 0.000000 0.000000 0.000000 0.088296 0.000000
# 6 0.000000 0.000000 0.000000 0.000000 0.000000 -0.162049
#
#
# Mechanical properties :
#
#
# Convention : Reuss Voigt Hill
#
# Bulk Modulus (GPa) = 49.56513 68.41761 58.99137
# Shear Modulus (GPa) = -515.81994 33.66796 -241.07599
#
# Velocity S-wave (km/s) = -15.20816 3.88540 -10.39691
# Velocity P-wave (km/s) = 16.91625 7.12784 10.84789
#
# Compressibility (1/GPa) = 0.02017547
#
# Stress axis : x y z
#
# Youngs Moduli (GPa) = 77.74411 109.87292 137.60871
#
# Poissons Ratio (x) = 0.06604 -0.06181
# Poissons Ratio (y) = 0.04673 0.60217
# Poissons Ratio (z) = -0.03492 0.48080
#
# Static dielectric constant tensor:
#      x y z
#    x 1.864060 0.000000 0.000000 
#    y 0.000000 1.878820 0.000000 
#    z 0.000000 0.000000 1.628700 
# 
# From -- ./inp_files/50429.got.cif
#   From: 2010.05.17/outbox.cif.g08.bks.cpg/sg74_26_cif.got.tgz:50429.got - 2010.06.03 17:57:02.
