data_PCOD9535226
_publ_section_title
;
Structure prediction by ZEFSAII (Michael W. Deem and Ramdas Pophale) SiO2 
 PCOD9535226
Probable space group: I M M A
;
_chemical_formula_sum "Si O2"
_cell_formula_units_Z 112
_cell_length_a 9.038051
_cell_length_b 32.962001
_cell_length_c 32.445879
_cell_angle_alpha 90.000000
_cell_angle_beta 90.000000
_cell_angle_gamma 90.000000
_cell_volume 9666.024690
_symmetry_space_group_name_H-M "I M M A"
_symmetry_group_IT_number 74
_symmetry_cell_setting 'orthorhombic'
loop_
_space_group_symop_operation_xyz
x,y,z
-x,1/2-y,z
x,-y,-z
-x,1/2+y,-z
-x,-y,-z
x,1/2+y,-z
-x,y,z
x,1/2-y,z
1/2+x,1/2+y,1/2+z
1/2-x,-y,1/2+z
1/2+x,1/2-y,1/2-z
1/2-x,y,1/2-z
1/2-x,1/2-y,1/2-z
1/2+x,y,1/2-z
1/2-x,1/2+y,1/2+z
1/2+x,-y,1/2+z
loop_
_atom_site_type_symbol
_atom_site_label
_atom_site_fract_x
_atom_site_fract_y
_atom_site_fract_z
Si Si1 0.670524 0.403669 0.503070
Si Si2 0.821905 0.250000 0.927995
Si Si3 0.171135 0.526645 0.542337
Si Si4 0.821578 0.336310 0.794201
Si Si5 0.329451 0.956844 0.412477
Si Si6 0.824597 0.614124 0.366937
Si Si7 0.324668 0.333359 0.950284
Si Si8 0.178949 0.250000 0.831947
O O1 0.500000 0.395231 0.492883
O O2 0.748287 0.431467 0.468820
O O3 0.671248 0.430921 0.544872
O O4 0.758164 0.363210 0.515234
O O5 0.757450 0.209451 0.948197
O O6 0.774293 0.250000 0.879702
O O7 0.000000 0.250000 0.929459
O O8 0.173747 0.500000 0.500000
O O9 0.254156 0.499405 0.576085
O O10 0.000000 0.532953 0.553065
O O11 0.750000 0.344441 0.750000
O O12 0.761571 0.367279 0.828399
O O13 0.774599 0.291107 0.809191
O O14 0.000000 0.337692 0.792223
O O15 0.500000 0.961703 0.399999
O O16 0.238812 0.929459 0.380498
O O17 0.801125 0.643955 0.406260
O O18 0.000000 0.612129 0.359206
O O19 0.500000 0.328280 0.955780
O O20 0.000000 0.250000 0.832201
#
# Coordination Sequence:
#
# PCOD9535226 Si02
#       8
#    16   8  16  16  16  16  16   8
#     4   9  16  25  37  52  70  92 114 134 159 194
#     4  11  19  30  44  56  69  88 114 142 175 215
#     4   9  15  23  35  52  73  93 111 133 157 186
#     4  11  21  34  46  58  71  87 108 137 175 218
#     4   9  16  25  38  54  71  91 111 132 157 192
#     4  10  19  30  42  56  71  88 109 135 167 206
#     4  10  19  29  40  55  71  88 111 140 172 205
#     4   9  19  32  46  58  69  83 105 137 175 217
#
# _framework density 11.586976999999999
#
# number of rings (size 3 to 8) (size 9 to 14) (size 15 to 20)
#    0.000    2.286    1.429    3.000    0.000    6.286 
#    0.000    1.071    0.000    0.000    0.000    0.000 
#    0.000    0.000    0.000    0.000    0.000    0.000 
#
# Total GULP energy -312175.049199 kJ/mol
# GULP energy per Si atom -5574.554450 kJ/mol
# Density = 1.156060 g / cm^3
# Si number density = 11.586977 Si / 1000 Ang^3
#
#
#
# Elastic Constant Matrix: (Units=GPa)
#
#
# Indices 1 2 3 4 5 6 
#
# 1 88.9505 56.4569 31.4367 0.0000 0.0000 0.0000
# 2 56.4569 82.3169 44.6267 0.0000 0.0000 0.0000
# 3 31.4367 44.6267 36.5588 0.0000 0.0000 0.0000
# 4 0.0000 0.0000 0.0000 8.7092 0.0000 0.0000
# 5 0.0000 0.0000 0.0000 0.0000 14.5323 0.0000
# 6 0.0000 0.0000 0.0000 0.0000 0.0000 20.8332
#
#
#
# Elastic Compliance Matrix: (Units=1/GPa)
#
#
# Indices 1 2 3 4 5 6 
#
# 1 0.019931 -0.012944 -0.001337 0.000000 0.000000 0.000000
# 2 -0.012944 0.044324 -0.042975 0.000000 0.000000 0.000000
# 3 -0.001337 -0.042975 0.080962 0.000000 0.000000 0.000000
# 4 0.000000 0.000000 0.000000 0.114821 0.000000 0.000000
# 5 0.000000 0.000000 0.000000 0.000000 0.068812 0.000000
# 6 0.000000 0.000000 0.000000 0.000000 0.000000 0.048000
#
#
# Mechanical properties :
#
#
# Convention : Reuss Voigt Hill
#
# Bulk Modulus (GPa) = 32.56955 52.54078 42.55516
# Shear Modulus (GPa) = 9.96813 13.83533 11.90173
#
# Velocity S-wave (km/s) = 2.93625 3.45924 3.20842
# Velocity P-wave (km/s) = 6.29803 7.83570 7.10857
#
# Compressibility (1/GPa) = 0.03070352
#
# Stress axis : x y z
#
# Youngs Moduli (GPa) = 50.17396 22.56098 12.35148
#
# Poissons Ratio (x) = 0.29204 0.01652
# Poissons Ratio (y) = 0.64948 0.53081
# Poissons Ratio (z) = 0.06709 0.96956
#
# Static dielectric constant tensor:
#      x y z
#    x 1.384780 0.000000 0.000000 
#    y 0.000000 1.365630 0.000000 
#    z 0.000000 0.000000 1.344900 
# 
# From -- ./inp_files/71120.got.cif
#   From: 2010.05.17/outbox.cif.g08.bks.cpg/sg74_36_cif.got.tgz:71120.got - 2010.06.03 17:57:02.
