data_PCOD9535409
_publ_section_title
;
Structure prediction by ZEFSAII (Michael W. Deem and Ramdas Pophale) SiO2 
 PCOD9535409
Probable space group: I M M A
;
_chemical_formula_sum "Si O2"
_cell_formula_units_Z 112
_cell_length_a 26.747510
_cell_length_b 16.803219
_cell_length_c 14.338052
_cell_angle_alpha 90.000000
_cell_angle_beta 90.000000
_cell_angle_gamma 90.000000
_cell_volume 6444.155289
_symmetry_space_group_name_H-M "I M M A"
_symmetry_group_IT_number 74
_symmetry_cell_setting 'orthorhombic'
loop_
_space_group_symop_operation_xyz
x,y,z
-x,1/2-y,z
x,-y,-z
-x,1/2+y,-z
-x,-y,-z
x,1/2+y,-z
-x,y,z
x,1/2-y,z
1/2+x,1/2+y,1/2+z
1/2-x,-y,1/2+z
1/2+x,1/2-y,1/2-z
1/2-x,y,1/2-z
1/2-x,1/2-y,1/2-z
1/2+x,y,1/2-z
1/2-x,1/2+y,1/2+z
1/2+x,-y,1/2+z
loop_
_atom_site_type_symbol
_atom_site_label
_atom_site_fract_x
_atom_site_fract_y
_atom_site_fract_z
Si Si1 0.442268 0.064522 0.795454
Si Si2 0.943447 0.844733 0.485381
Si Si3 0.304116 0.345659 0.289988
Si Si4 0.557660 0.656092 0.397296
Si Si5 0.369060 0.084718 0.451937
Si Si6 0.057091 0.338411 0.172980
Si Si7 0.894248 0.099357 0.338556
O O1 0.500000 0.034912 0.796151
O O2 0.433994 0.106695 0.696866
O O3 0.405793 0.991949 0.816755
O O4 0.437207 0.127086 0.879387
O O5 0.940319 0.750000 0.491442
O O6 0.902882 0.883374 0.553533
O O7 0.000000 0.870262 0.513317
O O8 0.305234 0.250000 0.299237
O O9 0.250000 0.369217 0.250000
O O10 0.322735 0.382066 0.389810
O O11 0.343580 0.372190 0.210575
O O12 0.500000 0.637223 0.430024
O O13 0.558127 0.750000 0.378304
O O14 0.602495 0.636331 0.468694
O O15 0.412931 0.089745 0.374038
O O16 0.359236 0.000000 0.500000
O O17 0.076664 0.250000 0.145930
O O18 0.064350 0.348919 0.282671
O O19 0.000000 0.341439 0.146700
#
# Coordination Sequence:
#
# PCOD9535409 Si02
#       7
#    16  16  16  16  16  16  16
#     4  10  20  32  47  73 110 147 178 209 247 295
#     4  10  19  31  48  72 105 144 182 215 249 298
#     4  10  22  41  61  78  99 128 166 216 272 324
#     4  10  19  31  48  72 107 150 184 204 233 290
#     4  11  21  33  52  78 106 133 167 208 252 300
#     4  10  19  30  46  73 109 143 173 206 246 297
#     4  11  19  31  52  76  99 128 172 222 272 314
#
# _framework density 17.380089999999999
#
# number of rings (size 3 to 8) (size 9 to 14) (size 15 to 20)
#    0.000    1.714    0.000    7.714    0.000    7.429 
#    0.000    1.429    0.000    0.000    0.000    0.000 
#    0.000   10.857    0.000    0.000    0.000    0.000 
#
# Total GULP energy -312063.266531 kJ/mol
# GULP energy per Si atom -5572.558331 kJ/mol
# Density = 1.734053 g / cm^3
# Si number density = 17.380090 Si / 1000 Ang^3
#
#
#
# Elastic Constant Matrix: (Units=GPa)
#
#
# Indices 1 2 3 4 5 6 
#
# 1 83.0725 37.1401 47.1466 0.0000 0.0000 0.0000
# 2 37.1401 68.7520 21.9580 0.0000 0.0000 0.0000
# 3 47.1466 21.9580 91.8009 0.0000 0.0000 0.0000
# 4 0.0000 0.0000 0.0000 23.7676 0.0000 0.0000
# 5 0.0000 0.0000 0.0000 0.0000 22.2629 0.0000
# 6 0.0000 0.0000 0.0000 0.0000 0.0000 16.3360
#
#
#
# Elastic Compliance Matrix: (Units=1/GPa)
#
#
# Indices 1 2 3 4 5 6 
#
# 1 0.020693 -0.008428 -0.008611 0.000000 0.000000 0.000000
# 2 -0.008428 0.019181 -0.000259 0.000000 0.000000 0.000000
# 3 -0.008611 -0.000259 0.015378 0.000000 0.000000 0.000000
# 4 0.000000 0.000000 0.000000 0.042074 0.000000 0.000000
# 5 0.000000 0.000000 0.000000 0.000000 0.044918 0.000000
# 6 0.000000 0.000000 0.000000 0.000000 0.000000 0.061214
#
#
# Mechanical properties :
#
#
# Convention : Reuss Voigt Hill
#
# Bulk Modulus (GPa) = 48.41767 50.67942 49.54854
# Shear Modulus (GPa) = 20.41311 21.63202 21.02256
#
# Velocity S-wave (km/s) = 3.43083 3.53178 3.48167
# Velocity P-wave (km/s) = 6.60400 6.77156 6.68830
#
# Compressibility (1/GPa) = 0.02065362
#
# Stress axis : x y z
#
# Youngs Moduli (GPa) = 48.32543 52.13553 65.02869
#
# Poissons Ratio (x) = 0.43940 0.55999
# Poissons Ratio (y) = 0.40729 0.01687
# Poissons Ratio (z) = 0.41615 0.01353
#
# Static dielectric constant tensor:
#      x y z
#    x 1.595570 0.000000 0.000000 
#    y 0.000000 1.612080 0.000000 
#    z 0.000000 0.000000 1.629390 
# 
# From -- ./inp_files/37385.got.cif
#   From: 2010.05.17/outbox.cif.g08.bks.cpg/sg74_19_cif.got.tgz:37385.got - 2010.06.03 17:57:02.
