data_PCOD9535467
_publ_section_title
;
Structure prediction by ZEFSAII (Michael W. Deem and Ramdas Pophale) SiO2 
 PCOD9535467
Probable space group: I M M A
;
_chemical_formula_sum "Si O2"
_cell_formula_units_Z 80
_cell_length_a 25.671877
_cell_length_b 35.817840
_cell_length_c 4.972704
_cell_angle_alpha 90.000000
_cell_angle_beta 90.000000
_cell_angle_gamma 90.000000
_cell_volume 4572.456937
_symmetry_space_group_name_H-M "I M M A"
_symmetry_group_IT_number 74
_symmetry_cell_setting 'orthorhombic'
loop_
_space_group_symop_operation_xyz
x,y,z
-x,1/2-y,z
x,-y,-z
-x,1/2+y,-z
-x,-y,-z
x,1/2+y,-z
-x,y,z
x,1/2-y,z
1/2+x,1/2+y,1/2+z
1/2-x,-y,1/2+z
1/2+x,1/2-y,1/2-z
1/2-x,y,1/2-z
1/2-x,1/2-y,1/2-z
1/2+x,y,1/2-z
1/2-x,1/2+y,1/2+z
1/2+x,-y,1/2+z
loop_
_atom_site_type_symbol
_atom_site_label
_atom_site_fract_x
_atom_site_fract_y
_atom_site_fract_z
Si Si1 0.898625 0.958008 0.104289
Si Si2 0.440332 0.084096 0.114294
Si Si3 0.287218 0.292198 0.993568
Si Si4 0.654492 0.364781 0.079176
Si Si5 0.196814 0.092750 0.916276
O O1 0.915851 0.946123 0.404298
O O2 0.839092 0.943990 0.065475
O O3 0.934508 0.933714 0.907333
O O4 0.903618 0.000000 0.000000
O O5 0.500000 0.091383 0.045385
O O6 0.403841 0.120695 0.124925
O O7 0.304949 0.250000 0.926270
O O8 0.250000 0.290277 0.250000
O O9 0.332031 0.321311 0.070338
O O10 0.250000 0.305932 0.750000
O O11 0.691792 0.386710 0.294016
O O12 0.667468 0.379224 0.782779
O O13 0.250000 0.085385 0.750000
#
# Coordination Sequence:
#
# PCOD9535467 Si02
#       5
#    16  16  16  16  16
#     4  10  21  35  50  73  99 124 163 207 250 298
#     4  10  21  35  52  72  94 127 167 208 251 289
#     4  10  19  30  48  75 103 129 156 190 236 286
#     4  10  19  32  50  71  98 127 162 200 235 287
#     4  10  19  32  50  70  95 130 162 193 238 291
#
# _framework density 17.496061999999998
#
# number of rings (size 3 to 8) (size 9 to 14) (size 15 to 20)
#    0.000    2.000    0.000    4.800    0.000    2.400 
#    0.000    6.000    0.000    0.600    0.000    0.000 
#    0.000   14.400    0.000    0.000    0.000    3.200 
#
# Total GULP energy -222764.588399 kJ/mol
# GULP energy per Si atom -5569.114710 kJ/mol
# Density = 1.745624 g / cm^3
# Si number density = 17.496062 Si / 1000 Ang^3
#
#
#
# Elastic Constant Matrix: (Units=GPa)
#
#
# Indices 1 2 3 4 5 6 
#
# 1 97.4727 57.5506 -9.6026 0.0000 0.0000 0.0000
# 2 57.5506 90.9026 -3.9131 0.0000 0.0000 0.0000
# 3 -9.6026 -3.9131 75.4854 0.0000 0.0000 0.0000
# 4 0.0000 0.0000 0.0000 29.1551 0.0000 0.0000
# 5 0.0000 0.0000 0.0000 0.0000 18.5048 0.0000
# 6 0.0000 0.0000 0.0000 0.0000 0.0000 8.7367
#
#
#
# Elastic Compliance Matrix: (Units=1/GPa)
#
#
# Indices 1 2 3 4 5 6 
#
# 1 0.016566 -0.010421 0.001567 0.000000 0.000000 0.000000
# 2 -0.010421 0.017580 -0.000414 0.000000 0.000000 0.000000
# 3 0.001567 -0.000414 0.013425 0.000000 0.000000 0.000000
# 4 0.000000 0.000000 0.000000 0.034299 0.000000 0.000000
# 5 0.000000 0.000000 0.000000 0.000000 0.054040 0.000000
# 6 0.000000 0.000000 0.000000 0.000000 0.000000 0.114459
#
#
# Mechanical properties :
#
#
# Convention : Reuss Voigt Hill
#
# Bulk Modulus (GPa) = 34.43929 39.10340 36.77134
# Shear Modulus (GPa) = 17.94780 25.93436 21.94108
#
# Velocity S-wave (km/s) = 3.20632 3.85424 3.54511
# Velocity P-wave (km/s) = 5.78222 6.49655 6.14977
#
# Compressibility (1/GPa) = 0.02903661
#
# Stress axis : x y z
#
# Youngs Moduli (GPa) = 60.36315 56.88164 74.48520
#
# Poissons Ratio (x) = 0.59275 -0.11674
# Poissons Ratio (y) = 0.62903 0.03086
# Poissons Ratio (z) = -0.09460 0.02357
#
# Static dielectric constant tensor:
#      x y z
#    x 1.681660 0.000000 0.000000 
#    y 0.000000 1.617390 0.000000 
#    z 0.000000 0.000000 1.659680 
# 
# From -- ./inp_files/4588.got.cif
#   From: 2010.05.17/outbox.cif.g08.bks.cpg/sg74_3_cif.got.tgz:4588.got - 2010.06.03 17:57:02.
