data_PCOD9535026
_publ_section_title
;
Structure prediction by ZEFSAII (Michael W. Deem and Ramdas Pophale) SiO2 
 PCOD9535026
Probable space group: I M M A
;
_chemical_formula_sum "Si O2"
_cell_formula_units_Z 104
_cell_length_a 30.025590
_cell_length_b 7.623373
_cell_length_c 20.407289
_cell_angle_alpha 90.000000
_cell_angle_beta 90.000000
_cell_angle_gamma 90.000000
_cell_volume 4671.152376
_symmetry_space_group_name_H-M "I M M A"
_symmetry_group_IT_number 74
_symmetry_cell_setting 'orthorhombic'
loop_
_space_group_symop_operation_xyz
x,y,z
-x,1/2-y,z
x,-y,-z
-x,1/2+y,-z
-x,-y,-z
x,1/2+y,-z
-x,y,z
x,1/2-y,z
1/2+x,1/2+y,1/2+z
1/2-x,-y,1/2+z
1/2+x,1/2-y,1/2-z
1/2-x,y,1/2-z
1/2-x,1/2-y,1/2-z
1/2+x,y,1/2-z
1/2-x,1/2+y,1/2+z
1/2+x,-y,1/2+z
loop_
_atom_site_type_symbol
_atom_site_label
_atom_site_fract_x
_atom_site_fract_y
_atom_site_fract_z
Si Si1 0.676529 0.548213 0.191911
Si Si2 0.000000 0.460176 0.424478
Si Si3 0.500000 0.047943 0.742489
Si Si4 0.922648 0.952179 0.666968
Si Si5 0.402363 0.460603 0.570677
Si Si6 0.760489 0.039550 0.576972
Si Si7 0.500000 0.046558 0.587302
Si Si8 0.675662 0.965176 0.339197
O O1 0.691873 0.750000 0.197195
O O2 0.623754 0.545101 0.179099
O O3 0.701896 0.473601 0.128358
O O4 0.683990 0.471882 0.264860
O O5 0.000000 0.500000 0.500000
O O6 0.045102 0.525520 0.389951
O O7 0.000000 0.250000 0.413046
O O8 0.500000 0.250000 0.764816
O O9 0.500000 0.047523 0.665378
O O10 0.544404 0.961886 0.770994
O O11 0.911788 0.750000 0.652594
O O12 0.381170 0.500000 0.500000
O O13 0.406025 0.250000 0.578215
O O14 0.452523 0.534745 0.569072
O O15 0.371424 0.522657 0.630017
O O16 0.760997 0.250000 0.579353
O O17 0.714019 0.981605 0.609877
O O18 0.765773 0.000000 0.500000
O O19 0.500000 0.250000 0.563872
O O20 0.674942 0.750000 0.337129
#
# Coordination Sequence:
#
# PCOD9535026 Si02
#       8
#    16   8   8  16  16  16   8  16
#     4  10  20  36  59  83 105 140 189 230 268 325
#     4   9  20  36  53  73 102 141 180 217 259 315
#     4  10  18  33  57  79 101 139 188 226 260 315
#     4  10  21  36  52  78 114 142 170 221 284 330
#     4  10  19  32  50  73 104 140 177 220 270 320
#     4  10  21  37  58  83 111 142 179 227 280 333
#     4   9  18  31  49  74 104 138 176 219 261 306
#     4   9  18  35  58  80 104 139 186 234 273 319
#
# _framework density 22.264313000000001
#
# number of rings (size 3 to 8) (size 9 to 14) (size 15 to 20)
#    0.000    2.308    0.000    3.231    0.000    7.385 
#    0.000    7.692    0.000    1.846    0.000    0.000 
#    0.000    0.000    0.000    0.000    0.000    0.000 
#
# Total GULP energy -290212.704201 kJ/mol
# GULP energy per Si atom -5581.013542 kJ/mol
# Density = 2.221364 g / cm^3
# Si number density = 22.264313 Si / 1000 Ang^3
#
#
#
# Elastic Constant Matrix: (Units=GPa)
#
#
# Indices 1 2 3 4 5 6 
#
# 1 129.5661 0.9334 79.5753 0.0000 0.0000 0.0000
# 2 0.9334 46.4621 5.9468 0.0000 0.0000 0.0000
# 3 79.5753 5.9468 197.9234 0.0000 0.0000 0.0000
# 4 0.0000 0.0000 0.0000 23.1080 0.0000 0.0000
# 5 0.0000 0.0000 0.0000 0.0000 65.9082 0.0000
# 6 0.0000 0.0000 0.0000 0.0000 0.0000 -6.1538
#
#
#
# Elastic Compliance Matrix: (Units=1/GPa)
#
#
# Indices 1 2 3 4 5 6 
#
# 1 0.010254 0.000323 -0.004132 0.000000 0.000000 0.000000
# 2 0.000323 0.021616 -0.000779 0.000000 0.000000 0.000000
# 3 -0.004132 -0.000779 0.006737 0.000000 0.000000 0.000000
# 4 0.000000 0.000000 0.000000 0.043275 0.000000 0.000000
# 5 0.000000 0.000000 0.000000 0.000000 0.015173 0.000000
# 6 0.000000 0.000000 0.000000 0.000000 0.000000 -0.162501
#
#
# Mechanical properties :
#
#
# Convention : Reuss Voigt Hill
#
# Bulk Modulus (GPa) = 33.97910 60.76251 47.37081
# Shear Modulus (GPa) = -107.62085 35.73887 -35.94099
#
# Velocity S-wave (km/s) = -6.96008 4.01085 -4.02218
# Velocity P-wave (km/s) = 7.02108 6.98569 0.49780
#
# Compressibility (1/GPa) = 0.02942985
#
# Stress axis : x y z
#
# Youngs Moduli (GPa) = 97.52686 46.26160 148.42925
#
# Poissons Ratio (x) = -0.01494 0.61333
# Poissons Ratio (y) = -0.03149 0.11567
# Poissons Ratio (z) = 0.40300 0.03605
#
# Static dielectric constant tensor:
#      x y z
#    x 1.816660 0.000000 0.000000 
#    y 0.000000 1.875990 0.000000 
#    z 0.000000 0.000000 1.806550 
# 
# From -- ./inp_files/55305.got.cif
#   From: 2010.05.17/outbox.cif.g08.bks.cpg/sg74_28_cif.got.tgz:55305.got - 2010.06.03 17:57:02.
