data_PCOD9535356
_publ_section_title
;
Structure prediction by ZEFSAII (Michael W. Deem and Ramdas Pophale) SiO2 
 PCOD9535356
Probable space group: I M M A
;
_chemical_formula_sum "Si O2"
_cell_formula_units_Z 96
_cell_length_a 7.311851
_cell_length_b 22.554077
_cell_length_c 26.429521
_cell_angle_alpha 90.000000
_cell_angle_beta 90.000000
_cell_angle_gamma 90.000000
_cell_volume 4358.546501
_symmetry_space_group_name_H-M "I M M A"
_symmetry_group_IT_number 74
_symmetry_cell_setting 'orthorhombic'
loop_
_space_group_symop_operation_xyz
x,y,z
-x,1/2-y,z
x,-y,-z
-x,1/2+y,-z
-x,-y,-z
x,1/2+y,-z
-x,y,z
x,1/2-y,z
1/2+x,1/2+y,1/2+z
1/2-x,-y,1/2+z
1/2+x,1/2-y,1/2-z
1/2-x,y,1/2-z
1/2-x,1/2-y,1/2-z
1/2+x,y,1/2-z
1/2-x,1/2+y,1/2+z
1/2+x,-y,1/2+z
loop_
_atom_site_type_symbol
_atom_site_label
_atom_site_fract_x
_atom_site_fract_y
_atom_site_fract_z
Si Si1 0.223361 0.956231 0.899698
Si Si2 0.718205 0.317537 0.691472
Si Si3 0.223275 0.092206 0.894949
Si Si4 0.277897 0.250000 0.446102
Si Si5 0.722351 0.250000 0.328263
Si Si6 0.282509 0.621004 0.695047
Si Si7 0.722928 0.125167 0.492194
O O1 0.285136 0.916063 0.852656
O O2 0.279594 0.925672 0.952434
O O3 0.000000 0.956262 0.900182
O O4 0.280770 0.023786 0.891600
O O5 0.500000 0.314646 0.684792
O O6 0.788293 0.250000 0.684346
O O7 0.750000 0.334601 0.750000
O O8 0.785644 0.364989 0.650420
O O9 0.000000 0.092417 0.893821
O O10 0.279462 0.114796 0.950314
O O11 0.500000 0.250000 0.447826
O O12 0.229017 0.250000 0.387336
O O13 0.217790 0.310642 0.472193
O O14 0.500000 0.250000 0.324574
O O15 0.789720 0.188313 0.305440
O O16 0.500000 0.624897 0.688034
O O17 0.250000 0.593537 0.750000
O O18 0.500000 0.124737 0.491831
#
# Coordination Sequence:
#
# PCOD9535356 Si02
#       7
#    16  16  16   8   8  16  16
#     4   9  16  27  40  59  89 121 146 177 225 271
#     4   9  18  32  48  67  92 119 147 183 224 263
#     4   9  17  26  41  64  90 117 146 181 221 266
#     4   9  14  21  37  60  87 119 145 174 221 272
#     4   9  15  27  42  60  88 119 149 182 223 264
#     4  10  19  30  45  64  88 119 154 188 220 259
#     4   9  15  23  38  61  90 118 144 177 223 271
#
# _framework density 22.025690999999998
#
# number of rings (size 3 to 8) (size 9 to 14) (size 15 to 20)
#    0.000    2.833    1.667    0.750    1.167    2.667 
#    0.000    0.000    0.000    0.000    0.000    1.167 
#    0.000    2.667    0.000    0.000    0.000    0.000 
#
# Total GULP energy -268108.573964 kJ/mol
# GULP energy per Si atom -5585.595291 kJ/mol
# Density = 2.197556 g / cm^3
# Si number density = 22.025691 Si / 1000 Ang^3
#
#
#
# Elastic Constant Matrix: (Units=GPa)
#
#
# Indices 1 2 3 4 5 6 
#
# 1 89.8771 4.8728 -0.3155 0.0000 0.0000 0.0000
# 2 4.8728 169.2433 126.7026 0.0000 0.0000 0.0000
# 3 -0.3155 126.7026 213.3417 0.0000 0.0000 0.0000
# 4 0.0000 0.0000 0.0000 68.3329 0.0000 0.0000
# 5 0.0000 0.0000 0.0000 0.0000 7.5739 0.0000
# 6 0.0000 0.0000 0.0000 0.0000 0.0000 -13.2778
#
#
#
# Elastic Compliance Matrix: (Units=1/GPa)
#
#
# Indices 1 2 3 4 5 6 
#
# 1 0.011160 -0.000601 0.000373 0.000000 0.000000 0.000000
# 2 -0.000601 0.010671 -0.006338 0.000000 0.000000 0.000000
# 3 0.000373 -0.006338 0.008452 0.000000 0.000000 0.000000
# 4 0.000000 0.000000 0.000000 0.014634 0.000000 0.000000
# 5 0.000000 0.000000 0.000000 0.000000 0.132032 0.000000
# 6 0.000000 0.000000 0.000000 0.000000 0.000000 -0.075314
#
#
# Mechanical properties :
#
#
# Convention : Reuss Voigt Hill
#
# Bulk Modulus (GPa) = 58.30310 81.66465 69.98388
# Shear Modulus (GPa) = 41.49892 35.27263 38.38578
#
# Velocity S-wave (km/s) = 4.34535 4.00613 4.17918
# Velocity P-wave (km/s) = 7.19055 7.65221 7.42497
#
# Compressibility (1/GPa) = 0.01715175
#
# Stress axis : x y z
#
# Youngs Moduli (GPa) = 89.60422 93.71043 118.31189
#
# Poissons Ratio (x) = 0.05630 -0.04417
# Poissons Ratio (y) = 0.05383 0.74991
# Poissons Ratio (z) = -0.03345 0.59398
#
# Static dielectric constant tensor:
#      x y z
#    x 1.892590 0.000000 0.000000 
#    y 0.000000 1.775260 0.000000 
#    z 0.000000 0.000000 1.762190 
# 
# From -- ./inp_files/50936.got.cif
#   From: 2010.05.17/outbox.cif.g08.bks.cpg/sg74_26_cif.got.tgz:50936.got - 2010.06.03 17:57:02.
