data_PCOD9535790
_publ_section_title
;
Structure prediction by ZEFSAII (Michael W. Deem and Ramdas Pophale) SiO2 
 PCOD9535790
Probable space group: I M M A
;
_chemical_formula_sum "Si O2"
_cell_formula_units_Z 96
_cell_length_a 25.257712
_cell_length_b 8.693297
_cell_length_c 25.414237
_cell_angle_alpha 90.000000
_cell_angle_beta 90.000000
_cell_angle_gamma 90.000000
_cell_volume 5580.274974
_symmetry_space_group_name_H-M "I M M A"
_symmetry_group_IT_number 74
_symmetry_cell_setting 'orthorhombic'
loop_
_space_group_symop_operation_xyz
x,y,z
-x,1/2-y,z
x,-y,-z
-x,1/2+y,-z
-x,-y,-z
x,1/2+y,-z
-x,y,z
x,1/2-y,z
1/2+x,1/2+y,1/2+z
1/2-x,-y,1/2+z
1/2+x,1/2-y,1/2-z
1/2-x,y,1/2-z
1/2-x,1/2-y,1/2-z
1/2+x,y,1/2-z
1/2-x,1/2+y,1/2+z
1/2+x,-y,1/2+z
loop_
_atom_site_type_symbol
_atom_site_label
_atom_site_fract_x
_atom_site_fract_y
_atom_site_fract_z
Si Si1 0.440461 0.068240 0.770002
Si Si2 0.170893 0.933092 0.734799
Si Si3 0.269288 0.933059 0.329859
Si Si4 0.730764 0.575707 0.554437
Si Si5 0.104298 0.922736 0.947953
Si Si6 0.560782 0.072817 0.343305
O O1 0.500000 0.018870 0.788224
O O2 0.435581 0.250000 0.779756
O O3 0.386890 0.981590 0.786781
O O4 0.439033 0.031042 0.707964
O O5 0.177271 0.750000 0.732544
O O6 0.215812 0.015144 0.700005
O O7 0.183864 0.987502 0.795060
O O8 0.276162 0.750000 0.327139
O O9 0.263568 0.986456 0.390379
O O10 0.751473 0.500000 0.500000
O O11 0.751249 0.750000 0.560075
O O12 0.667371 0.585394 0.547114
O O13 0.083063 0.750000 0.944091
O O14 0.092180 0.996991 0.892025
O O15 0.082414 0.000000 0.000000
O O16 0.500000 0.083520 0.360558
O O17 0.578478 0.250000 0.330047
#
# Coordination Sequence:
#
# PCOD9535790 Si02
#       6
#    16  16  16  16  16  16
#     4  10  20  33  49  70  95 123 157 197 240 287
#     4  11  21  34  52  74 101 133 167 203 247 301
#     4  11  21  34  52  75 102 131 165 207 253 298
#     4  10  19  32  48  68  94 126 163 201 243 291
#     4   9  18  29  41  57  79 109 147 191 234 277
#     4   9  17  29  43  59  81 112 150 191 236 283
#
# _framework density 17.203451999999999
#
# number of rings (size 3 to 8) (size 9 to 14) (size 15 to 20)
#    0.000    2.000    0.000    6.000    0.000    4.000 
#    0.000    0.000    0.000    0.000    0.000    0.000 
#    0.000    0.667    0.000    2.500    0.000    3.833 
#
# Total GULP energy -267395.084151 kJ/mol
# GULP energy per Si atom -5570.730920 kJ/mol
# Density = 1.716430 g / cm^3
# Si number density = 17.203452 Si / 1000 Ang^3
#
#
#
# Elastic Constant Matrix: (Units=GPa)
#
#
# Indices 1 2 3 4 5 6 
#
# 1 60.8699 9.8753 -1.0707 0.0000 0.0000 0.0000
# 2 9.8753 85.1956 18.6078 0.0000 0.0000 0.0000
# 3 -1.0707 18.6078 56.8506 0.0000 0.0000 0.0000
# 4 0.0000 0.0000 0.0000 25.2227 0.0000 0.0000
# 5 0.0000 0.0000 0.0000 0.0000 18.5201 0.0000
# 6 0.0000 0.0000 0.0000 0.0000 0.0000 18.8033
#
#
#
# Elastic Compliance Matrix: (Units=1/GPa)
#
#
# Indices 1 2 3 4 5 6 
#
# 1 0.016799 -0.002172 0.001027 0.000000 0.000000 0.000000
# 2 -0.002172 0.012922 -0.004270 0.000000 0.000000 0.000000
# 3 0.001027 -0.004270 0.019007 0.000000 0.000000 0.000000
# 4 0.000000 0.000000 0.000000 0.039647 0.000000 0.000000
# 5 0.000000 0.000000 0.000000 0.000000 0.053995 0.000000
# 6 0.000000 0.000000 0.000000 0.000000 0.000000 0.053182
#
#
# Mechanical properties :
#
#
# Convention : Reuss Voigt Hill
#
# Bulk Modulus (GPa) = 26.38638 28.63789 27.51213
# Shear Modulus (GPa) = 22.82950 24.20947 23.51949
#
# Velocity S-wave (km/s) = 3.64679 3.75540 3.70149
# Velocity P-wave (km/s) = 5.75355 5.95707 5.85619
#
# Compressibility (1/GPa) = 0.03789833
#
# Stress axis : x y z
#
# Youngs Moduli (GPa) = 59.52790 77.38666 52.61205
#
# Poissons Ratio (x) = 0.16805 -0.05404
# Poissons Ratio (y) = 0.12927 0.22468
# Poissons Ratio (z) = -0.06114 0.33047
#
# Static dielectric constant tensor:
#      x y z
#    x 1.632380 0.000000 0.000000 
#    y 0.000000 1.613390 0.000000 
#    z 0.000000 0.000000 1.606120 
# 
# From -- ./inp_files/57498.got.cif
#   From: 2010.05.17/outbox.cif.g08.bks.cpg/sg74_29_cif.got.tgz:57498.got - 2010.06.03 17:57:02.
