data_PCOD9535844
_publ_section_title
;
Structure prediction by ZEFSAII (Michael W. Deem and Ramdas Pophale) SiO2 
 PCOD9535844
Probable space group: I M M A
;
_chemical_formula_sum "Si O2"
_cell_formula_units_Z 104
_cell_length_a 8.040994
_cell_length_b 22.011654
_cell_length_c 34.051124
_cell_angle_alpha 90.000000
_cell_angle_beta 90.000000
_cell_angle_gamma 90.000000
_cell_volume 6026.898365
_symmetry_space_group_name_H-M "I M M A"
_symmetry_group_IT_number 74
_symmetry_cell_setting 'orthorhombic'
loop_
_space_group_symop_operation_xyz
x,y,z
-x,1/2-y,z
x,-y,-z
-x,1/2+y,-z
-x,-y,-z
x,1/2+y,-z
-x,y,z
x,1/2-y,z
1/2+x,1/2+y,1/2+z
1/2-x,-y,1/2+z
1/2+x,1/2-y,1/2-z
1/2-x,y,1/2-z
1/2-x,1/2-y,1/2-z
1/2+x,y,1/2-z
1/2-x,1/2+y,1/2+z
1/2+x,-y,1/2+z
loop_
_atom_site_type_symbol
_atom_site_label
_atom_site_fract_x
_atom_site_fract_y
_atom_site_fract_z
Si Si1 0.807427 0.862721 0.848314
Si Si2 0.000000 0.823932 0.072860
Si Si3 0.000000 0.823898 0.982781
Si Si4 0.194237 0.823143 0.372122
Si Si5 0.801865 0.750000 0.704653
Si Si6 0.699603 0.469505 0.206403
Si Si7 0.685245 0.822984 0.930600
Si Si8 0.800889 0.891175 0.292942
O O1 0.764176 0.809177 0.817876
O O2 0.772458 0.925662 0.826424
O O3 0.705359 0.853381 0.888130
O O4 0.000000 0.857318 0.859125
O O5 0.168478 0.842168 0.095790
O O6 0.000000 0.750000 0.072505
O O7 0.000000 0.844781 0.027804
O O8 0.833942 0.842189 0.959332
O O9 0.000000 0.750000 0.983506
O O10 0.197073 0.750000 0.369671
O O11 0.246927 0.851068 0.330219
O O12 0.000000 0.840565 0.380323
O O13 0.750000 0.750000 0.750000
O O14 0.000000 0.750000 0.702132
O O15 0.500000 0.468302 0.203543
O O16 0.750000 0.447921 0.250000
O O17 0.760154 0.539216 0.202880
O O18 0.500000 0.834501 0.946484
O O19 0.701106 0.750000 0.924496
O O20 0.750000 0.867924 0.250000
O O21 0.000000 0.893700 0.293032
#
# Coordination Sequence:
#
# PCOD9535844 Si02
#       8
#    16   8   8  16   8  16  16  16
#     4  12  22  34  50  70  98 133 172 221 271 314
#     4   9  18  32  52  79 109 145 175 209 259 315
#     4   9  18  32  50  75 107 135 173 214 260 322
#     4   9  18  33  52  79 113 143 175 211 255 309
#     4  12  24  36  48  68  94 134 178 215 273 326
#     4  10  20  35  50  69  98 133 178 224 263 306
#     4  10  19  32  50  74 101 133 169 213 268 319
#     4   9  19  33  51  75 104 140 179 219 258 299
#
# _framework density 17.255973999999998
#
# number of rings (size 3 to 8) (size 9 to 14) (size 15 to 20)
#    0.000    2.000    1.538    3.000    1.077    1.538 
#    0.000    3.077    0.000    0.000    0.000    2.154 
#    0.000    4.923    0.000    0.000    0.000    0.000 
#
# Total GULP energy -290099.419522 kJ/mol
# GULP energy per Si atom -5578.834991 kJ/mol
# Density = 1.721670 g / cm^3
# Si number density = 17.255974 Si / 1000 Ang^3
#
#
#
# Elastic Constant Matrix: (Units=GPa)
#
#
# Indices 1 2 3 4 5 6 
#
# 1 100.3286 17.5237 54.0064 0.0000 0.0000 0.0000
# 2 17.5237 18.6895 27.6032 0.0000 0.0000 0.0000
# 3 54.0064 27.6032 140.6662 0.0000 0.0000 0.0000
# 4 0.0000 0.0000 0.0000 10.5112 0.0000 0.0000
# 5 0.0000 0.0000 0.0000 0.0000 24.7619 0.0000
# 6 0.0000 0.0000 0.0000 0.0000 0.0000 6.1291
#
#
#
# Elastic Compliance Matrix: (Units=1/GPa)
#
#
# Indices 1 2 3 4 5 6 
#
# 1 0.013161 -0.006868 -0.003705 0.000000 0.000000 0.000000
# 2 -0.006868 0.078925 -0.012851 0.000000 0.000000 0.000000
# 3 -0.003705 -0.012851 0.011053 0.000000 0.000000 0.000000
# 4 0.000000 0.000000 0.000000 0.095137 0.000000 0.000000
# 5 0.000000 0.000000 0.000000 0.000000 0.040385 0.000000
# 6 0.000000 0.000000 0.000000 0.000000 0.000000 0.163157
#
#
# Mechanical properties :
#
#
# Convention : Reuss Voigt Hill
#
# Bulk Modulus (GPa) = 17.76457 50.88342 34.32399
# Shear Modulus (GPa) = 10.69678 18.98384 14.84031
#
# Velocity S-wave (km/s) = 2.49246 3.32042 2.93577
# Velocity P-wave (km/s) = 4.31280 6.65220 5.60589
#
# Compressibility (1/GPa) = 0.05629182
#
# Stress axis : x y z
#
# Youngs Moduli (GPa) = 75.97984 12.67026 90.46978
#
# Poissons Ratio (x) = 0.08702 0.33523
# Poissons Ratio (y) = 0.52181 1.16261
# Poissons Ratio (z) = 0.28154 0.16282
#
# Static dielectric constant tensor:
#      x y z
#    x 1.615190 0.000000 0.000000 
#    y 0.000000 1.573820 0.000000 
#    z 0.000000 0.000000 1.554040 
# 
# From -- ./inp_files/70848.got.cif
#   From: 2010.05.17/outbox.cif.g08.bks.cpg/sg74_36_cif.got.tgz:70848.got - 2010.06.03 17:57:02.
