data_PCOD9535866
_publ_section_title
;
Structure prediction by ZEFSAII (Michael W. Deem and Ramdas Pophale) SiO2 
 PCOD9535866
Probable space group: I M M A
;
_chemical_formula_sum "Si O2"
_cell_formula_units_Z 88
_cell_length_a 20.181947
_cell_length_b 7.608521
_cell_length_c 28.109015
_cell_angle_alpha 90.000000
_cell_angle_beta 90.000000
_cell_angle_gamma 90.000000
_cell_volume 4316.273265
_symmetry_space_group_name_H-M "I M M A"
_symmetry_group_IT_number 74
_symmetry_cell_setting 'orthorhombic'
loop_
_space_group_symop_operation_xyz
x,y,z
-x,1/2-y,z
x,-y,-z
-x,1/2+y,-z
-x,-y,-z
x,1/2+y,-z
-x,y,z
x,1/2-y,z
1/2+x,1/2+y,1/2+z
1/2-x,-y,1/2+z
1/2+x,1/2-y,1/2-z
1/2-x,y,1/2-z
1/2-x,1/2-y,1/2-z
1/2+x,y,1/2-z
1/2-x,1/2+y,1/2+z
1/2+x,-y,1/2+z
loop_
_atom_site_type_symbol
_atom_site_label
_atom_site_fract_x
_atom_site_fract_y
_atom_site_fract_z
Si Si1 0.228620 0.041143 0.552693
Si Si2 0.186668 0.549649 0.197589
Si Si3 0.000000 0.039284 0.055193
Si Si4 0.575593 0.535149 0.229923
Si Si5 0.637082 0.955976 0.596320
Si Si6 0.821432 0.535529 0.345036
O O1 0.231151 0.250000 0.556504
O O2 0.190718 0.976544 0.600518
O O3 0.202263 0.000000 0.500000
O O4 0.303771 0.973333 0.558448
O O5 0.195398 0.750000 0.214340
O O6 0.128847 0.472715 0.230600
O O7 0.159360 0.550358 0.144040
O O8 0.260491 0.473746 0.189127
O O9 0.932358 0.972724 0.077984
O O10 0.000000 0.250000 0.060813
O O11 0.000000 0.000000 0.000000
O O12 0.500000 0.473873 0.235908
O O13 0.573326 0.750000 0.232679
O O14 0.609606 0.487782 0.179638
O O15 0.630309 0.750000 0.607807
O O16 0.817743 0.750000 0.345130
#
# Coordination Sequence:
#
# PCOD9535866 Si02
#       6
#    16  16   8  16  16  16
#     4  10  19  32  51  73  94 120 155 197 244 287
#     4   9  17  29  47  71  96 125 159 198 241 280
#     4  10  22  34  44  60  86 124 160 194 237 278
#     4   9  16  26  45  73  99 124 161 204 240 280
#     4  10  20  33  47  66  94 126 161 197 235 282
#     4   8  15  28  45  67  97 128 156 193 242 287
#
# _framework density 20.38796
#
# number of rings (size 3 to 8) (size 9 to 14) (size 15 to 20)
#    0.000    2.727    0.000    3.273    1.273    5.091 
#    0.000    0.000    0.000   10.364    0.000    0.000 
#    0.000    0.000    0.000    0.000    0.000    0.727 
#
# Total GULP energy -245323.578261 kJ/mol
# GULP energy per Si atom -5575.535870 kJ/mol
# Density = 2.034156 g / cm^3
# Si number density = 20.387960 Si / 1000 Ang^3
#
#
#
# Elastic Constant Matrix: (Units=GPa)
#
#
# Indices 1 2 3 4 5 6 
#
# 1 109.1906 3.9974 62.7692 0.0000 0.0000 0.0000
# 2 3.9974 51.2950 0.1837 0.0000 0.0000 0.0000
# 3 62.7692 0.1837 108.5509 0.0000 0.0000 0.0000
# 4 0.0000 0.0000 0.0000 7.4111 0.0000 0.0000
# 5 0.0000 0.0000 0.0000 0.0000 15.0146 0.0000
# 6 0.0000 0.0000 0.0000 0.0000 0.0000 -12.8189
#
#
#
# Elastic Compliance Matrix: (Units=1/GPa)
#
#
# Indices 1 2 3 4 5 6 
#
# 1 0.013774 -0.001045 -0.007963 0.000000 0.000000 0.000000
# 2 -0.001045 0.019574 0.000571 0.000000 0.000000 0.000000
# 3 -0.007963 0.000571 0.013816 0.000000 0.000000 0.000000
# 4 0.000000 0.000000 0.000000 0.134933 0.000000 0.000000
# 5 0.000000 0.000000 0.000000 0.000000 0.066602 0.000000
# 6 0.000000 0.000000 0.000000 0.000000 0.000000 -0.078010
#
#
# Mechanical properties :
#
#
# Convention : Reuss Voigt Hill
#
# Bulk Modulus (GPa) = 33.01337 44.77079 38.89208
# Shear Modulus (GPa) = 25.29590 15.39378 20.34484
#
# Velocity S-wave (km/s) = 3.52622 2.75078 3.16236
# Velocity P-wave (km/s) = 5.72771 5.66535 5.69662
#
# Compressibility (1/GPa) = 0.03029076
#
# Stress axis : x y z
#
# Youngs Moduli (GPa) = 72.59926 51.08695 72.38001
#
# Poissons Ratio (x) = 0.05338 0.57637
# Poissons Ratio (y) = 0.07586 -0.04134
# Poissons Ratio (z) = 0.57812 -0.02918
#
# Static dielectric constant tensor:
#      x y z
#    x 1.777380 0.000000 0.000000 
#    y 0.000000 1.743930 0.000000 
#    z 0.000000 0.000000 1.580150 
# 
# From -- ./inp_files/64302.got.cif
#   From: 2010.05.17/outbox.cif.g08.bks.cpg/sg74_33_cif.got.tgz:64302.got - 2010.06.03 17:57:02.
