data_PCOD9535597
_publ_section_title
;
Structure prediction by ZEFSAII (Michael W. Deem and Ramdas Pophale) SiO2 
 PCOD9535597
Probable space group: I M M A
;
_chemical_formula_sum "Si O2"
_cell_formula_units_Z 104
_cell_length_a 10.366433
_cell_length_b 16.301364
_cell_length_c 26.996010
_cell_angle_alpha 90.000000
_cell_angle_beta 90.000000
_cell_angle_gamma 90.000000
_cell_volume 4561.974680
_symmetry_space_group_name_H-M "I M M A"
_symmetry_group_IT_number 74
_symmetry_cell_setting 'orthorhombic'
loop_
_space_group_symop_operation_xyz
x,y,z
-x,1/2-y,z
x,-y,-z
-x,1/2+y,-z
-x,-y,-z
x,1/2+y,-z
-x,y,z
x,1/2-y,z
1/2+x,1/2+y,1/2+z
1/2-x,-y,1/2+z
1/2+x,1/2-y,1/2-z
1/2-x,y,1/2-z
1/2-x,1/2-y,1/2-z
1/2+x,y,1/2-z
1/2-x,1/2+y,1/2+z
1/2+x,-y,1/2+z
loop_
_atom_site_type_symbol
_atom_site_label
_atom_site_fract_x
_atom_site_fract_y
_atom_site_fract_z
Si Si1 0.147717 0.405019 0.480223
Si Si2 0.275634 0.156340 0.657943
Si Si3 0.641750 0.250000 0.290214
Si Si4 0.649585 0.064311 0.295833
Si Si5 0.500000 0.845903 0.275846
Si Si6 0.861922 0.627621 0.051470
Si Si7 0.645625 0.448332 0.405900
Si Si8 0.500000 0.844464 0.157989
O O1 0.140341 0.500000 0.500000
O O2 0.235219 0.355719 0.519687
O O3 0.234354 0.401817 0.430403
O O4 0.000000 0.377169 0.474866
O O5 0.243240 0.250000 0.675240
O O6 0.368279 0.120814 0.700459
O O7 0.351571 0.161432 0.606844
O O8 0.137225 0.117417 0.644550
O O9 0.500000 0.250000 0.266651
O O10 0.750000 0.250000 0.250000
O O11 0.654608 0.160662 0.313908
O O12 0.500000 0.048421 0.279894
O O13 0.750000 0.052557 0.250000
O O14 0.673201 0.024156 0.349461
O O15 0.500000 0.750000 0.290638
O O16 0.500000 0.849082 0.217511
O O17 0.864482 0.530011 0.060821
O O18 0.000000 0.651386 0.028815
O O19 0.500000 0.411237 0.406614
O O20 0.500000 0.750000 0.139200
#
# Coordination Sequence:
#
# PCOD9535597 Si02
#       8
#    16  16   8  16   8  16  16   8
#     4   9  18  32  52  76  94 119 161 208 245 289
#     4  10  19  31  49  71  95 128 167 206 252 298
#     4   8  14  26  46  72  96 126 164 194 224 270
#     4   9  17  30  50  75 104 134 164 196 234 284
#     4   9  16  30  48  66  89 122 168 211 237 286
#     4  10  19  32  51  71  97 127 167 207 248 295
#     4   9  18  33  52  72  99 131 165 200 244 289
#     4   9  18  30  46  68  93 124 164 209 255 288
#
# _framework density 22.797146000000001
#
# number of rings (size 3 to 8) (size 9 to 14) (size 15 to 20)
#    0.000    2.769    0.769    0.923    1.077    4.308 
#    0.000    1.538    1.692    0.000    0.000    0.000 
#    0.000    0.000    0.000    0.000    0.000    0.000 
#
# Total GULP energy -289671.786326 kJ/mol
# GULP energy per Si atom -5570.611275 kJ/mol
# Density = 2.274526 g / cm^3
# Si number density = 22.797146 Si / 1000 Ang^3
#
#
#
# Elastic Constant Matrix: (Units=GPa)
#
#
# Indices 1 2 3 4 5 6 
#
# 1 213.0261 12.9929 57.4427 0.0000 0.0000 0.0000
# 2 12.9929 26.9680 -3.2359 0.0000 0.0000 0.0000
# 3 57.4427 -3.2359 96.7360 0.0000 0.0000 0.0000
# 4 0.0000 0.0000 0.0000 36.2512 0.0000 0.0000
# 5 0.0000 0.0000 0.0000 0.0000 29.8300 0.0000
# 6 0.0000 0.0000 0.0000 0.0000 0.0000 14.8533
#
#
#
# Elastic Compliance Matrix: (Units=1/GPa)
#
#
# Indices 1 2 3 4 5 6 
#
# 1 0.005860 -0.003254 -0.003589 0.000000 0.000000 0.000000
# 2 -0.003254 0.039037 0.003238 0.000000 0.000000 0.000000
# 3 -0.003589 0.003238 0.012577 0.000000 0.000000 0.000000
# 4 0.000000 0.000000 0.000000 0.027585 0.000000 0.000000
# 5 0.000000 0.000000 0.000000 0.000000 0.033523 0.000000
# 6 0.000000 0.000000 0.000000 0.000000 0.000000 0.067325
#
#
# Mechanical properties :
#
#
# Convention : Reuss Voigt Hill
#
# Bulk Modulus (GPa) = 19.89456 52.34772 36.12114
# Shear Modulus (GPa) = 23.82395 34.15561 28.98978
#
# Velocity S-wave (km/s) = 3.23622 3.87491 3.56988
# Velocity P-wave (km/s) = 4.76549 6.55989 5.73332
#
# Compressibility (1/GPa) = 0.05026500
#
# Stress axis : x y z
#
# Youngs Moduli (GPa) = 170.63466 25.61648 79.51134
#
# Poissons Ratio (x) = 0.08336 0.28535
# Poissons Ratio (y) = 0.55527 -0.25747
# Poissons Ratio (z) = 0.61238 -0.08295
#
# Static dielectric constant tensor:
#      x y z
#    x 1.884980 0.000000 0.000000 
#    y 0.000000 2.046860 0.000000 
#    z 0.000000 0.000000 1.806440 
# 
# From -- ./inp_files/64537.got.cif
#   From: 2010.05.17/outbox.cif.g08.bks.cpg/sg74_33_cif.got.tgz:64537.got - 2010.06.03 17:57:02.
