data_PCOD9535779
_publ_section_title
;
Structure prediction by ZEFSAII (Michael W. Deem and Ramdas Pophale) SiO2 
 PCOD9535779
Probable space group: I M M A
;
_chemical_formula_sum "Si O2"
_cell_formula_units_Z 88
_cell_length_a 7.463278
_cell_length_b 28.520027
_cell_length_c 18.658574
_cell_angle_alpha 90.000000
_cell_angle_beta 90.000000
_cell_angle_gamma 90.000000
_cell_volume 3971.531400
_symmetry_space_group_name_H-M "I M M A"
_symmetry_group_IT_number 74
_symmetry_cell_setting 'orthorhombic'
loop_
_space_group_symop_operation_xyz
x,y,z
-x,1/2-y,z
x,-y,-z
-x,1/2+y,-z
-x,-y,-z
x,1/2+y,-z
-x,y,z
x,1/2-y,z
1/2+x,1/2+y,1/2+z
1/2-x,-y,1/2+z
1/2+x,1/2-y,1/2-z
1/2-x,y,1/2-z
1/2-x,1/2-y,1/2-z
1/2+x,y,1/2-z
1/2-x,1/2+y,1/2+z
1/2+x,-y,1/2+z
loop_
_atom_site_type_symbol
_atom_site_label
_atom_site_fract_x
_atom_site_fract_y
_atom_site_fract_z
Si Si1 0.780405 0.405253 0.613830
Si Si2 0.713608 0.750000 0.667112
Si Si3 0.215835 0.669422 0.934415
Si Si4 0.285752 0.501057 0.829042
Si Si5 0.289183 0.302036 0.902513
Si Si6 0.705307 0.566094 0.955661
O O1 0.724442 0.446982 0.666114
O O2 0.717897 0.351887 0.627992
O O3 0.719477 0.423894 0.535125
O O4 0.000000 0.402712 0.611740
O O5 0.500000 0.750000 0.656527
O O6 0.750000 0.750000 0.750000
O O7 0.780810 0.795668 0.626422
O O8 0.290428 0.617839 0.922607
O O9 0.000000 0.666275 0.934563
O O10 0.270795 0.689766 0.011887
O O11 0.500000 0.500809 0.836943
O O12 0.250000 0.520733 0.750000
O O13 0.215395 0.530436 0.897435
O O14 0.500000 0.300374 0.884955
O O15 0.214649 0.250000 0.884705
O O16 0.500000 0.551293 0.968179
#
# Coordination Sequence:
#
# PCOD9535779 Si02
#       6
#    16   8  16  16  16  16
#     4   8  15  30  52  76  98 126 165 206 246 287
#     4  10  22  34  44  60  88 128 165 194 233 286
#     4  10  19  32  47  68  97 124 154 198 249 293
#     4  10  20  34  52  72 100 133 165 205 250 299
#     4   9  16  28  51  78  98 120 157 202 243 287
#     4   9  18  33  53  74  93 124 170 210 243 284
#
# _framework density 22.157699999999998
#
# number of rings (size 3 to 8) (size 9 to 14) (size 15 to 20)
#    0.000    2.727    0.909    2.182    0.000    5.091 
#    0.000    7.273    0.000    6.000    0.000    0.000 
#    0.000    0.000    0.000    0.000    0.000    0.000 
#
# Total GULP energy -245296.849620 kJ/mol
# GULP energy per Si atom -5574.928400 kJ/mol
# Density = 2.210727 g / cm^3
# Si number density = 22.157700 Si / 1000 Ang^3
#
#
#
# Elastic Constant Matrix: (Units=GPa)
#
#
# Indices 1 2 3 4 5 6 
#
# 1 70.6199 4.4846 -6.9422 0.0000 0.0000 0.0000
# 2 4.4846 151.4613 19.6890 0.0000 0.0000 0.0000
# 3 -6.9422 19.6890 21.9960 -0.0001 0.0000 0.0000
# 4 0.0000 0.0000 -0.0001 8.4210 0.0000 0.0000
# 5 0.0000 0.0000 0.0000 0.0000 4.8561 0.0000
# 6 0.0000 0.0000 0.0000 0.0000 0.0000 2.2343
#
#
#
# Elastic Compliance Matrix: (Units=1/GPa)
#
#
# Indices 1 2 3 4 5 6 
#
# 1 0.014799 -0.001183 0.005730 0.000000 0.000000 0.000000
# 2 -0.001183 0.007566 -0.007146 0.000000 0.000000 0.000000
# 3 0.005730 -0.007146 0.053668 0.000000 0.000000 0.000000
# 4 0.000000 0.000000 0.000000 0.118750 0.000000 0.000000
# 5 0.000000 0.000000 0.000000 0.000000 0.205925 0.000000
# 6 0.000000 0.000000 0.000000 0.000000 0.000000 0.447571
#
#
# Mechanical properties :
#
#
# Convention : Reuss Voigt Hill
#
# Bulk Modulus (GPa) = 14.11759 30.94890 22.53324
# Shear Modulus (GPa) = 5.70067 18.22535 11.96301
#
# Velocity S-wave (km/s) = 1.60573 2.87109 2.32610
# Velocity P-wave (km/s) = 3.13418 4.99887 4.17204
#
# Compressibility (1/GPa) = 0.07083361
#
# Stress axis : x y z
#
# Youngs Moduli (GPa) = 67.57361 132.16468 18.63319
#
# Poissons Ratio (x) = 0.15635 -0.10676
# Poissons Ratio (y) = 0.07994 0.13315
# Poissons Ratio (z) = -0.38717 0.94446
#
# Static dielectric constant tensor:
#      x y z
#    x 1.698570 0.000000 0.000000 
#    y 0.000000 1.846720 0.000000 
#    z 0.000000 0.000000 1.752830 
# 
# From -- ./inp_files/40087.got.cif
#   From: 2010.05.17/outbox.cif.g08.bks.cpg/sg74_21_cif.got.tgz:40087.got - 2010.06.03 17:57:02.
