data_PCOD9535663
_publ_section_title
;
Structure prediction by ZEFSAII (Michael W. Deem and Ramdas Pophale) SiO2 
 PCOD9535663
Probable space group: I M M A
;
_chemical_formula_sum "Si O2"
_cell_formula_units_Z 48
_cell_length_a 8.642517
_cell_length_b 32.676932
_cell_length_c 9.233054
_cell_angle_alpha 90.000000
_cell_angle_beta 90.000000
_cell_angle_gamma 90.000000
_cell_volume 2607.515462
_symmetry_space_group_name_H-M "I M M A"
_symmetry_group_IT_number 74
_symmetry_cell_setting 'orthorhombic'
loop_
_space_group_symop_operation_xyz
x,y,z
-x,1/2-y,z
x,-y,-z
-x,1/2+y,-z
-x,-y,-z
x,1/2+y,-z
-x,y,z
x,1/2-y,z
1/2+x,1/2+y,1/2+z
1/2-x,-y,1/2+z
1/2+x,1/2-y,1/2-z
1/2-x,y,1/2-z
1/2-x,1/2-y,1/2-z
1/2+x,y,1/2-z
1/2-x,1/2+y,1/2+z
1/2+x,-y,1/2+z
loop_
_atom_site_type_symbol
_atom_site_label
_atom_site_fract_x
_atom_site_fract_y
_atom_site_fract_z
Si Si1 0.185514 0.294594 0.585502
Si Si2 0.814466 0.879208 0.086625
Si Si3 0.313140 0.959864 0.588369
O O1 0.226452 0.250000 0.520485
O O2 0.250000 0.293881 0.750000
O O3 0.254317 0.336222 0.521574
O O4 0.000000 0.297687 0.590337
O O5 0.750000 0.883135 0.250000
O O6 0.000000 0.877889 0.094030
O O7 0.765222 0.918448 0.993986
O O8 0.500000 0.960220 0.592831
O O9 0.250000 0.960910 0.750000
O O10 0.262062 0.000000 0.500000
#
# Coordination Sequence:
#
# PCOD9535663 Si02
#       3
#    16  16  16
#     4   9  16  26  43  69 100 133 168 206 248 293
#     4  10  19  31  50  76 104 134 169 208 250 297
#     4  10  22  38  55  77 103 132 168 207 250 301
#
# _framework density 18.408328000000001
#
# number of rings (size 3 to 8) (size 9 to 14) (size 15 to 20)
#    0.000    2.333    0.000    5.000    0.000    5.333 
#    0.000    0.000    0.000    1.000    0.000    0.000 
#    0.000    0.000    0.000    0.000    0.000    0.000 
#
# Total GULP energy -133824.943886 kJ/mol
# GULP energy per Si atom -5576.039329 kJ/mol
# Density = 1.836643 g / cm^3
# Si number density = 18.408328 Si / 1000 Ang^3
#
#
#
# Elastic Constant Matrix: (Units=GPa)
#
#
# Indices 1 2 3 4 5 6 
#
# 1 43.1028 49.7610 19.9166 -0.0003 0.0000 0.0000
# 2 49.7610 242.5700 80.2805 -0.0004 0.0000 0.0000
# 3 19.9166 80.2805 78.2250 -0.0011 0.0000 0.0000
# 4 -0.0003 -0.0004 -0.0011 25.1927 0.0000 0.0000
# 5 0.0000 0.0000 0.0000 0.0000 22.5961 -0.0002
# 6 0.0000 0.0000 0.0000 0.0000 -0.0002 29.4610
#
#
#
# Elastic Compliance Matrix: (Units=1/GPa)
#
#
# Indices 1 2 3 4 5 6 
#
# 1 0.030614 -0.005604 -0.002043 0.000000 0.000000 0.000000
# 2 -0.005604 0.007269 -0.006033 0.000000 0.000000 0.000000
# 3 -0.002043 -0.006033 0.019495 0.000001 0.000000 0.000000
# 4 0.000000 0.000000 0.000001 0.039694 0.000000 0.000000
# 5 0.000000 0.000000 0.000000 0.000000 0.044255 0.000000
# 6 0.000000 0.000000 0.000000 0.000000 0.000000 0.033943
#
#
# Mechanical properties :
#
#
# Convention : Reuss Voigt Hill
#
# Bulk Modulus (GPa) = 33.31365 73.75712 53.53538
# Shear Modulus (GPa) = 23.51420 29.71261 26.61340
#
# Velocity S-wave (km/s) = 3.57791 4.02193 3.80640
# Velocity P-wave (km/s) = 5.93337 7.85634 6.96157
#
# Compressibility (1/GPa) = 0.03001773
#
# Stress axis : x y z
#
# Youngs Moduli (GPa) = 32.66461 137.57463 51.29416
#
# Poissons Ratio (x) = 0.77096 0.10481
# Poissons Ratio (y) = 0.18305 0.30946
# Poissons Ratio (z) = 0.06675 0.82998
#
# Static dielectric constant tensor:
#      x y z
#    x 1.624540 0.000000 0.000000 
#    y 0.000000 1.699220 0.000000 
#    z 0.000000 0.000000 1.594090 
# 
# From -- ./inp_files/6041.got.cif
#   From: 2010.05.17/outbox.cif.g08.bks.cpg/sg74_4_cif.got.tgz:6041.got - 2010.06.03 17:57:02.
