data_PCOD9535418
_publ_section_title
;
Structure prediction by ZEFSAII (Michael W. Deem and Ramdas Pophale) SiO2 
 PCOD9535418
Probable space group: I M M A
;
_chemical_formula_sum "Si O2"
_cell_formula_units_Z 96
_cell_length_a 25.958521
_cell_length_b 8.926401
_cell_length_c 25.695277
_cell_angle_alpha 90.000000
_cell_angle_beta 90.000000
_cell_angle_gamma 90.000000
_cell_volume 5954.011117
_symmetry_space_group_name_H-M "I M M A"
_symmetry_group_IT_number 74
_symmetry_cell_setting 'orthorhombic'
loop_
_space_group_symop_operation_xyz
x,y,z
-x,1/2-y,z
x,-y,-z
-x,1/2+y,-z
-x,-y,-z
x,1/2+y,-z
-x,y,z
x,1/2-y,z
1/2+x,1/2+y,1/2+z
1/2-x,-y,1/2+z
1/2+x,1/2-y,1/2-z
1/2-x,y,1/2-z
1/2-x,1/2-y,1/2-z
1/2+x,y,1/2-z
1/2-x,1/2+y,1/2+z
1/2+x,-y,1/2+z
loop_
_atom_site_type_symbol
_atom_site_label
_atom_site_fract_x
_atom_site_fract_y
_atom_site_fract_z
Si Si1 0.060782 0.071278 0.359316
Si Si2 0.440274 0.429901 0.357299
Si Si3 0.751760 0.929151 0.057673
Si Si4 0.636629 0.570997 0.057532
Si Si5 0.062536 0.921969 0.250977
Si Si6 0.355759 0.929870 0.557517
O O1 0.066044 0.250000 0.361311
O O2 0.000000 0.034732 0.365810
O O3 0.094388 0.995833 0.404088
O O4 0.077722 0.011210 0.302705
O O5 0.500000 0.473538 0.366757
O O6 0.439185 0.250000 0.351041
O O7 0.421930 0.503827 0.303471
O O8 0.403312 0.468883 0.405140
O O9 0.758724 0.750000 0.054839
O O10 0.694587 0.959804 0.079093
O O11 0.802509 0.004943 0.081225
O O12 0.750001 0.000000 0.000000
O O13 0.631250 0.750000 0.053098
O O14 0.632217 0.500000 0.000000
O O15 0.079477 0.750000 0.254236
O O16 0.000000 0.924076 0.250432
O O17 0.352035 0.750000 0.553009
O O18 0.362407 0.000000 0.500000
#
# Coordination Sequence:
#
# PCOD9535418 Si02
#       6
#    16  16  16  16  16  16
#     4  10  20  33  50  72  98 128 158 190 232 280
#     4   9  18  32  48  68  96 128 160 194 234 281
#     4   9  17  30  48  68  91 121 158 197 234 275
#     4  10  20  33  50  72  97 126 159 195 236 280
#     4   9  17  30  49  71  93 121 159 198 233 274
#     4  10  19  30  47  70  96 127 160 195 236 280
#
# _framework density 16.123584999999999
#
# number of rings (size 3 to 8) (size 9 to 14) (size 15 to 20)
#    0.000    2.500    0.000    3.500    0.000    7.000 
#    0.000    0.000    0.000    1.000    0.000    7.000 
#    0.000    0.000    0.000    0.000    0.000    0.000 
#
# Total GULP energy -267435.773907 kJ/mol
# GULP energy per Si atom -5571.578623 kJ/mol
# Density = 1.608689 g / cm^3
# Si number density = 16.123585 Si / 1000 Ang^3
#
#
#
# Elastic Constant Matrix: (Units=GPa)
#
#
# Indices 1 2 3 4 5 6 
#
# 1 102.5084 56.9547 70.0048 0.0000 0.0000 0.0000
# 2 56.9547 71.7275 51.9744 0.0000 0.0000 0.0000
# 3 70.0048 51.9744 105.3668 0.0000 0.0000 0.0000
# 4 0.0000 0.0000 0.0000 28.4797 0.0000 0.0000
# 5 0.0000 0.0000 0.0000 0.0000 -2.8712 0.0000
# 6 0.0000 0.0000 0.0000 0.0000 0.0000 24.5659
#
#
#
# Elastic Compliance Matrix: (Units=1/GPa)
#
#
# Indices 1 2 3 4 5 6 
#
# 1 0.022179 -0.010790 -0.009413 0.000000 0.000000 0.000000
# 2 -0.010790 0.026946 -0.006123 0.000000 0.000000 0.000000
# 3 -0.009413 -0.006123 0.018765 0.000000 0.000000 0.000000
# 4 0.000000 0.000000 0.000000 0.035113 0.000000 0.000000
# 5 0.000000 0.000000 0.000000 0.000000 -0.348281 0.000000
# 6 0.000000 0.000000 0.000000 0.000000 0.000000 0.040707
#
#
# Mechanical properties :
#
#
# Convention : Reuss Voigt Hill
#
# Bulk Modulus (GPa) = 65.62630 70.83004 68.22817
# Shear Modulus (GPa) = -34.05036 16.74614 -8.65211
#
# Velocity S-wave (km/s) = -4.60046 3.22625 -2.31900
# Velocity P-wave (km/s) = 3.54563 7.60940 5.93610
#
# Compressibility (1/GPa) = 0.01523779
#
# Stress axis : x y z
#
# Youngs Moduli (GPa) = 45.08868 37.11099 53.29169
#
# Poissons Ratio (x) = 0.40043 0.50162
# Poissons Ratio (y) = 0.48651 0.32630
# Poissons Ratio (z) = 0.42441 0.22723
#
# Static dielectric constant tensor:
#      x y z
#    x 1.562160 0.000000 0.000000 
#    y 0.000000 1.540360 0.000000 
#    z 0.000000 0.000000 1.513490 
# 
# From -- ./inp_files/49116.got.cif
#   From: 2010.05.17/outbox.cif.g08.bks.cpg/sg74_25_cif.got.tgz:49116.got - 2010.06.03 17:57:02.
