data_PCOD9535969
_publ_section_title
;
Structure prediction by ZEFSAII (Michael W. Deem and Ramdas Pophale) SiO2 
 PCOD9535969
Probable space group: I M M A
;
_chemical_formula_sum "Si O2"
_cell_formula_units_Z 112
_cell_length_a 15.709855
_cell_length_b 24.234309
_cell_length_c 14.700687
_cell_angle_alpha 90.000000
_cell_angle_beta 90.000000
_cell_angle_gamma 90.000000
_cell_volume 5596.808515
_symmetry_space_group_name_H-M "I M M A"
_symmetry_group_IT_number 74
_symmetry_cell_setting 'orthorhombic'
loop_
_space_group_symop_operation_xyz
x,y,z
-x,1/2-y,z
x,-y,-z
-x,1/2+y,-z
-x,-y,-z
x,1/2+y,-z
-x,y,z
x,1/2-y,z
1/2+x,1/2+y,1/2+z
1/2-x,-y,1/2+z
1/2+x,1/2-y,1/2-z
1/2-x,y,1/2-z
1/2-x,1/2-y,1/2-z
1/2+x,y,1/2-z
1/2-x,1/2+y,1/2+z
1/2+x,-y,1/2+z
loop_
_atom_site_type_symbol
_atom_site_label
_atom_site_fract_x
_atom_site_fract_y
_atom_site_fract_z
Si Si1 0.270808 0.750000 0.356476
Si Si2 0.088195 0.750000 0.455325
Si Si3 0.596692 0.421384 0.332712
Si Si4 0.770191 0.488229 0.857878
Si Si5 0.093599 0.463527 0.377272
Si Si6 0.149807 0.141913 0.481328
Si Si7 0.269999 0.868713 0.357387
Si Si8 0.203373 0.685534 0.847960
O O1 0.250000 0.750000 0.250000
O O2 0.177548 0.750000 0.402497
O O3 0.312772 0.809250 0.378943
O O4 0.091853 0.804417 0.515489
O O5 0.000000 0.750000 0.400111
O O6 0.500000 0.428940 0.364804
O O7 0.665899 0.461898 0.379203
O O8 0.599127 0.440042 0.226335
O O9 0.626424 0.358078 0.342039
O O10 0.750000 0.488676 0.750000
O O11 0.675876 0.498966 0.896399
O O12 0.809450 0.428310 0.879897
O O13 0.104075 0.410412 0.440305
O O14 0.000000 0.489483 0.388046
O O15 0.184255 0.131075 0.582763
O O16 0.230992 0.159655 0.420533
O O17 0.250000 0.868558 0.250000
O O18 0.184061 0.750000 0.869482
O O19 0.250000 0.684630 0.750000
#
# Coordination Sequence:
#
# PCOD9535969 Si02
#       8
#     8   8  16  16  16  16  16  16
#     4   8  16  34  56  77 102 137 186 225 276 342
#     4  10  20  32  49  83 120 151 186 229 278 344
#     4  10  19  34  56  79 111 154 194 236 281 329
#     4   9  17  34  54  76 111 147 187 230 280 339
#     4  10  19  32  52  81 118 153 183 228 286 343
#     4  11  19  33  53  79 117 153 183 232 281 335
#     4   9  19  34  57  81 105 144 187 229 278 341
#     4  11  20  34  54  80 117 154 192 228 275 338
#
# _framework density 20.011405
#
# number of rings (size 3 to 8) (size 9 to 14) (size 15 to 20)
#    0.000    2.143    3.571    0.857    0.000    0.857 
#    0.000    4.286    0.000   13.714    0.000    7.000 
#    0.000    0.000    0.000    0.000    0.000    0.000 
#
# Total GULP energy -311900.280744 kJ/mol
# GULP energy per Si atom -5569.647870 kJ/mol
# Density = 1.996586 g / cm^3
# Si number density = 20.011405 Si / 1000 Ang^3
#
#
#
# Elastic Constant Matrix: (Units=GPa)
#
#
# Indices 1 2 3 4 5 6 
#
# 1 95.1912 50.2206 20.6560 0.0000 0.0000 0.0000
# 2 50.2206 158.6996 0.2169 0.0000 0.0000 0.0002
# 3 20.6560 0.2169 54.7930 0.0000 0.0000 0.0002
# 4 0.0000 0.0000 0.0000 16.8106 0.0000 0.0003
# 5 0.0000 0.0000 0.0000 0.0000 3.4504 0.0001
# 6 0.0000 0.0002 0.0002 0.0003 0.0001 260.4068
#
#
#
# Elastic Compliance Matrix: (Units=1/GPa)
#
#
# Indices 1 2 3 4 5 6 
#
# 1 0.013974 -0.004415 -0.005250 0.000000 0.000000 0.000000
# 2 -0.004415 0.007696 0.001634 0.000000 0.000000 0.000000
# 3 -0.005250 0.001634 0.020223 0.000000 0.000000 0.000000
# 4 0.000000 0.000000 0.000000 0.059486 0.000000 0.000000
# 5 0.000000 0.000000 0.000000 0.000000 0.289822 0.000000
# 6 0.000000 0.000000 0.000000 0.000000 0.000000 0.003840
#
#
# Mechanical properties :
#
#
# Convention : Reuss Voigt Hill
#
# Bulk Modulus (GPa) = 38.71407 50.09676 44.40542
# Shear Modulus (GPa) = 11.91288 71.97290 41.94289
#
# Velocity S-wave (km/s) = 2.44253 6.00367 4.58312
# Velocity P-wave (km/s) = 5.22902 8.55261 7.08836
#
# Compressibility (1/GPa) = 0.02583040
#
# Stress axis : x y z
#
# Youngs Moduli (GPa) = 71.56353 129.93690 49.44789
#
# Poissons Ratio (x) = 0.57364 0.25962
# Poissons Ratio (y) = 0.31594 -0.08079
# Poissons Ratio (z) = 0.37573 -0.21230
#
# Static dielectric constant tensor:
#      x y z
#    x 1.654810 0.000000 0.000000 
#    y 0.000000 1.775160 0.000000 
#    z 0.000000 0.000000 1.866720 
# 
# From -- ./inp_files/32999.got.cif
#   From: 2010.05.17/outbox.cif.g08.bks.cpg/sg74_17_cif.got.tgz:32999.got - 2010.06.03 17:57:02.
