data_PCOD9535535
_publ_section_title
;
Structure prediction by ZEFSAII (Michael W. Deem and Ramdas Pophale) SiO2 
 PCOD9535535
Probable space group: I M M A
;
_chemical_formula_sum "Si O2"
_cell_formula_units_Z 88
_cell_length_a 7.780818
_cell_length_b 21.303104
_cell_length_c 27.695933
_cell_angle_alpha 90.000000
_cell_angle_beta 90.000000
_cell_angle_gamma 90.000000
_cell_volume 4590.755301
_symmetry_space_group_name_H-M "I M M A"
_symmetry_group_IT_number 74
_symmetry_cell_setting 'orthorhombic'
loop_
_space_group_symop_operation_xyz
x,y,z
-x,1/2-y,z
x,-y,-z
-x,1/2+y,-z
-x,-y,-z
x,1/2+y,-z
-x,y,z
x,1/2-y,z
1/2+x,1/2+y,1/2+z
1/2-x,-y,1/2+z
1/2+x,1/2-y,1/2-z
1/2-x,y,1/2-z
1/2-x,1/2-y,1/2-z
1/2+x,y,1/2-z
1/2-x,1/2+y,1/2+z
1/2+x,-y,1/2+z
loop_
_atom_site_type_symbol
_atom_site_label
_atom_site_fract_x
_atom_site_fract_y
_atom_site_fract_z
Si Si1 0.198446 0.250000 0.039844
Si Si2 0.207413 0.613298 0.806346
Si Si3 0.704466 0.520543 0.613021
Si Si4 0.790991 0.886562 0.968510
Si Si5 0.706146 0.250000 0.306917
Si Si6 0.702459 0.386270 0.918617
Si Si7 0.210710 0.750000 0.427615
O O1 0.270891 0.318760 0.051854
O O2 0.000000 0.250000 0.056378
O O3 0.211215 0.250000 0.981450
O O4 0.250000 0.605589 0.750000
O O5 0.272018 0.557285 0.840157
O O6 0.269916 0.682131 0.824347
O O7 0.000000 0.614861 0.809180
O O8 0.500000 0.529838 0.612729
O O9 0.769362 0.556857 0.565286
O O10 0.731969 0.446653 0.609495
O O11 0.000000 0.884546 0.968340
O O12 0.739253 0.894182 0.024167
O O13 0.500000 0.250000 0.313122
O O14 0.750000 0.250000 0.250000
O O15 0.500000 0.385808 0.912075
O O16 0.765132 0.316277 0.904796
O O17 0.000000 0.750000 0.432229
#
# Coordination Sequence:
#
# PCOD9535535 Si02
#       7
#     8  16  16  16   8  16   8
#     4   8  14  25  42  62  83 116 158 188 213 249
#     4   9  18  32  49  68  91 119 152 189 225 262
#     4  10  20  31  44  66  94 121 148 182 226 269
#     4   9  17  29  44  63  91 123 153 186 220 257
#     4   8  14  27  47  67  87 116 152 187 222 257
#     4  10  19  31  47  66  89 118 151 185 221 264
#     4   8  16  30  45  61  84 114 147 183 221 260
#
# _framework density 19.168959000000001
#
# number of rings (size 3 to 8) (size 9 to 14) (size 15 to 20)
#    0.000    2.909    0.000    1.091    0.000    5.091 
#    0.000    3.636    0.000    0.000    0.000   14.636 
#    0.000    0.000    0.000    0.000    0.000    0.000 
#
# Total GULP energy -245099.692629 kJ/mol
# GULP energy per Si atom -5570.447560 kJ/mol
# Density = 1.912533 g / cm^3
# Si number density = 19.168959 Si / 1000 Ang^3
#
#
#
# Elastic Constant Matrix: (Units=GPa)
#
#
# Indices 1 2 3 4 5 6 
#
# 1 20.7241 1.0545 -1.8435 0.0000 0.0000 0.0000
# 2 1.0545 181.2442 58.7040 0.0000 0.0000 0.0000
# 3 -1.8435 58.7040 57.2117 0.0000 0.0000 0.0000
# 4 0.0000 0.0000 0.0000 100.8397 0.0000 0.0000
# 5 0.0000 0.0000 0.0000 0.0000 3.0095 0.0000
# 6 0.0000 0.0000 0.0000 0.0000 0.0000 18.3323
#
#
#
# Elastic Compliance Matrix: (Units=1/GPa)
#
#
# Indices 1 2 3 4 5 6 
#
# 1 0.048560 -0.001182 0.002778 0.000000 0.000000 0.000000
# 2 -0.001182 0.008293 -0.008547 0.000000 0.000000 0.000000
# 3 0.002778 -0.008547 0.026338 0.000000 0.000000 0.000000
# 4 0.000000 0.000000 0.000000 0.009917 0.000000 0.000000
# 5 0.000000 0.000000 0.000000 0.000000 0.332282 0.000000
# 6 0.000000 0.000000 0.000000 0.000000 0.000000 0.054549
#
#
# Mechanical properties :
#
#
# Convention : Reuss Voigt Hill
#
# Bulk Modulus (GPa) = 14.43246 41.66777 28.05012
# Shear Modulus (GPa) = 9.67235 37.85396 23.76316
#
# Velocity S-wave (km/s) = 2.24873 4.44864 3.52471
# Velocity P-wave (km/s) = 3.77992 6.94057 5.58835
#
# Compressibility (1/GPa) = 0.06928826
#
# Stress axis : x y z
#
# Youngs Moduli (GPa) = 20.59302 120.58886 37.96729
#
# Poissons Ratio (x) = 0.14256 -0.10547
# Poissons Ratio (y) = 0.02435 0.32451
# Poissons Ratio (z) = -0.05720 1.03068
#
# Static dielectric constant tensor:
#      x y z
#    x 1.718340 0.000000 0.000000 
#    y 0.000000 1.752340 0.000000 
#    z 0.000000 0.000000 1.637300 
# 
# From -- ./inp_files/70510.got.cif
#   From: 2010.05.17/outbox.cif.g08.bks.cpg/sg74_36_cif.got.tgz:70510.got - 2010.06.03 17:57:02.
