data_PCOD9535192
_publ_section_title
;
Structure prediction by ZEFSAII (Michael W. Deem and Ramdas Pophale) SiO2 
 PCOD9535192
Probable space group: I M M A
;
_chemical_formula_sum "Si O2"
_cell_formula_units_Z 96
_cell_length_a 31.106508
_cell_length_b 14.201515
_cell_length_c 9.028353
_cell_angle_alpha 90.000000
_cell_angle_beta 90.000000
_cell_angle_gamma 90.000000
_cell_volume 3988.361068
_symmetry_space_group_name_H-M "I M M A"
_symmetry_group_IT_number 74
_symmetry_cell_setting 'orthorhombic'
loop_
_space_group_symop_operation_xyz
x,y,z
-x,1/2-y,z
x,-y,-z
-x,1/2+y,-z
-x,-y,-z
x,1/2+y,-z
-x,y,z
x,1/2-y,z
1/2+x,1/2+y,1/2+z
1/2-x,-y,1/2+z
1/2+x,1/2-y,1/2-z
1/2-x,y,1/2-z
1/2-x,1/2-y,1/2-z
1/2+x,y,1/2-z
1/2-x,1/2+y,1/2+z
1/2+x,-y,1/2+z
loop_
_atom_site_type_symbol
_atom_site_label
_atom_site_fract_x
_atom_site_fract_y
_atom_site_fract_z
Si Si1 0.358706 0.441692 0.331146
Si Si2 0.047045 0.635888 0.435890
Si Si3 0.321326 0.859581 0.968074
Si Si4 0.124293 0.143556 0.766988
Si Si5 0.769352 0.855877 0.916353
Si Si6 0.450317 0.864133 0.723112
O O1 0.346338 0.418948 0.156356
O O2 0.362105 0.552935 0.357133
O O3 0.315226 0.402729 0.404900
O O4 0.406459 0.398236 0.356392
O O5 0.047621 0.750000 0.446034
O O6 0.078868 0.615077 0.304138
O O7 0.055606 0.605007 0.604216
O O8 0.000000 0.603038 0.395251
O O9 0.319588 0.750000 0.912036
O O10 0.272618 0.892972 0.001284
O O11 0.345835 0.854568 0.121802
O O12 0.123293 0.250000 0.830403
O O13 0.776755 0.750000 0.970726
O O14 0.750000 0.855058 0.750000
O O15 0.500000 0.890935 0.678774
O O16 0.449601 0.750000 0.717962
#
# Coordination Sequence:
#
# PCOD9535192 Si02
#       6
#    16  16  16  16  16  16
#     4  11  17  24  39  56  71  96 128 157 188 224
#     4   8  14  24  34  45  68 100 127 152 182 213
#     4   9  16  27  40  55  72  88 116 159 199 231
#     4  10  19  27  36  53  76 100 129 164 191 215
#     4   8  15  26  41  56  69  88 117 157 197 231
#     4   9  16  24  35  53  76  98 122 157 194 223
#
# _framework density 24.070039000000001
#
# number of rings (size 3 to 8) (size 9 to 14) (size 15 to 20)
#    0.000    2.833    1.667    4.000    0.000    0.667 
#    0.000    1.667    0.000    4.500    0.000    0.000 
#    0.000    0.000    0.000    0.000    0.000   31.667 
#
# Total GULP energy -267871.974248 kJ/mol
# GULP energy per Si atom -5580.666130 kJ/mol
# Density = 2.401525 g / cm^3
# Si number density = 24.070039 Si / 1000 Ang^3
#
#
#
# Elastic Constant Matrix: (Units=GPa)
#
#
# Indices 1 2 3 4 5 6 
#
# 1 225.8649 61.2750 35.1127 0.0000 0.0000 0.0000
# 2 61.2750 134.1350 7.6632 0.0000 0.0000 0.0000
# 3 35.1127 7.6632 19.3672 0.0000 0.0000 0.0000
# 4 0.0000 0.0000 0.0000 12.4104 0.0000 0.0000
# 5 0.0000 0.0000 0.0000 0.0000 0.8492 0.0000
# 6 0.0000 0.0000 0.0000 0.0000 0.0000 -371.8265
#
#
#
# Elastic Compliance Matrix: (Units=1/GPa)
#
#
# Indices 1 2 3 4 5 6 
#
# 1 0.006893 -0.002491 -0.011511 0.000000 0.000000 0.000000
# 2 -0.002491 0.008528 0.001142 0.000000 0.000000 0.000000
# 3 -0.011511 0.001142 0.072051 0.000000 0.000000 0.000000
# 4 0.000000 0.000000 0.000000 0.080578 0.000000 0.000000
# 5 0.000000 0.000000 0.000000 0.000000 1.177631 0.000000
# 6 0.000000 0.000000 0.000000 0.000000 0.000000 -0.002689
#
#
# Mechanical properties :
#
#
# Convention : Reuss Voigt Hill
#
# Bulk Modulus (GPa) = 16.19386 65.27432 40.73409
# Shear Modulus (GPa) = 3.59895 -53.35898 -24.88002
#
# Velocity S-wave (km/s) = 1.22411 -4.71342 -3.21853
# Velocity P-wave (km/s) = 2.95641 1.56346 1.77425
#
# Compressibility (1/GPa) = 0.06175182
#
# Stress axis : x y z
#
# Youngs Moduli (GPa) = 145.08134 117.26221 13.87908
#
# Poissons Ratio (x) = 0.29211 0.15976
# Poissons Ratio (y) = 0.36141 -0.01585
# Poissons Ratio (z) = 1.67000 -0.13392
#
# Static dielectric constant tensor:
#      x y z
#    x 1.970720 0.000000 0.000000 
#    y 0.000000 1.993230 0.000000 
#    z 0.000000 0.000000 2.018820 
# 
# From -- ./inp_files/33083.got.cif
#   From: 2010.05.17/outbox.cif.g08.bks.cpg/sg74_17_cif.got.tgz:33083.got - 2010.06.03 17:57:02.
