data_PCOD9535559
_publ_section_title
;
Structure prediction by ZEFSAII (Michael W. Deem and Ramdas Pophale) SiO2 
 PCOD9535559
Probable space group: I M M A
;
_chemical_formula_sum "Si O2"
_cell_formula_units_Z 96
_cell_length_a 26.092543
_cell_length_b 23.242976
_cell_length_c 9.880870
_cell_angle_alpha 90.000000
_cell_angle_beta 90.000000
_cell_angle_gamma 90.000000
_cell_volume 5992.434933
_symmetry_space_group_name_H-M "I M M A"
_symmetry_group_IT_number 74
_symmetry_cell_setting 'orthorhombic'
loop_
_space_group_symop_operation_xyz
x,y,z
-x,1/2-y,z
x,-y,-z
-x,1/2+y,-z
-x,-y,-z
x,1/2+y,-z
-x,y,z
x,1/2-y,z
1/2+x,1/2+y,1/2+z
1/2-x,-y,1/2+z
1/2+x,1/2-y,1/2-z
1/2-x,y,1/2-z
1/2-x,1/2-y,1/2-z
1/2+x,y,1/2-z
1/2-x,1/2+y,1/2+z
1/2+x,-y,1/2+z
loop_
_atom_site_type_symbol
_atom_site_label
_atom_site_fract_x
_atom_site_fract_y
_atom_site_fract_z
Si Si1 0.675789 0.750000 0.385232
Si Si2 0.856422 0.564611 0.283492
Si Si3 0.441859 0.569739 0.002952
Si Si4 0.834966 0.373453 0.994321
Si Si5 0.712021 0.876725 0.994754
Si Si6 0.139112 0.426542 0.276765
Si Si7 0.799476 0.250000 0.580546
O O1 0.655347 0.693081 0.457493
O O2 0.737882 0.750000 0.396406
O O3 0.669823 0.750000 0.222466
O O4 0.906899 0.583836 0.367107
O O5 0.852637 0.590768 0.135598
O O6 0.809713 0.588234 0.375914
O O7 0.856633 0.495676 0.271829
O O8 0.500000 0.591148 0.008415
O O9 0.443577 0.500000 0.000000
O O10 0.410415 0.587751 0.869296
O O11 0.773240 0.378885 0.007485
O O12 0.860225 0.397381 0.130566
O O13 0.687615 0.904263 0.862041
O O14 0.692276 0.810797 0.007162
#
# Coordination Sequence:
#
# PCOD9535559 Si02
#       7
#     8  16  16  16  16  16   8
#     4   9  18  31  47  65  92 132 175 204 231 263
#     4  10  19  31  49  73  99 130 164 194 238 297
#     4   8  16  34  54  69  92 124 159 201 241 285
#     4  11  20  31  47  71 103 133 162 200 236 280
#     4  10  19  31  48  68  99 138 169 197 229 274
#     4  10  21  31  45  76 104 126 159 194 246 302
#     4   9  16  31  49  65  86 132 185 206 217 263
#
# _framework density 16.020198000000001
#
# number of rings (size 3 to 8) (size 9 to 14) (size 15 to 20)
#    0.000    2.333    1.667    3.000    0.000    4.667 
#    0.000    3.333    0.000    4.000    0.000   22.167 
#    0.000    0.000    0.000    0.000    0.000    0.000 
#
# Total GULP energy -267499.673540 kJ/mol
# GULP energy per Si atom -5572.909865 kJ/mol
# Density = 1.598374 g / cm^3
# Si number density = 16.020198 Si / 1000 Ang^3
#
#
#
# Elastic Constant Matrix: (Units=GPa)
#
#
# Indices 1 2 3 4 5 6 
#
# 1 79.2272 28.2382 42.4096 0.0000 0.0000 0.0000
# 2 28.2382 105.3615 58.7079 0.0000 0.0000 0.0000
# 3 42.4096 58.7079 145.5214 0.0000 0.0000 0.0000
# 4 0.0000 0.0000 0.0000 -18.7606 0.0000 0.0000
# 5 0.0000 0.0000 0.0000 0.0000 1.6672 0.0000
# 6 0.0000 0.0000 0.0000 0.0000 0.0000 -11.9791
#
#
#
# Elastic Compliance Matrix: (Units=1/GPa)
#
#
# Indices 1 2 3 4 5 6 
#
# 1 0.015302 -0.002085 -0.003618 0.000000 0.000000 0.000000
# 2 -0.002085 0.012527 -0.004446 0.000000 0.000000 0.000000
# 3 -0.003618 -0.004446 0.009720 0.000000 0.000000 0.000000
# 4 0.000000 0.000000 0.000000 -0.053303 0.000000 0.000000
# 5 0.000000 0.000000 0.000000 0.000000 0.599795 0.000000
# 6 0.000000 0.000000 0.000000 0.000000 0.000000 -0.083479
#
#
# Mechanical properties :
#
#
# Convention : Reuss Voigt Hill
#
# Bulk Modulus (GPa) = 57.97022 65.42461 61.69741
# Shear Modulus (GPa) = 9.49467 7.56915 8.53191
#
# Velocity S-wave (km/s) = 2.43712 2.17601 2.31026
# Velocity P-wave (km/s) = 6.64708 6.87320 6.76108
#
# Compressibility (1/GPa) = 0.01725024
#
# Stress axis : x y z
#
# Youngs Moduli (GPa) = 65.35128 79.82471 102.87925
#
# Poissons Ratio (x) = 0.16643 0.37225
# Poissons Ratio (y) = 0.13625 0.45744
# Poissons Ratio (z) = 0.23646 0.35493
#
# Static dielectric constant tensor:
#      x y z
#    x 1.526940 0.000000 0.000000 
#    y 0.000000 1.563150 0.000000 
#    z 0.000000 0.000000 1.533370 
# 
# From -- ./inp_files/14095.got.cif
#   From: 2010.05.17/outbox.cif.g08.bks.cpg/sg74_8_cif.got.tgz:14095.got - 2010.06.03 17:57:02.
