data_PCOD9535746
_publ_section_title
;
Structure prediction by ZEFSAII (Michael W. Deem and Ramdas Pophale) SiO2 
 PCOD9535746
Probable space group: I M M A
;
_chemical_formula_sum "Si O2"
_cell_formula_units_Z 80
_cell_length_a 23.543052
_cell_length_b 20.433849
_cell_length_c 9.027162
_cell_angle_alpha 90.000000
_cell_angle_beta 90.000000
_cell_angle_gamma 90.000000
_cell_volume 4342.743490
_symmetry_space_group_name_H-M "I M M A"
_symmetry_group_IT_number 74
_symmetry_cell_setting 'orthorhombic'
loop_
_space_group_symop_operation_xyz
x,y,z
-x,1/2-y,z
x,-y,-z
-x,1/2+y,-z
-x,-y,-z
x,1/2+y,-z
-x,y,z
x,1/2-y,z
1/2+x,1/2+y,1/2+z
1/2-x,-y,1/2+z
1/2+x,1/2-y,1/2-z
1/2-x,y,1/2-z
1/2-x,1/2-y,1/2-z
1/2+x,y,1/2-z
1/2-x,1/2+y,1/2+z
1/2+x,-y,1/2+z
loop_
_atom_site_type_symbol
_atom_site_label
_atom_site_fract_x
_atom_site_fract_y
_atom_site_fract_z
Si Si1 0.839629 0.392964 0.138048
Si Si2 0.738530 0.250000 0.922376
Si Si3 0.371871 0.485331 0.850281
Si Si4 0.312625 0.250000 0.318467
Si Si5 0.230714 0.107628 0.577718
Si Si6 0.063833 0.428861 0.921525
O O1 0.850124 0.451906 0.254471
O O2 0.837570 0.321394 0.212844
O O3 0.782153 0.405939 0.039137
O O4 0.891653 0.390741 0.023034
O O5 0.750000 0.250000 0.750000
O O6 0.710027 0.318853 0.959821
O O7 0.799219 0.250000 0.005271
O O8 0.319333 0.443974 0.915534
O O9 0.407969 0.441789 0.736991
O O10 0.406527 0.500000 0.000000
O O11 0.250000 0.250000 0.250000
O O12 0.250000 0.108638 0.750000
O O13 0.000000 0.402070 0.914141
O O14 0.060559 0.500000 0.000000
#
# Coordination Sequence:
#
# PCOD9535746 Si02
#       6
#    16   8  16   8  16  16
#     4  10  22  38  54  83 114 151 193 228 287 350
#     4   8  18  34  48  72 105 154 180 207 268 331
#     4  11  24  32  53  86 116 151 185 239 287 342
#     4  10  22  36  53  78 118 154 180 226 275 351
#     4  10  19  31  53  78 113 146 183 227 277 344
#     4   9  19  39  60  77 104 144 192 242 285 330
#
# _framework density 18.421534999999999
#
# number of rings (size 3 to 8) (size 9 to 14) (size 15 to 20)
#    0.000    2.200    2.000    0.000    8.400    0.400 
#    0.000    0.500    0.000    0.000    0.000    0.000 
#    0.000    0.000    0.000    0.000    0.000    0.000 
#
# Total GULP energy -222739.860212 kJ/mol
# GULP energy per Si atom -5568.496505 kJ/mol
# Density = 1.837961 g / cm^3
# Si number density = 18.421535 Si / 1000 Ang^3
#
#
#
# Elastic Constant Matrix: (Units=GPa)
#
#
# Indices 1 2 3 4 5 6 
#
# 1 99.5063 43.7118 39.0182 0.0000 0.0000 0.0000
# 2 43.7118 98.0072 24.0600 0.0000 0.0000 0.0000
# 3 39.0182 24.0600 122.3783 0.0000 0.0000 0.0000
# 4 0.0000 0.0000 0.0000 9.7231 0.0000 0.0000
# 5 0.0000 0.0000 0.0000 0.0000 -2.5486 0.0000
# 6 0.0000 0.0000 0.0000 0.0000 0.0000 2.8009
#
#
#
# Elastic Compliance Matrix: (Units=1/GPa)
#
#
# Indices 1 2 3 4 5 6 
#
# 1 0.013672 -0.005283 -0.003321 0.000000 0.000000 0.000000
# 2 -0.005283 0.012762 -0.000825 0.000000 0.000000 0.000000
# 3 -0.003321 -0.000825 0.009392 0.000000 0.000000 0.000000
# 4 0.000000 0.000000 0.000000 0.102848 0.000000 0.000000
# 5 0.000000 0.000000 0.000000 0.000000 -0.392367 0.000000
# 6 0.000000 0.000000 0.000000 0.000000 0.000000 0.357032
#
#
# Mechanical properties :
#
#
# Convention : Reuss Voigt Hill
#
# Bulk Modulus (GPa) = 58.92621 59.27464 59.10042
# Shear Modulus (GPa) = 39.10728 16.20184 27.65456
#
# Velocity S-wave (km/s) = 4.61250 2.96886 3.87875
# Velocity P-wave (km/s) = 7.77329 6.63316 7.22575
#
# Compressibility (1/GPa) = 0.01697038
#
# Stress axis : x y z
#
# Youngs Moduli (GPa) = 73.14047 78.35800 106.47095
#
# Poissons Ratio (x) = 0.41395 0.35355
# Poissons Ratio (y) = 0.38638 0.08781
# Poissons Ratio (z) = 0.24287 0.06462
#
# Static dielectric constant tensor:
#      x y z
#    x 1.629290 0.000000 0.000000 
#    y 0.000000 1.782590 0.000000 
#    z 0.000000 0.000000 1.744210 
# 
# From -- ./inp_files/12321.got.cif
#   From: 2010.05.17/outbox.cif.g08.bks.cpg/sg74_7_cif.got.tgz:12321.got - 2010.06.03 17:57:02.
