data_PCOD9535885
_publ_section_title
;
Structure prediction by ZEFSAII (Michael W. Deem and Ramdas Pophale) SiO2 
 PCOD9535885
Probable space group: I M M A
;
_chemical_formula_sum "Si O2"
_cell_formula_units_Z 72
_cell_length_a 8.528270
_cell_length_b 16.665751
_cell_length_c 28.116399
_cell_angle_alpha 90.000000
_cell_angle_beta 90.000000
_cell_angle_gamma 90.000000
_cell_volume 3996.184473
_symmetry_space_group_name_H-M "I M M A"
_symmetry_group_IT_number 74
_symmetry_cell_setting 'orthorhombic'
loop_
_space_group_symop_operation_xyz
x,y,z
-x,1/2-y,z
x,-y,-z
-x,1/2+y,-z
-x,-y,-z
x,1/2+y,-z
-x,y,z
x,1/2-y,z
1/2+x,1/2+y,1/2+z
1/2-x,-y,1/2+z
1/2+x,1/2-y,1/2-z
1/2-x,y,1/2-z
1/2-x,1/2-y,1/2-z
1/2+x,y,1/2-z
1/2-x,1/2+y,1/2+z
1/2+x,-y,1/2+z
loop_
_atom_site_type_symbol
_atom_site_label
_atom_site_fract_x
_atom_site_fract_y
_atom_site_fract_z
Si Si1 0.312887 0.750000 0.804518
Si Si2 0.190219 0.338121 0.607880
Si Si3 0.812324 0.564880 0.302296
Si Si4 0.686713 0.591167 0.643377
Si Si5 0.309966 0.998854 0.055125
O O1 0.500000 0.750000 0.802103
O O2 0.250000 0.750000 0.750000
O O3 0.256300 0.828432 0.833447
O O4 0.249732 0.250000 0.595271
O O5 0.228502 0.363259 0.661729
O O6 0.242336 0.412856 0.576077
O O7 0.000000 0.336284 0.604303
O O8 0.750000 0.578865 0.250000
O O9 0.740636 0.483609 0.324011
O O10 0.000000 0.555932 0.302164
O O11 0.500000 0.597090 0.643250
O O12 0.745288 0.567535 0.590305
O O13 0.500000 0.003136 0.057827
O O14 0.264384 0.000000 0.000000
#
# Coordination Sequence:
#
# PCOD9535885 Si02
#       5
#     8  16  16  16  16
#     4  12  24  40  60  84 116 150 188 234 287 340
#     4   8  15  29  49  73 103 137 176 221 264 312
#     4  10  19  32  51  75 104 140 180 220 268 323
#     4  11  22  37  56  80 111 146 186 228 277 332
#     4   9  18  35  57  81 109 143 186 231 279 331
#
# _framework density 18.017185999999999
#
# number of rings (size 3 to 8) (size 9 to 14) (size 15 to 20)
#    0.000    2.222    0.000    5.667    0.000    0.889 
#    2.000    0.000    0.000   16.000    0.000    0.000 
#    0.000    0.000    0.000    0.000    0.000    0.000 
#
# Total GULP energy -200811.519085 kJ/mol
# GULP energy per Si atom -5578.097752 kJ/mol
# Density = 1.797618 g / cm^3
# Si number density = 18.017186 Si / 1000 Ang^3
#
#
#
# Elastic Constant Matrix: (Units=GPa)
#
#
# Indices 1 2 3 4 5 6 
#
# 1 83.0956 36.3343 47.5752 0.0000 0.0000 0.0000
# 2 36.3343 126.3270 66.8566 0.0000 0.0000 0.0000
# 3 47.5752 66.8566 169.1704 0.0000 0.0000 0.0000
# 4 0.0000 0.0000 0.0000 14.8721 0.0000 0.0000
# 5 0.0000 0.0000 0.0000 0.0000 28.1849 0.0000
# 6 0.0000 0.0000 0.0000 0.0000 0.0000 12.5966
#
#
#
# Elastic Compliance Matrix: (Units=1/GPa)
#
#
# Indices 1 2 3 4 5 6 
#
# 1 0.015006 -0.002633 -0.003179 0.000000 0.000000 0.000000
# 2 -0.002633 0.010472 -0.003398 0.000000 0.000000 0.000000
# 3 -0.003179 -0.003398 0.008148 0.000000 0.000000 0.000000
# 4 0.000000 0.000000 0.000000 0.067240 0.000000 0.000000
# 5 0.000000 0.000000 0.000000 0.000000 0.035480 0.000000
# 6 0.000000 0.000000 0.000000 0.000000 0.000000 0.079386
#
#
# Mechanical properties :
#
#
# Convention : Reuss Voigt Hill
#
# Bulk Modulus (GPa) = 65.76940 75.56947 70.66943
# Shear Modulus (GPa) = 20.90111 26.31919 23.61015
#
# Velocity S-wave (km/s) = 3.40967 3.82617 3.62390
# Velocity P-wave (km/s) = 7.21693 7.84560 7.53782
#
# Compressibility (1/GPa) = 0.01520464
#
# Stress axis : x y z
#
# Youngs Moduli (GPa) = 66.63939 95.49601 122.72716
#
# Poissons Ratio (x) = 0.25148 0.39020
# Poissons Ratio (y) = 0.17549 0.41701
# Poissons Ratio (z) = 0.21187 0.32448
#
# Static dielectric constant tensor:
#      x y z
#    x 1.614530 0.000000 0.000000 
#    y 0.000000 1.608420 0.000000 
#    z 0.000000 0.000000 1.604360 
# 
# From -- ./inp_files/63604.got.cif
#   From: 2010.05.17/outbox.cif.g08.bks.cpg/sg74_32_cif.got.tgz:63604.got - 2010.06.03 17:57:02.
