data_PCOD9535415
_publ_section_title
;
Structure prediction by ZEFSAII (Michael W. Deem and Ramdas Pophale) SiO2 
 PCOD9535415
Probable space group: I M M A
;
_chemical_formula_sum "Si O2"
_cell_formula_units_Z 80
_cell_length_a 27.621291
_cell_length_b 18.133005
_cell_length_c 7.248068
_cell_angle_alpha 90.000000
_cell_angle_beta 90.000000
_cell_angle_gamma 90.000000
_cell_volume 3630.245651
_symmetry_space_group_name_H-M "I M M A"
_symmetry_group_IT_number 74
_symmetry_cell_setting 'orthorhombic'
loop_
_space_group_symop_operation_xyz
x,y,z
-x,1/2-y,z
x,-y,-z
-x,1/2+y,-z
-x,-y,-z
x,1/2+y,-z
-x,y,z
x,1/2-y,z
1/2+x,1/2+y,1/2+z
1/2-x,-y,1/2+z
1/2+x,1/2-y,1/2-z
1/2-x,y,1/2-z
1/2-x,1/2-y,1/2-z
1/2+x,y,1/2-z
1/2-x,1/2+y,1/2+z
1/2+x,-y,1/2+z
loop_
_atom_site_type_symbol
_atom_site_label
_atom_site_fract_x
_atom_site_fract_y
_atom_site_fract_z
Si Si1 0.352409 0.586016 0.545540
Si Si2 0.341898 0.587257 0.984981
Si Si3 0.744837 0.665032 0.525590
Si Si4 0.052515 0.089253 0.508400
Si Si5 0.946545 0.162642 0.102428
O O1 0.355723 0.500000 0.500000
O O2 0.348422 0.598840 0.765835
O O3 0.302588 0.619375 0.470220
O O4 0.402243 0.626378 0.494449
O O5 0.294897 0.631432 0.047353
O O6 0.393294 0.608157 0.077893
O O7 0.332985 0.500000 0.000000
O O8 0.739084 0.750000 0.474666
O O9 0.750000 0.661768 0.750000
O O10 0.051412 0.124042 0.303331
O O11 0.000000 0.110205 0.593492
O O12 0.053099 0.000000 0.500000
O O13 0.938346 0.250000 0.125422
O O14 0.000000 0.151861 0.019387
#
# Coordination Sequence:
#
# PCOD9535415 Si02
#       5
#    16  16  16  16  16
#     4  10  19  30  47  69  94 121 152 193 236 276
#     4   9  17  29  46  66  90 119 150 187 230 278
#     4   9  17  29  46  67  89 116 153 194 233 275
#     4   8  14  25  42  66  94 121 151 192 238 278
#     4   9  17  29  46  69  95 123 158 198 236 279
#
# _framework density 22.037077
#
# number of rings (size 3 to 8) (size 9 to 14) (size 15 to 20)
#    0.000    3.000    0.000    1.200    0.000    5.200 
#    0.000    0.000    0.000    3.600    0.000    8.400 
#    0.000   54.400    0.000    0.000    0.000    0.000 
#
# Total GULP energy -223033.860274 kJ/mol
# GULP energy per Si atom -5575.846507 kJ/mol
# Density = 2.198692 g / cm^3
# Si number density = 22.037077 Si / 1000 Ang^3
#
#
#
# Elastic Constant Matrix: (Units=GPa)
#
#
# Indices 1 2 3 4 5 6 
#
# 1 267.8253 131.6964 9.8643 0.0000 0.0000 0.0000
# 2 131.6964 95.0008 28.6497 0.0000 0.0000 0.0000
# 3 9.8643 28.6497 82.5690 0.0000 0.0000 0.0000
# 4 0.0000 0.0000 0.0000 23.2289 0.0000 0.0000
# 5 0.0000 0.0000 0.0000 0.0000 -18.4474 0.0000
# 6 0.0000 0.0000 0.0000 0.0000 0.0000 46.8994
#
#
#
# Elastic Compliance Matrix: (Units=1/GPa)
#
#
# Indices 1 2 3 4 5 6 
#
# 1 0.013660 -0.020600 0.005516 0.000000 0.000000 0.000000
# 2 -0.020600 0.042822 -0.012397 0.000000 0.000000 0.000000
# 3 0.005516 -0.012397 0.015754 0.000000 0.000000 0.000000
# 4 0.000000 0.000000 0.000000 0.043050 0.000000 0.000000
# 5 0.000000 0.000000 0.000000 0.000000 -0.054208 0.000000
# 6 0.000000 0.000000 0.000000 0.000000 0.000000 0.021322
#
#
# Mechanical properties :
#
#
# Convention : Reuss Voigt Hill
#
# Bulk Modulus (GPa) = 57.89411 87.31286 72.60348
# Shear Modulus (GPa) = 34.93545 28.68182 31.80864
#
# Velocity S-wave (km/s) = 3.98591 3.61158 3.80335
# Velocity P-wave (km/s) = 6.89286 7.55634 7.23221
#
# Compressibility (1/GPa) = 0.01727292
#
# Stress axis : x y z
#
# Youngs Moduli (GPa) = 73.20511 23.35233 63.47698
#
# Poissons Ratio (x) = 0.48106 -0.35013
# Poissons Ratio (y) = 1.50804 0.78695
# Poissons Ratio (z) = -0.40379 0.28951
#
# Static dielectric constant tensor:
#      x y z
#    x 1.864930 0.000000 0.000000 
#    y 0.000000 1.670960 0.000000 
#    z 0.000000 0.000000 1.790730 
# 
# From -- ./inp_files/10932.got.cif
#   From: 2010.05.17/outbox.cif.g08.bks.cpg/sg74_6_cif.got.tgz:10932.got - 2010.06.03 17:57:02.
