data_PCOD9535566
_publ_section_title
;
Structure prediction by ZEFSAII (Michael W. Deem and Ramdas Pophale) SiO2 
 PCOD9535566
Probable space group: I M M A
;
_chemical_formula_sum "Si O2"
_cell_formula_units_Z 112
_cell_length_a 13.193027
_cell_length_b 13.902137
_cell_length_c 28.660162
_cell_angle_alpha 90.000000
_cell_angle_beta 90.000000
_cell_angle_gamma 90.000000
_cell_volume 5256.596676
_symmetry_space_group_name_H-M "I M M A"
_symmetry_group_IT_number 74
_symmetry_cell_setting 'orthorhombic'
loop_
_space_group_symop_operation_xyz
x,y,z
-x,1/2-y,z
x,-y,-z
-x,1/2+y,-z
-x,-y,-z
x,1/2+y,-z
-x,y,z
x,1/2-y,z
1/2+x,1/2+y,1/2+z
1/2-x,-y,1/2+z
1/2+x,1/2-y,1/2-z
1/2-x,y,1/2-z
1/2-x,1/2-y,1/2-z
1/2+x,y,1/2-z
1/2-x,1/2+y,1/2+z
1/2+x,-y,1/2+z
loop_
_atom_site_type_symbol
_atom_site_label
_atom_site_fract_x
_atom_site_fract_y
_atom_site_fract_z
Si Si1 0.259729 0.634988 0.429672
Si Si2 0.381988 0.134872 0.181856
Si Si3 0.112040 0.466948 0.446590
Si Si4 0.382032 0.533960 0.722919
Si Si5 0.317164 0.634845 0.631106
Si Si6 0.121589 0.859032 0.166372
Si Si7 0.307261 0.638543 0.532509
O O1 0.233088 0.750000 0.434101
O O2 0.166797 0.560606 0.424243
O O3 0.329143 0.625167 0.384244
O O4 0.314133 0.604702 0.478819
O O5 0.500000 0.113169 0.172639
O O6 0.375159 0.250000 0.188727
O O7 0.347295 0.083247 0.229430
O O8 0.300332 0.107769 0.142591
O O9 0.100230 0.500000 0.500000
O O10 0.189287 0.377862 0.453474
O O11 0.000000 0.444780 0.428143
O O12 0.500000 0.515461 0.732482
O O13 0.374709 0.600859 0.677129
O O14 0.337453 0.434082 0.704232
O O15 0.321885 0.750000 0.628947
O O16 0.355665 0.597605 0.580595
O O17 0.142616 0.750000 0.180574
O O18 0.000000 0.870428 0.161831
O O19 0.335925 0.750000 0.530294
#
# Coordination Sequence:
#
# PCOD9535566 Si02
#       7
#    16  16  16  16  16  16  16
#     4   9  17  31  49  68  94 125 159 204 247 285
#     4   9  18  32  50  73 100 130 164 200 240 289
#     4   9  17  28  43  64  91 124 159 195 237 283
#     4  10  19  31  49  72  96 124 160 202 247 293
#     4  10  19  31  48  70  98 131 162 192 232 286
#     4   9  18  33  53  74  94 123 166 210 252 297
#     4   9  18  30  45  67  96 130 164 197 234 277
#
# _framework density 21.306560999999999
#
# number of rings (size 3 to 8) (size 9 to 14) (size 15 to 20)
#    0.000    2.714    0.000    1.714    0.000    3.143 
#    0.000    5.000    0.000    9.857    0.000    0.000 
#    0.000    2.286    0.000    0.143    0.000    0.000 
#
# Total GULP energy -311799.467519 kJ/mol
# GULP energy per Si atom -5567.847634 kJ/mol
# Density = 2.125807 g / cm^3
# Si number density = 21.306561 Si / 1000 Ang^3
#
#
#
# Elastic Constant Matrix: (Units=GPa)
#
#
# Indices 1 2 3 4 5 6 
#
# 1 19.7583 7.0081 4.1262 0.0000 0.0000 0.0000
# 2 7.0081 54.9101 26.6668 0.0000 0.0000 0.0000
# 3 4.1262 26.6668 139.1993 0.0000 0.0000 0.0000
# 4 0.0000 0.0000 0.0000 31.4025 0.0000 0.0000
# 5 0.0000 0.0000 0.0000 0.0000 -90.1519 0.0000
# 6 0.0000 0.0000 0.0000 0.0000 0.0000 -10.9721
#
#
#
# Elastic Compliance Matrix: (Units=1/GPa)
#
#
# Indices 1 2 3 4 5 6 
#
# 1 0.053023 -0.006620 -0.000304 0.000000 0.000000 0.000000
# 2 -0.006620 0.020906 -0.003809 0.000000 0.000000 0.000000
# 3 -0.000304 -0.003809 0.007923 0.000000 0.000000 0.000000
# 4 0.000000 0.000000 0.000000 0.031845 0.000000 0.000000
# 5 0.000000 0.000000 0.000000 0.000000 -0.011092 0.000000
# 6 0.000000 0.000000 0.000000 0.000000 0.000000 -0.091140
#
#
# Mechanical properties :
#
#
# Convention : Reuss Voigt Hill
#
# Bulk Modulus (GPa) = 16.55977 32.16333 24.36155
# Shear Modulus (GPa) = 94.23700 -2.20655 46.01522
#
# Velocity S-wave (km/s) = 6.65771 -1.01876 4.65227
# Velocity P-wave (km/s) = 8.17858 3.70735 6.34955
#
# Compressibility (1/GPa) = 0.06038732
#
# Stress axis : x y z
#
# Youngs Moduli (GPa) = 18.85975 47.83273 126.22102
#
# Poissons Ratio (x) = 0.31664 0.03832
# Poissons Ratio (y) = 0.12485 0.48075
# Poissons Ratio (z) = 0.00573 0.18219
#
# Static dielectric constant tensor:
#      x y z
#    x 1.835550 0.000000 0.000000 
#    y 0.000000 1.802860 0.000000 
#    z 0.000000 0.000000 1.824210 
# 
# From -- ./inp_files/67245.got.cif
#   From: 2010.05.17/outbox.cif.g08.bks.cpg/sg74_34_cif.got.tgz:67245.got - 2010.06.03 17:57:02.
