data_PCOD9535822
_publ_section_title
;
Structure prediction by ZEFSAII (Michael W. Deem and Ramdas Pophale) SiO2 
 PCOD9535822
Probable space group: I M M A
;
_chemical_formula_sum "Si O2"
_cell_formula_units_Z 80
_cell_length_a 24.206491
_cell_length_b 8.629318
_cell_length_c 24.847732
_cell_angle_alpha 90.000000
_cell_angle_beta 90.000000
_cell_angle_gamma 90.000000
_cell_volume 5190.331134
_symmetry_space_group_name_H-M "I M M A"
_symmetry_group_IT_number 74
_symmetry_cell_setting 'orthorhombic'
loop_
_space_group_symop_operation_xyz
x,y,z
-x,1/2-y,z
x,-y,-z
-x,1/2+y,-z
-x,-y,-z
x,1/2+y,-z
-x,y,z
x,1/2-y,z
1/2+x,1/2+y,1/2+z
1/2-x,-y,1/2+z
1/2+x,1/2-y,1/2-z
1/2-x,y,1/2-z
1/2-x,1/2-y,1/2-z
1/2+x,y,1/2-z
1/2-x,1/2+y,1/2+z
1/2+x,-y,1/2+z
loop_
_atom_site_type_symbol
_atom_site_label
_atom_site_fract_x
_atom_site_fract_y
_atom_site_fract_z
Si Si1 0.437353 0.936459 0.336448
Si Si2 0.832817 0.936255 0.233616
Si Si3 0.772106 0.435119 0.331858
Si Si4 0.259633 0.064833 0.557605
Si Si5 0.615841 0.565269 0.556951
O O1 0.500000 0.976541 0.321451
O O2 0.434037 0.750000 0.343486
O O3 0.391576 0.978882 0.292055
O O4 0.420698 0.014077 0.392724
O O5 0.828018 0.750000 0.235499
O O6 0.819963 0.005129 0.292179
O O7 0.784592 0.000893 0.194810
O O8 0.770360 0.250000 0.332135
O O9 0.774376 0.500600 0.391972
O O10 0.259764 0.250000 0.557316
O O11 0.240560 0.000000 0.500000
O O12 0.322787 0.005488 0.564521
O O13 0.594567 0.500000 0.500000
O O14 0.620387 0.750000 0.554078
#
# Coordination Sequence:
#
# PCOD9535822 Si02
#       5
#    16  16  16  16  16
#     4  10  21  36  52  69  93 125 163 206 247 286
#     4  10  19  32  50  70  94 125 161 199 242 288
#     4  11  20  31  49  72  98 125 157 197 239 288
#     4  11  20  32  49  71  98 127 159 196 240 288
#     4  11  21  33  49  67  91 124 163 205 246 285
#
# _framework density 15.413275000000001
#
# number of rings (size 3 to 8) (size 9 to 14) (size 15 to 20)
#    0.000    1.400    2.000    8.400    0.000    1.600 
#    0.000    0.000    0.000    0.000    0.000    0.000 
#    0.000    0.800    0.000    2.200    0.000    3.200 
#
# Total GULP energy -223409.798353 kJ/mol
# GULP energy per Si atom -5585.244959 kJ/mol
# Density = 1.537819 g / cm^3
# Si number density = 15.413275 Si / 1000 Ang^3
#
#
#
# Elastic Constant Matrix: (Units=GPa)
#
#
# Indices 1 2 3 4 5 6 
#
# 1 79.6269 43.7876 67.6905 0.0000 0.0000 0.0000
# 2 43.7876 111.2092 58.7294 0.0000 0.0000 0.0000
# 3 67.6905 58.7294 138.4792 0.0000 0.0000 0.0000
# 4 0.0000 0.0000 0.0000 28.5934 0.0000 0.0000
# 5 0.0000 0.0000 0.0000 0.0000 20.5529 0.0000
# 6 0.0000 0.0000 0.0000 0.0000 0.0000 17.3235
#
#
#
# Elastic Compliance Matrix: (Units=1/GPa)
#
#
# Indices 1 2 3 4 5 6 
#
# 1 0.022777 -0.003980 -0.009446 0.000000 0.000000 0.000000
# 2 -0.003980 0.012283 -0.003264 0.000000 0.000000 0.000000
# 3 -0.009446 -0.003264 0.013223 0.000000 0.000000 0.000000
# 4 0.000000 0.000000 0.000000 0.034973 0.000000 0.000000
# 5 0.000000 0.000000 0.000000 0.000000 0.048655 0.000000
# 6 0.000000 0.000000 0.000000 0.000000 0.000000 0.057725
#
#
# Mechanical properties :
#
#
# Convention : Reuss Voigt Hill
#
# Bulk Modulus (GPa) = 67.09817 74.41445 70.75631
# Shear Modulus (GPa) = 21.93156 23.90115 22.91636
#
# Velocity S-wave (km/s) = 3.77623 3.94215 3.86008
# Velocity P-wave (km/s) = 7.91457 8.31294 8.11620
#
# Compressibility (1/GPa) = 0.01490354
#
# Stress axis : x y z
#
# Youngs Moduli (GPa) = 43.90394 81.41561 75.62766
#
# Poissons Ratio (x) = 0.32403 0.71436
# Poissons Ratio (y) = 0.17473 0.24682
# Poissons Ratio (z) = 0.41471 0.26571
#
# Static dielectric constant tensor:
#      x y z
#    x 1.495670 0.000000 0.000000 
#    y 0.000000 1.513620 0.000000 
#    z 0.000000 0.000000 1.525990 
# 
# From -- ./inp_files/67529.got.cif
#   From: 2010.05.17/outbox.cif.g08.bks.cpg/sg74_34_cif.got.tgz:67529.got - 2010.06.03 17:57:02.
