data_PCOD9535977
_publ_section_title
;
Structure prediction by ZEFSAII (Michael W. Deem and Ramdas Pophale) SiO2 
 PCOD9535977
Probable space group: I M M A
;
_chemical_formula_sum "Si O2"
_cell_formula_units_Z 96
_cell_length_a 29.080775
_cell_length_b 9.269077
_cell_length_c 20.324690
_cell_angle_alpha 90.000000
_cell_angle_beta 90.000000
_cell_angle_gamma 90.000000
_cell_volume 5478.559674
_symmetry_space_group_name_H-M "I M M A"
_symmetry_group_IT_number 74
_symmetry_cell_setting 'orthorhombic'
loop_
_space_group_symop_operation_xyz
x,y,z
-x,1/2-y,z
x,-y,-z
-x,1/2+y,-z
-x,-y,-z
x,1/2+y,-z
-x,y,z
x,1/2-y,z
1/2+x,1/2+y,1/2+z
1/2-x,-y,1/2+z
1/2+x,1/2-y,1/2-z
1/2-x,y,1/2-z
1/2-x,1/2-y,1/2-z
1/2+x,y,1/2-z
1/2-x,1/2+y,1/2+z
1/2+x,-y,1/2+z
loop_
_atom_site_type_symbol
_atom_site_label
_atom_site_fract_x
_atom_site_fract_y
_atom_site_fract_z
Si Si1 0.443817 0.583947 0.565699
Si Si2 0.294566 0.574717 0.709079
Si Si3 0.116276 0.923787 0.705727
Si Si4 0.767158 0.577515 0.932938
Si Si5 0.555285 0.916148 0.302796
Si Si6 0.157945 0.578091 0.566867
O O1 0.429141 0.500000 0.500000
O O2 0.500000 0.584898 0.565193
O O3 0.428404 0.750000 0.565567
O O4 0.429233 0.502824 0.632049
O O5 0.292107 0.750000 0.707622
O O6 0.250000 0.524992 0.750000
O O7 0.340276 0.537304 0.748271
O O8 0.292365 0.527491 0.633382
O O9 0.110300 0.750000 0.708149
O O10 0.129434 0.964506 0.631354
O O11 0.073832 0.004719 0.738256
O O12 0.772757 0.750000 0.940014
O O13 0.712441 0.549554 0.922300
O O14 0.781409 0.500000 0.000000
O O15 0.500000 0.917610 0.303213
O O16 0.570495 0.750000 0.305601
O O17 0.143837 0.500000 0.500000
O O18 0.153493 0.750000 0.559017
#
# Coordination Sequence:
#
# PCOD9535977 Si02
#       6
#    16  16  16  16  16  16
#     4   9  16  28  49  75 100 127 163 207 252 300
#     4   9  15  28  50  73  98 130 166 202 241 294
#     4  10  19  32  53  78 100 129 172 214 253 301
#     4   9  16  28  47  70  99 134 168 201 239 289
#     4  10  21  36  52  72 101 136 172 214 264 311
#     4   9  17  29  48  74 101 129 163 204 247 298
#
# _framework density 17.522853999999999
#
# number of rings (size 3 to 8) (size 9 to 14) (size 15 to 20)
#    0.000    2.667    1.667    1.000    0.000    3.667 
#    0.000    1.667    0.000    3.500    0.000    0.000 
#    0.000    0.000    0.000    0.000    0.000    0.000 
#
# Total GULP energy -267654.084559 kJ/mol
# GULP energy per Si atom -5576.126762 kJ/mol
# Density = 1.748297 g / cm^3
# Si number density = 17.522854 Si / 1000 Ang^3
#
#
#
# Elastic Constant Matrix: (Units=GPa)
#
#
# Indices 1 2 3 4 5 6 
#
# 1 12.3035 18.4343 23.5204 0.0000 0.0000 0.0000
# 2 18.4343 62.1700 58.7916 0.0000 0.0000 0.0000
# 3 23.5204 58.7916 169.8424 0.0000 0.0000 0.0000
# 4 0.0000 0.0000 0.0000 32.2327 0.0000 0.0000
# 5 0.0000 0.0000 0.0000 0.0000 26.8254 0.0000
# 6 0.0000 0.0000 0.0000 0.0000 0.0000 3.7713
#
#
#
# Elastic Compliance Matrix: (Units=1/GPa)
#
#
# Indices 1 2 3 4 5 6 
#
# 1 0.153539 -0.037790 -0.008182 0.000000 0.000000 0.000000
# 2 -0.037790 0.033213 -0.006264 0.000000 0.000000 0.000000
# 3 -0.008182 -0.006264 0.009189 0.000000 0.000000 0.000000
# 4 0.000000 0.000000 0.000000 0.031024 0.000000 0.000000
# 5 0.000000 0.000000 0.000000 0.000000 0.037278 0.000000
# 6 0.000000 0.000000 0.000000 0.000000 0.000000 0.265161
#
#
# Mechanical properties :
#
#
# Convention : Reuss Voigt Hill
#
# Bulk Modulus (GPa) = 10.93237 49.53428 30.23333
# Shear Modulus (GPa) = 7.52598 22.13718 14.83158
#
# Velocity S-wave (km/s) = 2.07467 3.55819 2.91247
# Velocity P-wave (km/s) = 3.46287 6.72389 5.34800
#
# Compressibility (1/GPa) = 0.09147146
#
# Stress axis : x y z
#
# Youngs Moduli (GPa) = 6.51302 30.10827 108.82525
#
# Poissons Ratio (x) = 1.13778 0.89036
# Poissons Ratio (y) = 0.24612 0.68165
# Poissons Ratio (z) = 0.05329 0.18859
#
# Static dielectric constant tensor:
#      x y z
#    x 1.613120 0.000000 0.000000 
#    y 0.000000 1.586200 0.000000 
#    z 0.000000 0.000000 1.588070 
# 
# From -- ./inp_files/55071.got.cif
#   From: 2010.05.17/outbox.cif.g08.bks.cpg/sg74_28_cif.got.tgz:55071.got - 2010.06.03 17:57:02.
