data_PCOD9535157
_publ_section_title
;
Structure prediction by ZEFSAII (Michael W. Deem and Ramdas Pophale) SiO2 
 PCOD9535157
Probable space group: I M M A
;
_chemical_formula_sum "Si O2"
_cell_formula_units_Z 88
_cell_length_a 28.923139
_cell_length_b 25.127568
_cell_length_c 5.635270
_cell_angle_alpha 90.000000
_cell_angle_beta 90.000000
_cell_angle_gamma 90.000000
_cell_volume 4095.534708
_symmetry_space_group_name_H-M "I M M A"
_symmetry_group_IT_number 74
_symmetry_cell_setting 'orthorhombic'
loop_
_space_group_symop_operation_xyz
x,y,z
-x,1/2-y,z
x,-y,-z
-x,1/2+y,-z
-x,-y,-z
x,1/2+y,-z
-x,y,z
x,1/2-y,z
1/2+x,1/2+y,1/2+z
1/2-x,-y,1/2+z
1/2+x,1/2-y,1/2-z
1/2-x,y,1/2-z
1/2-x,1/2-y,1/2-z
1/2+x,y,1/2-z
1/2-x,1/2+y,1/2+z
1/2+x,-y,1/2+z
loop_
_atom_site_type_symbol
_atom_site_label
_atom_site_fract_x
_atom_site_fract_y
_atom_site_fract_z
Si Si1 0.000000 0.353660 0.872029
Si Si2 0.500000 0.080693 0.125921
Si Si3 0.837184 0.398977 0.488004
Si Si4 0.250000 0.372768 0.750000
Si Si5 0.595086 0.547421 0.686779
Si Si6 0.100179 0.653187 0.134950
Si Si7 0.688465 0.809625 0.612435
O O1 0.000000 0.393695 0.639812
O O2 0.951167 0.323796 0.846585
O O3 0.000000 0.379667 0.139419
O O4 0.452704 0.048109 0.167055
O O5 0.793378 0.407646 0.658702
O O6 0.859364 0.448119 0.349039
O O7 0.880180 0.372184 0.624844
O O8 0.819227 0.353143 0.313648
O O9 0.271950 0.333675 0.554349
O O10 0.596050 0.500000 0.500000
O O11 0.596281 0.602552 0.539884
O O12 0.140590 0.689967 0.036083
O O13 0.697622 0.750000 0.696072
#
# Coordination Sequence:
#
# PCOD9535157 Si02
#       7
#     8   8  16   8  16  16  16
#     4  10  18  36  60  84 131 168 212 245 304 368
#     4  10  19  34  58  92 128 162 207 261 310 368
#     4  10  20  36  55  86 116 154 197 246 323 372
#     4  10  21  36  60  88 112 142 190 258 325 382
#     4  10  20  35  56  89 122 163 204 253 310 371
#     4   9  20  36  56  85 118 163 196 247 301 367
#     4  10  21  37  60  89 115 145 194 255 321 381
#
# _framework density 21.486815
#
# number of rings (size 3 to 8) (size 9 to 14) (size 15 to 20)
#    0.000    2.182    1.818    1.091    0.000    5.091 
#    0.000    2.273    0.000    0.000  170.182    0.000 
#    0.000    0.000    0.000    0.000    0.000    0.000 
#
# Total GULP energy -245421.963835 kJ/mol
# GULP energy per Si atom -5577.771905 kJ/mol
# Density = 2.143791 g / cm^3
# Si number density = 21.486815 Si / 1000 Ang^3
#
#
#
# Elastic Constant Matrix: (Units=GPa)
#
#
# Indices 1 2 3 4 5 6 
#
# 1 161.0942 16.0238 8.6579 0.0000 0.0000 0.0000
# 2 16.0238 54.5976 7.8613 0.0000 0.0000 0.0000
# 3 8.6579 7.8613 64.0956 0.0000 0.0000 0.0000
# 4 0.0000 0.0000 0.0000 8.6956 0.0000 0.0000
# 5 0.0000 0.0000 0.0000 0.0000 39.2141 0.0000
# 6 0.0000 0.0000 0.0000 0.0000 0.0000 5.1019
#
#
#
# Elastic Compliance Matrix: (Units=1/GPa)
#
#
# Indices 1 2 3 4 5 6 
#
# 1 0.006421 -0.001791 -0.000648 0.000000 0.000000 0.000000
# 2 -0.001791 0.019145 -0.002106 0.000000 0.000000 0.000000
# 3 -0.000648 -0.002106 0.015947 0.000000 0.000000 0.000000
# 4 0.000000 0.000000 0.000000 0.115001 0.000000 0.000000
# 5 0.000000 0.000000 0.000000 0.000000 0.025501 0.000000
# 6 0.000000 0.000000 0.000000 0.000000 0.000000 0.196005
#
#
# Mechanical properties :
#
#
# Convention : Reuss Voigt Hill
#
# Bulk Modulus (GPa) = 30.84228 38.31927 34.58078
# Shear Modulus (GPa) = 12.56544 27.08528 19.82536
#
# Velocity S-wave (km/s) = 2.42088 3.55428 3.04085
# Velocity P-wave (km/s) = 4.71163 5.89207 5.33460
#
# Compressibility (1/GPa) = 0.03242302
#
# Stress axis : x y z
#
# Youngs Moduli (GPa) = 155.75084 52.23366 62.70583
#
# Poissons Ratio (x) = 0.09356 0.04061
# Poissons Ratio (y) = 0.27897 0.13207
# Poissons Ratio (z) = 0.10086 0.11001
#
# Static dielectric constant tensor:
#      x y z
#    x 1.820180 0.000000 0.000000 
#    y 0.000000 1.728600 0.000000 
#    z 0.000000 0.000000 1.875650 
# 
# From -- ./inp_files/5178.got.cif
#   From: 2010.05.17/outbox.cif.g08.bks.cpg/sg74_3_cif.got.tgz:5178.got - 2010.06.03 17:57:02.
