data_PCOD9535701
_publ_section_title
;
Structure prediction by ZEFSAII (Michael W. Deem and Ramdas Pophale) SiO2 
 PCOD9535701
Probable space group: I M M A
;
_chemical_formula_sum "Si O2"
_cell_formula_units_Z 104
_cell_length_a 21.144901
_cell_length_b 8.543588
_cell_length_c 32.883856
_cell_angle_alpha 90.000000
_cell_angle_beta 90.000000
_cell_angle_gamma 90.000000
_cell_volume 5940.577841
_symmetry_space_group_name_H-M "I M M A"
_symmetry_group_IT_number 74
_symmetry_cell_setting 'orthorhombic'
loop_
_space_group_symop_operation_xyz
x,y,z
-x,1/2-y,z
x,-y,-z
-x,1/2+y,-z
-x,-y,-z
x,1/2+y,-z
-x,y,z
x,1/2-y,z
1/2+x,1/2+y,1/2+z
1/2-x,-y,1/2+z
1/2+x,1/2-y,1/2-z
1/2-x,y,1/2-z
1/2-x,1/2-y,1/2-z
1/2+x,y,1/2-z
1/2-x,1/2+y,1/2+z
1/2+x,-y,1/2+z
loop_
_atom_site_type_symbol
_atom_site_label
_atom_site_fract_x
_atom_site_fract_y
_atom_site_fract_z
Si Si1 0.368263 0.939079 0.917143
Si Si2 0.193352 0.436916 0.132482
Si Si3 0.738355 0.937242 0.543661
Si Si4 0.928662 0.440617 0.728691
Si Si5 0.000000 0.938339 0.545226
Si Si6 0.320100 0.435724 0.832452
Si Si7 0.571210 0.061211 0.676560
O O1 0.366967 0.750000 0.910947
O O2 0.312362 0.975975 0.948869
O O3 0.436269 0.989019 0.932712
O O4 0.352424 0.022524 0.875196
O O5 0.196950 0.250000 0.131526
O O6 0.205527 0.492881 0.085818
O O7 0.249817 0.495002 0.162089
O O8 0.126418 0.491414 0.149447
O O9 0.732239 0.750000 0.542515
O O10 0.716713 0.000000 0.500000
O O11 0.928935 0.250000 0.726651
O O12 0.869091 0.495187 0.701920
O O13 0.920717 0.483662 0.775985
O O14 0.000000 0.490981 0.715527
O O15 0.000000 0.750000 0.544625
O O16 0.000000 0.000000 0.500000
O O17 0.313484 0.250000 0.827189
O O18 0.500000 0.014671 0.664184
O O19 0.574688 0.250000 0.674848
#
# Coordination Sequence:
#
# PCOD9535701 Si02
#       7
#    16  16  16  16   8  16  16
#     4   9  19  33  45  65  99 133 164 209 266 307
#     4  10  21  36  52  75 109 137 162 204 257 307
#     4   9  18  32  50  70  95 127 162 203 248 295
#     4   8  16  31  50  74 104 135 171 218 260 291
#     4  10  20  32  46  64  92 130 172 218 266 312
#     4  10  19  31  51  75  99 133 177 217 252 297
#     4   9  18  35  58  80 102 131 168 208 250 299
#
# _framework density 17.506713999999999
#
# number of rings (size 3 to 8) (size 9 to 14) (size 15 to 20)
#    0.000    2.769    0.000    3.231    1.077    4.615 
#    0.000    4.615    0.000    2.308    0.000    0.000 
#    0.000    0.000    0.000    0.000    0.000    0.000 
#
# Total GULP energy -289752.888759 kJ/mol
# GULP energy per Si atom -5572.170938 kJ/mol
# Density = 1.746687 g / cm^3
# Si number density = 17.506714 Si / 1000 Ang^3
#
#
#
# Elastic Constant Matrix: (Units=GPa)
#
#
# Indices 1 2 3 4 5 6 
#
# 1 156.3494 30.5409 81.5393 0.0000 0.0000 0.0000
# 2 30.5409 15.0499 20.7180 0.0000 0.0000 0.0000
# 3 81.5393 20.7180 85.4566 0.0000 0.0000 0.0000
# 4 0.0000 0.0000 0.0000 21.9174 0.0000 0.0000
# 5 0.0000 0.0000 0.0000 0.0000 16.1575 0.0000
# 6 0.0000 0.0000 0.0000 0.0000 0.0000 23.5038
#
#
#
# Elastic Compliance Matrix: (Units=1/GPa)
#
#
# Indices 1 2 3 4 5 6 
#
# 1 0.014931 -0.016041 -0.010358 0.000000 0.000000 0.000000
# 2 -0.016041 0.116965 -0.013051 0.000000 0.000000 0.000000
# 3 -0.010358 -0.013051 0.024749 0.000000 0.000000 0.000000
# 4 0.000000 0.000000 0.000000 0.045626 0.000000 0.000000
# 5 0.000000 0.000000 0.000000 0.000000 0.061891 0.000000
# 6 0.000000 0.000000 0.000000 0.000000 0.000000 0.042546
#
#
# Mechanical properties :
#
#
# Convention : Reuss Voigt Hill
#
# Bulk Modulus (GPa) = 12.86255 58.05025 35.45640
# Shear Modulus (GPa) = 12.15002 20.58627 16.36815
#
# Velocity S-wave (km/s) = 2.63729 3.43287 3.06104
# Velocity P-wave (km/s) = 4.07883 6.99597 5.72628
#
# Compressibility (1/GPa) = 0.07774509
#
# Stress axis : x y z
#
# Youngs Moduli (GPa) = 66.97418 8.54958 40.40624
#
# Poissons Ratio (x) = 0.13715 0.41851
# Poissons Ratio (y) = 1.07436 0.52733
# Poissons Ratio (z) = 0.69369 0.11158
#
# Static dielectric constant tensor:
#      x y z
#    x 1.593920 0.000000 0.000000 
#    y 0.000000 1.598670 0.000000 
#    z 0.000000 0.000000 1.584430 
# 
# From -- ./inp_files/73346.got.cif
#   From: 2010.05.17/outbox.cif.g08.bks.cpg/sg74_37_cif.got.tgz:73346.got - 2010.06.03 17:57:02.
