data_PCOD9535361
_publ_section_title
;
Structure prediction by ZEFSAII (Michael W. Deem and Ramdas Pophale) SiO2 
 PCOD9535361
Probable space group: I M M A
;
_chemical_formula_sum "Si O2"
_cell_formula_units_Z 104
_cell_length_a 8.318810
_cell_length_b 29.674808
_cell_length_c 24.804895
_cell_angle_alpha 90.000000
_cell_angle_beta 90.000000
_cell_angle_gamma 90.000000
_cell_volume 6123.313796
_symmetry_space_group_name_H-M "I M M A"
_symmetry_group_IT_number 74
_symmetry_cell_setting 'orthorhombic'
loop_
_space_group_symop_operation_xyz
x,y,z
-x,1/2-y,z
x,-y,-z
-x,1/2+y,-z
-x,-y,-z
x,1/2+y,-z
-x,y,z
x,1/2-y,z
1/2+x,1/2+y,1/2+z
1/2-x,-y,1/2+z
1/2+x,1/2-y,1/2-z
1/2-x,y,1/2-z
1/2-x,1/2-y,1/2-z
1/2+x,y,1/2-z
1/2-x,1/2+y,1/2+z
1/2+x,-y,1/2+z
loop_
_atom_site_type_symbol
_atom_site_label
_atom_site_fract_x
_atom_site_fract_y
_atom_site_fract_z
Si Si1 0.191947 0.927220 0.811895
Si Si2 0.307824 0.022752 0.811985
Si Si3 0.805505 0.121896 0.688255
Si Si4 0.306362 0.839282 0.625049
Si Si5 0.193786 0.801774 0.516033
Si Si6 0.805532 0.250000 0.188447
Si Si7 0.196255 0.198491 0.606531
O O1 0.250000 0.923248 0.750000
O O2 0.252423 0.884959 0.846651
O O3 0.000000 0.926030 0.810657
O O4 0.243201 0.975884 0.835066
O O5 0.500000 0.020809 0.813275
O O6 0.250000 0.022659 0.750000
O O7 0.255780 0.072035 0.832658
O O8 0.750000 0.127277 0.750000
O O9 0.747665 0.162009 0.649837
O O10 0.000000 0.122567 0.688491
O O11 0.500000 0.839462 0.627753
O O12 0.256928 0.833275 0.563203
O O13 0.249121 0.795063 0.657741
O O14 0.245851 0.750000 0.527044
O O15 0.244453 0.812818 0.454895
O O16 0.000000 0.802339 0.517104
O O17 0.750000 0.250000 0.250000
O O18 0.000000 0.250000 0.187427
O O19 0.246309 0.250000 0.618309
O O20 0.000000 0.198328 0.607312
#
# Coordination Sequence:
#
# PCOD9535361 Si02
#       7
#    16  16  16  16  16   8  16
#     4  10  19  30  45  66  90 118 151 187 229 273
#     4   9  16  27  44  65  89 119 152 185 222 265
#     4   9  17  29  47  71  98 125 151 181 222 271
#     4  10  20  32  46  64  90 120 148 186 234 275
#     4   9  17  30  49  69  86 114 158 194 222 264
#     4  10  20  32  44  62  90 120 145 178 227 276
#     4   8  15  29  48  70  96 123 151 187 226 263
#
# _framework density 16.984268
#
# number of rings (size 3 to 8) (size 9 to 14) (size 15 to 20)
#    0.000    2.769    0.769    3.231    0.000    2.769 
#    0.000    0.769    0.000    1.846    0.000    6.462 
#    0.000    0.000    0.000    0.000    0.000    0.000 
#
# Total GULP energy -289675.303344 kJ/mol
# GULP energy per Si atom -5570.678910 kJ/mol
# Density = 1.694561 g / cm^3
# Si number density = 16.984268 Si / 1000 Ang^3
#
#
#
# Elastic Constant Matrix: (Units=GPa)
#
#
# Indices 1 2 3 4 5 6 
#
# 1 12.4517 21.2348 9.4449 0.0000 0.0000 0.0000
# 2 21.2348 175.4316 92.3149 0.0000 0.0000 0.0000
# 3 9.4449 92.3149 95.7970 0.0000 0.0000 0.0000
# 4 0.0000 0.0000 0.0000 10.8560 0.0000 0.0000
# 5 0.0000 0.0000 0.0000 0.0000 19.2659 0.0000
# 6 0.0000 0.0000 0.0000 0.0000 0.0000 14.6962
#
#
#
# Elastic Compliance Matrix: (Units=1/GPa)
#
#
# Indices 1 2 3 4 5 6 
#
# 1 0.101853 -0.014291 0.003730 0.000000 0.000000 0.000000
# 2 -0.014291 0.013570 -0.011667 0.000000 0.000000 0.000000
# 3 0.003730 -0.011667 0.021314 0.000000 0.000000 0.000000
# 4 0.000000 0.000000 0.000000 0.092115 0.000000 0.000000
# 5 0.000000 0.000000 0.000000 0.000000 0.051905 0.000000
# 6 0.000000 0.000000 0.000000 0.000000 0.000000 0.068045
#
#
# Mechanical properties :
#
#
# Convention : Reuss Voigt Hill
#
# Bulk Modulus (GPa) = 10.83666 58.85216 34.84441
# Shear Modulus (GPa) = 11.79189 19.67599 15.73394
#
# Velocity S-wave (km/s) = 2.63778 3.40734 3.04696
# Velocity P-wave (km/s) = 3.95872 7.08563 5.73924
#
# Compressibility (1/GPa) = 0.09227939
#
# Stress axis : x y z
#
# Youngs Moduli (GPa) = 9.81805 73.69387 46.91688
#
# Poissons Ratio (x) = 1.05318 -0.17499
# Poissons Ratio (y) = 0.14031 0.54740
# Poissons Ratio (z) = -0.03662 0.85981
#
# Static dielectric constant tensor:
#      x y z
#    x 1.625190 0.000000 0.000000 
#    y 0.000000 1.612600 0.000000 
#    z 0.000000 0.000000 1.545820 
# 
# From -- ./inp_files/57854.got.cif
#   From: 2010.05.17/outbox.cif.g08.bks.cpg/sg74_29_cif.got.tgz:57854.got - 2010.06.03 17:57:02.
