data_PCOD9535495
_publ_section_title
;
Structure prediction by ZEFSAII (Michael W. Deem and Ramdas Pophale) SiO2 
 PCOD9535495
Probable space group: I M M A
;
_chemical_formula_sum "Si O2"
_cell_formula_units_Z 116
_cell_length_a 28.378679
_cell_length_b 7.968727
_cell_length_c 23.408991
_cell_angle_alpha 90.000000
_cell_angle_beta 90.000000
_cell_angle_gamma 90.000000
_cell_volume 5293.754769
_symmetry_space_group_name_H-M "I M M A"
_symmetry_group_IT_number 74
_symmetry_cell_setting 'orthorhombic'
loop_
_space_group_symop_operation_xyz
x,y,z
-x,1/2-y,z
x,-y,-z
-x,1/2+y,-z
-x,-y,-z
x,1/2+y,-z
-x,y,z
x,1/2-y,z
1/2+x,1/2+y,1/2+z
1/2-x,-y,1/2+z
1/2+x,1/2-y,1/2-z
1/2-x,y,1/2-z
1/2-x,1/2-y,1/2-z
1/2+x,y,1/2-z
1/2-x,1/2+y,1/2+z
1/2+x,-y,1/2+z
loop_
_atom_site_type_symbol
_atom_site_label
_atom_site_fract_x
_atom_site_fract_y
_atom_site_fract_z
Si Si1 0.500000 0.750000 0.050127
Si Si2 0.446739 0.950706 0.433811
Si Si3 0.432065 0.056111 0.085587
Si Si4 0.350843 0.939702 0.251901
Si Si5 0.761354 0.441366 0.935920
Si Si6 0.551758 0.945490 0.778478
Si Si7 0.851622 0.561346 0.875709
Si Si8 0.831315 0.044547 0.623827
O O1 0.540831 0.597581 0.055794
O O2 0.500000 0.012251 0.419844
O O3 0.447027 0.750000 0.430638
O O4 0.437166 0.000000 0.500000
O O5 0.404723 0.013606 0.393429
O O6 0.443183 0.250000 0.066837
O O7 0.446822 0.045478 0.152627
O O8 0.375866 0.025772 0.088524
O O9 0.333051 0.750000 0.259885
O O10 0.334172 0.006839 0.190600
O O11 0.407332 0.941414 0.245706
O O12 0.341689 0.043287 0.308578
O O13 0.747222 0.250000 0.937775
O O14 0.811973 0.455046 0.907010
O O15 0.717835 0.520122 0.901463
O O16 0.764685 0.500000 0.000000
O O17 0.500000 0.994008 0.758631
O O18 0.560500 0.750000 0.763382
O O19 0.843829 0.750000 0.895197
O O20 0.836038 0.250000 0.624805
#
# Coordination Sequence:
#
# PCOD9535495 Si02
#       8
#     4  16  16  16  16  16  16  16
#     4  12  18  28  52  82 130 162 220 244 318 352
#     4  10  21  39  64  91 121 161 211 262 319 377
#     4  10  19  30  51  83 123 165 209 259 303 365
#     4  10  21  36  57  83 118 162 205 249 311 374
#     4  11  24  44  70  96 123 154 204 259 317 377
#     4   9  17  29  46  74 112 155 205 251 294 350
#     4  12  25  41  60  87 125 165 208 260 314 371
#     4   9  20  40  63  90 126 163 208 259 316 381
#
# _framework density 21.912613
#
# number of rings (size 3 to 8) (size 9 to 14) (size 15 to 20)
#    0.000    1.793    1.379    3.103    0.966    3.862 
#    0.000    2.759    0.000    0.000    0.000    0.483 
#    0.000    0.000    0.000    0.000    0.000    0.000 
#
# Total GULP energy -323407.993998 kJ/mol
# GULP energy per Si atom -5575.999897 kJ/mol
# Density = 2.186274 g / cm^3
# Si number density = 21.912613 Si / 1000 Ang^3
#
#
#
# Elastic Constant Matrix: (Units=GPa)
#
#
# Indices 1 2 3 4 5 6 
#
# 1 89.8100 -1.6558 42.8927 0.0000 0.0000 0.0000
# 2 -1.6558 65.3701 19.0147 0.0000 0.0000 0.0000
# 3 42.8927 19.0147 79.8859 0.0000 0.0000 0.0000
# 4 0.0000 0.0000 0.0000 24.4291 0.0000 0.0000
# 5 0.0000 0.0000 0.0000 0.0000 7.0422 0.0000
# 6 0.0000 0.0000 0.0000 0.0000 0.0000 10.0605
#
#
#
# Elastic Compliance Matrix: (Units=1/GPa)
#
#
# Indices 1 2 3 4 5 6 
#
# 1 0.015512 0.003025 -0.009049 0.000000 0.000000 0.000000
# 2 0.003025 0.017025 -0.005677 0.000000 0.000000 0.000000
# 3 -0.009049 -0.005677 0.018728 0.000000 0.000000 0.000000
# 4 0.000000 0.000000 0.000000 0.040935 0.000000 0.000000
# 5 0.000000 0.000000 0.000000 0.000000 0.142001 0.000000
# 6 0.000000 0.000000 0.000000 0.000000 0.000000 0.099399
#
#
# Mechanical properties :
#
#
# Convention : Reuss Voigt Hill
#
# Bulk Modulus (GPa) = 35.88853 39.50770 37.69812
# Shear Modulus (GPa) = 13.65045 19.96065 16.80555
#
# Velocity S-wave (km/s) = 2.49860 3.02142 2.77236
# Velocity P-wave (km/s) = 4.97369 5.49916 5.24301
#
# Compressibility (1/GPa) = 0.02786405
#
# Stress axis : x y z
#
# Youngs Moduli (GPa) = 64.46607 58.73600 53.39726
#
# Poissons Ratio (x) = -0.17768 0.48318
# Poissons Ratio (y) = -0.19501 0.30312
# Poissons Ratio (z) = 0.58334 0.33342
#
# Static dielectric constant tensor:
#      x y z
#    x 1.795490 0.000000 0.000000 
#    y 0.000000 1.812660 0.000000 
#    z 0.000000 0.000000 1.784010 
# 
# From -- ./inp_files/62421.got.cif
#   From: 2010.05.17/outbox.cif.g08.bks.cpg/sg74_32_cif.got.tgz:62421.got - 2010.06.03 17:57:02.
