data_PCOD9535636
_publ_section_title
;
Structure prediction by ZEFSAII (Michael W. Deem and Ramdas Pophale) SiO2 
 PCOD9535636
Probable space group: I M M A
;
_chemical_formula_sum "Si O2"
_cell_formula_units_Z 96
_cell_length_a 22.215535
_cell_length_b 16.464738
_cell_length_c 14.749739
_cell_angle_alpha 90.000000
_cell_angle_beta 90.000000
_cell_angle_gamma 90.000000
_cell_volume 5395.055742
_symmetry_space_group_name_H-M "I M M A"
_symmetry_group_IT_number 74
_symmetry_cell_setting 'orthorhombic'
loop_
_space_group_symop_operation_xyz
x,y,z
-x,1/2-y,z
x,-y,-z
-x,1/2+y,-z
-x,-y,-z
x,1/2+y,-z
-x,y,z
x,1/2-y,z
1/2+x,1/2+y,1/2+z
1/2-x,-y,1/2+z
1/2+x,1/2-y,1/2-z
1/2-x,y,1/2-z
1/2-x,1/2-y,1/2-z
1/2+x,y,1/2-z
1/2-x,1/2+y,1/2+z
1/2+x,-y,1/2+z
loop_
_atom_site_type_symbol
_atom_site_label
_atom_site_fract_x
_atom_site_fract_y
_atom_site_fract_z
Si Si1 0.360466 0.048545 0.360860
Si Si2 0.650198 0.750000 0.240897
Si Si3 0.568963 0.664755 0.517229
Si Si4 0.182600 0.158880 0.293316
Si Si5 0.237259 0.586970 0.534621
Si Si6 0.929593 0.386171 0.811535
Si Si7 0.254772 0.750000 0.408399
O O1 0.402231 0.088357 0.436256
O O2 0.356572 0.104005 0.272185
O O3 0.295491 0.054341 0.408891
O O4 0.388150 0.964120 0.329924
O O5 0.606287 0.672370 0.243987
O O6 0.690820 0.750000 0.334101
O O7 0.695173 0.750000 0.155400
O O8 0.500000 0.667160 0.546285
O O9 0.599896 0.750000 0.543760
O O10 0.569340 0.657498 0.409445
O O11 0.159524 0.250000 0.295083
O O12 0.250000 0.160432 0.250000
O O13 0.191326 0.124661 0.393347
O O14 0.212426 0.500000 0.500000
O O15 0.254788 0.664422 0.467854
O O16 0.000000 0.402590 0.787951
#
# Coordination Sequence:
#
# PCOD9535636 Si02
#       7
#    16   8  16  16  16  16   8
#     4  11  21  32  55  81 112 150 186 231 284 344
#     4  11  23  38  58  84 116 155 196 248 291 345
#     4  10  19  31  49  76 109 144 182 223 274 341
#     4   9  19  35  53  77 110 150 190 228 283 347
#     4  11  22  36  55  81 117 153 189 239 291 350
#     4  11  22  38  57  84 118 156 198 241 291 350
#     4  11  24  38  59  86 121 156 201 240 298 352
#
# _framework density 17.794070000000001
#
# number of rings (size 3 to 8) (size 9 to 14) (size 15 to 20)
#    0.000    1.500    1.667    4.750    4.667    1.333 
#    0.000    0.000    0.000    0.000    0.000    5.833 
#    0.000    0.000    0.000    0.000    0.000    0.000 
#
# Total GULP energy -267420.378929 kJ/mol
# GULP energy per Si atom -5571.257894 kJ/mol
# Density = 1.775357 g / cm^3
# Si number density = 17.794070 Si / 1000 Ang^3
#
#
#
# Elastic Constant Matrix: (Units=GPa)
#
#
# Indices 1 2 3 4 5 6 
#
# 1 59.7275 27.6820 17.2952 0.0000 0.0000 0.0000
# 2 27.6820 141.2218 33.6839 0.0000 0.0000 0.0000
# 3 17.2952 33.6839 58.2374 0.0000 0.0000 0.0000
# 4 0.0000 0.0000 0.0000 -158.2059 0.0000 0.0000
# 5 0.0000 0.0000 0.0000 0.0000 20.2294 0.0000
# 6 0.0000 0.0000 0.0000 0.0000 0.0000 -49.0439
#
#
#
# Elastic Compliance Matrix: (Units=1/GPa)
#
#
# Indices 1 2 3 4 5 6 
#
# 1 0.019222 -0.002791 -0.004094 0.000000 0.000000 0.000000
# 2 -0.002791 0.008620 -0.004157 0.000000 0.000000 0.000000
# 3 -0.004094 -0.004157 0.020791 0.000000 0.000000 0.000000
# 4 0.000000 0.000000 0.000000 -0.006321 0.000000 0.000000
# 5 0.000000 0.000000 0.000000 0.000000 0.049433 0.000000
# 6 0.000000 0.000000 0.000000 0.000000 0.000000 -0.020390
#
#
# Mechanical properties :
#
#
# Convention : Reuss Voigt Hill
#
# Bulk Modulus (GPa) = 37.66650 46.27878 41.97264
# Shear Modulus (GPa) = 48.88147 -25.36904 11.75621
#
# Velocity S-wave (km/s) = 5.24693 -3.77994 2.57316
# Velocity P-wave (km/s) = 7.61059 2.64836 5.69802
#
# Compressibility (1/GPa) = 0.02654879
#
# Stress axis : x y z
#
# Youngs Moduli (GPa) = 52.02394 116.01433 48.09770
#
# Poissons Ratio (x) = 0.32384 0.19691
# Poissons Ratio (y) = 0.14522 0.19992
# Poissons Ratio (z) = 0.21299 0.48222
#
# Static dielectric constant tensor:
#      x y z
#    x 1.622420 0.000000 0.000000 
#    y 0.000000 1.713290 0.000000 
#    z 0.000000 0.000000 1.614250 
# 
# From -- ./inp_files/35306.got.cif
#   From: 2010.05.17/outbox.cif.g08.bks.cpg/sg74_18_cif.got.tgz:35306.got - 2010.06.03 17:57:02.
