data_PCOD9535928
_publ_section_title
;
Structure prediction by ZEFSAII (Michael W. Deem and Ramdas Pophale) SiO2 
 PCOD9535928
Probable space group: I M M A
;
_chemical_formula_sum "Si O2"
_cell_formula_units_Z 88
_cell_length_a 8.807567
_cell_length_b 31.664069
_cell_length_c 18.072022
_cell_angle_alpha 90.000000
_cell_angle_beta 90.000000
_cell_angle_gamma 90.000000
_cell_volume 5039.987107
_symmetry_space_group_name_H-M "I M M A"
_symmetry_group_IT_number 74
_symmetry_cell_setting 'orthorhombic'
loop_
_space_group_symop_operation_xyz
x,y,z
-x,1/2-y,z
x,-y,-z
-x,1/2+y,-z
-x,-y,-z
x,1/2+y,-z
-x,y,z
x,1/2-y,z
1/2+x,1/2+y,1/2+z
1/2-x,-y,1/2+z
1/2+x,1/2-y,1/2-z
1/2-x,y,1/2-z
1/2-x,1/2-y,1/2-z
1/2+x,y,1/2-z
1/2-x,1/2+y,1/2+z
1/2+x,-y,1/2+z
loop_
_atom_site_type_symbol
_atom_site_label
_atom_site_fract_x
_atom_site_fract_y
_atom_site_fract_z
Si Si1 0.677727 0.421829 0.171700
Si Si2 0.816760 0.452302 0.017706
Si Si3 0.679347 0.663923 0.906233
Si Si4 0.319975 0.867227 0.443787
Si Si5 0.682386 0.798341 0.167474
Si Si6 0.682115 0.250000 0.169370
O O1 0.500000 0.432166 0.172173
O O2 0.750000 0.433587 0.250000
O O3 0.754187 0.441424 0.098900
O O4 0.694085 0.371708 0.156540
O O5 0.000000 0.450538 0.020112
O O6 0.769729 0.500000 0.000000
O O7 0.769269 0.416302 0.957588
O O8 0.500000 0.664757 0.928037
O O9 0.726789 0.708488 0.874575
O O10 0.779213 0.652245 0.976527
O O11 0.500000 0.867209 0.429889
O O12 0.242541 0.836514 0.383739
O O13 0.500000 0.800501 0.170285
O O14 0.722346 0.750000 0.141436
O O15 0.750000 0.802617 0.250000
O O16 0.500000 0.250000 0.175030
O O17 0.750000 0.250000 0.250000
#
# Coordination Sequence:
#
# PCOD9535928 Si02
#       6
#    16  16  16  16  16   8
#     4  10  19  32  52  76 103 135 174 217 260 309
#     4   9  19  37  58  79 106 139 175 219 271 323
#     4   9  19  33  48  70 101 138 175 211 252 300
#     4  10  20  34  55  81 106 135 174 218 263 316
#     4  10  21  37  57  80 109 144 180 222 270 323
#     4  10  20  32  46  66  97 134 171 208 248 290
#
# _framework density 17.460362
#
# number of rings (size 3 to 8) (size 9 to 14) (size 15 to 20)
#    0.000    2.364    0.000    2.182    1.273    3.636 
#    0.000    0.909    0.000    0.000    0.000    0.000 
#    0.000    0.000    0.000    0.000    0.000    0.000 
#
# Total GULP energy -245219.256227 kJ/mol
# GULP energy per Si atom -5573.164914 kJ/mol
# Density = 1.742062 g / cm^3
# Si number density = 17.460362 Si / 1000 Ang^3
#
#
#
# Elastic Constant Matrix: (Units=GPa)
#
#
# Indices 1 2 3 4 5 6 
#
# 1 32.9059 39.7866 29.5278 0.0000 0.0000 0.0000
# 2 39.7866 156.2061 60.9195 0.0000 0.0000 0.0000
# 3 29.5278 60.9195 78.7903 0.0001 0.0000 0.0000
# 4 0.0000 0.0000 0.0001 14.4580 0.0000 0.0000
# 5 0.0000 0.0000 0.0000 0.0000 35.1784 0.0000
# 6 0.0000 0.0000 0.0000 0.0000 0.0000 19.7990
#
#
#
# Elastic Compliance Matrix: (Units=1/GPa)
#
#
# Indices 1 2 3 4 5 6 
#
# 1 0.052071 -0.008092 -0.013257 0.000000 0.000000 0.000000
# 2 -0.008092 0.010423 -0.005026 0.000000 0.000000 0.000000
# 3 -0.013257 -0.005026 0.021547 0.000000 0.000000 0.000000
# 4 0.000000 0.000000 0.000000 0.069166 0.000000 0.000000
# 5 0.000000 0.000000 0.000000 0.000000 0.028427 0.000000
# 6 0.000000 0.000000 0.000000 0.000000 0.000000 0.050508
#
#
# Mechanical properties :
#
#
# Convention : Reuss Voigt Hill
#
# Bulk Modulus (GPa) = 31.96080 58.70779 45.33430
# Shear Modulus (GPa) = 16.93069 23.06497 19.99783
#
# Velocity S-wave (km/s) = 3.11732 3.63849 3.38794
# Velocity P-wave (km/s) = 5.59477 7.16574 6.42843
#
# Compressibility (1/GPa) = 0.03128832
#
# Stress axis : x y z
#
# Youngs Moduli (GPa) = 19.20470 95.93958 46.41108
#
# Poissons Ratio (x) = 0.77638 0.61529
# Poissons Ratio (y) = 0.15541 0.23328
# Poissons Ratio (z) = 0.25460 0.48223
#
# Static dielectric constant tensor:
#      x y z
#    x 1.591260 0.000000 0.000000 
#    y 0.000000 1.627520 0.000000 
#    z 0.000000 0.000000 1.552030 
# 
# From -- ./inp_files/40109.got.cif
#   From: 2010.05.17/outbox.cif.g08.bks.cpg/sg74_21_cif.got.tgz:40109.got - 2010.06.03 17:57:02.
