data_PCOD9535603
_publ_section_title
;
Structure prediction by ZEFSAII (Michael W. Deem and Ramdas Pophale) SiO2 
 PCOD9535603
Probable space group: I M M A
;
_chemical_formula_sum "Si O2"
_cell_formula_units_Z 64
_cell_length_a 22.019794
_cell_length_b 17.843332
_cell_length_c 7.280564
_cell_angle_alpha 90.000000
_cell_angle_beta 90.000000
_cell_angle_gamma 90.000000
_cell_volume 2860.580882
_symmetry_space_group_name_H-M "I M M A"
_symmetry_group_IT_number 74
_symmetry_cell_setting 'orthorhombic'
loop_
_space_group_symop_operation_xyz
x,y,z
-x,1/2-y,z
x,-y,-z
-x,1/2+y,-z
-x,-y,-z
x,1/2+y,-z
-x,y,z
x,1/2-y,z
1/2+x,1/2+y,1/2+z
1/2-x,-y,1/2+z
1/2+x,1/2-y,1/2-z
1/2-x,y,1/2-z
1/2-x,1/2-y,1/2-z
1/2+x,y,1/2-z
1/2-x,1/2+y,1/2+z
1/2+x,-y,1/2+z
loop_
_atom_site_type_symbol
_atom_site_label
_atom_site_fract_x
_atom_site_fract_y
_atom_site_fract_z
Si Si1 0.000000 0.660818 0.421550
Si Si2 0.500000 0.409340 0.511850
Si Si3 0.744624 0.663656 0.026329
Si Si4 0.132036 0.911027 0.020657
Si Si5 0.878429 0.412548 0.541618
O O1 0.938350 0.632510 0.516384
O O2 0.000000 0.750000 0.400238
O O3 0.000000 0.620646 0.221284
O O4 0.500000 0.500000 0.500000
O O5 0.566668 0.387390 0.437889
O O6 0.736066 0.750000 0.976650
O O7 0.750000 0.660056 0.250000
O O8 0.808464 0.631942 0.955061
O O9 0.686048 0.616090 0.967908
O O10 0.126556 0.899592 0.239478
O O11 0.140698 0.000000 0.000000
O O12 0.886801 0.500000 0.500000
#
# Coordination Sequence:
#
# PCOD9535603 Si02
#       5
#     8   8  16  16  16
#     4  10  19  31  50  75  99 126 164 206 245 289
#     4   8  16  29  46  71  98 124 158 202 244 285
#     4   9  17  29  46  69  95 122 157 201 242 281
#     4   9  17  30  48  69  93 122 157 197 237 286
#     4  10  19  31  49  72  96 125 160 199 241 285
#
# _framework density 22.373078
#
# number of rings (size 3 to 8) (size 9 to 14) (size 15 to 20)
#    0.000    2.750    0.000    1.875    0.000    6.000 
#    0.000    0.000    0.000    4.500    0.000   38.500 
#    0.000    0.000    0.000    0.000    0.000    0.000 
#
# Total GULP energy -178591.828022 kJ/mol
# GULP energy per Si atom -5580.994626 kJ/mol
# Density = 2.232216 g / cm^3
# Si number density = 22.373078 Si / 1000 Ang^3
#
#
#
# Elastic Constant Matrix: (Units=GPa)
#
#
# Indices 1 2 3 4 5 6 
#
# 1 240.6735 94.2277 6.5276 0.0000 0.0000 0.0000
# 2 94.2277 101.2656 7.0730 0.0000 0.0000 0.0000
# 3 6.5276 7.0730 89.0558 0.0000 0.0000 0.0000
# 4 0.0000 0.0000 0.0000 19.0919 0.0000 0.0000
# 5 0.0000 0.0000 0.0000 0.0000 -64.9956 0.0000
# 6 0.0000 0.0000 0.0000 0.0000 0.0000 90.3175
#
#
#
# Elastic Compliance Matrix: (Units=1/GPa)
#
#
# Indices 1 2 3 4 5 6 
#
# 1 0.006536 -0.006082 0.000004 0.000000 0.000000 0.000000
# 2 -0.006082 0.015590 -0.000792 0.000000 0.000000 0.000000
# 3 0.000004 -0.000792 0.011292 0.000000 0.000000 0.000000
# 4 0.000000 0.000000 0.000000 0.052378 0.000000 0.000000
# 5 0.000000 0.000000 0.000000 0.000000 -0.015386 0.000000
# 6 0.000000 0.000000 0.000000 0.000000 0.000000 0.011072
#
#
# Mechanical properties :
#
#
# Convention : Reuss Voigt Hill
#
# Bulk Modulus (GPa) = 50.82230 71.85018 61.33624
# Shear Modulus (GPa) = 49.12455 30.42721 39.77588
#
# Velocity S-wave (km/s) = 4.69091 3.69181 4.22103
# Velocity P-wave (km/s) = 7.21836 7.09626 7.15757
#
# Compressibility (1/GPa) = 0.01967640
#
# Stress axis : x y z
#
# Youngs Moduli (GPa) = 152.99456 64.14432 88.56177
#
# Poissons Ratio (x) = 0.39014 -0.00035
# Poissons Ratio (y) = 0.93054 0.07017
# Poissons Ratio (z) = -0.00061 0.05083
#
# Static dielectric constant tensor:
#      x y z
#    x 1.862960 0.000000 0.000000 
#    y 0.000000 1.686270 0.000000 
#    z 0.000000 0.000000 1.827280 
# 
# From -- ./inp_files/10287.got.cif
#   From: 2010.05.17/outbox.cif.g08.bks.cpg/sg74_6_cif.got.tgz:10287.got - 2010.06.03 17:57:02.
