data_PCOD9535478
_publ_section_title
;
Structure prediction by ZEFSAII (Michael W. Deem and Ramdas Pophale) SiO2 
 PCOD9535478
Probable space group: I M M A
;
_chemical_formula_sum "Si O2"
_cell_formula_units_Z 120
_cell_length_a 27.620358
_cell_length_b 8.342022
_cell_length_c 30.103367
_cell_angle_alpha 90.000000
_cell_angle_beta 90.000000
_cell_angle_gamma 90.000000
_cell_volume 6936.105775
_symmetry_space_group_name_H-M "I M M A"
_symmetry_group_IT_number 74
_symmetry_cell_setting 'orthorhombic'
loop_
_space_group_symop_operation_xyz
x,y,z
-x,1/2-y,z
x,-y,-z
-x,1/2+y,-z
-x,-y,-z
x,1/2+y,-z
-x,y,z
x,1/2-y,z
1/2+x,1/2+y,1/2+z
1/2-x,-y,1/2+z
1/2+x,1/2-y,1/2-z
1/2-x,y,1/2-z
1/2-x,1/2-y,1/2-z
1/2+x,y,1/2-z
1/2-x,1/2+y,1/2+z
1/2+x,-y,1/2+z
loop_
_atom_site_type_symbol
_atom_site_label
_atom_site_fract_x
_atom_site_fract_y
_atom_site_fract_z
Si Si1 0.255701 0.558082 0.131538
Si Si2 0.693229 0.059139 0.448804
Si Si3 0.904835 0.057346 0.900736
Si Si4 0.000000 0.558714 0.048891
Si Si5 0.052851 0.942111 0.712581
Si Si6 0.162447 0.441890 0.310118
Si Si7 0.195582 0.065601 0.783130
Si Si8 0.904709 0.435478 0.195739
O O1 0.250432 0.750000 0.129196
O O2 0.236728 0.488300 0.085005
O O3 0.309613 0.513160 0.147583
O O4 0.222754 0.497296 0.173361
O O5 0.689042 0.250000 0.449961
O O6 0.698102 0.000000 0.500000
O O7 0.645216 0.988920 0.424769
O O8 0.904441 0.250000 0.893812
O O9 0.949941 0.005724 0.930133
O O10 0.915877 0.968559 0.854736
O O11 0.000000 0.750000 0.051941
O O12 0.000000 0.500000 0.000000
O O13 0.052474 0.750000 0.704476
O O14 0.106063 0.997807 0.695024
O O15 0.056386 0.964544 0.765915
O O16 0.000000 0.005057 0.697050
O O17 0.161922 0.250000 0.312636
O O18 0.194163 0.488081 0.266008
O O19 0.210034 0.250000 0.779030
O O20 0.139597 0.052322 0.795243
O O21 0.888575 0.250000 0.201829
#
# Coordination Sequence:
#
# PCOD9535478 Si02
#       8
#    16  16  16   8  16  16  16  16
#     4  11  22  36  54  77 108 142 176 216 268 322
#     4  12  25  41  61  82 105 135 176 221 273 329
#     4  11  22  38  55  74 101 132 172 221 274 325
#     4  10  24  40  54  70  92 122 164 218 274 326
#     4   8  16  31  49  72 105 141 179 220 261 308
#     4  10  20  32  51  78 108 141 182 223 264 314
#     4  10  19  32  50  71 102 138 173 212 259 314
#     4  10  19  30  49  75  99 131 175 220 264 309
#
# _framework density 17.300773
#
# number of rings (size 3 to 8) (size 9 to 14) (size 15 to 20)
#    0.000    1.733    1.333    4.800    0.933    5.333 
#    0.000    0.000    0.000    8.000    0.000    0.000 
#    0.000    0.533    0.000    1.467    0.000    2.133 
#
# Total GULP energy -334279.377822 kJ/mol
# GULP energy per Si atom -5571.322964 kJ/mol
# Density = 1.726140 g / cm^3
# Si number density = 17.300773 Si / 1000 Ang^3
#
#
#
# Elastic Constant Matrix: (Units=GPa)
#
#
# Indices 1 2 3 4 5 6 
#
# 1 91.8521 7.5988 48.4822 0.0000 0.0000 0.0000
# 2 7.5988 41.3631 10.5096 0.0000 0.0000 0.0000
# 3 48.4822 10.5096 67.9836 0.0000 0.0000 0.0000
# 4 0.0000 0.0000 0.0000 25.4108 0.0000 0.0000
# 5 0.0000 0.0000 0.0000 0.0000 106.3185 0.0000
# 6 0.0000 0.0000 0.0000 0.0000 0.0000 -15.7506
#
#
#
# Elastic Compliance Matrix: (Units=1/GPa)
#
#
# Indices 1 2 3 4 5 6 
#
# 1 0.017459 -0.000046 -0.012444 0.000000 0.000000 0.000000
# 2 -0.000046 0.025165 -0.003858 0.000000 0.000000 0.000000
# 3 -0.012444 -0.003858 0.024180 0.000000 0.000000 0.000000
# 4 0.000000 0.000000 0.000000 0.039353 0.000000 0.000000
# 5 0.000000 0.000000 0.000000 0.000000 0.009406 0.000000
# 6 0.000000 0.000000 0.000000 0.000000 0.000000 -0.063490
#
#
# Mechanical properties :
#
#
# Convention : Reuss Voigt Hill
#
# Bulk Modulus (GPa) = 29.31728 37.15331 33.23529
# Shear Modulus (GPa) = 52.00907 32.16962 42.08934
#
# Velocity S-wave (km/s) = 5.48880 4.31679 4.93769
# Velocity P-wave (km/s) = 7.55988 6.80939 7.19443
#
# Compressibility (1/GPa) = 0.03410958
#
# Stress axis : x y z
#
# Youngs Moduli (GPa) = 57.27700 39.73820 41.35649
#
# Poissons Ratio (x) = 0.00181 0.51463
# Poissons Ratio (y) = 0.00261 0.15954
# Poissons Ratio (z) = 0.71274 0.15330
#
# Static dielectric constant tensor:
#      x y z
#    x 1.630300 0.000000 0.000000 
#    y 0.000000 1.601750 0.000000 
#    z 0.000000 0.000000 1.614300 
# 
# From -- ./inp_files/69035.got.cif
#   From: 2010.05.17/outbox.cif.g08.bks.cpg/sg74_35_cif.got.tgz:69035.got - 2010.06.03 17:57:02.
