data_PCOD9535188
_publ_section_title
;
Structure prediction by ZEFSAII (Michael W. Deem and Ramdas Pophale) SiO2 
 PCOD9535188
Probable space group: I M M A
;
_chemical_formula_sum "Si O2"
_cell_formula_units_Z 88
_cell_length_a 18.549189
_cell_length_b 14.217010
_cell_length_c 15.346990
_cell_angle_alpha 90.000000
_cell_angle_beta 90.000000
_cell_angle_gamma 90.000000
_cell_volume 4047.216205
_symmetry_space_group_name_H-M "I M M A"
_symmetry_group_IT_number 74
_symmetry_cell_setting 'orthorhombic'
loop_
_space_group_symop_operation_xyz
x,y,z
-x,1/2-y,z
x,-y,-z
-x,1/2+y,-z
-x,-y,-z
x,1/2+y,-z
-x,y,z
x,1/2-y,z
1/2+x,1/2+y,1/2+z
1/2-x,-y,1/2+z
1/2+x,1/2-y,1/2-z
1/2-x,y,1/2-z
1/2-x,1/2-y,1/2-z
1/2+x,y,1/2-z
1/2-x,1/2+y,1/2+z
1/2+x,-y,1/2+z
loop_
_atom_site_type_symbol
_atom_site_label
_atom_site_fract_x
_atom_site_fract_y
_atom_site_fract_z
Si Si1 0.500000 0.387725 0.509577
Si Si2 0.621620 0.995012 0.250992
Si Si3 0.000000 0.638840 0.325616
Si Si4 0.000000 0.356864 0.193500
Si Si5 0.654816 0.087514 0.567897
Si Si6 0.000000 0.861110 0.535254
Si Si7 0.255869 0.250000 0.008008
Si Si8 0.342190 0.072371 0.077751
O O1 0.500000 0.500000 0.500000
O O2 0.500000 0.350837 0.411382
O O3 0.425534 0.367404 0.557780
O O4 0.569701 0.082101 0.279322
O O5 0.671389 0.028576 0.172109
O O6 0.569364 0.913568 0.213312
O O7 0.659962 0.955508 0.336201
O O8 0.000000 0.750000 0.306882
O O9 0.000000 0.627710 0.430451
O O10 0.000000 0.250000 0.228352
O O11 0.711319 0.167016 0.544221
O O12 0.658780 0.000000 0.500000
O O13 0.928083 0.906719 0.573011
O O14 0.000000 0.750000 0.552849
O O15 0.300665 0.167779 0.060482
O O16 0.326761 0.000000 0.000000
#
# Coordination Sequence:
#
# PCOD9535188 Si02
#       8
#     8  16   8   8  16   8   8  16
#     4  10  18  41  73  98 140 173 240 297 369 407
#     4  11  23  42  73 105 150 186 244 315 383 429
#     4  10  21  37  69 119 147 180 242 314 381 453
#     4  11  22  36  69 120 150 183 231 313 379 462
#     4  11  24  49  73 108 143 193 245 317 365 454
#     4  11  20  41  78 107 144 183 244 307 374 431
#     4  12  30  48  76  98 154 206 254 286 386 460
#     4  12  25  48  72 110 143 194 242 316 369 457
#
# _framework density 21.74334
#
# number of rings (size 3 to 8) (size 9 to 14) (size 15 to 20)
#    0.000    0.909    6.364    2.455    3.818    0.727 
#    0.000    5.455    0.000    0.000    0.000    0.000 
#    0.000    0.000    0.000    0.000    0.000    0.000 
#
# Total GULP energy -245234.473695 kJ/mol
# GULP energy per Si atom -5573.510766 kJ/mol
# Density = 2.169385 g / cm^3
# Si number density = 21.743340 Si / 1000 Ang^3
#
#
#
# Elastic Constant Matrix: (Units=GPa)
#
#
# Indices 1 2 3 4 5 6 
#
# 1 83.0927 46.8189 61.1296 0.0000 0.0000 0.0000
# 2 46.8189 188.6495 81.9888 0.0000 0.0000 0.0000
# 3 61.1296 81.9888 186.8877 0.0000 0.0000 0.0000
# 4 0.0000 0.0000 0.0000 25.3727 0.0000 0.0000
# 5 0.0000 0.0000 0.0000 0.0000 -16.1264 0.0000
# 6 0.0000 0.0000 0.0000 0.0000 0.0000 28.8039
#
#
#
# Elastic Compliance Matrix: (Units=1/GPa)
#
#
# Indices 1 2 3 4 5 6 
#
# 1 0.016535 -0.002166 -0.004458 0.000000 0.000000 0.000000
# 2 -0.002166 0.006833 -0.002289 0.000000 0.000000 0.000000
# 3 -0.004458 -0.002289 0.007813 0.000000 0.000000 0.000000
# 4 0.000000 0.000000 0.000000 0.039412 0.000000 0.000000
# 5 0.000000 0.000000 0.000000 0.000000 -0.062010 0.000000
# 6 0.000000 0.000000 0.000000 0.000000 0.000000 0.034718
#
#
# Mechanical properties :
#
#
# Convention : Reuss Voigt Hill
#
# Bulk Modulus (GPa) = 74.88076 93.16718 84.02397
# Shear Modulus (GPa) = 76.24204 25.52287 50.88246
#
# Velocity S-wave (km/s) = 5.92796 3.42983 4.84275
# Velocity P-wave (km/s) = 9.02039 7.65680 8.36642
#
# Compressibility (1/GPa) = 0.01335457
#
# Stress axis : x y z
#
# Youngs Moduli (GPa) = 60.47752 146.34054 127.98513
#
# Poissons Ratio (x) = 0.31698 0.57059
# Poissons Ratio (y) = 0.13100 0.29300
# Poissons Ratio (z) = 0.26962 0.33502
#
# Static dielectric constant tensor:
#      x y z
#    x 1.824040 0.000000 0.000000 
#    y 0.000000 1.753090 0.000000 
#    z 0.000000 0.000000 1.784910 
# 
# From -- ./inp_files/35219.got.cif
#   From: 2010.05.17/outbox.cif.g08.bks.cpg/sg74_18_cif.got.tgz:35219.got - 2010.06.03 17:57:02.
