data_PCOD9535533
_publ_section_title
;
Structure prediction by ZEFSAII (Michael W. Deem and Ramdas Pophale) SiO2 
 PCOD9535533
Probable space group: I M M A
;
_chemical_formula_sum "Si O2"
_cell_formula_units_Z 80
_cell_length_a 8.752246
_cell_length_b 24.251457
_cell_length_c 26.326531
_cell_angle_alpha 90.000000
_cell_angle_beta 90.000000
_cell_angle_gamma 90.000000
_cell_volume 5587.930401
_symmetry_space_group_name_H-M "I M M A"
_symmetry_group_IT_number 74
_symmetry_cell_setting 'orthorhombic'
loop_
_space_group_symop_operation_xyz
x,y,z
-x,1/2-y,z
x,-y,-z
-x,1/2+y,-z
-x,-y,-z
x,1/2+y,-z
-x,y,z
x,1/2-y,z
1/2+x,1/2+y,1/2+z
1/2-x,-y,1/2+z
1/2+x,1/2-y,1/2-z
1/2-x,y,1/2-z
1/2-x,1/2-y,1/2-z
1/2+x,y,1/2-z
1/2-x,1/2+y,1/2+z
1/2+x,-y,1/2+z
loop_
_atom_site_type_symbol
_atom_site_label
_atom_site_fract_x
_atom_site_fract_y
_atom_site_fract_z
Si Si1 0.176025 0.031167 0.054618
Si Si2 0.680969 0.069233 0.894989
Si Si3 0.317088 0.750000 0.146620
Si Si4 0.682529 0.138132 0.694074
Si Si5 0.682456 0.750000 0.025477
Si Si6 0.315991 0.632952 0.492565
O O1 0.000000 0.031258 0.072285
O O2 0.276695 0.993713 0.091316
O O3 0.225139 0.092836 0.039657
O O4 0.177413 0.000000 0.000000
O O5 0.500000 0.076814 0.891466
O O6 0.760884 0.090942 0.844324
O O7 0.744261 0.106273 0.941686
O O8 0.500000 0.750000 0.153899
O O9 0.246188 0.695689 0.171715
O O10 0.286289 0.750000 0.086244
O O11 0.500000 0.140005 0.695699
O O12 0.750000 0.130106 0.750000
O O13 0.500000 0.750000 0.018879
O O14 0.755181 0.805371 0.003022
O O15 0.500000 0.631690 0.487611
#
# Coordination Sequence:
#
# PCOD9535533 Si02
#       6
#    16  16   8  16   8  16
#     4   8  16  30  46  65  86 112 144 179 219 267
#     4  11  20  31  47  67  88 112 145 185 227 270
#     4  11  22  36  49  65  87 115 152 193 233 273
#     4  12  24  37  51  65  85 115 151 193 234 273
#     4  11  21  30  46  67  92 119 151 190 227 268
#     4  10  19  31  47  65  88 117 150 182 221 268
#
# _framework density 14.31657
#
# number of rings (size 3 to 8) (size 9 to 14) (size 15 to 20)
#    0.000    1.600    2.000    6.300    0.000    5.200 
#    0.000    0.000    0.000    0.000    0.000    0.000 
#    0.000    0.000    0.000    0.900    0.000   11.800 
#
# Total GULP energy -223276.909971 kJ/mol
# GULP energy per Si atom -5581.922749 kJ/mol
# Density = 1.428398 g / cm^3
# Si number density = 14.316570 Si / 1000 Ang^3
#
#
#
# Elastic Constant Matrix: (Units=GPa)
#
#
# Indices 1 2 3 4 5 6 
#
# 1 95.9807 50.4178 38.6233 0.0000 0.0000 0.0000
# 2 50.4178 118.5969 50.3968 0.0000 0.0000 0.0000
# 3 38.6233 50.3968 52.5596 0.0000 0.0000 0.0000
# 4 0.0000 0.0000 0.0000 8.9219 0.0000 0.0000
# 5 0.0000 0.0000 0.0000 0.0000 19.2594 0.0000
# 6 0.0000 0.0000 0.0000 0.0000 0.0000 21.8909
#
#
#
# Elastic Compliance Matrix: (Units=1/GPa)
#
#
# Indices 1 2 3 4 5 6 
#
# 1 0.015373 -0.002928 -0.008489 0.000000 0.000000 0.000000
# 2 -0.002928 0.014788 -0.012028 0.000000 0.000000 0.000000
# 3 -0.008489 -0.012028 0.036797 0.000000 0.000000 0.000000
# 4 0.000000 0.000000 0.000000 0.112084 0.000000 0.000000
# 5 0.000000 0.000000 0.000000 0.000000 0.051923 0.000000
# 6 0.000000 0.000000 0.000000 0.000000 0.000000 0.045681
#
#
# Mechanical properties :
#
#
# Convention : Reuss Voigt Hill
#
# Bulk Modulus (GPa) = 49.83063 60.66811 55.24937
# Shear Modulus (GPa) = 15.14121 18.52772 16.83447
#
# Velocity S-wave (km/s) = 3.25561 3.60133 3.43282
# Velocity P-wave (km/s) = 7.00098 7.73052 7.37478
#
# Compressibility (1/GPa) = 0.02006798
#
# Stress axis : x y z
#
# Youngs Moduli (GPa) = 65.04944 67.62394 27.17594
#
# Poissons Ratio (x) = 0.19799 0.23071
# Poissons Ratio (y) = 0.19045 0.32686
# Poissons Ratio (z) = 0.55223 0.81336
#
# Static dielectric constant tensor:
#      x y z
#    x 1.476250 0.000000 0.000000 
#    y 0.000000 1.491390 0.000000 
#    z 0.000000 0.000000 1.446340 
# 
# From -- ./inp_files/48621.got.cif
#   From: 2010.05.17/outbox.cif.g08.bks.cpg/sg74_25_cif.got.tgz:48621.got - 2010.06.03 17:57:02.
