data_PCOD9535383
_publ_section_title
;
Structure prediction by ZEFSAII (Michael W. Deem and Ramdas Pophale) SiO2 
 PCOD9535383
Probable space group: I M M A
;
_chemical_formula_sum "Si O2"
_cell_formula_units_Z 100
_cell_length_a 14.969927
_cell_length_b 20.423648
_cell_length_c 12.540457
_cell_angle_alpha 90.000000
_cell_angle_beta 90.000000
_cell_angle_gamma 90.000000
_cell_volume 3834.125840
_symmetry_space_group_name_H-M "I M M A"
_symmetry_group_IT_number 74
_symmetry_cell_setting 'orthorhombic'
loop_
_space_group_symop_operation_xyz
x,y,z
-x,1/2-y,z
x,-y,-z
-x,1/2+y,-z
-x,-y,-z
x,1/2+y,-z
-x,y,z
x,1/2-y,z
1/2+x,1/2+y,1/2+z
1/2-x,-y,1/2+z
1/2+x,1/2-y,1/2-z
1/2-x,y,1/2-z
1/2-x,1/2-y,1/2-z
1/2+x,y,1/2-z
1/2-x,1/2+y,1/2+z
1/2+x,-y,1/2+z
loop_
_atom_site_type_symbol
_atom_site_label
_atom_site_fract_x
_atom_site_fract_y
_atom_site_fract_z
Si Si1 0.106561 0.372686 0.625588
Si Si2 0.647869 0.175636 0.417979
Si Si3 0.095779 0.529464 0.879161
Si Si4 0.206506 0.506151 0.627041
Si Si5 0.653343 0.347168 0.114685
Si Si6 0.899456 0.173057 0.850396
Si Si7 0.500000 0.250000 0.187179
O O1 0.140505 0.445936 0.637501
O O2 0.134360 0.342071 0.512668
O O3 0.139711 0.341269 0.735371
O O4 0.000000 0.367806 0.627054
O O5 0.607378 0.250000 0.407085
O O6 0.601138 0.108931 0.379696
O O7 0.746058 0.177366 0.369865
O O8 0.656514 0.158484 0.544511
O O9 0.190379 0.505173 0.829319
O O10 0.000000 0.510760 0.829093
O O11 0.092306 0.500000 0.000000
O O12 0.226244 0.500000 0.500000
O O13 0.158707 0.576026 0.641563
O O14 0.578878 0.306760 0.175996
O O15 0.910447 0.250000 0.853449
O O16 0.000000 0.143768 0.863329
#
# Coordination Sequence:
#
# PCOD9535383 Si02
#       7
#    16  16  16  16  16  16   4
#     4  10  19  30  46  64  90 125 167 206 238 282
#     4  10  19  33  48  72 100 132 167 204 243 291
#     4   9  17  31  50  68  91 123 158 203 253 294
#     4   8  17  31  45  66  85 116 165 202 246 290
#     4  10  20  29  44  64  92 128 166 204 246 292
#     4   9  19  31  47  70  98 131 168 200 241 291
#     4  12  20  28  42  66  94 132 166 206 246 296
#
# _framework density 26.081562999999999
#
# number of rings (size 3 to 8) (size 9 to 14) (size 15 to 20)
#    0.000    2.560    1.600    1.440    2.240    2.560 
#    0.000    1.600    0.000    0.000    2.080    0.000 
#    0.000    0.000    2.720    5.120    1.600    9.920 
#
# Total GULP energy -279147.025701 kJ/mol
# GULP energy per Si atom -5582.940514 kJ/mol
# Density = 2.602220 g / cm^3
# Si number density = 26.081563 Si / 1000 Ang^3
#
#
#
# Elastic Constant Matrix: (Units=GPa)
#
#
# Indices 1 2 3 4 5 6 
#
# 1 145.3488 12.4239 3.8527 0.0000 0.0000 0.0000
# 2 12.4239 116.0538 3.7364 0.0000 0.0000 0.0000
# 3 3.8527 3.7364 105.9206 0.0000 0.0000 0.0000
# 4 0.0000 0.0000 0.0000 37.1268 0.0000 0.0000
# 5 0.0000 0.0000 0.0000 0.0000 35.0909 0.0000
# 6 0.0000 0.0000 0.0000 0.0000 0.0000 15.9224
#
#
#
# Elastic Compliance Matrix: (Units=1/GPa)
#
#
# Indices 1 2 3 4 5 6 
#
# 1 0.006949 -0.000737 -0.000227 0.000000 0.000000 0.000000
# 2 -0.000737 0.008705 -0.000280 0.000000 0.000000 0.000000
# 3 -0.000227 -0.000280 0.009459 0.000000 0.000000 0.000000
# 4 0.000000 0.000000 0.000000 0.026935 0.000000 0.000000
# 5 0.000000 0.000000 0.000000 0.000000 0.028497 0.000000
# 6 0.000000 0.000000 0.000000 0.000000 0.000000 0.062804
#
#
# Mechanical properties :
#
#
# Convention : Reuss Voigt Hill
#
# Bulk Modulus (GPa) = 44.19807 45.26102 44.72954
# Shear Modulus (GPa) = 32.59910 40.78203 36.69057
#
# Velocity S-wave (km/s) = 3.53921 3.95857 3.75475
# Velocity P-wave (km/s) = 5.80382 6.18749 5.99872
#
# Compressibility (1/GPa) = 0.02262542
#
# Stress axis : x y z
#
# Youngs Moduli (GPa) = 143.90606 114.88211 105.71755
#
# Poissons Ratio (x) = 0.08462 0.02397
# Poissons Ratio (y) = 0.10600 0.02963
# Poissons Ratio (z) = 0.03263 0.03220
#
# Static dielectric constant tensor:
#      x y z
#    x 2.024100 0.000000 0.000000 
#    y 0.000000 1.978320 0.000000 
#    z 0.000000 0.000000 2.195670 
# 
# From -- ./inp_files/43016.got.cif
#   From: 2010.05.17/outbox.cif.g08.bks.cpg/sg74_22_cif.got.tgz:43016.got - 2010.06.03 17:57:02.
