data_PCOD9535046
_publ_section_title
;
Structure prediction by ZEFSAII (Michael W. Deem and Ramdas Pophale) SiO2 
 PCOD9535046
Probable space group: I M M A
;
_chemical_formula_sum "Si O2"
_cell_formula_units_Z 96
_cell_length_a 11.867681
_cell_length_b 13.967336
_cell_length_c 26.568771
_cell_angle_alpha 90.000000
_cell_angle_beta 90.000000
_cell_angle_gamma 90.000000
_cell_volume 4404.036507
_symmetry_space_group_name_H-M "I M M A"
_symmetry_group_IT_number 74
_symmetry_cell_setting 'orthorhombic'
loop_
_space_group_symop_operation_xyz
x,y,z
-x,1/2-y,z
x,-y,-z
-x,1/2+y,-z
-x,-y,-z
x,1/2+y,-z
-x,y,z
x,1/2-y,z
1/2+x,1/2+y,1/2+z
1/2-x,-y,1/2+z
1/2+x,1/2-y,1/2-z
1/2-x,y,1/2-z
1/2-x,1/2-y,1/2-z
1/2+x,y,1/2-z
1/2-x,1/2+y,1/2+z
1/2+x,-y,1/2+z
loop_
_atom_site_type_symbol
_atom_site_label
_atom_site_fract_x
_atom_site_fract_y
_atom_site_fract_z
Si Si1 0.625771 0.855852 0.717035
Si Si2 0.500000 0.366513 0.425826
Si Si3 0.240688 0.859377 0.884731
Si Si4 0.631367 0.927928 0.273201
Si Si5 0.804956 0.635909 0.115782
Si Si6 0.632547 0.483368 0.941984
Si Si7 0.000000 0.365202 0.960713
O O1 0.500000 0.854850 0.692805
O O2 0.631116 0.750000 0.742149
O O3 0.723086 0.859030 0.675178
O O4 0.628715 0.959567 0.742782
O O5 0.500000 0.250000 0.422326
O O6 0.619213 0.396380 0.403411
O O7 0.500000 0.400160 0.483019
O O8 0.255137 0.750000 0.901226
O O9 0.335442 0.923669 0.909161
O O10 0.500000 0.892533 0.263550
O O11 0.750000 0.887081 0.250000
O O12 0.655389 0.915013 0.332784
O O13 0.806124 0.750000 0.124987
O O14 0.689326 0.600611 0.090896
O O15 0.892958 0.610720 0.072289
O O16 0.500000 0.468124 0.944784
O O17 0.673280 0.500000 0.000000
O O18 0.000000 0.250000 0.965251
#
# Coordination Sequence:
#
# PCOD9535046 Si02
#       7
#    16   8  16  16  16  16   8
#     4   9  17  34  61  92 127 164 199 248 316 387
#     4   9  16  27  53  95 128 155 197 246 299 369
#     4  10  18  33  58  88 124 160 201 251 305 369
#     4  11  24  43  68  98 131 168 216 278 343 404
#     4  11  23  43  67  91 123 166 214 270 331 384
#     4  11  25  41  58  87 128 174 221 261 307 379
#     4   9  18  33  57  89 122 153 195 252 314 371
#
# _framework density 21.798185
#
# number of rings (size 3 to 8) (size 9 to 14) (size 15 to 20)
#    0.000    1.833    3.333    1.000    0.000    4.667 
#    0.000    3.333    0.000    0.000    0.000    0.000 
#    0.000    0.000    0.000    0.000    0.000    0.000 
#
# Total GULP energy -267462.481186 kJ/mol
# GULP energy per Si atom -5572.135025 kJ/mol
# Density = 2.174857 g / cm^3
# Si number density = 21.798185 Si / 1000 Ang^3
#
#
#
# Elastic Constant Matrix: (Units=GPa)
#
#
# Indices 1 2 3 4 5 6 
#
# 1 118.3467 8.4024 41.8152 0.0000 0.0000 0.0000
# 2 8.4024 90.8308 -12.2621 0.0000 0.0000 0.0000
# 3 41.8152 -12.2621 42.8035 0.0000 0.0000 0.0000
# 4 0.0000 0.0000 0.0000 17.4667 0.0000 0.0000
# 5 0.0000 0.0000 0.0000 0.0000 30.3784 0.0000
# 6 0.0000 0.0000 0.0000 0.0000 0.0000 20.2946
#
#
#
# Elastic Compliance Matrix: (Units=1/GPa)
#
#
# Indices 1 2 3 4 5 6 
#
# 1 0.013748 -0.003209 -0.014350 0.000000 0.000000 0.000000
# 2 -0.003209 0.012201 0.006630 0.000000 0.000000 0.000000
# 3 -0.014350 0.006630 0.039280 0.000000 0.000000 0.000000
# 4 0.000000 0.000000 0.000000 0.057252 0.000000 0.000000
# 5 0.000000 0.000000 0.000000 0.000000 0.032918 0.000000
# 6 0.000000 0.000000 0.000000 0.000000 0.000000 0.049274
#
#
# Mechanical properties :
#
#
# Convention : Reuss Voigt Hill
#
# Bulk Modulus (GPa) = 23.05591 36.43244 29.74418
# Shear Modulus (GPa) = 20.74799 27.89633 24.32216
#
# Velocity S-wave (km/s) = 3.08851 3.58125 3.34397
# Velocity P-wave (km/s) = 4.82892 5.81810 5.34643
#
# Compressibility (1/GPa) = 0.04337282
#
# Stress axis : x y z
#
# Youngs Moduli (GPa) = 72.73963 81.95779 25.45812
#
# Poissons Ratio (x) = 0.26300 0.36531
# Poissons Ratio (y) = 0.23342 -0.16879
# Poissons Ratio (z) = 1.04378 -0.54340
#
# Static dielectric constant tensor:
#      x y z
#    x 1.841110 0.000000 0.000000 
#    y 0.000000 1.835160 0.000000 
#    z 0.000000 0.000000 1.809020 
# 
# From -- ./inp_files/71809.got.cif
#   From: 2010.05.17/outbox.cif.g08.bks.cpg/sg74_36_cif.got.tgz:71809.got - 2010.06.03 17:57:02.
