data_PCOD9535605
_publ_section_title
;
Structure prediction by ZEFSAII (Michael W. Deem and Ramdas Pophale) SiO2 
 PCOD9535605
Probable space group: I M M A
;
_chemical_formula_sum "Si O2"
_cell_formula_units_Z 72
_cell_length_a 16.794431
_cell_length_b 7.929368
_cell_length_c 28.095431
_cell_angle_alpha 90.000000
_cell_angle_beta 90.000000
_cell_angle_gamma 90.000000
_cell_volume 3741.446737
_symmetry_space_group_name_H-M "I M M A"
_symmetry_group_IT_number 74
_symmetry_cell_setting 'orthorhombic'
loop_
_space_group_symop_operation_xyz
x,y,z
-x,1/2-y,z
x,-y,-z
-x,1/2+y,-z
-x,-y,-z
x,1/2+y,-z
-x,y,z
x,1/2-y,z
1/2+x,1/2+y,1/2+z
1/2-x,-y,1/2+z
1/2+x,1/2-y,1/2-z
1/2-x,y,1/2-z
1/2-x,1/2-y,1/2-z
1/2+x,y,1/2-z
1/2-x,1/2+y,1/2+z
1/2+x,-y,1/2+z
loop_
_atom_site_type_symbol
_atom_site_label
_atom_site_fract_x
_atom_site_fract_y
_atom_site_fract_z
Si Si1 0.175639 0.951398 0.054322
Si Si2 0.254627 0.954013 0.695624
Si Si3 0.337257 0.047338 0.895040
Si Si4 0.586882 0.549818 0.644154
Si Si5 0.500000 0.954030 0.055839
O O1 0.174529 0.750000 0.058830
O O2 0.261465 0.013899 0.074003
O O3 0.108583 0.023417 0.089069
O O4 0.165206 0.000000 0.000000
O O5 0.256402 0.750000 0.695909
O O6 0.250000 0.012018 0.750000
O O7 0.337380 0.018969 0.672888
O O8 0.183953 0.003308 0.659500
O O9 0.338820 0.250000 0.898402
O O10 0.420160 0.984737 0.917188
O O11 0.500000 0.478668 0.655674
O O12 0.584499 0.750000 0.653427
O O13 0.500000 0.750000 0.058251
O O14 0.500000 0.000000 0.000000
#
# Coordination Sequence:
#
# PCOD9535605 Si02
#       5
#    16  16  16  16   8
#     4  10  19  31  49  72  98 130 165 201 242 290
#     4   9  18  34  54  76 100 128 165 209 254 300
#     4   9  19  34  51  73 102 135 170 208 249 300
#     4   9  18  33  51  70  96 129 162 199 242 289
#     4  10  20  34  52  76 108 140 174 214 257 306
#
# _framework density 19.243891999999999
#
# number of rings (size 3 to 8) (size 9 to 14) (size 15 to 20)
#    0.000    2.667    0.000    1.333    0.000    3.111 
#    2.000    0.000    0.000    0.000    0.000    0.000 
#    0.000    0.000    0.000    0.000    0.000    0.000 
#
# Total GULP energy -200747.346697 kJ/mol
# GULP energy per Si atom -5576.315186 kJ/mol
# Density = 1.920009 g / cm^3
# Si number density = 19.243892 Si / 1000 Ang^3
#
#
#
# Elastic Constant Matrix: (Units=GPa)
#
#
# Indices 1 2 3 4 5 6 
#
# 1 132.8346 6.8143 63.4718 0.0000 0.0000 0.0000
# 2 6.8143 15.4728 -9.1061 0.0000 0.0000 0.0000
# 3 63.4718 -9.1061 151.2593 0.0000 0.0000 0.0000
# 4 0.0000 0.0000 0.0000 19.7667 0.0000 0.0000
# 5 0.0000 0.0000 0.0000 0.0000 16.7095 0.0000
# 6 0.0000 0.0000 0.0000 0.0000 0.0000 14.9337
#
#
#
# Elastic Compliance Matrix: (Units=1/GPa)
#
#
# Indices 1 2 3 4 5 6 
#
# 1 0.010140 -0.007226 -0.004690 0.000000 0.000000 0.000000
# 2 -0.007226 0.072153 0.007376 0.000000 0.000000 0.000000
# 3 -0.004690 0.007376 0.009023 0.000000 0.000000 0.000000
# 4 0.000000 0.000000 0.000000 0.050590 0.000000 0.000000
# 5 0.000000 0.000000 0.000000 0.000000 0.059846 0.000000
# 6 0.000000 0.000000 0.000000 0.000000 0.000000 0.066963
#
#
# Mechanical properties :
#
#
# Convention : Reuss Voigt Hill
#
# Bulk Modulus (GPa) = 12.16014 46.88075 29.52045
# Shear Modulus (GPa) = 16.38236 26.17441 21.27839
#
# Velocity S-wave (km/s) = 2.92087 3.69201 3.32885
# Velocity P-wave (km/s) = 4.20809 6.52601 5.49076
#
# Compressibility (1/GPa) = 0.08223590
#
# Stress axis : x y z
#
# Youngs Moduli (GPa) = 98.62146 13.85952 110.82568
#
# Poissons Ratio (x) = 0.10015 0.51976
# Poissons Ratio (y) = 0.71261 -0.81743
# Poissons Ratio (z) = 0.46252 -0.10222
#
# Static dielectric constant tensor:
#      x y z
#    x 1.691540 0.000000 0.000000 
#    y 0.000000 1.689630 0.000000 
#    z 0.000000 0.000000 1.646470 
# 
# From -- ./inp_files/63602.got.cif
#   From: 2010.05.17/outbox.cif.g08.bks.cpg/sg74_32_cif.got.tgz:63602.got - 2010.06.03 17:57:02.
