data_PCOD9535556
_publ_section_title
;
Structure prediction by ZEFSAII (Michael W. Deem and Ramdas Pophale) SiO2 
 PCOD9535556
Probable space group: I M M A
;
_chemical_formula_sum "Si O2"
_cell_formula_units_Z 96
_cell_length_a 15.593452
_cell_length_b 25.650447
_cell_length_c 13.550608
_cell_angle_alpha 90.000000
_cell_angle_beta 90.000000
_cell_angle_gamma 90.000000
_cell_volume 5419.958828
_symmetry_space_group_name_H-M "I M M A"
_symmetry_group_IT_number 74
_symmetry_cell_setting 'orthorhombic'
loop_
_space_group_symop_operation_xyz
x,y,z
-x,1/2-y,z
x,-y,-z
-x,1/2+y,-z
-x,-y,-z
x,1/2+y,-z
-x,y,z
x,1/2-y,z
1/2+x,1/2+y,1/2+z
1/2-x,-y,1/2+z
1/2+x,1/2-y,1/2-z
1/2-x,y,1/2-z
1/2-x,1/2-y,1/2-z
1/2+x,y,1/2-z
1/2-x,1/2+y,1/2+z
1/2+x,-y,1/2+z
loop_
_atom_site_type_symbol
_atom_site_label
_atom_site_fract_x
_atom_site_fract_y
_atom_site_fract_z
Si Si1 0.771039 0.421301 0.853241
Si Si2 0.409700 0.555518 0.053225
Si Si3 0.401887 0.516801 0.680166
Si Si4 0.364737 0.402573 0.146248
Si Si5 0.350603 0.691298 0.718294
Si Si6 0.826413 0.608533 0.936319
O O1 0.750000 0.393051 0.750000
O O2 0.677404 0.440078 0.887927
O O3 0.833712 0.470344 0.832601
O O4 0.809357 0.390771 0.947153
O O5 0.500000 0.561593 0.108571
O O6 0.408969 0.500000 0.000000
O O7 0.406565 0.594534 0.960656
O O8 0.500000 0.498595 0.676199
O O9 0.387379 0.549142 0.782155
O O10 0.385630 0.560021 0.594894
O O11 0.388397 0.350159 0.204376
O O12 0.263220 0.403613 0.121317
O O13 0.384529 0.750000 0.719292
O O14 0.250000 0.694256 0.750000
O O15 0.357428 0.662253 0.612899
#
# Coordination Sequence:
#
# PCOD9535556 Si02
#       6
#    16  16  16  16  16  16
#     4  11  21  32  44  63  94 129 170 208 237 278
#     4  10  19  31  48  68  92 126 164 201 243 289
#     4  11  20  29  45  68  95 129 163 197 244 299
#     4   9  17  31  49  71  99 126 157 201 246 292
#     4   8  14  27  50  76  97 121 154 193 245 302
#     4   9  18  31  46  65  94 128 160 201 246 287
#
# _framework density 17.712312000000001
#
# number of rings (size 3 to 8) (size 9 to 14) (size 15 to 20)
#    0.000    2.333    0.000    6.500    0.000    3.333 
#    0.000    0.000    0.000   13.000    0.000    0.000 
#    0.000    0.000    0.000    4.333    0.000    0.833 
#
# Total GULP energy -267588.677859 kJ/mol
# GULP energy per Si atom -5574.764122 kJ/mol
# Density = 1.767200 g / cm^3
# Si number density = 17.712312 Si / 1000 Ang^3
#
#
#
# Elastic Constant Matrix: (Units=GPa)
#
#
# Indices 1 2 3 4 5 6 
#
# 1 99.3228 19.8706 21.8277 0.0000 0.0000 0.0000
# 2 19.8706 84.4422 43.1275 0.0000 0.0000 0.0000
# 3 21.8277 43.1275 123.7818 0.0000 0.0000 0.0000
# 4 0.0000 0.0000 0.0000 11.8394 0.0000 0.0000
# 5 0.0000 0.0000 0.0000 0.0000 -10.5724 0.0000
# 6 0.0000 0.0000 0.0000 0.0000 0.0000 -11.7296
#
#
#
# Elastic Compliance Matrix: (Units=1/GPa)
#
#
# Indices 1 2 3 4 5 6 
#
# 1 0.010717 -0.001894 -0.001230 0.000000 0.000000 0.000000
# 2 -0.001894 0.014741 -0.004802 0.000000 0.000000 0.000000
# 3 -0.001230 -0.004802 0.009969 0.000000 0.000000 0.000000
# 4 0.000000 0.000000 0.000000 0.084464 0.000000 0.000000
# 5 0.000000 0.000000 0.000000 0.000000 -0.094586 0.000000
# 6 0.000000 0.000000 0.000000 0.000000 0.000000 -0.085254
#
#
# Mechanical properties :
#
#
# Convention : Reuss Voigt Hill
#
# Bulk Modulus (GPa) = 51.08509 53.02205 52.05357
# Shear Modulus (GPa) = -133.07080 12.75556 -60.15762
#
# Velocity S-wave (km/s) = -8.67710 2.68648 -5.83416
# Velocity P-wave (km/s) = 8.45490 6.29468 3.99138
#
# Compressibility (1/GPa) = 0.01957518
#
# Stress axis : x y z
#
# Youngs Moduli (GPa) = 93.30650 67.84018 100.31390
#
# Poissons Ratio (x) = 0.12847 0.12340
# Poissons Ratio (y) = 0.17670 0.48170
# Poissons Ratio (z) = 0.11478 0.32576
#
# Static dielectric constant tensor:
#      x y z
#    x 1.665960 0.000000 0.000000 
#    y 0.000000 1.583580 0.000000 
#    z 0.000000 0.000000 1.660830 
# 
# From -- ./inp_files/33084.got.cif
#   From: 2010.05.17/outbox.cif.g08.bks.cpg/sg74_17_cif.got.tgz:33084.got - 2010.06.03 17:57:02.
