data_PCOD9535901
_publ_section_title
;
Structure prediction by ZEFSAII (Michael W. Deem and Ramdas Pophale) SiO2 
 PCOD9535901
Probable space group: I M M A
;
_chemical_formula_sum "Si O2"
_cell_formula_units_Z 128
_cell_length_a 20.710561
_cell_length_b 18.078331
_cell_length_c 17.314833
_cell_angle_alpha 90.000000
_cell_angle_beta 90.000000
_cell_angle_gamma 90.000000
_cell_volume 6482.887780
_symmetry_space_group_name_H-M "I M M A"
_symmetry_group_IT_number 74
_symmetry_cell_setting 'orthorhombic'
loop_
_space_group_symop_operation_xyz
x,y,z
-x,1/2-y,z
x,-y,-z
-x,1/2+y,-z
-x,-y,-z
x,1/2+y,-z
-x,y,z
x,1/2-y,z
1/2+x,1/2+y,1/2+z
1/2-x,-y,1/2+z
1/2+x,1/2-y,1/2-z
1/2-x,y,1/2-z
1/2-x,1/2-y,1/2-z
1/2+x,y,1/2-z
1/2-x,1/2+y,1/2+z
1/2+x,-y,1/2+z
loop_
_atom_site_type_symbol
_atom_site_label
_atom_site_fract_x
_atom_site_fract_y
_atom_site_fract_z
Si Si1 0.073466 0.087974 0.984624
Si Si2 0.389768 0.986026 0.166097
Si Si3 0.887533 0.666430 0.403155
Si Si4 0.640342 0.942994 0.331263
Si Si5 0.749486 0.552629 0.841953
Si Si6 0.800190 0.662004 0.961458
Si Si7 0.240592 0.166252 0.863324
Si Si8 0.074776 0.420479 0.463164
O O1 0.094236 0.092931 0.894585
O O2 0.000000 0.112957 0.997069
O O3 0.126346 0.131283 0.035143
O O4 0.076409 0.000000 0.000000
O O5 0.417672 0.908665 0.132581
O O6 0.394798 0.976419 0.257427
O O7 0.313564 0.001099 0.146807
O O8 0.419861 0.058881 0.126883
O O9 0.914104 0.750000 0.394442
O O10 0.817592 0.666031 0.363078
O O11 0.886009 0.644095 0.494211
O O12 0.695763 0.883604 0.309512
O O13 0.686311 0.007275 0.363742
O O14 0.750000 0.570072 0.750000
O O15 0.755287 0.622517 0.897958
O O16 0.799644 0.750000 0.951248
O O17 0.775066 0.644625 0.047870
O O18 0.219147 0.250000 0.850701
O O19 0.094962 0.500000 0.500000
O O20 0.000000 0.406402 0.480972
#
# Coordination Sequence:
#
# PCOD9535901 Si02
#       8
#    16  16  16  16  16  16  16  16
#     4  10  20  35  56  80 105 140 189 235 275 329
#     4  10  20  33  53  79 112 149 181 225 281 340
#     4  10  19  32  53  81 109 143 184 225 279 340
#     4  10  19  33  52  79 112 145 181 225 281 343
#     4  10  19  32  51  78 110 142 182 225 282 334
#     4  10  20  34  53  77 105 141 182 228 282 329
#     4   9  18  30  48  77 110 140 173 218 272 336
#     4   9  19  35  52  73 102 140 187 232 271 318
#
# _framework density 19.744288000000001
#
# number of rings (size 3 to 8) (size 9 to 14) (size 15 to 20)
#    0.000    2.250    2.500    0.750    0.000    1.750 
#    0.000    1.250    0.000    0.750    0.000    3.500 
#    0.000    0.000    0.000    0.000    0.000    0.000 
#
# Total GULP energy -356274.050110 kJ/mol
# GULP energy per Si atom -5566.782033 kJ/mol
# Density = 1.969935 g / cm^3
# Si number density = 19.744288 Si / 1000 Ang^3
#
#
#
# Elastic Constant Matrix: (Units=GPa)
#
#
# Indices 1 2 3 4 5 6 
#
# 1 44.7092 4.8783 27.0280 0.0000 0.0000 0.0000
# 2 4.8783 73.2906 34.0265 0.0000 0.0000 0.0000
# 3 27.0280 34.0265 54.8666 0.0000 0.0000 0.0000
# 4 0.0000 0.0000 0.0000 15.9057 0.0000 0.0000
# 5 0.0000 0.0000 0.0000 0.0000 20.9439 0.0000
# 6 0.0000 0.0000 0.0000 0.0000 0.0000 13.2399
#
#
#
# Elastic Compliance Matrix: (Units=1/GPa)
#
#
# Indices 1 2 3 4 5 6 
#
# 1 0.034857 0.007937 -0.022093 0.000000 0.000000 0.000000
# 2 0.007937 0.020969 -0.016914 0.000000 0.000000 0.000000
# 3 -0.022093 -0.016914 0.039599 0.000000 0.000000 0.000000
# 4 0.000000 0.000000 0.000000 0.062870 0.000000 0.000000
# 5 0.000000 0.000000 0.000000 0.000000 0.047747 0.000000
# 6 0.000000 0.000000 0.000000 0.000000 0.000000 0.075530
#
#
# Mechanical properties :
#
#
# Convention : Reuss Voigt Hill
#
# Bulk Modulus (GPa) = 30.04439 33.85911 31.95175
# Shear Modulus (GPa) = 14.09222 17.14680 15.61951
#
# Velocity S-wave (km/s) = 2.67448 2.95013 2.81568
# Velocity P-wave (km/s) = 4.97865 5.36567 5.17578
#
# Compressibility (1/GPa) = 0.03328408
#
# Stress axis : x y z
#
# Youngs Moduli (GPa) = 28.68887 47.69021 25.25320
#
# Poissons Ratio (x) = -0.37852 0.55792
# Poissons Ratio (y) = -0.22771 0.42713
# Poissons Ratio (z) = 0.63383 0.80663
#
# Static dielectric constant tensor:
#      x y z
#    x 1.742110 0.000000 0.000000 
#    y 0.000000 1.715050 0.000000 
#    z 0.000000 0.000000 1.793960 
# 
# From -- ./inp_files/46305.got.cif
#   From: 2010.05.17/outbox.cif.g08.bks.cpg/sg74_24_cif.got.tgz:46305.got - 2010.06.03 17:57:02.
