data_PCOD9535107
_publ_section_title
;
Structure prediction by ZEFSAII (Michael W. Deem and Ramdas Pophale) SiO2 
 PCOD9535107
Probable space group: I M M A
;
_chemical_formula_sum "Si O2"
_cell_formula_units_Z 88
_cell_length_a 8.657784
_cell_length_b 18.722720
_cell_length_c 30.308223
_cell_angle_alpha 90.000000
_cell_angle_beta 90.000000
_cell_angle_gamma 90.000000
_cell_volume 4912.880075
_symmetry_space_group_name_H-M "I M M A"
_symmetry_group_IT_number 74
_symmetry_cell_setting 'orthorhombic'
loop_
_space_group_symop_operation_xyz
x,y,z
-x,1/2-y,z
x,-y,-z
-x,1/2+y,-z
-x,-y,-z
x,1/2+y,-z
-x,y,z
x,1/2-y,z
1/2+x,1/2+y,1/2+z
1/2-x,-y,1/2+z
1/2+x,1/2-y,1/2-z
1/2-x,y,1/2-z
1/2-x,1/2-y,1/2-z
1/2+x,y,1/2-z
1/2-x,1/2+y,1/2+z
1/2+x,-y,1/2+z
loop_
_atom_site_type_symbol
_atom_site_label
_atom_site_fract_x
_atom_site_fract_y
_atom_site_fract_z
Si Si1 0.685131 0.750000 0.300220
Si Si2 0.687447 0.480951 0.363414
Si Si3 0.314119 0.330671 0.394769
Si Si4 0.684520 0.399377 0.799626
Si Si5 0.185452 0.454259 0.957713
Si Si6 0.178199 0.665848 0.508694
O O1 0.500000 0.750000 0.299803
O O2 0.750000 0.750000 0.250000
O O3 0.747019 0.674978 0.319262
O O4 0.500000 0.484079 0.359473
O O5 0.734848 0.397330 0.364426
O O6 0.761765 0.531966 0.327162
O O7 0.732268 0.512713 0.411277
O O8 0.500000 0.329091 0.393553
O O9 0.257483 0.250000 0.384212
O O10 0.265641 0.347626 0.445099
O O11 0.500000 0.394045 0.798220
O O12 0.750000 0.405832 0.750000
O O13 0.000000 0.453633 0.958322
O O14 0.239030 0.500000 0.000000
O O15 0.248494 0.376385 0.968313
O O16 0.186547 0.750000 0.500944
O O17 0.000000 0.645102 0.514290
#
# Coordination Sequence:
#
# PCOD9535107 Si02
#       6
#     8  16  16  16  16  16
#     4  10  18  34  60  86 112 142 178 218 264 314
#     4  10  20  35  55  81 110 139 180 226 271 324
#     4   9  17  32  55  78 103 140 183 224 266 321
#     4  11  22  38  60  85 112 143 179 220 269 319
#     4  10  19  34  53  75 103 141 180 219 263 316
#     4  10  20  32  47  70 102 140 180 224 268 311
#
# _framework density 17.912099999999999
#
# number of rings (size 3 to 8) (size 9 to 14) (size 15 to 20)
#    0.000    2.000    1.818    4.091    0.000    2.909 
#    1.636    0.000    0.000    0.545    0.000    0.000 
#    0.000    0.000    0.000    0.000    0.000    0.000 
#
# Total GULP energy -245377.400508 kJ/mol
# GULP energy per Si atom -5576.759102 kJ/mol
# Density = 1.787133 g / cm^3
# Si number density = 17.912100 Si / 1000 Ang^3
#
#
#
# Elastic Constant Matrix: (Units=GPa)
#
#
# Indices 1 2 3 4 5 6 
#
# 1 50.2207 44.0096 28.8375 0.0000 0.0000 0.0000
# 2 44.0096 144.8233 56.1325 0.0000 0.0000 0.0000
# 3 28.8375 56.1325 58.9303 0.0000 0.0000 0.0000
# 4 0.0000 0.0000 0.0000 31.9772 0.0000 0.0000
# 5 0.0000 0.0000 0.0000 0.0000 17.0339 0.0000
# 6 0.0000 0.0000 0.0000 0.0000 0.0000 22.6855
#
#
#
# Elastic Compliance Matrix: (Units=1/GPa)
#
#
# Indices 1 2 3 4 5 6 
#
# 1 0.030199 -0.005468 -0.009569 0.000000 0.000000 0.000000
# 2 -0.005468 0.011936 -0.008694 0.000000 0.000000 0.000000
# 3 -0.009569 -0.008694 0.029933 0.000000 0.000000 0.000000
# 4 0.000000 0.000000 0.000000 0.031272 0.000000 0.000000
# 5 0.000000 0.000000 0.000000 0.000000 0.058706 0.000000
# 6 0.000000 0.000000 0.000000 0.000000 0.000000 0.044081
#
#
# Mechanical properties :
#
#
# Convention : Reuss Voigt Hill
#
# Bulk Modulus (GPa) = 40.64098 56.88151 48.76125
# Shear Modulus (GPa) = 19.09913 22.67230 20.88572
#
# Velocity S-wave (km/s) = 3.26892 3.56160 3.41840
# Velocity P-wave (km/s) = 6.08163 6.98128 6.54692
#
# Compressibility (1/GPa) = 0.02460570
#
# Stress axis : x y z
#
# Youngs Moduli (GPa) = 33.11403 83.77836 33.40780
#
# Poissons Ratio (x) = 0.45809 0.31969
# Poissons Ratio (y) = 0.18106 0.29044
# Poissons Ratio (z) = 0.31688 0.72836
#
# Static dielectric constant tensor:
#      x y z
#    x 1.613500 0.000000 0.000000 
#    y 0.000000 1.679480 0.000000 
#    z 0.000000 0.000000 1.584870 
# 
# From -- ./inp_files/70242.got.cif
#   From: 2010.05.17/outbox.cif.g08.bks.cpg/sg74_36_cif.got.tgz:70242.got - 2010.06.03 17:57:02.
