data_PCOD9535165
_publ_section_title
;
Structure prediction by ZEFSAII (Michael W. Deem and Ramdas Pophale) SiO2 
 PCOD9535165
Probable space group: I M M A
;
_chemical_formula_sum "Si O2"
_cell_formula_units_Z 72
_cell_length_a 15.102474
_cell_length_b 27.153659
_cell_length_c 8.812881
_cell_angle_alpha 90.000000
_cell_angle_beta 90.000000
_cell_angle_gamma 90.000000
_cell_volume 3614.051712
_symmetry_space_group_name_H-M "I M M A"
_symmetry_group_IT_number 74
_symmetry_cell_setting 'orthorhombic'
loop_
_space_group_symop_operation_xyz
x,y,z
-x,1/2-y,z
x,-y,-z
-x,1/2+y,-z
-x,-y,-z
x,1/2+y,-z
-x,y,z
x,1/2-y,z
1/2+x,1/2+y,1/2+z
1/2-x,-y,1/2+z
1/2+x,1/2-y,1/2-z
1/2-x,y,1/2-z
1/2-x,1/2-y,1/2-z
1/2+x,y,1/2-z
1/2-x,1/2+y,1/2+z
1/2+x,-y,1/2+z
loop_
_atom_site_type_symbol
_atom_site_label
_atom_site_fract_x
_atom_site_fract_y
_atom_site_fract_z
Si Si1 0.807126 0.613102 0.602965
Si Si2 0.340205 0.557213 0.195594
Si Si3 0.000000 0.804354 0.002874
Si Si4 0.500000 0.509182 0.818619
Si Si5 0.680135 0.338200 0.635733
Si Si6 0.500000 0.374939 0.219027
O O1 0.750000 0.597672 0.750000
O O2 0.831880 0.570190 0.482646
O O3 0.738972 0.648333 0.511609
O O4 0.903830 0.636249 0.642332
O O5 0.250000 0.533864 0.250000
O O6 0.416480 0.520722 0.238595
O O7 0.346675 0.609890 0.282345
O O8 0.000000 0.847213 0.878225
O O9 0.000000 0.750000 0.931721
O O10 0.090132 0.810658 0.097950
O O11 0.500000 0.565725 0.772779
O O12 0.500000 0.500000 0.000000
O O13 0.750000 0.313422 0.750000
#
# Coordination Sequence:
#
# PCOD9535165 Si02
#       6
#    16  16   8   8  16   8
#     4  10  18  36  63  90 129 171 206 262 318 385
#     4   9  20  38  60  92 127 170 213 254 312 390
#     4  12  25  44  68  97 128 166 222 279 340 387
#     4  12  21  37  58  94 128 177 211 253 312 395
#     4   9  21  41  69  93 127 168 210 271 330 378
#     4  12  24  37  61  91 133 170 215 265 330 375
#
# _framework density 19.922236999999999
#
# number of rings (size 3 to 8) (size 9 to 14) (size 15 to 20)
#    0.000    2.222    4.444    0.667    0.000    4.000 
#    0.000    4.444    0.000    6.667    0.000    0.000 
#    0.000    0.000    0.000    0.000    0.000    0.000 
#
# Total GULP energy -200671.948710 kJ/mol
# GULP energy per Si atom -5574.220798 kJ/mol
# Density = 1.987689 g / cm^3
# Si number density = 19.922237 Si / 1000 Ang^3
#
#
#
# Elastic Constant Matrix: (Units=GPa)
#
#
# Indices 1 2 3 4 5 6 
#
# 1 173.1413 41.6563 47.3708 -0.0002 0.0002 0.0019
# 2 41.6563 71.3374 25.0462 -0.0009 0.0003 0.0009
# 3 47.3708 25.0462 88.0878 -0.0040 -0.0008 0.0040
# 4 -0.0002 -0.0009 -0.0040 13.0878 -0.0001 0.0067
# 5 0.0002 0.0003 -0.0008 -0.0001 30.1051 0.0022
# 6 0.0019 0.0009 0.0040 0.0067 0.0022 204.5057
#
#
#
# Elastic Compliance Matrix: (Units=1/GPa)
#
#
# Indices 1 2 3 4 5 6 
#
# 1 0.007391 -0.003244 -0.003052 -0.000001 0.000000 0.000000
# 2 -0.003244 0.016997 -0.003088 0.000000 0.000000 0.000000
# 3 -0.003052 -0.003088 0.013872 0.000004 0.000000 0.000000
# 4 -0.000001 0.000000 0.000004 0.076407 0.000000 -0.000003
# 5 0.000000 0.000000 0.000000 0.000000 0.033217 0.000000
# 6 0.000000 0.000000 0.000000 -0.000003 0.000000 0.004890
#
#
# Mechanical properties :
#
#
# Convention : Reuss Voigt Hill
#
# Bulk Modulus (GPa) = 51.30753 62.30146 56.80450
# Shear Modulus (GPa) = 28.08362 64.10594 46.09478
#
# Velocity S-wave (km/s) = 3.75862 5.67873 4.81535
# Velocity P-wave (km/s) = 6.68177 8.62192 7.71309
#
# Compressibility (1/GPa) = 0.01949032
#
# Stress axis : x y z
#
# Youngs Moduli (GPa) = 135.29420 58.83546 72.08891
#
# Poissons Ratio (x) = 0.19088 0.22004
# Poissons Ratio (y) = 0.43894 0.22261
# Poissons Ratio (z) = 0.41296 0.18168
#
# Static dielectric constant tensor:
#      x y z
#    x 1.718770 0.000000 0.000000 
#    y 0.000000 1.689520 0.000000 
#    z 0.000000 0.000000 1.740400 
# 
# From -- ./inp_files/9362.got.cif
#   From: 2010.05.17/outbox.cif.g08.bks.cpg/sg74_5_cif.got.tgz:9362.got - 2010.06.03 17:57:02.
