data_PCOD9535742
_publ_section_title
;
Structure prediction by ZEFSAII (Michael W. Deem and Ramdas Pophale) SiO2 
 PCOD9535742
Probable space group: I M M A
;
_chemical_formula_sum "Si O2"
_cell_formula_units_Z 88
_cell_length_a 19.830475
_cell_length_b 11.767269
_cell_length_c 19.423775
_cell_angle_alpha 90.000000
_cell_angle_beta 90.000000
_cell_angle_gamma 90.000000
_cell_volume 4532.548263
_symmetry_space_group_name_H-M "I M M A"
_symmetry_group_IT_number 74
_symmetry_cell_setting 'orthorhombic'
loop_
_space_group_symop_operation_xyz
x,y,z
-x,1/2-y,z
x,-y,-z
-x,1/2+y,-z
-x,-y,-z
x,1/2+y,-z
-x,y,z
x,1/2-y,z
1/2+x,1/2+y,1/2+z
1/2-x,-y,1/2+z
1/2+x,1/2-y,1/2-z
1/2-x,y,1/2-z
1/2-x,1/2-y,1/2-z
1/2+x,y,1/2-z
1/2-x,1/2+y,1/2+z
1/2+x,-y,1/2+z
loop_
_atom_site_type_symbol
_atom_site_label
_atom_site_fract_x
_atom_site_fract_y
_atom_site_fract_z
Si Si1 0.076386 0.383857 0.203416
Si Si2 0.184839 0.471706 0.710996
Si Si3 0.073643 0.373853 0.624231
Si Si4 0.628919 0.000000 0.000000
Si Si5 0.389381 0.885067 0.543460
Si Si6 0.733806 0.622539 0.916738
O O1 0.084225 0.250000 0.218830
O O2 0.137024 0.450170 0.240733
O O3 0.081824 0.396228 0.120769
O O4 0.000000 0.417535 0.224461
O O5 0.250000 0.425403 0.750000
O O6 0.132916 0.383497 0.678783
O O7 0.215447 0.540958 0.646329
O O8 0.075723 0.250000 0.591032
O O9 0.085404 0.465300 0.565116
O O10 0.000000 0.388410 0.656129
O O11 0.679431 0.900604 0.976264
O O12 0.403904 0.750000 0.520950
O O13 0.308426 0.892715 0.553067
O O14 0.409562 0.000000 0.500000
O O15 0.729033 0.750000 0.890184
#
# Coordination Sequence:
#
# PCOD9535742 Si02
#       6
#    16  16  16   8  16  16
#     4  10  21  37  58  83 114 150 188 233 285 341
#     4  11  21  35  57  83 111 144 188 233 280 332
#     4  10  22  39  57  79 112 151 186 228 285 347
#     4  10  19  34  56  82 109 144 184 226 281 332
#     4  10  20  36  57  83 115 151 191 240 293 345
#     4  10  19  31  52  83 114 143 183 232 281 331
#
# _framework density 19.415126999999998
#
# number of rings (size 3 to 8) (size 9 to 14) (size 15 to 20)
#    0.000    1.818    2.727    1.909    0.000    1.455 
#    0.000    0.909    0.000    9.818    0.000    0.000 
#    0.000    0.000    0.000    0.000    0.000    0.000 
#
# Total GULP energy -245103.864067 kJ/mol
# GULP energy per Si atom -5570.542365 kJ/mol
# Density = 1.937094 g / cm^3
# Si number density = 19.415127 Si / 1000 Ang^3
#
#
#
# Elastic Constant Matrix: (Units=GPa)
#
#
# Indices 1 2 3 4 5 6 
#
# 1 114.6984 16.7789 15.4662 0.0000 0.0000 0.0000
# 2 16.7789 69.9533 16.5405 0.0000 0.0000 0.0000
# 3 15.4662 16.5405 46.0778 0.0000 0.0000 0.0000
# 4 0.0000 0.0000 0.0000 21.2379 0.0000 0.0000
# 5 0.0000 0.0000 0.0000 0.0000 14.0445 0.0000
# 6 0.0000 0.0000 0.0000 0.0000 0.0000 15.4871
#
#
#
# Elastic Compliance Matrix: (Units=1/GPa)
#
#
# Indices 1 2 3 4 5 6 
#
# 1 0.009299 -0.001631 -0.002536 0.000000 0.000000 0.000000
# 2 -0.001631 0.015907 -0.005163 0.000000 0.000000 0.000000
# 3 -0.002536 -0.005163 0.024407 0.000000 0.000000 0.000000
# 4 0.000000 0.000000 0.000000 0.047086 0.000000 0.000000
# 5 0.000000 0.000000 0.000000 0.000000 0.071202 0.000000
# 6 0.000000 0.000000 0.000000 0.000000 0.000000 0.064570
#
#
# Mechanical properties :
#
#
# Convention : Reuss Voigt Hill
#
# Bulk Modulus (GPa) = 32.30588 36.47787 34.39187
# Shear Modulus (GPa) = 19.12426 22.28347 20.70387
#
# Velocity S-wave (km/s) = 3.14191 3.39150 3.26909
# Velocity P-wave (km/s) = 5.46239 5.84513 5.65700
#
# Compressibility (1/GPa) = 0.03095412
#
# Stress axis : x y z
#
# Youngs Moduli (GPa) = 107.53812 62.86469 40.97205
#
# Poissons Ratio (x) = 0.10252 0.10390
# Poissons Ratio (y) = 0.17538 0.21153
# Poissons Ratio (z) = 0.27270 0.32456
#
# Static dielectric constant tensor:
#      x y z
#    x 1.694950 0.000000 0.000000 
#    y 0.000000 1.677750 0.000000 
#    z 0.000000 0.000000 1.670980 
# 
# From -- ./inp_files/45140.got.cif
#   From: 2010.05.17/outbox.cif.g08.bks.cpg/sg74_23_cif.got.tgz:45140.got - 2010.06.03 17:57:02.
