data_PCOD9535758
_publ_section_title
;
Structure prediction by ZEFSAII (Michael W. Deem and Ramdas Pophale) SiO2 
 PCOD9535758
Probable space group: I M M A
;
_chemical_formula_sum "Si O2"
_cell_formula_units_Z 112
_cell_length_a 31.602500
_cell_length_b 15.205377
_cell_length_c 11.800867
_cell_angle_alpha 90.000000
_cell_angle_beta 90.000000
_cell_angle_gamma 90.000000
_cell_volume 5670.646152
_symmetry_space_group_name_H-M "I M M A"
_symmetry_group_IT_number 74
_symmetry_cell_setting 'orthorhombic'
loop_
_space_group_symop_operation_xyz
x,y,z
-x,1/2-y,z
x,-y,-z
-x,1/2+y,-z
-x,-y,-z
x,1/2+y,-z
-x,y,z
x,1/2-y,z
1/2+x,1/2+y,1/2+z
1/2-x,-y,1/2+z
1/2+x,1/2-y,1/2-z
1/2-x,y,1/2-z
1/2-x,1/2-y,1/2-z
1/2+x,y,1/2-z
1/2-x,1/2+y,1/2+z
1/2+x,-y,1/2+z
loop_
_atom_site_type_symbol
_atom_site_label
_atom_site_fract_x
_atom_site_fract_y
_atom_site_fract_z
Si Si1 0.680796 0.894327 0.497601
Si Si2 0.156293 0.482122 0.621694
Si Si3 0.546253 0.850307 0.711653
Si Si4 0.048388 0.406167 0.959808
Si Si5 0.357644 0.647092 0.742334
Si Si6 0.618085 0.151399 0.705885
Si Si7 0.733466 0.150013 0.880095
O O1 0.660573 0.860984 0.614846
O O2 0.652791 0.860062 0.393160
O O3 0.728124 0.863950 0.467700
O O4 0.679732 0.000000 0.500000
O O5 0.136266 0.500000 0.500000
O O6 0.165961 0.575189 0.681415
O O7 0.127390 0.422495 0.702292
O O8 0.198143 0.423606 0.603263
O O9 0.500000 0.891980 0.740191
O O10 0.544563 0.750000 0.751625
O O11 0.548475 0.850624 0.574755
O O12 0.592678 0.882505 0.747651
O O13 0.000000 0.421357 0.925220
O O14 0.067150 0.500000 0.000000
O O15 0.074413 0.364832 0.859205
O O16 0.354546 0.750000 0.775875
O O17 0.620463 0.250000 0.752180
O O18 0.717151 0.250000 0.891829
O O19 0.750000 0.141319 0.750000
#
# Coordination Sequence:
#
# PCOD9535758 Si02
#       7
#    16  16  16  16  16  16  16
#     4  12  21  38  65  96 131 160 197 251 321 389
#     4  12  27  44  61  83 119 168 221 273 321 368
#     4   9  17  30  53  89 129 161 191 237 307 387
#     4  10  19  31  53  91 134 164 190 240 315 392
#     4  11  22  39  65  96 129 165 207 260 322 388
#     4  12  22  37  63  90 123 166 210 255 312 385
#     4  11  22  40  66  95 124 157 203 256 318 389
#
# _framework density 19.750834999999999
#
# number of rings (size 3 to 8) (size 9 to 14) (size 15 to 20)
#    0.000    1.000    4.286    3.857    0.000    2.000 
#    0.000    0.000    0.000    4.714    0.000    2.000 
#    0.000    0.000    0.000    0.000    0.000    0.000 
#
# Total GULP energy -312674.562050 kJ/mol
# GULP energy per Si atom -5583.474322 kJ/mol
# Density = 1.970588 g / cm^3
# Si number density = 19.750835 Si / 1000 Ang^3
#
#
#
# Elastic Constant Matrix: (Units=GPa)
#
#
# Indices 1 2 3 4 5 6 
#
# 1 93.0236 27.5201 4.8033 0.0000 0.0000 0.0000
# 2 27.5201 142.3616 30.7951 0.0000 0.0000 0.0000
# 3 4.8033 30.7951 59.9472 0.0000 0.0000 0.0000
# 4 0.0000 0.0000 0.0000 1.7086 0.0000 0.0000
# 5 0.0000 0.0000 0.0000 0.0000 8.0528 0.0000
# 6 0.0000 0.0000 0.0000 0.0000 0.0000 25.3044
#
#
#
# Elastic Compliance Matrix: (Units=1/GPa)
#
#
# Indices 1 2 3 4 5 6 
#
# 1 0.011405 -0.002258 0.000246 0.000000 0.000000 0.000000
# 2 -0.002258 0.008350 -0.004108 0.000000 0.000000 0.000000
# 3 0.000246 -0.004108 0.018772 0.000000 0.000000 0.000000
# 4 0.000000 0.000000 0.000000 0.585278 0.000000 0.000000
# 5 0.000000 0.000000 0.000000 0.000000 0.124181 0.000000
# 6 0.000000 0.000000 0.000000 0.000000 0.000000 0.039519
#
#
# Mechanical properties :
#
#
# Convention : Reuss Voigt Hill
#
# Bulk Modulus (GPa) = 38.04233 46.84105 42.44169
# Shear Modulus (GPa) = 6.18424 22.49408 14.33916
#
# Velocity S-wave (km/s) = 1.77142 3.37841 2.69737
# Velocity P-wave (km/s) = 4.84632 6.24385 5.58894
#
# Compressibility (1/GPa) = 0.02628651
#
# Stress axis : x y z
#
# Youngs Moduli (GPa) = 87.67888 119.76702 53.27068
#
# Poissons Ratio (x) = 0.27043 -0.01311
# Poissons Ratio (y) = 0.19798 0.21885
# Poissons Ratio (z) = -0.02158 0.49203
#
# Static dielectric constant tensor:
#      x y z
#    x 1.765310 0.000000 0.000000 
#    y 0.000000 1.736240 0.000000 
#    z 0.000000 0.000000 1.662970 
# 
# From -- ./inp_files/27214.got.cif
#   From: 2010.05.17/outbox.cif.g08.bks.cpg/sg74_14_cif.got.tgz:27214.got - 2010.06.03 17:57:02.
