data_PCOD9535747
_publ_section_title
;
Structure prediction by ZEFSAII (Michael W. Deem and Ramdas Pophale) SiO2 
 PCOD9535747
Probable space group: I M M A
;
_chemical_formula_sum "Si O2"
_cell_formula_units_Z 96
_cell_length_a 14.063521
_cell_length_b 15.341472
_cell_length_c 21.546071
_cell_angle_alpha 90.000000
_cell_angle_beta 90.000000
_cell_angle_gamma 90.000000
_cell_volume 4648.674997
_symmetry_space_group_name_H-M "I M M A"
_symmetry_group_IT_number 74
_symmetry_cell_setting 'orthorhombic'
loop_
_space_group_symop_operation_xyz
x,y,z
-x,1/2-y,z
x,-y,-z
-x,1/2+y,-z
-x,-y,-z
x,1/2+y,-z
-x,y,z
x,1/2-y,z
1/2+x,1/2+y,1/2+z
1/2-x,-y,1/2+z
1/2+x,1/2-y,1/2-z
1/2-x,y,1/2-z
1/2-x,1/2-y,1/2-z
1/2+x,y,1/2-z
1/2-x,1/2+y,1/2+z
1/2+x,-y,1/2+z
loop_
_atom_site_type_symbol
_atom_site_label
_atom_site_fract_x
_atom_site_fract_y
_atom_site_fract_z
Si Si1 0.718850 0.355718 0.588451
Si Si2 0.892758 0.104931 0.295679
Si Si3 0.609728 0.143377 0.465672
Si Si4 0.315230 0.350298 0.332582
Si Si5 0.392471 0.410043 0.843453
Si Si6 0.107990 0.354068 0.790210
O O1 0.717892 0.250000 0.588317
O O2 0.668520 0.385870 0.525687
O O3 0.825743 0.386509 0.599648
O O4 0.662964 0.387691 0.649815
O O5 0.798750 0.150611 0.323158
O O6 0.865350 0.096821 0.222834
O O7 0.000000 0.142347 0.300923
O O8 0.894642 0.012208 0.329478
O O9 0.500000 0.116032 0.469325
O O10 0.610690 0.250000 0.466567
O O11 0.655975 0.117286 0.400367
O O12 0.348937 0.250000 0.325459
O O13 0.500000 0.377497 0.852112
O O14 0.353172 0.370365 0.778776
O O15 0.103475 0.250000 0.797657
O O16 0.000000 0.389211 0.790023
#
# Coordination Sequence:
#
# PCOD9535747 Si02
#       6
#    16  16  16  16  16  16
#     4  10  19  31  53  80 108 147 184 217 263 317
#     4  10  21  36  56  81 110 143 177 220 276 329
#     4   9  18  35  58  84 113 140 173 221 275 328
#     4  10  21  36  60  88 108 136 176 226 284 334
#     4  10  21  34  50  74 108 148 184 224 269 310
#     4   9  17  29  48  76 106 139 182 225 265 312
#
# _framework density 20.651046999999998
#
# number of rings (size 3 to 8) (size 9 to 14) (size 15 to 20)
#    0.000    2.333    0.000    3.000    4.667    6.333 
#    0.000    1.667    0.000    6.000    0.000    0.000 
#    0.000    0.000    0.000    0.000    0.000    0.000 
#
# Total GULP energy -267917.970774 kJ/mol
# GULP energy per Si atom -5581.624391 kJ/mol
# Density = 2.060404 g / cm^3
# Si number density = 20.651047 Si / 1000 Ang^3
#
#
#
# Elastic Constant Matrix: (Units=GPa)
#
#
# Indices 1 2 3 4 5 6 
#
# 1 143.7951 6.2488 90.6028 0.0000 0.0000 0.0000
# 2 6.2488 21.0159 7.6307 0.0000 0.0000 0.0000
# 3 90.6028 7.6307 153.0834 0.0000 0.0000 0.0000
# 4 0.0000 0.0000 0.0000 18.0479 0.0000 0.0000
# 5 0.0000 0.0000 0.0000 0.0000 27.3799 0.0000
# 6 0.0000 0.0000 0.0000 0.0000 0.0000 8.3726
#
#
#
# Elastic Compliance Matrix: (Units=1/GPa)
#
#
# Indices 1 2 3 4 5 6 
#
# 1 0.011108 -0.000933 -0.006528 0.000000 0.000000 0.000000
# 2 -0.000933 0.048538 -0.001868 0.000000 0.000000 0.000000
# 3 -0.006528 -0.001868 0.010489 0.000000 0.000000 0.000000
# 4 0.000000 0.000000 0.000000 0.055408 0.000000 0.000000
# 5 0.000000 0.000000 0.000000 0.000000 0.036523 0.000000
# 6 0.000000 0.000000 0.000000 0.000000 0.000000 0.119437
#
#
# Mechanical properties :
#
#
# Convention : Reuss Voigt Hill
#
# Bulk Modulus (GPa) = 19.42520 58.53989 38.98254
# Shear Modulus (GPa) = 15.75702 24.98755 20.37229
#
# Velocity S-wave (km/s) = 2.76527 3.48226 3.14427
# Velocity P-wave (km/s) = 4.42972 6.67660 5.66566
#
# Compressibility (1/GPa) = 0.05147952
#
# Stress axis : x y z
#
# Youngs Moduli (GPa) = 90.02618 20.60223 95.33852
#
# Poissons Ratio (x) = 0.01921 0.62235
# Poissons Ratio (y) = 0.08396 0.17805
# Poissons Ratio (z) = 0.58767 0.03848
#
# Static dielectric constant tensor:
#      x y z
#    x 1.763220 0.000000 0.000000 
#    y 0.000000 1.768890 0.000000 
#    z 0.000000 0.000000 1.704220 
# 
# From -- ./inp_files/51912.got.cif
#   From: 2010.05.17/outbox.cif.g08.bks.cpg/sg74_26_cif.got.tgz:51912.got - 2010.06.03 17:57:02.
