data_PCOD9535101
_publ_section_title
;
Structure prediction by ZEFSAII (Michael W. Deem and Ramdas Pophale) SiO2 
 PCOD9535101
Probable space group: I M M A
;
_chemical_formula_sum "Si O2"
_cell_formula_units_Z 60
_cell_length_a 14.667294
_cell_length_b 10.701059
_cell_length_c 19.430467
_cell_angle_alpha 90.000000
_cell_angle_beta 90.000000
_cell_angle_gamma 90.000000
_cell_volume 3049.720188
_symmetry_space_group_name_H-M "I M M A"
_symmetry_group_IT_number 74
_symmetry_cell_setting 'orthorhombic'
loop_
_space_group_symop_operation_xyz
x,y,z
-x,1/2-y,z
x,-y,-z
-x,1/2+y,-z
-x,-y,-z
x,1/2+y,-z
-x,y,z
x,1/2-y,z
1/2+x,1/2+y,1/2+z
1/2-x,-y,1/2+z
1/2+x,1/2-y,1/2-z
1/2-x,y,1/2-z
1/2-x,1/2-y,1/2-z
1/2+x,y,1/2-z
1/2-x,1/2+y,1/2+z
1/2+x,-y,1/2+z
loop_
_atom_site_type_symbol
_atom_site_label
_atom_site_fract_x
_atom_site_fract_y
_atom_site_fract_z
Si Si1 0.819362 0.020286 0.815070
Si Si2 0.000000 0.883415 0.241649
Si Si3 0.500000 0.250000 0.152774
Si Si4 0.147126 0.250000 0.224628
Si Si5 0.194054 0.103696 0.558602
Si Si6 0.000000 0.982211 0.386770
O O1 0.750000 0.027069 0.750000
O O2 0.762585 0.067362 0.879794
O O3 0.908360 0.102187 0.801029
O O4 0.859307 0.878619 0.817714
O O5 0.000000 0.750000 0.277879
O O6 0.000000 0.980074 0.303720
O O7 0.584834 0.250000 0.206705
O O8 0.500000 0.369151 0.102341
O O9 0.250000 0.250000 0.250000
O O10 0.205260 0.250000 0.539014
O O11 0.090915 0.081091 0.585259
O O12 0.209377 0.000000 0.500000
#
# Coordination Sequence:
#
# PCOD9535101 Si02
#       6
#    16   8   4   8  16   8
#     4  11  22  40  67  97 129 170 221 277 326 393
#     4  12  22  37  65 100 131 164 214 286 332 380
#     4  12  20  38  66 106 134 168 210 270 342 390
#     4  10  18  34  58  94 128 162 208 260 330 375
#     4  12  28  46  66  96 136 181 223 270 337 403
#     4  12  23  40  68  98 136 171 219 271 331 402
#
# _framework density 19.673935
#
# number of rings (size 3 to 8) (size 9 to 14) (size 15 to 20)
#    0.000    0.533    5.333    4.000    3.733    1.067 
#    0.000    0.667    0.000    0.000    0.000    0.000 
#    0.000    0.000    0.000    0.000    0.000    0.000 
#
# Total GULP energy -167542.869068 kJ/mol
# GULP energy per Si atom -5584.762302 kJ/mol
# Density = 1.962916 g / cm^3
# Si number density = 19.673935 Si / 1000 Ang^3
#
#
#
# Elastic Constant Matrix: (Units=GPa)
#
#
# Indices 1 2 3 4 5 6 
#
# 1 101.4185 20.4202 46.9416 0.0000 0.0000 0.0000
# 2 20.4202 156.9589 37.3496 0.0000 0.0000 0.0000
# 3 46.9416 37.3496 100.6967 0.0000 0.0000 0.0000
# 4 0.0000 0.0000 0.0000 28.8131 0.0000 0.0000
# 5 0.0000 0.0000 0.0000 0.0000 6.2892 0.0000
# 6 0.0000 0.0000 0.0000 0.0000 0.0000 45.8250
#
#
#
# Elastic Compliance Matrix: (Units=1/GPa)
#
#
# Indices 1 2 3 4 5 6 
#
# 1 0.012583 -0.000265 -0.005768 0.000000 0.000000 0.000000
# 2 -0.000265 0.006993 -0.002471 0.000000 0.000000 0.000000
# 3 -0.005768 -0.002471 0.013536 0.000000 0.000000 0.000000
# 4 0.000000 0.000000 0.000000 0.034706 0.000000 0.000000
# 5 0.000000 0.000000 0.000000 0.000000 0.159003 0.000000
# 6 0.000000 0.000000 0.000000 0.000000 0.000000 0.021822
#
#
# Mechanical properties :
#
#
# Convention : Reuss Voigt Hill
#
# Bulk Modulus (GPa) = 62.08631 63.16633 62.62632
# Shear Modulus (GPa) = 18.44893 33.14296 25.79594
#
# Velocity S-wave (km/s) = 3.06557 4.10886 3.62494
# Velocity P-wave (km/s) = 6.64503 7.39504 7.03004
#
# Compressibility (1/GPa) = 0.01610661
#
# Stress axis : x y z
#
# Youngs Moduli (GPa) = 79.47256 142.99170 73.87774
#
# Poissons Ratio (x) = 0.03783 0.42610
# Poissons Ratio (y) = 0.02103 0.18252
# Poissons Ratio (z) = 0.45837 0.35327
#
# Static dielectric constant tensor:
#      x y z
#    x 1.659740 0.000000 0.000000 
#    y 0.000000 1.836640 0.000000 
#    z 0.000000 0.000000 1.657810 
# 
# From -- ./inp_files/40651.got.cif
#   From: 2010.05.17/outbox.cif.g08.bks.cpg/sg74_21_cif.got.tgz:40651.got - 2010.06.03 17:57:02.
