data_PCOD9535085
_publ_section_title
;
Structure prediction by ZEFSAII (Michael W. Deem and Ramdas Pophale) SiO2 
 PCOD9535085
Probable space group: I M M A
;
_chemical_formula_sum "Si O2"
_cell_formula_units_Z 72
_cell_length_a 8.301341
_cell_length_b 14.136406
_cell_length_c 29.748855
_cell_angle_alpha 90.000000
_cell_angle_beta 90.000000
_cell_angle_gamma 90.000000
_cell_volume 3491.061653
_symmetry_space_group_name_H-M "I M M A"
_symmetry_group_IT_number 74
_symmetry_cell_setting 'orthorhombic'
loop_
_space_group_symop_operation_xyz
x,y,z
-x,1/2-y,z
x,-y,-z
-x,1/2+y,-z
-x,-y,-z
x,1/2+y,-z
-x,y,z
x,1/2-y,z
1/2+x,1/2+y,1/2+z
1/2-x,-y,1/2+z
1/2+x,1/2-y,1/2-z
1/2-x,y,1/2-z
1/2-x,1/2-y,1/2-z
1/2+x,y,1/2-z
1/2-x,1/2+y,1/2+z
1/2+x,-y,1/2+z
loop_
_atom_site_type_symbol
_atom_site_label
_atom_site_fract_x
_atom_site_fract_y
_atom_site_fract_z
Si Si1 0.316410 0.917832 0.367961
Si Si2 0.322575 0.750000 0.832819
Si Si3 0.303157 0.037708 0.450457
Si Si4 0.680570 0.927763 0.707322
Si Si5 0.196566 0.250000 0.802652
Si Si6 0.686509 0.250000 0.427990
O O1 0.500000 0.885793 0.378888
O O2 0.248900 0.838436 0.334071
O O3 0.242766 0.960483 0.413737
O O4 0.323977 0.009269 0.336495
O O5 0.500000 0.750000 0.853020
O O6 0.294544 0.659428 0.802513
O O7 0.198575 0.750000 0.873944
O O8 0.500000 0.040156 0.445170
O O9 0.246614 0.146733 0.443035
O O10 0.266526 0.000000 0.500000
O O11 0.500000 0.895010 0.716415
O O12 0.750000 0.982971 0.750000
O O13 0.250000 0.250000 0.750000
O O14 0.000000 0.250000 0.800634
O O15 0.500000 0.250000 0.442612
#
# Coordination Sequence:
#
# PCOD9535085 Si02
#       6
#    16   8  16  16   8   8
#     4   9  18  32  52  78 111 146 180 227 280 326
#     4  12  23  35  53  79 107 143 184 222 268 326
#     4   9  17  30  53  85 113 142 182 225 277 333
#     4  11  21  35  53  77 111 147 182 222 270 328
#     4  10  20  35  55  79 110 146 187 233 280 330
#     4  10  18  34  57  80 114 149 177 223 277 327
#
# _framework density 20.624098
#
# number of rings (size 3 to 8) (size 9 to 14) (size 15 to 20)
#    0.000    2.000    2.222    2.667    0.000    0.889 
#    0.000    5.556    0.000    0.667    0.000    1.556 
#    0.000    0.000    0.000    0.000    0.000    0.000 
#
# Total GULP energy -200454.121256 kJ/mol
# GULP energy per Si atom -5568.170035 kJ/mol
# Density = 2.057716 g / cm^3
# Si number density = 20.624098 Si / 1000 Ang^3
#
#
#
# Elastic Constant Matrix: (Units=GPa)
#
#
# Indices 1 2 3 4 5 6 
#
# 1 19.9941 12.5153 5.2258 0.0000 0.0000 0.0000
# 2 12.5153 117.1175 65.3381 0.0000 0.0000 0.0000
# 3 5.2258 65.3381 169.1213 0.0000 0.0000 0.0000
# 4 0.0000 0.0000 0.0000 30.9987 0.0000 0.0000
# 5 0.0000 0.0000 0.0000 0.0000 13.3443 0.0000
# 6 0.0000 0.0000 0.0000 0.0000 0.0000 9.5491
#
#
#
# Elastic Compliance Matrix: (Units=1/GPa)
#
#
# Indices 1 2 3 4 5 6 
#
# 1 0.053667 -0.006131 0.000710 0.000000 0.000000 0.000000
# 2 -0.006131 0.011585 -0.004286 0.000000 0.000000 0.000000
# 3 0.000710 -0.004286 0.007547 0.000000 0.000000 0.000000
# 4 0.000000 0.000000 0.000000 0.032259 0.000000 0.000000
# 5 0.000000 0.000000 0.000000 0.000000 0.074938 0.000000
# 6 0.000000 0.000000 0.000000 0.000000 0.000000 0.104722
#
#
# Mechanical properties :
#
#
# Convention : Reuss Voigt Hill
#
# Bulk Modulus (GPa) = 18.73198 52.48794 35.60996
# Shear Modulus (GPa) = 15.53143 25.65532 20.59337
#
# Velocity S-wave (km/s) = 2.74719 3.53079 3.16335
# Velocity P-wave (km/s) = 4.37779 6.49054 5.53589
#
# Compressibility (1/GPa) = 0.05338464
#
# Stress axis : x y z
#
# Youngs Moduli (GPa) = 18.63343 86.31973 132.50488
#
# Poissons Ratio (x) = 0.52925 -0.09414
# Poissons Ratio (y) = 0.11425 0.56794
# Poissons Ratio (z) = -0.01324 0.36998
#
# Static dielectric constant tensor:
#      x y z
#    x 1.774240 0.000000 0.000000 
#    y 0.000000 1.766820 0.000000 
#    z 0.000000 0.000000 1.727260 
# 
# From -- ./inp_files/63725.got.cif
#   From: 2010.05.17/outbox.cif.g08.bks.cpg/sg74_32_cif.got.tgz:63725.got - 2010.06.03 17:57:02.
