data_PCOD9535260
_publ_section_title
;
Structure prediction by ZEFSAII (Michael W. Deem and Ramdas Pophale) SiO2 
 PCOD9535260
Probable space group: I M M A
;
_chemical_formula_sum "Si O2"
_cell_formula_units_Z 128
_cell_length_a 14.540259
_cell_length_b 17.019092
_cell_length_c 23.683347
_cell_angle_alpha 90.000000
_cell_angle_beta 90.000000
_cell_angle_gamma 90.000000
_cell_volume 5860.728549
_symmetry_space_group_name_H-M "I M M A"
_symmetry_group_IT_number 74
_symmetry_cell_setting 'orthorhombic'
loop_
_space_group_symop_operation_xyz
x,y,z
-x,1/2-y,z
x,-y,-z
-x,1/2+y,-z
-x,-y,-z
x,1/2+y,-z
-x,y,z
x,1/2-y,z
1/2+x,1/2+y,1/2+z
1/2-x,-y,1/2+z
1/2+x,1/2-y,1/2-z
1/2-x,y,1/2-z
1/2-x,1/2-y,1/2-z
1/2+x,y,1/2-z
1/2-x,1/2+y,1/2+z
1/2+x,-y,1/2+z
loop_
_atom_site_type_symbol
_atom_site_label
_atom_site_fract_x
_atom_site_fract_y
_atom_site_fract_z
Si Si1 0.402764 0.345547 0.976647
Si Si2 0.807110 0.344629 0.997588
Si Si3 0.600884 0.339649 0.145306
Si Si4 0.142115 0.610827 0.764276
Si Si5 0.170732 0.096417 0.877245
Si Si6 0.862521 0.068173 0.757941
Si Si7 0.199783 0.591130 0.883368
Si Si8 0.631027 0.840991 0.147919
O O1 0.500000 0.370523 0.003537
O O2 0.400987 0.250000 0.978043
O O3 0.301534 0.369912 0.996389
O O4 0.406702 0.370549 0.911380
O O5 0.811616 0.250000 0.997358
O O6 0.855092 0.376887 0.940507
O O7 0.839033 0.379075 0.057191
O O8 0.500000 0.371169 0.129168
O O9 0.608417 0.250000 0.123993
O O10 0.601698 0.338790 0.213743
O O11 0.692847 0.384201 0.125322
O O12 0.250000 0.610402 0.750000
O O13 0.108031 0.522047 0.756345
O O14 0.141907 0.627804 0.830915
O O15 0.112733 0.102740 0.819384
O O16 0.260052 0.148149 0.862267
O O17 0.194793 0.003408 0.879472
O O18 0.750000 0.068666 0.750000
O O19 0.896816 0.113740 0.703657
O O20 0.608880 0.750000 0.154118
#
# Coordination Sequence:
#
# PCOD9535260 Si02
#       8
#    16  16  16  16  16  16  16  16
#     4   8  15  27  39  53  81 118 147 175 214 253
#     4  10  19  29  43  64  86 112 151 192 223 256
#     4  10  20  32  47  69  94 116 143 187 233 262
#     4   8  16  31  47  62  85 117 148 179 220 271
#     4   9  17  29  42  58  87 117 142 181 226 260
#     4   8  14  25  41  60  82 110 142 177 217 259
#     4  10  19  32  48  63  86 123 158 181 214 271
#     4   9  15  23  39  61  81 107 145 182 219 262
#
# _framework density 21.840288999999999
#
# number of rings (size 3 to 8) (size 9 to 14) (size 15 to 20)
#    0.000    3.000    0.000    4.125    0.000    6.000 
#    0.000    6.875    0.000    3.750    0.000    0.000 
#    0.000    9.000    0.000    4.750    0.000    3.000 
#
# Total GULP energy -356499.472888 kJ/mol
# GULP energy per Si atom -5570.304264 kJ/mol
# Density = 2.179058 g / cm^3
# Si number density = 21.840289 Si / 1000 Ang^3
#
#
#
# Elastic Constant Matrix: (Units=GPa)
#
#
# Indices 1 2 3 4 5 6 
#
# 1 31.6122 3.3755 0.7719 0.0000 0.0000 0.0000
# 2 3.3755 40.0906 35.9199 0.0000 0.0000 0.0000
# 3 0.7719 35.9199 206.6574 0.0000 0.0000 0.0000
# 4 0.0000 0.0000 0.0000 99.3633 0.0000 0.0000
# 5 0.0000 0.0000 0.0000 0.0000 -11.9902 0.0000
# 6 0.0000 0.0000 0.0000 0.0000 0.0000 34.0025
#
#
#
# Elastic Compliance Matrix: (Units=1/GPa)
#
#
# Indices 1 2 3 4 5 6 
#
# 1 0.031950 -0.003060 0.000412 0.000000 0.000000 0.000000
# 2 -0.003060 0.029838 -0.005175 0.000000 0.000000 0.000000
# 3 0.000412 -0.005175 0.005737 0.000000 0.000000 0.000000
# 4 0.000000 0.000000 0.000000 0.010064 0.000000 0.000000
# 5 0.000000 0.000000 0.000000 0.000000 -0.083401 0.000000
# 6 0.000000 0.000000 0.000000 0.000000 0.000000 0.029410
#
#
# Mechanical properties :
#
#
# Convention : Reuss Voigt Hill
#
# Bulk Modulus (GPa) = 19.27505 39.83274 29.55389
# Shear Modulus (GPa) = 88.44219 40.16131 64.30175
#
# Velocity S-wave (km/s) = 6.37047 4.29285 5.43192
# Velocity P-wave (km/s) = 7.93443 6.54593 7.27339
#
# Compressibility (1/GPa) = 0.05188055
#
# Stress axis : x y z
#
# Youngs Moduli (GPa) = 31.29892 33.51480 174.31225
#
# Poissons Ratio (x) = 0.10254 -0.07190
# Poissons Ratio (y) = 0.09576 0.90202
# Poissons Ratio (z) = -0.01291 0.17343
#
# Static dielectric constant tensor:
#      x y z
#    x 1.985300 0.000000 0.000000 
#    y 0.000000 1.758400 0.000000 
#    z 0.000000 0.000000 1.857630 
# 
# From -- ./inp_files/61755.got.cif
#   From: 2010.05.17/outbox.cif.g08.bks.cpg/sg74_31_cif.got.tgz:61755.got - 2010.06.03 17:57:02.
