data_PCOD9535009
_publ_section_title
;
Structure prediction by ZEFSAII (Michael W. Deem and Ramdas Pophale) SiO2 
 PCOD9535009
Probable space group: I M M A
;
_chemical_formula_sum "Si O2"
_cell_formula_units_Z 72
_cell_length_a 16.725424
_cell_length_b 27.883879
_cell_length_c 8.756119
_cell_angle_alpha 90.000000
_cell_angle_beta 90.000000
_cell_angle_gamma 90.000000
_cell_volume 4083.588583
_symmetry_space_group_name_H-M "I M M A"
_symmetry_group_IT_number 74
_symmetry_cell_setting 'orthorhombic'
loop_
_space_group_symop_operation_xyz
x,y,z
-x,1/2-y,z
x,-y,-z
-x,1/2+y,-z
-x,-y,-z
x,1/2+y,-z
-x,y,z
x,1/2-y,z
1/2+x,1/2+y,1/2+z
1/2-x,-y,1/2+z
1/2+x,1/2-y,1/2-z
1/2-x,y,1/2-z
1/2-x,1/2-y,1/2-z
1/2+x,y,1/2-z
1/2-x,1/2+y,1/2+z
1/2+x,-y,1/2+z
loop_
_atom_site_type_symbol
_atom_site_label
_atom_site_fract_x
_atom_site_fract_y
_atom_site_fract_z
Si Si1 0.413051 0.481072 0.753312
Si Si2 0.172645 0.327897 0.145108
Si Si3 0.248294 0.250000 0.567172
Si Si4 0.783480 0.500000 0.500000
Si Si5 0.407094 0.250000 0.143833
Si Si6 0.136443 0.433659 0.056825
O O1 0.500000 0.471823 0.822029
O O2 0.340748 0.478909 0.870654
O O3 0.409944 0.534293 0.680249
O O4 0.398195 0.446228 0.609786
O O5 0.250000 0.337909 0.250000
O O6 0.113955 0.295645 0.248700
O O7 0.137038 0.378040 0.091992
O O8 0.205337 0.295646 0.005185
O O9 0.250000 0.250000 0.750000
O O10 0.158767 0.250000 0.492882
O O11 0.724988 0.457762 0.443003
O O12 0.500000 0.250000 0.097715
#
# Coordination Sequence:
#
# PCOD9535009 Si02
#       6
#    16  16   8   8   8  16
#     4  10  20  32  47  72 103 133 165 210 259 297
#     4   9  18  34  55  76  99 134 175 210 252 310
#     4   9  19  35  55  78 103 134 168 209 260 314
#     4  10  19  32  49  72 100 136 176 208 245 300
#     4   9  19  35  56  80 105 132 168 211 258 310
#     4  10  18  33  53  72  95 133 176 209 242 297
#
# _framework density 17.631551999999999
#
# number of rings (size 3 to 8) (size 9 to 14) (size 15 to 20)
#    0.000    2.667    0.000    7.000    0.000    3.556 
#    0.000    2.222    0.000    9.333    0.000    0.000 
#    0.000    0.000    0.000    0.000    0.000    0.000 
#
# Total GULP energy -200721.713197 kJ/mol
# GULP energy per Si atom -5575.603144 kJ/mol
# Density = 1.759142 g / cm^3
# Si number density = 17.631552 Si / 1000 Ang^3
#
#
#
# Elastic Constant Matrix: (Units=GPa)
#
#
# Indices 1 2 3 4 5 6 
#
# 1 110.6412 18.0407 20.5645 0.0005 0.0106 -0.0007
# 2 18.0407 131.8397 25.2871 0.0008 0.0197 -0.0008
# 3 20.5645 25.2871 75.4880 0.0068 0.1600 -0.0038
# 4 0.0005 0.0008 0.0068 10.0754 0.0663 -0.0011
# 5 0.0106 0.0197 0.1600 0.0663 181.5455 -0.0383
# 6 -0.0007 -0.0008 -0.0038 -0.0011 -0.0383 5.4981
#
#
#
# Elastic Compliance Matrix: (Units=1/GPa)
#
#
# Indices 1 2 3 4 5 6 
#
# 1 0.009613 -0.000869 -0.002328 0.000001 0.000002 -0.000001
# 2 -0.000869 0.008184 -0.002505 0.000001 0.000001 -0.000001
# 3 -0.002328 -0.002505 0.014720 -0.000009 -0.000013 0.000009
# 4 0.000001 0.000001 -0.000009 0.099252 -0.000036 0.000019
# 5 0.000002 0.000001 -0.000013 -0.000036 0.005508 0.000038
# 6 -0.000001 -0.000001 0.000009 0.000019 0.000038 0.181881
#
#
# Mechanical properties :
#
#
# Convention : Reuss Voigt Hill
#
# Bulk Modulus (GPa) = 47.36106 49.52817 48.44462
# Shear Modulus (GPa) = 14.81047 56.36225 35.58636
#
# Velocity S-wave (km/s) = 2.90142 5.66004 4.49746
# Velocity P-wave (km/s) = 6.17609 8.41822 7.38277
#
# Compressibility (1/GPa) = 0.02111439
#
# Stress axis : x y z
#
# Youngs Moduli (GPa) = 104.03095 122.18496 67.93324
#
# Poissons Ratio (x) = 0.10617 0.15812
# Poissons Ratio (y) = 0.09040 0.17016
# Poissons Ratio (z) = 0.24214 0.30606
#
# Static dielectric constant tensor:
#      x y z
#    x 1.627930 0.000000 0.000000 
#    y 0.000000 1.578100 0.000000 
#    z 0.000000 0.000000 1.606630 
# 
# From -- ./inp_files/9361.got.cif
#   From: 2010.05.17/outbox.cif.g08.bks.cpg/sg74_5_cif.got.tgz:9361.got - 2010.06.03 17:57:02.
