data_PCOD9535069
_publ_section_title
;
Structure prediction by ZEFSAII (Michael W. Deem and Ramdas Pophale) SiO2 
 PCOD9535069
Probable space group: I M M A
;
_chemical_formula_sum "Si O2"
_cell_formula_units_Z 64
_cell_length_a 13.628156
_cell_length_b 8.345797
_cell_length_c 29.255820
_cell_angle_alpha 90.000000
_cell_angle_beta 90.000000
_cell_angle_gamma 90.000000
_cell_volume 3327.493290
_symmetry_space_group_name_H-M "I M M A"
_symmetry_group_IT_number 74
_symmetry_cell_setting 'orthorhombic'
loop_
_space_group_symop_operation_xyz
x,y,z
-x,1/2-y,z
x,-y,-z
-x,1/2+y,-z
-x,-y,-z
x,1/2+y,-z
-x,y,z
x,1/2-y,z
1/2+x,1/2+y,1/2+z
1/2-x,-y,1/2+z
1/2+x,1/2-y,1/2-z
1/2-x,y,1/2-z
1/2-x,1/2-y,1/2-z
1/2+x,y,1/2-z
1/2-x,1/2+y,1/2+z
1/2+x,-y,1/2+z
loop_
_atom_site_type_symbol
_atom_site_label
_atom_site_fract_x
_atom_site_fract_y
_atom_site_fract_z
Si Si1 0.712266 0.557788 0.615604
Si Si2 0.110148 0.942549 0.447627
Si Si3 0.500000 0.439729 0.636556
Si Si4 0.316430 0.430354 0.205721
Si Si5 0.000000 0.947487 0.757900
O O1 0.703773 0.750000 0.616923
O O2 0.795759 0.509997 0.579244
O O3 0.601070 0.494083 0.612030
O O4 0.756516 0.497077 0.664091
O O5 0.114262 0.750000 0.445964
O O6 0.000000 0.991210 0.430171
O O7 0.115243 0.000000 0.500000
O O8 0.500000 0.250000 0.639033
O O9 0.500000 0.505670 0.688923
O O10 0.345387 0.250000 0.190004
O O11 0.250000 0.413011 0.250000
O O12 0.409981 0.510465 0.227906
O O13 0.000000 0.750000 0.758509
#
# Coordination Sequence:
#
# PCOD9535069 Si02
#       5
#    16  16   8  16   8
#     4  11  22  38  62  89 118 157 205 250 297 352
#     4  10  22  42  66  93 125 156 191 238 295 355
#     4  12  24  38  55  81 120 163 203 248 303 355
#     4   9  17  30  53  82 112 150 199 246 285 340
#     4  10  18  34  54  77 112 155 202 248 293 347
#
# _framework density 19.233696999999999
#
# number of rings (size 3 to 8) (size 9 to 14) (size 15 to 20)
#    0.000    1.750    2.500    2.625    1.750    1.500 
#    0.000    4.375    0.000    0.000    0.000    0.000 
#    0.000    0.000    0.000    0.000    0.000    0.000 
#
# Total GULP energy -178234.009246 kJ/mol
# GULP energy per Si atom -5569.812789 kJ/mol
# Density = 1.918992 g / cm^3
# Si number density = 19.233697 Si / 1000 Ang^3
#
#
#
# Elastic Constant Matrix: (Units=GPa)
#
#
# Indices 1 2 3 4 5 6 
#
# 1 200.0310 40.3639 61.3245 0.0000 0.0000 0.0000
# 2 40.3639 62.6976 14.3695 0.0000 0.0000 0.0000
# 3 61.3245 14.3695 70.8658 0.0000 0.0000 0.0000
# 4 0.0000 0.0000 0.0000 40.0803 0.0000 0.0000
# 5 0.0000 0.0000 0.0000 0.0000 31.0959 0.0000
# 6 0.0000 0.0000 0.0000 0.0000 0.0000 20.8907
#
#
#
# Elastic Compliance Matrix: (Units=1/GPa)
#
#
# Indices 1 2 3 4 5 6 
#
# 1 0.007467 -0.003489 -0.005755 0.000000 0.000000 0.000000
# 2 -0.003489 0.018357 -0.000703 0.000000 0.000000 0.000000
# 3 -0.005755 -0.000703 0.019234 0.000000 0.000000 0.000000
# 4 0.000000 0.000000 0.000000 0.024950 0.000000 0.000000
# 5 0.000000 0.000000 0.000000 0.000000 0.032159 0.000000
# 6 0.000000 0.000000 0.000000 0.000000 0.000000 0.047868
#
#
# Mechanical properties :
#
#
# Convention : Reuss Voigt Hill
#
# Bulk Modulus (GPa) = 39.73826 62.85668 51.29747
# Shear Modulus (GPa) = 28.04018 32.91582 30.47800
#
# Velocity S-wave (km/s) = 3.82235 4.14135 3.98504
# Velocity P-wave (km/s) = 6.33925 7.45782 6.92117
#
# Compressibility (1/GPa) = 0.02516467
#
# Stress axis : x y z
#
# Youngs Moduli (GPa) = 133.91558 54.47622 51.99231
#
# Poissons Ratio (x) = 0.19004 0.29920
# Poissons Ratio (y) = 0.46717 0.03657
# Poissons Ratio (z) = 0.77063 0.03832
#
# Static dielectric constant tensor:
#      x y z
#    x 1.665510 0.000000 0.000000 
#    y 0.000000 1.698400 0.000000 
#    z 0.000000 0.000000 1.654530 
# 
# From -- ./inp_files/72236.got.cif
#   From: 2010.05.17/outbox.cif.g08.bks.cpg/sg74_37_cif.got.tgz:72236.got - 2010.06.03 17:57:02.
