data_PCOD9535235
_publ_section_title
;
Structure prediction by ZEFSAII (Michael W. Deem and Ramdas Pophale) SiO2 
 PCOD9535235
Probable space group: I M M A
;
_chemical_formula_sum "Si O2"
_cell_formula_units_Z 104
_cell_length_a 9.571840
_cell_length_b 24.682354
_cell_length_c 28.419287
_cell_angle_alpha 90.000000
_cell_angle_beta 90.000000
_cell_angle_gamma 90.000000
_cell_volume 6714.214091
_symmetry_space_group_name_H-M "I M M A"
_symmetry_group_IT_number 74
_symmetry_cell_setting 'orthorhombic'
loop_
_space_group_symop_operation_xyz
x,y,z
-x,1/2-y,z
x,-y,-z
-x,1/2+y,-z
-x,-y,-z
x,1/2+y,-z
-x,y,z
x,1/2-y,z
1/2+x,1/2+y,1/2+z
1/2-x,-y,1/2+z
1/2+x,1/2-y,1/2-z
1/2-x,y,1/2-z
1/2-x,1/2-y,1/2-z
1/2+x,y,1/2-z
1/2-x,1/2+y,1/2+z
1/2+x,-y,1/2+z
loop_
_atom_site_type_symbol
_atom_site_label
_atom_site_fract_x
_atom_site_fract_y
_atom_site_fract_z
Si Si1 0.161355 0.563804 0.609341
Si Si2 0.162446 0.463433 0.546567
Si Si3 0.334273 0.628931 0.798325
Si Si4 0.344151 0.650436 0.562741
Si Si5 0.340448 0.354651 0.549664
Si Si6 0.833375 0.250000 0.298734
Si Si7 0.161412 0.750000 0.446953
Si Si8 0.842818 0.250000 0.438369
O O1 0.169570 0.502050 0.592369
O O2 0.192974 0.583152 0.662318
O O3 0.270316 0.595453 0.577183
O O4 0.000000 0.581138 0.599607
O O5 0.197311 0.500000 0.500000
O O6 0.260382 0.411717 0.553984
O O7 0.000000 0.446233 0.539696
O O8 0.500000 0.627559 0.788169
O O9 0.250000 0.621193 0.750000
O O10 0.301404 0.689656 0.818330
O O11 0.500000 0.655591 0.582246
O O12 0.352477 0.653727 0.506512
O O13 0.242090 0.698141 0.577420
O O14 0.500000 0.355215 0.568337
O O15 0.247257 0.303961 0.567163
O O16 0.750000 0.250000 0.250000
O O17 0.000000 0.250000 0.291338
O O18 0.153602 0.750000 0.504429
O O19 0.000000 0.750000 0.430622
O O20 0.000000 0.250000 0.420091
#
# Coordination Sequence:
#
# PCOD9535235 Si02
#       8
#    16  16  16  16  16   8   8   8
#     4  10  20  32  46  65  87 116 154 191 229 278
#     4  10  19  31  47  64  88 122 159 193 227 273
#     4   9  18  32  49  67  88 114 149 193 241 288
#     4  10  19  29  41  60  85 111 144 188 231 271
#     4  10  19  30  45  64  89 117 149 190 233 270
#     4   8  14  27  46  65  83 107 140 182 233 284
#     4   9  17  29  46  64  83 113 153 188 226 272
#     4   9  17  28  42  57  79 112 147 184 228 274
#
# _framework density 15.489527000000001
#
# number of rings (size 3 to 8) (size 9 to 14) (size 15 to 20)
#    0.000    2.462    1.538    1.385    0.000    5.231 
#    0.000    1.538    0.000    1.846    0.000    0.000 
#    0.000    0.000    0.000    0.692    0.000    8.308 
#
# Total GULP energy -289521.046995 kJ/mol
# GULP energy per Si atom -5567.712442 kJ/mol
# Density = 1.545427 g / cm^3
# Si number density = 15.489527 Si / 1000 Ang^3
#
#
#
# Elastic Constant Matrix: (Units=GPa)
#
#
# Indices 1 2 3 4 5 6 
#
# 1 112.3128 70.9230 12.0265 0.0000 0.0000 0.0000
# 2 70.9230 105.0095 22.3046 0.0000 0.0000 0.0000
# 3 12.0265 22.3046 43.0460 0.0000 0.0000 0.0000
# 4 0.0000 0.0000 0.0000 -9.7926 0.0000 0.0000
# 5 0.0000 0.0000 0.0000 0.0000 11.7170 0.0000
# 6 0.0000 0.0000 0.0000 0.0000 0.0000 24.3471
#
#
#
# Elastic Compliance Matrix: (Units=1/GPa)
#
#
# Indices 1 2 3 4 5 6 
#
# 1 0.015583 -0.010787 0.001236 0.000000 0.000000 0.000000
# 2 -0.010787 0.018168 -0.006400 0.000000 0.000000 0.000000
# 3 0.001236 -0.006400 0.026202 0.000000 0.000000 0.000000
# 4 0.000000 0.000000 0.000000 -0.102118 0.000000 0.000000
# 5 0.000000 0.000000 0.000000 0.000000 0.085346 0.000000
# 6 0.000000 0.000000 0.000000 0.000000 0.000000 0.041073
#
#
# Mechanical properties :
#
#
# Convention : Reuss Voigt Hill
#
# Bulk Modulus (GPa) = 35.65064 52.31964 43.98514
# Shear Modulus (GPa) = 39.83814 15.59524 27.71669
#
# Velocity S-wave (km/s) = 5.07693 3.17649 4.23470
# Velocity P-wave (km/s) = 7.57845 6.87781 7.23661
#
# Compressibility (1/GPa) = 0.02804999
#
# Stress axis : x y z
#
# Youngs Moduli (GPa) = 64.17078 55.04129 38.16511
#
# Poissons Ratio (x) = 0.59376 -0.04716
# Poissons Ratio (y) = 0.69224 0.24426
# Poissons Ratio (z) = -0.07930 0.35227
#
# Static dielectric constant tensor:
#      x y z
#    x 1.535390 0.000000 0.000000 
#    y 0.000000 1.545960 0.000000 
#    z 0.000000 0.000000 1.508180 
# 
# From -- ./inp_files/70857.got.cif
#   From: 2010.05.17/outbox.cif.g08.bks.cpg/sg74_36_cif.got.tgz:70857.got - 2010.06.03 17:57:02.
