data_PCOD9535974
_publ_section_title
;
Structure prediction by ZEFSAII (Michael W. Deem and Ramdas Pophale) SiO2 
 PCOD9535974
Probable space group: I M M A
;
_chemical_formula_sum "Si O2"
_cell_formula_units_Z 120
_cell_length_a 8.233417
_cell_length_b 27.935676
_cell_length_c 28.703081
_cell_angle_alpha 90.000000
_cell_angle_beta 90.000000
_cell_angle_gamma 90.000000
_cell_volume 6601.882849
_symmetry_space_group_name_H-M "I M M A"
_symmetry_group_IT_number 74
_symmetry_cell_setting 'orthorhombic'
loop_
_space_group_symop_operation_xyz
x,y,z
-x,1/2-y,z
x,-y,-z
-x,1/2+y,-z
-x,-y,-z
x,1/2+y,-z
-x,y,z
x,1/2-y,z
1/2+x,1/2+y,1/2+z
1/2-x,-y,1/2+z
1/2+x,1/2-y,1/2-z
1/2-x,y,1/2-z
1/2-x,1/2-y,1/2-z
1/2+x,y,1/2-z
1/2-x,1/2+y,1/2+z
1/2+x,-y,1/2+z
loop_
_atom_site_type_symbol
_atom_site_label
_atom_site_fract_x
_atom_site_fract_y
_atom_site_fract_z
Si Si1 0.194922 0.943559 0.133298
Si Si2 0.695664 0.250000 0.696229
Si Si3 0.696911 0.355320 0.696147
Si Si4 0.806432 0.952561 0.646346
Si Si5 0.696634 0.195752 0.392137
Si Si6 0.306200 0.860870 0.698890
Si Si7 0.806768 0.104699 0.445299
Si Si8 0.193554 0.546185 0.027939
O O1 0.256028 0.898953 0.163886
O O2 0.258684 0.946001 0.080002
O O3 0.000000 0.938520 0.131066
O O4 0.234426 0.995271 0.154838
O O5 0.500000 0.250000 0.693641
O O6 0.750000 0.250000 0.750000
O O7 0.750489 0.302305 0.678404
O O8 0.500000 0.355813 0.695821
O O9 0.750000 0.361015 0.750000
O O10 0.760266 0.912894 0.684318
O O11 0.747824 0.930734 0.596497
O O12 0.000000 0.956411 0.644126
O O13 0.500000 0.194555 0.393834
O O14 0.750395 0.250000 0.399406
O O15 0.747407 0.175867 0.341381
O O16 0.763380 0.157811 0.428908
O O17 0.500000 0.863108 0.697864
O O18 0.250000 0.846967 0.750000
O O19 0.727219 0.090047 0.493673
O O20 0.000000 0.099452 0.448789
O O21 0.000000 0.539086 0.032536
O O22 0.261122 0.500000 0.000000
#
# Coordination Sequence:
#
# PCOD9535974 Si02
#       8
#    16   8  16  16  16  16  16  16
#     4  10  20  33  50  75 104 135 171 212 256 302
#     4   8  14  28  50  72  92 120 156 194 234 282
#     4   9  18  32  51  74 100 129 163 201 244 294
#     4  10  20  33  49  71 100 134 171 209 255 311
#     4   9  19  36  57  78 101 134 177 220 263 316
#     4  10  20  34  52  74 103 137 174 216 263 313
#     4  10  20  33  52  77 103 132 169 215 264 311
#     4  10  19  32  53  76 101 136 175 212 253 304
#
# _framework density 18.176632000000001
#
# number of rings (size 3 to 8) (size 9 to 14) (size 15 to 20)
#    0.000    2.400    1.333    1.200    0.000    4.000 
#    0.000    1.333    1.467    0.000    0.000    0.000 
#    0.000    0.000    0.000    0.000    0.000    0.000 
#
# Total GULP energy -334562.863237 kJ/mol
# GULP energy per Si atom -5576.047721 kJ/mol
# Density = 1.813526 g / cm^3
# Si number density = 18.176632 Si / 1000 Ang^3
#
#
#
# Elastic Constant Matrix: (Units=GPa)
#
#
# Indices 1 2 3 4 5 6 
#
# 1 4.1095 6.1763 6.0017 0.0000 0.0000 0.0000
# 2 6.1763 148.1781 41.5318 0.0000 0.0000 0.0000
# 3 6.0017 41.5318 61.5519 0.0000 0.0000 0.0000
# 4 0.0000 0.0000 0.0000 16.3057 0.0000 0.0000
# 5 0.0000 0.0000 0.0000 0.0000 19.6080 0.0000
# 6 0.0000 0.0000 0.0000 0.0000 0.0000 -11.0445
#
#
#
# Elastic Compliance Matrix: (Units=1/GPa)
#
#
# Indices 1 2 3 4 5 6 
#
# 1 0.286804 -0.005076 -0.024540 0.000000 0.000000 0.000000
# 2 -0.005076 0.008412 -0.005181 0.000000 0.000000 0.000000
# 3 -0.024540 -0.005181 0.022135 0.000000 0.000000 0.000000
# 4 0.000000 0.000000 0.000000 0.061328 0.000000 0.000000
# 5 0.000000 0.000000 0.000000 0.000000 0.050999 0.000000
# 6 0.000000 0.000000 0.000000 0.000000 0.000000 -0.090543
#
#
# Mechanical properties :
#
#
# Convention : Reuss Voigt Hill
#
# Bulk Modulus (GPa) = 4.03622 35.69547 19.86584
# Shear Modulus (GPa) = 10.17671 15.64916 12.91294
#
# Velocity S-wave (km/s) = 2.36874 2.93738 2.66825
# Velocity P-wave (km/s) = 3.11555 5.58435 4.52170
#
# Compressibility (1/GPa) = 0.24775685
#
# Stress axis : x y z
#
# Youngs Moduli (GPa) = 3.48670 118.87137 45.17667
#
# Poissons Ratio (x) = 0.60343 1.10864
# Poissons Ratio (y) = 0.01770 0.23407
# Poissons Ratio (z) = 0.08556 0.61591
#
# Static dielectric constant tensor:
#      x y z
#    x 1.633550 0.000000 0.000000 
#    y 0.000000 1.638740 0.000000 
#    z 0.000000 0.000000 1.613540 
# 
# From -- ./inp_files/65044.got.cif
#   From: 2010.05.17/outbox.cif.g08.bks.cpg/sg74_33_cif.got.tgz:65044.got - 2010.06.03 17:57:02.
