data_PCOD9535266
_publ_section_title
;
Structure prediction by ZEFSAII (Michael W. Deem and Ramdas Pophale) SiO2 
 PCOD9535266
Probable space group: I M M A
;
_chemical_formula_sum "Si O2"
_cell_formula_units_Z 96
_cell_length_a 21.728279
_cell_length_b 9.441331
_cell_length_c 22.363709
_cell_angle_alpha 90.000000
_cell_angle_beta 90.000000
_cell_angle_gamma 90.000000
_cell_volume 4587.777903
_symmetry_space_group_name_H-M "I M M A"
_symmetry_group_IT_number 74
_symmetry_cell_setting 'orthorhombic'
loop_
_space_group_symop_operation_xyz
x,y,z
-x,1/2-y,z
x,-y,-z
-x,1/2+y,-z
-x,-y,-z
x,1/2+y,-z
-x,y,z
x,1/2-y,z
1/2+x,1/2+y,1/2+z
1/2-x,-y,1/2+z
1/2+x,1/2-y,1/2-z
1/2-x,y,1/2-z
1/2-x,1/2-y,1/2-z
1/2+x,y,1/2-z
1/2-x,1/2+y,1/2+z
1/2+x,-y,1/2+z
loop_
_atom_site_type_symbol
_atom_site_label
_atom_site_fract_x
_atom_site_fract_y
_atom_site_fract_z
Si Si1 0.403818 0.590261 0.719105
Si Si2 0.305158 0.583010 0.443028
Si Si3 0.068659 0.915213 0.917564
Si Si4 0.075364 0.088922 0.441881
Si Si5 0.928073 0.406505 0.667737
Si Si6 0.792017 0.908769 0.191123
O O1 0.409985 0.750000 0.741987
O O2 0.434400 0.581302 0.654545
O O3 0.425818 0.480496 0.768399
O O4 0.335064 0.541372 0.704962
O O5 0.277728 0.500000 0.500000
O O6 0.309133 0.750000 0.456075
O O7 0.374061 0.515438 0.434542
O O8 0.271423 0.569041 0.378094
O O9 0.080836 0.750000 0.934385
O O10 0.000000 0.954634 0.938652
O O11 0.096873 0.250000 0.444791
O O12 0.000000 0.093701 0.440533
O O13 0.092689 0.000000 0.500000
O O14 0.098263 0.008814 0.382840
O O15 0.899507 0.250000 0.668397
O O16 0.000000 0.391070 0.652439
O O17 0.822529 0.750000 0.188571
O O18 0.750000 0.901982 0.250000
#
# Coordination Sequence:
#
# PCOD9535266 Si02
#       6
#    16  16  16  16  16  16
#     4  10  19  31  49  74 102 130 165 211 260 309
#     4  10  20  34  54  80 109 141 177 219 266 318
#     4   9  18  32  49  71 104 145 183 218 257 302
#     4   9  16  26  40  58  82 114 154 198 242 289
#     4  10  19  29  43  65  94 129 166 202 244 298
#     4   9  19  37  59  80 102 131 170 216 266 318
#
# _framework density 20.925160999999999
#
# number of rings (size 3 to 8) (size 9 to 14) (size 15 to 20)
#    0.000    2.500    0.000    2.500    0.000    6.000 
#    0.000    0.000    0.000    1.000    0.000    4.667 
#    0.000    0.000    0.000    0.000    0.000    0.000 
#
# Total GULP energy -267379.669435 kJ/mol
# GULP energy per Si atom -5570.409780 kJ/mol
# Density = 2.087753 g / cm^3
# Si number density = 20.925161 Si / 1000 Ang^3
#
#
#
# Elastic Constant Matrix: (Units=GPa)
#
#
# Indices 1 2 3 4 5 6 
#
# 1 10.0260 6.7498 16.7629 0.0000 0.0000 0.0000
# 2 6.7498 148.2199 72.1953 0.0000 0.0000 0.0000
# 3 16.7629 72.1953 147.9570 0.0000 0.0000 0.0000
# 4 0.0000 0.0000 0.0000 34.1052 0.0000 0.0000
# 5 0.0000 0.0000 0.0000 0.0000 14.3668 0.0000
# 6 0.0000 0.0000 0.0000 0.0000 0.0000 5.1922
#
#
#
# Elastic Compliance Matrix: (Units=1/GPa)
#
#
# Indices 1 2 3 4 5 6 
#
# 1 0.123324 0.001560 -0.014733 0.000000 0.000000 0.000000
# 2 0.001560 0.008870 -0.004505 0.000000 0.000000 0.000000
# 3 -0.014733 -0.004505 0.010626 0.000000 0.000000 0.000000
# 4 0.000000 0.000000 0.000000 0.029321 0.000000 0.000000
# 5 0.000000 0.000000 0.000000 0.000000 0.069605 0.000000
# 6 0.000000 0.000000 0.000000 0.000000 0.000000 0.192598
#
#
# Mechanical properties :
#
#
# Convention : Reuss Voigt Hill
#
# Bulk Modulus (GPa) = 9.30544 55.29099 32.29822
# Shear Modulus (GPa) = 9.89079 24.76582 17.32831
#
# Velocity S-wave (km/s) = 2.17647 3.44400 2.88081
# Velocity P-wave (km/s) = 3.28217 6.50349 5.15112
#
# Compressibility (1/GPa) = 0.10746402
#
# Stress axis : x y z
#
# Youngs Moduli (GPa) = 8.10873 112.74086 94.10818
#
# Poissons Ratio (x) = -0.17591 1.38653
# Poissons Ratio (y) = -0.01265 0.42394
# Poissons Ratio (z) = 0.11947 0.50788
#
# Static dielectric constant tensor:
#      x y z
#    x 1.851910 0.000000 0.000000 
#    y 0.000000 1.734390 0.000000 
#    z 0.000000 0.000000 1.780020 
# 
# From -- ./inp_files/62265.got.cif
#   From: 2010.05.17/outbox.cif.g08.bks.cpg/sg74_32_cif.got.tgz:62265.got - 2010.06.03 17:57:02.
