data_PCOD9535451
_publ_section_title
;
Structure prediction by ZEFSAII (Michael W. Deem and Ramdas Pophale) SiO2 
 PCOD9535451
Probable space group: I M M A
;
_chemical_formula_sum "Si O2"
_cell_formula_units_Z 64
_cell_length_a 7.810004
_cell_length_b 18.497765
_cell_length_c 25.821491
_cell_angle_alpha 90.000000
_cell_angle_beta 90.000000
_cell_angle_gamma 90.000000
_cell_volume 3730.369315
_symmetry_space_group_name_H-M "I M M A"
_symmetry_group_IT_number 74
_symmetry_cell_setting 'orthorhombic'
loop_
_space_group_symop_operation_xyz
x,y,z
-x,1/2-y,z
x,-y,-z
-x,1/2+y,-z
-x,-y,-z
x,1/2+y,-z
-x,y,z
x,1/2-y,z
1/2+x,1/2+y,1/2+z
1/2-x,-y,1/2+z
1/2+x,1/2-y,1/2-z
1/2-x,y,1/2-z
1/2-x,1/2-y,1/2-z
1/2+x,y,1/2-z
1/2-x,1/2+y,1/2+z
1/2+x,-y,1/2+z
loop_
_atom_site_type_symbol
_atom_site_label
_atom_site_fract_x
_atom_site_fract_y
_atom_site_fract_z
Si Si1 0.795071 0.331546 0.689726
Si Si2 0.808505 0.027098 0.868908
Si Si3 0.000000 0.830581 0.615914
Si Si4 0.500000 0.979966 0.940174
Si Si5 0.198983 0.619601 0.809582
O O1 0.740412 0.250000 0.675432
O O2 0.750000 0.341909 0.750000
O O3 0.713205 0.394646 0.656277
O O4 0.000000 0.336169 0.684245
O O5 0.665747 0.012710 0.911684
O O6 0.000000 0.018185 0.889877
O O7 0.785259 0.965288 0.824897
O O8 0.833455 0.841476 0.652596
O O9 0.000000 0.750000 0.594045
O O10 0.000000 0.894490 0.573646
O O11 0.500000 0.000000 0.000000
O O12 0.250000 0.630888 0.750000
O O13 0.000000 0.640583 0.817338
#
# Coordination Sequence:
#
# PCOD9535451 Si02
#       5
#    16  16   8   8  16
#     4  10  19  30  47  77 116 153 184 219 270 327
#     4  10  20  34  56  79 106 143 184 231 274 324
#     4  10  22  38  56  80 112 144 175 219 272 321
#     4  10  22  42  62  80 104 136 188 239 280 321
#     4  10  19  32  51  80 112 148 184 210 251 320
#
# _framework density 17.156479000000001
#
# number of rings (size 3 to 8) (size 9 to 14) (size 15 to 20)
#    0.000    2.000    2.500    1.500    0.000    5.000 
#    0.000    1.250    0.000    0.000    0.000    0.000 
#    0.000    0.000    0.000    0.000    0.000    0.000 
#
# Total GULP energy -178594.591204 kJ/mol
# GULP energy per Si atom -5581.080975 kJ/mol
# Density = 1.711743 g / cm^3
# Si number density = 17.156479 Si / 1000 Ang^3
#
#
#
# Elastic Constant Matrix: (Units=GPa)
#
#
# Indices 1 2 3 4 5 6 
#
# 1 113.2874 37.7058 34.1755 0.0000 0.0000 0.0000
# 2 37.7058 115.8480 41.9902 0.0000 0.0000 0.0000
# 3 34.1755 41.9902 79.5201 0.0000 0.0000 0.0000
# 4 0.0000 0.0000 0.0000 5.8428 0.0000 0.0000
# 5 0.0000 0.0000 0.0000 0.0000 8.1979 0.0000
# 6 0.0000 0.0000 0.0000 0.0000 0.0000 -0.2214
#
#
#
# Elastic Compliance Matrix: (Units=1/GPa)
#
#
# Indices 1 2 3 4 5 6 
#
# 1 0.010585 -0.002221 -0.003376 0.000000 0.000000 0.000000
# 2 -0.002221 0.011141 -0.004928 0.000000 0.000000 0.000000
# 3 -0.003376 -0.004928 0.016629 0.000000 0.000000 0.000000
# 4 0.000000 0.000000 0.000000 0.171151 0.000000 0.000000
# 5 0.000000 0.000000 0.000000 0.000000 0.121983 0.000000
# 6 0.000000 0.000000 0.000000 0.000000 0.000000 -4.517199
#
#
# Mechanical properties :
#
#
# Convention : Reuss Voigt Hill
#
# Bulk Modulus (GPa) = 57.79279 59.59985 58.69632
# Shear Modulus (GPa) = -1.20224 15.74946 7.27361
#
# Velocity S-wave (km/s) = -0.83802 3.03312 2.06125
# Velocity P-wave (km/s) = 5.72909 6.86155 6.32073
#
# Compressibility (1/GPa) = 0.01730320
#
# Stress axis : x y z
#
# Youngs Moduli (GPa) = 94.47381 89.75540 60.13652
#
# Poissons Ratio (x) = 0.19939 0.20303
# Poissons Ratio (y) = 0.20987 0.29638
# Poissons Ratio (z) = 0.31895 0.44235
#
# Static dielectric constant tensor:
#      x y z
#    x 1.601980 0.000000 0.000000 
#    y 0.000000 1.595790 0.000000 
#    z 0.000000 0.000000 1.521360 
# 
# From -- ./inp_files/48019.got.cif
#   From: 2010.05.17/outbox.cif.g08.bks.cpg/sg74_25_cif.got.tgz:48019.got - 2010.06.03 17:57:02.
