data_PCOD9535362
_publ_section_title
;
Structure prediction by ZEFSAII (Michael W. Deem and Ramdas Pophale) SiO2 
 PCOD9535362
Probable space group: I M M A
;
_chemical_formula_sum "Si O2"
_cell_formula_units_Z 96
_cell_length_a 21.536419
_cell_length_b 8.694407
_cell_length_c 31.656073
_cell_angle_alpha 90.000000
_cell_angle_beta 90.000000
_cell_angle_gamma 90.000000
_cell_volume 5927.485458
_symmetry_space_group_name_H-M "I M M A"
_symmetry_group_IT_number 74
_symmetry_cell_setting 'orthorhombic'
loop_
_space_group_symop_operation_xyz
x,y,z
-x,1/2-y,z
x,-y,-z
-x,1/2+y,-z
-x,-y,-z
x,1/2+y,-z
-x,y,z
x,1/2-y,z
1/2+x,1/2+y,1/2+z
1/2-x,-y,1/2+z
1/2+x,1/2-y,1/2-z
1/2-x,y,1/2-z
1/2-x,1/2-y,1/2-z
1/2+x,y,1/2-z
1/2-x,1/2+y,1/2+z
1/2+x,-y,1/2+z
loop_
_atom_site_type_symbol
_atom_site_label
_atom_site_fract_x
_atom_site_fract_y
_atom_site_fract_z
Si Si1 0.299480 0.933922 0.043875
Si Si2 0.932047 0.432489 0.433923
Si Si3 0.198424 0.935033 0.784378
Si Si4 0.431911 0.935578 0.754109
Si Si5 0.905334 0.429634 0.654834
Si Si6 0.260235 0.569884 0.135105
O O1 0.297325 0.750000 0.043530
O O2 0.264838 0.988019 0.086686
O O3 0.371651 0.983684 0.047947
O O4 0.274682 0.000000 0.000000
O O5 0.925653 0.250000 0.440544
O O6 0.930282 0.471501 0.384104
O O7 0.000000 0.482395 0.449912
O O8 0.199541 0.750000 0.782935
O O9 0.250000 0.989997 0.750000
O O10 0.129299 0.986355 0.771261
O O11 0.217279 0.986643 0.831130
O O12 0.500000 0.973744 0.735815
O O13 0.428609 0.750000 0.758181
O O14 0.427484 0.008508 0.800485
O O15 0.921496 0.250000 0.648883
O O16 0.830676 0.442090 0.652404
O O17 0.243779 0.750000 0.133914
#
# Coordination Sequence:
#
# PCOD9535362 Si02
#       6
#    16  16  16  16  16  16
#     4  10  21  36  52  71  92 118 153 195 245 292
#     4  10  20  32  46  64  88 122 161 200 244 288
#     4  10  19  31  49  72  94 125 168 201 231 282
#     4  10  20  32  45  65  96 129 161 201 243 281
#     4  10  19  30  45  66  92 123 162 204 243 283
#     4   9  19  33  49  70  94 122 156 197 241 282
#
# _framework density 16.195737000000001
#
# number of rings (size 3 to 8) (size 9 to 14) (size 15 to 20)
#    0.000    2.167    1.667    3.000    0.000    8.333 
#    0.000    0.000    0.000    0.000    0.000    0.000 
#    0.000    0.667    0.000    1.500    0.000    2.333 
#
# Total GULP energy -267731.870195 kJ/mol
# GULP energy per Si atom -5577.747296 kJ/mol
# Density = 1.615887 g / cm^3
# Si number density = 16.195737 Si / 1000 Ang^3
#
#
#
# Elastic Constant Matrix: (Units=GPa)
#
#
# Indices 1 2 3 4 5 6 
#
# 1 81.2627 18.6494 54.9262 0.0000 0.0000 0.0000
# 2 18.6494 16.4014 17.0345 0.0000 0.0000 0.0000
# 3 54.9262 17.0345 117.1785 0.0000 0.0000 0.0000
# 4 0.0000 0.0000 0.0000 26.3419 0.0000 0.0000
# 5 0.0000 0.0000 0.0000 0.0000 -0.9537 0.0000
# 6 0.0000 0.0000 0.0000 0.0000 0.0000 -0.5824
#
#
#
# Elastic Compliance Matrix: (Units=1/GPa)
#
#
# Indices 1 2 3 4 5 6 
#
# 1 0.021120 -0.016175 -0.007548 0.000000 0.000000 0.000000
# 2 -0.016175 0.084201 -0.004659 0.000000 0.000000 0.000000
# 3 -0.007548 -0.004659 0.012749 0.000000 0.000000 0.000000
# 4 0.000000 0.000000 0.000000 0.037962 0.000000 0.000000
# 5 0.000000 0.000000 0.000000 0.000000 -1.048597 0.000000
# 6 0.000000 0.000000 0.000000 0.000000 0.000000 -1.717035
#
#
# Mechanical properties :
#
#
# Convention : Reuss Voigt Hill
#
# Bulk Modulus (GPa) = 16.31154 44.00699 30.15927
# Shear Modulus (GPa) = -1.97441 13.24333 5.63446
#
# Velocity S-wave (km/s) = -1.10532 2.86266 1.86722
# Velocity P-wave (km/s) = 2.90936 6.17716 4.82813
#
# Compressibility (1/GPa) = 0.06130628
#
# Stress axis : x y z
#
# Youngs Moduli (GPa) = 47.34894 11.87639 78.43482
#
# Poissons Ratio (x) = 0.19210 0.59205
# Poissons Ratio (y) = 0.76586 0.36540
# Poissons Ratio (z) = 0.35741 0.05533
#
# Static dielectric constant tensor:
#      x y z
#    x 1.556630 0.000000 0.000000 
#    y 0.000000 1.544000 0.000000 
#    z 0.000000 0.000000 1.552530 
# 
# From -- ./inp_files/64261.got.cif
#   From: 2010.05.17/outbox.cif.g08.bks.cpg/sg74_33_cif.got.tgz:64261.got - 2010.06.03 17:57:02.
