data_PCOD9535468
_publ_section_title
;
Structure prediction by ZEFSAII (Michael W. Deem and Ramdas Pophale) SiO2 
 PCOD9535468
Probable space group: I M M A
;
_chemical_formula_sum "Si O2"
_cell_formula_units_Z 112
_cell_length_a 14.485706
_cell_length_b 25.573022
_cell_length_c 15.554712
_cell_angle_alpha 90.000000
_cell_angle_beta 90.000000
_cell_angle_gamma 90.000000
_cell_volume 5762.138505
_symmetry_space_group_name_H-M "I M M A"
_symmetry_group_IT_number 74
_symmetry_cell_setting 'orthorhombic'
loop_
_space_group_symop_operation_xyz
x,y,z
-x,1/2-y,z
x,-y,-z
-x,1/2+y,-z
-x,-y,-z
x,1/2+y,-z
-x,y,z
x,1/2-y,z
1/2+x,1/2+y,1/2+z
1/2-x,-y,1/2+z
1/2+x,1/2-y,1/2-z
1/2-x,y,1/2-z
1/2-x,1/2-y,1/2-z
1/2+x,y,1/2-z
1/2-x,1/2+y,1/2+z
1/2+x,-y,1/2+z
loop_
_atom_site_type_symbol
_atom_site_label
_atom_site_fract_x
_atom_site_fract_y
_atom_site_fract_z
Si Si1 0.891892 0.691683 0.908799
Si Si2 0.100424 0.810950 0.394694
Si Si3 0.699503 0.691921 0.412549
Si Si4 0.106605 0.041523 0.422437
Si Si5 0.277079 0.907340 0.652214
Si Si6 0.607122 0.879180 0.277038
Si Si7 0.606663 0.000210 0.273943
O O1 0.860126 0.750000 0.879125
O O2 0.839234 0.641083 0.875430
O O3 0.000000 0.687601 0.889943
O O4 0.872419 0.690519 0.010453
O O5 0.098643 0.750000 0.365031
O O6 0.195790 0.816082 0.446111
O O7 0.108710 0.850530 0.315010
O O8 0.000000 0.820428 0.436825
O O9 0.695767 0.750000 0.373360
O O10 0.673036 0.650782 0.341362
O O11 0.190399 0.082665 0.411521
O O12 0.000000 0.060915 0.433718
O O13 0.122466 0.000000 0.500000
O O14 0.110460 0.015870 0.326955
O O15 0.250000 0.894588 0.750000
O O16 0.332714 0.961874 0.666425
O O17 0.500000 0.875629 0.306142
O O18 0.633516 0.939746 0.276310
O O19 0.500000 0.005355 0.300683
#
# Coordination Sequence:
#
# PCOD9535468 Si02
#       7
#    16  16  16  16  16  16  16
#     4  10  22  40  61  83 106 135 173 220 275 331
#     4   9  18  31  47  70 103 145 188 227 266 307
#     4  10  20  34  52  74 104 144 186 225 267 317
#     4   9  19  36  56  80 112 148 183 216 257 314
#     4  10  21  37  60  84 108 138 173 217 266 318
#     4  10  19  30  48  76 110 146 185 226 264 310
#     4   9  19  35  54  79 109 141 177 217 263 313
#
# _framework density 19.437228000000001
#
# number of rings (size 3 to 8) (size 9 to 14) (size 15 to 20)
#    0.000    2.429    0.000    1.714    0.000    9.143 
#    0.000    2.143    0.000    4.714    0.000    0.000 
#    0.000    0.000    0.000    0.000    0.000    0.000 
#
# Total GULP energy -311999.690576 kJ/mol
# GULP energy per Si atom -5571.423046 kJ/mol
# Density = 1.939299 g / cm^3
# Si number density = 19.437228 Si / 1000 Ang^3
#
#
#
# Elastic Constant Matrix: (Units=GPa)
#
#
# Indices 1 2 3 4 5 6 
#
# 1 108.1446 59.0453 18.9889 0.0000 0.0000 0.0000
# 2 59.0453 124.8940 25.4192 -0.0008 0.0000 0.0000
# 3 18.9889 25.4192 21.3452 -0.0002 0.0000 0.0000
# 4 0.0000 -0.0008 -0.0002 -61.8138 0.0000 0.0002
# 5 0.0000 0.0000 0.0000 0.0000 15.6337 0.0000
# 6 0.0000 0.0000 0.0000 0.0002 0.0000 27.1062
#
#
#
# Elastic Compliance Matrix: (Units=1/GPa)
#
#
# Indices 1 2 3 4 5 6 
#
# 1 0.012949 -0.004986 -0.005582 0.000000 0.000000 0.000000
# 2 -0.004986 0.012488 -0.010436 0.000000 0.000000 0.000000
# 3 -0.005582 -0.010436 0.064243 0.000000 0.000000 0.000000
# 4 0.000000 0.000000 0.000000 -0.016178 0.000000 0.000000
# 5 0.000000 0.000000 0.000000 0.000000 0.063964 0.000000
# 6 0.000000 0.000000 0.000000 0.000000 0.000000 0.036892
#
#
# Mechanical properties :
#
#
# Convention : Reuss Voigt Hill
#
# Bulk Modulus (GPa) = 20.97680 51.25452 36.11566
# Shear Modulus (GPa) = 21.52783 6.24724 13.88754
#
# Velocity S-wave (km/s) = 3.33161 1.79472 2.67588
# Velocity P-wave (km/s) = 5.06112 5.54267 5.30736
#
# Compressibility (1/GPa) = 0.04767172
#
# Stress axis : x y z
#
# Youngs Moduli (GPa) = 77.22474 80.07775 15.56594
#
# Poissons Ratio (x) = 0.39925 0.08689
# Poissons Ratio (y) = 0.38502 0.16245
# Poissons Ratio (z) = 0.43110 0.83569
#
# Static dielectric constant tensor:
#      x y z
#    x 1.744890 0.000000 0.000000 
#    y 0.000000 1.697120 0.000000 
#    z 0.000000 0.000000 1.641800 
# 
# From -- ./inp_files/32721.got.cif
#   From: 2010.05.17/outbox.cif.g08.bks.cpg/sg74_17_cif.got.tgz:32721.got - 2010.06.03 17:57:02.
