data_PCOD9535979
_publ_section_title
;
Structure prediction by ZEFSAII (Michael W. Deem and Ramdas Pophale) SiO2 
 PCOD9535979
Probable space group: I M M A
;
_chemical_formula_sum "Si O2"
_cell_formula_units_Z 80
_cell_length_a 14.267404
_cell_length_b 10.545638
_cell_length_c 23.406616
_cell_angle_alpha 90.000000
_cell_angle_beta 90.000000
_cell_angle_gamma 90.000000
_cell_volume 3521.733176
_symmetry_space_group_name_H-M "I M M A"
_symmetry_group_IT_number 74
_symmetry_cell_setting 'orthorhombic'
loop_
_space_group_symop_operation_xyz
x,y,z
-x,1/2-y,z
x,-y,-z
-x,1/2+y,-z
-x,-y,-z
x,1/2+y,-z
-x,y,z
x,1/2-y,z
1/2+x,1/2+y,1/2+z
1/2-x,-y,1/2+z
1/2+x,1/2-y,1/2-z
1/2-x,y,1/2-z
1/2-x,1/2-y,1/2-z
1/2+x,y,1/2-z
1/2-x,1/2+y,1/2+z
1/2+x,-y,1/2+z
loop_
_atom_site_type_symbol
_atom_site_label
_atom_site_fract_x
_atom_site_fract_y
_atom_site_fract_z
Si Si1 0.884640 0.250000 0.230000
Si Si2 0.114786 0.750000 0.637100
Si Si3 0.108552 0.504953 0.169233
Si Si4 0.139160 0.250000 0.754007
Si Si5 0.614638 0.005649 0.066372
Si Si6 0.106812 0.250000 0.621389
Si Si7 0.114663 0.604527 0.046773
O O1 0.857198 0.250000 0.296602
O O2 0.851890 0.377888 0.198054
O O3 0.000000 0.250000 0.230371
O O4 0.146628 0.627171 0.601929
O O5 0.000000 0.750000 0.637101
O O6 0.110820 0.623378 0.212516
O O7 0.145842 0.554169 0.108808
O O8 0.000000 0.473585 0.157909
O O9 0.250000 0.250000 0.750000
O O10 0.104404 0.250000 0.689388
O O11 0.500000 0.010347 0.068286
O O12 0.648295 0.878519 0.097223
O O13 0.640295 0.000000 0.000000
O O14 0.000000 0.250000 0.599677
O O15 0.145854 0.750000 0.036349
O O16 0.000000 0.609294 0.046973
O O17 0.141742 0.500000 0.000000
#
# Coordination Sequence:
#
# PCOD9535979 Si02
#       7
#     8   8  16   8  16   8  16
#     4   9  18  29  50  80 106 135 174 219 268 328
#     4   9  15  24  36  60  98 130 157 197 247 296
#     4  10  19  35  56  81 111 144 180 224 280 335
#     4  12  24  37  54  76 106 146 193 236 275 318
#     4   9  16  26  44  72 103 129 158 203 259 316
#     4  10  19  32  53  78 102 135 174 214 264 320
#     4   9  17  28  47  78 113 142 170 214 269 327
#
# _framework density 22.716087000000002
#
# number of rings (size 3 to 8) (size 9 to 14) (size 15 to 20)
#    0.000    2.400    1.000    2.700    1.400    5.600 
#    0.000    0.500    0.000    1.200    0.000    0.000 
#    0.000    0.000    0.000    0.000    0.000    0.000 
#
# Total GULP energy -223614.843554 kJ/mol
# GULP energy per Si atom -5590.371089 kJ/mol
# Density = 2.266438 g / cm^3
# Si number density = 22.716087 Si / 1000 Ang^3
#
#
#
# Elastic Constant Matrix: (Units=GPa)
#
#
# Indices 1 2 3 4 5 6 
#
# 1 72.5841 5.0436 -7.1475 0.0000 0.0000 0.0000
# 2 5.0436 282.8314 159.3398 0.0000 0.0000 0.0000
# 3 -7.1475 159.3398 222.4434 0.0000 0.0000 0.0000
# 4 0.0000 0.0000 0.0000 46.6122 0.0000 0.0000
# 5 0.0000 0.0000 0.0000 0.0000 47.9925 0.0000
# 6 0.0000 0.0000 0.0000 0.0000 0.0000 12.2530
#
#
#
# Elastic Compliance Matrix: (Units=1/GPa)
#
#
# Indices 1 2 3 4 5 6 
#
# 1 0.013939 -0.000840 0.001049 0.000000 0.000000 0.000000
# 2 -0.000840 0.005978 -0.004309 0.000000 0.000000 0.000000
# 3 0.001049 -0.004309 0.007616 0.000000 0.000000 0.000000
# 4 0.000000 0.000000 0.000000 0.021454 0.000000 0.000000
# 5 0.000000 0.000000 0.000000 0.000000 0.020837 0.000000
# 6 0.000000 0.000000 0.000000 0.000000 0.000000 0.081613
#
#
# Mechanical properties :
#
#
# Convention : Reuss Voigt Hill
#
# Bulk Modulus (GPa) = 51.72275 99.14785 75.43530
# Shear Modulus (GPa) = 30.10587 49.41307 39.75947
#
# Velocity S-wave (km/s) = 3.64443 4.66901 4.18817
# Velocity P-wave (km/s) = 6.36615 8.53273 7.52779
#
# Compressibility (1/GPa) = 0.01933385
#
# Stress axis : x y z
#
# Youngs Moduli (GPa) = 71.74205 167.26610 131.29915
#
# Poissons Ratio (x) = 0.14047 -0.13779
# Poissons Ratio (y) = 0.06025 0.56583
# Poissons Ratio (z) = -0.07529 0.72083
#
# Static dielectric constant tensor:
#      x y z
#    x 1.853010 0.000000 0.000000 
#    y 0.000000 2.733210 0.000000 
#    z 0.000000 0.000000 1.736610 
# 
# From -- ./inp_files/61376.got.cif
#   From: 2010.05.17/outbox.cif.g08.bks.cpg/sg74_31_cif.got.tgz:61376.got - 2010.06.03 17:57:02.
