data_PCOD9535318
_publ_section_title
;
Structure prediction by ZEFSAII (Michael W. Deem and Ramdas Pophale) SiO2 
 PCOD9535318
Probable space group: I M M A
;
_chemical_formula_sum "Si O2"
_cell_formula_units_Z 88
_cell_length_a 19.119840
_cell_length_b 18.495334
_cell_length_c 13.527723
_cell_angle_alpha 90.000000
_cell_angle_beta 90.000000
_cell_angle_gamma 90.000000
_cell_volume 4783.779286
_symmetry_space_group_name_H-M "I M M A"
_symmetry_group_IT_number 74
_symmetry_cell_setting 'orthorhombic'
loop_
_space_group_symop_operation_xyz
x,y,z
-x,1/2-y,z
x,-y,-z
-x,1/2+y,-z
-x,-y,-z
x,1/2+y,-z
-x,y,z
x,1/2-y,z
1/2+x,1/2+y,1/2+z
1/2-x,-y,1/2+z
1/2+x,1/2-y,1/2-z
1/2-x,y,1/2-z
1/2-x,1/2-y,1/2-z
1/2+x,y,1/2-z
1/2-x,1/2+y,1/2+z
1/2+x,-y,1/2+z
loop_
_atom_site_type_symbol
_atom_site_label
_atom_site_fract_x
_atom_site_fract_y
_atom_site_fract_z
Si Si1 0.643663 0.834367 0.515545
Si Si2 0.655858 0.170935 0.258849
Si Si3 0.000000 0.578853 0.953605
Si Si4 0.847658 0.491960 0.301350
Si Si5 0.210229 0.953823 0.097493
Si Si6 0.500000 0.136241 0.247368
Si Si7 0.500000 0.515889 0.885338
O O1 0.631958 0.750000 0.496409
O O2 0.676637 0.839657 0.626250
O O3 0.569760 0.877041 0.517187
O O4 0.692747 0.872724 0.435330
O O5 0.679932 0.250000 0.221217
O O6 0.668352 0.095095 0.202390
O O7 0.571866 0.175837 0.262813
O O8 0.000000 0.575439 0.833826
O O9 0.000000 0.500000 0.000000
O O10 0.836085 0.520212 0.190023
O O11 0.789490 0.529999 0.369234
O O12 0.925941 0.507871 0.338317
O O13 0.193620 0.000000 0.000000
O O14 0.500000 0.101139 0.139950
O O15 0.500000 0.500000 0.000000
#
# Coordination Sequence:
#
# PCOD9535318 Si02
#       7
#    16  16   8  16  16   8   8
#     4  10  20  33  54  85 123 162 194 238 303 358
#     4   9  16  31  52  83 121 149 184 239 301 365
#     4  10  19  29  55  89 127 155 186 239 293 360
#     4  10  22  36  57  87 111 157 206 241 303 358
#     4  11  21  38  57  83 119 155 195 248 295 358
#     4   8  17  28  49  86 117 148 183 217 299 361
#     4  10  20  37  56  81 113 144 197 251 288 344
#
# _framework density 18.395498
#
# number of rings (size 3 to 8) (size 9 to 14) (size 15 to 20)
#    0.000    2.182    1.818    1.636    5.091    2.182 
#    0.000    5.000    0.000    0.000    0.000   13.364 
#    0.000    0.000    0.000    0.000    0.000    0.000 
#
# Total GULP energy -245257.712610 kJ/mol
# GULP energy per Si atom -5574.038923 kJ/mol
# Density = 1.835363 g / cm^3
# Si number density = 18.395498 Si / 1000 Ang^3
#
#
#
# Elastic Constant Matrix: (Units=GPa)
#
#
# Indices 1 2 3 4 5 6 
#
# 1 141.4696 40.5902 49.4088 0.0000 0.0000 0.0000
# 2 40.5902 132.3292 44.4862 0.0000 0.0000 0.0000
# 3 49.4088 44.4862 98.2501 0.0000 0.0000 0.0000
# 4 0.0000 0.0000 0.0000 14.6195 0.0000 0.0000
# 5 0.0000 0.0000 0.0000 0.0000 17.9487 0.0000
# 6 0.0000 0.0000 0.0000 0.0000 0.0000 6.8108
#
#
#
# Elastic Compliance Matrix: (Units=1/GPa)
#
#
# Indices 1 2 3 4 5 6 
#
# 1 0.008798 -0.001429 -0.003777 0.000000 0.000000 0.000000
# 2 -0.001429 0.009146 -0.003423 0.000000 0.000000 0.000000
# 3 -0.003777 -0.003423 0.013627 0.000000 0.000000 0.000000
# 4 0.000000 0.000000 0.000000 0.068402 0.000000 0.000000
# 5 0.000000 0.000000 0.000000 0.000000 0.055714 0.000000
# 6 0.000000 0.000000 0.000000 0.000000 0.000000 0.146826
#
#
# Mechanical properties :
#
#
# Convention : Reuss Voigt Hill
#
# Bulk Modulus (GPa) = 69.86378 71.22436 70.54407
# Shear Modulus (GPa) = 15.40635 23.71337 19.55986
#
# Velocity S-wave (km/s) = 2.89711 3.59428 3.26436
# Velocity P-wave (km/s) = 7.01799 7.48515 7.25533
#
# Compressibility (1/GPa) = 0.01431357
#
# Stress axis : x y z
#
# Youngs Moduli (GPa) = 113.66389 109.34037 73.38146
#
# Poissons Ratio (x) = 0.15622 0.27719
# Poissons Ratio (y) = 0.16240 0.25115
# Poissons Ratio (z) = 0.42936 0.37422
#
# Static dielectric constant tensor:
#      x y z
#    x 1.693630 0.000000 0.000000 
#    y 0.000000 1.661540 0.000000 
#    z 0.000000 0.000000 1.634120 
# 
# From -- ./inp_files/23717.got.cif
#   From: 2010.05.17/outbox.cif.g08.bks.cpg/sg74_12_cif.got.tgz:23717.got - 2010.06.03 17:57:02.
