data_PCOD9535465
_publ_section_title
;
Structure prediction by ZEFSAII (Michael W. Deem and Ramdas Pophale) SiO2 
 PCOD9535465
Probable space group: I M M A
;
_chemical_formula_sum "Si O2"
_cell_formula_units_Z 80
_cell_length_a 26.413028
_cell_length_b 8.935713
_cell_length_c 20.173331
_cell_angle_alpha 90.000000
_cell_angle_beta 90.000000
_cell_angle_gamma 90.000000
_cell_volume 4761.294204
_symmetry_space_group_name_H-M "I M M A"
_symmetry_group_IT_number 74
_symmetry_cell_setting 'orthorhombic'
loop_
_space_group_symop_operation_xyz
x,y,z
-x,1/2-y,z
x,-y,-z
-x,1/2+y,-z
-x,-y,-z
x,1/2+y,-z
-x,y,z
x,1/2-y,z
1/2+x,1/2+y,1/2+z
1/2-x,-y,1/2+z
1/2+x,1/2-y,1/2-z
1/2-x,y,1/2-z
1/2-x,1/2-y,1/2-z
1/2+x,y,1/2-z
1/2-x,1/2+y,1/2+z
1/2+x,-y,1/2+z
loop_
_atom_site_type_symbol
_atom_site_label
_atom_site_fract_x
_atom_site_fract_y
_atom_site_fract_z
Si Si1 0.558120 0.569816 0.428868
Si Si2 0.753428 0.922043 0.330454
Si Si3 0.642668 0.428919 0.177267
Si Si4 0.142016 0.931348 0.177282
Si Si5 0.558093 0.569716 0.928432
O O1 0.570762 0.500000 0.500000
O O2 0.500000 0.527691 0.412756
O O3 0.560187 0.750000 0.434081
O O4 0.597398 0.524035 0.372214
O O5 0.761091 0.750000 0.351452
O O6 0.750000 0.922441 0.250000
O O7 0.697496 0.974868 0.350982
O O8 0.802255 0.018202 0.348395
O O9 0.642032 0.250000 0.183093
O O10 0.635297 0.500016 0.249901
O O11 0.598383 0.476669 0.127086
O O12 0.142786 0.750000 0.183623
O O13 0.500000 0.528215 0.911160
O O14 0.560150 0.750000 0.933688
O O15 0.569705 0.500000 0.000000
#
# Coordination Sequence:
#
# PCOD9535465 Si02
#       5
#    16  16  16  16  16
#     4   9  18  33  51  70  94 124 158 195 233 275
#     4   8  15  29  47  66  93 127 156 185 227 277
#     4  10  19  30  48  74  98 119 151 196 236 272
#     4   9  18  32  49  70  96 126 158 190 228 277
#     4   9  19  35  51  68  93 124 156 191 233 279
#
# _framework density 16.802154000000002
#
# number of rings (size 3 to 8) (size 9 to 14) (size 15 to 20)
#    0.000    3.000    0.000    1.800    0.000    6.800 
#    0.000    1.000    0.000    4.800    0.000    0.000 
#    0.000    0.000    0.000    0.000    0.000    0.000 
#
# Total GULP energy -222816.992831 kJ/mol
# GULP energy per Si atom -5570.424821 kJ/mol
# Density = 1.676391 g / cm^3
# Si number density = 16.802154 Si / 1000 Ang^3
#
#
#
# Elastic Constant Matrix: (Units=GPa)
#
#
# Indices 1 2 3 4 5 6 
#
# 1 159.6069 41.6374 100.8051 0.0000 0.0000 0.0000
# 2 41.6374 20.3804 30.3309 0.0000 0.0000 0.0000
# 3 100.8051 30.3309 90.0600 0.0000 0.0000 0.0000
# 4 0.0000 0.0000 0.0000 24.5510 0.0000 0.0000
# 5 0.0000 0.0000 0.0000 0.0000 -7.9781 0.0000
# 6 0.0000 0.0000 0.0000 0.0000 0.0000 25.1236
#
#
#
# Elastic Compliance Matrix: (Units=1/GPa)
#
#
# Indices 1 2 3 4 5 6 
#
# 1 0.024414 -0.018463 -0.021108 0.000000 0.000000 0.000000
# 2 -0.018463 0.112336 -0.017167 0.000000 0.000000 0.000000
# 3 -0.021108 -0.017167 0.040512 0.000000 0.000000 0.000000
# 4 0.000000 0.000000 0.000000 0.040732 0.000000 0.000000
# 5 0.000000 0.000000 0.000000 0.000000 -0.125344 0.000000
# 6 0.000000 0.000000 0.000000 0.000000 0.000000 0.039803
#
#
# Mechanical properties :
#
#
# Convention : Reuss Voigt Hill
#
# Bulk Modulus (GPa) = 15.67775 68.39934 42.03854
# Shear Modulus (GPa) = 18.71311 14.82423 16.76867
#
# Velocity S-wave (km/s) = 3.34088 2.97354 3.16255
# Velocity P-wave (km/s) = 4.92271 7.25164 6.19756
#
# Compressibility (1/GPa) = 0.06378467
#
# Stress axis : x y z
#
# Youngs Moduli (GPa) = 40.96074 8.90184 24.68390
#
# Poissons Ratio (x) = 0.16435 0.52104
# Poissons Ratio (y) = 0.75626 0.42376
# Poissons Ratio (z) = 0.86461 0.15282
#
# Static dielectric constant tensor:
#      x y z
#    x 1.598770 0.000000 0.000000 
#    y 0.000000 1.567750 0.000000 
#    z 0.000000 0.000000 1.528470 
# 
# From -- ./inp_files/39733.got.cif
#   From: 2010.05.17/outbox.cif.g08.bks.cpg/sg74_20_cif.got.tgz:39733.got - 2010.06.03 17:57:02.
