data_PCOD9535802
_publ_section_title
;
Structure prediction by ZEFSAII (Michael W. Deem and Ramdas Pophale) SiO2 
 PCOD9535802
Probable space group: I M M A
;
_chemical_formula_sum "Si O2"
_cell_formula_units_Z 96
_cell_length_a 22.245216
_cell_length_b 8.117781
_cell_length_c 28.873144
_cell_angle_alpha 90.000000
_cell_angle_beta 90.000000
_cell_angle_gamma 90.000000
_cell_volume 5213.964078
_symmetry_space_group_name_H-M "I M M A"
_symmetry_group_IT_number 74
_symmetry_cell_setting 'orthorhombic'
loop_
_space_group_symop_operation_xyz
x,y,z
-x,1/2-y,z
x,-y,-z
-x,1/2+y,-z
-x,-y,-z
x,1/2+y,-z
-x,y,z
x,1/2-y,z
1/2+x,1/2+y,1/2+z
1/2-x,-y,1/2+z
1/2+x,1/2-y,1/2-z
1/2-x,y,1/2-z
1/2-x,1/2-y,1/2-z
1/2+x,y,1/2-z
1/2-x,1/2+y,1/2+z
1/2+x,-y,1/2+z
loop_
_atom_site_type_symbol
_atom_site_label
_atom_site_fract_x
_atom_site_fract_y
_atom_site_fract_z
Si Si1 0.500000 0.944503 0.886616
Si Si2 0.750832 0.948442 0.447918
Si Si3 0.378503 0.050035 0.727341
Si Si4 0.000000 0.050101 0.720937
Si Si5 0.200279 0.439891 0.310230
Si Si6 0.629802 0.945974 0.104464
Si Si7 0.183851 0.940834 0.140071
O O1 0.500000 0.750000 0.891394
O O2 0.500000 0.989815 0.831883
O O3 0.561599 0.013726 0.907981
O O4 0.749435 0.750000 0.445493
O O5 0.818087 0.998073 0.431446
O O6 0.703540 0.013634 0.409441
O O7 0.738522 0.000000 0.500000
O O8 0.377601 0.250000 0.726799
O O9 0.440747 0.997638 0.750907
O O10 0.366017 0.989478 0.675054
O O11 0.325151 0.990916 0.760806
O O12 0.000000 0.250000 0.718755
O O13 0.219212 0.250000 0.310124
O O14 0.146783 0.466240 0.347334
O O15 0.254634 0.548001 0.330035
O O16 0.634965 0.750000 0.111916
O O17 0.168255 0.750000 0.132013
#
# Coordination Sequence:
#
# PCOD9535802 Si02
#       7
#     8  16  16   8  16  16  16
#     4  12  22  32  49  75 102 133 172 214 247 282
#     4   9  19  35  55  75  95 121 159 209 262 307
#     4  10  19  32  49  69  98 135 172 201 238 294
#     4  10  20  32  50  71  98 141 177 204 237 284
#     4  11  20  29  45  72 102 130 165 207 248 288
#     4  10  20  35  52  70  97 136 173 204 244 299
#     4   9  19  34  50  70  97 131 165 200 247 305
#
# _framework density 18.412094
#
# number of rings (size 3 to 8) (size 9 to 14) (size 15 to 20)
#    0.000    2.000    1.667    4.250    0.000    6.000 
#    0.000    0.417    0.000    0.000    0.000    0.583 
#    0.000    0.000    0.000    0.000    0.000    0.000 
#
# Total GULP energy -267767.916412 kJ/mol
# GULP energy per Si atom -5578.498259 kJ/mol
# Density = 1.837019 g / cm^3
# Si number density = 18.412094 Si / 1000 Ang^3
#
#
#
# Elastic Constant Matrix: (Units=GPa)
#
#
# Indices 1 2 3 4 5 6 
#
# 1 24.3449 -1.4247 12.0750 0.0000 0.0000 0.0000
# 2 -1.4247 31.0808 6.5119 0.0000 0.0000 0.0000
# 3 12.0750 6.5119 116.7640 0.0000 0.0000 0.0000
# 4 0.0000 0.0000 0.0000 19.4331 0.0000 0.0000
# 5 0.0000 0.0000 0.0000 0.0000 19.5756 0.0000
# 6 0.0000 0.0000 0.0000 0.0000 0.0000 4.0748
#
#
#
# Elastic Compliance Matrix: (Units=1/GPa)
#
#
# Indices 1 2 3 4 5 6 
#
# 1 0.043568 0.002976 -0.004671 0.000000 0.000000 0.000000
# 2 0.002976 0.032758 -0.002135 0.000000 0.000000 0.000000
# 3 -0.004671 -0.002135 0.009166 0.000000 0.000000 0.000000
# 4 0.000000 0.000000 0.000000 0.051459 0.000000 0.000000
# 5 0.000000 0.000000 0.000000 0.000000 0.051084 0.000000
# 6 0.000000 0.000000 0.000000 0.000000 0.000000 0.245410
#
#
# Mechanical properties :
#
#
# Convention : Reuss Voigt Hill
#
# Bulk Modulus (GPa) = 12.84830 22.94602 17.89716
# Shear Modulus (GPa) = 10.70553 18.95188 14.82870
#
# Velocity S-wave (km/s) = 2.41392 3.21178 2.84100
# Velocity P-wave (km/s) = 3.84223 5.12285 4.52804
#
# Compressibility (1/GPa) = 0.07783130
#
# Stress axis : x y z
#
# Youngs Moduli (GPa) = 22.95286 30.52707 109.09381
#
# Poissons Ratio (x) = -0.09084 0.50963
# Poissons Ratio (y) = -0.06830 0.23288
# Poissons Ratio (z) = 0.10722 0.06516
#
# Static dielectric constant tensor:
#      x y z
#    x 1.657590 0.000000 0.000000 
#    y 0.000000 1.654080 0.000000 
#    z 0.000000 0.000000 1.649010 
# 
# From -- ./inp_files/61970.got.cif
#   From: 2010.05.17/outbox.cif.g08.bks.cpg/sg74_31_cif.got.tgz:61970.got - 2010.06.03 17:57:02.
