data_PCOD9535050
_publ_section_title
;
Structure prediction by ZEFSAII (Michael W. Deem and Ramdas Pophale) SiO2 
 PCOD9535050
Probable space group: I M M A
;
_chemical_formula_sum "Si O2"
_cell_formula_units_Z 88
_cell_length_a 27.637177
_cell_length_b 14.731822
_cell_length_c 12.271626
_cell_angle_alpha 90.000000
_cell_angle_beta 90.000000
_cell_angle_gamma 90.000000
_cell_volume 4996.343098
_symmetry_space_group_name_H-M "I M M A"
_symmetry_group_IT_number 74
_symmetry_cell_setting 'orthorhombic'
loop_
_space_group_symop_operation_xyz
x,y,z
-x,1/2-y,z
x,-y,-z
-x,1/2+y,-z
-x,-y,-z
x,1/2+y,-z
-x,y,z
x,1/2-y,z
1/2+x,1/2+y,1/2+z
1/2-x,-y,1/2+z
1/2+x,1/2-y,1/2-z
1/2-x,y,1/2-z
1/2-x,1/2-y,1/2-z
1/2+x,y,1/2-z
1/2-x,1/2+y,1/2+z
1/2+x,-y,1/2+z
loop_
_atom_site_type_symbol
_atom_site_label
_atom_site_fract_x
_atom_site_fract_y
_atom_site_fract_z
Si Si1 0.305908 0.859336 0.853874
Si Si2 0.086444 0.641044 0.619131
Si Si3 0.201368 0.640507 0.904282
Si Si4 0.372552 0.500000 0.500000
Si Si5 0.057459 0.498942 0.792218
Si Si6 0.943257 0.649060 0.380777
O O1 0.303566 0.750000 0.858359
O O2 0.357804 0.887686 0.897003
O O3 0.257647 0.888886 0.917065
O O4 0.306399 0.880331 0.724618
O O5 0.084102 0.750000 0.634481
O O6 0.064684 0.591377 0.723634
O O7 0.061017 0.618341 0.505601
O O8 0.196580 0.750000 0.918962
O O9 0.163225 0.584997 0.975994
O O10 0.408226 0.506756 0.396585
O O11 0.074834 0.421757 0.707291
O O12 0.000000 0.488855 0.817971
O O13 0.921102 0.750000 0.372580
O O14 0.000000 0.656548 0.357785
#
# Coordination Sequence:
#
# PCOD9535050 Si02
#       6
#    16  16  16   8  16  16
#     4   8  15  32  57  79 102 131 170 225 277 317
#     4  10  18  33  59  86 108 135 179 234 286 328
#     4   9  18  35  55  77 106 141 183 225 267 321
#     4  12  23  36  54  80 110 154 189 222 268 328
#     4  11  23  37  52  76 112 150 188 227 271 326
#     4   9  19  36  56  77 104 141 182 226 279 330
#
# _framework density 17.612881999999999
#
# number of rings (size 3 to 8) (size 9 to 14) (size 15 to 20)
#    0.000    2.364    1.818    2.455    0.000    3.273 
#    3.273    0.000    0.000    3.273    0.000    7.636 
#    0.000    0.000    0.000    0.000    0.000    0.000 
#
# Total GULP energy -244989.855648 kJ/mol
# GULP energy per Si atom -5567.951265 kJ/mol
# Density = 1.757279 g / cm^3
# Si number density = 17.612882 Si / 1000 Ang^3
#
#
#
# Elastic Constant Matrix: (Units=GPa)
#
#
# Indices 1 2 3 4 5 6 
#
# 1 88.0787 34.1207 39.3470 0.0000 0.0000 0.0000
# 2 34.1207 69.7567 48.5535 0.0000 0.0000 0.0000
# 3 39.3470 48.5535 99.4806 0.0000 0.0000 0.0000
# 4 0.0000 0.0000 0.0000 12.4404 0.0000 0.0000
# 5 0.0000 0.0000 0.0000 0.0000 23.0768 0.0000
# 6 0.0000 0.0000 0.0000 0.0000 0.0000 20.3990
#
#
#
# Elastic Compliance Matrix: (Units=1/GPa)
#
#
# Indices 1 2 3 4 5 6 
#
# 1 0.014774 -0.004785 -0.003508 0.000000 0.000000 0.000000
# 2 -0.004785 0.023261 -0.009460 0.000000 0.000000 0.000000
# 3 -0.003508 -0.009460 0.016057 0.000000 0.000000 0.000000
# 4 0.000000 0.000000 0.000000 0.080383 0.000000 0.000000
# 5 0.000000 0.000000 0.000000 0.000000 0.043334 0.000000
# 6 0.000000 0.000000 0.000000 0.000000 0.000000 0.049022
#
#
# Mechanical properties :
#
#
# Convention : Reuss Voigt Hill
#
# Bulk Modulus (GPa) = 53.80590 55.70649 54.75620
# Shear Modulus (GPa) = 18.61967 20.20289 19.41128
#
# Velocity S-wave (km/s) = 3.25493 3.39049 3.32340
# Velocity P-wave (km/s) = 6.68892 6.85742 6.77369
#
# Compressibility (1/GPa) = 0.01858532
#
# Stress axis : x y z
#
# Youngs Moduli (GPa) = 67.68519 42.99082 62.27757
#
# Poissons Ratio (x) = 0.20570 0.21849
# Poissons Ratio (y) = 0.32386 0.58917
# Poissons Ratio (z) = 0.23746 0.40671
#
# Static dielectric constant tensor:
#      x y z
#    x 1.682810 0.000000 0.000000 
#    y 0.000000 1.642070 0.000000 
#    z 0.000000 0.000000 1.571970 
# 
# From -- ./inp_files/26151.got.cif
#   From: 2010.05.17/outbox.cif.g08.bks.cpg/sg74_14_cif.got.tgz:26151.got - 2010.06.03 17:57:02.
