data_PCOD9535932
_publ_section_title
;
Structure prediction by ZEFSAII (Michael W. Deem and Ramdas Pophale) SiO2 
 PCOD9535932
Probable space group: I M M A
;
_chemical_formula_sum "Si O2"
_cell_formula_units_Z 96
_cell_length_a 9.095656
_cell_length_b 29.600634
_cell_length_c 20.105066
_cell_angle_alpha 90.000000
_cell_angle_beta 90.000000
_cell_angle_gamma 90.000000
_cell_volume 5413.031359
_symmetry_space_group_name_H-M "I M M A"
_symmetry_group_IT_number 74
_symmetry_cell_setting 'orthorhombic'
loop_
_space_group_symop_operation_xyz
x,y,z
-x,1/2-y,z
x,-y,-z
-x,1/2+y,-z
-x,-y,-z
x,1/2+y,-z
-x,y,z
x,1/2-y,z
1/2+x,1/2+y,1/2+z
1/2-x,-y,1/2+z
1/2+x,1/2-y,1/2-z
1/2-x,y,1/2-z
1/2-x,1/2-y,1/2-z
1/2+x,y,1/2-z
1/2-x,1/2+y,1/2+z
1/2+x,-y,1/2+z
loop_
_atom_site_type_symbol
_atom_site_label
_atom_site_fract_x
_atom_site_fract_y
_atom_site_fract_z
Si Si1 0.826267 0.047775 0.536818
Si Si2 0.676353 0.514607 0.182605
Si Si3 0.169107 0.694830 0.182894
Si Si4 0.676441 0.915998 0.682770
Si Si5 0.671805 0.195991 0.952878
Si Si6 0.825922 0.127456 0.042401
O O1 0.796357 0.042235 0.615217
O O2 0.730986 0.086077 0.502495
O O3 0.000000 0.057964 0.528266
O O4 0.799044 0.000000 0.500000
O O5 0.500000 0.510051 0.190801
O O6 0.750000 0.533241 0.250000
O O7 0.749099 0.465143 0.172501
O O8 0.171351 0.750000 0.183629
O O9 0.250000 0.679710 0.250000
O O10 0.250507 0.680785 0.115569
O O11 0.000000 0.680480 0.182526
O O12 0.500000 0.921164 0.690137
O O13 0.750000 0.897647 0.750000
O O14 0.706208 0.885536 0.618552
O O15 0.500000 0.185104 0.949064
O O16 0.687826 0.250000 0.957634
O O17 0.745025 0.171328 0.014799
O O18 0.000000 0.132679 0.035105
#
# Coordination Sequence:
#
# PCOD9535932 Si02
#       6
#    16  16  16  16  16  16
#     4  10  20  35  54  77 108 145 180 218 265 319
#     4  10  19  32  52  76 106 145 183 220 265 313
#     4   9  16  28  49  76 105 136 173 218 265 315
#     4  10  20  33  52  79 108 139 177 219 265 318
#     4  10  21  37  57  80 107 142 184 229 277 329
#     4  11  23  36  55  83 111 141 179 226 275 324
#
# _framework density 17.73498
#
# number of rings (size 3 to 8) (size 9 to 14) (size 15 to 20)
#    0.000    2.000    1.667    3.500    0.000    6.667 
#    0.000    0.833    0.000    2.500    0.000    0.000 
#    0.000    0.000    0.000    0.000    0.000    0.000 
#
# Total GULP energy -267991.745495 kJ/mol
# GULP energy per Si atom -5583.161364 kJ/mol
# Density = 1.769461 g / cm^3
# Si number density = 17.734980 Si / 1000 Ang^3
#
#
#
# Elastic Constant Matrix: (Units=GPa)
#
#
# Indices 1 2 3 4 5 6 
#
# 1 119.1375 35.3237 87.0822 0.0000 0.0000 0.0000
# 2 35.3237 18.1974 31.1050 0.0000 0.0000 0.0000
# 3 87.0822 31.1050 153.5931 0.0000 0.0000 0.0000
# 4 0.0000 0.0000 0.0000 21.6555 0.0000 0.0000
# 5 0.0000 0.0000 0.0000 0.0000 32.2395 0.0000
# 6 0.0000 0.0000 0.0000 0.0000 0.0000 25.1511
#
#
#
# Elastic Compliance Matrix: (Units=1/GPa)
#
#
# Indices 1 2 3 4 5 6 
#
# 1 0.023005 -0.034200 -0.006117 0.000000 0.000000 0.000000
# 2 -0.034200 0.134889 -0.007927 0.000000 0.000000 0.000000
# 3 -0.006117 -0.007927 0.011584 0.000000 0.000000 0.000000
# 4 0.000000 0.000000 0.000000 0.046178 0.000000 0.000000
# 5 0.000000 0.000000 0.000000 0.000000 0.031018 0.000000
# 6 0.000000 0.000000 0.000000 0.000000 0.000000 0.039760
#
#
# Mechanical properties :
#
#
# Convention : Reuss Voigt Hill
#
# Bulk Modulus (GPa) = 13.70036 66.43886 40.06961
# Shear Modulus (GPa) = 12.27741 24.97036 18.62389
#
# Velocity S-wave (km/s) = 2.63396 3.75637 3.24407
# Velocity P-wave (km/s) = 4.12215 7.50714 6.05596
#
# Compressibility (1/GPa) = 0.07299077
#
# Stress axis : x y z
#
# Youngs Moduli (GPa) = 43.46900 7.41348 86.32445
#
# Poissons Ratio (x) = 0.25354 0.52805
# Poissons Ratio (y) = 1.48663 0.68430
# Poissons Ratio (z) = 0.26590 0.05877
#
# Static dielectric constant tensor:
#      x y z
#    x 1.590690 0.000000 0.000000 
#    y 0.000000 1.602480 0.000000 
#    z 0.000000 0.000000 1.608030 
# 
# From -- ./inp_files/49093.got.cif
#   From: 2010.05.17/outbox.cif.g08.bks.cpg/sg74_25_cif.got.tgz:49093.got - 2010.06.03 17:57:02.
