data_PCOD9535698
_publ_section_title
;
Structure prediction by ZEFSAII (Michael W. Deem and Ramdas Pophale) SiO2 
 PCOD9535698
Probable space group: I M M A
;
_chemical_formula_sum "Si O2"
_cell_formula_units_Z 112
_cell_length_a 27.981634
_cell_length_b 14.930113
_cell_length_c 12.613530
_cell_angle_alpha 90.000000
_cell_angle_beta 90.000000
_cell_angle_gamma 90.000000
_cell_volume 5269.541279
_symmetry_space_group_name_H-M "I M M A"
_symmetry_group_IT_number 74
_symmetry_cell_setting 'orthorhombic'
loop_
_space_group_symop_operation_xyz
x,y,z
-x,1/2-y,z
x,-y,-z
-x,1/2+y,-z
-x,-y,-z
x,1/2+y,-z
-x,y,z
x,1/2-y,z
1/2+x,1/2+y,1/2+z
1/2-x,-y,1/2+z
1/2+x,1/2-y,1/2-z
1/2-x,y,1/2-z
1/2-x,1/2-y,1/2-z
1/2+x,y,1/2-z
1/2-x,1/2+y,1/2+z
1/2+x,-y,1/2+z
loop_
_atom_site_type_symbol
_atom_site_label
_atom_site_fract_x
_atom_site_fract_y
_atom_site_fract_z
Si Si1 0.654884 0.644262 0.089956
Si Si2 0.326195 0.145010 0.683021
Si Si3 0.053854 0.395168 0.525315
Si Si4 0.056528 0.151957 0.283996
Si Si5 0.297617 0.645415 0.542664
Si Si6 0.695004 0.359419 0.133308
Si Si7 0.635261 0.958191 0.683082
O O1 0.657854 0.750000 0.075438
O O2 0.686555 0.626478 0.194025
O O3 0.598623 0.621533 0.102034
O O4 0.671894 0.608188 0.977588
O O5 0.341652 0.250000 0.679536
O O6 0.290303 0.134156 0.583971
O O7 0.363395 0.064353 0.668311
O O8 0.051942 0.500000 0.500000
O O9 0.065268 0.352150 0.410619
O O10 0.000000 0.367047 0.558804
O O11 0.072652 0.250000 0.246642
O O12 0.084402 0.077192 0.220442
O O13 0.000000 0.143440 0.271165
O O14 0.307852 0.750000 0.560187
O O15 0.251034 0.624570 0.612386
O O16 0.342341 0.587992 0.580034
O O17 0.688931 0.250000 0.149850
O O18 0.670156 0.417119 0.224565
#
# Coordination Sequence:
#
# PCOD9535698 Si02
#       7
#    16  16  16  16  16  16  16
#     4  10  20  36  56  80 114 157 199 239 293 357
#     4  10  24  43  59  81 120 169 210 244 298 369
#     4  10  19  31  50  81 119 156 195 241 298 360
#     4  10  20  34  58  94 130 160 195 249 318 375
#     4  10  22  42  63  87 121 158 202 255 307 364
#     4  10  21  37  61  93 121 150 196 253 310 361
#     4  12  21  38  65  93 121 156 206 260 309 359
#
# _framework density 21.254221999999999
#
# number of rings (size 3 to 8) (size 9 to 14) (size 15 to 20)
#    0.000    1.714    1.429    3.429    0.000    2.571 
#    7.714    2.857    0.000    3.857    0.000    4.000 
#    0.000    0.000    0.000    0.000    0.000    0.000 
#
# Total GULP energy -312317.765211 kJ/mol
# GULP energy per Si atom -5577.102950 kJ/mol
# Density = 2.120585 g / cm^3
# Si number density = 21.254222 Si / 1000 Ang^3
#
#
#
# Elastic Constant Matrix: (Units=GPa)
#
#
# Indices 1 2 3 4 5 6 
#
# 1 45.3352 11.2575 24.5064 0.0000 0.0000 0.0000
# 2 11.2575 89.8640 10.0593 0.0000 0.0000 0.0000
# 3 24.5064 10.0593 104.8445 0.0000 0.0000 0.0000
# 4 0.0000 0.0000 0.0000 22.7168 0.0000 0.0000
# 5 0.0000 0.0000 0.0000 0.0000 1.9750 0.0000
# 6 0.0000 0.0000 0.0000 0.0000 0.0000 25.5201
#
#
#
# Elastic Compliance Matrix: (Units=1/GPa)
#
#
# Indices 1 2 3 4 5 6 
#
# 1 0.025830 -0.002588 -0.005789 0.000000 0.000000 0.000000
# 2 -0.002588 0.011508 -0.000499 0.000000 0.000000 0.000000
# 3 -0.005789 -0.000499 0.010939 0.000000 0.000000 0.000000
# 4 0.000000 0.000000 0.000000 0.044020 0.000000 0.000000
# 5 0.000000 0.000000 0.000000 0.000000 0.506322 0.000000
# 6 0.000000 0.000000 0.000000 0.000000 0.000000 0.039185
#
#
# Mechanical properties :
#
#
# Convention : Reuss Voigt Hill
#
# Bulk Modulus (GPa) = 32.76062 36.85446 34.80754
# Shear Modulus (GPa) = 7.51054 22.99042 15.25048
#
# Velocity S-wave (km/s) = 1.88184 3.29247 2.68158
# Velocity P-wave (km/s) = 4.49099 5.64192 5.09903
#
# Compressibility (1/GPa) = 0.03052445
#
# Stress axis : x y z
#
# Youngs Moduli (GPa) = 38.71478 86.89612 91.41597
#
# Poissons Ratio (x) = 0.22487 0.52923
# Poissons Ratio (y) = 0.10018 0.04564
# Poissons Ratio (z) = 0.22413 0.04338
#
# Static dielectric constant tensor:
#      x y z
#    x 1.786010 0.000000 0.000000 
#    y 0.000000 1.814050 0.000000 
#    z 0.000000 0.000000 1.757540 
# 
# From -- ./inp_files/27180.got.cif
#   From: 2010.05.17/outbox.cif.g08.bks.cpg/sg74_14_cif.got.tgz:27180.got - 2010.06.03 17:57:02.
