data_PCOD9535159
_publ_section_title
;
Structure prediction by ZEFSAII (Michael W. Deem and Ramdas Pophale) SiO2 
 PCOD9535159
Probable space group: I M M A
;
_chemical_formula_sum "Si O2"
_cell_formula_units_Z 88
_cell_length_a 28.305636
_cell_length_b 24.604604
_cell_length_c 5.793768
_cell_angle_alpha 90.000000
_cell_angle_beta 90.000000
_cell_angle_gamma 90.000000
_cell_volume 4035.063726
_symmetry_space_group_name_H-M "I M M A"
_symmetry_group_IT_number 74
_symmetry_cell_setting 'orthorhombic'
loop_
_space_group_symop_operation_xyz
x,y,z
-x,1/2-y,z
x,-y,-z
-x,1/2+y,-z
-x,-y,-z
x,1/2+y,-z
-x,y,z
x,1/2-y,z
1/2+x,1/2+y,1/2+z
1/2-x,-y,1/2+z
1/2+x,1/2-y,1/2-z
1/2-x,y,1/2-z
1/2-x,1/2-y,1/2-z
1/2+x,y,1/2-z
1/2-x,1/2+y,1/2+z
1/2+x,-y,1/2+z
loop_
_atom_site_type_symbol
_atom_site_label
_atom_site_fract_x
_atom_site_fract_y
_atom_site_fract_z
Si Si1 0.000000 0.917813 0.837822
Si Si2 0.693659 0.941095 0.433523
Si Si3 0.906495 0.312080 0.857242
Si Si4 0.899301 0.913340 0.828737
Si Si5 0.830477 0.132065 0.549114
Si Si6 0.500000 0.356043 0.840435
Si Si7 0.750000 0.141776 0.250000
O O1 0.948512 0.945036 0.809651
O O2 0.000000 0.880637 0.599951
O O3 0.000000 0.895577 0.107952
O O4 0.638040 0.939964 0.498106
O O5 0.696441 0.917505 0.177421
O O6 0.717613 0.896196 0.591907
O O7 0.712393 0.000000 0.500000
O O8 0.904210 0.250000 0.931413
O O9 0.858982 0.330273 0.725505
O O10 0.952096 0.321873 0.695714
O O11 0.911950 0.354032 0.067276
O O12 0.870118 0.898996 0.600611
O O13 0.790848 0.166671 0.411391
#
# Coordination Sequence:
#
# PCOD9535159 Si02
#       7
#     8  16  16  16  16   8   8
#     4  10  18  36  60  87 122 168 204 245 304 358
#     4  10  22  37  61  87 116 147 194 249 310 365
#     4  10  20  35  56  86 119 160 202 248 295 352
#     4   9  20  36  56  84 120 161 198 245 298 361
#     4  10  20  38  56  82 119 156 191 246 304 360
#     4  10  19  34  58  88 123 157 209 255 308 350
#     4  10  22  34  59  86 114 148 193 244 314 368
#
# _framework density 21.808827000000001
#
# number of rings (size 3 to 8) (size 9 to 14) (size 15 to 20)
#    0.000    2.182    1.818    0.818    2.545    2.909 
#    0.000    1.818    0.000   15.273    0.000    0.000 
#    0.000    0.000    0.000    0.000    0.000    0.000 
#
# Total GULP energy -244975.363112 kJ/mol
# GULP energy per Si atom -5567.621889 kJ/mol
# Density = 2.175919 g / cm^3
# Si number density = 21.808827 Si / 1000 Ang^3
#
#
#
# Elastic Constant Matrix: (Units=GPa)
#
#
# Indices 1 2 3 4 5 6 
#
# 1 127.1158 -14.2160 17.2395 0.0000 0.0000 0.0000
# 2 -14.2160 37.2675 5.6488 0.0000 0.0000 0.0000
# 3 17.2395 5.6488 76.4321 0.0000 0.0000 0.0000
# 4 0.0000 0.0000 0.0000 0.1149 0.0000 0.0000
# 5 0.0000 0.0000 0.0000 0.0000 47.0876 0.0000
# 6 0.0000 0.0000 0.0000 0.0000 0.0000 12.0049
#
#
#
# Elastic Compliance Matrix: (Units=1/GPa)
#
#
# Indices 1 2 3 4 5 6 
#
# 1 0.008568 0.003602 -0.002199 0.000000 0.000000 0.000000
# 2 0.003602 0.028651 -0.002930 0.000000 0.000000 0.000000
# 3 -0.002199 -0.002930 0.013796 0.000000 0.000000 0.000000
# 4 0.000000 0.000000 0.000000 8.705601 0.000000 0.000000
# 5 0.000000 0.000000 0.000000 0.000000 0.021237 0.000000
# 6 0.000000 0.000000 0.000000 0.000000 0.000000 0.083300
#
#
# Mechanical properties :
#
#
# Convention : Reuss Voigt Hill
#
# Bulk Modulus (GPa) = 20.85037 28.68445 24.76741
# Shear Modulus (GPa) = 0.56305 27.31767 13.94036
#
# Velocity S-wave (km/s) = 0.50866 3.54304 2.53100
# Velocity P-wave (km/s) = 3.15060 5.46981 4.46346
#
# Compressibility (1/GPa) = 0.04796079
#
# Stress axis : x y z
#
# Youngs Moduli (GPa) = 116.71607 34.90285 72.48507
#
# Poissons Ratio (x) = -0.12570 0.15937
# Poissons Ratio (y) = -0.42035 0.21237
# Poissons Ratio (z) = 0.25662 0.10226
#
# Static dielectric constant tensor:
#      x y z
#    x 1.882630 0.000000 0.000000 
#    y 0.000000 1.766870 0.000000 
#    z 0.000000 0.000000 2.006650 
# 
# From -- ./inp_files/3969.got.cif
#   From: 2010.05.17/outbox.cif.g08.bks.cpg/sg74_2_cif.got.tgz:3969.got - 2010.06.03 17:57:02.
