data_PCOD9535646
_publ_section_title
;
Structure prediction by ZEFSAII (Michael W. Deem and Ramdas Pophale) SiO2 
 PCOD9535646
Probable space group: I M M A
;
_chemical_formula_sum "Si O2"
_cell_formula_units_Z 80
_cell_length_a 18.406621
_cell_length_b 18.406619
_cell_length_c 15.485382
_cell_angle_alpha 90.000000
_cell_angle_beta 90.000000
_cell_angle_gamma 90.000000
_cell_volume 5246.504095
_symmetry_space_group_name_H-M "I M M A"
_symmetry_group_IT_number 74
_symmetry_cell_setting 'orthorhombic'
loop_
_space_group_symop_operation_xyz
x,y,z
-x,1/2-y,z
x,-y,-z
-x,1/2+y,-z
-x,-y,-z
x,1/2+y,-z
-x,y,z
x,1/2-y,z
1/2+x,1/2+y,1/2+z
1/2-x,-y,1/2+z
1/2+x,1/2-y,1/2-z
1/2-x,y,1/2-z
1/2-x,1/2-y,1/2-z
1/2+x,y,1/2-z
1/2-x,1/2+y,1/2+z
1/2+x,-y,1/2+z
loop_
_atom_site_type_symbol
_atom_site_label
_atom_site_fract_x
_atom_site_fract_y
_atom_site_fract_z
Si Si1 0.417351 0.167351 0.375000
Si Si2 0.191752 0.448988 0.420696
Si Si3 0.211157 0.664789 0.011519
Si Si4 0.914789 0.038843 0.261519
Si Si5 0.801012 0.441752 0.829304
O O1 0.500000 0.159439 0.408128
O O2 0.409439 0.250000 0.341872
O O3 0.358821 0.157340 0.449818
O O4 0.407340 0.108821 0.300182
O O5 0.167994 0.500000 0.500000
O O6 0.222539 0.374836 0.461468
O O7 0.129447 0.445041 0.349038
O O8 0.259387 0.490613 0.375000
O O9 0.224862 0.750000 0.026386
O O10 0.195041 0.620553 0.099038
O O11 0.000000 0.025138 0.276386
O O12 0.875164 0.972539 0.211468
O O13 0.750000 0.417994 0.750000
#
# Coordination Sequence:
#
# PCOD9535646 Si02
#       5
#    16  16  16  16  16
#     4   9  18  30  44  70 104 128 152 190 237 292
#     4   9  18  33  49  69  97 125 161 208 244 282
#     4  10  19  31  50  72  96 131 164 197 246 294
#     4  10  19  31  50  72  96 131 164 197 246 294
#     4   9  18  33  49  69  97 125 161 208 244 282
#
# _framework density 15.248248999999999
#
# number of rings (size 3 to 8) (size 9 to 14) (size 15 to 20)
#    0.000    2.600    2.000    0.000    0.000    2.400 
#    0.000    4.000    0.000    0.000    0.000    0.000 
#    0.000    0.000    0.000    0.000    0.000    0.000 
#
# Total GULP energy -222808.504648 kJ/mol
# GULP energy per Si atom -5570.212616 kJ/mol
# Density = 1.521354 g / cm^3
# Si number density = 15.248249 Si / 1000 Ang^3
#
#
#
# Elastic Constant Matrix: (Units=GPa)
#
#
# Indices 1 2 3 4 5 6 
#
# 1 104.7934 72.8551 65.4639 0.0000 0.0000 0.0000
# 2 72.8551 104.7931 65.4638 0.0000 0.0000 0.0000
# 3 65.4639 65.4638 103.0722 0.0000 0.0000 0.0000
# 4 0.0000 0.0000 0.0000 11.1388 0.0000 0.0000
# 5 0.0000 0.0000 0.0000 0.0000 11.1388 0.0000
# 6 0.0000 0.0000 0.0000 0.0000 0.0000 14.8225
#
#
#
# Elastic Compliance Matrix: (Units=1/GPa)
#
#
# Indices 1 2 3 4 5 6 
#
# 1 0.020947 -0.010364 -0.006721 0.000000 0.000000 0.000000
# 2 -0.010364 0.020947 -0.006721 0.000000 0.000000 0.000000
# 3 -0.006721 -0.006721 0.018240 0.000000 0.000000 0.000000
# 4 0.000000 0.000000 0.000000 0.089776 0.000000 0.000000
# 5 0.000000 0.000000 0.000000 0.000000 0.089776 0.000000
# 6 0.000000 0.000000 0.000000 0.000000 0.000000 0.067465
#
#
# Mechanical properties :
#
#
# Convention : Reuss Voigt Hill
#
# Bulk Modulus (GPa) = 79.87359 80.02491 79.94925
# Shear Modulus (GPa) = 13.93002 14.67843 14.30423
#
# Velocity S-wave (km/s) = 3.02578 3.10599 3.06615
# Velocity P-wave (km/s) = 8.04381 8.09063 8.06725
#
# Compressibility (1/GPa) = 0.01251978
#
# Stress axis : x y z
#
# Youngs Moduli (GPa) = 47.74029 47.74024 54.82510
#
# Poissons Ratio (x) = 0.49477 0.36850
# Poissons Ratio (y) = 0.49477 0.36850
# Poissons Ratio (z) = 0.32088 0.32088
#
# Static dielectric constant tensor:
#      x y z
#    x 1.503500 0.000000 0.000000 
#    y 0.000000 1.503500 0.000000 
#    z 0.000000 0.000000 1.495720 
# 
# From -- ./inp_files/32103.got.cif
#   From: 2010.05.17/outbox.cif.g08.bks.cpg/sg74_17_cif.got.tgz:32103.got - 2010.06.03 17:57:02.
