data_PCOD9535136
_publ_section_title
;
Structure prediction by ZEFSAII (Michael W. Deem and Ramdas Pophale) SiO2 
 PCOD9535136
Probable space group: I M M A
;
_chemical_formula_sum "Si O2"
_cell_formula_units_Z 72
_cell_length_a 14.933068
_cell_length_b 18.376527
_cell_length_c 11.731111
_cell_angle_alpha 90.000000
_cell_angle_beta 90.000000
_cell_angle_gamma 90.000000
_cell_volume 3219.227165
_symmetry_space_group_name_H-M "I M M A"
_symmetry_group_IT_number 74
_symmetry_cell_setting 'orthorhombic'
loop_
_space_group_symop_operation_xyz
x,y,z
-x,1/2-y,z
x,-y,-z
-x,1/2+y,-z
-x,-y,-z
x,1/2+y,-z
-x,y,z
x,1/2-y,z
1/2+x,1/2+y,1/2+z
1/2-x,-y,1/2+z
1/2+x,1/2-y,1/2-z
1/2-x,y,1/2-z
1/2-x,1/2-y,1/2-z
1/2+x,y,1/2-z
1/2-x,1/2+y,1/2+z
1/2+x,-y,1/2+z
loop_
_atom_site_type_symbol
_atom_site_label
_atom_site_fract_x
_atom_site_fract_y
_atom_site_fract_z
Si Si1 0.794119 0.669125 0.593485
Si Si2 0.159846 0.331215 0.672668
Si Si3 0.097677 0.049777 0.831034
Si Si4 0.250000 0.948742 0.750000
Si Si5 0.902487 0.830232 0.973025
O O1 0.826137 0.750000 0.627993
O O2 0.816948 0.659516 0.460433
O O3 0.814819 0.600262 0.670649
O O4 0.685622 0.669033 0.602195
O O5 0.120442 0.250000 0.685257
O O6 0.250000 0.332525 0.750000
O O7 0.102757 0.397218 0.721402
O O8 0.103763 0.104881 0.937228
O O9 0.000000 0.013193 0.836746
O O10 0.183309 0.998074 0.824877
O O11 0.898894 0.750000 0.031816
O O12 0.000000 0.834378 0.916202
#
# Coordination Sequence:
#
# PCOD9535136 Si02
#       5
#    16  16  16   8  16
#     4  10  21  38  61  81 107 153 197 237 285 333
#     4  10  18  35  61  87 113 143 185 238 287 331
#     4  11  22  36  58  89 120 153 184 229 294 346
#     4  12  25  40  53  80 122 160 196 228 267 340
#     4   9  17  32  58  90 115 137 180 243 301 343
#
# _framework density 22.365615999999999
#
# number of rings (size 3 to 8) (size 9 to 14) (size 15 to 20)
#    0.000    1.778    3.333    1.000    0.000    5.778 
#    0.000    4.444    0.000    3.333    0.000    0.000 
#    0.000    0.000    0.000    0.000    0.000    0.000 
#
# Total GULP energy -200952.748840 kJ/mol
# GULP energy per Si atom -5582.020801 kJ/mol
# Density = 2.231471 g / cm^3
# Si number density = 22.365616 Si / 1000 Ang^3
#
#
#
# Elastic Constant Matrix: (Units=GPa)
#
#
# Indices 1 2 3 4 5 6 
#
# 1 41.4085 0.7749 -22.7030 0.0000 0.0000 0.0000
# 2 0.7749 101.3293 23.2386 0.0000 0.0000 0.0000
# 3 -22.7030 23.2386 53.9199 0.0000 0.0000 0.0000
# 4 0.0000 0.0000 0.0000 24.9617 0.0000 0.0000
# 5 0.0000 0.0000 0.0000 0.0000 9.0163 0.0000
# 6 0.0000 0.0000 0.0000 0.0000 0.0000 7.5612
#
#
#
# Elastic Compliance Matrix: (Units=1/GPa)
#
#
# Indices 1 2 3 4 5 6 
#
# 1 0.032650 -0.003776 0.015374 0.000000 0.000000 0.000000
# 2 -0.003776 0.011388 -0.006498 0.000000 0.000000 0.000000
# 3 0.015374 -0.006498 0.027820 0.000000 0.000000 0.000000
# 4 0.000000 0.000000 0.000000 0.040061 0.000000 0.000000
# 5 0.000000 0.000000 0.000000 0.000000 0.110911 0.000000
# 6 0.000000 0.000000 0.000000 0.000000 0.000000 0.132253
#
#
# Mechanical properties :
#
#
# Convention : Reuss Voigt Hill
#
# Bulk Modulus (GPa) = 12.18628 22.14208 17.16418
# Shear Modulus (GPa) = 13.43242 21.33099 17.38170
#
# Velocity S-wave (km/s) = 2.45334 3.09162 2.79079
# Velocity P-wave (km/s) = 3.67228 4.76085 4.25155
#
# Compressibility (1/GPa) = 0.08205947
#
# Stress axis : x y z
#
# Youngs Moduli (GPa) = 30.62823 87.81283 35.94555
#
# Poissons Ratio (x) = 0.33155 -0.55264
# Poissons Ratio (y) = 0.11564 0.23356
# Poissons Ratio (z) = -0.47089 0.57058
#
# Static dielectric constant tensor:
#      x y z
#    x 1.845780 0.000000 0.000000 
#    y 0.000000 1.907270 0.000000 
#    z 0.000000 0.000000 1.835110 
# 
# From -- ./inp_files/21869.got.cif
#   From: 2010.05.17/outbox.cif.g08.bks.cpg/sg74_11_cif.got.tgz:21869.got - 2010.06.03 17:57:02.
