data_PCOD9535477
_publ_section_title
;
Structure prediction by ZEFSAII (Michael W. Deem and Ramdas Pophale) SiO2 
 PCOD9535477
Probable space group: I M M A
;
_chemical_formula_sum "Si O2"
_cell_formula_units_Z 96
_cell_length_a 21.513010
_cell_length_b 9.672948
_cell_length_c 25.053138
_cell_angle_alpha 90.000000
_cell_angle_beta 90.000000
_cell_angle_gamma 90.000000
_cell_volume 5213.413387
_symmetry_space_group_name_H-M "I M M A"
_symmetry_group_IT_number 74
_symmetry_cell_setting 'orthorhombic'
loop_
_space_group_symop_operation_xyz
x,y,z
-x,1/2-y,z
x,-y,-z
-x,1/2+y,-z
-x,-y,-z
x,1/2+y,-z
-x,y,z
x,1/2-y,z
1/2+x,1/2+y,1/2+z
1/2-x,-y,1/2+z
1/2+x,1/2-y,1/2-z
1/2-x,y,1/2-z
1/2-x,1/2-y,1/2-z
1/2+x,y,1/2-z
1/2-x,1/2+y,1/2+z
1/2+x,-y,1/2+z
loop_
_atom_site_type_symbol
_atom_site_label
_atom_site_fract_x
_atom_site_fract_y
_atom_site_fract_z
Si Si1 0.679384 0.085216 0.253397
Si Si2 0.568238 0.918529 0.671291
Si Si3 0.146337 0.589260 0.631336
Si Si4 0.098879 0.913237 0.948143
Si Si5 0.753234 0.590606 0.949907
Si Si6 0.074588 0.092365 0.550962
O O1 0.686008 0.250000 0.265273
O O2 0.750000 0.028817 0.250000
O O3 0.628647 0.031368 0.295910
O O4 0.651334 0.071254 0.194334
O O5 0.500000 0.959909 0.692777
O O6 0.570357 0.750000 0.672971
O O7 0.571749 0.956760 0.608881
O O8 0.129069 0.750000 0.620648
O O9 0.213040 0.564863 0.602899
O O10 0.100158 0.484710 0.602770
O O11 0.085888 0.750000 0.956281
O O12 0.173452 0.930227 0.941639
O O13 0.079404 0.000000 0.000000
O O14 0.743965 0.750000 0.964304
O O15 0.733286 0.500000 0.000000
O O16 0.097359 0.250000 0.546285
O O17 0.000000 0.095835 0.552637
O O18 0.092462 0.000000 0.500000
#
# Coordination Sequence:
#
# PCOD9535477 Si02
#       6
#    16  16  16  16  16  16
#     4   9  17  30  49  73 102 136 172 210 252 299
#     4   9  17  29  46  69  96 126 163 207 249 289
#     4  10  19  30  49  75  99 127 166 209 252 300
#     4   9  17  30  48  70  98 129 160 196 241 293
#     4   9  17  28  43  67  97 126 156 194 241 290
#     4  10  21  36  52  71  99 134 169 208 257 311
#
# _framework density 18.414038999999999
#
# number of rings (size 3 to 8) (size 9 to 14) (size 15 to 20)
#    0.000    2.667    0.000    2.000    0.000    8.000 
#    0.000    1.667    0.000    1.500    0.000    0.000 
#    0.000    0.000    0.000    0.000    0.000    0.000 
#
# Total GULP energy -267563.381164 kJ/mol
# GULP energy per Si atom -5574.237108 kJ/mol
# Density = 1.837213 g / cm^3
# Si number density = 18.414039 Si / 1000 Ang^3
#
#
#
# Elastic Constant Matrix: (Units=GPa)
#
#
# Indices 1 2 3 4 5 6 
#
# 1 97.9975 29.9220 52.1868 0.0000 0.0000 0.0000
# 2 29.9220 47.1212 33.7152 0.0000 0.0000 0.0000
# 3 52.1868 33.7152 80.4680 0.0000 0.0000 0.0000
# 4 0.0000 0.0000 0.0000 21.0855 0.0000 0.0000
# 5 0.0000 0.0000 0.0000 0.0000 19.2710 0.0000
# 6 0.0000 0.0000 0.0000 0.0000 0.0000 46.4519
#
#
#
# Elastic Compliance Matrix: (Units=1/GPa)
#
#
# Indices 1 2 3 4 5 6 
#
# 1 0.016081 -0.003926 -0.008784 0.000000 0.000000 0.000000
# 2 -0.003926 0.031266 -0.010554 0.000000 0.000000 0.000000
# 3 -0.008784 -0.010554 0.022546 0.000000 0.000000 0.000000
# 4 0.000000 0.000000 0.000000 0.047426 0.000000 0.000000
# 5 0.000000 0.000000 0.000000 0.000000 0.051891 0.000000
# 6 0.000000 0.000000 0.000000 0.000000 0.000000 0.021528
#
#
# Mechanical properties :
#
#
# Convention : Reuss Voigt Hill
#
# Bulk Modulus (GPa) = 42.79935 50.80383 46.80159
# Shear Modulus (GPa) = 20.40355 24.67920 22.54138
#
# Velocity S-wave (km/s) = 3.33234 3.66490 3.50257
# Velocity P-wave (km/s) = 6.17246 6.74969 6.46751
#
# Compressibility (1/GPa) = 0.02336484
#
# Stress axis : x y z
#
# Youngs Moduli (GPa) = 62.18512 31.98321 44.35373
#
# Poissons Ratio (x) = 0.12558 0.38961
# Poissons Ratio (y) = 0.24417 0.46810
# Poissons Ratio (z) = 0.54624 0.33754
#
# Static dielectric constant tensor:
#      x y z
#    x 1.686540 0.000000 0.000000 
#    y 0.000000 1.608610 0.000000 
#    z 0.000000 0.000000 1.617090 
# 
# From -- ./inp_files/68113.got.cif
#   From: 2010.05.17/outbox.cif.g08.bks.cpg/sg74_35_cif.got.tgz:68113.got - 2010.06.03 17:57:02.
