data_PCOD9535030
_publ_section_title
;
Structure prediction by ZEFSAII (Michael W. Deem and Ramdas Pophale) SiO2 
 PCOD9535030
Probable space group: I M M A
;
_chemical_formula_sum "Si O2"
_cell_formula_units_Z 88
_cell_length_a 8.254874
_cell_length_b 28.512244
_cell_length_c 20.174264
_cell_angle_alpha 90.000000
_cell_angle_beta 90.000000
_cell_angle_gamma 90.000000
_cell_volume 4748.315277
_symmetry_space_group_name_H-M "I M M A"
_symmetry_group_IT_number 74
_symmetry_cell_setting 'orthorhombic'
loop_
_space_group_symop_operation_xyz
x,y,z
-x,1/2-y,z
x,-y,-z
-x,1/2+y,-z
-x,-y,-z
x,1/2+y,-z
-x,y,z
x,1/2-y,z
1/2+x,1/2+y,1/2+z
1/2-x,-y,1/2+z
1/2+x,1/2-y,1/2-z
1/2-x,y,1/2-z
1/2-x,1/2-y,1/2-z
1/2+x,y,1/2-z
1/2-x,1/2+y,1/2+z
1/2+x,-y,1/2+z
loop_
_atom_site_type_symbol
_atom_site_label
_atom_site_fract_x
_atom_site_fract_y
_atom_site_fract_z
Si Si1 0.804598 0.460909 0.909815
Si Si2 0.195299 0.564229 0.941644
Si Si3 0.301985 0.803548 0.066460
Si Si4 0.694960 0.334262 0.080376
Si Si5 0.307246 0.122615 0.824278
Si Si6 0.196027 0.750000 0.674272
O O1 0.752408 0.515264 0.908248
O O2 0.743721 0.428153 0.851481
O O3 0.000000 0.460469 0.909791
O O4 0.751266 0.439628 0.981127
O O5 0.255443 0.612008 0.909263
O O6 0.000000 0.564841 0.941794
O O7 0.500000 0.804643 0.066045
O O8 0.253154 0.750000 0.078907
O O9 0.243918 0.839003 0.123045
O O10 0.248223 0.819292 0.993226
O O11 0.500000 0.332040 0.079736
O O12 0.751954 0.296325 0.134218
O O13 0.500000 0.125289 0.825164
O O14 0.250000 0.131018 0.750000
O O15 0.250000 0.750000 0.750000
O O16 0.000000 0.750000 0.672742
#
# Coordination Sequence:
#
# PCOD9535030 Si02
#       6
#    16  16  16  16  16   8
#     4   9  18  34  53  77 110 143 176 218 272 325
#     4   9  18  32  54  82 110 138 171 223 277 317
#     4   9  17  32  54  79 106 139 182 225 268 315
#     4  10  18  33  57  83 108 140 182 224 263 317
#     4  11  22  35  54  78 108 148 186 227 273 321
#     4  10  22  38  58  82 113 146 176 217 272 329
#
# _framework density 18.532888
#
# number of rings (size 3 to 8) (size 9 to 14) (size 15 to 20)
#    0.000    2.364    2.727    1.636    0.000    1.818 
#    0.000    2.727    0.000    6.000    0.000    0.000 
#    0.000    0.000    0.000    0.000    0.000    0.000 
#
# Total GULP energy -245466.743887 kJ/mol
# GULP energy per Si atom -5578.789634 kJ/mol
# Density = 1.849071 g / cm^3
# Si number density = 18.532888 Si / 1000 Ang^3
#
#
#
# Elastic Constant Matrix: (Units=GPa)
#
#
# Indices 1 2 3 4 5 6 
#
# 1 10.2473 14.8253 16.1105 0.0000 0.0000 0.0000
# 2 14.8253 172.3068 88.8929 0.0000 0.0000 0.0000
# 3 16.1105 88.8929 136.1344 0.0000 0.0000 0.0002
# 4 0.0000 0.0000 0.0000 26.9140 0.0000 0.0001
# 5 0.0000 0.0000 0.0000 0.0000 17.9581 0.0000
# 6 0.0000 0.0000 0.0002 0.0001 0.0000 -238.0783
#
#
#
# Elastic Compliance Matrix: (Units=1/GPa)
#
#
# Indices 1 2 3 4 5 6 
#
# 1 0.122272 -0.004607 -0.011461 0.000000 0.000000 0.000000
# 2 -0.004607 0.008925 -0.005283 0.000000 0.000000 0.000000
# 3 -0.011461 -0.005283 0.012152 0.000000 0.000000 0.000000
# 4 0.000000 0.000000 0.000000 0.037155 0.000000 0.000000
# 5 0.000000 0.000000 0.000000 0.000000 0.055685 0.000000
# 6 0.000000 0.000000 0.000000 0.000000 0.000000 -0.004200
#
#
# Mechanical properties :
#
#
# Convention : Reuss Voigt Hill
#
# Bulk Modulus (GPa) = 9.93584 62.03840 35.98712
# Shear Modulus (GPa) = 16.22106 -25.38392 -4.58143
#
# Velocity S-wave (km/s) = 2.96169 -3.70492 -1.57398
# Velocity P-wave (km/s) = 4.13138 3.90455 4.01957
#
# Compressibility (1/GPa) = 0.10064574
#
# Stress axis : x y z
#
# Youngs Moduli (GPa) = 8.17849 112.03913 82.29320
#
# Poissons Ratio (x) = 0.51620 0.94320
# Poissons Ratio (y) = 0.03768 0.43475
# Poissons Ratio (z) = 0.09374 0.59189
#
# Static dielectric constant tensor:
#      x y z
#    x 1.652630 0.000000 0.000000 
#    y 0.000000 1.648130 0.000000 
#    z 0.000000 0.000000 1.623630 
# 
# From -- ./inp_files/49502.got.cif
#   From: 2010.05.17/outbox.cif.g08.bks.cpg/sg74_25_cif.got.tgz:49502.got - 2010.06.03 17:57:02.
