data_PCOD9535587
_publ_section_title
;
Structure prediction by ZEFSAII (Michael W. Deem and Ramdas Pophale) SiO2 
 PCOD9535587
Probable space group: I M M A
;
_chemical_formula_sum "Si O2"
_cell_formula_units_Z 120
_cell_length_a 8.833524
_cell_length_b 28.862265
_cell_length_c 28.071134
_cell_angle_alpha 90.000000
_cell_angle_beta 90.000000
_cell_angle_gamma 90.000000
_cell_volume 7156.890301
_symmetry_space_group_name_H-M "I M M A"
_symmetry_group_IT_number 74
_symmetry_cell_setting 'orthorhombic'
loop_
_space_group_symop_operation_xyz
x,y,z
-x,1/2-y,z
x,-y,-z
-x,1/2+y,-z
-x,-y,-z
x,1/2+y,-z
-x,y,z
x,1/2-y,z
1/2+x,1/2+y,1/2+z
1/2-x,-y,1/2+z
1/2+x,1/2-y,1/2-z
1/2-x,y,1/2-z
1/2-x,1/2-y,1/2-z
1/2+x,y,1/2-z
1/2-x,1/2+y,1/2+z
1/2+x,-y,1/2+z
loop_
_atom_site_type_symbol
_atom_site_label
_atom_site_fract_x
_atom_site_fract_y
_atom_site_fract_z
Si Si1 0.818861 0.195281 0.546167
Si Si2 0.178507 0.046156 0.933965
Si Si3 0.319817 0.108531 0.016139
Si Si4 0.681203 0.526640 0.800529
Si Si5 0.678058 0.057779 0.400443
Si Si6 0.176664 0.074596 0.663652
Si Si7 0.823091 0.250000 0.699016
Si Si8 0.177451 0.166269 0.855529
O O1 0.776268 0.250000 0.541579
O O2 0.790962 0.161258 0.501380
O O3 0.733832 0.170462 0.589988
O O4 0.000000 0.194356 0.555683
O O5 0.285913 0.062407 0.891099
O O6 0.000000 0.057126 0.925037
O O7 0.191588 0.990453 0.930642
O O8 0.233811 0.073051 0.980545
O O9 0.500000 0.100303 0.012586
O O10 0.262080 0.096628 0.068802
O O11 0.500000 0.532691 0.800993
O O12 0.750000 0.542105 0.750000
O O13 0.752284 0.549549 0.847971
O O14 0.712717 0.471498 0.806867
O O15 0.500000 0.067531 0.396021
O O16 0.280721 0.118851 0.671136
O O17 0.000000 0.086016 0.669401
O O18 0.750000 0.250000 0.750000
O O19 0.767724 0.294026 0.670541
O O20 0.000000 0.250000 0.703438
O O21 0.000000 0.174370 0.854020
#
# Coordination Sequence:
#
# PCOD9535587 Si02
#       8
#    16  16  16  16  16  16   8  16
#     4  10  21  37  56  77 105 142 179 220 271 325
#     4  10  19  31  48  73 104 137 173 215 259 310
#     4  11  21  32  51  77 106 139 177 217 264 319
#     4  10  21  37  57  78 104 138 178 218 261 311
#     4  10  21  35  51  74 107 142 176 215 263 312
#     4  10  20  34  52  75 102 136 174 216 262 310
#     4  12  26  44  60  74  96 124 166 224 281 330
#     4  12  23  36  56  79 102 131 172 219 271 327
#
# _framework density 16.767057999999999
#
# number of rings (size 3 to 8) (size 9 to 14) (size 15 to 20)
#    0.000    1.467    2.000    4.200    0.000    5.867 
#    0.000    1.333    0.000    0.000    0.000    0.000 
#    0.000    0.533    0.000    1.467    0.000    2.133 
#
# Total GULP energy -334862.731188 kJ/mol
# GULP energy per Si atom -5581.045520 kJ/mol
# Density = 1.672890 g / cm^3
# Si number density = 16.767058 Si / 1000 Ang^3
#
#
#
# Elastic Constant Matrix: (Units=GPa)
#
#
# Indices 1 2 3 4 5 6 
#
# 1 80.1348 31.1631 34.5316 0.0000 0.0000 0.0000
# 2 31.1631 36.2435 26.9808 0.0000 0.0000 0.0000
# 3 34.5316 26.9808 85.8467 0.0000 0.0000 0.0000
# 4 0.0000 0.0000 0.0000 9.9321 0.0000 0.0000
# 5 0.0000 0.0000 0.0000 0.0000 26.4583 0.0000
# 6 0.0000 0.0000 0.0000 0.0000 0.0000 27.2129
#
#
#
# Elastic Compliance Matrix: (Units=1/GPa)
#
#
# Indices 1 2 3 4 5 6 
#
# 1 0.019460 -0.014236 -0.003354 0.000000 0.000000 0.000000
# 2 -0.014236 0.046432 -0.008867 0.000000 0.000000 0.000000
# 3 -0.003354 -0.008867 0.015784 0.000000 0.000000 0.000000
# 4 0.000000 0.000000 0.000000 0.100684 0.000000 0.000000
# 5 0.000000 0.000000 0.000000 0.000000 0.037795 0.000000
# 6 0.000000 0.000000 0.000000 0.000000 0.000000 0.036747
#
#
# Mechanical properties :
#
#
# Convention : Reuss Voigt Hill
#
# Bulk Modulus (GPa) = 34.76541 43.06401 38.91471
# Shear Modulus (GPa) = 15.65414 20.02395 17.83905
#
# Velocity S-wave (km/s) = 3.05884 3.45953 3.26534
# Velocity P-wave (km/s) = 5.76669 6.45734 6.12176
#
# Compressibility (1/GPa) = 0.02876422
#
# Stress axis : x y z
#
# Youngs Moduli (GPa) = 51.38694 21.53671 63.35349
#
# Poissons Ratio (x) = 0.30659 0.21246
# Poissons Ratio (y) = 0.73154 0.56175
# Poissons Ratio (z) = 0.17233 0.19096
#
# Static dielectric constant tensor:
#      x y z
#    x 1.556400 0.000000 0.000000 
#    y 0.000000 1.569730 0.000000 
#    z 0.000000 0.000000 1.560460 
# 
# From -- ./inp_files/65103.got.cif
#   From: 2010.05.17/outbox.cif.g08.bks.cpg/sg74_33_cif.got.tgz:65103.got - 2010.06.03 17:57:02.
