data_PCOD9535175
_publ_section_title
;
Structure prediction by ZEFSAII (Michael W. Deem and Ramdas Pophale) SiO2 
 PCOD9535175
Probable space group: I M M A
;
_chemical_formula_sum "Si O2"
_cell_formula_units_Z 116
_cell_length_a 16.120612
_cell_length_b 31.143978
_cell_length_c 12.165029
_cell_angle_alpha 90.000000
_cell_angle_beta 90.000000
_cell_angle_gamma 90.000000
_cell_volume 6107.574283
_symmetry_space_group_name_H-M "I M M A"
_symmetry_group_IT_number 74
_symmetry_cell_setting 'orthorhombic'
loop_
_space_group_symop_operation_xyz
x,y,z
-x,1/2-y,z
x,-y,-z
-x,1/2+y,-z
-x,-y,-z
x,1/2+y,-z
-x,y,z
x,1/2-y,z
1/2+x,1/2+y,1/2+z
1/2-x,-y,1/2+z
1/2+x,1/2-y,1/2-z
1/2-x,y,1/2-z
1/2-x,1/2-y,1/2-z
1/2+x,y,1/2-z
1/2-x,1/2+y,1/2+z
1/2+x,-y,1/2+z
loop_
_atom_site_type_symbol
_atom_site_label
_atom_site_fract_x
_atom_site_fract_y
_atom_site_fract_z
Si Si1 0.405286 0.044699 0.813979
Si Si2 0.595826 0.038537 0.427730
Si Si3 0.500000 0.750000 0.418540
Si Si4 0.158488 0.591835 0.111284
Si Si5 0.638253 0.688145 0.337130
Si Si6 0.671355 0.702688 0.089803
Si Si7 0.600148 0.551697 0.819789
Si Si8 0.840755 0.391869 0.512728
O O1 0.500000 0.042625 0.773079
O O2 0.349545 0.057988 0.710174
O O3 0.399420 0.081015 0.906116
O O4 0.384759 0.997372 0.859284
O O5 0.500000 0.026549 0.408402
O O6 0.602174 0.078141 0.509671
O O7 0.628882 0.049927 0.307558
O O8 0.635564 0.000000 0.500000
O O9 0.572250 0.712866 0.409006
O O10 0.130664 0.637139 0.159227
O O11 0.250156 0.597303 0.062190
O O12 0.628538 0.701261 0.209739
O O13 0.730864 0.698888 0.379722
O O14 0.655665 0.750000 0.040153
O O15 0.647888 0.659565 0.023286
O O16 0.500000 0.559429 0.824534
O O17 0.644867 0.587212 0.893731
#
# Coordination Sequence:
#
# PCOD9535175 Si02
#       8
#    16  16   4  16  16  16  16  16
#     4  11  21  37  59  80 119 157 196 239 294 350
#     4  10  20  37  58  80 110 154 200 239 291 348
#     4  12  20  30  52  92 110 144 196 250 296 350
#     4  11  22  36  55  88 115 155 192 244 297 351
#     4  10  20  32  54  80 118 145 190 241 296 361
#     4  10  18  38  53  75 116 163 182 228 309 360
#     4  10  22  41  59  80 114 160 203 242 290 352
#     4  11  23  36  56  87 118 154 198 241 296 355
#
# _framework density 18.992809999999999
#
# number of rings (size 3 to 8) (size 9 to 14) (size 15 to 20)
#    0.000    1.517    4.138    2.069    1.931    2.759 
#    3.724    0.000    0.000    0.000    1.793    1.931 
#    0.000    0.000    0.000    0.000    0.000    0.000 
#
# Total GULP energy -323078.807770 kJ/mol
# GULP energy per Si atom -5570.324272 kJ/mol
# Density = 1.894958 g / cm^3
# Si number density = 18.992810 Si / 1000 Ang^3
#
#
#
# Elastic Constant Matrix: (Units=GPa)
#
#
# Indices 1 2 3 4 5 6 
#
# 1 26.0040 19.0319 12.0142 0.0000 0.0000 0.0000
# 2 19.0319 152.6842 56.9549 0.0000 0.0000 0.0000
# 3 12.0142 56.9549 102.3598 -0.0002 -0.0002 0.0000
# 4 0.0000 0.0000 -0.0002 20.1059 0.0000 0.0000
# 5 0.0000 0.0000 -0.0002 0.0000 19.5551 0.0000
# 6 0.0000 0.0000 0.0000 0.0000 0.0000 27.2229
#
#
#
# Elastic Compliance Matrix: (Units=1/GPa)
#
#
# Indices 1 2 3 4 5 6 
#
# 1 0.042856 -0.004373 -0.002597 0.000000 0.000000 0.000000
# 2 -0.004373 0.008711 -0.004334 0.000000 0.000000 0.000000
# 3 -0.002597 -0.004334 0.012486 0.000000 0.000000 0.000000
# 4 0.000000 0.000000 0.000000 0.049737 0.000000 0.000000
# 5 0.000000 0.000000 0.000000 0.000000 0.051138 0.000000
# 6 0.000000 0.000000 0.000000 0.000000 0.000000 0.036734
#
#
# Mechanical properties :
#
#
# Convention : Reuss Voigt Hill
#
# Bulk Modulus (GPa) = 24.12821 50.78334 37.45577
# Shear Modulus (GPa) = 21.00102 26.24657 23.62380
#
# Velocity S-wave (km/s) = 3.32887 3.72145 3.53062
# Velocity P-wave (km/s) = 5.24467 6.72769 6.03193
#
# Compressibility (1/GPa) = 0.04144526
#
# Stress axis : x y z
#
# Youngs Moduli (GPa) = 23.33394 114.79483 80.09204
#
# Poissons Ratio (x) = 0.50203 0.20798
# Poissons Ratio (y) = 0.10205 0.34710
# Poissons Ratio (z) = 0.06059 0.49749
#
# Static dielectric constant tensor:
#      x y z
#    x 1.710160 0.000000 0.000000 
#    y 0.000000 1.689190 0.000000 
#    z 0.000000 0.000000 1.668140 
# 
# From -- ./inp_files/22948.got.cif
#   From: 2010.05.17/outbox.cif.g08.bks.cpg/sg74_12_cif.got.tgz:22948.got - 2010.06.03 17:57:02.
