data_PCOD9535308
_publ_section_title
;
Structure prediction by ZEFSAII (Michael W. Deem and Ramdas Pophale) SiO2 
 PCOD9535308
Probable space group: I M M A
;
_chemical_formula_sum "Si O2"
_cell_formula_units_Z 116
_cell_length_a 30.694070
_cell_length_b 8.061587
_cell_length_c 29.237926
_cell_angle_alpha 90.000000
_cell_angle_beta 90.000000
_cell_angle_gamma 90.000000
_cell_volume 7234.717658
_symmetry_space_group_name_H-M "I M M A"
_symmetry_group_IT_number 74
_symmetry_cell_setting 'orthorhombic'
loop_
_space_group_symop_operation_xyz
x,y,z
-x,1/2-y,z
x,-y,-z
-x,1/2+y,-z
-x,-y,-z
x,1/2+y,-z
-x,y,z
x,1/2-y,z
1/2+x,1/2+y,1/2+z
1/2-x,-y,1/2+z
1/2+x,1/2-y,1/2-z
1/2-x,y,1/2-z
1/2-x,1/2-y,1/2-z
1/2+x,y,1/2-z
1/2-x,1/2+y,1/2+z
1/2+x,-y,1/2+z
loop_
_atom_site_type_symbol
_atom_site_label
_atom_site_fract_x
_atom_site_fract_y
_atom_site_fract_z
Si Si1 0.373084 0.442112 0.854391
Si Si2 0.068571 0.943276 0.268556
Si Si3 0.500000 0.250000 0.243138
Si Si4 0.154464 0.443308 0.221968
Si Si5 0.289364 0.940753 0.805279
Si Si6 0.149306 0.448402 0.449096
Si Si7 0.206852 0.438439 0.857938
Si Si8 0.749649 0.552338 0.949237
O O1 0.360281 0.250000 0.848917
O O2 0.413470 0.468859 0.820484
O O3 0.332600 0.549926 0.836441
O O4 0.378990 0.480730 0.907617
O O5 0.052706 0.750000 0.265183
O O6 0.037405 0.098402 0.257650
O O7 0.111310 0.959568 0.236274
O O8 0.147263 0.250000 0.232805
O O9 0.193717 0.498916 0.255860
O O10 0.170718 0.461883 0.170371
O O11 0.274122 0.750000 0.802213
O O12 0.251665 0.041390 0.829593
O O13 0.135650 0.500000 0.500000
O O14 0.149286 0.250000 0.446272
O O15 0.199616 0.509527 0.442851
O O16 0.192502 0.250000 0.857973
O O17 0.219190 0.492232 0.908980
O O18 0.747768 0.750000 0.946906
O O19 0.763539 0.500000 0.000000
#
# Coordination Sequence:
#
# PCOD9535308 Si02
#       8
#    16  16   4  16  16  16  16  16
#     4  10  19  31  49  72 103 129 164 216 259 301
#     4  10  22  38  58  84 108 132 166 208 256 320
#     4  12  22  40  64  82 104 136 162 200 268 326
#     4  10  20  35  51  71 102 136 173 214 257 299
#     4  10  19  30  45  65  94 136 177 214 251 296
#     4  10  19  29  46  66  96 131 170 217 263 302
#     4  12  22  30  45  68  98 140 182 216 254 296
#     4  10  20  33  46  64  92 133 182 226 258 293
#
# _framework density 16.033798000000001
#
# number of rings (size 3 to 8) (size 9 to 14) (size 15 to 20)
#    0.000    1.655    2.069    3.931    1.931    4.414 
#    0.000    0.000    0.000    0.000    0.000    0.483 
#    0.000    0.000    0.000    0.621    3.586    1.103 
#
# Total GULP energy -323014.027820 kJ/mol
# GULP energy per Si atom -5569.207376 kJ/mol
# Density = 1.599730 g / cm^3
# Si number density = 16.033798 Si / 1000 Ang^3
#
#
#
# Elastic Constant Matrix: (Units=GPa)
#
#
# Indices 1 2 3 4 5 6 
#
# 1 45.1248 21.0145 27.9675 0.0000 0.0000 0.0000
# 2 21.0145 71.1235 16.3111 0.0000 0.0000 0.0000
# 3 27.9675 16.3111 73.0930 0.0000 0.0000 0.0000
# 4 0.0000 0.0000 0.0000 22.2205 0.0000 0.0000
# 5 0.0000 0.0000 0.0000 0.0000 -3.4106 0.0000
# 6 0.0000 0.0000 0.0000 0.0000 0.0000 27.9567
#
#
#
# Elastic Compliance Matrix: (Units=1/GPa)
#
#
# Indices 1 2 3 4 5 6 
#
# 1 0.032062 -0.007019 -0.010702 0.000000 0.000000 0.000000
# 2 -0.007019 0.016355 -0.000964 0.000000 0.000000 0.000000
# 3 -0.010702 -0.000964 0.017991 0.000000 0.000000 0.000000
# 4 0.000000 0.000000 0.000000 0.045004 0.000000 0.000000
# 5 0.000000 0.000000 0.000000 0.000000 -0.293201 0.000000
# 6 0.000000 0.000000 0.000000 0.000000 0.000000 0.035770
#
#
# Mechanical properties :
#
#
# Convention : Reuss Voigt Hill
#
# Bulk Modulus (GPa) = 34.43646 35.54750 34.99198
# Shear Modulus (GPa) = -50.51990 17.62319 -16.44835
#
# Velocity S-wave (km/s) = -5.61932 3.31891 -3.20637
# Velocity P-wave (km/s) = 4.53633 6.07498 2.85718
#
# Compressibility (1/GPa) = 0.02903899
#
# Stress axis : x y z
#
# Youngs Moduli (GPa) = 31.18951 61.14335 55.58322
#
# Poissons Ratio (x) = 0.42916 0.59483
# Poissons Ratio (y) = 0.21892 0.05358
# Poissons Ratio (z) = 0.33378 0.05894
#
# Static dielectric constant tensor:
#      x y z
#    x 1.526550 0.000000 0.000000 
#    y 0.000000 1.560730 0.000000 
#    z 0.000000 0.000000 1.553470 
# 
# From -- ./inp_files/65322.got.cif
#   From: 2010.05.17/outbox.cif.g08.bks.cpg/sg74_33_cif.got.tgz:65322.got - 2010.06.03 17:57:02.
