data_PCOD9535625
_publ_section_title
;
Structure prediction by ZEFSAII (Michael W. Deem and Ramdas Pophale) SiO2 
 PCOD9535625
Probable space group: I M M A
;
_chemical_formula_sum "Si O2"
_cell_formula_units_Z 88
_cell_length_a 18.278803
_cell_length_b 12.663288
_cell_length_c 21.585220
_cell_angle_alpha 90.000000
_cell_angle_beta 90.000000
_cell_angle_gamma 90.000000
_cell_volume 4996.325406
_symmetry_space_group_name_H-M "I M M A"
_symmetry_group_IT_number 74
_symmetry_cell_setting 'orthorhombic'
loop_
_space_group_symop_operation_xyz
x,y,z
-x,1/2-y,z
x,-y,-z
-x,1/2+y,-z
-x,-y,-z
x,1/2+y,-z
-x,y,z
x,1/2-y,z
1/2+x,1/2+y,1/2+z
1/2-x,-y,1/2+z
1/2+x,1/2-y,1/2-z
1/2-x,y,1/2-z
1/2-x,1/2-y,1/2-z
1/2+x,y,1/2-z
1/2-x,1/2+y,1/2+z
1/2+x,-y,1/2+z
loop_
_atom_site_type_symbol
_atom_site_label
_atom_site_fract_x
_atom_site_fract_y
_atom_site_fract_z
Si Si1 0.920527 0.622549 0.915518
Si Si2 0.081368 0.124178 0.230282
Si Si3 0.645517 0.500000 0.000000
Si Si4 0.916840 0.126427 0.613275
Si Si5 0.759131 0.376975 0.081210
Si Si6 0.197867 0.009723 0.695822
O O1 0.923610 0.750000 0.919698
O O2 0.915897 0.595769 0.842380
O O3 0.841130 0.593590 0.941722
O O4 0.000000 0.583031 0.938716
O O5 0.089681 0.250000 0.233446
O O6 0.000000 0.096996 0.253344
O O7 0.143188 0.069799 0.269666
O O8 0.598067 0.443976 0.947302
O O9 0.698345 0.586036 0.967599
O O10 0.910425 0.250000 0.598201
O O11 0.853932 0.093709 0.661648
O O12 0.000000 0.107814 0.635951
O O13 0.756497 0.250000 0.092020
O O14 0.741523 0.442625 0.143826
O O15 0.250000 0.053365 0.750000
#
# Coordination Sequence:
#
# PCOD9535625 Si02
#       6
#    16  16   8  16  16  16
#     4   8  14  25  42  65  95 131 163 193 240 298
#     4   9  16  26  42  68 104 138 164 196 242 298
#     4  10  21  36  57  80  98 126 174 224 261 300
#     4  10  22  40  58  75 100 135 171 209 255 305
#     4  10  19  31  49  74 104 135 169 214 264 304
#     4  11  20  30  49  78 106 133 168 208 251 304
#
# _framework density 17.612943000000001
#
# number of rings (size 3 to 8) (size 9 to 14) (size 15 to 20)
#    0.000    2.364    1.818    3.000    0.000    1.091 
#    0.000    0.455    0.000    8.727    0.000    0.000 
#    0.000    2.909    0.000    0.000    0.000    0.000 
#
# Total GULP energy -245084.613412 kJ/mol
# GULP energy per Si atom -5570.104850 kJ/mol
# Density = 1.757286 g / cm^3
# Si number density = 17.612943 Si / 1000 Ang^3
#
#
#
# Elastic Constant Matrix: (Units=GPa)
#
#
# Indices 1 2 3 4 5 6 
#
# 1 116.7215 38.3421 20.9075 0.0000 0.0000 0.0000
# 2 38.3421 54.3638 17.0743 0.0000 0.0000 0.0000
# 3 20.9075 17.0743 48.8586 0.0000 0.0000 0.0000
# 4 0.0000 0.0000 0.0000 16.0246 0.0000 0.0000
# 5 0.0000 0.0000 0.0000 0.0000 35.0255 0.0000
# 6 0.0000 0.0000 0.0000 0.0000 0.0000 10.3949
#
#
#
# Elastic Compliance Matrix: (Units=1/GPa)
#
#
# Indices 1 2 3 4 5 6 
#
# 1 0.011380 -0.007298 -0.002319 0.000000 0.000000 0.000000
# 2 -0.007298 0.025342 -0.005733 0.000000 0.000000 0.000000
# 3 -0.002319 -0.005733 0.023463 0.000000 0.000000 0.000000
# 4 0.000000 0.000000 0.000000 0.062404 0.000000 0.000000
# 5 0.000000 0.000000 0.000000 0.000000 0.028551 0.000000
# 6 0.000000 0.000000 0.000000 0.000000 0.000000 0.096201
#
#
# Mechanical properties :
#
#
# Convention : Reuss Voigt Hill
#
# Bulk Modulus (GPa) = 33.91600 41.39907 37.65753
# Shear Modulus (GPa) = 17.36890 21.86369 19.61629
#
# Velocity S-wave (km/s) = 3.14370 3.52709 3.34090
# Velocity P-wave (km/s) = 5.69870 6.33586 6.02571
#
# Compressibility (1/GPa) = 0.02948461
#
# Stress axis : x y z
#
# Youngs Moduli (GPa) = 87.87253 39.45973 42.61965
#
# Poissons Ratio (x) = 0.28797 0.09885
# Poissons Ratio (y) = 0.64127 0.24435
# Poissons Ratio (z) = 0.20382 0.22624
#
# Static dielectric constant tensor:
#      x y z
#    x 1.643690 0.000000 0.000000 
#    y 0.000000 1.562770 0.000000 
#    z 0.000000 0.000000 1.595050 
# 
# From -- ./inp_files/52863.got.cif
#   From: 2010.05.17/outbox.cif.g08.bks.cpg/sg74_27_cif.got.tgz:52863.got - 2010.06.03 17:57:02.
