data_PCOD9535270
_publ_section_title
;
Structure prediction by ZEFSAII (Michael W. Deem and Ramdas Pophale) SiO2 
 PCOD9535270
Probable space group: I M M A
;
_chemical_formula_sum "Si O2"
_cell_formula_units_Z 112
_cell_length_a 14.901761
_cell_length_b 15.203711
_cell_length_c 25.273162
_cell_angle_alpha 90.000000
_cell_angle_beta 90.000000
_cell_angle_gamma 90.000000
_cell_volume 5725.939838
_symmetry_space_group_name_H-M "I M M A"
_symmetry_group_IT_number 74
_symmetry_cell_setting 'orthorhombic'
loop_
_space_group_symop_operation_xyz
x,y,z
-x,1/2-y,z
x,-y,-z
-x,1/2+y,-z
-x,-y,-z
x,1/2+y,-z
-x,y,z
x,1/2-y,z
1/2+x,1/2+y,1/2+z
1/2-x,-y,1/2+z
1/2+x,1/2-y,1/2-z
1/2-x,y,1/2-z
1/2-x,1/2-y,1/2-z
1/2+x,y,1/2-z
1/2-x,1/2+y,1/2+z
1/2+x,-y,1/2+z
loop_
_atom_site_type_symbol
_atom_site_label
_atom_site_fract_x
_atom_site_fract_y
_atom_site_fract_z
Si Si1 0.787733 0.346588 0.026132
Si Si2 0.708157 0.516879 0.698645
Si Si3 0.358449 0.844235 0.408223
Si Si4 0.901524 0.099948 0.520092
Si Si5 0.900392 0.543702 0.894138
Si Si6 0.828788 0.396085 0.637015
Si Si7 0.894243 0.651162 0.248759
O O1 0.799926 0.250000 0.050731
O O2 0.828807 0.421254 0.063411
O O3 0.841747 0.348413 0.971017
O O4 0.684180 0.358017 0.008937
O O5 0.750000 0.561740 0.750000
O O6 0.635422 0.567498 0.664089
O O7 0.787796 0.488172 0.658666
O O8 0.662348 0.426279 0.721047
O O9 0.401191 0.750000 0.395383
O O10 0.261009 0.845656 0.380666
O O11 0.401862 0.937107 0.393941
O O12 0.885634 0.099584 0.583474
O O13 0.000000 0.138675 0.508884
O O14 0.901739 0.000000 0.500000
O O15 0.000000 0.576620 0.905933
O O16 0.877830 0.356580 0.688036
O O17 0.866726 0.750000 0.232369
O O18 0.000000 0.640084 0.237686
#
# Coordination Sequence:
#
# PCOD9535270 Si02
#       7
#    16  16  16  16  16  16  16
#     4  10  21  37  55  77 110 148 184 225 272 321
#     4   9  19  33  50  69  97 134 173 222 278 328
#     4   9  18  32  51  77 111 147 179 216 267 324
#     4  10  19  33  56  84 113 145 181 222 269 323
#     4  11  22  36  56  80 107 142 185 228 270 323
#     4   9  17  30  47  70 104 144 182 214 256 317
#     4  10  19  29  43  67 100 137 178 221 265 321
#
# _framework density 19.560106999999999
#
# number of rings (size 3 to 8) (size 9 to 14) (size 15 to 20)
#    0.000    2.286    0.000    4.286    0.000    7.429 
#    0.000    1.429    0.000    1.286    0.000    0.000 
#    0.000    0.000    0.000    0.000    0.000    0.000 
#
# Total GULP energy -312255.802440 kJ/mol
# GULP energy per Si atom -5575.996472 kJ/mol
# Density = 1.951559 g / cm^3
# Si number density = 19.560107 Si / 1000 Ang^3
#
#
#
# Elastic Constant Matrix: (Units=GPa)
#
#
# Indices 1 2 3 4 5 6 
#
# 1 96.9078 7.9115 33.8214 0.0000 0.0000 0.0000
# 2 7.9115 40.9241 21.0611 0.0000 0.0000 0.0000
# 3 33.8214 21.0611 110.7363 0.0000 0.0000 0.0000
# 4 0.0000 0.0000 0.0000 1.4598 0.0000 0.0000
# 5 0.0000 0.0000 0.0000 0.0000 0.4079 0.0000
# 6 0.0000 0.0000 0.0000 0.0000 0.0000 3.8390
#
#
#
# Elastic Compliance Matrix: (Units=1/GPa)
#
#
# Indices 1 2 3 4 5 6 
#
# 1 0.011558 -0.000463 -0.003442 0.000000 0.000000 0.000000
# 2 -0.000463 0.027105 -0.005014 0.000000 0.000000 0.000000
# 3 -0.003442 -0.005014 0.011035 0.000000 0.000000 0.000000
# 4 0.000000 0.000000 0.000000 0.685006 0.000000 0.000000
# 5 0.000000 0.000000 0.000000 0.000000 2.451719 0.000000
# 6 0.000000 0.000000 0.000000 0.000000 0.000000 0.260483
#
#
# Mechanical properties :
#
#
# Convention : Reuss Voigt Hill
#
# Bulk Modulus (GPa) = 31.38628 41.57292 36.47960
# Shear Modulus (GPa) = 1.43870 13.52629 7.48249
#
# Velocity S-wave (km/s) = 0.85856 2.63254 1.95798
# Velocity P-wave (km/s) = 4.13083 5.52634 4.87874
#
# Compressibility (1/GPa) = 0.03186106
#
# Stress axis : x y z
#
# Youngs Moduli (GPa) = 86.51874 36.89315 90.61804
#
# Poissons Ratio (x) = 0.01708 0.31191
# Poissons Ratio (y) = 0.04006 0.45434
# Poissons Ratio (z) = 0.29780 0.18497
#
# Static dielectric constant tensor:
#      x y z
#    x 1.726530 0.000000 0.000000 
#    y 0.000000 1.691550 0.000000 
#    z 0.000000 0.000000 1.702240 
# 
# From -- ./inp_files/67163.got.cif
#   From: 2010.05.17/outbox.cif.g08.bks.cpg/sg74_34_cif.got.tgz:67163.got - 2010.06.03 17:57:02.
