data_PCOD9535213
_publ_section_title
;
Structure prediction by ZEFSAII (Michael W. Deem and Ramdas Pophale) SiO2 
 PCOD9535213
Probable space group: I M M A
;
_chemical_formula_sum "Si O2"
_cell_formula_units_Z 100
_cell_length_a 7.184499
_cell_length_b 22.671549
_cell_length_c 24.115759
_cell_angle_alpha 90.000000
_cell_angle_beta 90.000000
_cell_angle_gamma 90.000000
_cell_volume 3928.064564
_symmetry_space_group_name_H-M "I M M A"
_symmetry_group_IT_number 74
_symmetry_cell_setting 'orthorhombic'
loop_
_space_group_symop_operation_xyz
x,y,z
-x,1/2-y,z
x,-y,-z
-x,1/2+y,-z
-x,-y,-z
x,1/2+y,-z
-x,y,z
x,1/2-y,z
1/2+x,1/2+y,1/2+z
1/2-x,-y,1/2+z
1/2+x,1/2-y,1/2-z
1/2-x,y,1/2-z
1/2-x,1/2-y,1/2-z
1/2+x,y,1/2-z
1/2-x,1/2+y,1/2+z
1/2+x,-y,1/2+z
loop_
_atom_site_type_symbol
_atom_site_label
_atom_site_fract_x
_atom_site_fract_y
_atom_site_fract_z
Si Si1 0.278567 0.119718 0.811460
Si Si2 0.791820 0.514068 0.677413
Si Si3 0.208816 0.157767 0.574863
Si Si4 0.727954 0.357475 0.165039
Si Si5 0.500000 0.250000 0.305973
Si Si6 0.724136 0.521975 0.440295
Si Si7 0.276635 0.816129 0.953135
O O1 0.500000 0.115014 0.821041
O O2 0.250000 0.143936 0.750000
O O3 0.208244 0.159484 0.862909
O O4 0.207350 0.051205 0.811441
O O5 0.715363 0.578852 0.689765
O O6 0.799266 0.514490 0.610785
O O7 0.000000 0.512063 0.701364
O O8 0.204502 0.087704 0.566778
O O9 0.294575 0.177605 0.516212
O O10 0.000000 0.182948 0.577241
O O11 0.500000 0.351301 0.169003
O O12 0.837323 0.302642 0.190718
O O13 0.778843 0.356029 0.098715
O O14 0.780458 0.500000 0.500000
O O15 0.500000 0.522174 0.437265
O O16 0.500000 0.822229 0.957924
O O17 0.231542 0.750000 0.934408
#
# Coordination Sequence:
#
# PCOD9535213 Si02
#       7
#    16  16  16  16   4  16  16
#     4   9  18  33  53  76 100 127 165 212 272 329
#     4   9  19  34  52  71  97 132 171 210 252 312
#     4   9  18  32  49  68  93 133 173 208 255 314
#     4  10  20  35  52  76 110 143 183 222 259 300
#     4  12  22  32  52  78 112 152 182 216 252 312
#     4  10  19  28  40  67 102 131 159 198 251 307
#     4   9  16  30  51  72  98 135 181 218 251 294
#
# _framework density 25.457832
#
# number of rings (size 3 to 8) (size 9 to 14) (size 15 to 20)
#    0.000    2.560    0.800    2.640    1.120    5.120 
#    1.440    0.000    0.000    0.480    0.000    0.560 
#    0.000    0.000    0.000    0.000    0.000    0.320 
#
# Total GULP energy -278482.459751 kJ/mol
# GULP energy per Si atom -5569.649195 kJ/mol
# Density = 2.539989 g / cm^3
# Si number density = 25.457832 Si / 1000 Ang^3
#
#
#
# Elastic Constant Matrix: (Units=GPa)
#
#
# Indices 1 2 3 4 5 6 
#
# 1 154.1576 2.8386 2.7814 0.0000 0.0000 0.0000
# 2 2.8386 68.4692 4.7245 0.0000 0.0000 0.0000
# 3 2.7814 4.7245 194.6521 0.0000 0.0000 0.0000
# 4 0.0000 0.0000 0.0000 8.8982 0.0000 0.0000
# 5 0.0000 0.0000 0.0000 0.0000 18.7995 0.0000
# 6 0.0000 0.0000 0.0000 0.0000 0.0000 27.2310
#
#
#
# Elastic Compliance Matrix: (Units=1/GPa)
#
#
# Indices 1 2 3 4 5 6 
#
# 1 0.006493 -0.000263 -0.000086 0.000000 0.000000 0.000000
# 2 -0.000263 0.014640 -0.000352 0.000000 0.000000 0.000000
# 3 -0.000086 -0.000352 0.005147 0.000000 0.000000 0.000000
# 4 0.000000 0.000000 0.000000 0.112382 0.000000 0.000000
# 5 0.000000 0.000000 0.000000 0.000000 0.053193 0.000000
# 6 0.000000 0.000000 0.000000 0.000000 0.000000 0.036723
#
#
# Mechanical properties :
#
#
# Convention : Reuss Voigt Hill
#
# Bulk Modulus (GPa) = 40.19573 48.66311 44.42942
# Shear Modulus (GPa) = 20.98430 38.11471 29.54951
#
# Velocity S-wave (km/s) = 2.87414 3.87353 3.41064
# Velocity P-wave (km/s) = 5.18051 6.25798 5.74456
#
# Compressibility (1/GPa) = 0.02487826
#
# Stress axis : x y z
#
# Youngs Moduli (GPa) = 154.00555 68.30470 194.28266
#
# Poissons Ratio (x) = 0.01798 0.01678
# Poissons Ratio (y) = 0.04054 0.06831
# Poissons Ratio (z) = 0.01330 0.02401
#
# Static dielectric constant tensor:
#      x y z
#    x 2.025380 0.000000 0.000000 
#    y 0.000000 1.945590 0.000000 
#    z 0.000000 0.000000 2.121430 
# 
# From -- ./inp_files/70966.got.cif
#   From: 2010.05.17/outbox.cif.g08.bks.cpg/sg74_36_cif.got.tgz:70966.got - 2010.06.03 17:57:02.
