data_PCOD9535097
_publ_section_title
;
Structure prediction by ZEFSAII (Michael W. Deem and Ramdas Pophale) SiO2 
 PCOD9535097
Probable space group: I M M A
;
_chemical_formula_sum "Si O2"
_cell_formula_units_Z 72
_cell_length_a 14.567359
_cell_length_b 17.352427
_cell_length_c 14.703445
_cell_angle_alpha 90.000000
_cell_angle_beta 90.000000
_cell_angle_gamma 90.000000
_cell_volume 3716.722618
_symmetry_space_group_name_H-M "I M M A"
_symmetry_group_IT_number 74
_symmetry_cell_setting 'orthorhombic'
loop_
_space_group_symop_operation_xyz
x,y,z
-x,1/2-y,z
x,-y,-z
-x,1/2+y,-z
-x,-y,-z
x,1/2+y,-z
-x,y,z
x,1/2-y,z
1/2+x,1/2+y,1/2+z
1/2-x,-y,1/2+z
1/2+x,1/2-y,1/2-z
1/2-x,y,1/2-z
1/2-x,1/2-y,1/2-z
1/2+x,y,1/2-z
1/2-x,1/2+y,1/2+z
1/2+x,-y,1/2+z
loop_
_atom_site_type_symbol
_atom_site_label
_atom_site_fract_x
_atom_site_fract_y
_atom_site_fract_z
Si Si1 0.688288 0.663282 0.016011
Si Si2 0.796244 0.555368 0.151210
Si Si3 0.000000 0.963438 0.103737
Si Si4 0.000000 0.657342 0.579401
Si Si5 0.000000 0.120741 0.210590
Si Si6 0.197859 0.630226 0.843485
O O1 0.679814 0.750000 0.055435
O O2 0.731565 0.601307 0.082743
O O3 0.590183 0.637219 0.977154
O O4 0.753701 0.667203 0.928622
O O5 0.750000 0.569968 0.250000
O O6 0.902606 0.578128 0.126303
O O7 0.796340 0.462482 0.140370
O O8 0.000000 0.033345 0.175503
O O9 0.000000 0.000000 0.000000
O O10 0.000000 0.750000 0.591803
O O11 0.000000 0.623155 0.680476
O O12 0.093259 0.154739 0.171105
O O13 0.250000 0.647232 0.750000
#
# Coordination Sequence:
#
# PCOD9535097 Si02
#       6
#    16  16   8   8   8  16
#     4  11  23  39  58  85 122 160 199 249 307 368
#     4  10  22  39  62  87 117 160 209 251 300 356
#     4  10  20  39  62  87 125 159 194 258 308 347
#     4  10  22  37  56  87 126 158 189 244 315 372
#     4  10  18  34  58  86 118 152 190 243 300 364
#     4  10  19  35  60  85 118 151 194 244 303 365
#
# _framework density 19.371905999999999
#
# number of rings (size 3 to 8) (size 9 to 14) (size 15 to 20)
#    0.000    1.778    2.222    3.333    0.000    2.667 
#    0.000    5.000    0.000    0.000    0.000    0.000 
#    0.000    0.000    0.000    0.000    0.000    0.000 
#
# Total GULP energy -200829.411599 kJ/mol
# GULP energy per Si atom -5578.594767 kJ/mol
# Density = 1.932781 g / cm^3
# Si number density = 19.371906 Si / 1000 Ang^3
#
#
#
# Elastic Constant Matrix: (Units=GPa)
#
#
# Indices 1 2 3 4 5 6 
#
# 1 206.3913 39.4862 79.5100 0.0000 0.0000 0.0000
# 2 39.4862 51.9088 55.6354 0.0000 0.0000 0.0000
# 3 79.5100 55.6354 125.6569 0.0000 0.0000 0.0000
# 4 0.0000 0.0000 0.0000 -58.6115 0.0000 0.0000
# 5 0.0000 0.0000 0.0000 0.0000 33.0053 0.0000
# 6 0.0000 0.0000 0.0000 0.0000 0.0000 -87.6463
#
#
#
# Elastic Compliance Matrix: (Units=1/GPa)
#
#
# Indices 1 2 3 4 5 6 
#
# 1 0.006435 -0.001010 -0.003624 0.000000 0.000000 0.000000
# 2 -0.001010 0.036821 -0.015664 0.000000 0.000000 0.000000
# 3 -0.003624 -0.015664 0.017187 0.000000 0.000000 0.000000
# 4 0.000000 0.000000 0.000000 -0.017061 0.000000 0.000000
# 5 0.000000 0.000000 0.000000 0.000000 0.030298 0.000000
# 6 0.000000 0.000000 0.000000 0.000000 0.000000 -0.011409
#
#
# Mechanical properties :
#
#
# Convention : Reuss Voigt Hill
#
# Bulk Modulus (GPa) = 50.38751 81.46893 65.92822
# Shear Modulus (GPa) = 45.67004 -8.69548 18.48728
#
# Velocity S-wave (km/s) = 4.86072 -2.12095 3.09258
# Velocity P-wave (km/s) = 7.58744 6.01237 6.84535
#
# Compressibility (1/GPa) = 0.01984619
#
# Stress axis : x y z
#
# Youngs Moduli (GPa) = 155.40851 27.15836 58.18502
#
# Poissons Ratio (x) = 0.02744 0.21088
# Poissons Ratio (y) = 0.15701 0.91138
# Poissons Ratio (z) = 0.56324 0.42539
#
# Static dielectric constant tensor:
#      x y z
#    x 1.730750 0.000000 0.000000 
#    y 0.000000 1.691480 0.000000 
#    z 0.000000 0.000000 1.645540 
# 
# From -- ./inp_files/31967.got.cif
#   From: 2010.05.17/outbox.cif.g08.bks.cpg/sg74_16_cif.got.tgz:31967.got - 2010.06.03 17:57:02.
