data_PCOD9535752
_publ_section_title
;
Structure prediction by ZEFSAII (Michael W. Deem and Ramdas Pophale) SiO2 
 PCOD9535752
Probable space group: I M M A
;
_chemical_formula_sum "Si O2"
_cell_formula_units_Z 88
_cell_length_a 28.576870
_cell_length_b 8.526480
_cell_length_c 20.060827
_cell_angle_alpha 90.000000
_cell_angle_beta 90.000000
_cell_angle_gamma 90.000000
_cell_volume 4888.023324
_symmetry_space_group_name_H-M "I M M A"
_symmetry_group_IT_number 74
_symmetry_cell_setting 'orthorhombic'
loop_
_space_group_symop_operation_xyz
x,y,z
-x,1/2-y,z
x,-y,-z
-x,1/2+y,-z
-x,-y,-z
x,1/2+y,-z
-x,y,z
x,1/2-y,z
1/2+x,1/2+y,1/2+z
1/2-x,-y,1/2+z
1/2+x,1/2-y,1/2-z
1/2-x,y,1/2-z
1/2-x,1/2-y,1/2-z
1/2+x,y,1/2-z
1/2-x,1/2+y,1/2+z
1/2+x,-y,1/2+z
loop_
_atom_site_type_symbol
_atom_site_label
_atom_site_fract_x
_atom_site_fract_y
_atom_site_fract_z
Si Si1 0.213875 0.561863 0.338618
Si Si2 0.000000 0.440012 0.075199
Si Si3 0.812218 0.561797 0.807566
Si Si4 0.053424 0.060615 0.684151
Si Si5 0.628019 0.939068 0.073815
Si Si6 0.416302 0.439130 0.328755
O O1 0.215055 0.750000 0.335078
O O2 0.193641 0.500417 0.268076
O O3 0.266418 0.499117 0.345578
O O4 0.178362 0.512640 0.396522
O O5 0.046150 0.492714 0.116253
O O6 0.000000 0.250000 0.074470
O O7 0.000000 0.500000 0.000000
O O8 0.810879 0.750000 0.805599
O O9 0.862258 0.510271 0.836826
O O10 0.056200 0.250000 0.687996
O O11 0.088832 0.007466 0.626634
O O12 0.000000 0.016912 0.668892
O O13 0.067431 0.994094 0.755909
O O14 0.626886 0.750000 0.072664
O O15 0.620062 0.000000 0.000000
O O16 0.416782 0.250000 0.329608
#
# Coordination Sequence:
#
# PCOD9535752 Si02
#       6
#    16   8  16  16  16  16
#     4  10  19  33  52  77 109 142 178 225 272 319
#     4  10  22  40  58  82 113 144 179 218 271 332
#     4  10  19  31  53  83 108 137 177 224 272 319
#     4  10  20  35  56  82 110 141 184 230 272 322
#     4  10  22  37  53  77 110 149 188 228 275 327
#     4  10  20  35  57  83 112 142 178 225 271 322
#
# _framework density 18.003188000000002
#
# number of rings (size 3 to 8) (size 9 to 14) (size 15 to 20)
#    0.000    2.000    2.727    2.182    0.000    4.000 
#    0.000    0.909    0.000    4.364    0.000    0.000 
#    0.000    0.000    0.000    0.000    0.000    0.000 
#
# Total GULP energy -245548.759899 kJ/mol
# GULP energy per Si atom -5580.653634 kJ/mol
# Density = 1.796221 g / cm^3
# Si number density = 18.003188 Si / 1000 Ang^3
#
#
#
# Elastic Constant Matrix: (Units=GPa)
#
#
# Indices 1 2 3 4 5 6 
#
# 1 191.2147 29.5760 93.4117 0.0000 0.0000 0.0000
# 2 29.5760 15.5461 13.7279 0.0000 0.0000 0.0000
# 3 93.4117 13.7279 136.2855 0.0000 0.0000 0.0000
# 4 0.0000 0.0000 0.0000 28.2328 0.0000 0.0000
# 5 0.0000 0.0000 0.0000 0.0000 29.1288 0.0000
# 6 0.0000 0.0000 0.0000 0.0000 0.0000 19.4508
#
#
#
# Elastic Compliance Matrix: (Units=1/GPa)
#
#
# Indices 1 2 3 4 5 6 
#
# 1 0.010155 -0.014459 -0.005504 0.000000 0.000000 0.000000
# 2 -0.014459 0.091193 0.000725 0.000000 0.000000 0.000000
# 3 -0.005504 0.000725 0.011037 0.000000 0.000000 0.000000
# 4 0.000000 0.000000 0.000000 0.035420 0.000000 0.000000
# 5 0.000000 0.000000 0.000000 0.000000 0.034330 0.000000
# 6 0.000000 0.000000 0.000000 0.000000 0.000000 0.051412
#
#
# Mechanical properties :
#
#
# Convention : Reuss Voigt Hill
#
# Bulk Modulus (GPa) = 13.53030 68.49750 41.01390
# Shear Modulus (GPa) = 16.85433 29.11785 22.98609
#
# Velocity S-wave (km/s) = 3.06304 4.02602 3.57708
# Velocity P-wave (km/s) = 4.47676 7.72928 6.31598
#
# Compressibility (1/GPa) = 0.07390817
#
# Stress axis : x y z
#
# Youngs Moduli (GPa) = 98.47453 10.96575 90.60497
#
# Poissons Ratio (x) = 0.15856 0.49867
# Poissons Ratio (y) = 1.42387 -0.06566
# Poissons Ratio (z) = 0.54199 -0.00795
#
# Static dielectric constant tensor:
#      x y z
#    x 1.650330 0.000000 0.000000 
#    y 0.000000 1.619190 0.000000 
#    z 0.000000 0.000000 1.571950 
# 
# From -- ./inp_files/40066.got.cif
#   From: 2010.05.17/outbox.cif.g08.bks.cpg/sg74_21_cif.got.tgz:40066.got - 2010.06.03 17:57:02.
