data_PCOD9535679
_publ_section_title
;
Structure prediction by ZEFSAII (Michael W. Deem and Ramdas Pophale) SiO2 
 PCOD9535679
Probable space group: I M M A
;
_chemical_formula_sum "Si O2"
_cell_formula_units_Z 88
_cell_length_a 8.526145
_cell_length_b 28.724343
_cell_length_c 19.624071
_cell_angle_alpha 90.000000
_cell_angle_beta 90.000000
_cell_angle_gamma 90.000000
_cell_volume 4806.090282
_symmetry_space_group_name_H-M "I M M A"
_symmetry_group_IT_number 74
_symmetry_cell_setting 'orthorhombic'
loop_
_space_group_symop_operation_xyz
x,y,z
-x,1/2-y,z
x,-y,-z
-x,1/2+y,-z
-x,-y,-z
x,1/2+y,-z
-x,y,z
x,1/2-y,z
1/2+x,1/2+y,1/2+z
1/2-x,-y,1/2+z
1/2+x,1/2-y,1/2-z
1/2-x,y,1/2-z
1/2-x,1/2-y,1/2-z
1/2+x,y,1/2-z
1/2-x,1/2+y,1/2+z
1/2+x,-y,1/2+z
loop_
_atom_site_type_symbol
_atom_site_label
_atom_site_fract_x
_atom_site_fract_y
_atom_site_fract_z
Si Si1 0.812181 0.971483 0.827533
Si Si2 0.810835 0.631363 0.826887
Si Si3 0.310943 0.750000 0.173596
Si Si4 0.687786 0.568887 0.172410
Si Si5 0.689669 0.659367 0.088714
Si Si6 0.689626 0.803587 0.551833
O O1 0.750000 0.971027 0.750000
O O2 0.766251 0.920354 0.854250
O O3 0.000000 0.974910 0.827667
O O4 0.743409 0.019127 0.856988
O O5 0.750000 0.637185 0.750000
O O6 0.757620 0.670997 0.878975
O O7 0.000000 0.632265 0.823758
O O8 0.500000 0.750000 0.174775
O O9 0.250000 0.750000 0.250000
O O10 0.259358 0.796215 0.133697
O O11 0.500000 0.568915 0.175987
O O12 0.750000 0.574050 0.250000
O O13 0.740468 0.611983 0.125874
O O14 0.500000 0.659283 0.086306
O O15 0.753344 0.667661 0.013322
O O16 0.500000 0.803174 0.551771
O O17 0.744219 0.750000 0.547291
#
# Coordination Sequence:
#
# PCOD9535679 Si02
#       6
#    16  16   8  16  16  16
#     4   9  16  29  50  74 103 136 167 207 256 305
#     4   9  19  35  55  81 107 132 169 212 257 311
#     4  10  20  34  52  74 101 132 173 216 253 300
#     4  10  19  31  50  77 106 136 173 216 256 301
#     4  10  21  36  52  73 104 139 174 213 257 307
#     4  10  21  37  56  77 103 136 173 215 261 310
#
# _framework density 18.310099999999998
#
# number of rings (size 3 to 8) (size 9 to 14) (size 15 to 20)
#    0.000    2.364    0.909    2.727    0.000    4.000 
#    0.000    0.909    0.000    5.455    0.000    0.000 
#    0.000    0.000    0.000    0.000    0.000    0.000 
#
# Total GULP energy -245341.765369 kJ/mol
# GULP energy per Si atom -5575.949213 kJ/mol
# Density = 1.826843 g / cm^3
# Si number density = 18.310100 Si / 1000 Ang^3
#
#
#
# Elastic Constant Matrix: (Units=GPa)
#
#
# Indices 1 2 3 4 5 6 
#
# 1 18.3805 21.9244 12.7318 0.0000 0.0000 0.0000
# 2 21.9244 116.3016 59.3332 -0.0001 0.0000 0.0000
# 3 12.7318 59.3332 100.3579 -0.0004 0.0000 0.0000
# 4 0.0000 -0.0001 -0.0004 -7.9039 0.0000 -0.0001
# 5 0.0000 0.0000 0.0000 0.0000 24.4430 0.0000
# 6 0.0000 0.0000 0.0000 -0.0001 0.0000 19.4066
#
#
#
# Elastic Compliance Matrix: (Units=1/GPa)
#
#
# Indices 1 2 3 4 5 6 
#
# 1 0.070356 -0.012471 -0.001553 0.000000 0.000000 0.000000
# 2 -0.012471 0.014522 -0.007004 0.000000 0.000000 0.000000
# 3 -0.001553 -0.007004 0.014302 -0.000001 0.000000 0.000000
# 4 0.000000 0.000000 -0.000001 -0.126520 0.000000 0.000000
# 5 0.000000 0.000000 0.000000 0.000000 0.040912 0.000000
# 6 0.000000 0.000000 0.000000 0.000000 0.000000 0.051529
#
#
# Mechanical properties :
#
#
# Convention : Reuss Voigt Hill
#
# Bulk Modulus (GPa) = 17.50519 47.00209 32.25364
# Shear Modulus (GPa) = 39.62034 16.59252 28.10643
#
# Velocity S-wave (km/s) = 4.65677 3.01357 3.92219
# Velocity P-wave (km/s) = 6.20445 6.15098 6.17777
#
# Compressibility (1/GPa) = 0.05712590
#
# Stress axis : x y z
#
# Youngs Moduli (GPa) = 14.21338 68.85941 69.92011
#
# Poissons Ratio (x) = 0.85874 0.10856
# Poissons Ratio (y) = 0.17725 0.48970
# Poissons Ratio (z) = 0.02207 0.48227
#
# Static dielectric constant tensor:
#      x y z
#    x 1.628720 0.000000 0.000000 
#    y 0.000000 1.671270 0.000000 
#    z 0.000000 0.000000 1.590710 
# 
# From -- ./inp_files/40133.got.cif
#   From: 2010.05.17/outbox.cif.g08.bks.cpg/sg74_21_cif.got.tgz:40133.got - 2010.06.03 17:57:02.
