data_PCOD9535427
_publ_section_title
;
Structure prediction by ZEFSAII (Michael W. Deem and Ramdas Pophale) SiO2 
 PCOD9535427
Probable space group: I M M A
;
_chemical_formula_sum "Si O2"
_cell_formula_units_Z 104
_cell_length_a 29.115094
_cell_length_b 8.804152
_cell_length_c 24.638887
_cell_angle_alpha 90.000000
_cell_angle_beta 90.000000
_cell_angle_gamma 90.000000
_cell_volume 6315.777391
_symmetry_space_group_name_H-M "I M M A"
_symmetry_group_IT_number 74
_symmetry_cell_setting 'orthorhombic'
loop_
_space_group_symop_operation_xyz
x,y,z
-x,1/2-y,z
x,-y,-z
-x,1/2+y,-z
-x,-y,-z
x,1/2+y,-z
-x,y,z
x,1/2-y,z
1/2+x,1/2+y,1/2+z
1/2-x,-y,1/2+z
1/2+x,1/2-y,1/2-z
1/2-x,y,1/2-z
1/2-x,1/2-y,1/2-z
1/2+x,y,1/2-z
1/2-x,1/2+y,1/2+z
1/2+x,-y,1/2+z
loop_
_atom_site_type_symbol
_atom_site_label
_atom_site_fract_x
_atom_site_fract_y
_atom_site_fract_z
Si Si1 0.589395 0.066959 0.870888
Si Si2 0.053557 0.431817 0.854667
Si Si3 0.000000 0.433055 0.559973
Si Si4 0.446228 0.431384 0.237573
Si Si5 0.773113 0.068324 0.060638
Si Si6 0.820628 0.567795 0.439308
Si Si7 0.875419 0.931862 0.939447
O O1 0.588086 0.250000 0.865415
O O2 0.545531 0.020434 0.907236
O O3 0.635978 0.026113 0.902276
O O4 0.583443 0.993676 0.812070
O O5 0.057165 0.250000 0.854719
O O6 0.066028 0.495598 0.795316
O O7 0.086233 0.501186 0.900204
O O8 0.000000 0.472548 0.864479
O O9 0.000000 0.500000 0.500000
O O10 0.000000 0.250000 0.556436
O O11 0.500000 0.471056 0.226858
O O12 0.442778 0.250000 0.241167
O O13 0.767850 0.250000 0.058377
O O14 0.823899 0.033318 0.082889
O O15 0.727235 0.995155 0.084937
O O16 0.774280 0.000000 0.000000
O O17 0.826403 0.500000 0.500000
O O18 0.818198 0.750000 0.443747
O O19 0.879446 0.750000 0.943010
O O20 0.879424 0.000000 0.000000
#
# Coordination Sequence:
#
# PCOD9535427 Si02
#       7
#    16  16   8  16  16  16  16
#     4  10  20  33  49  69  97 134 171 211 257 304
#     4  10  21  36  55  78 105 137 168 202 246 296
#     4  10  20  32  46  66  98 134 167 208 257 306
#     4  10  20  34  53  75  97 128 172 215 252 296
#     4   9  17  30  49  72  99 132 167 205 248 295
#     4  10  19  30  47  72 100 132 170 211 256 304
#     4  10  20  34  54  80 108 137 169 203 245 297
#
# _framework density 16.466698999999998
#
# number of rings (size 3 to 8) (size 9 to 14) (size 15 to 20)
#    0.000    2.154    0.769    3.692    0.000    5.538 
#    0.000    0.000    0.000    0.923    0.000    6.462 
#    0.000    0.000    0.000    0.000    0.000    0.000 
#
# Total GULP energy -290040.461127 kJ/mol
# GULP energy per Si atom -5577.701176 kJ/mol
# Density = 1.642922 g / cm^3
# Si number density = 16.466699 Si / 1000 Ang^3
#
#
#
# Elastic Constant Matrix: (Units=GPa)
#
#
# Indices 1 2 3 4 5 6 
#
# 1 145.6269 56.2421 87.4580 0.0000 0.0000 0.0000
# 2 56.2421 53.2561 44.3685 0.0000 0.0000 0.0000
# 3 87.4580 44.3685 107.7242 0.0000 0.0000 0.0000
# 4 0.0000 0.0000 0.0000 31.1667 0.0000 0.0000
# 5 0.0000 0.0000 0.0000 0.0000 2.8541 0.0000
# 6 0.0000 0.0000 0.0000 0.0000 0.0000 27.6103
#
#
#
# Elastic Compliance Matrix: (Units=1/GPa)
#
#
# Indices 1 2 3 4 5 6 
#
# 1 0.015890 -0.009185 -0.009117 0.000000 0.000000 0.000000
# 2 -0.009185 0.033895 -0.006504 0.000000 0.000000 0.000000
# 3 -0.009117 -0.006504 0.019364 0.000000 0.000000 0.000000
# 4 0.000000 0.000000 0.000000 0.032086 0.000000 0.000000
# 5 0.000000 0.000000 0.000000 0.000000 0.350370 0.000000
# 6 0.000000 0.000000 0.000000 0.000000 0.000000 0.036218
#
#
# Mechanical properties :
#
#
# Convention : Reuss Voigt Hill
#
# Bulk Modulus (GPa) = 51.18480 75.86047 63.52263
# Shear Modulus (GPa) = 9.19209 20.22881 14.71045
#
# Velocity S-wave (km/s) = 2.36524 3.50875 2.99213
# Velocity P-wave (km/s) = 6.21373 7.91102 7.11318
#
# Compressibility (1/GPa) = 0.01953705
#
# Stress axis : x y z
#
# Youngs Moduli (GPa) = 62.93433 29.50279 51.64291
#
# Poissons Ratio (x) = 0.27097 0.47085
# Poissons Ratio (y) = 0.57803 0.33587
# Poissons Ratio (z) = 0.57380 0.19188
#
# Static dielectric constant tensor:
#      x y z
#    x 1.579020 0.000000 0.000000 
#    y 0.000000 1.550720 0.000000 
#    z 0.000000 0.000000 1.542030 
# 
# From -- ./inp_files/55652.got.cif
#   From: 2010.05.17/outbox.cif.g08.bks.cpg/sg74_28_cif.got.tgz:55652.got - 2010.06.03 17:57:02.
