data_PCOD9535864
_publ_section_title
;
Structure prediction by ZEFSAII (Michael W. Deem and Ramdas Pophale) SiO2 
 PCOD9535864
Probable space group: I M M A
;
_chemical_formula_sum "Si O2"
_cell_formula_units_Z 112
_cell_length_a 14.574030
_cell_length_b 27.591363
_cell_length_c 16.169182
_cell_angle_alpha 90.000000
_cell_angle_beta 90.000000
_cell_angle_gamma 90.000000
_cell_volume 6501.908652
_symmetry_space_group_name_H-M "I M M A"
_symmetry_group_IT_number 74
_symmetry_cell_setting 'orthorhombic'
loop_
_space_group_symop_operation_xyz
x,y,z
-x,1/2-y,z
x,-y,-z
-x,1/2+y,-z
-x,-y,-z
x,1/2+y,-z
-x,y,z
x,1/2-y,z
1/2+x,1/2+y,1/2+z
1/2-x,-y,1/2+z
1/2+x,1/2-y,1/2-z
1/2-x,y,1/2-z
1/2-x,1/2-y,1/2-z
1/2+x,y,1/2-z
1/2-x,1/2+y,1/2+z
1/2+x,-y,1/2+z
loop_
_atom_site_type_symbol
_atom_site_label
_atom_site_fract_x
_atom_site_fract_y
_atom_site_fract_z
Si Si1 0.109768 0.093442 0.693347
Si Si2 0.605088 0.501786 0.901827
Si Si3 0.274028 0.560391 0.659630
Si Si4 0.388509 0.100784 0.487946
Si Si5 0.110501 0.962806 0.145479
Si Si6 0.605239 0.303205 0.581776
Si Si7 0.355919 0.302809 0.771181
O O1 0.139415 0.050082 0.633370
O O2 0.138068 0.077135 0.785827
O O3 0.134483 0.148860 0.675297
O O4 0.000000 0.092795 0.691989
O O5 0.500000 0.509812 0.871289
O O6 0.676830 0.542446 0.875958
O O7 0.602191 0.500000 0.000000
O O8 0.250000 0.580864 0.750000
O O9 0.331028 0.592630 0.595073
O O10 0.336610 0.511804 0.667245
O O11 0.500000 0.101084 0.474416
O O12 0.370476 0.057508 0.553882
O O13 0.358123 0.150335 0.533690
O O14 0.000000 0.969972 0.151120
O O15 0.500000 0.299897 0.553780
O O16 0.649435 0.250000 0.569023
O O17 0.601101 0.311337 0.680514
O O18 0.387440 0.250000 0.803128
O O19 0.250000 0.298983 0.750000
#
# Coordination Sequence:
#
# PCOD9535864 Si02
#       7
#    16  16  16  16  16  16  16
#     4  10  19  32  51  70  96 134 174 213 257 302
#     4  10  22  37  50  68  95 135 186 220 244 297
#     4  12  23  33  50  72 102 140 167 209 263 312
#     4  10  20  34  54  81 107 130 170 217 264 321
#     4  10  19  33  51  76 103 133 168 213 263 309
#     4   9  17  32  53  75 103 137 168 208 267 327
#     4  10  20  29  44  74 108 139 172 208 251 309
#
# _framework density 17.225711
#
# number of rings (size 3 to 8) (size 9 to 14) (size 15 to 20)
#    0.000    1.857    2.857    2.143    2.000    3.714 
#    0.000    0.000    0.000    0.429    0.000    0.000 
#    0.000    0.571    0.000    0.286    0.000    0.000 
#
# Total GULP energy -312157.773839 kJ/mol
# GULP energy per Si atom -5574.245961 kJ/mol
# Density = 1.718650 g / cm^3
# Si number density = 17.225711 Si / 1000 Ang^3
#
#
#
# Elastic Constant Matrix: (Units=GPa)
#
#
# Indices 1 2 3 4 5 6 
#
# 1 55.3054 8.1201 19.4459 0.0000 0.0000 0.0000
# 2 8.1201 66.8294 17.6880 0.0000 0.0000 0.0000
# 3 19.4459 17.6880 73.7928 0.0000 0.0000 0.0000
# 4 0.0000 0.0000 0.0000 20.3435 0.0000 0.0000
# 5 0.0000 0.0000 0.0000 0.0000 22.9053 0.0000
# 6 0.0000 0.0000 0.0000 0.0000 0.0000 15.4539
#
#
#
# Elastic Compliance Matrix: (Units=1/GPa)
#
#
# Indices 1 2 3 4 5 6 
#
# 1 0.020004 -0.001106 -0.005006 0.000000 0.000000 0.000000
# 2 -0.001106 0.016038 -0.003553 0.000000 0.000000 0.000000
# 3 -0.005006 -0.003553 0.015722 0.000000 0.000000 0.000000
# 4 0.000000 0.000000 0.000000 0.049156 0.000000 0.000000
# 5 0.000000 0.000000 0.000000 0.000000 0.043658 0.000000
# 6 0.000000 0.000000 0.000000 0.000000 0.000000 0.064709
#
#
# Mechanical properties :
#
#
# Convention : Reuss Voigt Hill
#
# Bulk Modulus (GPa) = 30.83120 31.82617 31.32869
# Shear Modulus (GPa) = 20.88306 21.78545 21.33425
#
# Velocity S-wave (km/s) = 3.48561 3.56013 3.52307
# Velocity P-wave (km/s) = 5.84265 5.95109 5.89712
#
# Compressibility (1/GPa) = 0.03243468
#
# Stress axis : x y z
#
# Youngs Moduli (GPa) = 49.98985 62.35115 63.60347
#
# Poissons Ratio (x) = 0.06893 0.31843
# Poissons Ratio (y) = 0.05526 0.22598
# Poissons Ratio (z) = 0.25027 0.22153
#
# Static dielectric constant tensor:
#      x y z
#    x 1.629920 0.000000 0.000000 
#    y 0.000000 1.638580 0.000000 
#    z 0.000000 0.000000 1.585860 
# 
# From -- ./inp_files/33138.got.cif
#   From: 2010.05.17/outbox.cif.g08.bks.cpg/sg74_17_cif.got.tgz:33138.got - 2010.06.03 17:57:02.
