data_PCOD9535227
_publ_section_title
;
Structure prediction by ZEFSAII (Michael W. Deem and Ramdas Pophale) SiO2 
 PCOD9535227
Probable space group: I M M A
;
_chemical_formula_sum "Si O2"
_cell_formula_units_Z 96
_cell_length_a 29.405825
_cell_length_b 8.559664
_cell_length_c 29.931626
_cell_angle_alpha 90.000000
_cell_angle_beta 90.000000
_cell_angle_gamma 90.000000
_cell_volume 7533.909441
_symmetry_space_group_name_H-M "I M M A"
_symmetry_group_IT_number 74
_symmetry_cell_setting 'orthorhombic'
loop_
_space_group_symop_operation_xyz
x,y,z
-x,1/2-y,z
x,-y,-z
-x,1/2+y,-z
-x,-y,-z
x,1/2+y,-z
-x,y,z
x,1/2-y,z
1/2+x,1/2+y,1/2+z
1/2-x,-y,1/2+z
1/2+x,1/2-y,1/2-z
1/2-x,y,1/2-z
1/2-x,1/2-y,1/2-z
1/2+x,y,1/2-z
1/2-x,1/2+y,1/2+z
1/2+x,-y,1/2+z
loop_
_atom_site_type_symbol
_atom_site_label
_atom_site_fract_x
_atom_site_fract_y
_atom_site_fract_z
Si Si1 0.595166 0.936804 0.549436
Si Si2 0.317229 0.435202 0.228196
Si Si3 0.764866 0.564276 0.185395
Si Si4 0.599630 0.560529 0.717631
Si Si5 0.651886 0.563586 0.369986
Si Si6 0.500000 0.940232 0.696506
Si Si7 0.000000 0.440389 0.092631
O O1 0.594108 0.750000 0.548281
O O2 0.545882 0.992223 0.567923
O O3 0.603041 0.000000 0.500000
O O4 0.632740 0.990332 0.584985
O O5 0.316483 0.250000 0.221168
O O6 0.287651 0.515173 0.189369
O O7 0.290423 0.476926 0.273992
O O8 0.368419 0.486465 0.240673
O O9 0.768238 0.750000 0.193283
O O10 0.795508 0.526922 0.142283
O O11 0.601208 0.750000 0.715170
O O12 0.621868 0.497399 0.671832
O O13 0.547216 0.510081 0.718968
O O14 0.647313 0.750000 0.372221
O O15 0.500000 0.750000 0.696489
O O16 0.500000 0.989451 0.644456
O O17 0.000000 0.250000 0.092696
#
# Coordination Sequence:
#
# PCOD9535227 Si02
#       7
#    16  16  16  16  16   8   8
#     4  11  21  33  45  56  70  89 115 149 189 227
#     4   9  15  22  35  55  72  88 112 140 170 205
#     4   9  16  25  37  51  70  92 110 133 171 214
#     4   9  16  26  40  54  71  94 118 146 178 213
#     4  10  19  29  40  55  71  89 114 144 180 221
#     4   9  14  25  41  55  70  93 123 149 181 221
#     4   9  17  29  45  57  66  88 118 150 188 227
#
# _framework density 12.742388999999999
#
# number of rings (size 3 to 8) (size 9 to 14) (size 15 to 20)
#    0.000    2.500    1.667    3.250    0.000    2.667 
#    0.000    2.500    0.000    0.000    0.000    0.000 
#    0.000    0.000    0.000    0.000    0.000    0.000 
#
# Total GULP energy -267213.014492 kJ/mol
# GULP energy per Si atom -5566.937802 kJ/mol
# Density = 1.271339 g / cm^3
# Si number density = 12.742389 Si / 1000 Ang^3
#
#
#
# Elastic Constant Matrix: (Units=GPa)
#
#
# Indices 1 2 3 4 5 6 
#
# 1 107.0136 18.8564 56.5835 0.0000 0.0000 0.0000
# 2 18.8564 20.7014 14.8329 0.0000 0.0000 0.0000
# 3 56.5835 14.8329 49.9910 0.0000 0.0000 0.0000
# 4 0.0000 0.0000 0.0000 14.8623 0.0000 0.0000
# 5 0.0000 0.0000 0.0000 0.0000 9.5556 0.0000
# 6 0.0000 0.0000 0.0000 0.0000 0.0000 16.9787
#
#
#
# Elastic Compliance Matrix: (Units=1/GPa)
#
#
# Indices 1 2 3 4 5 6 
#
# 1 0.023416 -0.002970 -0.025623 0.000000 0.000000 0.000000
# 2 -0.002970 0.061725 -0.014953 0.000000 0.000000 0.000000
# 3 -0.025623 -0.014953 0.053442 0.000000 0.000000 0.000000
# 4 0.000000 0.000000 0.000000 0.067284 0.000000 0.000000
# 5 0.000000 0.000000 0.000000 0.000000 0.104650 0.000000
# 6 0.000000 0.000000 0.000000 0.000000 0.000000 0.058897
#
#
# Mechanical properties :
#
#
# Convention : Reuss Voigt Hill
#
# Bulk Modulus (GPa) = 19.42054 39.80573 29.61313
# Shear Modulus (GPa) = 10.55586 14.10819 12.33203
#
# Velocity S-wave (km/s) = 2.88132 3.33105 3.11432
# Velocity P-wave (km/s) = 5.13258 6.78978 6.01849
#
# Compressibility (1/GPa) = 0.05149187
#
# Stress axis : x y z
#
# Youngs Moduli (GPa) = 42.70590 16.20086 18.71184
#
# Poissons Ratio (x) = 0.04811 0.47945
# Poissons Ratio (y) = 0.12683 0.27980
# Poissons Ratio (z) = 1.09424 0.24225
#
# Static dielectric constant tensor:
#      x y z
#    x 1.462840 0.000000 0.000000 
#    y 0.000000 1.430040 0.000000 
#    z 0.000000 0.000000 1.386560 
# 
# From -- ./inp_files/74007.got.cif
#   From: 2010.05.17/outbox.cif.g08.bks.cpg/sg74_38_cif.got.tgz:74007.got - 2010.06.03 17:57:02.
