data_PCOD9535788
_publ_section_title
;
Structure prediction by ZEFSAII (Michael W. Deem and Ramdas Pophale) SiO2 
 PCOD9535788
Probable space group: I M M A
;
_chemical_formula_sum "Si O2"
_cell_formula_units_Z 104
_cell_length_a 27.971495
_cell_length_b 9.098521
_cell_length_c 23.901310
_cell_angle_alpha 90.000000
_cell_angle_beta 90.000000
_cell_angle_gamma 90.000000
_cell_volume 6082.865102
_symmetry_space_group_name_H-M "I M M A"
_symmetry_group_IT_number 74
_symmetry_cell_setting 'orthorhombic'
loop_
_space_group_symop_operation_xyz
x,y,z
-x,1/2-y,z
x,-y,-z
-x,1/2+y,-z
-x,-y,-z
x,1/2+y,-z
-x,y,z
x,1/2-y,z
1/2+x,1/2+y,1/2+z
1/2-x,-y,1/2+z
1/2+x,1/2-y,1/2-z
1/2-x,y,1/2-z
1/2-x,1/2-y,1/2-z
1/2+x,y,1/2-z
1/2-x,1/2+y,1/2+z
1/2+x,-y,1/2+z
loop_
_atom_site_type_symbol
_atom_site_label
_atom_site_fract_x
_atom_site_fract_y
_atom_site_fract_z
Si Si1 0.120359 0.578427 0.655024
Si Si2 0.129072 0.582592 0.163156
Si Si3 0.055704 0.573163 0.438815
Si Si4 0.000000 0.425300 0.059892
Si Si5 0.606326 0.575570 0.560171
Si Si6 0.943920 0.916941 0.765437
Si Si7 0.698078 0.077133 0.769483
O O1 0.128622 0.750000 0.640826
O O2 0.094560 0.493516 0.604111
O O3 0.082045 0.574056 0.705803
O O4 0.168335 0.506273 0.681907
O O5 0.125700 0.750000 0.144247
O O6 0.139611 0.483370 0.109398
O O7 0.081057 0.531119 0.194086
O O8 0.167298 0.569435 0.212673
O O9 0.061670 0.500000 0.500000
O O10 0.060748 0.750000 0.442130
O O11 0.000000 0.542491 0.421272
O O12 0.947614 0.463598 0.082029
O O13 0.000000 0.250000 0.055212
O O14 0.000000 0.500000 0.000000
O O15 0.613449 0.500000 0.500000
O O16 0.609627 0.750000 0.553648
O O17 0.936147 0.750000 0.787432
O O18 0.000000 0.940574 0.760147
O O19 0.702543 0.250000 0.785373
O O20 0.750000 0.020861 0.750000
#
# Coordination Sequence:
#
# PCOD9535788 Si02
#       7
#    16  16  16   8  16  16  16
#     4  10  19  32  52  78 106 136 172 216 263 313
#     4  10  20  32  48  73  98 124 163 205 250 300
#     4  10  20  33  51  77 111 151 189 221 255 305
#     4   8  16  28  42  60  84 120 160 192 221 262
#     4  10  19  32  48  67  94 129 165 200 239 283
#     4   9  18  31  46  66  97 135 168 200 243 294
#     4   9  19  37  58  77 100 131 168 214 266 317
#
# _framework density 17.097207000000001
#
# number of rings (size 3 to 8) (size 9 to 14) (size 15 to 20)
#    0.000    2.462    0.000    2.308    1.077    4.000 
#    0.000    0.000    0.000    0.923    0.000    4.308 
#    0.000    0.000    0.000    0.000    0.000    0.000 
#
# Total GULP energy -289609.273365 kJ/mol
# GULP energy per Si atom -5569.409103 kJ/mol
# Density = 1.705829 g / cm^3
# Si number density = 17.097207 Si / 1000 Ang^3
#
#
#
# Elastic Constant Matrix: (Units=GPa)
#
#
# Indices 1 2 3 4 5 6 
#
# 1 85.1440 42.5508 29.7499 0.0000 0.0000 0.0000
# 2 42.5508 81.7786 49.9554 0.0000 0.0000 0.0000
# 3 29.7499 49.9554 76.6667 0.0000 0.0000 0.0000
# 4 0.0000 0.0000 0.0000 31.6718 0.0000 0.0000
# 5 0.0000 0.0000 0.0000 0.0000 17.3509 0.0000
# 6 0.0000 0.0000 0.0000 0.0000 0.0000 17.7774
#
#
#
# Elastic Compliance Matrix: (Units=1/GPa)
#
#
# Indices 1 2 3 4 5 6 
#
# 1 0.015949 -0.007506 -0.001298 0.000000 0.000000 0.000000
# 2 -0.007506 0.023846 -0.012625 0.000000 0.000000 0.000000
# 3 -0.001298 -0.012625 0.021774 0.000000 0.000000 0.000000
# 4 0.000000 0.000000 0.000000 0.031574 0.000000 0.000000
# 5 0.000000 0.000000 0.000000 0.000000 0.057634 0.000000
# 6 0.000000 0.000000 0.000000 0.000000 0.000000 0.056251
#
#
# Mechanical properties :
#
#
# Convention : Reuss Voigt Hill
#
# Bulk Modulus (GPa) = 53.44606 54.23349 53.83978
# Shear Modulus (GPa) = 19.52187 21.44889 20.48538
#
# Velocity S-wave (km/s) = 3.38274 3.54577 3.46522
# Velocity P-wave (km/s) = 6.82534 6.96799 6.89703
#
# Compressibility (1/GPa) = 0.01871045
#
# Stress axis : x y z
#
# Youngs Moduli (GPa) = 62.69822 41.93637 45.92672
#
# Poissons Ratio (x) = 0.31476 0.05964
# Poissons Ratio (y) = 0.47058 0.57983
# Poissons Ratio (z) = 0.08141 0.52945
#
# Static dielectric constant tensor:
#      x y z
#    x 1.599700 0.000000 0.000000 
#    y 0.000000 1.633330 0.000000 
#    z 0.000000 0.000000 1.566080 
# 
# From -- ./inp_files/62368.got.cif
#   From: 2010.05.17/outbox.cif.g08.bks.cpg/sg74_32_cif.got.tgz:62368.got - 2010.06.03 17:57:02.
