data_PCOD9535508
_publ_section_title
;
Structure prediction by ZEFSAII (Michael W. Deem and Ramdas Pophale) SiO2 
 PCOD9535508
Probable space group: I M M A
;
_chemical_formula_sum "Si O2"
_cell_formula_units_Z 88
_cell_length_a 7.453651
_cell_length_b 21.149320
_cell_length_c 30.829307
_cell_angle_alpha 90.000000
_cell_angle_beta 90.000000
_cell_angle_gamma 90.000000
_cell_volume 4859.921170
_symmetry_space_group_name_H-M "I M M A"
_symmetry_group_IT_number 74
_symmetry_cell_setting 'orthorhombic'
loop_
_space_group_symop_operation_xyz
x,y,z
-x,1/2-y,z
x,-y,-z
-x,1/2+y,-z
-x,-y,-z
x,1/2+y,-z
-x,y,z
x,1/2-y,z
1/2+x,1/2+y,1/2+z
1/2-x,-y,1/2+z
1/2+x,1/2-y,1/2-z
1/2-x,y,1/2-z
1/2-x,1/2-y,1/2-z
1/2+x,y,1/2-z
1/2-x,1/2+y,1/2+z
1/2+x,-y,1/2+z
loop_
_atom_site_type_symbol
_atom_site_label
_atom_site_fract_x
_atom_site_fract_y
_atom_site_fract_z
Si Si1 0.214425 0.750000 0.801731
Si Si2 0.783085 0.181740 0.072474
Si Si3 0.283031 0.550796 0.615304
Si Si4 0.785156 0.389649 0.199310
Si Si5 0.210105 0.181469 0.529728
Si Si6 0.290530 0.456939 0.960508
O O1 0.250000 0.750000 0.750000
O O2 0.283045 0.819542 0.814602
O O3 0.000000 0.750000 0.810594
O O4 0.725566 0.250000 0.091147
O O5 0.723153 0.117492 0.094586
O O6 0.000000 0.181171 0.074047
O O7 0.725299 0.180166 0.022487
O O8 0.500000 0.548007 0.613847
O O9 0.224833 0.557076 0.665392
O O10 0.219784 0.495176 0.584184
O O11 0.750000 0.400695 0.250000
O O12 0.000000 0.385904 0.195136
O O13 0.287069 0.250000 0.543554
O O14 0.287461 0.113680 0.543794
O O15 0.000000 0.182744 0.541958
O O16 0.500000 0.447485 0.971906
O O17 0.214200 0.500000 0.000000
#
# Coordination Sequence:
#
# PCOD9535508 Si02
#       6
#     8  16  16  16  16  16
#     4   8  14  26  44  60  80 110 144 184 224 256
#     4   9  17  27  40  60  85 114 149 184 217 254
#     4  10  20  30  44  65  87 116 150 184 223 263
#     4   9  18  31  45  62  84 112 147 185 223 261
#     4   9  17  30  46  61  83 116 149 181 215 253
#     4  10  19  31  45  64  90 117 147 181 218 260
#
# _framework density 18.107289000000002
#
# number of rings (size 3 to 8) (size 9 to 14) (size 15 to 20)
#    0.000    2.727    1.818    0.000    1.273    1.818 
#    0.000    0.000    0.000    0.000    0.000    0.000 
#    0.000    0.727    0.000    1.636    0.000    2.545 
#
# Total GULP energy -245147.207048 kJ/mol
# GULP energy per Si atom -5571.527433 kJ/mol
# Density = 1.806608 g / cm^3
# Si number density = 18.107289 Si / 1000 Ang^3
#
#
#
# Elastic Constant Matrix: (Units=GPa)
#
#
# Indices 1 2 3 4 5 6 
#
# 1 54.4323 5.7420 -8.6208 0.0000 0.0000 0.0000
# 2 5.7420 163.7038 61.4999 0.0000 0.0000 0.0000
# 3 -8.6208 61.4999 78.3526 0.0000 0.0000 0.0000
# 4 0.0000 0.0000 0.0000 25.6542 0.0000 0.0000
# 5 0.0000 0.0000 0.0000 0.0000 8.7822 0.0000
# 6 0.0000 0.0000 0.0000 0.0000 0.0000 -1.4112
#
#
#
# Elastic Compliance Matrix: (Units=1/GPa)
#
#
# Indices 1 2 3 4 5 6 
#
# 1 0.019183 -0.002079 0.003742 0.000000 0.000000 0.000000
# 2 -0.002079 0.008888 -0.007205 0.000000 0.000000 0.000000
# 3 0.003742 -0.007205 0.018830 0.000000 0.000000 0.000000
# 4 0.000000 0.000000 0.000000 0.038980 0.000000 0.000000
# 5 0.000000 0.000000 0.000000 0.000000 0.113866 0.000000
# 6 0.000000 0.000000 0.000000 0.000000 0.000000 -0.708629
#
#
# Mechanical properties :
#
#
# Convention : Reuss Voigt Hill
#
# Bulk Modulus (GPa) = 27.91862 45.97009 36.94436
# Shear Modulus (GPa) = -10.29108 22.46288 6.08590
#
# Velocity S-wave (km/s) = -2.38657 3.52596 1.83530
# Velocity P-wave (km/s) = 2.80314 6.48222 4.99384
#
# Compressibility (1/GPa) = 0.03581838
#
# Stress axis : x y z
#
# Youngs Moduli (GPa) = 52.12832 112.50637 53.10642
#
# Poissons Ratio (x) = 0.23388 -0.19874
# Poissons Ratio (y) = 0.10836 0.38265
# Poissons Ratio (z) = -0.19508 0.81064
#
# Static dielectric constant tensor:
#      x y z
#    x 1.986420 0.000000 0.000000 
#    y 0.000000 1.666000 0.000000 
#    z 0.000000 0.000000 1.621970 
# 
# From -- ./inp_files/70425.got.cif
#   From: 2010.05.17/outbox.cif.g08.bks.cpg/sg74_36_cif.got.tgz:70425.got - 2010.06.03 17:57:02.
