data_PCOD9535817
_publ_section_title
;
Structure prediction by ZEFSAII (Michael W. Deem and Ramdas Pophale) SiO2 
 PCOD9535817
Probable space group: I M M A
;
_chemical_formula_sum "Si O2"
_cell_formula_units_Z 96
_cell_length_a 18.563395
_cell_length_b 26.818382
_cell_length_c 11.491332
_cell_angle_alpha 90.000000
_cell_angle_beta 90.000000
_cell_angle_gamma 90.000000
_cell_volume 5720.847232
_symmetry_space_group_name_H-M "I M M A"
_symmetry_group_IT_number 74
_symmetry_cell_setting 'orthorhombic'
loop_
_space_group_symop_operation_xyz
x,y,z
-x,1/2-y,z
x,-y,-z
-x,1/2+y,-z
-x,-y,-z
x,1/2+y,-z
-x,y,z
x,1/2-y,z
1/2+x,1/2+y,1/2+z
1/2-x,-y,1/2+z
1/2+x,1/2-y,1/2-z
1/2-x,y,1/2-z
1/2-x,1/2-y,1/2-z
1/2+x,y,1/2-z
1/2-x,1/2+y,1/2+z
1/2+x,-y,1/2+z
loop_
_atom_site_type_symbol
_atom_site_label
_atom_site_fract_x
_atom_site_fract_y
_atom_site_fract_z
Si Si1 0.681432 0.378919 0.185190
Si Si2 0.214959 0.692724 0.475993
Si Si3 0.582471 0.647204 0.154363
Si Si4 0.628882 0.308453 0.612943
Si Si5 0.415083 0.942290 0.984634
Si Si6 0.584683 0.691966 0.654540
O O1 0.750000 0.402059 0.250000
O O2 0.632716 0.345622 0.271027
O O3 0.714198 0.342024 0.088074
O O4 0.631717 0.417582 0.116690
O O5 0.219232 0.750000 0.512264
O O6 0.141487 0.681895 0.407541
O O7 0.285292 0.683083 0.397609
O O8 0.500000 0.660862 0.125557
O O9 0.594827 0.655634 0.291053
O O10 0.594873 0.592095 0.100141
O O11 0.616456 0.250000 0.645008
O O12 0.597862 0.315471 0.483292
O O13 0.500000 0.939666 0.955716
O O14 0.395913 0.000000 0.000000
O O15 0.500000 0.685313 0.680198
O O16 0.603627 0.750000 0.679870
#
# Coordination Sequence:
#
# PCOD9535817 Si02
#       6
#    16  16  16  16  16  16
#     4  11  20  34  55  78 106 136 175 218 263 309
#     4  10  20  32  49  74 108 146 178 207 249 304
#     4  10  20  33  52  76 101 134 176 221 262 304
#     4  10  19  32  49  74 110 147 175 203 247 306
#     4   9  20  40  61  78  98 130 174 224 276 319
#     4  10  20  32  50  78 111 148 182 208 244 302
#
# _framework density 16.780730999999999
#
# number of rings (size 3 to 8) (size 9 to 14) (size 15 to 20)
#    0.000    2.000    1.667    2.500    0.000    4.667 
#    0.000    3.333    0.000    0.000    0.000    4.667 
#    0.000    0.000    0.000    0.000    0.000    0.000 
#
# Total GULP energy -267774.371504 kJ/mol
# GULP energy per Si atom -5578.632740 kJ/mol
# Density = 1.674254 g / cm^3
# Si number density = 16.780731 Si / 1000 Ang^3
#
#
#
# Elastic Constant Matrix: (Units=GPa)
#
#
# Indices 1 2 3 4 5 6 
#
# 1 85.9621 51.4457 35.0727 0.0000 0.0000 0.0000
# 2 51.4457 89.8904 53.0002 0.0000 0.0000 0.0000
# 3 35.0727 53.0002 83.9793 0.0000 0.0000 0.0000
# 4 0.0000 0.0000 0.0000 14.6169 0.0000 0.0000
# 5 0.0000 0.0000 0.0000 0.0000 22.0960 0.0000
# 6 0.0000 0.0000 0.0000 0.0000 0.0000 18.9510
#
#
#
# Elastic Compliance Matrix: (Units=1/GPa)
#
#
# Indices 1 2 3 4 5 6 
#
# 1 0.017828 -0.009258 -0.001603 0.000000 0.000000 0.000000
# 2 -0.009258 0.022525 -0.010349 0.000000 0.000000 0.000000
# 3 -0.001603 -0.010349 0.019109 0.000000 0.000000 0.000000
# 4 0.000000 0.000000 0.000000 0.068414 0.000000 0.000000
# 5 0.000000 0.000000 0.000000 0.000000 0.045257 0.000000
# 6 0.000000 0.000000 0.000000 0.000000 0.000000 0.052768
#
#
# Mechanical properties :
#
#
# Convention : Reuss Voigt Hill
#
# Bulk Modulus (GPa) = 58.68090 59.87433 59.27761
# Shear Modulus (GPa) = 18.24810 19.15365 18.70087
#
# Velocity S-wave (km/s) = 3.30122 3.38214 3.34192
# Velocity P-wave (km/s) = 7.04101 7.14210 7.09174
#
# Compressibility (1/GPa) = 0.01704132
#
# Stress axis : x y z
#
# Youngs Moduli (GPa) = 56.09287 44.39432 52.33233
#
# Poissons Ratio (x) = 0.41101 0.08386
# Poissons Ratio (y) = 0.51932 0.54161
# Poissons Ratio (z) = 0.08989 0.45946
#
# Static dielectric constant tensor:
#      x y z
#    x 1.585830 0.000000 0.000000 
#    y 0.000000 1.528560 0.000000 
#    z 0.000000 0.000000 1.575870 
# 
# From -- ./inp_files/22461.got.cif
#   From: 2010.05.17/outbox.cif.g08.bks.cpg/sg74_12_cif.got.tgz:22461.got - 2010.06.03 17:57:02.
