data_PCOD9535416
_publ_section_title
;
Structure prediction by ZEFSAII (Michael W. Deem and Ramdas Pophale) SiO2 
 PCOD9535416
Probable space group: I M M A
;
_chemical_formula_sum "Si O2"
_cell_formula_units_Z 104
_cell_length_a 29.297037
_cell_length_b 8.657908
_cell_length_c 24.915545
_cell_angle_alpha 90.000000
_cell_angle_beta 90.000000
_cell_angle_gamma 90.000000
_cell_volume 6319.854176
_symmetry_space_group_name_H-M "I M M A"
_symmetry_group_IT_number 74
_symmetry_cell_setting 'orthorhombic'
loop_
_space_group_symop_operation_xyz
x,y,z
-x,1/2-y,z
x,-y,-z
-x,1/2+y,-z
-x,-y,-z
x,1/2+y,-z
-x,y,z
x,1/2-y,z
1/2+x,1/2+y,1/2+z
1/2-x,-y,1/2+z
1/2+x,1/2-y,1/2-z
1/2-x,y,1/2-z
1/2-x,1/2-y,1/2-z
1/2+x,y,1/2-z
1/2-x,1/2+y,1/2+z
1/2+x,-y,1/2+z
loop_
_atom_site_type_symbol
_atom_site_label
_atom_site_fract_x
_atom_site_fract_y
_atom_site_fract_z
Si Si1 0.373368 0.436468 0.560273
Si Si2 0.413021 0.436968 0.123647
Si Si3 0.822020 0.564950 0.560543
Si Si4 0.000000 0.934257 0.439947
Si Si5 0.772329 0.434963 0.939408
Si Si6 0.052400 0.936294 0.146181
Si Si7 0.053436 0.935358 0.738160
O O1 0.378628 0.500000 0.500000
O O2 0.375087 0.250000 0.557052
O O3 0.322592 0.477043 0.582063
O O4 0.413013 0.490446 0.600190
O O5 0.416740 0.250000 0.121512
O O6 0.365390 0.481332 0.096191
O O7 0.455222 0.506067 0.090838
O O8 0.418254 0.483505 0.185863
O O9 0.827302 0.500000 0.500000
O O10 0.820329 0.750000 0.557168
O O11 0.774002 0.504659 0.584262
O O12 0.000000 0.750000 0.441572
O O13 0.000000 0.000000 0.500000
O O14 0.768424 0.250000 0.940432
O O15 0.773007 0.500000 0.000000
O O16 0.052345 0.750000 0.145441
O O17 0.000000 0.988850 0.137332
O O18 0.066823 0.990928 0.205309
O O19 0.056219 0.750000 0.743095
O O20 0.000000 0.974742 0.728328
#
# Coordination Sequence:
#
# PCOD9535416 Si02
#       7
#    16  16  16   8  16  16  16
#     4   9  18  31  48  72 100 130 157 189 235 284
#     4  10  20  35  51  68  95 127 159 202 247 287
#     4  10  19  30  47  69  94 123 156 195 242 287
#     4  12  24  34  48  70  98 130 163 198 243 294
#     4   9  16  28  46  66  92 123 157 193 232 280
#     4   9  18  32  49  71 100 127 156 196 237 278
#     4   9  17  32  52  69  90 122 161 199 237 281
#
# _framework density 16.456075999999999
#
# number of rings (size 3 to 8) (size 9 to 14) (size 15 to 20)
#    0.000    2.462    0.769    3.000    0.000    4.615 
#    0.000    0.000    0.000    0.923    0.000    6.462 
#    0.000    0.000    0.000    0.000    0.000    0.000 
#
# Total GULP energy -289806.017728 kJ/mol
# GULP energy per Si atom -5573.192649 kJ/mol
# Density = 1.641862 g / cm^3
# Si number density = 16.456076 Si / 1000 Ang^3
#
#
#
# Elastic Constant Matrix: (Units=GPa)
#
#
# Indices 1 2 3 4 5 6 
#
# 1 150.0060 34.4124 88.9942 0.0000 0.0000 0.0000
# 2 34.4124 20.5879 23.6082 0.0000 0.0000 0.0000
# 3 88.9942 23.6082 108.2868 0.0000 0.0000 0.0000
# 4 0.0000 0.0000 0.0000 21.9291 0.0000 0.0000
# 5 0.0000 0.0000 0.0000 0.0000 6.7803 0.0000
# 6 0.0000 0.0000 0.0000 0.0000 0.0000 18.7328
#
#
#
# Elastic Compliance Matrix: (Units=1/GPa)
#
#
# Indices 1 2 3 4 5 6 
#
# 1 0.016058 -0.015610 -0.009794 0.000000 0.000000 0.000000
# 2 -0.015610 0.079937 -0.004599 0.000000 0.000000 0.000000
# 3 -0.009794 -0.004599 0.018286 0.000000 0.000000 0.000000
# 4 0.000000 0.000000 0.000000 0.045601 0.000000 0.000000
# 5 0.000000 0.000000 0.000000 0.000000 0.147486 0.000000
# 6 0.000000 0.000000 0.000000 0.000000 0.000000 0.053382
#
#
# Mechanical properties :
#
#
# Convention : Reuss Voigt Hill
#
# Bulk Modulus (GPa) = 18.42421 63.65672 41.04046
# Shear Modulus (GPa) = 11.39348 18.27950 14.83649
#
# Velocity S-wave (km/s) = 2.63412 3.33649 3.00589
# Velocity P-wave (km/s) = 4.52457 7.32186 6.08611
#
# Compressibility (1/GPa) = 0.05427640
#
# Stress axis : x y z
#
# Youngs Moduli (GPa) = 62.27552 12.50985 54.68621
#
# Poissons Ratio (x) = 0.19528 0.53558
# Poissons Ratio (y) = 0.97211 0.25149
# Poissons Ratio (z) = 0.60990 0.05753
#
# Static dielectric constant tensor:
#      x y z
#    x 1.581330 0.000000 0.000000 
#    y 0.000000 1.563490 0.000000 
#    z 0.000000 0.000000 1.521540 
# 
# From -- ./inp_files/68681.got.cif
#   From: 2010.05.17/outbox.cif.g08.bks.cpg/sg74_35_cif.got.tgz:68681.got - 2010.06.03 17:57:02.
