data_PCOD9535162
_publ_section_title
;
Structure prediction by ZEFSAII (Michael W. Deem and Ramdas Pophale) SiO2 
 PCOD9535162
Probable space group: I M M A
;
_chemical_formula_sum "Si O2"
_cell_formula_units_Z 80
_cell_length_a 25.440859
_cell_length_b 15.896352
_cell_length_c 9.824477
_cell_angle_alpha 90.000000
_cell_angle_beta 90.000000
_cell_angle_gamma 90.000000
_cell_volume 3973.184040
_symmetry_space_group_name_H-M "I M M A"
_symmetry_group_IT_number 74
_symmetry_cell_setting 'orthorhombic'
loop_
_space_group_symop_operation_xyz
x,y,z
-x,1/2-y,z
x,-y,-z
-x,1/2+y,-z
-x,-y,-z
x,1/2+y,-z
-x,y,z
x,1/2-y,z
1/2+x,1/2+y,1/2+z
1/2-x,-y,1/2+z
1/2+x,1/2-y,1/2-z
1/2-x,y,1/2-z
1/2-x,1/2-y,1/2-z
1/2+x,y,1/2-z
1/2-x,1/2+y,1/2+z
1/2+x,-y,1/2+z
loop_
_atom_site_type_symbol
_atom_site_label
_atom_site_fract_x
_atom_site_fract_y
_atom_site_fract_z
Si Si1 0.224776 0.581412 0.601882
Si Si2 0.500000 0.960321 0.352084
Si Si3 0.888428 0.898710 0.519344
Si Si4 0.000000 0.419790 0.396678
Si Si5 0.711965 0.652352 0.369350
Si Si6 0.101726 0.651660 0.211157
O O1 0.224757 0.500000 0.500000
O O2 0.250000 0.568287 0.750000
O O3 0.164658 0.614375 0.605194
O O4 0.260682 0.643744 0.513837
O O5 0.551017 0.903591 0.321757
O O6 0.500000 0.000000 0.500000
O O7 0.500000 0.038174 0.249364
O O8 0.945016 0.872639 0.578954
O O9 0.884077 0.857707 0.370815
O O10 0.891068 0.000000 0.500000
O O11 0.000000 0.500000 0.500000
O O12 0.703815 0.750000 0.335265
O O13 0.750000 0.618692 0.250000
O O14 0.653399 0.615884 0.364771
O O15 0.091714 0.750000 0.179655
#
# Coordination Sequence:
#
# PCOD9535162 Si02
#       6
#    16   8  16   8  16  16
#     4  11  24  36  58  91 126 163 212 268 320 385
#     4  12  25  40  64  99 126 166 211 272 328 378
#     4  10  19  36  62  88 122 159 214 269 313 378
#     4  10  18  36  61  85 122 156 207 255 311 369
#     4  10  21  39  61  87 124 167 211 258 322 388
#     4  11  22  40  67  95 125 171 220 263 315 396
#
# _framework density 20.134985
#
# number of rings (size 3 to 8) (size 9 to 14) (size 15 to 20)
#    0.000    1.400    6.000    0.900    2.800    2.800 
#    0.000    0.000    0.000    2.400    0.000    0.000 
#    0.000    0.000    0.000    0.000    0.000    0.000 
#
# Total GULP energy -223137.903727 kJ/mol
# GULP energy per Si atom -5578.447593 kJ/mol
# Density = 2.008916 g / cm^3
# Si number density = 20.134985 Si / 1000 Ang^3
#
#
#
# Elastic Constant Matrix: (Units=GPa)
#
#
# Indices 1 2 3 4 5 6 
#
# 1 214.3094 10.0765 53.6421 0.0000 0.0000 0.0000
# 2 10.0765 18.3390 1.7984 0.0000 0.0000 0.0000
# 3 53.6421 1.7984 122.4953 0.0000 0.0000 0.0000
# 4 0.0000 0.0000 0.0000 21.8467 0.0000 0.0000
# 5 0.0000 0.0000 0.0000 0.0000 25.0068 0.0000
# 6 0.0000 0.0000 0.0000 0.0000 0.0000 -0.8388
#
#
#
# Elastic Compliance Matrix: (Units=1/GPa)
#
#
# Indices 1 2 3 4 5 6 
#
# 1 0.005373 -0.002726 -0.002313 0.000000 0.000000 0.000000
# 2 -0.002726 0.055990 0.000372 0.000000 0.000000 0.000000
# 3 -0.002313 0.000372 0.009171 0.000000 0.000000 0.000000
# 4 0.000000 0.000000 0.000000 0.045774 0.000000 0.000000
# 5 0.000000 0.000000 0.000000 0.000000 0.039989 0.000000
# 6 0.000000 0.000000 0.000000 0.000000 0.000000 -1.192202
#
#
# Mechanical properties :
#
#
# Convention : Reuss Voigt Hill
#
# Bulk Modulus (GPa) = 16.33990 54.01976 35.17983
# Shear Modulus (GPa) = -4.96933 28.51140 11.77103
#
# Velocity S-wave (km/s) = -1.57269 3.76708 2.42049
# Velocity P-wave (km/s) = 2.19886 6.76818 5.03206
#
# Compressibility (1/GPa) = 0.06119988
#
# Stress axis : x y z
#
# Youngs Moduli (GPa) = 186.10718 17.86044 109.03930
#
# Poissons Ratio (x) = 0.04868 0.25221
# Poissons Ratio (y) = 0.50724 -0.04051
# Poissons Ratio (z) = 0.43046 -0.00664
#
# Static dielectric constant tensor:
#      x y z
#    x 1.765050 0.000000 0.000000 
#    y 0.000000 1.742920 0.000000 
#    z 0.000000 0.000000 1.670120 
# 
# From -- ./inp_files/14965.got.cif
#   From: 2010.05.17/outbox.cif.g08.bks.cpg/sg74_8_cif.got.tgz:14965.got - 2010.06.03 17:57:02.
