data_PCOD9535091
_publ_section_title
;
Structure prediction by ZEFSAII (Michael W. Deem and Ramdas Pophale) SiO2 
 PCOD9535091
Probable space group: I M M A
;
_chemical_formula_sum "Si O2"
_cell_formula_units_Z 80
_cell_length_a 16.703648
_cell_length_b 14.290147
_cell_length_c 14.012762
_cell_angle_alpha 90.000000
_cell_angle_beta 90.000000
_cell_angle_gamma 90.000000
_cell_volume 3344.812454
_symmetry_space_group_name_H-M "I M M A"
_symmetry_group_IT_number 74
_symmetry_cell_setting 'orthorhombic'
loop_
_space_group_symop_operation_xyz
x,y,z
-x,1/2-y,z
x,-y,-z
-x,1/2+y,-z
-x,-y,-z
x,1/2+y,-z
-x,y,z
x,1/2-y,z
1/2+x,1/2+y,1/2+z
1/2-x,-y,1/2+z
1/2+x,1/2-y,1/2-z
1/2-x,y,1/2-z
1/2-x,1/2-y,1/2-z
1/2+x,y,1/2-z
1/2-x,1/2+y,1/2+z
1/2+x,-y,1/2+z
loop_
_atom_site_type_symbol
_atom_site_label
_atom_site_fract_x
_atom_site_fract_y
_atom_site_fract_z
Si Si1 0.764980 0.145967 0.635706
Si Si2 0.112204 0.545844 0.135112
Si Si3 0.210658 0.642604 0.644523
Si Si4 0.091170 0.969359 0.357468
Si Si5 0.381307 0.646842 0.548274
O O1 0.744608 0.250000 0.599820
O O2 0.750000 0.154349 0.750000
O O3 0.707400 0.057796 0.618998
O O4 0.852730 0.114183 0.603832
O O5 0.090035 0.555344 0.244210
O O6 0.087060 0.443240 0.103718
O O7 0.089899 0.626486 0.059845
O O8 0.179743 0.750000 0.644781
O O9 0.250000 0.626275 0.750000
O O10 0.141226 0.565694 0.630414
O O11 0.285266 0.640941 0.570209
O O12 0.000000 0.974015 0.391114
O O13 0.405597 0.750000 0.579696
#
# Coordination Sequence:
#
# PCOD9535091 Si02
#       5
#    16  16  16  16  16
#     4   9  17  32  53  75 101 139 190 233 265 318
#     4  10  19  34  55  81 107 141 187 231 277 327
#     4  10  18  34  58  80 104 141 193 242 276 318
#     4  11  21  34  52  81 119 150 180 222 282 349
#     4  10  19  32  57  83 105 136 185 240 278 315
#
# _framework density 23.917632999999999
#
# number of rings (size 3 to 8) (size 9 to 14) (size 15 to 20)
#    0.000    2.000    4.000    1.200    0.000    1.600 
#    0.000    2.000    0.000    3.600    0.000    2.800 
#    0.000    0.000    0.000    0.000    0.000    0.000 
#
# Total GULP energy -222994.132153 kJ/mol
# GULP energy per Si atom -5574.853304 kJ/mol
# Density = 2.386320 g / cm^3
# Si number density = 23.917633 Si / 1000 Ang^3
#
#
#
# Elastic Constant Matrix: (Units=GPa)
#
#
# Indices 1 2 3 4 5 6 
#
# 1 180.3535 58.6451 1.7987 0.0000 0.0000 0.0000
# 2 58.6451 184.4471 10.1863 0.0000 0.0000 0.0000
# 3 1.7987 10.1863 90.5092 0.0000 0.0000 0.0000
# 4 0.0000 0.0000 0.0000 21.7142 0.0000 0.0000
# 5 0.0000 0.0000 0.0000 0.0000 -11.5762 0.0000
# 6 0.0000 0.0000 0.0000 0.0000 0.0000 -23.8689
#
#
#
# Elastic Compliance Matrix: (Units=1/GPa)
#
#
# Indices 1 2 3 4 5 6 
#
# 1 0.006185 -0.001972 0.000099 0.000000 0.000000 0.000000
# 2 -0.001972 0.006084 -0.000646 0.000000 0.000000 0.000000
# 3 0.000099 -0.000646 0.011119 0.000000 0.000000 0.000000
# 4 0.000000 0.000000 0.000000 0.046053 0.000000 0.000000
# 5 0.000000 0.000000 0.000000 0.000000 -0.086384 0.000000
# 6 0.000000 0.000000 0.000000 0.000000 0.000000 -0.041896
#
#
# Mechanical properties :
#
#
# Convention : Reuss Voigt Hill
#
# Bulk Modulus (GPa) = 54.49167 66.28555 60.38861
# Shear Modulus (GPa) = -104.85676 22.89913 -40.97881
#
# Velocity S-wave (km/s) = -6.62842 3.09757 -4.14373
# Velocity P-wave (km/s) = 5.97903 6.36926 1.55222
#
# Compressibility (1/GPa) = 0.01835143
#
# Stress axis : x y z
#
# Youngs Moduli (GPa) = 161.68418 164.35886 89.93386
#
# Poissons Ratio (x) = 0.32411 -0.00891
# Poissons Ratio (y) = 0.31883 0.05806
# Poissons Ratio (z) = -0.01601 0.10610
#
# Static dielectric constant tensor:
#      x y z
#    x 2.023020 0.000000 0.000000 
#    y 0.000000 1.835720 0.000000 
#    z 0.000000 0.000000 2.040480 
# 
# From -- ./inp_files/42700.got.cif
#   From: 2010.05.17/outbox.cif.g08.bks.cpg/sg74_22_cif.got.tgz:42700.got - 2010.06.03 17:57:02.
