data_PCOD9535550
_publ_section_title
;
Structure prediction by ZEFSAII (Michael W. Deem and Ramdas Pophale) SiO2 
 PCOD9535550
Probable space group: I M M A
;
_chemical_formula_sum "Si O2"
_cell_formula_units_Z 80
_cell_length_a 11.838840
_cell_length_b 14.893749
_cell_length_c 28.071077
_cell_angle_alpha 90.000000
_cell_angle_beta 90.000000
_cell_angle_gamma 90.000000
_cell_volume 4949.624551
_symmetry_space_group_name_H-M "I M M A"
_symmetry_group_IT_number 74
_symmetry_cell_setting 'orthorhombic'
loop_
_space_group_symop_operation_xyz
x,y,z
-x,1/2-y,z
x,-y,-z
-x,1/2+y,-z
-x,-y,-z
x,1/2+y,-z
-x,y,z
x,1/2-y,z
1/2+x,1/2+y,1/2+z
1/2-x,-y,1/2+z
1/2+x,1/2-y,1/2-z
1/2-x,y,1/2-z
1/2-x,1/2-y,1/2-z
1/2+x,y,1/2-z
1/2-x,1/2+y,1/2+z
1/2+x,-y,1/2+z
loop_
_atom_site_type_symbol
_atom_site_label
_atom_site_fract_x
_atom_site_fract_y
_atom_site_fract_z
Si Si1 0.259915 0.357737 0.193885
Si Si2 0.135422 0.847032 0.078478
Si Si3 0.751366 0.600435 0.983878
Si Si4 0.134970 0.547465 0.889507
Si Si5 0.000000 0.142577 0.458385
Si Si6 0.500000 0.641445 0.850042
O O1 0.244327 0.250000 0.186468
O O2 0.250000 0.374927 0.250000
O O3 0.173966 0.412548 0.160826
O O4 0.385399 0.383605 0.176468
O O5 0.163738 0.750000 0.101829
O O6 0.000000 0.850916 0.073647
O O7 0.167932 0.941635 0.103703
O O8 0.189860 0.845411 0.025953
O O9 0.803689 0.606043 0.931002
O O10 0.617241 0.614815 0.982273
O O11 0.776163 0.500000 0.000000
O O12 0.000000 0.553980 0.895424
O O13 0.000000 0.250000 0.456599
O O14 0.000000 0.107100 0.404151
O O15 0.500000 0.750000 0.852144
#
# Coordination Sequence:
#
# PCOD9535550 Si02
#       6
#    16  16  16  16   8   8
#     4  10  21  35  52  73  99 130 162 198 243 293
#     4   9  18  33  52  72  97 129 163 203 247 288
#     4  10  19  31  47  69  97 129 164 200 240 287
#     4  10  20  33  50  74 100 126 164 206 244 288
#     4  11  19  29  45  65  96 132 164 193 231 288
#     4   9  18  33  49  67  95 130 161 193 237 290
#
# _framework density 16.162842999999999
#
# number of rings (size 3 to 8) (size 9 to 14) (size 15 to 20)
#    0.000    2.200    2.000    1.500    1.400    3.600 
#    0.000    0.000    0.000    0.600    0.000    0.000 
#    0.000    0.000    0.000    0.000    0.000    0.000 
#
# Total GULP energy -222735.268325 kJ/mol
# GULP energy per Si atom -5568.381708 kJ/mol
# Density = 1.612606 g / cm^3
# Si number density = 16.162843 Si / 1000 Ang^3
#
#
#
# Elastic Constant Matrix: (Units=GPa)
#
#
# Indices 1 2 3 4 5 6 
#
# 1 39.5559 10.2600 5.4088 0.0000 0.0000 0.0000
# 2 10.2600 68.5561 28.1926 0.0000 0.0000 0.0000
# 3 5.4088 28.1926 73.6128 0.0000 0.0000 0.0000
# 4 0.0000 0.0000 0.0000 23.8782 0.0000 0.0000
# 5 0.0000 0.0000 0.0000 0.0000 24.3730 0.0000
# 6 0.0000 0.0000 0.0000 0.0000 0.0000 16.7978
#
#
#
# Elastic Compliance Matrix: (Units=1/GPa)
#
#
# Indices 1 2 3 4 5 6 
#
# 1 0.026317 -0.003731 -0.000505 0.000000 0.000000 0.000000
# 2 -0.003731 0.017842 -0.006559 0.000000 0.000000 0.000000
# 3 -0.000505 -0.006559 0.016134 0.000000 0.000000 0.000000
# 4 0.000000 0.000000 0.000000 0.041879 0.000000 0.000000
# 5 0.000000 0.000000 0.000000 0.000000 0.041029 0.000000
# 6 0.000000 0.000000 0.000000 0.000000 0.000000 0.059531
#
#
# Mechanical properties :
#
#
# Convention : Reuss Voigt Hill
#
# Bulk Modulus (GPa) = 25.83748 29.93863 27.88805
# Shear Modulus (GPa) = 21.07710 22.20072 21.63891
#
# Velocity S-wave (km/s) = 3.61508 3.71018 3.66294
# Velocity P-wave (km/s) = 5.78321 6.07596 5.93139
#
# Compressibility (1/GPa) = 0.03870347
#
# Stress axis : x y z
#
# Youngs Moduli (GPa) = 37.99762 56.04643 61.98189
#
# Poissons Ratio (x) = 0.20911 0.03129
# Poissons Ratio (y) = 0.14177 0.40655
# Poissons Ratio (z) = 0.01918 0.36762
#
# Static dielectric constant tensor:
#      x y z
#    x 1.526790 0.000000 0.000000 
#    y 0.000000 1.573100 0.000000 
#    z 0.000000 0.000000 1.536360 
# 
# From -- ./inp_files/58530.got.cif
#   From: 2010.05.17/outbox.cif.g08.bks.cpg/sg74_30_cif.got.tgz:58530.got - 2010.06.03 17:57:02.
