data_PCOD9535410
_publ_section_title
;
Structure prediction by ZEFSAII (Michael W. Deem and Ramdas Pophale) SiO2 
 PCOD9535410
Probable space group: I M M A
;
_chemical_formula_sum "Si O2"
_cell_formula_units_Z 72
_cell_length_a 9.351077
_cell_length_b 26.155323
_cell_length_c 16.829595
_cell_angle_alpha 90.000000
_cell_angle_beta 90.000000
_cell_angle_gamma 90.000000
_cell_volume 4116.189739
_symmetry_space_group_name_H-M "I M M A"
_symmetry_group_IT_number 74
_symmetry_cell_setting 'orthorhombic'
loop_
_space_group_symop_operation_xyz
x,y,z
-x,1/2-y,z
x,-y,-z
-x,1/2+y,-z
-x,-y,-z
x,1/2+y,-z
-x,y,z
x,1/2-y,z
1/2+x,1/2+y,1/2+z
1/2-x,-y,1/2+z
1/2+x,1/2-y,1/2-z
1/2-x,y,1/2-z
1/2-x,1/2-y,1/2-z
1/2+x,y,1/2-z
1/2-x,1/2+y,1/2+z
1/2+x,-y,1/2+z
loop_
_atom_site_type_symbol
_atom_site_label
_atom_site_fract_x
_atom_site_fract_y
_atom_site_fract_z
Si Si1 0.169425 0.564277 0.826479
Si Si2 0.167085 0.193086 0.892207
Si Si3 0.836862 0.537629 0.374091
Si Si4 0.250000 0.120771 0.750000
Si Si5 0.829100 0.396645 0.999706
O O1 0.250000 0.586314 0.750000
O O2 0.243078 0.509651 0.843797
O O3 0.188491 0.596847 0.906642
O O4 0.000000 0.557815 0.811642
O O5 0.231067 0.250000 0.884213
O O6 0.177500 0.158987 0.812773
O O7 0.000000 0.199236 0.908425
O O8 0.222128 0.157449 0.963697
O O9 0.836700 0.582021 0.306707
O O10 0.758948 0.560949 0.451209
O O11 0.000000 0.522301 0.390031
O O12 0.000000 0.403120 0.982363
#
# Coordination Sequence:
#
# PCOD9535410 Si02
#       5
#    16  16  16   8  16
#     4  11  22  35  52  73 101 135 173 216 261 308
#     4   9  17  31  52  74  98 133 176 215 254 304
#     4  11  21  32  50  75 106 142 175 207 249 307
#     4  10  19  30  46  74 114 140 169 206 252 298
#     4   9  20  36  52  73 102 135 171 216 263 303
#
# _framework density 17.491904999999999
#
# number of rings (size 3 to 8) (size 9 to 14) (size 15 to 20)
#    0.000    2.000    1.111    3.000    0.000    6.222 
#    0.000    0.000    0.000    6.667    0.000    0.000 
#    0.000    0.000    0.000    0.000    0.000    0.222 
#
# Total GULP energy -200609.588079 kJ/mol
# GULP energy per Si atom -5572.488558 kJ/mol
# Density = 1.745209 g / cm^3
# Si number density = 17.491905 Si / 1000 Ang^3
#
#
#
# Elastic Constant Matrix: (Units=GPa)
#
#
# Indices 1 2 3 4 5 6 
#
# 1 73.9819 14.7344 47.4616 -0.0001 0.0000 0.0000
# 2 14.7344 72.5771 36.6361 0.0000 0.0000 0.0000
# 3 47.4616 36.6361 124.0447 -0.0017 0.0000 0.0000
# 4 -0.0001 0.0000 -0.0017 670.2914 0.0006 0.0002
# 5 0.0000 0.0000 0.0000 0.0006 19.8498 0.0000
# 6 0.0000 0.0000 0.0000 0.0002 0.0000 12.7063
#
#
#
# Elastic Compliance Matrix: (Units=1/GPa)
#
#
# Indices 1 2 3 4 5 6 
#
# 1 0.017917 -0.000208 -0.006794 0.000000 0.000000 0.000000
# 2 -0.000208 0.016195 -0.004704 0.000000 0.000000 0.000000
# 3 -0.006794 -0.004704 0.012050 0.000000 0.000000 0.000000
# 4 0.000000 0.000000 0.000000 0.001492 0.000000 0.000000
# 5 0.000000 0.000000 0.000000 0.000000 0.050378 0.000000
# 6 0.000000 0.000000 0.000000 0.000000 0.000000 0.078701
#
#
# Mechanical properties :
#
#
# Convention : Reuss Voigt Hill
#
# Bulk Modulus (GPa) = 43.95364 52.02974 47.99169
# Shear Modulus (GPa) = 24.06996 152.02092 88.04544
#
# Velocity S-wave (km/s) = 3.71356 9.33263 7.10241
# Velocity P-wave (km/s) = 6.60075 12.08057 9.73422
#
# Compressibility (1/GPa) = 0.02275124
#
# Stress axis : x y z
#
# Youngs Moduli (GPa) = 55.81397 61.74755 82.98613
#
# Poissons Ratio (x) = 0.01284 0.56379
# Poissons Ratio (y) = 0.01161 0.39033
# Poissons Ratio (z) = 0.37919 0.29043
#
# Static dielectric constant tensor:
#      x y z
#    x 1.600500 0.000000 0.000000 
#    y 0.000000 1.628740 0.000000 
#    z 0.000000 0.000000 1.616700 
# 
# From -- ./inp_files/29208.got.cif
#   From: 2010.05.17/outbox.cif.g08.bks.cpg/sg74_15_cif.got.tgz:29208.got - 2010.06.03 17:57:02.
