data_PCOD9535795
_publ_section_title
;
Structure prediction by ZEFSAII (Michael W. Deem and Ramdas Pophale) SiO2 
 PCOD9535795
Probable space group: I M M A
;
_chemical_formula_sum "Si O2"
_cell_formula_units_Z 72
_cell_length_a 14.669176
_cell_length_b 8.290900
_cell_length_c 32.483063
_cell_angle_alpha 90.000000
_cell_angle_beta 90.000000
_cell_angle_gamma 90.000000
_cell_volume 3950.611928
_symmetry_space_group_name_H-M "I M M A"
_symmetry_group_IT_number 74
_symmetry_cell_setting 'orthorhombic'
loop_
_space_group_symop_operation_xyz
x,y,z
-x,1/2-y,z
x,-y,-z
-x,1/2+y,-z
-x,-y,-z
x,1/2+y,-z
-x,y,z
x,1/2-y,z
1/2+x,1/2+y,1/2+z
1/2-x,-y,1/2+z
1/2+x,1/2-y,1/2-z
1/2-x,y,1/2-z
1/2-x,1/2-y,1/2-z
1/2+x,y,1/2-z
1/2-x,1/2+y,1/2+z
1/2+x,-y,1/2+z
loop_
_atom_site_type_symbol
_atom_site_label
_atom_site_fract_x
_atom_site_fract_y
_atom_site_fract_z
Si Si1 0.200685 0.942156 0.953652
Si Si2 0.000000 0.446721 0.834999
Si Si3 0.805652 0.942859 0.709320
Si Si4 0.000000 0.056190 0.046610
Si Si5 0.803318 0.559079 0.130574
Si Si6 0.000000 0.443787 0.738703
O O1 0.198087 0.750000 0.956698
O O2 0.099007 0.006648 0.941537
O O3 0.246208 0.990567 0.910679
O O4 0.225358 0.000000 0.000000
O O5 0.905665 0.503862 0.856396
O O6 0.000000 0.494541 0.786982
O O7 0.000000 0.250000 0.836597
O O8 0.798407 0.750000 0.705478
O O9 0.750000 0.994285 0.750000
O O10 0.759752 0.021306 0.669631
O O11 0.909572 0.992256 0.716842
O O12 0.000000 0.250000 0.051794
O O13 0.000000 0.000000 0.000000
O O14 0.811861 0.750000 0.125067
O O15 0.000000 0.250000 0.738136
#
# Coordination Sequence:
#
# PCOD9535795 Si02
#       6
#    16   8  16   8  16   8
#     4  10  19  32  48  71 102 140 182 228 276 327
#     4   9  19  32  51  78 109 144 187 230 272 323
#     4  11  23  38  56  82 113 145 182 228 277 328
#     4   8  15  26  42  63  93 133 174 215 262 313
#     4  11  21  35  54  79 109 147 189 231 276 329
#     4  11  21  38  60  81 108 147 187 227 274 327
#
# _framework density 18.225026
#
# number of rings (size 3 to 8) (size 9 to 14) (size 15 to 20)
#    0.000    1.778    2.222    3.000    0.000    1.778 
#    0.000    5.000    0.000    0.000    0.000    0.778 
#    0.000    0.000    0.000    0.000    0.000    0.000 
#
# Total GULP energy -200439.862543 kJ/mol
# GULP energy per Si atom -5567.773960 kJ/mol
# Density = 1.818354 g / cm^3
# Si number density = 18.225026 Si / 1000 Ang^3
#
#
#
# Elastic Constant Matrix: (Units=GPa)
#
#
# Indices 1 2 3 4 5 6 
#
# 1 77.7693 7.3257 38.1664 0.0000 0.0000 0.0000
# 2 7.3257 41.1969 32.9460 0.0000 0.0000 0.0000
# 3 38.1664 32.9460 170.1651 0.0000 0.0000 0.0000
# 4 0.0000 0.0000 0.0000 29.4160 0.0000 0.0000
# 5 0.0000 0.0000 0.0000 0.0000 -12.3370 0.0000
# 6 0.0000 0.0000 0.0000 0.0000 0.0000 17.0542
#
#
#
# Elastic Compliance Matrix: (Units=1/GPa)
#
#
# Indices 1 2 3 4 5 6 
#
# 1 0.014449 0.000026 -0.003246 0.000000 0.000000 0.000000
# 2 0.000026 0.028721 -0.005567 0.000000 0.000000 0.000000
# 3 -0.003246 -0.005567 0.007682 0.000000 0.000000 0.000000
# 4 0.000000 0.000000 0.000000 0.033995 0.000000 0.000000
# 5 0.000000 0.000000 0.000000 0.000000 -0.081057 0.000000
# 6 0.000000 0.000000 0.000000 0.000000 0.000000 0.058636
#
#
# Mechanical properties :
#
#
# Convention : Reuss Voigt Hill
#
# Bulk Modulus (GPa) = 30.04801 49.55638 39.80219
# Shear Modulus (GPa) = 54.88950 20.87286 37.88118
#
# Velocity S-wave (km/s) = 5.49391 3.38788 4.56403
# Velocity P-wave (km/s) = 7.53439 6.52335 7.04702
#
# Compressibility (1/GPa) = 0.03328008
#
# Stress axis : x y z
#
# Youngs Moduli (GPa) = 69.20885 34.81812 130.16715
#
# Poissons Ratio (x) = -0.00092 0.42251
# Poissons Ratio (y) = -0.00183 0.72459
# Poissons Ratio (z) = 0.22465 0.19382
#
# Static dielectric constant tensor:
#      x y z
#    x 1.475850 0.000000 0.000000 
#    y 0.000000 1.630990 0.000000 
#    z 0.000000 0.000000 1.675580 
# 
# From -- ./inp_files/63684.got.cif
#   From: 2010.05.17/outbox.cif.g08.bks.cpg/sg74_32_cif.got.tgz:63684.got - 2010.06.03 17:57:02.
