data_PCOD9535926
_publ_section_title
;
Structure prediction by ZEFSAII (Michael W. Deem and Ramdas Pophale) SiO2 
 PCOD9535926
Probable space group: I M M A
;
_chemical_formula_sum "Si O2"
_cell_formula_units_Z 104
_cell_length_a 29.453550
_cell_length_b 8.583179
_cell_length_c 24.853451
_cell_angle_alpha 90.000000
_cell_angle_beta 90.000000
_cell_angle_gamma 90.000000
_cell_volume 6283.078962
_symmetry_space_group_name_H-M "I M M A"
_symmetry_group_IT_number 74
_symmetry_cell_setting 'orthorhombic'
loop_
_space_group_symop_operation_xyz
x,y,z
-x,1/2-y,z
x,-y,-z
-x,1/2+y,-z
-x,-y,-z
x,1/2+y,-z
-x,y,z
x,1/2-y,z
1/2+x,1/2+y,1/2+z
1/2-x,-y,1/2+z
1/2+x,1/2-y,1/2-z
1/2-x,y,1/2-z
1/2-x,1/2-y,1/2-z
1/2+x,y,1/2-z
1/2-x,1/2+y,1/2+z
1/2+x,-y,1/2+z
loop_
_atom_site_type_symbol
_atom_site_label
_atom_site_fract_x
_atom_site_fract_y
_atom_site_fract_z
Si Si1 0.175970 0.061470 0.939002
Si Si2 0.775188 0.062243 0.560886
Si Si3 0.000000 0.435992 0.060560
Si Si4 0.586898 0.938983 0.375029
Si Si5 0.552298 0.063995 0.143745
Si Si6 0.946740 0.563049 0.239833
Si Si7 0.874724 0.436903 0.560840
O O1 0.175097 0.250000 0.941305
O O2 0.225883 0.013063 0.917029
O O3 0.133974 0.010695 0.902312
O O4 0.170826 0.000000 0.000000
O O5 0.775213 0.250000 0.560475
O O6 0.824542 0.013524 0.582672
O O7 0.774984 0.000000 0.500000
O O8 0.955464 0.496554 0.091404
O O9 0.000000 0.250000 0.059565
O O10 0.000000 0.500000 0.000000
O O11 0.584604 0.750000 0.376666
O O12 0.581043 0.986113 0.312794
O O13 0.500000 0.009696 0.136090
O O14 0.552641 0.250000 0.140369
O O15 0.566475 0.012738 0.203727
O O16 0.585764 0.996397 0.099269
O O17 0.943193 0.750000 0.245310
O O18 0.000000 0.526082 0.229888
O O19 0.879620 0.500000 0.500000
O O20 0.875972 0.250000 0.558732
#
# Coordination Sequence:
#
# PCOD9535926 Si02
#       7
#    16  16   8  16  16  16  16
#     4   9  17  29  47  70  98 127 159 200 245 291
#     4   8  15  28  46  70  96 125 159 195 234 283
#     4  12  24  34  46  66  98 134 167 206 253 300
#     4  10  19  33  51  71  96 127 164 206 250 296
#     4  10  21  35  51  73 100 127 160 200 239 283
#     4   9  17  32  52  70  92 124 164 204 243 288
#     4  10  19  32  52  76 103 131 160 192 235 288
#
# _framework density 16.552395000000001
#
# number of rings (size 3 to 8) (size 9 to 14) (size 15 to 20)
#    0.000    2.462    0.769    2.077    0.000    4.308 
#    0.000    0.000    0.000    0.923    0.000    6.462 
#    0.000    0.000    0.000    0.000    0.000    0.000 
#
# Total GULP energy -289737.094138 kJ/mol
# GULP energy per Si atom -5571.867195 kJ/mol
# Density = 1.651472 g / cm^3
# Si number density = 16.552395 Si / 1000 Ang^3
#
#
#
# Elastic Constant Matrix: (Units=GPa)
#
#
# Indices 1 2 3 4 5 6 
#
# 1 154.8772 30.8589 91.9960 0.0000 0.0000 0.0000
# 2 30.8589 20.0904 29.1389 0.0000 0.0000 0.0000
# 3 91.9960 29.1389 109.7229 0.0000 0.0000 0.0000
# 4 0.0000 0.0000 0.0000 24.2730 0.0000 0.0000
# 5 0.0000 0.0000 0.0000 0.0000 5.5934 0.0000
# 6 0.0000 0.0000 0.0000 0.0000 0.0000 10.8645
#
#
#
# Elastic Compliance Matrix: (Units=1/GPa)
#
#
# Indices 1 2 3 4 5 6 
#
# 1 0.013441 -0.006994 -0.009412 0.000000 0.000000 0.000000
# 2 -0.006994 0.084598 -0.016602 0.000000 0.000000 0.000000
# 3 -0.009412 -0.016602 0.021414 0.000000 0.000000 0.000000
# 4 0.000000 0.000000 0.000000 0.041198 0.000000 0.000000
# 5 0.000000 0.000000 0.000000 0.000000 0.178783 0.000000
# 6 0.000000 0.000000 0.000000 0.000000 0.000000 0.092043
#
#
# Mechanical properties :
#
#
# Convention : Reuss Voigt Hill
#
# Bulk Modulus (GPa) = 18.71394 65.40866 42.06130
# Shear Modulus (GPa) = 9.70298 16.99262 13.34780
#
# Velocity S-wave (km/s) = 2.42378 3.20753 2.84279
# Velocity P-wave (km/s) = 4.37760 7.30203 6.02009
#
# Compressibility (1/GPa) = 0.05343609
#
# Stress axis : x y z
#
# Youngs Moduli (GPa) = 74.39929 11.82065 46.69788
#
# Poissons Ratio (x) = 0.08268 0.43952
# Poissons Ratio (y) = 0.52037 0.77528
# Poissons Ratio (z) = 0.70025 0.19625
#
# Static dielectric constant tensor:
#      x y z
#    x 1.591780 0.000000 0.000000 
#    y 0.000000 1.571940 0.000000 
#    z 0.000000 0.000000 1.518880 
# 
# From -- ./inp_files/62365.got.cif
#   From: 2010.05.17/outbox.cif.g08.bks.cpg/sg74_32_cif.got.tgz:62365.got - 2010.06.03 17:57:02.
