data_PCOD9535674
_publ_section_title
;
Structure prediction by ZEFSAII (Michael W. Deem and Ramdas Pophale) SiO2 
 PCOD9535674
Probable space group: I M M A
;
_chemical_formula_sum "Si O2"
_cell_formula_units_Z 56
_cell_length_a 14.604450
_cell_length_b 24.835209
_cell_length_c 8.578604
_cell_angle_alpha 90.000000
_cell_angle_beta 90.000000
_cell_angle_gamma 90.000000
_cell_volume 3111.498859
_symmetry_space_group_name_H-M "I M M A"
_symmetry_group_IT_number 74
_symmetry_cell_setting 'orthorhombic'
loop_
_space_group_symop_operation_xyz
x,y,z
-x,1/2-y,z
x,-y,-z
-x,1/2+y,-z
-x,-y,-z
x,1/2+y,-z
-x,y,z
x,1/2-y,z
1/2+x,1/2+y,1/2+z
1/2-x,-y,1/2+z
1/2+x,1/2-y,1/2-z
1/2-x,y,1/2-z
1/2-x,1/2-y,1/2-z
1/2+x,y,1/2-z
1/2-x,1/2+y,1/2+z
1/2+x,-y,1/2+z
loop_
_atom_site_type_symbol
_atom_site_label
_atom_site_fract_x
_atom_site_fract_y
_atom_site_fract_z
Si Si1 0.308036 0.810613 0.113376
Si Si2 0.500000 0.183992 0.394517
Si Si3 0.000000 0.063881 0.494377
Si Si4 0.155323 0.374970 0.310436
Si Si5 0.000000 0.843162 0.259071
O O1 0.273331 0.750000 0.098200
O O2 0.250000 0.838754 0.250000
O O3 0.411305 0.813602 0.173706
O O4 0.307358 0.835825 0.944780
O O5 0.500000 0.250000 0.389944
O O6 0.589847 0.159019 0.307309
O O7 0.500000 0.162634 0.572689
O O8 0.088112 0.083854 0.397428
O O9 0.000000 0.097360 0.658688
O O10 0.000000 0.000000 0.500000
O O11 0.250000 0.400421 0.250000
#
# Coordination Sequence:
#
# PCOD9535674 Si02
#       5
#    16   8   8  16   8
#     4  10  19  31  50  76 109 148 183 218 267 332
#     4  11  21  33  54  84 120 155 181 219 280 348
#     4   9  21  43  62  76 104 145 189 241 290 328
#     4  10  21  36  54  81 112 143 186 236 284 337
#     4  10  20  34  53  76 106 140 184 226 267 330
#
# _framework density 17.997757
#
# number of rings (size 3 to 8) (size 9 to 14) (size 15 to 20)
#    0.000    2.000    0.000    4.714    0.000    4.571 
#    0.000   11.429    0.000    0.000    0.000    0.000 
#    0.000    0.000    0.000    0.000    0.000    0.000 
#
# Total GULP energy -155966.944993 kJ/mol
# GULP energy per Si atom -5570.248035 kJ/mol
# Density = 1.795679 g / cm^3
# Si number density = 17.997757 Si / 1000 Ang^3
#
#
#
# Elastic Constant Matrix: (Units=GPa)
#
#
# Indices 1 2 3 4 5 6 
#
# 1 88.7259 5.9557 5.2453 -0.0005 0.0001 0.0002
# 2 5.9557 112.8353 32.8655 0.0003 -0.0001 0.0000
# 3 5.2453 32.8655 87.7250 0.0027 -0.0007 -0.0005
# 4 -0.0005 0.0003 0.0027 7.2603 -0.0004 -0.0005
# 5 0.0001 -0.0001 -0.0007 -0.0004 37.9734 0.0001
# 6 0.0002 0.0000 -0.0005 -0.0005 0.0001 7.3811
#
#
#
# Elastic Compliance Matrix: (Units=1/GPa)
#
#
# Indices 1 2 3 4 5 6 
#
# 1 0.011331 -0.000450 -0.000509 0.000001 0.000000 0.000000
# 2 -0.000450 0.009966 -0.003707 0.000001 0.000000 0.000000
# 3 -0.000509 -0.003707 0.012818 -0.000005 0.000000 0.000001
# 4 0.000001 0.000001 -0.000005 0.137734 0.000001 0.000008
# 5 0.000000 0.000000 0.000000 0.000001 0.026334 0.000000
# 6 0.000000 0.000000 0.000001 0.000008 0.000000 0.135481
#
#
# Mechanical properties :
#
#
# Convention : Reuss Voigt Hill
#
# Bulk Modulus (GPa) = 40.34840 41.93546 41.14193
# Shear Modulus (GPa) = 14.23458 26.87095 20.55276
#
# Velocity S-wave (km/s) = 2.81536 3.86815 3.38296
# Velocity P-wave (km/s) = 5.74766 6.58035 6.17805
#
# Compressibility (1/GPa) = 0.02478413
#
# Stress axis : x y z
#
# Youngs Moduli (GPa) = 88.25383 100.34240 78.01292
#
# Poissons Ratio (x) = 0.04514 0.03971
# Poissons Ratio (y) = 0.03970 0.28917
# Poissons Ratio (z) = 0.04492 0.37194
#
# Static dielectric constant tensor:
#      x y z
#    x 1.649140 0.000000 0.000000 
#    y 0.000000 1.587460 0.000000 
#    z 0.000000 0.000000 1.659620 
# 
# From -- ./inp_files/8489.got.cif
#   From: 2010.05.17/outbox.cif.g08.bks.cpg/sg74_5_cif.got.tgz:8489.got - 2010.06.03 17:57:02.
