data_PCOD9535930
_publ_section_title
;
Structure prediction by ZEFSAII (Michael W. Deem and Ramdas Pophale) SiO2 
 PCOD9535930
Probable space group: I M M A
;
_chemical_formula_sum "Si O2"
_cell_formula_units_Z 64
_cell_length_a 21.337047
_cell_length_b 7.846818
_cell_length_c 18.429332
_cell_angle_alpha 90.000000
_cell_angle_beta 90.000000
_cell_angle_gamma 90.000000
_cell_volume 3085.584806
_symmetry_space_group_name_H-M "I M M A"
_symmetry_group_IT_number 74
_symmetry_cell_setting 'orthorhombic'
loop_
_space_group_symop_operation_xyz
x,y,z
-x,1/2-y,z
x,-y,-z
-x,1/2+y,-z
-x,-y,-z
x,1/2+y,-z
-x,y,z
x,1/2-y,z
1/2+x,1/2+y,1/2+z
1/2-x,-y,1/2+z
1/2+x,1/2-y,1/2-z
1/2-x,y,1/2-z
1/2-x,1/2-y,1/2-z
1/2+x,y,1/2-z
1/2-x,1/2+y,1/2+z
1/2+x,-y,1/2+z
loop_
_atom_site_type_symbol
_atom_site_label
_atom_site_fract_x
_atom_site_fract_y
_atom_site_fract_z
Si Si1 0.000000 0.544938 0.584390
Si Si2 0.124746 0.540797 0.667064
Si Si3 0.373365 0.546432 0.666873
Si Si4 0.250024 0.544578 0.584440
Si Si5 0.000000 0.451485 0.915521
O O1 0.000000 0.500000 0.500000
O O2 0.062788 0.483568 0.624453
O O3 0.000000 0.750000 0.589982
O O4 0.124388 0.750000 0.667024
O O5 0.123878 0.482765 0.750503
O O6 0.187735 0.485192 0.626085
O O7 0.365334 0.750000 0.672136
O O8 0.313264 0.479254 0.622916
O O9 0.437563 0.515554 0.624249
O O10 0.248502 0.500000 0.500000
O O11 0.250433 0.750000 0.589471
O O12 0.000000 0.250000 0.910430
O O13 0.000000 0.500000 0.000000
#
# Coordination Sequence:
#
# PCOD9535930 Si02
#       5
#     8  16  16  16   8
#     4  10  19  32  52  76 106 142 179 220 268 322
#     4   9  18  34  56  81 108 143 184 223 267 321
#     4  10  20  37  60  82 107 142 185 230 273 320
#     4  10  20  34  55  82 111 144 183 226 271 322
#     4  12  25  40  58  82 112 144 181 224 274 330
#
# _framework density 20.741612
#
# number of rings (size 3 to 8) (size 9 to 14) (size 15 to 20)
#    0.000    2.000    0.000    4.125    0.000    8.000 
#    0.000    3.750    0.000    3.000    0.000    0.000 
#    0.000    0.000    0.000    0.000    0.000    0.000 
#
# Total GULP energy -178857.797177 kJ/mol
# GULP energy per Si atom -5589.306162 kJ/mol
# Density = 2.069440 g / cm^3
# Si number density = 20.741612 Si / 1000 Ang^3
#
#
#
# Elastic Constant Matrix: (Units=GPa)
#
#
# Indices 1 2 3 4 5 6 
#
# 1 250.1173 1.3227 155.2919 0.0000 0.0000 0.0000
# 2 1.3227 20.7802 -0.2843 0.0000 0.0000 0.0000
# 3 155.2919 -0.2843 250.0617 0.0000 0.0000 0.0000
# 4 0.0000 0.0000 0.0000 29.7994 0.0000 0.0000
# 5 0.0000 0.0000 0.0000 0.0000 53.8595 0.0000
# 6 0.0000 0.0000 0.0000 0.0000 0.0000 -6.9267
#
#
#
# Elastic Compliance Matrix: (Units=1/GPa)
#
#
# Indices 1 2 3 4 5 6 
#
# 1 0.006512 -0.000470 -0.004044 0.000000 0.000000 0.000000
# 2 -0.000470 0.048157 0.000346 0.000000 0.000000 0.000000
# 3 -0.004044 0.000346 0.006511 0.000000 0.000000 0.000000
# 4 0.000000 0.000000 0.000000 0.033558 0.000000 0.000000
# 5 0.000000 0.000000 0.000000 0.000000 0.018567 0.000000
# 6 0.000000 0.000000 0.000000 0.000000 0.000000 -0.144368
#
#
# Mechanical properties :
#
#
# Convention : Reuss Voigt Hill
#
# Bulk Modulus (GPa) = 18.92340 92.62445 55.77392
# Shear Modulus (GPa) = -977.77389 39.65503 -469.05943
#
# Velocity S-wave (km/s) = -21.73546 4.37722 -15.05440
# Velocity P-wave (km/s) = 24.91513 8.38451 16.59011
#
# Compressibility (1/GPa) = 0.05284462
#
# Stress axis : x y z
#
# Youngs Moduli (GPa) = 153.57064 20.76529 153.58582
#
# Poissons Ratio (x) = 0.00976 0.62116
# Poissons Ratio (y) = 0.07215 -0.05322
# Poissons Ratio (z) = 0.62110 -0.00720
#
# Static dielectric constant tensor:
#      x y z
#    x 1.626070 0.000000 0.000000 
#    y 0.000000 1.764480 0.000000 
#    z 0.000000 0.000000 1.685040 
# 
# From -- ./inp_files/35999.got.cif
#   From: 2010.05.17/outbox.cif.g08.bks.cpg/sg74_18_cif.got.tgz:35999.got - 2010.06.03 17:57:02.
