data_PCOD9535862
_publ_section_title
;
Structure prediction by ZEFSAII (Michael W. Deem and Ramdas Pophale) SiO2 
 PCOD9535862
Probable space group: I M M A
;
_chemical_formula_sum "Si O2"
_cell_formula_units_Z 100
_cell_length_a 7.403407
_cell_length_b 23.823192
_cell_length_c 29.094274
_cell_angle_alpha 90.000000
_cell_angle_beta 90.000000
_cell_angle_gamma 90.000000
_cell_volume 5131.438174
_symmetry_space_group_name_H-M "I M M A"
_symmetry_group_IT_number 74
_symmetry_cell_setting 'orthorhombic'
loop_
_space_group_symop_operation_xyz
x,y,z
-x,1/2-y,z
x,-y,-z
-x,1/2+y,-z
-x,-y,-z
x,1/2+y,-z
-x,y,z
x,1/2-y,z
1/2+x,1/2+y,1/2+z
1/2-x,-y,1/2+z
1/2+x,1/2-y,1/2-z
1/2-x,y,1/2-z
1/2-x,1/2-y,1/2-z
1/2+x,y,1/2-z
1/2-x,1/2+y,1/2+z
1/2+x,-y,1/2+z
loop_
_atom_site_type_symbol
_atom_site_label
_atom_site_fract_x
_atom_site_fract_y
_atom_site_fract_z
Si Si1 0.707668 0.927296 0.338535
Si Si2 0.215341 0.546761 0.803939
Si Si3 0.209388 0.351868 0.129798
Si Si4 0.218293 0.921442 0.540863
Si Si5 0.716024 0.310209 0.695715
Si Si6 0.500000 0.250000 0.133510
Si Si7 0.218329 0.949513 0.441428
O O1 0.500000 0.927042 0.321771
O O2 0.791227 0.868629 0.322915
O O3 0.710528 0.927923 0.393438
O O4 0.787963 0.985853 0.319931
O O5 0.250000 0.555687 0.750000
O O6 0.275840 0.598170 0.836033
O O7 0.000000 0.544922 0.811140
O O8 0.212908 0.378004 0.078369
O O9 0.341686 0.299408 0.133050
O O10 0.000000 0.338202 0.141290
O O11 0.274257 0.916611 0.487506
O O12 0.000000 0.918707 0.542144
O O13 0.271000 0.985032 0.554298
O O14 0.500000 0.310208 0.687498
O O15 0.785141 0.250000 0.677648
O O16 0.750000 0.310504 0.750000
O O17 0.000000 0.948311 0.440093
#
# Coordination Sequence:
#
# PCOD9535862 Si02
#       7
#    16  16  16  16  16   4  16
#     4  10  19  32  50  81 117 151 190 238 294 347
#     4  10  22  36  57  86 117 148 191 248 308 373
#     4  11  23  41  65  92 117 154 207 251 308 379
#     4   9  17  34  57  86 118 152 186 237 300 351
#     4   9  18  32  50  71 102 147 193 234 276 332
#     4  12  26  44  70  84 118 164 196 258 312 370
#     4   9  18  30  54  87 118 150 191 231 288 358
#
# _framework density 19.487714
#
# number of rings (size 3 to 8) (size 9 to 14) (size 15 to 20)
#    0.000    2.240    2.400    1.680    1.120    1.920 
#    0.000    2.000    1.760    0.000    0.000    0.000 
#    0.000    0.000    0.000    0.000    0.000    0.000 
#
# Total GULP energy -278368.959722 kJ/mol
# GULP energy per Si atom -5567.379194 kJ/mol
# Density = 1.944336 g / cm^3
# Si number density = 19.487714 Si / 1000 Ang^3
#
#
#
# Elastic Constant Matrix: (Units=GPa)
#
#
# Indices 1 2 3 4 5 6 
#
# 1 93.2348 44.3516 1.4495 0.0000 0.0000 0.0000
# 2 44.3516 194.4981 71.3696 0.0000 0.0000 0.0000
# 3 1.4495 71.3696 87.2513 0.0000 0.0000 0.0000
# 4 0.0000 0.0000 0.0000 13.2907 0.0000 0.0000
# 5 0.0000 0.0000 0.0000 0.0000 20.4405 0.0000
# 6 0.0000 0.0000 0.0000 0.0000 0.0000 31.1303
#
#
#
# Elastic Compliance Matrix: (Units=1/GPa)
#
#
# Indices 1 2 3 4 5 6 
#
# 1 0.012575 -0.003988 0.003053 0.000000 0.000000 0.000000
# 2 -0.003988 0.008611 -0.006977 0.000000 0.000000 0.000000
# 3 0.003053 -0.006977 0.017118 0.000000 0.000000 0.000000
# 4 0.000000 0.000000 0.000000 0.075241 0.000000 0.000000
# 5 0.000000 0.000000 0.000000 0.000000 0.048923 0.000000
# 6 0.000000 0.000000 0.000000 0.000000 0.000000 0.032123
#
#
# Mechanical properties :
#
#
# Convention : Reuss Voigt Hill
#
# Bulk Modulus (GPa) = 44.48477 67.70285 56.09381
# Shear Modulus (GPa) = 22.94546 30.15985 26.55266
#
# Velocity S-wave (km/s) = 3.43510 3.93827 3.69526
# Velocity P-wave (km/s) = 6.21368 7.44961 6.85954
#
# Compressibility (1/GPa) = 0.02247960
#
# Stress axis : x y z
#
# Youngs Moduli (GPa) = 79.52207 116.12927 58.41869
#
# Poissons Ratio (x) = 0.46310 -0.17835
# Poissons Ratio (y) = 0.31712 0.40761
# Poissons Ratio (z) = -0.24278 0.81028
#
# Static dielectric constant tensor:
#      x y z
#    x 1.549360 0.000000 0.000000 
#    y 0.000000 1.684230 0.000000 
#    z 0.000000 0.000000 1.670030 
# 
# From -- ./inp_files/64427.got.cif
#   From: 2010.05.17/outbox.cif.g08.bks.cpg/sg74_33_cif.got.tgz:64427.got - 2010.06.03 17:57:02.
