data_PCOD9535630
_publ_section_title
;
Structure prediction by ZEFSAII (Michael W. Deem and Ramdas Pophale) SiO2 
 PCOD9535630
Probable space group: I M M A
;
_chemical_formula_sum "Si O2"
_cell_formula_units_Z 64
_cell_length_a 13.746632
_cell_length_b 13.863739
_cell_length_c 18.346587
_cell_angle_alpha 90.000000
_cell_angle_beta 90.000000
_cell_angle_gamma 90.000000
_cell_volume 3496.487380
_symmetry_space_group_name_H-M "I M M A"
_symmetry_group_IT_number 74
_symmetry_cell_setting 'orthorhombic'
loop_
_space_group_symop_operation_xyz
x,y,z
-x,1/2-y,z
x,-y,-z
-x,1/2+y,-z
-x,-y,-z
x,1/2+y,-z
-x,y,z
x,1/2-y,z
1/2+x,1/2+y,1/2+z
1/2-x,-y,1/2+z
1/2+x,1/2-y,1/2-z
1/2-x,y,1/2-z
1/2-x,1/2-y,1/2-z
1/2+x,y,1/2-z
1/2-x,1/2+y,1/2+z
1/2+x,-y,1/2+z
loop_
_atom_site_type_symbol
_atom_site_label
_atom_site_fract_x
_atom_site_fract_y
_atom_site_fract_z
Si Si1 0.382949 0.250000 0.734955
Si Si2 0.115937 0.250000 0.935384
Si Si3 0.882732 0.926027 0.337388
Si Si4 0.726768 0.390323 0.985933
Si Si5 0.882819 0.855910 0.635914
O O1 0.500000 0.250000 0.737392
O O2 0.357453 0.250000 0.650233
O O3 0.353323 0.348391 0.776104
O O4 0.172074 0.162070 0.972276
O O5 0.000000 0.250000 0.943387
O O6 0.838680 0.887417 0.413250
O O7 0.000000 0.924414 0.342161
O O8 0.854808 0.040029 0.328103
O O9 0.749427 0.500000 0.000000
O O10 0.666598 0.356148 0.056233
O O11 0.859075 0.750000 0.670146
O O12 0.000000 0.859030 0.628319
#
# Coordination Sequence:
#
# PCOD9535630 Si02
#       5
#     8   8  16  16  16
#     4   9  19  33  49  72 103 135 170 205 240 291
#     4  11  23  37  50  68  95 134 183 222 245 269
#     4   9  17  29  47  74 106 134 157 190 245 312
#     4  10  19  31  49  74  98 129 163 206 252 300
#     4   9  16  27  47  77 109 133 153 186 244 317
#
# _framework density 18.304085000000001
#
# number of rings (size 3 to 8) (size 9 to 14) (size 15 to 20)
#    0.000    2.500    1.250    1.500    0.000    5.500 
#    0.000    0.000    0.000    0.000    3.250    3.500 
#    0.000    0.000    0.000    0.000    0.000    0.000 
#
# Total GULP energy -178153.421175 kJ/mol
# GULP energy per Si atom -5567.294412 kJ/mol
# Density = 1.826242 g / cm^3
# Si number density = 18.304085 Si / 1000 Ang^3
#
#
#
# Elastic Constant Matrix: (Units=GPa)
#
#
# Indices 1 2 3 4 5 6 
#
# 1 63.3790 23.6230 9.2320 0.0000 0.0000 0.0000
# 2 23.6230 132.2729 15.7959 0.0000 0.0000 0.0000
# 3 9.2320 15.7959 28.3319 0.0000 0.0000 0.0000
# 4 0.0000 0.0000 0.0000 -5.4267 0.0000 0.0000
# 5 0.0000 0.0000 0.0000 0.0000 18.0044 0.0000
# 6 0.0000 0.0000 0.0000 0.0000 0.0000 10.3204
#
#
#
# Elastic Compliance Matrix: (Units=1/GPa)
#
#
# Indices 1 2 3 4 5 6 
#
# 1 0.017359 -0.002598 -0.004208 0.000000 0.000000 0.000000
# 2 -0.002598 0.008488 -0.003886 0.000000 0.000000 0.000000
# 3 -0.004208 -0.003886 0.038834 0.000000 0.000000 0.000000
# 4 0.000000 0.000000 0.000000 -0.184274 0.000000 0.000000
# 5 0.000000 0.000000 0.000000 0.000000 0.055542 0.000000
# 6 0.000000 0.000000 0.000000 0.000000 0.000000 0.096895
#
#
# Mechanical properties :
#
#
# Convention : Reuss Voigt Hill
#
# Bulk Modulus (GPa) = 23.09606 35.69838 29.39722
# Shear Modulus (GPa) = 72.82184 16.26850 44.54517
#
# Velocity S-wave (km/s) = 6.31434 2.98449 4.93852
# Velocity P-wave (km/s) = 8.11212 5.60549 6.97238
#
# Compressibility (1/GPa) = 0.04329742
#
# Stress axis : x y z
#
# Youngs Moduli (GPa) = 57.60598 117.81187 25.75081
#
# Poissons Ratio (x) = 0.30604 0.10837
# Poissons Ratio (y) = 0.14964 0.10007
# Poissons Ratio (z) = 0.24242 0.45781
#
# Static dielectric constant tensor:
#      x y z
#    x 1.596410 0.000000 0.000000 
#    y 0.000000 1.711080 0.000000 
#    z 0.000000 0.000000 1.602740 
# 
# From -- ./inp_files/42444.got.cif
#   From: 2010.05.17/outbox.cif.g08.bks.cpg/sg74_22_cif.got.tgz:42444.got - 2010.06.03 17:57:02.
