data_PCOD9535918
_publ_section_title
;
Structure prediction by ZEFSAII (Michael W. Deem and Ramdas Pophale) SiO2 
 PCOD9535918
Probable space group: I M M A
;
_chemical_formula_sum "Si O2"
_cell_formula_units_Z 112
_cell_length_a 19.170631
_cell_length_b 23.395956
_cell_length_c 15.409383
_cell_angle_alpha 90.000000
_cell_angle_beta 90.000000
_cell_angle_gamma 90.000000
_cell_volume 6911.343105
_symmetry_space_group_name_H-M "I M M A"
_symmetry_group_IT_number 74
_symmetry_cell_setting 'orthorhombic'
loop_
_space_group_symop_operation_xyz
x,y,z
-x,1/2-y,z
x,-y,-z
-x,1/2+y,-z
-x,-y,-z
x,1/2+y,-z
-x,y,z
x,1/2-y,z
1/2+x,1/2+y,1/2+z
1/2-x,-y,1/2+z
1/2+x,1/2-y,1/2-z
1/2-x,y,1/2-z
1/2-x,1/2-y,1/2-z
1/2+x,y,1/2-z
1/2-x,1/2+y,1/2+z
1/2+x,-y,1/2+z
loop_
_atom_site_type_symbol
_atom_site_label
_atom_site_fract_x
_atom_site_fract_y
_atom_site_fract_z
Si Si1 0.313853 0.319227 0.511060
Si Si2 0.653329 0.682870 0.990580
Si Si3 0.584567 0.506915 0.900157
Si Si4 0.915911 0.870047 0.672213
Si Si5 0.326736 0.181566 0.709700
Si Si6 0.583478 0.617898 0.150658
Si Si7 0.417701 0.181404 0.358509
O O1 0.316078 0.250000 0.511794
O O2 0.234369 0.334993 0.488900
O O3 0.329401 0.337336 0.609580
O O4 0.369370 0.337362 0.438631
O O5 0.650233 0.750000 0.013513
O O6 0.618599 0.671554 0.897964
O O7 0.612827 0.647000 0.063293
O O8 0.500000 0.508967 0.903262
O O9 0.606508 0.565777 0.854778
O O10 0.603578 0.448914 0.850775
O O11 0.608536 0.500000 0.000000
O O12 0.898744 0.851138 0.769817
O O13 0.000000 0.866481 0.663905
O O14 0.337888 0.250000 0.713429
O O15 0.250000 0.170927 0.750000
O O16 0.382737 0.150038 0.768641
O O17 0.500000 0.622264 0.150690
O O18 0.500000 0.171964 0.376453
O O19 0.408692 0.250000 0.345409
#
# Coordination Sequence:
#
# PCOD9535918 Si02
#       7
#    16  16  16  16  16  16  16
#     4   9  19  34  52  72 102 143 173 200 252 319
#     4  11  20  30  49  77 108 137 162 205 265 315
#     4   9  17  32  51  72 100 138 175 205 254 310
#     4  10  19  32  52  75 104 138 171 213 258 304
#     4  10  19  34  53  74 103 138 169 203 259 315
#     4  11  21  32  52  79 104 131 171 218 253 302
#     4   9  18  33  53  77 103 135 177 218 254 301
#
# _framework density 16.205245000000001
#
# number of rings (size 3 to 8) (size 9 to 14) (size 15 to 20)
#    0.000    2.143    2.857    1.286    0.000    3.714 
#    0.000    3.571    3.143    0.857    0.000    4.000 
#    0.000    0.000    0.000    0.000    0.000    0.000 
#
# Total GULP energy -312234.126730 kJ/mol
# GULP energy per Si atom -5575.609406 kJ/mol
# Density = 1.616836 g / cm^3
# Si number density = 16.205245 Si / 1000 Ang^3
#
#
#
# Elastic Constant Matrix: (Units=GPa)
#
#
# Indices 1 2 3 4 5 6 
#
# 1 65.3755 27.6684 57.0810 0.0000 0.0000 0.0000
# 2 27.6684 54.7069 28.2379 0.0000 0.0000 0.0000
# 3 57.0810 28.2379 138.1782 0.0000 0.0000 0.0000
# 4 0.0000 0.0000 0.0000 12.4971 0.0000 0.0000
# 5 0.0000 0.0000 0.0000 0.0000 29.4409 0.0000
# 6 0.0000 0.0000 0.0000 0.0000 0.0000 3.5496
#
#
#
# Elastic Compliance Matrix: (Units=1/GPa)
#
#
# Indices 1 2 3 4 5 6 
#
# 1 0.027351 -0.008944 -0.009471 0.000000 0.000000 0.000000
# 2 -0.008944 0.023360 -0.001079 0.000000 0.000000 0.000000
# 3 -0.009471 -0.001079 0.011370 0.000000 0.000000 0.000000
# 4 0.000000 0.000000 0.000000 0.080018 0.000000 0.000000
# 5 0.000000 0.000000 0.000000 0.000000 0.033966 0.000000
# 6 0.000000 0.000000 0.000000 0.000000 0.000000 0.281724
#
#
# Mechanical properties :
#
#
# Convention : Reuss Voigt Hill
#
# Bulk Modulus (GPa) = 43.30405 53.80391 48.55398
# Shear Modulus (GPa) = 9.91130 18.78240 14.34685
#
# Velocity S-wave (km/s) = 2.47576 3.40815 2.97866
# Velocity P-wave (km/s) = 5.91209 6.98290 6.46969
#
# Compressibility (1/GPa) = 0.02309253
#
# Stress axis : x y z
#
# Youngs Moduli (GPa) = 36.56200 42.80861 87.95220
#
# Poissons Ratio (x) = 0.38290 0.83297
# Poissons Ratio (y) = 0.32702 0.09489
# Poissons Ratio (z) = 0.34627 0.04619
#
# Static dielectric constant tensor:
#      x y z
#    x 1.531680 0.000000 0.000000 
#    y 0.000000 1.541050 0.000000 
#    z 0.000000 0.000000 1.536700 
# 
# From -- ./inp_files/24174.got.cif
#   From: 2010.05.17/outbox.cif.g08.bks.cpg/sg74_13_cif.got.tgz:24174.got - 2010.06.03 17:57:02.
