data_PCOD9535370
_publ_section_title
;
Structure prediction by ZEFSAII (Michael W. Deem and Ramdas Pophale) SiO2 
 PCOD9535370
Probable space group: I M M A
;
_chemical_formula_sum "Si O2"
_cell_formula_units_Z 96
_cell_length_a 8.804215
_cell_length_b 22.513599
_cell_length_c 28.203239
_cell_angle_alpha 90.000000
_cell_angle_beta 90.000000
_cell_angle_gamma 90.000000
_cell_volume 5590.292779
_symmetry_space_group_name_H-M "I M M A"
_symmetry_group_IT_number 74
_symmetry_cell_setting 'orthorhombic'
loop_
_space_group_symop_operation_xyz
x,y,z
-x,1/2-y,z
x,-y,-z
-x,1/2+y,-z
-x,-y,-z
x,1/2+y,-z
-x,y,z
x,1/2-y,z
1/2+x,1/2+y,1/2+z
1/2-x,-y,1/2+z
1/2+x,1/2-y,1/2-z
1/2-x,y,1/2-z
1/2-x,1/2-y,1/2-z
1/2+x,y,1/2-z
1/2-x,1/2+y,1/2+z
1/2+x,-y,1/2+z
loop_
_atom_site_type_symbol
_atom_site_label
_atom_site_fract_x
_atom_site_fract_y
_atom_site_fract_z
Si Si1 0.678490 0.561736 0.108936
Si Si2 0.681745 0.501006 0.300982
Si Si3 0.183636 0.120484 0.149308
Si Si4 0.678890 0.436290 0.056883
Si Si5 0.315489 0.250000 0.363343
Si Si6 0.681165 0.629842 0.472492
Si Si7 0.684895 0.250000 0.474034
O O1 0.500000 0.570357 0.116896
O O2 0.759169 0.544983 0.158093
O O3 0.697831 0.502727 0.076474
O O4 0.747394 0.615145 0.078357
O O5 0.500000 0.502837 0.299487
O O6 0.750000 0.515068 0.250000
O O7 0.728557 0.433515 0.316195
O O8 0.254733 0.104965 0.098454
O O9 0.230712 0.187945 0.160807
O O10 0.000000 0.118747 0.145155
O O11 0.500000 0.425893 0.049405
O O12 0.767448 0.420772 0.009416
O O13 0.500000 0.250000 0.363901
O O14 0.266131 0.250000 0.418862
O O15 0.500000 0.630471 0.468392
O O16 0.731929 0.691321 0.497225
O O17 0.500000 0.250000 0.472610
#
# Coordination Sequence:
#
# PCOD9535370 Si02
#       7
#    16  16  16  16   8  16   8
#     4  10  21  35  50  72 101 130 162 207 256 300
#     4  10  20  35  55  77  98 126 163 208 260 310
#     4   9  17  30  50  71  94 130 175 211 247 295
#     4  10  19  30  45  68 101 134 164 204 253 294
#     4   9  14  28  49  69  95 132 177 216 244 281
#     4  11  20  32  49  71 100 135 173 205 240 293
#     4   9  18  30  48  71 100 138 174 209 241 278
#
# _framework density 17.172625
#
# number of rings (size 3 to 8) (size 9 to 14) (size 15 to 20)
#    0.000    2.167    1.667    2.500    0.000    4.667 
#    0.000    3.333    0.000    0.000    0.000    0.583 
#    0.000    0.000    0.000    0.000    0.000    0.000 
#
# Total GULP energy -267707.720545 kJ/mol
# GULP energy per Si atom -5577.244178 kJ/mol
# Density = 1.713354 g / cm^3
# Si number density = 17.172625 Si / 1000 Ang^3
#
#
#
# Elastic Constant Matrix: (Units=GPa)
#
#
# Indices 1 2 3 4 5 6 
#
# 1 34.4444 12.0927 34.0246 0.0000 0.0000 0.0000
# 2 12.0927 18.8909 15.3771 0.0000 0.0000 0.0000
# 3 34.0246 15.3771 95.5546 0.0000 0.0000 0.0000
# 4 0.0000 0.0000 0.0000 13.0872 0.0000 0.0000
# 5 0.0000 0.0000 0.0000 0.0000 27.0717 0.0000
# 6 0.0000 0.0000 0.0000 0.0000 0.0000 7.2678
#
#
#
# Elastic Compliance Matrix: (Units=1/GPa)
#
#
# Indices 1 2 3 4 5 6 
#
# 1 0.050860 -0.020501 -0.014811 0.000000 0.000000 0.000000
# 2 -0.020501 0.069179 -0.003833 0.000000 0.000000 0.000000
# 3 -0.014811 -0.003833 0.016356 0.000000 0.000000 0.000000
# 4 0.000000 0.000000 0.000000 0.076410 0.000000 0.000000
# 5 0.000000 0.000000 0.000000 0.000000 0.036939 0.000000
# 6 0.000000 0.000000 0.000000 0.000000 0.000000 0.137594
#
#
# Mechanical properties :
#
#
# Convention : Reuss Voigt Hill
#
# Bulk Modulus (GPa) = 17.21017 30.20875 23.70946
# Shear Modulus (GPa) = 10.30937 15.31170 12.81054
#
# Velocity S-wave (km/s) = 2.45284 2.98926 2.73424
# Velocity P-wave (km/s) = 4.25035 5.43541 4.87899
#
# Compressibility (1/GPa) = 0.05810516
#
# Stress axis : x y z
#
# Youngs Moduli (GPa) = 19.66174 14.45531 61.14056
#
# Poissons Ratio (x) = 0.29635 0.90554
# Poissons Ratio (y) = 0.40309 0.23433
# Poissons Ratio (z) = 0.29121 0.05540
#
# Static dielectric constant tensor:
#      x y z
#    x 1.571460 0.000000 0.000000 
#    y 0.000000 1.615770 0.000000 
#    z 0.000000 0.000000 1.565650 
# 
# From -- ./inp_files/64715.got.cif
#   From: 2010.05.17/outbox.cif.g08.bks.cpg/sg74_33_cif.got.tgz:64715.got - 2010.06.03 17:57:02.
