data_PCOD9535654
_publ_section_title
;
Structure prediction by ZEFSAII (Michael W. Deem and Ramdas Pophale) SiO2 
 PCOD9535654
Probable space group: I M M A
;
_chemical_formula_sum "Si O2"
_cell_formula_units_Z 104
_cell_length_a 7.912154
_cell_length_b 22.139590
_cell_length_c 34.382657
_cell_angle_alpha 90.000000
_cell_angle_beta 90.000000
_cell_angle_gamma 90.000000
_cell_volume 6022.873483
_symmetry_space_group_name_H-M "I M M A"
_symmetry_group_IT_number 74
_symmetry_cell_setting 'orthorhombic'
loop_
_space_group_symop_operation_xyz
x,y,z
-x,1/2-y,z
x,-y,-z
-x,1/2+y,-z
-x,-y,-z
x,1/2+y,-z
-x,y,z
x,1/2-y,z
1/2+x,1/2+y,1/2+z
1/2-x,-y,1/2+z
1/2+x,1/2-y,1/2-z
1/2-x,y,1/2-z
1/2-x,1/2-y,1/2-z
1/2+x,y,1/2-z
1/2-x,1/2+y,1/2+z
1/2+x,-y,1/2+z
loop_
_atom_site_type_symbol
_atom_site_label
_atom_site_fract_x
_atom_site_fract_y
_atom_site_fract_z
Si Si1 0.800838 0.861697 0.847365
Si Si2 0.000000 0.823458 0.073338
Si Si3 0.000000 0.823401 0.984415
Si Si4 0.197891 0.822622 0.370005
Si Si5 0.703256 0.750000 0.704954
Si Si6 0.702384 0.468889 0.206650
Si Si7 0.690089 0.822083 0.929923
Si Si8 0.797531 0.892904 0.292819
O O1 0.737146 0.809306 0.818159
O O2 0.774823 0.924887 0.825834
O O3 0.712610 0.855153 0.888842
O O4 0.000000 0.851384 0.854202
O O5 0.169298 0.841239 0.096757
O O6 0.000000 0.750000 0.072508
O O7 0.000000 0.844885 0.028848
O O8 0.166542 0.841165 0.960335
O O9 0.000000 0.750000 0.985699
O O10 0.204394 0.750000 0.366457
O O11 0.253678 0.852470 0.329298
O O12 0.000000 0.838654 0.377804
O O13 0.500000 0.750000 0.703422
O O14 0.750000 0.750000 0.750000
O O15 0.500000 0.468743 0.203371
O O16 0.750000 0.447132 0.250000
O O17 0.765837 0.538006 0.203371
O O18 0.500000 0.830656 0.944919
O O19 0.713461 0.750000 0.922362
O O20 0.750000 0.869861 0.250000
O O21 0.000000 0.895514 0.293807
#
# Coordination Sequence:
#
# PCOD9535654 Si02
#       8
#    16   8   8  16   8  16  16  16
#     4  11  20  33  49  67  96 132 169 217 267 306
#     4   9  18  32  52  79 107 145 171 205 257 309
#     4   9  18  32  50  73 109 133 169 214 256 316
#     4   9  18  33  52  78 111 140 172 207 249 303
#     4  10  22  32  44  62  92 130 168 214 262 312
#     4  10  20  34  48  68  97 131 177 221 259 301
#     4  10  19  31  50  74  99 133 169 210 266 317
#     4   9  19  33  50  73 103 138 175 218 254 292
#
# _framework density 17.267506000000001
#
# number of rings (size 3 to 8) (size 9 to 14) (size 15 to 20)
#    0.000    2.308    1.538    1.385    1.077    4.000 
#    0.000    3.077    0.000    0.000    0.000    2.154 
#    0.000    4.923    0.000    0.000    0.000    0.000 
#
# Total GULP energy -290008.071505 kJ/mol
# GULP energy per Si atom -5577.078298 kJ/mol
# Density = 1.722820 g / cm^3
# Si number density = 17.267506 Si / 1000 Ang^3
#
#
#
# Elastic Constant Matrix: (Units=GPa)
#
#
# Indices 1 2 3 4 5 6 
#
# 1 82.0661 19.3140 60.0998 0.0000 0.0000 0.0000
# 2 19.3140 22.6565 34.3555 0.0000 0.0000 0.0000
# 3 60.0998 34.3555 156.9360 0.0000 0.0000 0.0000
# 4 0.0000 0.0000 0.0000 11.8598 0.0000 0.0000
# 5 0.0000 0.0000 0.0000 0.0000 24.2396 0.0000
# 6 0.0000 0.0000 0.0000 0.0000 0.0000 13.9988
#
#
#
# Elastic Compliance Matrix: (Units=1/GPa)
#
#
# Indices 1 2 3 4 5 6 
#
# 1 0.017685 -0.007194 -0.005198 0.000000 0.000000 0.000000
# 2 -0.007194 0.068996 -0.012349 0.000000 0.000000 0.000000
# 3 -0.005198 -0.012349 0.011066 0.000000 0.000000 0.000000
# 4 0.000000 0.000000 0.000000 0.084318 0.000000 0.000000
# 5 0.000000 0.000000 0.000000 0.000000 0.041255 0.000000
# 6 0.000000 0.000000 0.000000 0.000000 0.000000 0.071435
#
#
# Mechanical properties :
#
#
# Convention : Reuss Voigt Hill
#
# Bulk Modulus (GPa) = 20.71902 54.35525 37.53714
# Shear Modulus (GPa) = 13.87636 19.87894 16.87765
#
# Velocity S-wave (km/s) = 2.83788 3.39667 3.12977
# Velocity P-wave (km/s) = 4.77106 6.85053 5.90308
#
# Compressibility (1/GPa) = 0.04826483
#
# Stress axis : x y z
#
# Youngs Moduli (GPa) = 56.54557 14.49351 90.36791
#
# Poissons Ratio (x) = 0.10427 0.46969
# Poissons Ratio (y) = 0.40681 1.11597
# Poissons Ratio (z) = 0.29390 0.17898
#
# Static dielectric constant tensor:
#      x y z
#    x 1.622280 0.000000 0.000000 
#    y 0.000000 1.583300 0.000000 
#    z 0.000000 0.000000 1.562380 
# 
# From -- ./inp_files/70849.got.cif
#   From: 2010.05.17/outbox.cif.g08.bks.cpg/sg74_36_cif.got.tgz:70849.got - 2010.06.03 17:57:02.
