data_PCOD9535202
_publ_section_title
;
Structure prediction by ZEFSAII (Michael W. Deem and Ramdas Pophale) SiO2 
 PCOD9535202
Probable space group: I M M A
;
_chemical_formula_sum "Si O2"
_cell_formula_units_Z 104
_cell_length_a 25.904660
_cell_length_b 7.517092
_cell_length_c 34.320162
_cell_angle_alpha 90.000000
_cell_angle_beta 90.000000
_cell_angle_gamma 90.000000
_cell_volume 6683.086637
_symmetry_space_group_name_H-M "I M M A"
_symmetry_group_IT_number 74
_symmetry_cell_setting 'orthorhombic'
loop_
_space_group_symop_operation_xyz
x,y,z
-x,1/2-y,z
x,-y,-z
-x,1/2+y,-z
-x,-y,-z
x,1/2+y,-z
-x,y,z
x,1/2-y,z
1/2+x,1/2+y,1/2+z
1/2-x,-y,1/2+z
1/2+x,1/2-y,1/2-z
1/2-x,y,1/2-z
1/2-x,1/2-y,1/2-z
1/2+x,y,1/2-z
1/2-x,1/2+y,1/2+z
1/2+x,-y,1/2+z
loop_
_atom_site_type_symbol
_atom_site_label
_atom_site_fract_x
_atom_site_fract_y
_atom_site_fract_z
Si Si1 0.331542 0.531945 0.266820
Si Si2 0.500000 0.037516 0.046325
Si Si3 0.340103 0.036222 0.121718
Si Si4 0.556492 0.035316 0.164361
Si Si5 0.886454 0.036607 0.454549
Si Si6 0.943966 0.461199 0.756529
Si Si7 0.769401 0.460986 0.691242
O O1 0.333568 0.750000 0.266675
O O2 0.389893 0.468327 0.273069
O O3 0.287774 0.474230 0.297529
O O4 0.309603 0.474011 0.224409
O O5 0.500000 0.250000 0.053963
O O6 0.556410 0.969494 0.058379
O O7 0.500000 0.000000 0.000000
O O8 0.342187 0.250000 0.121567
O O9 0.392313 0.969978 0.143005
O O10 0.344657 0.974719 0.077008
O O11 0.291534 0.991735 0.148508
O O12 0.500000 0.975255 0.149371
O O13 0.556684 0.250000 0.161401
O O14 0.559303 0.986152 0.209820
O O15 0.889272 0.250000 0.452004
O O16 0.877128 0.000000 0.500000
O O17 0.945125 0.250000 0.764199
O O18 0.000000 0.534896 0.768876
O O19 0.767418 0.250000 0.696918
#
# Coordination Sequence:
#
# PCOD9535202 Si02
#       7
#    16   8  16  16  16  16  16
#     4   8  14  25  39  54  73  96 122 149 181 215
#     4   8  14  26  42  54  66  88 116 144 182 228
#     4  10  19  28  39  56  74  90 118 156 189 220
#     4   9  17  26  35  49  71  96 118 144 185 229
#     4   9  18  30  42  54  70  91 116 149 186 225
#     4   9  15  24  39  55  71  92 121 155 184 211
#     4   9  16  27  41  53  70  98 124 148 179 219
#
# _framework density 15.561672
#
# number of rings (size 3 to 8) (size 9 to 14) (size 15 to 20)
#    0.000    3.077    1.538    0.923    1.077    0.615 
#    0.000    2.308    0.000    0.000    0.000    0.000 
#    0.000    0.000    0.000    0.000    0.000    0.769 
#
# Total GULP energy -289562.480670 kJ/mol
# GULP energy per Si atom -5568.509244 kJ/mol
# Density = 1.552625 g / cm^3
# Si number density = 15.561672 Si / 1000 Ang^3
#
#
#
# Elastic Constant Matrix: (Units=GPa)
#
#
# Indices 1 2 3 4 5 6 
#
# 1 134.9185 6.4062 57.0096 0.0000 0.0000 0.0000
# 2 6.4062 39.2093 -2.2136 0.0000 0.0000 0.0000
# 3 57.0096 -2.2136 75.3021 0.0000 0.0000 0.0000
# 4 0.0000 0.0000 0.0000 9.4520 0.0000 0.0000
# 5 0.0000 0.0000 0.0000 0.0000 25.6469 0.0000
# 6 0.0000 0.0000 0.0000 0.0000 0.0000 4.9670
#
#
#
# Elastic Compliance Matrix: (Units=1/GPa)
#
#
# Indices 1 2 3 4 5 6 
#
# 1 0.011100 -0.002292 -0.008471 0.000000 0.000000 0.000000
# 2 -0.002292 0.026020 0.002500 0.000000 0.000000 0.000000
# 3 -0.008471 0.002500 0.019767 0.000000 0.000000 0.000000
# 4 0.000000 0.000000 0.000000 0.105798 0.000000 0.000000
# 5 0.000000 0.000000 0.000000 0.000000 0.038991 0.000000
# 6 0.000000 0.000000 0.000000 0.000000 0.000000 0.201330
#
#
# Mechanical properties :
#
#
# Convention : Reuss Voigt Hill
#
# Bulk Modulus (GPa) = 24.77660 41.31492 33.04576
# Shear Modulus (GPa) = 11.54776 20.56169 16.05472
#
# Velocity S-wave (km/s) = 2.72704 3.63892 3.21547
# Velocity P-wave (km/s) = 5.08643 6.65300 5.92175
#
# Compressibility (1/GPa) = 0.04036066
#
# Stress axis : x y z
#
# Youngs Moduli (GPa) = 90.08908 38.43236 50.59044
#
# Poissons Ratio (x) = 0.08808 0.42855
# Poissons Ratio (y) = 0.20647 -0.12647
# Poissons Ratio (z) = 0.76315 -0.09608
#
# Static dielectric constant tensor:
#      x y z
#    x 1.560000 0.000000 0.000000 
#    y 0.000000 1.954250 0.000000 
#    z 0.000000 0.000000 1.523990 
# 
# From -- ./inp_files/71008.got.cif
#   From: 2010.05.17/outbox.cif.g08.bks.cpg/sg74_36_cif.got.tgz:71008.got - 2010.06.03 17:57:02.
