data_PCOD9535350
_publ_section_title
;
Structure prediction by ZEFSAII (Michael W. Deem and Ramdas Pophale) SiO2 
 PCOD9535350
Probable space group: I M M A
;
_chemical_formula_sum "Si O2"
_cell_formula_units_Z 80
_cell_length_a 8.874404
_cell_length_b 24.012206
_cell_length_c 26.712171
_cell_angle_alpha 90.000000
_cell_angle_beta 90.000000
_cell_angle_gamma 90.000000
_cell_volume 5692.203821
_symmetry_space_group_name_H-M "I M M A"
_symmetry_group_IT_number 74
_symmetry_cell_setting 'orthorhombic'
loop_
_space_group_symop_operation_xyz
x,y,z
-x,1/2-y,z
x,-y,-z
-x,1/2+y,-z
-x,-y,-z
x,1/2+y,-z
-x,y,z
x,1/2-y,z
1/2+x,1/2+y,1/2+z
1/2-x,-y,1/2+z
1/2+x,1/2-y,1/2-z
1/2-x,y,1/2-z
1/2-x,1/2-y,1/2-z
1/2+x,y,1/2-z
1/2-x,1/2+y,1/2+z
1/2+x,-y,1/2+z
loop_
_atom_site_type_symbol
_atom_site_label
_atom_site_fract_x
_atom_site_fract_y
_atom_site_fract_z
Si Si1 0.179616 0.562982 0.106679
Si Si2 0.681143 0.750000 0.031922
Si Si3 0.818682 0.867680 0.304405
Si Si4 0.179647 0.633904 0.005876
Si Si5 0.673998 0.963863 0.948611
Si Si6 0.182618 0.750000 0.351554
O O1 0.259691 0.588374 0.154976
O O2 0.212392 0.603681 0.059284
O O3 0.241307 0.502362 0.091410
O O4 0.000000 0.561442 0.113310
O O5 0.500000 0.750000 0.030604
O O6 0.744621 0.805879 0.007197
O O7 0.730629 0.750000 0.090474
O O8 0.750000 0.877874 0.250000
O O9 0.769188 0.806282 0.323783
O O10 0.000000 0.868799 0.302463
O O11 0.000000 0.638233 0.001157
O O12 0.245389 0.593533 0.963179
O O13 0.500000 0.955158 0.934817
O O14 0.676644 0.000000 0.000000
O O15 0.000000 0.750000 0.351781
#
# Coordination Sequence:
#
# PCOD9535350 Si02
#       6
#    16   8  16  16  16   8
#     4  10  19  31  46  64  85 111 143 184 227 268
#     4  11  19  30  46  64  87 118 153 187 223 266
#     4  11  21  34  47  63  84 113 151 193 234 273
#     4  10  19  30  44  65  89 113 144 182 222 265
#     4   9  17  29  46  65  84 110 141 176 218 267
#     4   9  19  32  46  60  81 113 151 192 232 268
#
# _framework density 14.054309999999999
#
# number of rings (size 3 to 8) (size 9 to 14) (size 15 to 20)
#    0.000    2.000    2.000    3.000    0.000    4.000 
#    0.000    1.500    0.000    0.000    0.000    0.000 
#    0.000    0.000    0.000    0.900    0.000   12.600 
#
# Total GULP energy -223174.356699 kJ/mol
# GULP energy per Si atom -5579.358917 kJ/mol
# Density = 1.402232 g / cm^3
# Si number density = 14.054310 Si / 1000 Ang^3
#
#
#
# Elastic Constant Matrix: (Units=GPa)
#
#
# Indices 1 2 3 4 5 6 
#
# 1 69.8301 62.5200 38.8643 0.0000 0.0000 0.0000
# 2 62.5200 122.2621 64.1323 0.0000 0.0000 0.0000
# 3 38.8643 64.1323 72.1266 0.0000 0.0000 0.0000
# 4 0.0000 0.0000 0.0000 12.6465 0.0000 0.0000
# 5 0.0000 0.0000 0.0000 0.0000 20.1047 0.0000
# 6 0.0000 0.0000 0.0000 0.0000 0.0000 25.0852
#
#
#
# Elastic Compliance Matrix: (Units=1/GPa)
#
#
# Indices 1 2 3 4 5 6 
#
# 1 0.027098 -0.011615 -0.004274 0.000000 0.000000 0.000000
# 2 -0.011615 0.020307 -0.011798 0.000000 0.000000 0.000000
# 3 -0.004274 -0.011798 0.026657 0.000000 0.000000 0.000000
# 4 0.000000 0.000000 0.000000 0.079073 0.000000 0.000000
# 5 0.000000 0.000000 0.000000 0.000000 0.049740 0.000000
# 6 0.000000 0.000000 0.000000 0.000000 0.000000 0.039864
#
#
# Mechanical properties :
#
#
# Convention : Reuss Voigt Hill
#
# Bulk Modulus (GPa) = 53.50545 66.13910 59.82227
# Shear Modulus (GPa) = 16.42883 18.14743 17.28813
#
# Velocity S-wave (km/s) = 3.42271 3.59728 3.51108
# Velocity P-wave (km/s) = 7.33301 8.02594 7.68728
#
# Compressibility (1/GPa) = 0.01868969
#
# Stress axis : x y z
#
# Youngs Moduli (GPa) = 36.90262 49.24361 37.51305
#
# Poissons Ratio (x) = 0.57198 0.16032
# Poissons Ratio (y) = 0.42863 0.44257
# Poissons Ratio (z) = 0.15771 0.58096
#
# Static dielectric constant tensor:
#      x y z
#    x 1.464200 0.000000 0.000000 
#    y 0.000000 1.452020 0.000000 
#    z 0.000000 0.000000 1.435350 
# 
# From -- ./inp_files/48624.got.cif
#   From: 2010.05.17/outbox.cif.g08.bks.cpg/sg74_25_cif.got.tgz:48624.got - 2010.06.03 17:57:02.
