data_PCOD9535685
_publ_section_title
;
Structure prediction by ZEFSAII (Michael W. Deem and Ramdas Pophale) SiO2 
 PCOD9535685
Probable space group: I M M A
;
_chemical_formula_sum "Si O2"
_cell_formula_units_Z 96
_cell_length_a 8.396081
_cell_length_b 27.388876
_cell_length_c 21.237524
_cell_angle_alpha 90.000000
_cell_angle_beta 90.000000
_cell_angle_gamma 90.000000
_cell_volume 4883.764483
_symmetry_space_group_name_H-M "I M M A"
_symmetry_group_IT_number 74
_symmetry_cell_setting 'orthorhombic'
loop_
_space_group_symop_operation_xyz
x,y,z
-x,1/2-y,z
x,-y,-z
-x,1/2+y,-z
-x,-y,-z
x,1/2+y,-z
-x,y,z
x,1/2-y,z
1/2+x,1/2+y,1/2+z
1/2-x,-y,1/2+z
1/2+x,1/2-y,1/2-z
1/2-x,y,1/2-z
1/2-x,1/2-y,1/2-z
1/2+x,y,1/2-z
1/2-x,1/2+y,1/2+z
1/2+x,-y,1/2+z
loop_
_atom_site_type_symbol
_atom_site_label
_atom_site_fract_x
_atom_site_fract_y
_atom_site_fract_z
Si Si1 0.314297 0.856539 0.316011
Si Si2 0.305755 0.693168 0.445760
Si Si3 0.319083 0.132068 0.438555
Si Si4 0.819094 0.040150 0.664635
Si Si5 0.673761 0.944257 0.017534
Si Si6 0.691956 0.429337 0.319140
O O1 0.500000 0.846317 0.317523
O O2 0.250000 0.835440 0.250000
O O3 0.248456 0.835336 0.382655
O O4 0.286032 0.914820 0.312052
O O5 0.500000 0.688043 0.447811
O O6 0.267688 0.750000 0.439338
O O7 0.247033 0.672511 0.513682
O O8 0.500000 0.147153 0.423788
O O9 0.312027 0.086182 0.486074
O O10 0.251709 0.108393 0.373931
O O11 0.827036 0.054104 0.591677
O O12 0.000000 0.041321 0.690504
O O13 0.754057 0.985086 0.671250
O O14 0.500000 0.925748 0.994629
O O15 0.688210 0.000000 0.000000
O O16 0.500000 0.430922 0.321703
O O17 0.750000 0.413903 0.250000
#
# Coordination Sequence:
#
# PCOD9535685 Si02
#       6
#    16  16  16  16  16  16
#     4  11  22  36  55  79 111 148 184 224 267 313
#     4   9  19  37  60  83 105 133 176 229 279 324
#     4  10  20  35  57  81 104 137 182 226 268 319
#     4  11  21  34  53  78 112 150 186 219 257 310
#     4  10  19  31  50  78 109 142 176 215 265 315
#     4  11  23  36  53  79 112 147 183 222 265 319
#
# _framework density 19.656969
#
# number of rings (size 3 to 8) (size 9 to 14) (size 15 to 20)
#    0.000    1.667    3.333    2.000    0.000    2.000 
#    0.000    0.000    0.000    4.500    0.000    0.000 
#    0.000    0.000    0.000    0.000    0.000    0.167 
#
# Total GULP energy -267245.895755 kJ/mol
# GULP energy per Si atom -5567.622828 kJ/mol
# Density = 1.961223 g / cm^3
# Si number density = 19.656969 Si / 1000 Ang^3
#
#
#
# Elastic Constant Matrix: (Units=GPa)
#
#
# Indices 1 2 3 4 5 6 
#
# 1 30.8709 5.3807 7.6757 0.0000 0.0000 0.0000
# 2 5.3807 87.7325 61.7520 -0.0001 0.0000 0.0000
# 3 7.6757 61.7520 143.2604 -0.0002 0.0000 0.0000
# 4 0.0000 -0.0001 -0.0002 7.7111 0.0000 0.0000
# 5 0.0000 0.0000 0.0000 0.0000 78.8477 0.0000
# 6 0.0000 0.0000 0.0000 0.0000 0.0000 8.3123
#
#
#
# Elastic Compliance Matrix: (Units=1/GPa)
#
#
# Indices 1 2 3 4 5 6 
#
# 1 0.032906 -0.001116 -0.001282 0.000000 0.000000 0.000000
# 2 -0.001116 0.016401 -0.007010 0.000000 0.000000 0.000000
# 3 -0.001282 -0.007010 0.010070 0.000000 0.000000 0.000000
# 4 0.000000 0.000000 0.000000 0.129683 0.000000 0.000000
# 5 0.000000 0.000000 0.000000 0.000000 0.012683 0.000000
# 6 0.000000 0.000000 0.000000 0.000000 0.000000 0.120304
#
#
# Mechanical properties :
#
#
# Convention : Reuss Voigt Hill
#
# Bulk Modulus (GPa) = 24.65347 45.72007 35.18677
# Shear Modulus (GPa) = 14.10903 31.44458 22.77681
#
# Velocity S-wave (km/s) = 2.68202 4.00392 3.40768
# Velocity P-wave (km/s) = 4.70744 6.68466 5.78120
#
# Compressibility (1/GPa) = 0.04056224
#
# Stress axis : x y z
#
# Youngs Moduli (GPa) = 30.38944 60.97357 99.30022
#
# Poissons Ratio (x) = 0.06803 0.12732
# Poissons Ratio (y) = 0.03391 0.69606
# Poissons Ratio (z) = 0.03896 0.42740
#
# Static dielectric constant tensor:
#      x y z
#    x 1.768390 0.000000 0.000000 
#    y 0.000000 1.658550 0.000000 
#    z 0.000000 0.000000 1.759880 
# 
# From -- ./inp_files/49066.got.cif
#   From: 2010.05.17/outbox.cif.g08.bks.cpg/sg74_25_cif.got.tgz:49066.got - 2010.06.03 17:57:02.
