data_PCOD9535443
_publ_section_title
;
Structure prediction by ZEFSAII (Michael W. Deem and Ramdas Pophale) SiO2 
 PCOD9535443
Probable space group: I M M A
;
_chemical_formula_sum "Si O2"
_cell_formula_units_Z 100
_cell_length_a 7.924742
_cell_length_b 33.523968
_cell_length_c 18.975245
_cell_angle_alpha 90.000000
_cell_angle_beta 90.000000
_cell_angle_gamma 90.000000
_cell_volume 5041.130516
_symmetry_space_group_name_H-M "I M M A"
_symmetry_group_IT_number 74
_symmetry_cell_setting 'orthorhombic'
loop_
_space_group_symop_operation_xyz
x,y,z
-x,1/2-y,z
x,-y,-z
-x,1/2+y,-z
-x,-y,-z
x,1/2+y,-z
-x,y,z
x,1/2-y,z
1/2+x,1/2+y,1/2+z
1/2-x,-y,1/2+z
1/2+x,1/2-y,1/2-z
1/2-x,y,1/2-z
1/2-x,1/2-y,1/2-z
1/2+x,y,1/2-z
1/2-x,1/2+y,1/2+z
1/2+x,-y,1/2+z
loop_
_atom_site_type_symbol
_atom_site_label
_atom_site_fract_x
_atom_site_fract_y
_atom_site_fract_z
Si Si1 0.702428 0.972518 0.831947
Si Si2 0.303877 0.121600 0.553040
Si Si3 0.802035 0.940077 0.330311
Si Si4 0.195206 0.192289 0.352270
Si Si5 0.200481 0.293689 0.520583
Si Si6 0.198330 0.110310 0.104199
Si Si7 0.500000 0.750000 0.691999
O O1 0.500000 0.969671 0.840712
O O2 0.750000 0.970146 0.750000
O O3 0.780896 0.934332 0.869105
O O4 0.766734 0.016538 0.854715
O O5 0.500000 0.111784 0.549815
O O6 0.233443 0.095266 0.615850
O O7 0.280860 0.169014 0.559913
O O8 0.230096 0.112277 0.475532
O O9 0.750000 0.931475 0.250000
O O10 0.000000 0.946024 0.327567
O O11 0.222107 0.201661 0.435979
O O12 0.213793 0.144393 0.348672
O O13 0.347664 0.215454 0.315046
O O14 0.000000 0.204231 0.334596
O O15 0.265924 0.250000 0.540409
O O16 0.000000 0.294989 0.533053
O O17 0.000000 0.121176 0.102178
#
# Coordination Sequence:
#
# PCOD9535443 Si02
#       7
#    16  16  16  16  16  16   4
#     4  10  21  37  58  81 106 142 184 229 276 332
#     4  10  21  33  52  80 112 145 180 224 278 326
#     4  10  21  38  58  78 105 141 185 228 274 332
#     4  10  19  30  47  74 110 146 184 231 277 329
#     4   9  17  29  47  72 105 142 181 224 270 321
#     4  10  20  35  53  81 117 145 182 229 279 331
#     4  12  18  28  48  74 110 146 194 220 288 322
#
# _framework density 19.836819999999999
#
# number of rings (size 3 to 8) (size 9 to 14) (size 15 to 20)
#    0.000    2.080    1.600    2.160    1.120    4.800 
#    0.000    3.200    0.000    0.480    0.000    0.560 
#    0.000    0.000    0.000    0.000    0.000    0.000 
#
# Total GULP energy -278546.540697 kJ/mol
# GULP energy per Si atom -5570.930814 kJ/mol
# Density = 1.979167 g / cm^3
# Si number density = 19.836820 Si / 1000 Ang^3
#
#
#
# Elastic Constant Matrix: (Units=GPa)
#
#
# Indices 1 2 3 4 5 6 
#
# 1 84.8971 14.9245 17.6709 0.0000 0.0000 0.0000
# 2 14.9245 147.0716 57.9085 0.0000 0.0000 0.0000
# 3 17.6709 57.9085 46.6439 -0.0001 0.0000 0.0001
# 4 0.0000 0.0000 -0.0001 -10.6317 0.0000 0.0001
# 5 0.0000 0.0000 0.0000 0.0000 21.7909 0.0000
# 6 0.0000 0.0000 0.0001 0.0001 0.0000 12.7424
#
#
#
# Elastic Compliance Matrix: (Units=1/GPa)
#
#
# Indices 1 2 3 4 5 6 
#
# 1 0.012895 0.001203 -0.006379 0.000000 0.000000 0.000000
# 2 0.001203 0.013414 -0.017109 0.000000 0.000000 0.000000
# 3 -0.006379 -0.017109 0.045097 0.000000 0.000000 0.000000
# 4 0.000000 0.000000 0.000000 -0.094058 0.000000 0.000000
# 5 0.000000 0.000000 0.000000 0.000000 0.045891 0.000000
# 6 0.000000 0.000000 0.000000 0.000000 0.000000 0.078478
#
#
# Mechanical properties :
#
#
# Convention : Reuss Voigt Hill
#
# Bulk Modulus (GPa) = 37.26364 51.06890 44.16627
# Shear Modulus (GPa) = 32.20981 17.32090 24.76536
#
# Velocity S-wave (km/s) = 4.03394 2.95815 3.53718
# Velocity P-wave (km/s) = 6.36575 6.12110 6.24462
#
# Compressibility (1/GPa) = 0.02683581
#
# Stress axis : x y z
#
# Youngs Moduli (GPa) = 77.54820 74.54905 22.17450
#
# Poissons Ratio (x) = -0.08969 0.14145
# Poissons Ratio (y) = -0.09330 0.37939
# Poissons Ratio (z) = 0.49468 1.27548
#
# Static dielectric constant tensor:
#      x y z
#    x 1.711390 0.000000 0.000000 
#    y 0.000000 1.735800 0.000000 
#    z 0.000000 0.000000 1.704820 
# 
# From -- ./inp_files/49315.got.cif
#   From: 2010.05.17/outbox.cif.g08.bks.cpg/sg74_25_cif.got.tgz:49315.got - 2010.06.03 17:57:02.
