data_PCOD9535485
_publ_section_title
;
Structure prediction by ZEFSAII (Michael W. Deem and Ramdas Pophale) SiO2 
 PCOD9535485
Probable space group: I M M A
;
_chemical_formula_sum "Si O2"
_cell_formula_units_Z 64
_cell_length_a 25.207788
_cell_length_b 10.809828
_cell_length_c 13.785349
_cell_angle_alpha 90.000000
_cell_angle_beta 90.000000
_cell_angle_gamma 90.000000
_cell_volume 3756.395287
_symmetry_space_group_name_H-M "I M M A"
_symmetry_group_IT_number 74
_symmetry_cell_setting 'orthorhombic'
loop_
_space_group_symop_operation_xyz
x,y,z
-x,1/2-y,z
x,-y,-z
-x,1/2+y,-z
-x,-y,-z
x,1/2+y,-z
-x,y,z
x,1/2-y,z
1/2+x,1/2+y,1/2+z
1/2-x,-y,1/2+z
1/2+x,1/2-y,1/2-z
1/2-x,y,1/2-z
1/2-x,1/2-y,1/2-z
1/2+x,y,1/2-z
1/2-x,1/2+y,1/2+z
1/2+x,-y,1/2+z
loop_
_atom_site_type_symbol
_atom_site_label
_atom_site_fract_x
_atom_site_fract_y
_atom_site_fract_z
Si Si1 0.941045 0.615858 0.607066
Si Si2 0.081905 0.890703 0.249333
Si Si3 0.649792 0.500000 0.000000
Si Si4 0.500000 0.609001 0.422459
Si Si5 0.801066 0.104955 0.692378
O O1 0.936584 0.750000 0.657408
O O2 0.936231 0.499238 0.678602
O O3 0.892466 0.604593 0.532511
O O4 0.000000 0.612826 0.562348
O O5 0.070886 0.750000 0.285931
O O6 0.050631 0.902791 0.149003
O O7 0.145429 0.902737 0.243508
O O8 0.684610 0.462264 0.907999
O O9 0.500000 0.750000 0.462552
O O10 0.500000 0.500000 0.500000
O O11 0.791778 0.250000 0.670689
O O12 0.750000 0.056969 0.750000
#
# Coordination Sequence:
#
# PCOD9535485 Si02
#       5
#    16  16   8   8  16
#     4  10  19  30  49  78 109 135 162 203 258 316
#     4   9  18  34  54  75 102 136 172 211 257 309
#     4  10  19  32  50  76 106 135 170 214 262 310
#     4  10  20  34  52  77 104 137 176 217 260 308
#     4   9  18  34  55  75  99 135 177 216 255 308
#
# _framework density 17.037611999999999
#
# number of rings (size 3 to 8) (size 9 to 14) (size 15 to 20)
#    0.000    2.500    1.250    1.125    0.000    2.000 
#    2.250    0.000    0.000   18.750    0.000    0.000 
#    0.000    0.000    0.000    0.000    0.000    0.000 
#
# Total GULP energy -178154.059036 kJ/mol
# GULP energy per Si atom -5567.314345 kJ/mol
# Density = 1.699883 g / cm^3
# Si number density = 17.037612 Si / 1000 Ang^3
#
#
#
# Elastic Constant Matrix: (Units=GPa)
#
#
# Indices 1 2 3 4 5 6 
#
# 1 134.6087 40.9551 63.8791 0.0000 0.0000 0.0000
# 2 40.9551 123.6095 55.7474 0.0000 0.0000 0.0000
# 3 63.8791 55.7474 86.5619 0.0000 0.0000 0.0000
# 4 0.0000 0.0000 0.0000 28.2131 0.0000 0.0000
# 5 0.0000 0.0000 0.0000 0.0000 26.2043 0.0000
# 6 0.0000 0.0000 0.0000 0.0000 0.0000 26.4242
#
#
#
# Elastic Compliance Matrix: (Units=1/GPa)
#
#
# Indices 1 2 3 4 5 6 
#
# 1 0.011433 0.000024 -0.008452 0.000000 0.000000 0.000000
# 2 0.000024 0.011402 -0.007361 0.000000 0.000000 0.000000
# 3 -0.008452 -0.007361 0.022530 0.000000 0.000000 0.000000
# 4 0.000000 0.000000 0.000000 0.035445 0.000000 0.000000
# 5 0.000000 0.000000 0.000000 0.000000 0.038162 0.000000
# 6 0.000000 0.000000 0.000000 0.000000 0.000000 0.037844
#
#
# Mechanical properties :
#
#
# Convention : Reuss Voigt Hill
#
# Bulk Modulus (GPa) = 72.53320 73.99371 73.26346
# Shear Modulus (GPa) = 25.90829 28.44820 27.17824
#
# Velocity S-wave (km/s) = 3.90379 4.09066 3.99832
# Velocity P-wave (km/s) = 7.93626 8.11390 8.02557
#
# Compressibility (1/GPa) = 0.01378679
#
# Stress axis : x y z
#
# Youngs Moduli (GPa) = 87.46818 87.70674 44.38481
#
# Poissons Ratio (x) = -0.00211 0.37516
# Poissons Ratio (y) = -0.00210 0.32670
# Poissons Ratio (z) = 0.73931 0.64557
#
# Static dielectric constant tensor:
#      x y z
#    x 1.592930 0.000000 0.000000 
#    y 0.000000 1.612110 0.000000 
#    z 0.000000 0.000000 1.561980 
# 
# From -- ./inp_files/36970.got.cif
#   From: 2010.05.17/outbox.cif.g08.bks.cpg/sg74_19_cif.got.tgz:36970.got - 2010.06.03 17:57:02.
