data_PCOD9535221
_publ_section_title
;
Structure prediction by ZEFSAII (Michael W. Deem and Ramdas Pophale) SiO2 
 PCOD9535221
Probable space group: I M M A
;
_chemical_formula_sum "Si O2"
_cell_formula_units_Z 96
_cell_length_a 9.018486
_cell_length_b 31.529553
_cell_length_c 28.206732
_cell_angle_alpha 90.000000
_cell_angle_beta 90.000000
_cell_angle_gamma 90.000000
_cell_volume 8020.551308
_symmetry_space_group_name_H-M "I M M A"
_symmetry_group_IT_number 74
_symmetry_cell_setting 'orthorhombic'
loop_
_space_group_symop_operation_xyz
x,y,z
-x,1/2-y,z
x,-y,-z
-x,1/2+y,-z
-x,-y,-z
x,1/2+y,-z
-x,y,z
x,1/2-y,z
1/2+x,1/2+y,1/2+z
1/2-x,-y,1/2+z
1/2+x,1/2-y,1/2-z
1/2-x,y,1/2-z
1/2-x,1/2-y,1/2-z
1/2+x,y,1/2-z
1/2-x,1/2+y,1/2+z
1/2+x,-y,1/2+z
loop_
_atom_site_type_symbol
_atom_site_label
_atom_site_fract_x
_atom_site_fract_y
_atom_site_fract_z
Si Si1 0.179482 0.449882 0.301455
Si Si2 0.169711 0.996988 0.389387
Si Si3 0.322736 0.371886 0.359151
Si Si4 0.824900 0.699535 0.699313
Si Si5 0.829991 0.912700 0.554900
Si Si6 0.830057 0.954861 0.028186
O O1 0.250000 0.455207 0.250000
O O2 0.215138 0.489183 0.336623
O O3 0.249452 0.408111 0.325746
O O4 0.000000 0.445669 0.299782
O O5 0.268256 0.965053 0.419747
O O6 0.000000 0.981962 0.388931
O O7 0.171088 0.041802 0.417898
O O8 0.500000 0.373536 0.355588
O O9 0.257800 0.327796 0.340225
O O10 0.269219 0.382527 0.412343
O O11 0.809786 0.750000 0.691659
O O12 0.750000 0.689485 0.750000
O O13 0.000000 0.689183 0.700675
O O14 0.766103 0.922593 0.503080
O O15 0.000000 0.898160 0.553507
O O16 0.000000 0.941211 0.029550
O O17 0.824917 0.000000 0.000000
#
# Coordination Sequence:
#
# PCOD9535221 Si02
#       6
#    16  16  16  16  16  16
#     4  10  19  29  39  51  68  89 114 141 171 205
#     4   8  15  25  35  47  64  87 110 133 162 196
#     4  11  20  29  41  55  71  87 107 136 170 207
#     4  10  20  33  46  57  69  86 109 136 168 207
#     4   9  16  26  38  51  68  87 107 130 160 198
#     4   9  15  22  34  51  68  85 106 131 159 193
#
# _framework density 11.969251999999999
#
# number of rings (size 3 to 8) (size 9 to 14) (size 15 to 20)
#    0.000    2.500    0.000    5.000    0.000    7.667 
#    0.000    0.000    0.000    0.000    0.000    0.000 
#    0.000    0.000    0.000    0.000    0.000    0.000 
#
# Total GULP energy -267401.792552 kJ/mol
# GULP energy per Si atom -5570.870678 kJ/mol
# Density = 1.194201 g / cm^3
# Si number density = 11.969252 Si / 1000 Ang^3
#
#
#
# Elastic Constant Matrix: (Units=GPa)
#
#
# Indices 1 2 3 4 5 6 
#
# 1 92.3399 27.4315 40.1241 0.0000 0.0000 0.0000
# 2 27.4315 24.6546 23.4876 0.0000 0.0000 0.0000
# 3 40.1241 23.4876 54.9761 0.0000 0.0000 0.0000
# 4 0.0000 0.0000 0.0000 16.8644 0.0000 0.0000
# 5 0.0000 0.0000 0.0000 0.0000 21.0065 0.0000
# 6 0.0000 0.0000 0.0000 0.0000 0.0000 13.4355
#
#
#
# Elastic Compliance Matrix: (Units=1/GPa)
#
#
# Indices 1 2 3 4 5 6 
#
# 1 0.017917 -0.012609 -0.007689 0.000000 0.000000 0.000000
# 2 -0.012609 0.077274 -0.023811 0.000000 0.000000 0.000000
# 3 -0.007689 -0.023811 0.033974 0.000000 0.000000 0.000000
# 4 0.000000 0.000000 0.000000 0.059297 0.000000 0.000000
# 5 0.000000 0.000000 0.000000 0.000000 0.047604 0.000000
# 6 0.000000 0.000000 0.000000 0.000000 0.000000 0.074429
#
#
# Mechanical properties :
#
#
# Convention : Reuss Voigt Hill
#
# Bulk Modulus (GPa) = 24.42258 39.33969 31.88113
# Shear Modulus (GPa) = 12.12525 15.65644 13.89084
#
# Velocity S-wave (km/s) = 3.18627 3.62063 3.41037
# Velocity P-wave (km/s) = 5.82968 7.10051 6.49624
#
# Compressibility (1/GPa) = 0.04094572
#
# Stress axis : x y z
#
# Youngs Moduli (GPa) = 55.81417 12.94103 29.43386
#
# Poissons Ratio (x) = 0.16318 0.22632
# Poissons Ratio (y) = 0.70378 0.70085
# Poissons Ratio (z) = 0.42917 0.30814
#
# Static dielectric constant tensor:
#      x y z
#    x 1.400730 0.000000 0.000000 
#    y 0.000000 1.365040 0.000000 
#    z 0.000000 0.000000 1.393850 
# 
# From -- ./inp_files/64917.got.cif
#   From: 2010.05.17/outbox.cif.g08.bks.cpg/sg74_33_cif.got.tgz:64917.got - 2010.06.03 17:57:02.
