data_PCOD9535261
_publ_section_title
;
Structure prediction by ZEFSAII (Michael W. Deem and Ramdas Pophale) SiO2 
 PCOD9535261
Probable space group: I M M A
;
_chemical_formula_sum "Si O2"
_cell_formula_units_Z 80
_cell_length_a 25.404595
_cell_length_b 14.087316
_cell_length_c 11.704007
_cell_angle_alpha 90.000000
_cell_angle_beta 90.000000
_cell_angle_gamma 90.000000
_cell_volume 4188.659960
_symmetry_space_group_name_H-M "I M M A"
_symmetry_group_IT_number 74
_symmetry_cell_setting 'orthorhombic'
loop_
_space_group_symop_operation_xyz
x,y,z
-x,1/2-y,z
x,-y,-z
-x,1/2+y,-z
-x,-y,-z
x,1/2+y,-z
-x,y,z
x,1/2-y,z
1/2+x,1/2+y,1/2+z
1/2-x,-y,1/2+z
1/2+x,1/2-y,1/2-z
1/2-x,y,1/2-z
1/2-x,1/2-y,1/2-z
1/2+x,y,1/2-z
1/2-x,1/2+y,1/2+z
1/2+x,-y,1/2+z
loop_
_atom_site_type_symbol
_atom_site_label
_atom_site_fract_x
_atom_site_fract_y
_atom_site_fract_z
Si Si1 0.158247 0.638475 0.731402
Si Si2 0.204488 0.461439 0.845576
Si Si3 0.125731 0.360198 0.696008
Si Si4 0.559931 0.973011 0.866080
Si Si5 0.713851 0.139155 0.992139
O O1 0.157907 0.750000 0.763038
O O2 0.176473 0.564057 0.828459
O O3 0.102378 0.603415 0.679040
O O4 0.198168 0.626725 0.623791
O O5 0.250000 0.459587 0.750000
O O6 0.160635 0.385931 0.805484
O O7 0.235404 0.417896 0.952470
O O8 0.113182 0.250000 0.687267
O O9 0.075970 0.428659 0.694503
O O10 0.163688 0.387002 0.587744
O O11 0.500000 0.943687 0.844265
O O12 0.564604 0.000000 0.000000
O O13 0.723128 0.250000 0.970859
#
# Coordination Sequence:
#
# PCOD9535261 Si02
#       5
#    16  16  16  16  16
#     4  10  20  33  48  67  95 132 170 202 239 288
#     4   9  18  28  46  66  92 119 160 204 244 282
#     4   9  16  27  42  62  86 115 154 197 238 278
#     4  10  19  29  43  64  91 125 167 207 239 273
#     4   9  16  29  48  67  88 122 164 202 241 285
#
# _framework density 19.099186
#
# number of rings (size 3 to 8) (size 9 to 14) (size 15 to 20)
#    0.000    2.600    2.000    0.600    0.000    3.600 
#    0.000    2.000    0.000    2.400    0.000    0.000 
#    0.000    0.000    0.000  136.800    0.000  514.000 
#
# Total GULP energy -223044.675281 kJ/mol
# GULP energy per Si atom -5576.116882 kJ/mol
# Density = 1.905572 g / cm^3
# Si number density = 19.099186 Si / 1000 Ang^3
#
#
#
# Elastic Constant Matrix: (Units=GPa)
#
#
# Indices 1 2 3 4 5 6 
#
# 1 98.3934 25.7274 29.8711 0.0000 0.0000 0.0000
# 2 25.7274 75.4968 18.2782 0.0000 0.0000 0.0000
# 3 29.8711 18.2782 27.5130 0.0000 0.0000 0.0000
# 4 0.0000 0.0000 0.0000 16.8582 0.0000 0.0000
# 5 0.0000 0.0000 0.0000 0.0000 16.8153 0.0000
# 6 0.0000 0.0000 0.0000 0.0000 0.0000 12.7728
#
#
#
# Elastic Compliance Matrix: (Units=1/GPa)
#
#
# Indices 1 2 3 4 5 6 
#
# 1 0.015287 -0.001419 -0.015654 0.000000 0.000000 0.000000
# 2 -0.001419 0.015916 -0.009033 0.000000 0.000000 0.000000
# 3 -0.015654 -0.009033 0.059343 0.000000 0.000000 0.000000
# 4 0.000000 0.000000 0.000000 0.059318 0.000000 0.000000
# 5 0.000000 0.000000 0.000000 0.000000 0.059470 0.000000
# 6 0.000000 0.000000 0.000000 0.000000 0.000000 0.078291
#
#
# Mechanical properties :
#
#
# Convention : Reuss Voigt Hill
#
# Bulk Modulus (GPa) = 26.08676 38.79518 32.44097
# Shear Modulus (GPa) = 14.17973 17.79103 15.98538
#
# Velocity S-wave (km/s) = 2.72771 3.05537 2.89618
# Velocity P-wave (km/s) = 4.85888 5.72745 5.31095
#
# Compressibility (1/GPa) = 0.03833362
#
# Stress axis : x y z
#
# Youngs Moduli (GPa) = 65.41576 62.82909 16.85111
#
# Poissons Ratio (x) = 0.08918 0.26379
# Poissons Ratio (y) = 0.09285 0.15221
# Poissons Ratio (z) = 1.02403 0.56752
#
# Static dielectric constant tensor:
#      x y z
#    x 1.660760 0.000000 0.000000 
#    y 0.000000 1.685970 0.000000 
#    z 0.000000 0.000000 1.740570 
# 
# From -- ./inp_files/20495.got.cif
#   From: 2010.05.17/outbox.cif.g08.bks.cpg/sg74_11_cif.got.tgz:20495.got - 2010.06.03 17:57:02.
