data_PCOD9535981
_publ_section_title
;
Structure prediction by ZEFSAII (Michael W. Deem and Ramdas Pophale) SiO2 
 PCOD9535981
Probable space group: I M M A
;
_chemical_formula_sum "Si O2"
_cell_formula_units_Z 80
_cell_length_a 27.598822
_cell_length_b 8.665653
_cell_length_c 19.030856
_cell_angle_alpha 90.000000
_cell_angle_beta 90.000000
_cell_angle_gamma 90.000000
_cell_volume 4551.454056
_symmetry_space_group_name_H-M "I M M A"
_symmetry_group_IT_number 74
_symmetry_cell_setting 'orthorhombic'
loop_
_space_group_symop_operation_xyz
x,y,z
-x,1/2-y,z
x,-y,-z
-x,1/2+y,-z
-x,-y,-z
x,1/2+y,-z
-x,y,z
x,1/2-y,z
1/2+x,1/2+y,1/2+z
1/2-x,-y,1/2+z
1/2+x,1/2-y,1/2-z
1/2-x,y,1/2-z
1/2-x,1/2-y,1/2-z
1/2+x,y,1/2-z
1/2-x,1/2+y,1/2+z
1/2+x,-y,1/2+z
loop_
_atom_site_type_symbol
_atom_site_label
_atom_site_fract_x
_atom_site_fract_y
_atom_site_fract_z
Si Si1 0.556881 0.065576 0.425079
Si Si2 0.446382 0.437156 0.858823
Si Si3 0.801101 0.435134 0.284250
Si Si4 0.896589 0.565034 0.214581
Si Si5 0.154955 0.435451 0.575840
O O1 0.500000 0.023596 0.417729
O O2 0.560775 0.250000 0.425291
O O3 0.573717 0.000000 0.500000
O O4 0.585125 0.996592 0.359386
O O5 0.500000 0.494141 0.878496
O O6 0.447291 0.250000 0.862619
O O7 0.433351 0.477416 0.778161
O O8 0.400254 0.487551 0.904847
O O9 0.802928 0.250000 0.288744
O O10 0.750000 0.480557 0.250000
O O11 0.845067 0.495310 0.236331
O O12 0.811126 0.504443 0.361360
O O13 0.893272 0.750000 0.213559
O O14 0.168474 0.500000 0.500000
O O15 0.155749 0.250000 0.575702
#
# Coordination Sequence:
#
# PCOD9535981 Si02
#       5
#    16  16  16  16  16
#     4  10  20  33  50  74 106 143 180 218 262 313
#     4   8  15  28  47  73 104 138 173 205 242 292
#     4  10  21  38  59  80 103 133 172 219 268 318
#     4  10  19  32  53  78 105 137 173 217 264 314
#     4  10  20  34  54  79 108 141 174 212 257 305
#
# _framework density 17.576799999999999
#
# number of rings (size 3 to 8) (size 9 to 14) (size 15 to 20)
#    0.000    2.400    0.000    4.200    0.000    4.000 
#    0.000    1.000    0.000   16.200    0.000    0.000 
#    0.000    0.000    0.000    0.000    0.000    0.000 
#
# Total GULP energy -223178.543469 kJ/mol
# GULP energy per Si atom -5579.463587 kJ/mol
# Density = 1.753679 g / cm^3
# Si number density = 17.576800 Si / 1000 Ang^3
#
#
#
# Elastic Constant Matrix: (Units=GPa)
#
#
# Indices 1 2 3 4 5 6 
#
# 1 100.7241 33.7456 62.6116 0.0000 0.0000 0.0000
# 2 33.7456 47.5776 44.4411 0.0000 0.0000 0.0000
# 3 62.6116 44.4411 152.0712 0.0000 0.0000 0.0000
# 4 0.0000 0.0000 0.0000 28.9590 0.0000 0.0000
# 5 0.0000 0.0000 0.0000 0.0000 2.4256 0.0000
# 6 0.0000 0.0000 0.0000 0.0000 0.0000 23.4007
#
#
#
# Elastic Compliance Matrix: (Units=1/GPa)
#
#
# Indices 1 2 3 4 5 6 
#
# 1 0.014696 -0.006563 -0.004133 0.000000 0.000000 0.000000
# 2 -0.006563 0.031841 -0.006603 0.000000 0.000000 0.000000
# 3 -0.004133 -0.006603 0.010207 0.000000 0.000000 0.000000
# 4 0.000000 0.000000 0.000000 0.034532 0.000000 0.000000
# 5 0.000000 0.000000 0.000000 0.000000 0.412262 0.000000
# 6 0.000000 0.000000 0.000000 0.000000 0.000000 0.042734
#
#
# Mechanical properties :
#
#
# Convention : Reuss Voigt Hill
#
# Bulk Modulus (GPa) = 45.15412 64.66326 54.90869
# Shear Modulus (GPa) = 8.49977 21.59538 15.04757
#
# Velocity S-wave (km/s) = 2.20143 3.50898 2.92910
# Velocity P-wave (km/s) = 5.67513 7.29974 6.53809
#
# Compressibility (1/GPa) = 0.02214637
#
# Stress axis : x y z
#
# Youngs Moduli (GPa) = 68.04618 31.40593 97.97179
#
# Poissons Ratio (x) = 0.20612 0.40488
# Poissons Ratio (y) = 0.44660 0.64690
# Poissons Ratio (z) = 0.28121 0.20737
#
# Static dielectric constant tensor:
#      x y z
#    x 1.595610 0.000000 0.000000 
#    y 0.000000 1.584530 0.000000 
#    z 0.000000 0.000000 1.577610 
# 
# From -- ./inp_files/39681.got.cif
#   From: 2010.05.17/outbox.cif.g08.bks.cpg/sg74_20_cif.got.tgz:39681.got - 2010.06.03 17:57:02.
