data_PCOD9535527
_publ_section_title
;
Structure prediction by ZEFSAII (Michael W. Deem and Ramdas Pophale) SiO2 
 PCOD9535527
Probable space group: I M M A
;
_chemical_formula_sum "Si O2"
_cell_formula_units_Z 104
_cell_length_a 8.188161
_cell_length_b 29.788171
_cell_length_c 24.830169
_cell_angle_alpha 90.000000
_cell_angle_beta 90.000000
_cell_angle_gamma 90.000000
_cell_volume 6056.334964
_symmetry_space_group_name_H-M "I M M A"
_symmetry_group_IT_number 74
_symmetry_cell_setting 'orthorhombic'
loop_
_space_group_symop_operation_xyz
x,y,z
-x,1/2-y,z
x,-y,-z
-x,1/2+y,-z
-x,-y,-z
x,1/2+y,-z
-x,y,z
x,1/2-y,z
1/2+x,1/2+y,1/2+z
1/2-x,-y,1/2+z
1/2+x,1/2-y,1/2-z
1/2-x,y,1/2-z
1/2-x,1/2-y,1/2-z
1/2+x,y,1/2-z
1/2-x,1/2+y,1/2+z
1/2+x,-y,1/2+z
loop_
_atom_site_type_symbol
_atom_site_label
_atom_site_fract_x
_atom_site_fract_y
_atom_site_fract_z
Si Si1 0.696905 0.976332 0.187664
Si Si2 0.697830 0.750000 0.688030
Si Si3 0.695151 0.925903 0.812071
Si Si4 0.802237 0.121884 0.687873
Si Si5 0.194126 0.661552 0.875145
Si Si6 0.300509 0.301332 0.892992
Si Si7 0.303229 0.301294 0.015236
O O1 0.500000 0.976259 0.184336
O O2 0.750000 0.976341 0.250000
O O3 0.752904 0.927538 0.167102
O O4 0.754635 0.025010 0.167066
O O5 0.500000 0.750000 0.686129
O O6 0.750000 0.750000 0.750000
O O7 0.757993 0.794871 0.657709
O O8 0.500000 0.926811 0.811853
O O9 0.750000 0.920175 0.750000
O O10 0.750030 0.884276 0.847704
O O11 0.750000 0.127212 0.750000
O O12 0.743304 0.162246 0.650129
O O13 0.000000 0.122263 0.686955
O O14 0.244788 0.667140 0.937061
O O15 0.000000 0.663144 0.872080
O O16 0.500000 0.301512 0.892259
O O17 0.249898 0.250000 0.881247
O O18 0.250861 0.312564 0.954348
O O19 0.500000 0.301092 0.015464
O O20 0.247723 0.250000 0.026582
#
# Coordination Sequence:
#
# PCOD9535527 Si02
#       7
#    16   8  16  16  16  16  16
#     4   8  15  27  44  65  90 120 154 189 225 268
#     4  10  22  34  44  62  90 118 143 176 223 276
#     4  10  19  31  46  67  92 119 154 193 232 275
#     4   9  16  28  47  71  99 128 154 185 227 274
#     4  11  21  33  47  66  91 120 152 190 235 279
#     4   8  15  28  47  71  97 124 156 192 228 269
#     4   9  17  31  50  68  86 117 160 197 229 269
#
# _framework density 17.172101999999999
#
# number of rings (size 3 to 8) (size 9 to 14) (size 15 to 20)
#    0.000    2.769    0.769    2.308    0.000    3.385 
#    0.000    0.769    0.000    1.846    0.000    6.462 
#    0.000    0.000    0.000    0.000    0.000    0.000 
#
# Total GULP energy -289618.194792 kJ/mol
# GULP energy per Si atom -5569.580669 kJ/mol
# Density = 1.713302 g / cm^3
# Si number density = 17.172102 Si / 1000 Ang^3
#
#
#
# Elastic Constant Matrix: (Units=GPa)
#
#
# Indices 1 2 3 4 5 6 
#
# 1 12.3609 17.9429 10.5773 0.0000 0.0000 0.0000
# 2 17.9429 185.3502 99.4423 0.0000 0.0000 0.0000
# 3 10.5773 99.4423 100.4515 0.0000 0.0000 0.0000
# 4 0.0000 0.0000 0.0000 12.9079 0.0000 0.0000
# 5 0.0000 0.0000 0.0000 0.0000 18.3603 0.0000
# 6 0.0000 0.0000 0.0000 0.0000 0.0000 11.7473
#
#
#
# Elastic Compliance Matrix: (Units=1/GPa)
#
#
# Indices 1 2 3 4 5 6 
#
# 1 0.094297 -0.008107 -0.001903 0.000000 0.000000 0.000000
# 2 -0.008107 0.012204 -0.011227 0.000000 0.000000 0.000000
# 3 -0.001903 -0.011227 0.021270 0.000000 0.000000 0.000000
# 4 0.000000 0.000000 0.000000 0.077472 0.000000 0.000000
# 5 0.000000 0.000000 0.000000 0.000000 0.054465 0.000000
# 6 0.000000 0.000000 0.000000 0.000000 0.000000 0.085126
#
#
# Mechanical properties :
#
#
# Convention : Reuss Voigt Hill
#
# Bulk Modulus (GPa) = 11.72406 61.56528 36.64467
# Shear Modulus (GPa) = 12.02672 19.94979 15.98825
#
# Velocity S-wave (km/s) = 2.64931 3.41215 3.05464
# Velocity P-wave (km/s) = 4.02500 7.17311 5.81610
#
# Compressibility (1/GPa) = 0.08529470
#
# Stress axis : x y z
#
# Youngs Moduli (GPa) = 10.60478 81.94317 47.01461
#
# Poissons Ratio (x) = 0.66433 0.08949
# Poissons Ratio (y) = 0.08598 0.52785
# Poissons Ratio (z) = 0.02019 0.92000
#
# Static dielectric constant tensor:
#      x y z
#    x 1.569090 0.000000 0.000000 
#    y 0.000000 1.630670 0.000000 
#    z 0.000000 0.000000 1.556890 
# 
# From -- ./inp_files/57813.got.cif
#   From: 2010.05.17/outbox.cif.g08.bks.cpg/sg74_29_cif.got.tgz:57813.got - 2010.06.03 17:57:02.
