data_PCOD9535053
_publ_section_title
;
Structure prediction by ZEFSAII (Michael W. Deem and Ramdas Pophale) SiO2 
 PCOD9535053
Probable space group: I M M A
;
_chemical_formula_sum "Si O2"
_cell_formula_units_Z 112
_cell_length_a 18.262718
_cell_length_b 18.280014
_cell_length_c 17.541110
_cell_angle_alpha 90.000000
_cell_angle_beta 90.000000
_cell_angle_gamma 90.000000
_cell_volume 5855.972238
_symmetry_space_group_name_H-M "I M M A"
_symmetry_group_IT_number 74
_symmetry_cell_setting 'orthorhombic'
loop_
_space_group_symop_operation_xyz
x,y,z
-x,1/2-y,z
x,-y,-z
-x,1/2+y,-z
-x,-y,-z
x,1/2+y,-z
-x,y,z
x,1/2-y,z
1/2+x,1/2+y,1/2+z
1/2-x,-y,1/2+z
1/2+x,1/2-y,1/2-z
1/2-x,y,1/2-z
1/2-x,1/2-y,1/2-z
1/2+x,y,1/2-z
1/2-x,1/2+y,1/2+z
1/2+x,-y,1/2+z
loop_
_atom_site_type_symbol
_atom_site_label
_atom_site_fract_x
_atom_site_fract_y
_atom_site_fract_z
Si Si1 0.660713 0.446573 0.250240
Si Si2 0.415613 0.917527 0.490069
Si Si3 0.201687 0.086179 0.585393
Si Si4 0.193758 0.915075 0.591794
Si Si5 0.838906 0.165015 0.123420
Si Si6 0.586331 0.166972 0.815059
Si Si7 0.648070 0.895659 0.330983
O O1 0.750000 0.444270 0.250000
O O2 0.638300 0.424800 0.163652
O O3 0.631638 0.386317 0.309020
O O4 0.644901 0.526503 0.285512
O O5 0.500000 0.918056 0.513218
O O6 0.372896 0.862532 0.544286
O O7 0.406314 0.898258 0.402167
O O8 0.385448 0.000000 0.500000
O O9 0.182647 0.103831 0.497273
O O10 0.131111 0.110958 0.632574
O O11 0.272689 0.118630 0.629524
O O12 0.220031 0.999706 0.588090
O O13 0.253481 0.856001 0.617756
O O14 0.850625 0.250000 0.136326
O O15 0.500000 0.149662 0.810502
O O16 0.594188 0.250000 0.844405
O O17 0.622845 0.161581 0.731847
#
# Coordination Sequence:
#
# PCOD9535053 Si02
#       7
#    16  16  16  16  16  16  16
#     4  10  18  33  59  88 119 157 196 258 307 356
#     4  11  22  37  60  88 125 172 214 254 305 371
#     4  11  20  37  68  92 121 160 205 264 311 368
#     4  10  20  36  61  93 120 151 203 263 308 358
#     4  11  22  36  57  88 128 164 201 257 320 369
#     4  11  26  44  61  90 131 166 203 260 323 375
#     4  12  19  38  66  93 119 166 213 257 304 367
#
# _framework density 19.125775000000001
#
# number of rings (size 3 to 8) (size 9 to 14) (size 15 to 20)
#    0.000    1.143    7.143    0.857    0.000    5.143 
#    0.000    1.429    0.000    0.000    0.000    0.000 
#    0.000    0.000    0.000    0.000    0.000    0.000 
#
# Total GULP energy -311862.749739 kJ/mol
# GULP energy per Si atom -5568.977674 kJ/mol
# Density = 1.908224 g / cm^3
# Si number density = 19.125775 Si / 1000 Ang^3
#
#
#
# Elastic Constant Matrix: (Units=GPa)
#
#
# Indices 1 2 3 4 5 6 
#
# 1 39.4864 23.6205 11.2344 0.0000 0.0000 0.0000
# 2 23.6205 77.0934 19.2507 0.0000 0.0000 0.0000
# 3 11.2344 19.2507 136.4638 0.0000 0.0000 0.0000
# 4 0.0000 0.0000 0.0000 19.1321 0.0000 0.0000
# 5 0.0000 0.0000 0.0000 0.0000 28.5545 0.0000
# 6 0.0000 0.0000 0.0000 0.0000 0.0000 12.6130
#
#
#
# Elastic Compliance Matrix: (Units=1/GPa)
#
#
# Indices 1 2 3 4 5 6 
#
# 1 0.031218 -0.009249 -0.001265 0.000000 0.000000 0.000000
# 2 -0.009249 0.016185 -0.001522 0.000000 0.000000 0.000000
# 3 -0.001265 -0.001522 0.007647 0.000000 0.000000 0.000000
# 4 0.000000 0.000000 0.000000 0.052268 0.000000 0.000000
# 5 0.000000 0.000000 0.000000 0.000000 0.035021 0.000000
# 6 0.000000 0.000000 0.000000 0.000000 0.000000 0.079283
#
#
# Mechanical properties :
#
#
# Convention : Reuss Voigt Hill
#
# Bulk Modulus (GPa) = 32.28120 40.13942 36.21031
# Shear Modulus (GPa) = 19.52976 25.32246 22.42611
#
# Velocity S-wave (km/s) = 3.19897 3.64262 3.42798
# Velocity P-wave (km/s) = 5.52807 6.22288 5.88574
#
# Compressibility (1/GPa) = 0.03097778
#
# Stress axis : x y z
#
# Youngs Moduli (GPa) = 32.03307 61.78562 130.77388
#
# Poissons Ratio (x) = 0.57144 0.16547
# Poissons Ratio (y) = 0.29627 0.19901
# Poissons Ratio (z) = 0.04053 0.09402
#
# Static dielectric constant tensor:
#      x y z
#    x 1.663810 0.000000 0.000000 
#    y 0.000000 1.656020 0.000000 
#    z 0.000000 0.000000 1.738780 
# 
# From -- ./inp_files/44431.got.cif
#   From: 2010.05.17/outbox.cif.g08.bks.cpg/sg74_23_cif.got.tgz:44431.got - 2010.06.03 17:57:02.
