data_PCOD9535414
_publ_section_title
;
Structure prediction by ZEFSAII (Michael W. Deem and Ramdas Pophale) SiO2 
 PCOD9535414
Probable space group: I M M A
;
_chemical_formula_sum "Si O2"
_cell_formula_units_Z 80
_cell_length_a 30.521845
_cell_length_b 8.538723
_cell_length_c 15.180137
_cell_angle_alpha 90.000000
_cell_angle_beta 90.000000
_cell_angle_gamma 90.000000
_cell_volume 3956.210568
_symmetry_space_group_name_H-M "I M M A"
_symmetry_group_IT_number 74
_symmetry_cell_setting 'orthorhombic'
loop_
_space_group_symop_operation_xyz
x,y,z
-x,1/2-y,z
x,-y,-z
-x,1/2+y,-z
-x,-y,-z
x,1/2+y,-z
-x,y,z
x,1/2-y,z
1/2+x,1/2+y,1/2+z
1/2-x,-y,1/2+z
1/2+x,1/2-y,1/2-z
1/2-x,y,1/2-z
1/2-x,1/2-y,1/2-z
1/2+x,y,1/2-z
1/2-x,1/2+y,1/2+z
1/2+x,-y,1/2+z
loop_
_atom_site_type_symbol
_atom_site_label
_atom_site_fract_x
_atom_site_fract_y
_atom_site_fract_z
Si Si1 0.729533 0.928074 0.651571
Si Si2 0.451366 0.564880 0.278781
Si Si3 0.643043 0.062699 0.721957
Si Si4 0.052115 0.575408 0.589676
Si Si5 0.178956 0.061527 0.407236
O O1 0.721060 0.750000 0.622169
O O2 0.750000 0.920127 0.750000
O O3 0.770585 0.998634 0.599727
O O4 0.683815 0.016403 0.660374
O O5 0.500000 0.498372 0.302099
O O6 0.453568 0.750000 0.296044
O O7 0.404413 0.505792 0.314134
O O8 0.444772 0.534137 0.174541
O O9 0.641313 0.250000 0.730280
O O10 0.653638 0.994271 0.819521
O O11 0.068737 0.500000 0.500000
O O12 0.070586 0.750000 0.605562
O O13 0.000000 0.593909 0.577464
O O14 0.180218 0.250000 0.405710
O O15 0.161623 0.000000 0.500000
#
# Coordination Sequence:
#
# PCOD9535414 Si02
#       5
#    16  16  16  16  16
#     4   8  16  31  48  66  90 118 144 176 223 272
#     4   9  18  31  43  57  81 112 147 186 221 252
#     4  10  19  30  47  68  89 119 155 187 222 266
#     4   9  16  25  37  51  67  93 131 173 216 256
#     4  10  20  33  49  69  93 119 147 183 225 268
#
# _framework density 20.22137
#
# number of rings (size 3 to 8) (size 9 to 14) (size 15 to 20)
#    0.000    2.800    0.000    3.000    0.000    9.200 
#    0.000    0.000    0.000    0.000    0.000    0.000 
#    0.000    0.800    0.000    1.800    0.000    2.800 
#
# Total GULP energy -222718.229033 kJ/mol
# GULP energy per Si atom -5567.955726 kJ/mol
# Density = 2.017535 g / cm^3
# Si number density = 20.221370 Si / 1000 Ang^3
#
#
#
# Elastic Constant Matrix: (Units=GPa)
#
#
# Indices 1 2 3 4 5 6 
#
# 1 212.6088 21.0342 12.3265 0.0000 0.0000 0.0000
# 2 21.0342 32.3240 -4.5327 0.0000 0.0000 0.0000
# 3 12.3265 -4.5327 9.6321 0.0000 0.0000 0.0000
# 4 0.0000 0.0000 0.0000 11.8628 0.0000 0.0000
# 5 0.0000 0.0000 0.0000 0.0000 -7.3579 0.0000
# 6 0.0000 0.0000 0.0000 0.0000 0.0000 5.6604
#
#
#
# Elastic Compliance Matrix: (Units=1/GPa)
#
#
# Indices 1 2 3 4 5 6 
#
# 1 0.005781 -0.005138 -0.009816 0.000000 0.000000 0.000000
# 2 -0.005138 0.037690 0.024312 0.000000 0.000000 0.000000
# 3 -0.009816 0.024312 0.127822 0.000000 0.000000 0.000000
# 4 0.000000 0.000000 0.000000 0.084297 0.000000 0.000000
# 5 0.000000 0.000000 0.000000 0.000000 -0.135909 0.000000
# 6 0.000000 0.000000 0.000000 0.000000 0.000000 0.176666
#
#
# Mechanical properties :
#
#
# Convention : Reuss Voigt Hill
#
# Bulk Modulus (GPa) = 5.26294 34.69121 19.97708
# Shear Modulus (GPa) = 14.66413 17.08219 15.87316
#
# Velocity S-wave (km/s) = 2.69584 2.90963 2.80477
# Velocity P-wave (km/s) = 3.50690 5.33675 4.51549
#
# Compressibility (1/GPa) = 0.19000782
#
# Stress axis : x y z
#
# Youngs Moduli (GPa) = 172.98221 26.53246 7.82337
#
# Poissons Ratio (x) = 0.13633 0.07679
# Poissons Ratio (y) = 0.88884 -0.19020
# Poissons Ratio (z) = 1.69801 -0.64505
#
# Static dielectric constant tensor:
#      x y z
#    x 1.846450 0.000000 0.000000 
#    y 0.000000 1.715130 0.000000 
#    z 0.000000 0.000000 1.682610 
# 
# From -- ./inp_files/39942.got.cif
#   From: 2010.05.17/outbox.cif.g08.bks.cpg/sg74_20_cif.got.tgz:39942.got - 2010.06.03 17:57:02.
