data_PCOD9535476
_publ_section_title
;
Structure prediction by ZEFSAII (Michael W. Deem and Ramdas Pophale) SiO2 
 PCOD9535476
Probable space group: I M M A
;
_chemical_formula_sum "Si O2"
_cell_formula_units_Z 80
_cell_length_a 10.095195
_cell_length_b 17.756944
_cell_length_c 27.247662
_cell_angle_alpha 90.000000
_cell_angle_beta 90.000000
_cell_angle_gamma 90.000000
_cell_volume 4884.410775
_symmetry_space_group_name_H-M "I M M A"
_symmetry_group_IT_number 74
_symmetry_cell_setting 'orthorhombic'
loop_
_space_group_symop_operation_xyz
x,y,z
-x,1/2-y,z
x,-y,-z
-x,1/2+y,-z
-x,-y,-z
x,1/2+y,-z
-x,y,z
x,1/2-y,z
1/2+x,1/2+y,1/2+z
1/2-x,-y,1/2+z
1/2+x,1/2-y,1/2-z
1/2-x,y,1/2-z
1/2-x,1/2-y,1/2-z
1/2+x,y,1/2-z
1/2-x,1/2+y,1/2+z
1/2+x,-y,1/2+z
loop_
_atom_site_type_symbol
_atom_site_label
_atom_site_fract_x
_atom_site_fract_y
_atom_site_fract_z
Si Si1 0.500000 0.161102 0.803776
Si Si2 0.500000 0.341600 0.686867
Si Si3 0.658064 0.667325 0.895960
Si Si4 0.259079 0.427744 0.848795
Si Si5 0.658684 0.082802 0.204014
Si Si6 0.660255 0.987402 0.942873
O O1 0.500000 0.250000 0.808000
O O2 0.500000 0.143672 0.745616
O O3 0.625403 0.126701 0.830761
O O4 0.500000 0.250000 0.679884
O O5 0.374200 0.383796 0.663828
O O6 0.500000 0.670766 0.905033
O O7 0.714317 0.750000 0.906270
O O8 0.673100 0.643965 0.839192
O O9 0.706469 0.596250 0.927280
O O10 0.284557 0.504450 0.817888
O O11 0.275405 0.453334 0.905265
O O12 0.500000 0.074511 0.214392
O O13 0.750000 0.102581 0.250000
O O14 0.500000 0.991734 0.934791
O O15 0.686083 0.000000 0.000000
#
# Coordination Sequence:
#
# PCOD9535476 Si02
#       6
#     8   8  16  16  16  16
#     4  11  20  34  53  74 107 145 182 221 272 318
#     4  11  24  36  51  76 111 151 182 219 274 330
#     4   8  15  29  47  71 103 134 166 207 258 308
#     4  11  20  35  52  77 104 140 180 226 265 320
#     4  10  19  30  49  75 102 136 175 213 256 311
#     4   9  17  33  57  80 104 136 178 225 269 313
#
# _framework density 16.378637999999999
#
# number of rings (size 3 to 8) (size 9 to 14) (size 15 to 20)
#    0.000    2.200    2.000    3.600    1.400    2.000 
#    0.000    2.500    0.000    0.000    0.000    0.000 
#    0.000    0.000    0.000    0.000    0.000    0.000 
#
# Total GULP energy -222871.665138 kJ/mol
# GULP energy per Si atom -5571.791628 kJ/mol
# Density = 1.634136 g / cm^3
# Si number density = 16.378638 Si / 1000 Ang^3
#
#
#
# Elastic Constant Matrix: (Units=GPa)
#
#
# Indices 1 2 3 4 5 6 
#
# 1 100.7984 50.3714 49.9972 0.0000 0.0000 0.0000
# 2 50.3714 114.8299 69.7744 0.0000 0.0000 0.0000
# 3 49.9972 69.7744 120.6640 0.0000 0.0000 0.0000
# 4 0.0000 0.0000 0.0000 13.1531 0.0000 0.0000
# 5 0.0000 0.0000 0.0000 0.0000 16.7117 0.0000
# 6 0.0000 0.0000 0.0000 0.0000 0.0000 19.7581
#
#
#
# Elastic Compliance Matrix: (Units=1/GPa)
#
#
# Indices 1 2 3 4 5 6 
#
# 1 0.013532 -0.003899 -0.003352 0.000000 0.000000 0.000000
# 2 -0.003899 0.014549 -0.006798 0.000000 0.000000 0.000000
# 3 -0.003352 -0.006798 0.013607 0.000000 0.000000 0.000000
# 4 0.000000 0.000000 0.000000 0.076027 0.000000 0.000000
# 5 0.000000 0.000000 0.000000 0.000000 0.059838 0.000000
# 6 0.000000 0.000000 0.000000 0.000000 0.000000 0.050612
#
#
# Mechanical properties :
#
#
# Convention : Reuss Voigt Hill
#
# Bulk Modulus (GPa) = 73.58017 75.17537 74.37777
# Shear Modulus (GPa) = 19.17217 21.00122 20.08670
#
# Velocity S-wave (km/s) = 3.42506 3.58471 3.50579
# Velocity P-wave (km/s) = 7.78867 7.94554 7.86750
#
# Compressibility (1/GPa) = 0.01359062
#
# Stress axis : x y z
#
# Youngs Moduli (GPa) = 73.89882 68.73163 73.48965
#
# Poissons Ratio (x) = 0.26798 0.24637
# Poissons Ratio (y) = 0.28813 0.49956
# Poissons Ratio (z) = 0.24774 0.46722
#
# Static dielectric constant tensor:
#      x y z
#    x 1.511850 0.000000 0.000000 
#    y 0.000000 1.563560 0.000000 
#    z 0.000000 0.000000 1.542920 
# 
# From -- ./inp_files/64045.got.cif
#   From: 2010.05.17/outbox.cif.g08.bks.cpg/sg74_33_cif.got.tgz:64045.got - 2010.06.03 17:57:02.
