data_PCOD9535324
_publ_section_title
;
Structure prediction by ZEFSAII (Michael W. Deem and Ramdas Pophale) SiO2 
 PCOD9535324
Probable space group: I M M A
;
_chemical_formula_sum "Si O2"
_cell_formula_units_Z 88
_cell_length_a 17.829697
_cell_length_b 13.913269
_cell_length_c 21.104686
_cell_angle_alpha 90.000000
_cell_angle_beta 90.000000
_cell_angle_gamma 90.000000
_cell_volume 5235.426172
_symmetry_space_group_name_H-M "I M M A"
_symmetry_group_IT_number 74
_symmetry_cell_setting 'orthorhombic'
loop_
_space_group_symop_operation_xyz
x,y,z
-x,1/2-y,z
x,-y,-z
-x,1/2+y,-z
-x,-y,-z
x,1/2+y,-z
-x,y,z
x,1/2-y,z
1/2+x,1/2+y,1/2+z
1/2-x,-y,1/2+z
1/2+x,1/2-y,1/2-z
1/2-x,y,1/2-z
1/2-x,1/2-y,1/2-z
1/2+x,y,1/2-z
1/2-x,1/2+y,1/2+z
1/2+x,-y,1/2+z
loop_
_atom_site_type_symbol
_atom_site_label
_atom_site_fract_x
_atom_site_fract_y
_atom_site_fract_z
Si Si1 0.289928 0.500000 0.500000
Si Si2 0.780083 0.359114 0.598871
Si Si3 0.089256 0.859434 0.767519
Si Si4 0.113837 0.356324 0.842268
Si Si5 0.334439 0.454801 0.778887
Si Si6 0.416735 0.945791 0.594231
O O1 0.238464 0.572816 0.460327
O O2 0.347966 0.441953 0.454475
O O3 0.804080 0.250000 0.583612
O O4 0.699520 0.351754 0.633831
O O5 0.831692 0.410835 0.651188
O O6 0.112517 0.750000 0.755743
O O7 0.099793 0.885978 0.841926
O O8 0.000000 0.867845 0.756103
O O9 0.132906 0.938289 0.726853
O O10 0.082236 0.250000 0.850091
O O11 0.117209 0.389229 0.769247
O O12 0.080012 0.443352 0.882376
O O13 0.250000 0.456933 0.750000
O O14 0.500000 0.918960 0.569614
#
# Coordination Sequence:
#
# PCOD9535324 Si02
#       6
#     8  16  16  16  16  16
#     4  10  19  30  42  62  93 130 170 198 224 264
#     4   9  17  29  44  62  87 118 151 191 234 271
#     4   9  18  32  48  68  96 126 154 189 237 288
#     4   8  14  25  42  63  85 111 148 194 239 278
#     4   9  16  28  47  70  91 116 152 194 241 285
#     4   9  17  28  42  61  90 129 167 197 223 261
#
# _framework density 16.808565000000002
#
# number of rings (size 3 to 8) (size 9 to 14) (size 15 to 20)
#    0.000    3.091    0.000    1.909    0.000    3.636 
#    0.000    0.909    0.000    4.909    0.000    0.636 
#    0.000    0.000    0.000    0.000    0.000    0.000 
#
# Total GULP energy -244939.845284 kJ/mol
# GULP energy per Si atom -5566.814666 kJ/mol
# Density = 1.677031 g / cm^3
# Si number density = 16.808565 Si / 1000 Ang^3
#
#
#
# Elastic Constant Matrix: (Units=GPa)
#
#
# Indices 1 2 3 4 5 6 
#
# 1 7.4559 3.5427 12.7548 0.0000 0.0000 0.0000
# 2 3.5427 109.1704 46.1243 0.0000 0.0000 0.0000
# 3 12.7548 46.1243 84.4259 0.0000 0.0000 0.0000
# 4 0.0000 0.0000 0.0000 13.5072 0.0000 0.0000
# 5 0.0000 0.0000 0.0000 0.0000 3.6321 0.0000
# 6 0.0000 0.0000 0.0000 0.0000 0.0000 5.0480
#
#
#
# Elastic Compliance Matrix: (Units=1/GPa)
#
#
# Indices 1 2 3 4 5 6 
#
# 1 0.185554 0.007570 -0.032168 0.000000 0.000000 0.000000
# 2 0.007570 0.012218 -0.007818 0.000000 0.000000 0.000000
# 3 -0.032168 -0.007818 0.020976 0.000000 0.000000 0.000000
# 4 0.000000 0.000000 0.000000 0.074034 0.000000 0.000000
# 5 0.000000 0.000000 0.000000 0.000000 0.275319 0.000000
# 6 0.000000 0.000000 0.000000 0.000000 0.000000 0.198097
#
#
# Mechanical properties :
#
#
# Convention : Reuss Voigt Hill
#
# Bulk Modulus (GPa) = 6.49715 36.21063 21.35389
# Shear Modulus (GPa) = 5.66677 13.67952 9.67314
#
# Velocity S-wave (km/s) = 1.83812 2.85589 2.40154
# Velocity P-wave (km/s) = 2.89459 5.69776 4.51903
#
# Compressibility (1/GPa) = 0.15391371
#
# Stress axis : x y z
#
# Youngs Moduli (GPa) = 5.38926 81.84904 47.67356
#
# Poissons Ratio (x) = -0.61957 1.53358
# Poissons Ratio (y) = -0.04079 0.37273
# Poissons Ratio (z) = 0.17336 0.63993
#
# Static dielectric constant tensor:
#      x y z
#    x 1.583790 0.000000 0.000000 
#    y 0.000000 1.581980 0.000000 
#    z 0.000000 0.000000 1.571750 
# 
# From -- ./inp_files/52862.got.cif
#   From: 2010.05.17/outbox.cif.g08.bks.cpg/sg74_27_cif.got.tgz:52862.got - 2010.06.03 17:57:02.
