data_PCOD9535423
_publ_section_title
;
Structure prediction by ZEFSAII (Michael W. Deem and Ramdas Pophale) SiO2 
 PCOD9535423
Probable space group: I M M A
;
_chemical_formula_sum "Si O2"
_cell_formula_units_Z 68
_cell_length_a 23.983509
_cell_length_b 7.314178
_cell_length_c 17.003037
_cell_angle_alpha 90.000000
_cell_angle_beta 90.000000
_cell_angle_gamma 90.000000
_cell_volume 2982.666866
_symmetry_space_group_name_H-M "I M M A"
_symmetry_group_IT_number 74
_symmetry_cell_setting 'orthorhombic'
loop_
_space_group_symop_operation_xyz
x,y,z
-x,1/2-y,z
x,-y,-z
-x,1/2+y,-z
-x,-y,-z
x,1/2+y,-z
-x,y,z
x,1/2-y,z
1/2+x,1/2+y,1/2+z
1/2-x,-y,1/2+z
1/2+x,1/2-y,1/2-z
1/2-x,y,1/2-z
1/2-x,1/2-y,1/2-z
1/2+x,y,1/2-z
1/2-x,1/2+y,1/2+z
1/2+x,-y,1/2+z
loop_
_atom_site_type_symbol
_atom_site_label
_atom_site_fract_x
_atom_site_fract_y
_atom_site_fract_z
Si Si1 0.587566 0.527019 0.638559
Si Si2 0.209145 0.967584 0.906445
Si Si3 0.500000 0.000000 0.500000
Si Si4 0.330843 0.531735 0.906738
Si Si5 0.060593 0.527192 0.684402
O O1 0.585582 0.750000 0.633897
O O2 0.651455 0.464763 0.629625
O O3 0.548512 0.466866 0.567299
O O4 0.565844 0.475700 0.724273
O O5 0.209445 0.750000 0.892571
O O6 0.269843 0.038284 0.880260
O O7 0.206006 0.000000 0.000000
O O8 0.329610 0.750000 0.894312
O O9 0.385339 0.461678 0.862544
O O10 0.335575 0.500000 0.000000
O O11 0.061433 0.750000 0.681888
O O12 0.000000 0.469307 0.653442
#
# Coordination Sequence:
#
# PCOD9535423 Si02
#       5
#    16  16   4  16  16
#     4  10  19  30  47  71  99 128 161 199 237 284
#     4   9  17  30  47  71  97 125 161 199 238 281
#     4  12  18  28  48  70  94 128 158 184 240 288
#     4   9  18  32  52  73  96 126 161 202 243 287
#     4   9  17  30  47  71  98 123 157 202 246 284
#
# _framework density 22.798387999999999
#
# number of rings (size 3 to 8) (size 9 to 14) (size 15 to 20)
#    0.000    2.588    2.353    0.353    0.000    1.412 
#    0.000    4.706    0.000    4.235    0.000    6.588 
#    0.000    0.000    0.000    0.000    0.000    0.000 
#
# Total GULP energy -189339.208726 kJ/mol
# GULP energy per Si atom -5568.800257 kJ/mol
# Density = 2.274650 g / cm^3
# Si number density = 22.798388 Si / 1000 Ang^3
#
#
#
# Elastic Constant Matrix: (Units=GPa)
#
#
# Indices 1 2 3 4 5 6 
#
# 1 283.5473 12.3934 78.8692 0.0000 0.0000 0.0000
# 2 12.3934 92.6906 -4.1566 0.0000 0.0000 0.0000
# 3 78.8692 -4.1566 60.4761 0.0000 0.0000 0.0000
# 4 0.0000 0.0000 0.0000 -1.7561 0.0000 0.0000
# 5 0.0000 0.0000 0.0000 0.0000 40.7984 0.0000
# 6 0.0000 0.0000 0.0000 0.0000 0.0000 26.3166
#
#
#
# Elastic Compliance Matrix: (Units=1/GPa)
#
#
# Indices 1 2 3 4 5 6 
#
# 1 0.005642 -0.001088 -0.007432 0.000000 0.000000 0.000000
# 2 -0.001088 0.011032 0.002177 0.000000 0.000000 0.000000
# 3 -0.007432 0.002177 0.026378 0.000000 0.000000 0.000000
# 4 0.000000 0.000000 0.000000 -0.569454 0.000000 0.000000
# 5 0.000000 0.000000 0.000000 0.000000 0.024511 0.000000
# 6 0.000000 0.000000 0.000000 0.000000 0.000000 0.037999
#
#
# Mechanical properties :
#
#
# Convention : Reuss Voigt Hill
#
# Bulk Modulus (GPa) = 32.93319 67.88066 50.40692
# Shear Modulus (GPa) = -11.33566 36.37899 12.52166
#
# Velocity S-wave (km/s) = -2.23225 3.99893 2.34612
# Velocity P-wave (km/s) = 2.79872 7.15269 5.43110
#
# Compressibility (1/GPa) = 0.03036451
#
# Stress axis : x y z
#
# Youngs Moduli (GPa) = 177.25660 90.64863 37.91101
#
# Poissons Ratio (x) = 0.09859 0.28176
# Poissons Ratio (y) = 0.19278 -0.08252
# Poissons Ratio (z) = 1.31739 -0.19731
#
# Static dielectric constant tensor:
#      x y z
#    x 1.866140 0.000000 0.000000 
#    y 0.000000 1.908400 0.000000 
#    z 0.000000 0.000000 1.760490 
# 
# From -- ./inp_files/36101.got.cif
#   From: 2010.05.17/outbox.cif.g08.bks.cpg/sg74_19_cif.got.tgz:36101.got - 2010.06.03 17:57:02.
