data_PCOD9535394
_publ_section_title
;
Structure prediction by ZEFSAII (Michael W. Deem and Ramdas Pophale) SiO2 
 PCOD9535394
Probable space group: I M M A
;
_chemical_formula_sum "Si O2"
_cell_formula_units_Z 80
_cell_length_a 7.744990
_cell_length_b 19.485617
_cell_length_c 27.512666
_cell_angle_alpha 90.000000
_cell_angle_beta 90.000000
_cell_angle_gamma 90.000000
_cell_volume 4152.098993
_symmetry_space_group_name_H-M "I M M A"
_symmetry_group_IT_number 74
_symmetry_cell_setting 'orthorhombic'
loop_
_space_group_symop_operation_xyz
x,y,z
-x,1/2-y,z
x,-y,-z
-x,1/2+y,-z
-x,-y,-z
x,1/2+y,-z
-x,y,z
x,1/2-y,z
1/2+x,1/2+y,1/2+z
1/2-x,-y,1/2+z
1/2+x,1/2-y,1/2-z
1/2-x,y,1/2-z
1/2-x,1/2-y,1/2-z
1/2+x,y,1/2-z
1/2-x,1/2+y,1/2+z
1/2+x,-y,1/2+z
loop_
_atom_site_type_symbol
_atom_site_label
_atom_site_fract_x
_atom_site_fract_y
_atom_site_fract_z
Si Si1 0.207798 0.466889 0.849294
Si Si2 0.292053 0.825079 0.306935
Si Si3 0.205734 0.608093 0.804663
Si Si4 0.295162 0.825652 0.905246
Si Si5 0.207866 0.034027 0.450480
O O1 0.275422 0.392659 0.833698
O O2 0.270400 0.530415 0.815887
O O3 0.252117 0.486772 0.904192
O O4 0.000000 0.465259 0.844671
O O5 0.500000 0.824420 0.311941
O O6 0.227726 0.750000 0.323484
O O7 0.250000 0.831409 0.250000
O O8 0.250000 0.629032 0.750000
O O9 0.273434 0.655026 0.848449
O O10 0.000000 0.607886 0.809276
O O11 0.500000 0.822990 0.914663
O O12 0.222165 0.750000 0.915054
O O13 0.224923 0.889908 0.936373
O O14 0.000000 0.039240 0.454452
O O15 0.273868 0.000000 0.500000
#
# Coordination Sequence:
#
# PCOD9535394 Si02
#       5
#    16  16  16  16  16
#     4   9  18  31  47  68  93 122 156 192 229 272
#     4   9  17  29  45  66  94 126 157 189 226 269
#     4  10  19  30  46  69  96 125 157 191 226 268
#     4   9  18  33  51  69  92 123 155 187 226 271
#     4   9  18  33  52  72  92 116 150 192 234 274
#
# _framework density 19.267364000000001
#
# number of rings (size 3 to 8) (size 9 to 14) (size 15 to 20)
#    0.000    2.800    0.000    1.200    0.000    2.800 
#    0.000    1.000    0.000    1.200    0.000    0.000 
#    0.000    0.000    0.000    0.000    0.000    0.000 
#
# Total GULP energy -223010.707804 kJ/mol
# GULP energy per Si atom -5575.267695 kJ/mol
# Density = 1.922351 g / cm^3
# Si number density = 19.267364 Si / 1000 Ang^3
#
#
#
# Elastic Constant Matrix: (Units=GPa)
#
#
# Indices 1 2 3 4 5 6 
#
# 1 27.0849 5.8952 -12.5000 0.0000 0.0000 0.0000
# 2 5.8952 180.4862 63.2124 0.0000 0.0000 0.0000
# 3 -12.5000 63.2124 83.3408 0.0000 0.0000 0.0000
# 4 0.0000 0.0000 0.0000 9.3123 0.0000 0.0000
# 5 0.0000 0.0000 0.0000 0.0000 17.1998 0.0000
# 6 0.0000 0.0000 0.0000 0.0000 0.0000 7.7212
#
#
#
# Elastic Compliance Matrix: (Units=1/GPa)
#
#
# Indices 1 2 3 4 5 6 
#
# 1 0.042687 -0.004952 0.010159 0.000000 0.000000 0.000000
# 2 -0.004952 0.008119 -0.006901 0.000000 0.000000 0.000000
# 3 0.010159 -0.006901 0.018757 0.000000 0.000000 0.000000
# 4 0.000000 0.000000 0.000000 0.107385 0.000000 0.000000
# 5 0.000000 0.000000 0.000000 0.000000 0.058140 0.000000
# 6 0.000000 0.000000 0.000000 0.000000 0.000000 0.129514
#
#
# Mechanical properties :
#
#
# Convention : Reuss Voigt Hill
#
# Bulk Modulus (GPa) = 15.11169 44.90302 30.00736
# Shear Modulus (GPa) = 12.81887 22.46694 17.64290
#
# Velocity S-wave (km/s) = 2.58217 3.41847 3.02932
# Velocity P-wave (km/s) = 4.09271 6.23996 5.27671
#
# Compressibility (1/GPa) = 0.06617393
#
# Stress axis : x y z
#
# Youngs Moduli (GPa) = 23.42631 123.16255 53.31359
#
# Poissons Ratio (x) = 0.60992 -0.54159
# Poissons Ratio (y) = 0.11601 0.36792
# Poissons Ratio (z) = -0.23798 0.84996
#
# Static dielectric constant tensor:
#      x y z
#    x 1.701810 0.000000 0.000000 
#    y 0.000000 1.722300 0.000000 
#    z 0.000000 0.000000 1.630000 
# 
# From -- ./inp_files/63907.got.cif
#   From: 2010.05.17/outbox.cif.g08.bks.cpg/sg74_32_cif.got.tgz:63907.got - 2010.06.03 17:57:02.
