data_PCOD9535315
_publ_section_title
;
Structure prediction by ZEFSAII (Michael W. Deem and Ramdas Pophale) SiO2 
 PCOD9535315
Probable space group: I M M A
;
_chemical_formula_sum "Si O2"
_cell_formula_units_Z 128
_cell_length_a 24.617324
_cell_length_b 24.647977
_cell_length_c 11.627082
_cell_angle_alpha 90.000000
_cell_angle_beta 90.000000
_cell_angle_gamma 90.000000
_cell_volume 7054.932405
_symmetry_space_group_name_H-M "I M M A"
_symmetry_group_IT_number 74
_symmetry_cell_setting 'orthorhombic'
loop_
_space_group_symop_operation_xyz
x,y,z
-x,1/2-y,z
x,-y,-z
-x,1/2+y,-z
-x,-y,-z
x,1/2+y,-z
-x,y,z
x,1/2-y,z
1/2+x,1/2+y,1/2+z
1/2-x,-y,1/2+z
1/2+x,1/2-y,1/2-z
1/2-x,y,1/2-z
1/2-x,1/2-y,1/2-z
1/2+x,y,1/2-z
1/2-x,1/2+y,1/2+z
1/2+x,-y,1/2+z
loop_
_atom_site_type_symbol
_atom_site_label
_atom_site_fract_x
_atom_site_fract_y
_atom_site_fract_z
Si Si1 0.736925 0.813194 0.385811
Si Si2 0.060275 0.186607 0.734841
Si Si3 0.146650 0.313605 0.558101
Si Si4 0.439644 0.153073 0.119068
Si Si5 0.438673 0.813133 0.617764
Si Si6 0.563922 0.523087 0.876969
Si Si7 0.121319 0.638079 0.071169
Si Si8 0.065308 0.472948 0.872782
O O1 0.725789 0.750000 0.417912
O O2 0.750000 0.813883 0.250000
O O3 0.792008 0.834468 0.445952
O O4 0.683770 0.848076 0.410123
O O5 0.056166 0.250000 0.703764
O O6 0.107277 0.161388 0.655383
O O7 0.083988 0.181764 0.861711
O O8 0.000000 0.162531 0.724487
O O9 0.154480 0.250000 0.587181
O O10 0.110002 0.319864 0.446768
O O11 0.500000 0.165064 0.067486
O O12 0.440174 0.175242 0.247410
O O13 0.432038 0.088287 0.118912
O O14 0.500000 0.823945 0.573714
O O15 0.425546 0.750000 0.598924
O O16 0.396396 0.853427 0.559505
O O17 0.500000 0.508646 0.879133
O O18 0.581260 0.503090 0.747957
O O19 0.586815 0.500000 0.000000
O O20 0.100384 0.581575 0.120222
O O21 0.000000 0.462674 0.866783
O O22 0.073649 0.500000 0.000000
#
# Coordination Sequence:
#
# PCOD9535315 Si02
#       8
#    16  16  16  16  16  16  16  16
#     4  10  20  36  54  77 112 153 189 228 278 334
#     4  10  19  29  47  81 116 138 167 221 279 332
#     4  10  20  34  53  79 111 147 187 224 271 336
#     4  10  20  35  56  79 112 150 186 227 287 351
#     4  10  20  33  51  80 115 147 177 219 282 350
#     4   9  19  33  51  78 111 144 182 231 285 344
#     4  12  21  33  57  80 108 145 193 230 277 335
#     4  10  21  37  57  83 115 147 185 238 301 357
#
# _framework density 18.143335
#
# number of rings (size 3 to 8) (size 9 to 14) (size 15 to 20)
#    0.000    1.875    1.250    3.750    1.750    4.250 
#    0.000    0.625    0.000    4.500    0.000    0.000 
#    0.000    0.000    0.000    0.000    0.000    0.000 
#
# Total GULP energy -356503.988567 kJ/mol
# GULP energy per Si atom -5570.374821 kJ/mol
# Density = 1.810204 g / cm^3
# Si number density = 18.143335 Si / 1000 Ang^3
#
#
#
# Elastic Constant Matrix: (Units=GPa)
#
#
# Indices 1 2 3 4 5 6 
#
# 1 118.6000 25.0119 26.8595 0.0000 0.0000 0.0000
# 2 25.0119 36.9968 6.1164 0.0000 0.0000 0.0000
# 3 26.8595 6.1164 71.1925 0.0000 0.0000 0.0000
# 4 0.0000 0.0000 0.0000 483.3220 0.0000 0.0000
# 5 0.0000 0.0000 0.0000 0.0000 6.6107 0.0000
# 6 0.0000 0.0000 0.0000 0.0000 0.0000 16.4214
#
#
#
# Elastic Compliance Matrix: (Units=1/GPa)
#
#
# Indices 1 2 3 4 5 6 
#
# 1 0.010601 -0.006599 -0.003433 0.000000 0.000000 0.000000
# 2 -0.006599 0.031527 -0.000219 0.000000 0.000000 0.000000
# 3 -0.003433 -0.000219 0.015360 0.000000 0.000000 0.000000
# 4 0.000000 0.000000 0.000000 0.002069 0.000000 0.000000
# 5 0.000000 0.000000 0.000000 0.000000 0.151269 0.000000
# 6 0.000000 0.000000 0.000000 0.000000 0.000000 0.060896
#
#
# Mechanical properties :
#
#
# Convention : Reuss Voigt Hill
#
# Bulk Modulus (GPa) = 27.03666 38.08500 32.56083
# Shear Modulus (GPa) = 16.41752 112.52424 64.47088
#
# Velocity S-wave (km/s) = 3.01138 7.88380 5.96752
# Velocity P-wave (km/s) = 5.19859 10.19358 8.09118
#
# Compressibility (1/GPa) = 0.03698682
#
# Stress axis : x y z
#
# Youngs Moduli (GPa) = 94.33246 31.71887 65.10316
#
# Poissons Ratio (x) = 0.20932 0.22347
# Poissons Ratio (y) = 0.62252 0.01425
# Poissons Ratio (z) = 0.32380 0.00694
#
# Static dielectric constant tensor:
#      x y z
#    x 1.621490 0.000000 0.000000 
#    y 0.000000 1.649590 0.000000 
#    z 0.000000 0.000000 1.713820 
# 
# From -- ./inp_files/25596.got.cif
#   From: 2010.05.17/outbox.cif.g08.bks.cpg/sg74_13_cif.got.tgz:25596.got - 2010.06.03 17:57:02.
