data_PCOD9535493
_publ_section_title
;
Structure prediction by ZEFSAII (Michael W. Deem and Ramdas Pophale) SiO2 
 PCOD9535493
Probable space group: I M M A
;
_chemical_formula_sum "Si O2"
_cell_formula_units_Z 56
_cell_length_a 13.008497
_cell_length_b 17.499635
_cell_length_c 12.399223
_cell_angle_alpha 90.000000
_cell_angle_beta 90.000000
_cell_angle_gamma 90.000000
_cell_volume 2822.608093
_symmetry_space_group_name_H-M "I M M A"
_symmetry_group_IT_number 74
_symmetry_cell_setting 'orthorhombic'
loop_
_space_group_symop_operation_xyz
x,y,z
-x,1/2-y,z
x,-y,-z
-x,1/2+y,-z
-x,-y,-z
x,1/2+y,-z
-x,y,z
x,1/2-y,z
1/2+x,1/2+y,1/2+z
1/2-x,-y,1/2+z
1/2+x,1/2-y,1/2-z
1/2-x,y,1/2-z
1/2-x,1/2-y,1/2-z
1/2+x,y,1/2-z
1/2-x,1/2+y,1/2+z
1/2+x,-y,1/2+z
loop_
_atom_site_type_symbol
_atom_site_label
_atom_site_fract_x
_atom_site_fract_y
_atom_site_fract_z
Si Si1 0.833740 0.450213 0.389235
Si Si2 0.500000 0.163510 0.590632
Si Si3 0.500000 0.341147 0.020464
Si Si4 0.000000 0.440072 0.699203
Si Si5 0.389623 0.424384 0.425838
O O1 0.828440 0.500000 0.500000
O O2 0.898865 0.506881 0.313184
O O3 0.717165 0.425955 0.364496
O O4 0.902134 0.376401 0.416843
O O5 0.500000 0.250000 0.626445
O O6 0.500000 0.106505 0.690745
O O7 0.596824 0.143834 0.512925
O O8 0.500000 0.250000 0.014355
O O9 0.500000 0.381239 0.902158
O O10 0.392221 0.500000 0.500000
O O11 0.500000 0.421548 0.365583
#
# Coordination Sequence:
#
# PCOD9535493 Si02
#       5
#    16   8   8   8  16
#     4   8  15  30  48  66  93 139 189 220 244 312
#     4  10  19  30  50  86 120 138 161 217 290 333
#     4   9  16  26  44  68 100 137 173 217 267 318
#     4   9  17  30  49  74 106 135 175 224 276 317
#     4   8  16  32  52  67  96 145 192 211 238 317
#
# _framework density 19.839808000000001
#
# number of rings (size 3 to 8) (size 9 to 14) (size 15 to 20)
#    0.857    2.571    0.000    2.143    0.000    1.143 
#    0.000   12.857    0.000   17.143    0.000   16.000 
#    0.000   91.429    0.000    0.000    0.000    0.000 
#
# Total GULP energy -155878.409597 kJ/mol
# GULP energy per Si atom -5567.086057 kJ/mol
# Density = 1.979465 g / cm^3
# Si number density = 19.839808 Si / 1000 Ang^3
#
#
#
# Elastic Constant Matrix: (Units=GPa)
#
#
# Indices 1 2 3 4 5 6 
#
# 1 209.8305 72.6079 54.1080 0.0000 0.0000 0.0000
# 2 72.6079 133.7891 47.5094 0.0000 0.0000 0.0000
# 3 54.1080 47.5094 79.5081 0.0000 0.0000 0.0000
# 4 0.0000 0.0000 0.0000 27.7301 0.0000 0.0000
# 5 0.0000 0.0000 0.0000 0.0000 11.1175 0.0000
# 6 0.0000 0.0000 0.0000 0.0000 0.0000 5.0571
#
#
#
# Elastic Compliance Matrix: (Units=1/GPa)
#
#
# Indices 1 2 3 4 5 6 
#
# 1 0.006344 -0.002424 -0.002869 0.000000 0.000000 0.000000
# 2 -0.002424 0.010414 -0.004573 0.000000 0.000000 0.000000
# 3 -0.002869 -0.004573 0.017262 0.000000 0.000000 0.000000
# 4 0.000000 0.000000 0.000000 0.036062 0.000000 0.000000
# 5 0.000000 0.000000 0.000000 0.000000 0.089948 0.000000
# 6 0.000000 0.000000 0.000000 0.000000 0.000000 0.197744
#
#
# Mechanical properties :
#
#
# Convention : Reuss Voigt Hill
#
# Bulk Modulus (GPa) = 69.98773 85.73094 77.85934
# Shear Modulus (GPa) = 13.07977 25.37443 19.22710
#
# Velocity S-wave (km/s) = 2.57041 3.58014 3.11644
# Velocity P-wave (km/s) = 6.64547 7.77144 7.23041
#
# Compressibility (1/GPa) = 0.01428822
#
# Stress axis : x y z
#
# Youngs Moduli (GPa) = 157.61764 96.02393 57.92970
#
# Poissons Ratio (x) = 0.23280 0.16620
# Poissons Ratio (y) = 0.38213 0.26491
# Poissons Ratio (z) = 0.45220 0.43911
#
# Static dielectric constant tensor:
#      x y z
#    x 1.750820 0.000000 0.000000 
#    y 0.000000 1.651220 0.000000 
#    z 0.000000 0.000000 1.746220 
# 
# From -- ./inp_files/31796.got.cif
#   From: 2010.05.17/outbox.cif.g08.bks.cpg/sg74_16_cif.got.tgz:31796.got - 2010.06.03 17:57:02.
