data_PCOD9535472
_publ_section_title
;
Structure prediction by ZEFSAII (Michael W. Deem and Ramdas Pophale) SiO2 
 PCOD9535472
Probable space group: I M M A
;
_chemical_formula_sum "Si O2"
_cell_formula_units_Z 84
_cell_length_a 7.817515
_cell_length_b 28.175376
_cell_length_c 17.888472
_cell_angle_alpha 90.000000
_cell_angle_beta 90.000000
_cell_angle_gamma 90.000000
_cell_volume 3940.140325
_symmetry_space_group_name_H-M "I M M A"
_symmetry_group_IT_number 74
_symmetry_cell_setting 'orthorhombic'
loop_
_space_group_symop_operation_xyz
x,y,z
-x,1/2-y,z
x,-y,-z
-x,1/2+y,-z
-x,-y,-z
x,1/2+y,-z
-x,y,z
x,1/2-y,z
1/2+x,1/2+y,1/2+z
1/2-x,-y,1/2+z
1/2+x,1/2-y,1/2-z
1/2-x,y,1/2-z
1/2-x,1/2-y,1/2-z
1/2+x,y,1/2-z
1/2-x,1/2+y,1/2+z
1/2+x,-y,1/2+z
loop_
_atom_site_type_symbol
_atom_site_label
_atom_site_fract_x
_atom_site_fract_y
_atom_site_fract_z
Si Si1 0.298804 0.801438 0.470954
Si Si2 0.297462 0.095363 0.536497
Si Si3 0.691298 0.817163 0.649954
Si Si4 0.704089 0.024850 0.832275
Si Si5 0.000000 0.250000 0.301495
Si Si6 0.800963 0.920617 0.631279
O O1 0.500000 0.799638 0.450818
O O2 0.222530 0.750000 0.450530
O O3 0.230672 0.851859 0.442069
O O4 0.290756 0.806551 0.561012
O O5 0.500000 0.099909 0.520021
O O6 0.272775 0.058176 0.602353
O O7 0.212047 0.079374 0.459127
O O8 0.500000 0.800339 0.671240
O O9 0.705439 0.873654 0.658855
O O10 0.848557 0.790737 0.686587
O O11 0.500000 0.023041 0.840659
O O12 0.750000 0.042793 0.750000
O O13 0.769363 0.970774 0.840476
O O14 0.000000 0.916124 0.652294
#
# Coordination Sequence:
#
# PCOD9535472 Si02
#       6
#    16  16  16  16   4  16
#     4   8  14  27  47  74 110 146 184 224 271 333
#     4  10  20  33  55  85 116 150 186 233 287 344
#     4  10  19  30  48  78 116 151 189 229 285 339
#     4  11  24  40  58  79 110 148 193 241 291 351
#     4  12  18  28  48  78 120 156 182 240 272 344
#     4  10  20  36  56  83 115 147 189 239 289 343
#
# _framework density 21.319037000000002
#
# number of rings (size 3 to 8) (size 9 to 14) (size 15 to 20)
#    0.000    2.095    1.905    3.714    0.000    5.333 
#    0.000    0.000    0.000    0.571    0.000    0.667 
#    0.000    0.000    0.000    0.000    0.000    0.000 
#
# Total GULP energy -234270.374583 kJ/mol
# GULP energy per Si atom -5577.866061 kJ/mol
# Density = 2.127051 g / cm^3
# Si number density = 21.319037 Si / 1000 Ang^3
#
#
#
# Elastic Constant Matrix: (Units=GPa)
#
#
# Indices 1 2 3 4 5 6 
#
# 1 106.2800 29.5320 9.7207 0.0000 0.0000 0.0000
# 2 29.5320 138.7307 34.1236 0.0000 0.0000 0.0000
# 3 9.7207 34.1236 56.6863 0.0002 0.0000 0.0000
# 4 0.0000 0.0000 0.0002 -43.7716 0.0000 0.0000
# 5 0.0000 0.0000 0.0000 0.0000 25.8343 0.0000
# 6 0.0000 0.0000 0.0000 0.0000 0.0000 40.4691
#
#
#
# Elastic Compliance Matrix: (Units=1/GPa)
#
#
# Indices 1 2 3 4 5 6 
#
# 1 0.010013 -0.002006 -0.000509 0.000000 0.000000 0.000000
# 2 -0.002006 0.008863 -0.004991 0.000000 0.000000 0.000000
# 3 -0.000509 -0.004991 0.020733 0.000000 0.000000 0.000000
# 4 0.000000 0.000000 0.000000 -0.022846 0.000000 0.000000
# 5 0.000000 0.000000 0.000000 0.000000 0.038708 0.000000
# 6 0.000000 0.000000 0.000000 0.000000 0.000000 0.024710
#
#
# Mechanical properties :
#
#
# Convention : Reuss Voigt Hill
#
# Bulk Modulus (GPa) = 40.65813 49.82771 45.24292
# Shear Modulus (GPa) = 48.35883 19.72775 34.04329
#
# Velocity S-wave (km/s) = 4.76788 3.04527 4.00039
# Velocity P-wave (km/s) = 7.03014 5.98231 6.52729
#
# Compressibility (1/GPa) = 0.02459533
#
# Stress axis : x y z
#
# Youngs Moduli (GPa) = 99.86845 112.82886 48.23258
#
# Poissons Ratio (x) = 0.22636 0.02457
# Poissons Ratio (y) = 0.20036 0.24074
# Poissons Ratio (z) = 0.05087 0.56316
#
# Static dielectric constant tensor:
#      x y z
#    x 1.791590 0.000000 0.000000 
#    y 0.000000 1.828430 0.000000 
#    z 0.000000 0.000000 1.748550 
# 
# From -- ./inp_files/48969.got.cif
#   From: 2010.05.17/outbox.cif.g08.bks.cpg/sg74_25_cif.got.tgz:48969.got - 2010.06.03 17:57:02.
