data_PCOD9535384
_publ_section_title
;
Structure prediction by ZEFSAII (Michael W. Deem and Ramdas Pophale) SiO2 
 PCOD9535384
Probable space group: I M M A
;
_chemical_formula_sum "Si O2"
_cell_formula_units_Z 64
_cell_length_a 13.934860
_cell_length_b 8.956981
_cell_length_c 35.471332
_cell_angle_alpha 90.000000
_cell_angle_beta 90.000000
_cell_angle_gamma 90.000000
_cell_volume 4427.328631
_symmetry_space_group_name_H-M "I M M A"
_symmetry_group_IT_number 74
_symmetry_cell_setting 'orthorhombic'
loop_
_space_group_symop_operation_xyz
x,y,z
-x,1/2-y,z
x,-y,-z
-x,1/2+y,-z
-x,-y,-z
x,1/2+y,-z
-x,y,z
x,1/2-y,z
1/2+x,1/2+y,1/2+z
1/2-x,-y,1/2+z
1/2+x,1/2-y,1/2-z
1/2-x,y,1/2-z
1/2-x,1/2-y,1/2-z
1/2+x,y,1/2-z
1/2-x,1/2+y,1/2+z
1/2+x,-y,1/2+z
loop_
_atom_site_type_symbol
_atom_site_label
_atom_site_fract_x
_atom_site_fract_y
_atom_site_fract_z
Si Si1 0.388301 0.570782 0.116532
Si Si2 0.888055 0.928691 0.765945
Si Si3 0.383259 0.577637 0.961494
Si Si4 0.286556 0.069952 0.805824
O O1 0.500000 0.526436 0.122599
O O2 0.386695 0.750000 0.112914
O O3 0.353605 0.500777 0.077316
O O4 0.326418 0.529953 0.153031
O O5 0.872729 0.750000 0.764555
O O6 0.000000 0.957200 0.772913
O O7 0.817567 0.002338 0.796563
O O8 0.855610 0.001131 0.726270
O O9 0.500000 0.569935 0.961848
O O10 0.355507 0.750000 0.961386
O O11 0.349913 0.500000 0.000000
O O12 0.285193 0.250000 0.802191
#
# Coordination Sequence:
#
# PCOD9535384 Si02
#       4
#    16  16  16  16
#     4   9  17  28  41  59  84 111 139 172 208 246
#     4  10  20  32  45  61  84 113 142 175 214 254
#     4   9  16  25  38  56  79 109 141 170 202 241
#     4  10  19  30  46  65  84 109 142 179 214 250
#
# _framework density 14.455669
#
# number of rings (size 3 to 8) (size 9 to 14) (size 15 to 20)
#    0.000    2.500    0.000    4.500    0.000    8.000 
#    0.000    2.500    0.000    0.000    0.000    0.000 
#    0.000    1.000    0.000    3.250    0.000    4.750 
#
# Total GULP energy -178347.831219 kJ/mol
# GULP energy per Si atom -5573.369726 kJ/mol
# Density = 1.442277 g / cm^3
# Si number density = 14.455669 Si / 1000 Ang^3
#
#
#
# Elastic Constant Matrix: (Units=GPa)
#
#
# Indices 1 2 3 4 5 6 
#
# 1 79.5617 41.0155 60.6837 0.0000 0.0000 0.0000
# 2 41.0155 66.7906 64.8282 0.0000 0.0000 0.0000
# 3 60.6837 64.8282 158.8491 0.0000 0.0000 0.0000
# 4 0.0000 0.0000 0.0000 26.3679 0.0000 0.0000
# 5 0.0000 0.0000 0.0000 0.0000 20.6269 0.0000
# 6 0.0000 0.0000 0.0000 0.0000 0.0000 17.1827
#
#
#
# Elastic Compliance Matrix: (Units=1/GPa)
#
#
# Indices 1 2 3 4 5 6 
#
# 1 0.020067 -0.008085 -0.004367 0.000000 0.000000 0.000000
# 2 -0.008085 0.028051 -0.008359 0.000000 0.000000 0.000000
# 3 -0.004367 -0.008359 0.011375 0.000000 0.000000 0.000000
# 4 0.000000 0.000000 0.000000 0.037925 0.000000 0.000000
# 5 0.000000 0.000000 0.000000 0.000000 0.048480 0.000000
# 6 0.000000 0.000000 0.000000 0.000000 0.000000 0.058198
#
#
# Mechanical properties :
#
#
# Convention : Reuss Voigt Hill
#
# Bulk Modulus (GPa) = 55.95507 70.91735 63.43621
# Shear Modulus (GPa) = 19.86695 22.08045 20.97370
#
# Velocity S-wave (km/s) = 3.71123 3.91251 3.81320
# Velocity P-wave (km/s) = 7.56018 8.34118 7.96027
#
# Compressibility (1/GPa) = 0.01787148
#
# Stress axis : x y z
#
# Youngs Moduli (GPa) = 49.83246 35.64991 87.91294
#
# Poissons Ratio (x) = 0.28822 0.38388
# Poissons Ratio (y) = 0.40289 0.73488
# Poissons Ratio (z) = 0.21760 0.29800
#
# Static dielectric constant tensor:
#      x y z
#    x 1.459890 0.000000 0.000000 
#    y 0.000000 1.485650 0.000000 
#    z 0.000000 0.000000 1.469090 
# 
# From -- ./inp_files/69900.got.cif
#   From: 2010.05.17/outbox.cif.g08.bks.cpg/sg74_35_cif.got.tgz:69900.got - 2010.06.03 17:57:02.
