data_PCOD9535252
_publ_section_title
;
Structure prediction by ZEFSAII (Michael W. Deem and Ramdas Pophale) SiO2 
 PCOD9535252
Probable space group: I M M A
;
_chemical_formula_sum "Si O2"
_cell_formula_units_Z 96
_cell_length_a 19.742101
_cell_length_b 7.564010
_cell_length_c 30.765115
_cell_angle_alpha 90.000000
_cell_angle_beta 90.000000
_cell_angle_gamma 90.000000
_cell_volume 4594.137683
_symmetry_space_group_name_H-M "I M M A"
_symmetry_group_IT_number 74
_symmetry_cell_setting 'orthorhombic'
loop_
_space_group_symop_operation_xyz
x,y,z
-x,1/2-y,z
x,-y,-z
-x,1/2+y,-z
-x,-y,-z
x,1/2+y,-z
-x,y,z
x,1/2-y,z
1/2+x,1/2+y,1/2+z
1/2-x,-y,1/2+z
1/2+x,1/2-y,1/2-z
1/2-x,y,1/2-z
1/2-x,1/2-y,1/2-z
1/2+x,y,1/2-z
1/2-x,1/2+y,1/2+z
1/2+x,-y,1/2+z
loop_
_atom_site_type_symbol
_atom_site_label
_atom_site_fract_x
_atom_site_fract_y
_atom_site_fract_z
Si Si1 0.226156 0.966475 0.297775
Si Si2 0.076385 0.040466 0.049632
Si Si3 0.786637 0.461275 0.545662
Si Si4 0.809835 0.038555 0.880574
Si Si5 0.428236 0.535408 0.069561
Si Si6 0.924203 0.535877 0.327645
O O1 0.224273 0.750000 0.298765
O O2 0.250000 0.020533 0.250000
O O3 0.282684 0.024026 0.333531
O O4 0.148217 0.023899 0.307983
O O5 0.072754 0.250000 0.051304
O O6 0.000000 0.965703 0.053109
O O7 0.121429 0.990596 0.091724
O O8 0.100442 0.000000 0.000000
O O9 0.753287 0.500000 0.500000
O O10 0.789370 0.250000 0.550833
O O11 0.745909 0.532904 0.585947
O O12 0.862237 0.534556 0.546316
O O13 0.805139 0.250000 0.877444
O O14 0.500000 0.467601 0.053354
O O15 0.428842 0.750000 0.066248
O O16 0.421993 0.496533 0.120869
O O17 0.924699 0.750000 0.323420
O O18 0.000000 0.476038 0.311968
#
# Coordination Sequence:
#
# PCOD9535252 Si02
#       6
#    16  16  16  16  16  16
#     4   9  16  27  44  69 101 135 171 217 266 306
#     4  10  21  37  57  80 105 135 172 212 257 316
#     4  10  19  29  42  64  93 124 160 195 236 285
#     4  10  19  32  50  73 103 136 167 206 258 311
#     4   8  13  23  39  57  81 116 155 191 227 272
#     4   8  12  21  39  60  84 120 164 202 240 291
#
# _framework density 20.896197000000001
#
# number of rings (size 3 to 8) (size 9 to 14) (size 15 to 20)
#    0.000    2.833    1.667    2.000    0.000    3.333 
#    0.000    0.833    0.000    3.500    0.000    0.000 
#    0.000    0.667    0.000    0.000    0.000    0.167 
#
# Total GULP energy -267221.378790 kJ/mol
# GULP energy per Si atom -5567.112058 kJ/mol
# Density = 2.084864 g / cm^3
# Si number density = 20.896197 Si / 1000 Ang^3
#
#
#
# Elastic Constant Matrix: (Units=GPa)
#
#
# Indices 1 2 3 4 5 6 
#
# 1 173.4734 3.5677 85.5184 0.0000 0.0000 0.0000
# 2 3.5677 50.4270 7.1966 0.0000 0.0000 0.0000
# 3 85.5184 7.1966 161.7653 0.0000 0.0000 0.0000
# 4 0.0000 0.0000 0.0000 8.9622 0.0000 0.0000
# 5 0.0000 0.0000 0.0000 0.0000 29.8233 0.0000
# 6 0.0000 0.0000 0.0000 0.0000 0.0000 94.5237
#
#
#
# Elastic Compliance Matrix: (Units=1/GPa)
#
#
# Indices 1 2 3 4 5 6 
#
# 1 0.007797 0.000037 -0.004123 0.000000 0.000000 0.000000
# 2 0.000037 0.019958 -0.000907 0.000000 0.000000 0.000000
# 3 -0.004123 -0.000907 0.008402 0.000000 0.000000 0.000000
# 4 0.000000 0.000000 0.000000 0.111579 0.000000 0.000000
# 5 0.000000 0.000000 0.000000 0.000000 0.033531 0.000000
# 6 0.000000 0.000000 0.000000 0.000000 0.000000 0.010579
#
#
# Mechanical properties :
#
#
# Convention : Reuss Voigt Hill
#
# Bulk Modulus (GPa) = 38.21404 64.24791 51.23098
# Shear Modulus (GPa) = 23.74666 45.95403 34.85035
#
# Velocity S-wave (km/s) = 3.37473 4.69461 4.08828
# Velocity P-wave (km/s) = 5.78898 7.75878 6.84511
#
# Compressibility (1/GPa) = 0.02616839
#
# Stress axis : x y z
#
# Youngs Moduli (GPa) = 128.26231 50.10636 119.01944
#
# Poissons Ratio (x) = -0.00185 0.49076
# Poissons Ratio (y) = -0.00473 0.10799
# Poissons Ratio (z) = 0.52887 0.04546
#
# Static dielectric constant tensor:
#      x y z
#    x 1.832360 0.000000 0.000000 
#    y 0.000000 1.792910 0.000000 
#    z 0.000000 0.000000 1.716820 
# 
# From -- ./inp_files/68130.got.cif
#   From: 2010.05.17/outbox.cif.g08.bks.cpg/sg74_35_cif.got.tgz:68130.got - 2010.06.03 17:57:02.
