data_PCOD9535294
_publ_section_title
;
Structure prediction by ZEFSAII (Michael W. Deem and Ramdas Pophale) SiO2 
 PCOD9535294
Probable space group: I M M A
;
_chemical_formula_sum "Si O2"
_cell_formula_units_Z 112
_cell_length_a 21.047514
_cell_length_b 16.456713
_cell_length_c 14.081820
_cell_angle_alpha 90.000000
_cell_angle_beta 90.000000
_cell_angle_gamma 90.000000
_cell_volume 4877.560792
_symmetry_space_group_name_H-M "I M M A"
_symmetry_group_IT_number 74
_symmetry_cell_setting 'orthorhombic'
loop_
_space_group_symop_operation_xyz
x,y,z
-x,1/2-y,z
x,-y,-z
-x,1/2+y,-z
-x,-y,-z
x,1/2+y,-z
-x,y,z
x,1/2-y,z
1/2+x,1/2+y,1/2+z
1/2-x,-y,1/2+z
1/2+x,1/2-y,1/2-z
1/2-x,y,1/2-z
1/2-x,1/2-y,1/2-z
1/2+x,y,1/2-z
1/2-x,1/2+y,1/2+z
1/2+x,-y,1/2+z
loop_
_atom_site_type_symbol
_atom_site_label
_atom_site_fract_x
_atom_site_fract_y
_atom_site_fract_z
Si Si1 0.289632 0.341160 0.165549
Si Si2 0.700875 0.348067 0.946487
Si Si3 0.928263 0.659255 0.938633
Si Si4 0.930793 0.910365 0.454515
Si Si5 0.069494 0.632021 0.664276
Si Si6 0.669831 0.423007 0.572178
Si Si7 0.929707 0.996851 0.801626
O O1 0.262445 0.250000 0.154935
O O2 0.250000 0.382903 0.250000
O O3 0.290877 0.375021 0.058581
O O4 0.362862 0.335571 0.196765
O O5 0.699547 0.250000 0.943437
O O6 0.634848 0.383781 0.907299
O O7 0.763198 0.385481 0.899653
O O8 0.920664 0.750000 0.899230
O O9 0.925662 0.587129 0.862251
O O10 0.000000 0.654350 0.980001
O O11 0.873278 0.640827 0.013646
O O12 0.931562 0.856206 0.551571
O O13 0.000000 0.898670 0.407678
O O14 0.927388 0.000000 0.500000
O O15 0.073061 0.536904 0.695093
O O16 0.000000 0.659497 0.700297
O O17 0.677224 0.500000 0.500000
O O18 0.627406 0.450161 0.661086
O O19 0.000000 0.031713 0.819826
#
# Coordination Sequence:
#
# PCOD9535294 Si02
#       7
#    16  16  16  16  16  16  16
#     4   9  19  31  45  66  99 135 164 199 245 299
#     4  10  20  33  49  73 100 130 169 208 248 300
#     4   9  17  28  42  62  91 131 174 209 243 285
#     4   9  18  35  57  78 101 127 159 207 261 313
#     4   9  18  32  50  73  99 128 166 207 250 305
#     4  10  19  29  45  65  95 134 171 208 243 285
#     4   9  18  31  47  71 101 133 171 212 251 297
#
# _framework density 22.962297
#
# number of rings (size 3 to 8) (size 9 to 14) (size 15 to 20)
#    0.000    2.714    0.000    1.286    4.000    2.857 
#    0.000    4.286    0.000    0.000    0.000    3.000 
#    0.000    6.857    0.000    0.000    0.000    0.000 
#
# Total GULP energy -312333.195045 kJ/mol
# GULP energy per Si atom -5577.378483 kJ/mol
# Density = 2.291003 g / cm^3
# Si number density = 22.962297 Si / 1000 Ang^3
#
#
#
# Elastic Constant Matrix: (Units=GPa)
#
#
# Indices 1 2 3 4 5 6 
#
# 1 204.5788 59.8877 24.8869 0.0000 0.0000 0.0000
# 2 59.8877 60.1139 8.1427 0.0000 0.0000 0.0000
# 3 24.8869 8.1427 38.0945 0.0000 0.0000 0.0000
# 4 0.0000 0.0000 0.0000 7.6603 0.0000 0.0000
# 5 0.0000 0.0000 0.0000 0.0000 16.9227 0.0000
# 6 0.0000 0.0000 0.0000 0.0000 0.0000 42.8047
#
#
#
# Elastic Compliance Matrix: (Units=1/GPa)
#
#
# Indices 1 2 3 4 5 6 
#
# 1 0.007283 -0.006808 -0.003303 0.000000 0.000000 0.000000
# 2 -0.006808 0.023495 -0.000574 0.000000 0.000000 0.000000
# 3 -0.003303 -0.000574 0.028531 0.000000 0.000000 0.000000
# 4 0.000000 0.000000 0.000000 0.130544 0.000000 0.000000
# 5 0.000000 0.000000 0.000000 0.000000 0.059092 0.000000
# 6 0.000000 0.000000 0.000000 0.000000 0.000000 0.023362
#
#
# Mechanical properties :
#
#
# Convention : Reuss Voigt Hill
#
# Bulk Modulus (GPa) = 26.35823 54.29130 40.32477
# Shear Modulus (GPa) = 16.32262 27.46886 21.89574
#
# Velocity S-wave (km/s) = 2.66906 3.46245 3.09131
# Velocity P-wave (km/s) = 4.58283 6.29919 5.50827
#
# Compressibility (1/GPa) = 0.03793881
#
# Stress axis : x y z
#
# Youngs Moduli (GPa) = 137.30941 42.56164 35.04974
#
# Poissons Ratio (x) = 0.28976 0.11576
# Poissons Ratio (y) = 0.93481 0.02013
# Poissons Ratio (z) = 0.45348 0.02445
#
# Static dielectric constant tensor:
#      x y z
#    x 1.880080 0.000000 0.000000 
#    y 0.000000 1.894130 0.000000 
#    z 0.000000 0.000000 1.962250 
# 
# From -- ./inp_files/45454.got.cif
#   From: 2010.05.17/outbox.cif.g08.bks.cpg/sg74_23_cif.got.tgz:45454.got - 2010.06.03 17:57:02.
