data_PCOD9535365
_publ_section_title
;
Structure prediction by ZEFSAII (Michael W. Deem and Ramdas Pophale) SiO2 
 PCOD9535365
Probable space group: I M M A
;
_chemical_formula_sum "Si O2"
_cell_formula_units_Z 104
_cell_length_a 29.743967
_cell_length_b 7.893763
_cell_length_c 24.911451
_cell_angle_alpha 90.000000
_cell_angle_beta 90.000000
_cell_angle_gamma 90.000000
_cell_volume 5849.005073
_symmetry_space_group_name_H-M "I M M A"
_symmetry_group_IT_number 74
_symmetry_cell_setting 'orthorhombic'
loop_
_space_group_symop_operation_xyz
x,y,z
-x,1/2-y,z
x,-y,-z
-x,1/2+y,-z
-x,-y,-z
x,1/2+y,-z
-x,y,z
x,1/2-y,z
1/2+x,1/2+y,1/2+z
1/2-x,-y,1/2+z
1/2+x,1/2-y,1/2-z
1/2-x,y,1/2-z
1/2-x,1/2-y,1/2-z
1/2+x,y,1/2-z
1/2-x,1/2+y,1/2+z
1/2+x,-y,1/2+z
loop_
_atom_site_type_symbol
_atom_site_label
_atom_site_fract_x
_atom_site_fract_y
_atom_site_fract_z
Si Si1 0.175420 0.952071 0.062639
Si Si2 0.773312 0.953851 0.437080
Si Si3 0.500000 0.954483 0.562271
Si Si4 0.128550 0.454915 0.562667
Si Si5 0.552213 0.545593 0.739086
Si Si6 0.587167 0.453286 0.372725
Si Si7 0.050914 0.952243 0.359435
O O1 0.176930 0.750000 0.064340
O O2 0.224531 0.017399 0.082174
O O3 0.133905 0.008311 0.098649
O O4 0.168934 0.000000 0.000000
O O5 0.773323 0.750000 0.431392
O O6 0.822072 0.015575 0.417370
O O7 0.773391 0.000000 0.500000
O O8 0.500000 0.750000 0.566071
O O9 0.454981 0.017029 0.591940
O O10 0.500000 0.000000 0.500000
O O11 0.123238 0.500000 0.500000
O O12 0.128853 0.250000 0.565906
O O13 0.087570 0.519789 0.598803
O O14 0.500000 0.496511 0.729613
O O15 0.553570 0.750000 0.740718
O O16 0.581213 0.485230 0.688429
O O17 0.565159 0.482578 0.797945
O O18 0.582876 0.250000 0.370702
O O19 0.048389 0.750000 0.367407
O O20 0.000000 0.020960 0.366046
#
# Coordination Sequence:
#
# PCOD9535365 Si02
#       7
#    16  16   8  16  16  16  16
#     4  10  19  30  45  67  92 118 152 191 231 273
#     4   8  15  28  45  64  88 119 153 186 220 266
#     4  10  20  32  44  62  90 120 147 180 225 276
#     4   9  17  30  48  70  97 126 152 181 223 270
#     4   9  17  32  51  67  86 118 158 193 226 268
#     4  10  19  32  48  65  89 119 152 191 232 273
#     4   9  18  31  47  70  98 123 149 187 228 267
#
# _framework density 17.780801
#
# number of rings (size 3 to 8) (size 9 to 14) (size 15 to 20)
#    0.000    2.769    0.769    0.923    0.000    4.000 
#    0.000    0.000    0.000    0.923    0.000    6.462 
#    0.000    0.000    0.000    0.000    0.000    0.000 
#
# Total GULP energy -289632.129710 kJ/mol
# GULP energy per Si atom -5569.848648 kJ/mol
# Density = 1.774033 g / cm^3
# Si number density = 17.780801 Si / 1000 Ang^3
#
#
#
# Elastic Constant Matrix: (Units=GPa)
#
#
# Indices 1 2 3 4 5 6 
#
# 1 174.1071 7.9430 96.3698 0.0000 0.0000 0.0000
# 2 7.9430 15.9551 0.5435 0.0000 0.0000 0.0000
# 3 96.3698 0.5435 98.6833 0.0000 0.0000 0.0000
# 4 0.0000 0.0000 0.0000 20.2568 0.0000 0.0000
# 5 0.0000 0.0000 0.0000 0.0000 8.3668 0.0000
# 6 0.0000 0.0000 0.0000 0.0000 0.0000 6.6197
#
#
#
# Elastic Compliance Matrix: (Units=1/GPa)
#
#
# Indices 1 2 3 4 5 6 
#
# 1 0.013063 -0.006070 -0.012723 0.000000 0.000000 0.000000
# 2 -0.006070 0.065508 0.005567 0.000000 0.000000 0.000000
# 3 -0.012723 0.005567 0.022528 0.000000 0.000000 0.000000
# 4 0.000000 0.000000 0.000000 0.049366 0.000000 0.000000
# 5 0.000000 0.000000 0.000000 0.000000 0.119521 0.000000
# 6 0.000000 0.000000 0.000000 0.000000 0.000000 0.151064
#
#
# Mechanical properties :
#
#
# Convention : Reuss Voigt Hill
#
# Bulk Modulus (GPa) = 13.39652 55.38423 34.39037
# Shear Modulus (GPa) = 10.58459 19.30793 14.94626
#
# Velocity S-wave (km/s) = 2.44249 3.29885 2.90243
# Velocity P-wave (km/s) = 3.93763 6.76209 5.53312
#
# Compressibility (1/GPa) = 0.07464628
#
# Stress axis : x y z
#
# Youngs Moduli (GPa) = 76.55239 15.26525 44.38968
#
# Poissons Ratio (x) = 0.09266 0.56478
# Poissons Ratio (y) = 0.46466 -0.24711
# Poissons Ratio (z) = 0.97400 -0.08498
#
# Static dielectric constant tensor:
#      x y z
#    x 1.660470 0.000000 0.000000 
#    y 0.000000 1.627150 0.000000 
#    z 0.000000 0.000000 1.582020 
# 
# From -- ./inp_files/57812.got.cif
#   From: 2010.05.17/outbox.cif.g08.bks.cpg/sg74_29_cif.got.tgz:57812.got - 2010.06.03 17:57:02.
