data_PCOD9535054
_publ_section_title
;
Structure prediction by ZEFSAII (Michael W. Deem and Ramdas Pophale) SiO2 
 PCOD9535054
Probable space group: I M M A
;
_chemical_formula_sum "Si O2"
_cell_formula_units_Z 84
_cell_length_a 23.398970
_cell_length_b 16.612381
_cell_length_c 7.632058
_cell_angle_alpha 90.000000
_cell_angle_beta 90.000000
_cell_angle_gamma 90.000000
_cell_volume 2966.677144
_symmetry_space_group_name_H-M "I M M A"
_symmetry_group_IT_number 74
_symmetry_cell_setting 'orthorhombic'
loop_
_space_group_symop_operation_xyz
x,y,z
-x,1/2-y,z
x,-y,-z
-x,1/2+y,-z
-x,-y,-z
x,1/2+y,-z
-x,y,z
x,1/2-y,z
1/2+x,1/2+y,1/2+z
1/2-x,-y,1/2+z
1/2+x,1/2-y,1/2-z
1/2-x,y,1/2-z
1/2-x,1/2-y,1/2-z
1/2+x,y,1/2-z
1/2-x,1/2+y,1/2+z
1/2+x,-y,1/2+z
loop_
_atom_site_type_symbol
_atom_site_label
_atom_site_fract_x
_atom_site_fract_y
_atom_site_fract_z
Si Si1 0.000000 0.750000 0.915753
Si Si2 0.876485 0.082323 0.308234
Si Si3 0.870847 0.349315 0.686826
Si Si4 0.712683 0.415209 0.509375
Si Si5 0.500000 0.923028 0.776985
Si Si6 0.500000 0.657158 0.144138
Si Si7 0.258850 0.250000 0.455463
Si Si8 0.885335 0.750000 0.861219
O O1 0.000000 0.836527 0.820033
O O2 0.937502 0.750000 0.992771
O O3 0.824537 0.072856 0.170023
O O4 0.936423 0.040090 0.248647
O O5 0.888511 0.175879 0.266135
O O6 0.866727 0.908766 0.484222
O O7 0.858215 0.250000 0.658612
O O8 0.938577 0.354381 0.732518
O O9 0.831671 0.392222 0.835471
O O10 0.744680 0.500000 0.500000
O O11 0.755684 0.338771 0.518051
O O12 0.500000 0.097717 0.018835
O O13 0.500000 0.750000 0.079555
O O14 0.250000 0.250000 0.250000
O O15 0.327473 0.250000 0.467400
#
# Coordination Sequence:
#
# PCOD9535054 Si02
#       8
#     4  16  16  16   8   8   8   8
#     4   8  10  18  42  84 128 150 210 270 300 392
#     4   9  17  31  55  86 129 176 226 279 339 401
#     4  10  18  33  59  91 134 184 239 293 346 418
#     4  11  24  41  67 100 132 173 225 285 358 419
#     4   8  12  23  45  78 120 176 224 271 331 398
#     4   8  14  25  46  84 128 179 238 291 339 400
#     4  10  22  45  76  95 134 184 222 282 350 410
#     4   8  14  27  55  91 120 169 214 259 332 383
#
# _framework density 28.314506999999999
#
# number of rings (size 3 to 8) (size 9 to 14) (size 15 to 20)
#    0.000    2.667    2.381    0.000    0.000    1.524 
#    0.000    2.857    8.381    8.000    0.000    0.000 
#    0.000    0.000    0.000    0.000    0.000    0.000 
#
# Total GULP energy -234108.292774 kJ/mol
# GULP energy per Si atom -5574.006971 kJ/mol
# Density = 2.825006 g / cm^3
# Si number density = 28.314507 Si / 1000 Ang^3
#
#
#
# Elastic Constant Matrix: (Units=GPa)
#
#
# Indices 1 2 3 4 5 6 
#
# 1 122.0979 37.2332 21.6541 0.0000 0.0000 0.0000
# 2 37.2332 190.6083 14.7903 0.0000 0.0000 0.0000
# 3 21.6541 14.7903 153.7573 0.0000 0.0000 0.0000
# 4 0.0000 0.0000 0.0000 -23.5803 0.0000 0.0000
# 5 0.0000 0.0000 0.0000 0.0000 -35.7905 0.0000
# 6 0.0000 0.0000 0.0000 0.0000 0.0000 17.9927
#
#
#
# Elastic Compliance Matrix: (Units=1/GPa)
#
#
# Indices 1 2 3 4 5 6 
#
# 1 0.008888 -0.001651 -0.001093 0.000000 0.000000 0.000000
# 2 -0.001651 0.005593 -0.000305 0.000000 0.000000 0.000000
# 3 -0.001093 -0.000305 0.006687 0.000000 0.000000 0.000000
# 4 0.000000 0.000000 0.000000 -0.042408 0.000000 0.000000
# 5 0.000000 0.000000 0.000000 0.000000 -0.027940 0.000000
# 6 0.000000 0.000000 0.000000 0.000000 0.000000 0.055578
#
#
# Mechanical properties :
#
#
# Convention : Reuss Voigt Hill
#
# Bulk Modulus (GPa) = 66.36514 68.20209 67.28361
# Shear Modulus (GPa) = 285.41450 17.91010 151.66230
#
# Velocity S-wave (km/s) = 10.05089 2.51777 7.32665
# Velocity P-wave (km/s) = 12.57709 5.70892 9.76665
#
# Compressibility (1/GPa) = 0.01506815
#
# Stress axis : x y z
#
# Youngs Moduli (GPa) = 112.51751 178.80718 149.54299
#
# Poissons Ratio (x) = 0.29526 0.16342
# Poissons Ratio (y) = 0.18580 0.04567
# Poissons Ratio (z) = 0.12296 0.05461
#
# Static dielectric constant tensor:
#      x y z
#    x 2.248500 0.000000 0.000000 
#    y 0.000000 2.335150 0.000000 
#    z 0.000000 0.000000 3.423130 
# 
# From -- ./inp_files/37316.got.cif
#   From: 2010.05.17/outbox.cif.g08.bks.cpg/sg74_19_cif.got.tgz:37316.got - 2010.06.03 17:57:02.
