data_PCOD9535978
_publ_section_title
;
Structure prediction by ZEFSAII (Michael W. Deem and Ramdas Pophale) SiO2 
 PCOD9535978
Probable space group: I M M A
;
_chemical_formula_sum "Si O2"
_cell_formula_units_Z 80
_cell_length_a 14.381602
_cell_length_b 29.539050
_cell_length_c 8.162099
_cell_angle_alpha 90.000000
_cell_angle_beta 90.000000
_cell_angle_gamma 90.000000
_cell_volume 3467.413597
_symmetry_space_group_name_H-M "I M M A"
_symmetry_group_IT_number 74
_symmetry_cell_setting 'orthorhombic'
loop_
_space_group_symop_operation_xyz
x,y,z
-x,1/2-y,z
x,-y,-z
-x,1/2+y,-z
-x,-y,-z
x,1/2+y,-z
-x,y,z
x,1/2-y,z
1/2+x,1/2+y,1/2+z
1/2-x,-y,1/2+z
1/2+x,1/2-y,1/2-z
1/2-x,y,1/2-z
1/2-x,1/2-y,1/2-z
1/2+x,y,1/2-z
1/2-x,1/2+y,1/2+z
1/2+x,-y,1/2+z
loop_
_atom_site_type_symbol
_atom_site_label
_atom_site_fract_x
_atom_site_fract_y
_atom_site_fract_z
Si Si1 0.387825 0.700368 0.307527
Si Si2 0.885845 0.106596 0.665072
Si Si3 0.143797 0.300147 0.195008
Si Si4 0.105748 0.101657 0.308915
Si Si5 0.614013 0.552127 0.486237
O O1 0.500000 0.700183 0.301381
O O2 0.356133 0.750000 0.250988
O O3 0.355678 0.658025 0.201806
O O4 0.363695 0.694308 0.498874
O O5 0.852053 0.091976 0.486369
O O6 0.000000 0.106603 0.661013
O O7 0.857077 0.075713 0.817209
O O8 0.105092 0.250000 0.234640
O O9 0.250000 0.299934 0.250000
O O10 0.102201 0.344299 0.280288
O O11 0.146826 0.079433 0.146361
O O12 0.000000 0.084285 0.317111
O O13 0.641531 0.500000 0.500000
O O14 0.500000 0.554036 0.484442
#
# Coordination Sequence:
#
# PCOD9535978 Si02
#       5
#    16  16  16  16  16
#     4   9  16  29  50  72 100 138 173 209 253 301
#     4   9  17  29  48  77 105 130 168 209 250 305
#     4  10  20  33  50  75 105 137 173 210 252 305
#     4  10  19  32  53  78 102 134 173 211 256 306
#     4   9  17  30  49  76 107 132 161 211 265 303
#
# _framework density 23.071952
#
# number of rings (size 3 to 8) (size 9 to 14) (size 15 to 20)
#    0.000    2.600    2.000    0.600    0.000    2.800 
#    0.000    7.000    0.000    3.600    5.200    0.000 
#    0.000    0.000    0.000    0.000    0.000    0.000 
#
# Total GULP energy -223542.907690 kJ/mol
# GULP energy per Si atom -5588.572692 kJ/mol
# Density = 2.301944 g / cm^3
# Si number density = 23.071952 Si / 1000 Ang^3
#
#
#
# Elastic Constant Matrix: (Units=GPa)
#
#
# Indices 1 2 3 4 5 6 
#
# 1 78.6775 1.8325 17.6179 -0.0013 0.0015 -0.0007
# 2 1.8325 137.6139 104.8655 0.0030 -0.0002 -0.0006
# 3 17.6179 104.8655 199.9733 0.0002 0.0050 -0.0014
# 4 -0.0013 0.0030 0.0002 -5.4998 0.0058 -0.0032
# 5 0.0015 -0.0002 0.0050 0.0058 14.3198 0.0027
# 6 -0.0007 -0.0006 -0.0014 -0.0032 0.0027 -1.2653
#
#
#
# Elastic Compliance Matrix: (Units=1/GPa)
#
#
# Indices 1 2 3 4 5 6 
#
# 1 0.013078 0.001172 -0.001767 -0.000003 -0.000001 -0.000006
# 2 0.001172 0.012208 -0.006505 0.000006 0.000002 0.000000
# 3 -0.001767 -0.006505 0.008568 -0.000003 -0.000003 -0.000005
# 4 -0.000003 0.000006 -0.000003 -0.181824 0.000073 0.000457
# 5 -0.000001 0.000002 -0.000003 0.000073 0.069833 0.000147
# 6 -0.000006 0.000000 -0.000005 0.000457 0.000147 -0.790319
#
#
# Mechanical properties :
#
#
# Convention : Reuss Voigt Hill
#
# Bulk Modulus (GPa) = 50.87869 73.87739 62.37804
# Shear Modulus (GPa) = -5.89829 20.97418 7.53794
#
# Velocity S-wave (km/s) = -1.60063 3.01836 1.80949
# Velocity P-wave (km/s) = 4.32250 6.65111 5.60898
#
# Compressibility (1/GPa) = 0.01965459
#
# Stress axis : x y z
#
# Youngs Moduli (GPa) = 76.46146 81.91147 116.71748
#
# Poissons Ratio (x) = -0.09603 0.20624
# Poissons Ratio (y) = -0.08964 0.75928
# Poissons Ratio (z) = 0.13511 0.53286
#
# Static dielectric constant tensor:
#      x y z
#    x 1.945710 0.000000 0.000010 
#    y 0.000000 1.829860 0.000000 
#    z 0.000010 0.000000 1.826560 
# 
# From -- ./inp_files/11178.got.cif
#   From: 2010.05.17/outbox.cif.g08.bks.cpg/sg74_6_cif.got.tgz:11178.got - 2010.06.03 17:57:02.
