data_PCOD9535081
_publ_section_title
;
Structure prediction by ZEFSAII (Michael W. Deem and Ramdas Pophale) SiO2 
 PCOD9535081
Probable space group: I M M A
;
_chemical_formula_sum "Si O2"
_cell_formula_units_Z 76
_cell_length_a 10.945171
_cell_length_b 24.663713
_cell_length_c 14.912338
_cell_angle_alpha 90.000000
_cell_angle_beta 90.000000
_cell_angle_gamma 90.000000
_cell_volume 4025.564114
_symmetry_space_group_name_H-M "I M M A"
_symmetry_group_IT_number 74
_symmetry_cell_setting 'orthorhombic'
loop_
_space_group_symop_operation_xyz
x,y,z
-x,1/2-y,z
x,-y,-z
-x,1/2+y,-z
-x,-y,-z
x,1/2+y,-z
-x,y,z
x,1/2-y,z
1/2+x,1/2+y,1/2+z
1/2-x,-y,1/2+z
1/2+x,1/2-y,1/2-z
1/2-x,y,1/2-z
1/2-x,1/2-y,1/2-z
1/2+x,y,1/2-z
1/2-x,1/2+y,1/2+z
1/2+x,-y,1/2+z
loop_
_atom_site_type_symbol
_atom_site_label
_atom_site_fract_x
_atom_site_fract_y
_atom_site_fract_z
Si Si1 0.751776 0.141376 0.352758
Si Si2 0.857039 0.367251 0.678485
Si Si3 0.000000 0.250000 0.903794
Si Si4 0.645387 0.938407 0.999896
Si Si5 0.500000 0.311550 0.420260
Si Si6 0.860220 0.750000 0.580675
Si Si7 0.272209 0.250000 0.883102
O O1 0.750000 0.124288 0.250000
O O2 0.800621 0.095802 0.418712
O O3 0.618645 0.158302 0.386650
O O4 0.832461 0.195943 0.364041
O O5 0.750000 0.378918 0.750000
O O6 0.835455 0.405788 0.592426
O O7 0.836531 0.304839 0.648442
O O8 0.000000 0.373725 0.707470
O O9 0.870703 0.250000 0.853813
O O10 0.000000 0.301383 0.972238
O O11 0.500000 0.940594 0.986635
O O12 0.692533 0.000000 0.000000
O O13 0.500000 0.250000 0.382812
O O14 0.775716 0.750000 0.491887
O O15 0.000000 0.750000 0.549492
#
# Coordination Sequence:
#
# PCOD9535081 Si02
#       7
#    16  16   4  16   8   8   8
#     4  12  24  37  62  95 129 166 207 253 309 381
#     4  11  24  42  67  96 126 164 211 266 319 379
#     4  10  18  34  56  80 130 176 192 244 306 366
#     4  10  23  46  69  89 121 167 217 266 313 366
#     4  10  20  38  51  91 136 163 195 239 311 376
#     4  12  21  35  61  91 129 167 210 249 305 387
#     4  12  21  37  62  94 128 166 212 252 316 385
#
# _framework density 18.879339999999999
#
# number of rings (size 3 to 8) (size 9 to 14) (size 15 to 20)
#    0.316    0.632    5.263    2.211    4.421    0.842 
#    1.895    0.526    0.000    0.000    0.000    0.000 
#    0.000    0.000    0.000    0.000    0.000    0.000 
#
# Total GULP energy -212350.257716 kJ/mol
# GULP energy per Si atom -5588.164677 kJ/mol
# Density = 1.883637 g / cm^3
# Si number density = 18.879340 Si / 1000 Ang^3
#
#
#
# Elastic Constant Matrix: (Units=GPa)
#
#
# Indices 1 2 3 4 5 6 
#
# 1 90.5565 56.9242 55.2697 0.0000 0.0000 0.0000
# 2 56.9242 150.8950 68.5261 0.0000 0.0000 0.0000
# 3 55.2697 68.5261 116.2427 0.0000 0.0000 0.0000
# 4 0.0000 0.0000 0.0000 9.7777 0.0000 0.0000
# 5 0.0000 0.0000 0.0000 0.0000 18.2254 0.0000
# 6 0.0000 0.0000 0.0000 0.0000 0.0000 23.2763
#
#
#
# Elastic Compliance Matrix: (Units=1/GPa)
#
#
# Indices 1 2 3 4 5 6 
#
# 1 0.016974 -0.003739 -0.005866 0.000000 0.000000 0.000000
# 2 -0.003739 0.009874 -0.004043 0.000000 0.000000 0.000000
# 3 -0.005866 -0.004043 0.013775 0.000000 0.000000 0.000000
# 4 0.000000 0.000000 0.000000 0.102273 0.000000 0.000000
# 5 0.000000 0.000000 0.000000 0.000000 0.054868 0.000000
# 6 0.000000 0.000000 0.000000 0.000000 0.000000 0.042962
#
#
# Mechanical properties :
#
#
# Convention : Reuss Voigt Hill
#
# Bulk Modulus (GPa) = 75.04002 79.90379 77.47190
# Shear Modulus (GPa) = 18.35103 22.05417 20.20260
#
# Velocity S-wave (km/s) = 3.12110 3.42155 3.27477
# Velocity P-wave (km/s) = 7.26786 7.61739 7.44468
#
# Compressibility (1/GPa) = 0.01332622
#
# Stress axis : x y z
#
# Youngs Moduli (GPa) = 58.91506 101.27972 72.59498
#
# Poissons Ratio (x) = 0.37871 0.42585
# Poissons Ratio (y) = 0.22030 0.29348
# Poissons Ratio (z) = 0.34560 0.40945
#
# Static dielectric constant tensor:
#      x y z
#    x 1.660560 0.000000 0.000000 
#    y 0.000000 1.642790 0.000000 
#    z 0.000000 0.000000 1.660800 
# 
# From -- ./inp_files/30784.got.cif
#   From: 2010.05.17/outbox.cif.g08.bks.cpg/sg74_16_cif.got.tgz:30784.got - 2010.06.03 17:57:02.
