data_PCOD9535049
_publ_section_title
;
Structure prediction by ZEFSAII (Michael W. Deem and Ramdas Pophale) SiO2 
 PCOD9535049
Probable space group: I M M A
;
_chemical_formula_sum "Si O2"
_cell_formula_units_Z 80
_cell_length_a 7.492231
_cell_length_b 16.452212
_cell_length_c 28.970165
_cell_angle_alpha 90.000000
_cell_angle_beta 90.000000
_cell_angle_gamma 90.000000
_cell_volume 3570.971836
_symmetry_space_group_name_H-M "I M M A"
_symmetry_group_IT_number 74
_symmetry_cell_setting 'orthorhombic'
loop_
_space_group_symop_operation_xyz
x,y,z
-x,1/2-y,z
x,-y,-z
-x,1/2+y,-z
-x,-y,-z
x,1/2+y,-z
-x,y,z
x,1/2-y,z
1/2+x,1/2+y,1/2+z
1/2-x,-y,1/2+z
1/2+x,1/2-y,1/2-z
1/2-x,y,1/2-z
1/2-x,1/2-y,1/2-z
1/2+x,y,1/2-z
1/2-x,1/2+y,1/2+z
1/2+x,-y,1/2+z
loop_
_atom_site_type_symbol
_atom_site_label
_atom_site_fract_x
_atom_site_fract_y
_atom_site_fract_z
Si Si1 0.214648 0.157243 0.698339
Si Si2 0.216739 0.566354 0.539056
Si Si3 0.710667 0.590052 0.696687
Si Si4 0.200758 0.750000 0.536690
Si Si5 0.301341 0.963462 0.126306
Si Si6 0.285701 0.750000 0.641296
O O1 0.279677 0.250000 0.699831
O O2 0.250000 0.121589 0.750000
O O3 0.000000 0.157194 0.693703
O O4 0.285054 0.114230 0.651483
O O5 0.258220 0.500000 0.500000
O O6 0.280618 0.658875 0.527794
O O7 0.278276 0.522742 0.586834
O O8 0.000000 0.574628 0.542479
O O9 0.500000 0.575724 0.690113
O O10 0.750000 0.596642 0.750000
O O11 0.812951 0.519156 0.671473
O O12 0.761210 0.672005 0.670760
O O13 0.194811 0.750000 0.592136
O O14 0.000000 0.750000 0.516483
O O15 0.500000 0.940816 0.108816
O O16 0.500000 0.750000 0.633520
#
# Coordination Sequence:
#
# PCOD9535049 Si02
#       6
#    16  16  16   8  16   8
#     4   9  18  32  49  71  99 135 174 211 257 307
#     4   9  18  33  53  81 109 133 170 219 268 317
#     4  11  22  34  50  75 107 141 177 215 257 309
#     4  10  18  33  59  80 103 142 177 215 270 321
#     4  10  19  33  53  75 105 138 173 220 264 314
#     4  10  21  35  51  74 106 142 176 215 255 305
#
# _framework density 22.402866
#
# number of rings (size 3 to 8) (size 9 to 14) (size 15 to 20)
#    0.000    2.200    2.000    1.500    0.000    3.200 
#    1.800    0.000    0.000    2.400    0.000    0.000 
#    0.000    0.000    0.000    0.000    0.000    0.000 
#
# Total GULP energy -222895.106039 kJ/mol
# GULP energy per Si atom -5572.377651 kJ/mol
# Density = 2.235188 g / cm^3
# Si number density = 22.402866 Si / 1000 Ang^3
#
#
#
# Elastic Constant Matrix: (Units=GPa)
#
#
# Indices 1 2 3 4 5 6 
#
# 1 57.4148 7.2155 -0.0895 0.0000 0.0000 0.0000
# 2 7.2155 147.1665 51.4178 0.0000 0.0000 0.0000
# 3 -0.0895 51.4178 57.8890 0.0000 0.0000 0.0000
# 4 0.0000 0.0000 0.0000 55.3180 0.0000 0.0000
# 5 0.0000 0.0000 0.0000 0.0000 11.3420 0.0000
# 6 0.0000 0.0000 0.0000 0.0000 0.0000 -7.3012
#
#
#
# Elastic Compliance Matrix: (Units=1/GPa)
#
#
# Indices 1 2 3 4 5 6 
#
# 1 0.017578 -0.001263 0.001149 0.000000 0.000000 0.000000
# 2 -0.001263 0.009943 -0.008834 0.000000 0.000000 0.000000
# 3 0.001149 -0.008834 0.025123 0.000000 0.000000 0.000000
# 4 0.000000 0.000000 0.000000 0.018077 0.000000 0.000000
# 5 0.000000 0.000000 0.000000 0.000000 0.088168 0.000000
# 6 0.000000 0.000000 0.000000 0.000000 0.000000 -0.136964
#
#
# Mechanical properties :
#
#
# Convention : Reuss Voigt Hill
#
# Bulk Modulus (GPa) = 28.77871 42.17310 35.47591
# Shear Modulus (GPa) = 97.26891 25.46683 61.36787
#
# Velocity S-wave (km/s) = 6.59639 3.37525 5.23950
# Velocity P-wave (km/s) = 8.41964 5.83571 7.24382
#
# Compressibility (1/GPa) = 0.03474791
#
# Stress axis : x y z
#
# Youngs Moduli (GPa) = 56.89034 100.56945 39.80487
#
# Poissons Ratio (x) = 0.12706 -0.04575
# Poissons Ratio (y) = 0.07188 0.35163
# Poissons Ratio (z) = -0.06539 0.88841
#
# Static dielectric constant tensor:
#      x y z
#    x 0.971450 0.000000 0.000000 
#    y 0.000000 1.893740 0.000000 
#    z 0.000000 0.000000 1.787540 
# 
# From -- ./inp_files/64023.got.cif
#   From: 2010.05.17/outbox.cif.g08.bks.cpg/sg74_33_cif.got.tgz:64023.got - 2010.06.03 17:57:02.
