data_PCOD9535378
_publ_section_title
;
Structure prediction by ZEFSAII (Michael W. Deem and Ramdas Pophale) SiO2 
 PCOD9535378
Probable space group: I M M A
;
_chemical_formula_sum "Si O2"
_cell_formula_units_Z 112
_cell_length_a 31.344220
_cell_length_b 13.895054
_cell_length_c 13.385866
_cell_angle_alpha 90.000000
_cell_angle_beta 90.000000
_cell_angle_gamma 90.000000
_cell_volume 5829.941259
_symmetry_space_group_name_H-M "I M M A"
_symmetry_group_IT_number 74
_symmetry_cell_setting 'orthorhombic'
loop_
_space_group_symop_operation_xyz
x,y,z
-x,1/2-y,z
x,-y,-z
-x,1/2+y,-z
-x,-y,-z
x,1/2+y,-z
-x,y,z
x,1/2-y,z
1/2+x,1/2+y,1/2+z
1/2-x,-y,1/2+z
1/2+x,1/2-y,1/2-z
1/2-x,y,1/2-z
1/2-x,1/2-y,1/2-z
1/2+x,y,1/2-z
1/2-x,1/2+y,1/2+z
1/2+x,-y,1/2+z
loop_
_atom_site_type_symbol
_atom_site_label
_atom_site_fract_x
_atom_site_fract_y
_atom_site_fract_z
Si Si1 0.661234 0.865463 0.513782
Si Si2 0.218225 0.547184 0.657278
Si Si3 0.047786 0.146953 0.774808
Si Si4 0.432433 0.861250 0.499623
Si Si5 0.049967 0.933952 0.786369
Si Si6 0.247551 0.863986 0.450279
Si Si7 0.641666 0.861897 0.741694
O O1 0.664513 0.750000 0.513361
O O2 0.615525 0.891242 0.469396
O O3 0.702726 0.896978 0.454375
O O4 0.656450 0.892314 0.629836
O O5 0.250000 0.567248 0.750000
O O6 0.223836 0.436103 0.624415
O O7 0.231605 0.611953 0.562205
O O8 0.170082 0.574007 0.685757
O O9 0.069528 0.250000 0.751445
O O10 0.000000 0.151085 0.733051
O O11 0.063468 0.040753 0.750121
O O12 0.044080 0.142330 0.895200
O O13 0.431089 0.750000 0.537750
O O14 0.448963 0.923056 0.592198
O O15 0.090326 0.870739 0.751760
O O16 0.000000 0.914679 0.758107
O O17 0.243908 0.750000 0.428871
O O18 0.653310 0.750000 0.755118
#
# Coordination Sequence:
#
# PCOD9535378 Si02
#       7
#    16  16  16  16  16  16  16
#     4   8  15  29  48  71  99 136 180 222 264 317
#     4  11  22  36  57  84 112 148 190 229 280 337
#     4   9  17  28  40  57  88 134 180 216 258 315
#     4   9  16  25  40  64  95 131 170 216 265 313
#     4  10  19  30  45  69  99 132 176 226 272 323
#     4  10  21  37  57  81 110 146 187 232 281 333
#     4  10  20  34  54  79 106 141 182 227 280 336
#
# _framework density 19.211171
#
# number of rings (size 3 to 8) (size 9 to 14) (size 15 to 20)
#    0.000    2.429    1.429    2.571    0.000    4.857 
#    2.571    0.714    0.000    0.000    0.000    2.000 
#    0.000    1.143    0.000    0.000    0.000    0.143 
#
# Total GULP energy -311767.806058 kJ/mol
# GULP energy per Si atom -5567.282251 kJ/mol
# Density = 1.916745 g / cm^3
# Si number density = 19.211171 Si / 1000 Ang^3
#
#
#
# Elastic Constant Matrix: (Units=GPa)
#
#
# Indices 1 2 3 4 5 6 
#
# 1 119.6868 22.7500 26.1342 0.0000 0.0000 0.0000
# 2 22.7500 111.7596 2.9017 0.0000 0.0000 0.0000
# 3 26.1342 2.9017 24.2518 0.0000 0.0000 0.0000
# 4 0.0000 0.0000 0.0000 18.9627 0.0000 0.0000
# 5 0.0000 0.0000 0.0000 0.0000-2497.8418 0.0000
# 6 0.0000 0.0000 0.0000 0.0000 0.0000 25.8253
#
#
#
# Elastic Compliance Matrix: (Units=1/GPa)
#
#
# Indices 1 2 3 4 5 6 
#
# 1 0.011355 -0.002000 -0.011997 0.000000 0.000000 0.000000
# 2 -0.002000 0.009328 0.001039 0.000000 0.000000 0.000000
# 3 -0.011997 0.001039 0.054038 0.000000 0.000000 0.000000
# 4 0.000000 0.000000 0.000000 0.052735 0.000000 0.000000
# 5 0.000000 0.000000 0.000000 0.000000 -0.000400 0.000000
# 6 0.000000 0.000000 0.000000 0.000000 0.000000 0.038722
#
#
# Mechanical properties :
#
#
# Convention : Reuss Voigt Hill
#
# Bulk Modulus (GPa) = 20.48967 39.91888 30.20428
# Shear Modulus (GPa) = 24.04297 -477.01660 -226.48681
#
# Velocity S-wave (km/s) = 3.54151 -15.77469 -10.86965
# Velocity P-wave (km/s) = 5.23562 17.63416 11.90697
#
# Compressibility (1/GPa) = 0.04880507
#
# Stress axis : x y z
#
# Youngs Moduli (GPa) = 88.06793 107.20521 18.50555
#
# Poissons Ratio (x) = 0.21440 0.22201
# Poissons Ratio (y) = 0.17613 -0.01923
# Poissons Ratio (z) = 1.05654 -0.11139
#
# Static dielectric constant tensor:
#      x y z
#    x 1.723540 0.000000 0.000000 
#    y 0.000000 1.777650 0.000000 
#    z 0.000000 0.000000 1.639710 
# 
# From -- ./inp_files/37946.got.cif
#   From: 2010.05.17/outbox.cif.g08.bks.cpg/sg74_19_cif.got.tgz:37946.got - 2010.06.03 17:57:02.
