data_PCOD9535719
_publ_section_title
;
Structure prediction by ZEFSAII (Michael W. Deem and Ramdas Pophale) SiO2 
 PCOD9535719
Probable space group: I M M A
;
_chemical_formula_sum "Si O2"
_cell_formula_units_Z 56
_cell_length_a 7.361484
_cell_length_b 8.435158
_cell_length_c 39.141077
_cell_angle_alpha 90.000000
_cell_angle_beta 90.000000
_cell_angle_gamma 90.000000
_cell_volume 2430.476161
_symmetry_space_group_name_H-M "I M M A"
_symmetry_group_IT_number 74
_symmetry_cell_setting 'orthorhombic'
loop_
_space_group_symop_operation_xyz
x,y,z
-x,1/2-y,z
x,-y,-z
-x,1/2+y,-z
-x,-y,-z
x,1/2+y,-z
-x,y,z
x,1/2-y,z
1/2+x,1/2+y,1/2+z
1/2-x,-y,1/2+z
1/2+x,1/2-y,1/2-z
1/2-x,y,1/2-z
1/2-x,1/2-y,1/2-z
1/2+x,y,1/2-z
1/2-x,1/2+y,1/2+z
1/2+x,-y,1/2+z
loop_
_atom_site_type_symbol
_atom_site_label
_atom_site_fract_x
_atom_site_fract_y
_atom_site_fract_z
Si Si1 0.783134 0.750000 0.790214
Si Si2 0.288792 0.076413 0.677937
Si Si3 0.719593 0.928118 0.891978
Si Si4 0.778567 0.432471 0.536361
O O1 0.750000 0.750000 0.750000
O O2 0.710084 0.584883 0.805836
O O3 0.000000 0.750000 0.797008
O O4 0.500000 0.081231 0.688262
O O5 0.210626 0.250000 0.686453
O O6 0.279923 0.048185 0.637249
O O7 0.500000 0.930057 0.891991
O O8 0.779523 0.750000 0.883136
O O9 0.779932 0.973215 0.930033
O O10 0.717566 0.500000 0.500000
O O11 0.725817 0.250000 0.539671
O O12 0.000000 0.438839 0.536025
#
# Coordination Sequence:
#
# PCOD9535719 Si02
#       4
#     8  16  16  16
#     4  10  22  40  60  84 114 144 178 220 268 324
#     4  10  21  38  59  82 110 146 183 218 266 326
#     4  10  19  31  51  79 108 140 182 230 275 320
#     4   9  16  26  41  65 100 139 178 223 275 324
#
# _framework density 23.040754
#
# number of rings (size 3 to 8) (size 9 to 14) (size 15 to 20)
#    0.000    2.286    1.429    1.714    0.000    6.857 
#    0.000    0.000    0.000    0.857    0.000    0.000 
#    0.000    0.000    0.000    0.000    0.000    0.000 
#
# Total GULP energy -156462.941363 kJ/mol
# GULP energy per Si atom -5587.962192 kJ/mol
# Density = 2.298831 g / cm^3
# Si number density = 23.040754 Si / 1000 Ang^3
#
#
#
# Elastic Constant Matrix: (Units=GPa)
#
#
# Indices 1 2 3 4 5 6 
#
# 1 87.0141 12.8787 -9.6702 0.0000 0.0000 0.0000
# 2 12.8787 208.2868 62.9355 0.0000 0.0000 0.0000
# 3 -9.6702 62.9355 115.2871 0.0000 0.0000 0.0000
# 4 0.0000 0.0000 0.0000 28.6662 0.0000 0.0000
# 5 0.0000 0.0000 0.0000 0.0000 328.1272 0.0000
# 6 0.0000 0.0000 0.0000 0.0000 0.0000 -2.5486
#
#
#
# Elastic Compliance Matrix: (Units=1/GPa)
#
#
# Indices 1 2 3 4 5 6 
#
# 1 0.011861 -0.001238 0.001671 0.000000 0.000000 0.000000
# 2 -0.001238 0.005879 -0.003313 0.000000 0.000000 0.000000
# 3 0.001671 -0.003313 0.010623 0.000000 0.000000 0.000000
# 4 0.000000 0.000000 0.000000 0.034884 0.000000 0.000000
# 5 0.000000 0.000000 0.000000 0.000000 0.003048 0.000000
# 6 0.000000 0.000000 0.000000 0.000000 0.000000 -0.392374
#
#
# Mechanical properties :
#
#
# Convention : Reuss Voigt Hill
#
# Bulk Modulus (GPa) = 44.24398 60.31955 52.28176
# Shear Modulus (GPa) = -15.98547 93.81189 38.91321
#
# Velocity S-wave (km/s) = -2.63685 6.38780 4.11406
# Velocity P-wave (km/s) = 3.15809 8.98007 6.73109
#
# Compressibility (1/GPa) = 0.02260195
#
# Stress axis : x y z
#
# Youngs Moduli (GPa) = 84.30737 170.10542 94.13741
#
# Poissons Ratio (x) = 0.21064 -0.15729
# Poissons Ratio (y) = 0.10440 0.31188
# Poissons Ratio (z) = -0.14087 0.56357
#
# Static dielectric constant tensor:
#      x y z
#    x 1.566810 0.000000 0.000000 
#    y 0.000000 1.856580 0.000000 
#    z 0.000000 0.000000 1.807440 
# 
# From -- ./inp_files/69657.got.cif
#   From: 2010.05.17/outbox.cif.g08.bks.cpg/sg74_35_cif.got.tgz:69657.got - 2010.06.03 17:57:02.
