data_PCOD9535744
_publ_section_title
;
Structure prediction by ZEFSAII (Michael W. Deem and Ramdas Pophale) SiO2 
 PCOD9535744
Probable space group: I M M A
;
_chemical_formula_sum "Si O2"
_cell_formula_units_Z 88
_cell_length_a 7.656284
_cell_length_b 17.231330
_cell_length_c 29.681393
_cell_angle_alpha 90.000000
_cell_angle_beta 90.000000
_cell_angle_gamma 90.000000
_cell_volume 3915.805515
_symmetry_space_group_name_H-M "I M M A"
_symmetry_group_IT_number 74
_symmetry_cell_setting 'orthorhombic'
loop_
_space_group_symop_operation_xyz
x,y,z
-x,1/2-y,z
x,-y,-z
-x,1/2+y,-z
-x,-y,-z
x,1/2+y,-z
-x,y,z
x,1/2-y,z
1/2+x,1/2+y,1/2+z
1/2-x,-y,1/2+z
1/2+x,1/2-y,1/2-z
1/2-x,y,1/2-z
1/2-x,1/2-y,1/2-z
1/2+x,y,1/2-z
1/2-x,1/2+y,1/2+z
1/2+x,-y,1/2+z
loop_
_atom_site_type_symbol
_atom_site_label
_atom_site_fract_x
_atom_site_fract_y
_atom_site_fract_z
Si Si1 0.697487 0.074114 0.302015
Si Si2 0.204501 0.588421 0.342419
Si Si3 0.285411 0.160323 0.388528
Si Si4 0.787034 0.917674 0.980121
Si Si5 0.710793 0.336060 0.569325
Si Si6 0.790655 0.250000 0.697582
O O1 0.500000 0.101150 0.301170
O O2 0.750000 0.076357 0.250000
O O3 0.782670 0.126552 0.341066
O O4 0.708560 0.986468 0.320872
O O5 0.225688 0.598927 0.395895
O O6 0.277210 0.669653 0.323090
O O7 0.000000 0.582598 0.331036
O O8 0.500000 0.157290 0.388885
O O9 0.236987 0.250000 0.394610
O O10 0.227141 0.108076 0.430836
O O11 0.000000 0.920962 0.978257
O O12 0.739846 0.855173 0.018305
O O13 0.727742 0.000000 0.000000
O O14 0.500000 0.336364 0.571597
O O15 0.774118 0.250000 0.582438
O O16 0.750000 0.250000 0.750000
O O17 0.000000 0.250000 0.690374
#
# Coordination Sequence:
#
# PCOD9535744 Si02
#       6
#    16  16  16  16  16   8
#     4  11  23  39  60  86 113 146 191 241 298 352
#     4  11  22  38  56  79 113 153 195 235 286 346
#     4   9  18  34  57  85 118 154 193 240 290 342
#     4   9  16  28  50  83 119 151 188 234 282 334
#     4  10  19  31  52  83 115 149 189 234 282 332
#     4  10  22  36  52  74 102 142 188 232 277 332
#
# _framework density 22.473025
#
# number of rings (size 3 to 8) (size 9 to 14) (size 15 to 20)
#    0.000    2.000    0.909    3.273    0.000    8.364 
#    0.000    0.000    0.000    7.636    0.000    0.000 
#    0.000    0.000    0.000    0.000    0.000    0.000 
#
# Total GULP energy -245781.932903 kJ/mol
# GULP energy per Si atom -5585.953021 kJ/mol
# Density = 2.242188 g / cm^3
# Si number density = 22.473025 Si / 1000 Ang^3
#
#
#
# Elastic Constant Matrix: (Units=GPa)
#
#
# Indices 1 2 3 4 5 6 
#
# 1 33.6137 -5.7434 4.0017 0.0000 0.0000 0.0000
# 2 -5.7434 118.2689 75.8612 0.0000 0.0000 0.0000
# 3 4.0017 75.8612 200.7601 0.0000 0.0000 0.0000
# 4 0.0000 0.0000 0.0000 32.1921 0.0000 0.0000
# 5 0.0000 0.0000 0.0000 0.0000 14.1480 0.0000
# 6 0.0000 0.0000 0.0000 0.0000 0.0000 0.6608
#
#
#
# Elastic Compliance Matrix: (Units=1/GPa)
#
#
# Indices 1 2 3 4 5 6 
#
# 1 0.030352 0.002458 -0.001534 0.000000 0.000000 0.000000
# 2 0.002458 0.011359 -0.004341 0.000000 0.000000 0.000000
# 3 -0.001534 -0.004341 0.006652 0.000000 0.000000 0.000000
# 4 0.000000 0.000000 0.000000 0.031064 0.000000 0.000000
# 5 0.000000 0.000000 0.000000 0.000000 0.070681 0.000000
# 6 0.000000 0.000000 0.000000 0.000000 0.000000 1.513270
#
#
# Mechanical properties :
#
#
# Convention : Reuss Voigt Hill
#
# Bulk Modulus (GPa) = 24.07949 55.65352 39.86650
# Shear Modulus (GPa) = 2.96902 27.96841 15.46872
#
# Velocity S-wave (km/s) = 1.15066 3.53162 2.62644
# Velocity P-wave (km/s) = 3.53602 6.43802 5.19382
#
# Compressibility (1/GPa) = 0.04152912
#
# Stress axis : x y z
#
# Youngs Moduli (GPa) = 32.94644 88.03344 150.32843
#
# Poissons Ratio (x) = -0.21637 0.23056
# Poissons Ratio (y) = -0.08097 0.65263
# Poissons Ratio (z) = 0.05053 0.38218
#
# Static dielectric constant tensor:
#      x y z
#    x 1.907480 0.000000 0.000000 
#    y 0.000000 1.808900 0.000000 
#    z 0.000000 0.000000 1.844440 
# 
# From -- ./inp_files/70205.got.cif
#   From: 2010.05.17/outbox.cif.g08.bks.cpg/sg74_36_cif.got.tgz:70205.got - 2010.06.03 17:57:02.
