data_PCOD9535425
_publ_section_title
;
Structure prediction by ZEFSAII (Michael W. Deem and Ramdas Pophale) SiO2 
 PCOD9535425
Probable space group: I M M A
;
_chemical_formula_sum "Si O2"
_cell_formula_units_Z 80
_cell_length_a 8.644249
_cell_length_b 24.769543
_cell_length_c 24.183874
_cell_angle_alpha 90.000000
_cell_angle_beta 90.000000
_cell_angle_gamma 90.000000
_cell_volume 5178.108351
_symmetry_space_group_name_H-M "I M M A"
_symmetry_group_IT_number 74
_symmetry_cell_setting 'orthorhombic'
loop_
_space_group_symop_operation_xyz
x,y,z
-x,1/2-y,z
x,-y,-z
-x,1/2+y,-z
-x,-y,-z
x,1/2+y,-z
-x,y,z
x,1/2-y,z
1/2+x,1/2+y,1/2+z
1/2-x,-y,1/2+z
1/2+x,1/2-y,1/2-z
1/2-x,y,1/2-z
1/2-x,1/2-y,1/2-z
1/2+x,y,1/2-z
1/2-x,1/2+y,1/2+z
1/2+x,-y,1/2+z
loop_
_atom_site_type_symbol
_atom_site_label
_atom_site_fract_x
_atom_site_fract_y
_atom_site_fract_z
Si Si1 0.684617 0.688723 0.009584
Si Si2 0.185718 0.578731 0.189679
Si Si3 0.816147 0.920525 0.976480
Si Si4 0.813966 0.310305 0.866461
Si Si5 0.315475 0.019076 0.915932
O O1 0.500000 0.682355 0.006696
O O2 0.725045 0.750000 0.992687
O O3 0.737122 0.683001 0.073489
O O4 0.765480 0.641550 0.975320
O O5 0.250000 0.566108 0.250000
O O6 0.230629 0.640147 0.172551
O O7 0.254101 0.540247 0.142375
O O8 0.000000 0.575182 0.189201
O O9 0.000000 0.925990 0.973506
O O10 0.737488 0.958501 0.930724
O O11 0.758361 0.944255 0.035443
O O12 0.774629 0.250000 0.845718
O O13 0.000000 0.312636 0.874043
O O14 0.500000 0.023503 0.919077
#
# Coordination Sequence:
#
# PCOD9535425 Si02
#       5
#    16  16  16  16  16
#     4  10  19  30  47  72 100 129 162 199 241 288
#     4  11  22  35  50  69  95 128 167 210 250 294
#     4  11  20  32  51  73  98 127 159 198 244 299
#     4   9  18  32  48  65  90 126 166 207 248 288
#     4  11  21  34  51  71  95 124 162 205 248 294
#
# _framework density 15.449657999999999
#
# number of rings (size 3 to 8) (size 9 to 14) (size 15 to 20)
#    0.000    1.600    2.000    6.000    0.000    2.400 
#    0.000    0.000    0.000    0.000    0.000    0.000 
#    0.000    0.800    0.000    3.000    0.000    4.600 
#
# Total GULP energy -223334.205536 kJ/mol
# GULP energy per Si atom -5583.355138 kJ/mol
# Density = 1.541449 g / cm^3
# Si number density = 15.449658 Si / 1000 Ang^3
#
#
#
# Elastic Constant Matrix: (Units=GPa)
#
#
# Indices 1 2 3 4 5 6 
#
# 1 62.4698 26.5506 25.1711 0.0000 0.0000 0.0000
# 2 26.5506 91.8035 51.8260 0.0000 0.0000 0.0000
# 3 25.1711 51.8260 78.5165 0.0000 0.0000 0.0000
# 4 0.0000 0.0000 0.0000 21.0222 0.0000 0.0000
# 5 0.0000 0.0000 0.0000 0.0000 22.3614 0.0000
# 6 0.0000 0.0000 0.0000 0.0000 0.0000 23.9427
#
#
#
# Elastic Compliance Matrix: (Units=1/GPa)
#
#
# Indices 1 2 3 4 5 6 
#
# 1 0.018980 -0.003274 -0.003923 0.000000 0.000000 0.000000
# 2 -0.003274 0.017928 -0.010784 0.000000 0.000000 0.000000
# 3 -0.003923 -0.010784 0.021112 0.000000 0.000000 0.000000
# 4 0.000000 0.000000 0.000000 0.047569 0.000000 0.000000
# 5 0.000000 0.000000 0.000000 0.000000 0.044720 0.000000
# 6 0.000000 0.000000 0.000000 0.000000 0.000000 0.041766
#
#
# Mechanical properties :
#
#
# Convention : Reuss Voigt Hill
#
# Bulk Modulus (GPa) = 45.33761 48.87613 47.10687
# Shear Modulus (GPa) = 21.24137 22.08141 21.66139
#
# Velocity S-wave (km/s) = 3.71195 3.78464 3.74847
# Velocity P-wave (km/s) = 6.91235 7.12758 7.02079
#
# Compressibility (1/GPa) = 0.02205674
#
# Stress axis : x y z
#
# Youngs Moduli (GPa) = 52.68628 55.78012 47.36673
#
# Poissons Ratio (x) = 0.18265 0.18584
# Poissons Ratio (y) = 0.17252 0.51079
# Poissons Ratio (z) = 0.20671 0.60151
#
# Static dielectric constant tensor:
#      x y z
#    x 1.513400 0.000000 0.000000 
#    y 0.000000 1.547090 0.000000 
#    z 0.000000 0.000000 1.473300 
# 
# From -- ./inp_files/49407.got.cif
#   From: 2010.05.17/outbox.cif.g08.bks.cpg/sg74_25_cif.got.tgz:49407.got - 2010.06.03 17:57:02.
