data_PCOD9535483
_publ_section_title
;
Structure prediction by ZEFSAII (Michael W. Deem and Ramdas Pophale) SiO2 
 PCOD9535483
Probable space group: I M M A
;
_chemical_formula_sum "Si O2"
_cell_formula_units_Z 88
_cell_length_a 22.993296
_cell_length_b 7.792936
_cell_length_c 24.007694
_cell_angle_alpha 90.000000
_cell_angle_beta 90.000000
_cell_angle_gamma 90.000000
_cell_volume 4301.825471
_symmetry_space_group_name_H-M "I M M A"
_symmetry_group_IT_number 74
_symmetry_cell_setting 'orthorhombic'
loop_
_space_group_symop_operation_xyz
x,y,z
-x,1/2-y,z
x,-y,-z
-x,1/2+y,-z
-x,-y,-z
x,1/2+y,-z
-x,y,z
x,1/2-y,z
1/2+x,1/2+y,1/2+z
1/2-x,-y,1/2+z
1/2+x,1/2-y,1/2-z
1/2-x,y,1/2-z
1/2-x,1/2-y,1/2-z
1/2+x,y,1/2-z
1/2-x,1/2+y,1/2+z
1/2+x,-y,1/2+z
loop_
_atom_site_type_symbol
_atom_site_label
_atom_site_fract_x
_atom_site_fract_y
_atom_site_fract_z
Si Si1 0.375736 0.956274 0.119140
Si Si2 0.565376 0.543942 0.439853
Si Si3 0.761379 0.455990 0.562448
Si Si4 0.500000 0.451561 0.065947
Si Si5 0.683595 0.041008 0.765221
Si Si6 0.340014 0.540033 0.355550
O O1 0.373054 0.750000 0.121520
O O2 0.326803 0.017525 0.075125
O O3 0.350453 0.017894 0.179382
O O4 0.440808 0.994987 0.098303
O O5 0.590548 0.500000 0.500000
O O6 0.500000 0.475011 0.437332
O O7 0.562834 0.750000 0.435626
O O8 0.606279 0.479022 0.391795
O O9 0.742591 0.500000 0.500000
O O10 0.761398 0.250000 0.565900
O O11 0.718129 0.516206 0.611561
O O12 0.500000 0.250000 0.066544
O O13 0.500000 0.500000 0.000000
O O14 0.686227 0.250000 0.769820
O O15 0.750000 0.987649 0.750000
O O16 0.652296 0.990339 0.708174
O O17 0.338124 0.750000 0.355846
#
# Coordination Sequence:
#
# PCOD9535483 Si02
#       6
#    16  16  16   8  16  16
#     4  10  20  36  59  86 113 144 186 231 283 341
#     4   9  17  29  45  67  98 133 170 211 255 304
#     4  10  19  30  49  77 108 138 173 222 276 327
#     4  12  26  44  64  84 114 152 193 240 293 346
#     4   9  15  29  54  82 111 141 174 219 271 323
#     4   9  16  28  47  74 106 136 172 220 265 310
#
# _framework density 20.456433000000001
#
# number of rings (size 3 to 8) (size 9 to 14) (size 15 to 20)
#    0.000    2.364    1.818    1.909    0.000    2.182 
#    1.636    0.000    0.000    2.727    0.000    0.000 
#    0.000    0.000    0.000    0.000    0.000    0.000 
#
# Total GULP energy -245230.005776 kJ/mol
# GULP energy per Si atom -5573.409222 kJ/mol
# Density = 2.040987 g / cm^3
# Si number density = 20.456433 Si / 1000 Ang^3
#
#
#
# Elastic Constant Matrix: (Units=GPa)
#
#
# Indices 1 2 3 4 5 6 
#
# 1 115.0150 8.9955 75.4580 0.0000 0.0000 0.0000
# 2 8.9955 29.9125 8.7319 0.0000 0.0000 0.0000
# 3 75.4580 8.7319 162.5022 0.0000 0.0000 0.0000
# 4 0.0000 0.0000 0.0000 18.2479 0.0000 0.0000
# 5 0.0000 0.0000 0.0000 0.0000 128.9994 0.0000
# 6 0.0000 0.0000 0.0000 0.0000 0.0000 -12.9192
#
#
#
# Elastic Compliance Matrix: (Units=1/GPa)
#
#
# Indices 1 2 3 4 5 6 
#
# 1 0.012635 -0.002120 -0.005753 0.000000 0.000000 0.000000
# 2 -0.002120 0.034319 -0.000860 0.000000 0.000000 0.000000
# 3 -0.005753 -0.000860 0.008871 0.000000 0.000000 0.000000
# 4 0.000000 0.000000 0.000000 0.054801 0.000000 0.000000
# 5 0.000000 0.000000 0.000000 0.000000 0.007752 0.000000
# 6 0.000000 0.000000 0.000000 0.000000 0.000000 -0.077404
#
#
# Mechanical properties :
#
#
# Convention : Reuss Voigt Hill
#
# Bulk Modulus (GPa) = 26.06897 54.86673 40.46785
# Shear Modulus (GPa) = 70.19869 41.14858 55.67363
#
# Velocity S-wave (km/s) = 5.86436 4.48987 5.22253
# Velocity P-wave (km/s) = 7.65673 7.33199 7.49612
#
# Compressibility (1/GPa) = 0.03835978
#
# Stress axis : x y z
#
# Youngs Moduli (GPa) = 79.14690 29.13811 112.72211
#
# Poissons Ratio (x) = 0.06178 0.64849
# Poissons Ratio (y) = 0.16781 0.09690
# Poissons Ratio (z) = 0.45533 0.02505
#
# Static dielectric constant tensor:
#      x y z
#    x 1.783760 0.000000 0.000000 
#    y 0.000000 1.763090 0.000000 
#    z 0.000000 0.000000 1.673320 
# 
# From -- ./inp_files/61458.got.cif
#   From: 2010.05.17/outbox.cif.g08.bks.cpg/sg74_31_cif.got.tgz:61458.got - 2010.06.03 17:57:02.
