data_PCOD9535271
_publ_section_title
;
Structure prediction by ZEFSAII (Michael W. Deem and Ramdas Pophale) SiO2 
 PCOD9535271
Probable space group: I M M A
;
_chemical_formula_sum "Si O2"
_cell_formula_units_Z 72
_cell_length_a 7.559095
_cell_length_b 13.498201
_cell_length_c 31.659389
_cell_angle_alpha 90.000000
_cell_angle_beta 90.000000
_cell_angle_gamma 90.000000
_cell_volume 3230.339913
_symmetry_space_group_name_H-M "I M M A"
_symmetry_group_IT_number 74
_symmetry_cell_setting 'orthorhombic'
loop_
_space_group_symop_operation_xyz
x,y,z
-x,1/2-y,z
x,-y,-z
-x,1/2+y,-z
-x,-y,-z
x,1/2+y,-z
-x,y,z
x,1/2-y,z
1/2+x,1/2+y,1/2+z
1/2-x,-y,1/2+z
1/2+x,1/2-y,1/2-z
1/2-x,y,1/2-z
1/2-x,1/2-y,1/2-z
1/2+x,y,1/2-z
1/2-x,1/2+y,1/2+z
1/2+x,-y,1/2+z
loop_
_atom_site_type_symbol
_atom_site_label
_atom_site_fract_x
_atom_site_fract_y
_atom_site_fract_z
Si Si1 0.801137 0.554133 0.843896
Si Si2 0.712749 0.250000 0.299415
Si Si3 0.708170 0.630315 0.475951
Si Si4 0.794372 0.365170 0.430980
Si Si5 0.717692 0.864050 0.382315
O O1 0.717748 0.648049 0.820203
O O2 0.809590 0.585531 0.893084
O O3 0.721311 0.444331 0.847936
O O4 0.000000 0.542850 0.826541
O O5 0.500000 0.250000 0.307254
O O6 0.750000 0.250000 0.250000
O O7 0.500000 0.608558 0.475535
O O8 0.730555 0.750000 0.476890
O O9 0.775444 0.594606 0.521432
O O10 0.780701 0.604761 0.429562
O O11 0.738708 0.250000 0.432309
O O12 0.000000 0.369347 0.419516
O O13 0.500000 0.865975 0.383174
O O14 0.768362 0.750000 0.374785
#
# Coordination Sequence:
#
# PCOD9535271 Si02
#       5
#    16   8  16  16  16
#     4  10  19  33  54  77  99 126 165 209 253 303
#     4  10  22  38  58  82 104 128 158 202 262 320
#     4   8  14  26  44  65  93 132 174 214 250 285
#     4  10  19  29  43  67 101 138 174 212 254 297
#     4   8  15  29  50  75 100 130 172 214 247 283
#
# _framework density 22.288678000000001
#
# number of rings (size 3 to 8) (size 9 to 14) (size 15 to 20)
#    0.000    2.889    1.111    2.000    0.000    2.667 
#    0.000    5.556    0.000    2.667    0.000    0.000 
#    0.000    0.000    0.000    0.000    0.000    0.000 
#
# Total GULP energy -200800.078601 kJ/mol
# GULP energy per Si atom -5577.779961 kJ/mol
# Density = 2.223795 g / cm^3
# Si number density = 22.288678 Si / 1000 Ang^3
#
#
#
# Elastic Constant Matrix: (Units=GPa)
#
#
# Indices 1 2 3 4 5 6 
#
# 1 38.6335 -4.4245 5.7899 0.0000 0.0000 0.0000
# 2 -4.4245 155.3404 74.6559 0.0000 0.0000 0.0000
# 3 5.7899 74.6559 81.8518 0.0000 0.0000 0.0000
# 4 0.0000 0.0000 0.0000 23.0114 0.0000 0.0000
# 5 0.0000 0.0000 0.0000 0.0000 6.8676 0.0000
# 6 0.0000 0.0000 0.0000 0.0000 0.0000 -5.2487
#
#
#
# Elastic Compliance Matrix: (Units=1/GPa)
#
#
# Indices 1 2 3 4 5 6 
#
# 1 0.026922 0.002995 -0.004636 0.000000 0.000000 0.000000
# 2 0.002995 0.011795 -0.010970 0.000000 0.000000 0.000000
# 3 -0.004636 -0.010970 0.022550 0.000000 0.000000 0.000000
# 4 0.000000 0.000000 0.000000 0.043457 0.000000 0.000000
# 5 0.000000 0.000000 0.000000 0.000000 0.145611 0.000000
# 6 0.000000 0.000000 0.000000 0.000000 0.000000 -0.190524
#
#
# Mechanical properties :
#
#
# Convention : Reuss Voigt Hill
#
# Bulk Modulus (GPa) = 27.74259 47.54092 37.64175
# Shear Modulus (GPa) = 51.52095 18.24637 34.88366
#
# Velocity S-wave (km/s) = 4.81305 2.86429 3.96041
# Velocity P-wave (km/s) = 6.58493 5.68461 6.15126
#
# Compressibility (1/GPa) = 0.03604566
#
# Stress axis : x y z
#
# Youngs Moduli (GPa) = 37.14437 84.78365 44.34517
#
# Poissons Ratio (x) = -0.25391 0.20558
# Poissons Ratio (y) = -0.11124 0.48645
# Poissons Ratio (z) = 0.17219 0.93005
#
# Static dielectric constant tensor:
#      x y z
#    x 1.853390 0.000000 0.000000 
#    y 0.000000 1.944980 0.000000 
#    z 0.000000 0.000000 1.785670 
# 
# From -- ./inp_files/69980.got.cif
#   From: 2010.05.17/outbox.cif.g08.bks.cpg/sg74_35_cif.got.tgz:69980.got - 2010.06.03 17:57:02.
