data_PCOD9535189
_publ_section_title
;
Structure prediction by ZEFSAII (Michael W. Deem and Ramdas Pophale) SiO2 
 PCOD9535189
Probable space group: I M M A
;
_chemical_formula_sum "Si O2"
_cell_formula_units_Z 68
_cell_length_a 12.248688
_cell_length_b 11.141545
_cell_length_c 25.535129
_cell_angle_alpha 90.000000
_cell_angle_beta 90.000000
_cell_angle_gamma 90.000000
_cell_volume 3484.761398
_symmetry_space_group_name_H-M "I M M A"
_symmetry_group_IT_number 74
_symmetry_cell_setting 'orthorhombic'
loop_
_space_group_symop_operation_xyz
x,y,z
-x,1/2-y,z
x,-y,-z
-x,1/2+y,-z
-x,-y,-z
x,1/2+y,-z
-x,y,z
x,1/2-y,z
1/2+x,1/2+y,1/2+z
1/2-x,-y,1/2+z
1/2+x,1/2-y,1/2-z
1/2-x,y,1/2-z
1/2-x,1/2-y,1/2-z
1/2+x,y,1/2-z
1/2-x,1/2+y,1/2+z
1/2+x,-y,1/2+z
loop_
_atom_site_type_symbol
_atom_site_label
_atom_site_fract_x
_atom_site_fract_y
_atom_site_fract_z
Si Si1 0.000000 0.750000 0.574058
Si Si2 0.242818 0.750000 0.541247
Si Si3 0.618205 0.609342 0.391604
Si Si4 0.000000 0.386076 0.324917
Si Si5 0.133428 0.250000 0.155166
Si Si6 0.740044 0.984647 0.808064
Si Si7 0.327821 0.500000 0.500000
O O1 0.113393 0.750000 0.545977
O O2 0.000000 0.636747 0.612939
O O3 0.308476 0.750000 0.597220
O O4 0.269971 0.625868 0.512626
O O5 0.500000 0.589816 0.364760
O O6 0.626443 0.750000 0.404432
O O7 0.715712 0.569645 0.353956
O O8 0.616329 0.532551 0.444821
O O9 0.113628 0.448635 0.312912
O O10 0.000000 0.250000 0.301552
O O11 0.183278 0.366202 0.184632
O O12 0.000000 0.250000 0.152041
O O13 0.750000 0.036528 0.750000
#
# Coordination Sequence:
#
# PCOD9535189 Si02
#       7
#     4   8  16   8   8  16   8
#     4  10  18  42  62  90 138 178 218 286 330 390
#     4  12  24  41  68 100 138 174 229 276 337 404
#     4  11  25  45  68  98 136 174 220 279 341 401
#     4  10  20  40  61  93 138 173 210 276 331 384
#     4  12  23  38  65 102 137 166 224 277 332 396
#     4  12  25  40  66  98 134 178 224 272 332 400
#     4  12  23  43  68 104 132 177 221 280 340 408
#
# _framework density 19.513531
#
# number of rings (size 3 to 8) (size 9 to 14) (size 15 to 20)
#    0.353    0.235    7.059    1.412    3.294    1.882 
#    0.000    1.765    0.000    0.000    0.000    0.000 
#    0.000    0.000    0.000    0.000    0.000    0.000 
#
# Total GULP energy -189525.370793 kJ/mol
# GULP energy per Si atom -5574.275612 kJ/mol
# Density = 1.946912 g / cm^3
# Si number density = 19.513531 Si / 1000 Ang^3
#
#
#
# Elastic Constant Matrix: (Units=GPa)
#
#
# Indices 1 2 3 4 5 6 
#
# 1 187.2441 45.8041 49.9317 0.0000 0.0000 0.0000
# 2 45.8041 93.6360 25.3135 0.0000 0.0000 0.0000
# 3 49.9317 25.3135 94.4473 0.0000 0.0000 0.0000
# 4 0.0000 0.0000 0.0000 22.6711 0.0000 0.0000
# 5 0.0000 0.0000 0.0000 0.0000 168.6411 0.0000
# 6 0.0000 0.0000 0.0000 0.0000 0.0000 -15.7219
#
#
#
# Elastic Compliance Matrix: (Units=1/GPa)
#
#
# Indices 1 2 3 4 5 6 
#
# 1 0.006723 -0.002510 -0.002882 0.000000 0.000000 0.000000
# 2 -0.002510 0.012451 -0.002010 0.000000 0.000000 0.000000
# 3 -0.002882 -0.002010 0.012650 0.000000 0.000000 0.000000
# 4 0.000000 0.000000 0.000000 0.044109 0.000000 0.000000
# 5 0.000000 0.000000 0.000000 0.000000 0.005930 0.000000
# 6 0.000000 0.000000 0.000000 0.000000 0.000000 -0.063606
#
#
# Mechanical properties :
#
#
# Convention : Reuss Voigt Hill
#
# Bulk Modulus (GPa) = 58.75153 68.60288 63.67721
# Shear Modulus (GPa) = 129.08680 52.06994 90.57837
#
# Velocity S-wave (km/s) = 8.14224 5.17126 6.82048
# Velocity P-wave (km/s) = 10.88890 8.41955 9.73286
#
# Compressibility (1/GPa) = 0.01702083
#
# Stress axis : x y z
#
# Youngs Moduli (GPa) = 148.74357 80.31636 79.05062
#
# Poissons Ratio (x) = 0.20157 0.22779
# Poissons Ratio (y) = 0.37330 0.15891
# Poissons Ratio (z) = 0.42862 0.16145
#
# Static dielectric constant tensor:
#      x y z
#    x 1.613950 0.000000 0.000000 
#    y 0.000000 1.702270 0.000000 
#    z 0.000000 0.000000 1.706780 
# 
# From -- ./inp_files/65760.got.cif
#   From: 2010.05.17/outbox.cif.g08.bks.cpg/sg74_33_cif.got.tgz:65760.got - 2010.06.03 17:57:02.
