data_PCOD9535307
_publ_section_title
;
Structure prediction by ZEFSAII (Michael W. Deem and Ramdas Pophale) SiO2 
 PCOD9535307
Probable space group: I M M A
;
_chemical_formula_sum "Si O2"
_cell_formula_units_Z 96
_cell_length_a 13.842617
_cell_length_b 26.601333
_cell_length_c 18.432607
_cell_angle_alpha 90.000000
_cell_angle_beta 90.000000
_cell_angle_gamma 90.000000
_cell_volume 6787.476928
_symmetry_space_group_name_H-M "I M M A"
_symmetry_group_IT_number 74
_symmetry_cell_setting 'orthorhombic'
loop_
_space_group_symop_operation_xyz
x,y,z
-x,1/2-y,z
x,-y,-z
-x,1/2+y,-z
-x,-y,-z
x,1/2+y,-z
-x,y,z
x,1/2-y,z
1/2+x,1/2+y,1/2+z
1/2-x,-y,1/2+z
1/2+x,1/2-y,1/2-z
1/2-x,y,1/2-z
1/2-x,1/2-y,1/2-z
1/2+x,y,1/2-z
1/2-x,1/2+y,1/2+z
1/2+x,-y,1/2+z
loop_
_atom_site_type_symbol
_atom_site_label
_atom_site_fract_x
_atom_site_fract_y
_atom_site_fract_z
Si Si1 0.000000 0.585786 0.536798
Si Si2 0.287042 0.518984 0.170986
Si Si3 0.500000 0.166505 0.165507
Si Si4 0.500000 0.588016 0.703794
Si Si5 0.204363 0.557992 0.477770
Si Si6 0.283754 0.196063 0.166900
Si Si7 0.500000 0.992897 0.832504
Si Si8 0.297495 0.911986 0.620373
O O1 0.000000 0.631224 0.594199
O O2 0.900231 0.583942 0.491271
O O3 0.000000 0.538662 0.592707
O O4 0.250000 0.532609 0.250000
O O5 0.255175 0.553473 0.103621
O O6 0.402015 0.523115 0.169317
O O7 0.259181 0.459892 0.156226
O O8 0.500000 0.135010 0.240923
O O9 0.399383 0.195124 0.163940
O O10 0.500000 0.542286 0.761197
O O11 0.595574 0.586909 0.654216
O O12 0.187271 0.500000 0.500000
O O13 0.281755 0.579275 0.534886
O O14 0.249505 0.250000 0.134917
O O15 0.250000 0.195502 0.250000
O O16 0.247469 0.142706 0.136308
#
# Coordination Sequence:
#
# PCOD9535307 Si02
#       8
#     8  16   8   8  16  16   8  16
#     4  11  16  27  48  68  88 114 149 195 229 263
#     4  11  20  31  47  66  91 117 154 190 229 274
#     4  11  19  30  49  68  91 120 156 189 231 261
#     4  11  20  28  48  63  85 128 161 191 216 262
#     4  10  19  29  46  66  87 115 152 191 226 269
#     4  11  21  32  46  66  94 124 154 188 225 265
#     4  11  17  26  45  67  86 115 152 191 225 266
#     4  11  19  34  45  63  88 123 157 186 225 264
#
# _framework density 14.143694999999999
#
# number of rings (size 3 to 8) (size 9 to 14) (size 15 to 20)
#    0.000    1.167    8.333    2.500    0.000    0.000 
#    0.000    5.000    0.000    0.000    0.000    0.000 
#    0.000    0.667    0.000    0.000    0.667    0.000 
#
# Total GULP energy -267279.971335 kJ/mol
# GULP energy per Si atom -5568.332736 kJ/mol
# Density = 1.411150 g / cm^3
# Si number density = 14.143695 Si / 1000 Ang^3
#
#
#
# Elastic Constant Matrix: (Units=GPa)
#
#
# Indices 1 2 3 4 5 6 
#
# 1 62.6132 23.5060 26.9703 0.0000 0.0000 0.0000
# 2 23.5060 55.8079 38.9458 0.0000 0.0000 0.0000
# 3 26.9703 38.9458 112.9500 0.0000 0.0000 0.0000
# 4 0.0000 0.0000 0.0000 65.0801 0.0000 0.0000
# 5 0.0000 0.0000 0.0000 0.0000 11.4983 0.0000
# 6 0.0000 0.0000 0.0000 0.0000 0.0000 21.0054
#
#
#
# Elastic Compliance Matrix: (Units=1/GPa)
#
#
# Indices 1 2 3 4 5 6 
#
# 1 0.019451 -0.006520 -0.002396 0.000000 0.000000 0.000000
# 2 -0.006520 0.025782 -0.007333 0.000000 0.000000 0.000000
# 3 -0.002396 -0.007333 0.011954 0.000000 0.000000 0.000000
# 4 0.000000 0.000000 0.000000 0.015366 0.000000 0.000000
# 5 0.000000 0.000000 0.000000 0.000000 0.086969 0.000000
# 6 0.000000 0.000000 0.000000 0.000000 0.000000 0.047607
#
#
# Mechanical properties :
#
#
# Convention : Reuss Voigt Hill
#
# Bulk Modulus (GPa) = 40.50514 45.57947 43.04230
# Shear Modulus (GPa) = 20.17286 28.98003 24.57644
#
# Velocity S-wave (km/s) = 3.78071 4.53147 4.17301
# Velocity P-wave (km/s) = 6.91077 7.72495 7.32918
#
# Compressibility (1/GPa) = 0.02468823
#
# Stress axis : x y z
#
# Youngs Moduli (GPa) = 51.41086 38.78627 83.65337
#
# Poissons Ratio (x) = 0.25291 0.20046
# Poissons Ratio (y) = 0.33522 0.61342
# Poissons Ratio (z) = 0.12319 0.28442
#
# Static dielectric constant tensor:
#      x y z
#    x 1.475730 0.000000 0.000000 
#    y 0.000000 1.478930 0.000000 
#    z 0.000000 0.000000 1.492730 
# 
# From -- ./inp_files/41684.got.cif
#   From: 2010.05.17/outbox.cif.g08.bks.cpg/sg74_21_cif.got.tgz:41684.got - 2010.06.03 17:57:02.
