data_PCOD9535606
_publ_section_title
;
Structure prediction by ZEFSAII (Michael W. Deem and Ramdas Pophale) SiO2 
 PCOD9535606
Probable space group: I M M A
;
_chemical_formula_sum "Si O2"
_cell_formula_units_Z 72
_cell_length_a 7.850016
_cell_length_b 16.782013
_cell_length_c 28.311374
_cell_angle_alpha 90.000000
_cell_angle_beta 90.000000
_cell_angle_gamma 90.000000
_cell_volume 3729.714097
_symmetry_space_group_name_H-M "I M M A"
_symmetry_group_IT_number 74
_symmetry_cell_setting 'orthorhombic'
loop_
_space_group_symop_operation_xyz
x,y,z
-x,1/2-y,z
x,-y,-z
-x,1/2+y,-z
-x,-y,-z
x,1/2+y,-z
-x,y,z
x,1/2-y,z
1/2+x,1/2+y,1/2+z
1/2-x,-y,1/2+z
1/2+x,1/2-y,1/2-z
1/2-x,y,1/2-z
1/2-x,1/2-y,1/2-z
1/2+x,y,1/2-z
1/2-x,1/2+y,1/2+z
1/2+x,-y,1/2+z
loop_
_atom_site_type_symbol
_atom_site_label
_atom_site_fract_x
_atom_site_fract_y
_atom_site_fract_z
Si Si1 0.297244 0.567478 0.196697
Si Si2 0.798639 0.909706 0.856634
Si Si3 0.793703 0.161272 0.606411
Si Si4 0.297336 0.002842 0.552911
Si Si5 0.293605 0.750000 0.694421
O O1 0.500000 0.559745 0.193255
O O2 0.250000 0.585752 0.250000
O O3 0.222273 0.483412 0.179305
O O4 0.242753 0.634464 0.159228
O O5 0.730036 0.829284 0.832754
O O6 0.000000 0.896642 0.863698
O O7 0.727813 0.941876 0.906995
O O8 0.733901 0.250000 0.595042
O O9 0.728602 0.091460 0.572895
O O10 0.000000 0.160886 0.604241
O O11 0.500000 0.987319 0.549954
O O12 0.225598 0.000000 0.500000
O O13 0.500000 0.750000 0.692419
O O14 0.250000 0.750000 0.750000
#
# Coordination Sequence:
#
# PCOD9535606 Si02
#       5
#    16  16  16  16   8
#     4  10  19  31  49  72  98 131 166 202 245 292
#     4   9  18  33  50  70  99 131 166 204 248 299
#     4   9  19  35  52  72 100 132 166 203 244 294
#     4   9  18  34  54  77 101 128 164 207 253 303
#     4  10  20  32  48  70  98 134 166 204 249 294
#
# _framework density 19.30443
#
# number of rings (size 3 to 8) (size 9 to 14) (size 15 to 20)
#    0.000    2.667    0.000    1.333    0.000    4.889 
#    2.000    0.000    0.000    0.000    0.000    0.000 
#    0.000    0.000    0.000    0.000    0.000    0.000 
#
# Total GULP energy -200709.599567 kJ/mol
# GULP energy per Si atom -5575.266655 kJ/mol
# Density = 1.926049 g / cm^3
# Si number density = 19.304430 Si / 1000 Ang^3
#
#
#
# Elastic Constant Matrix: (Units=GPa)
#
#
# Indices 1 2 3 4 5 6 
#
# 1 19.2855 4.8841 3.5622 0.0000 0.0000 0.0000
# 2 4.8841 112.4666 64.3828 0.0000 0.0000 0.0000
# 3 3.5622 64.3828 174.3355 0.0000 0.0000 0.0000
# 4 0.0000 0.0000 0.0000 9.3660 0.0000 0.0000
# 5 0.0000 0.0000 0.0000 0.0000 13.0322 0.0000
# 6 0.0000 0.0000 0.0000 0.0000 0.0000 23.4082
#
#
#
# Elastic Compliance Matrix: (Units=1/GPa)
#
#
# Indices 1 2 3 4 5 6 
#
# 1 0.052441 -0.002110 -0.000292 0.000000 0.000000 0.000000
# 2 -0.002110 0.011360 -0.004152 0.000000 0.000000 0.000000
# 3 -0.000292 -0.004152 0.007275 0.000000 0.000000 0.000000
# 4 0.000000 0.000000 0.000000 0.106769 0.000000 0.000000
# 5 0.000000 0.000000 0.000000 0.000000 0.076733 0.000000
# 6 0.000000 0.000000 0.000000 0.000000 0.000000 0.042720
#
#
# Mechanical properties :
#
#
# Convention : Reuss Voigt Hill
#
# Bulk Modulus (GPa) = 17.25111 50.19398 33.72254
# Shear Modulus (GPa) = 15.16390 24.71184 19.93787
#
# Velocity S-wave (km/s) = 2.80574 3.58175 3.21723
# Velocity P-wave (km/s) = 4.41044 6.56985 5.59531
#
# Compressibility (1/GPa) = 0.05796729
#
# Stress axis : x y z
#
# Youngs Moduli (GPa) = 19.06914 88.02692 137.44797
#
# Poissons Ratio (x) = 0.18574 0.04017
# Poissons Ratio (y) = 0.04024 0.57072
# Poissons Ratio (z) = 0.00557 0.36551
#
# Static dielectric constant tensor:
#      x y z
#    x 1.710800 0.000000 0.000000 
#    y 0.000000 1.656060 0.000000 
#    z 0.000000 0.000000 1.675480 
# 
# From -- ./inp_files/56663.got.cif
#   From: 2010.05.17/outbox.cif.g08.bks.cpg/sg74_29_cif.got.tgz:56663.got - 2010.06.03 17:57:02.
