data_PCOD9535798
_publ_section_title
;
Structure prediction by ZEFSAII (Michael W. Deem and Ramdas Pophale) SiO2 
 PCOD9535798
Probable space group: I M M A
;
_chemical_formula_sum "Si O2"
_cell_formula_units_Z 80
_cell_length_a 8.811769
_cell_length_b 24.021572
_cell_length_c 25.318576
_cell_angle_alpha 90.000000
_cell_angle_beta 90.000000
_cell_angle_gamma 90.000000
_cell_volume 5359.247379
_symmetry_space_group_name_H-M "I M M A"
_symmetry_group_IT_number 74
_symmetry_cell_setting 'orthorhombic'
loop_
_space_group_symop_operation_xyz
x,y,z
-x,1/2-y,z
x,-y,-z
-x,1/2+y,-z
-x,-y,-z
x,1/2+y,-z
-x,y,z
x,1/2-y,z
1/2+x,1/2+y,1/2+z
1/2-x,-y,1/2+z
1/2+x,1/2-y,1/2-z
1/2-x,y,1/2-z
1/2-x,1/2-y,1/2-z
1/2+x,y,1/2-z
1/2-x,1/2+y,1/2+z
1/2+x,-y,1/2+z
loop_
_atom_site_type_symbol
_atom_site_label
_atom_site_fract_x
_atom_site_fract_y
_atom_site_fract_z
Si Si1 0.181507 0.636647 0.693961
Si Si2 0.318533 0.686104 0.587689
Si Si3 0.316591 0.088990 0.019555
Si Si4 0.184277 0.524449 0.418801
Si Si5 0.682007 0.495230 0.194559
O O1 0.250000 0.655278 0.750000
O O2 0.249770 0.668407 0.644139
O O3 0.217758 0.570648 0.688269
O O4 0.000000 0.642381 0.694490
O O5 0.500000 0.681551 0.590412
O O6 0.277799 0.750000 0.576124
O O7 0.255662 0.643632 0.544092
O O8 0.500000 0.093924 0.020899
O O9 0.276221 0.035523 0.055921
O O10 0.268317 0.071743 0.960296
O O11 0.236878 0.526049 0.358406
O O12 0.000000 0.525757 0.418040
O O13 0.500000 0.499588 0.197232
O O14 0.750000 0.514449 0.250000
#
# Coordination Sequence:
#
# PCOD9535798 Si02
#       5
#    16  16  16  16  16
#     4  10  19  32  49  65  85 116 154 193 228 264
#     4  11  23  35  45  61  89 120 152 192 230 265
#     4   9  16  30  50  67  84 113 150 185 223 268
#     4   8  14  27  48  69  89 112 143 182 224 268
#     4   9  16  27  43  66  92 117 143 176 217 261
#
# _framework density 14.927469
#
# number of rings (size 3 to 8) (size 9 to 14) (size 15 to 20)
#    0.000    2.600    2.000    2.400    0.000    2.800 
#    0.000    3.000    0.000    0.000    0.000    0.000 
#    0.000    0.800    0.000    1.800    0.000    3.200 
#
# Total GULP energy -222919.150242 kJ/mol
# GULP energy per Si atom -5572.978756 kJ/mol
# Density = 1.489349 g / cm^3
# Si number density = 14.927469 Si / 1000 Ang^3
#
#
#
# Elastic Constant Matrix: (Units=GPa)
#
#
# Indices 1 2 3 4 5 6 
#
# 1 20.4626 30.3507 34.9186 0.0000 0.0000 0.0000
# 2 30.3507 79.5004 75.1093 0.0000 0.0000 0.0000
# 3 34.9186 75.1093 157.2932 0.0000 0.0000 0.0000
# 4 0.0000 0.0000 0.0000 18.6364 0.0000 0.0000
# 5 0.0000 0.0000 0.0000 0.0000 24.7350 0.0000
# 6 0.0000 0.0000 0.0000 0.0000 0.0000 16.3254
#
#
#
# Elastic Compliance Matrix: (Units=1/GPa)
#
#
# Indices 1 2 3 4 5 6 
#
# 1 0.118708 -0.037207 -0.008586 0.000000 0.000000 0.000000
# 2 -0.037207 0.034579 -0.008252 0.000000 0.000000 0.000000
# 3 -0.008586 -0.008252 0.012204 0.000000 0.000000 0.000000
# 4 0.000000 0.000000 0.000000 0.053658 0.000000 0.000000
# 5 0.000000 0.000000 0.000000 0.000000 0.040429 0.000000
# 6 0.000000 0.000000 0.000000 0.000000 0.000000 0.061254
#
#
# Mechanical properties :
#
#
# Convention : Reuss Voigt Hill
#
# Bulk Modulus (GPa) = 17.42133 59.77925 38.60029
# Shear Modulus (GPa) = 11.15930 19.73121 15.44526
#
# Velocity S-wave (km/s) = 2.73714 3.63961 3.22014
# Velocity P-wave (km/s) = 4.65674 7.60235 6.30400
#
# Compressibility (1/GPa) = 0.05740090
#
# Stress axis : x y z
#
# Youngs Moduli (GPa) = 8.42404 28.91895 81.93955
#
# Poissons Ratio (x) = 1.07599 0.70353
# Poissons Ratio (y) = 0.31343 0.67618
# Poissons Ratio (z) = 0.07233 0.23864
#
# Static dielectric constant tensor:
#      x y z
#    x 1.502040 0.000000 0.000000 
#    y 0.000000 1.472750 0.000000 
#    z 0.000000 0.000000 1.513670 
# 
# From -- ./inp_files/63958.got.cif
#   From: 2010.05.17/outbox.cif.g08.bks.cpg/sg74_32_cif.got.tgz:63958.got - 2010.06.03 17:57:02.
