data_PCOD9535193
_publ_section_title
;
Structure prediction by ZEFSAII (Michael W. Deem and Ramdas Pophale) SiO2 
 PCOD9535193
Probable space group: I M M A
;
_chemical_formula_sum "Si O2"
_cell_formula_units_Z 96
_cell_length_a 33.978633
_cell_length_b 8.174673
_cell_length_c 30.383638
_cell_angle_alpha 90.000000
_cell_angle_beta 90.000000
_cell_angle_gamma 90.000000
_cell_volume 8439.487320
_symmetry_space_group_name_H-M "I M M A"
_symmetry_group_IT_number 74
_symmetry_cell_setting 'orthorhombic'
loop_
_space_group_symop_operation_xyz
x,y,z
-x,1/2-y,z
x,-y,-z
-x,1/2+y,-z
-x,-y,-z
x,1/2+y,-z
-x,y,z
x,1/2-y,z
1/2+x,1/2+y,1/2+z
1/2-x,-y,1/2+z
1/2+x,1/2-y,1/2-z
1/2-x,y,1/2-z
1/2-x,1/2-y,1/2-z
1/2+x,y,1/2-z
1/2-x,1/2+y,1/2+z
1/2+x,-y,1/2+z
loop_
_atom_site_type_symbol
_atom_site_label
_atom_site_fract_x
_atom_site_fract_y
_atom_site_fract_z
Si Si1 0.685374 0.250000 0.266191
Si Si2 0.241625 0.063683 0.869120
Si Si3 0.767761 0.750000 0.678667
Si Si4 0.954658 0.553998 0.049364
Si Si5 0.339466 0.930492 0.312404
Si Si6 0.116486 0.060943 0.107038
Si Si7 0.311222 0.444184 0.549652
O O1 0.725941 0.250000 0.294920
O O2 0.698790 0.250000 0.215712
O O3 0.662715 0.415230 0.279970
O O4 0.257844 0.250000 0.867936
O O5 0.201882 0.067476 0.839323
O O6 0.225541 0.024336 0.917937
O O7 0.267460 0.915970 0.850065
O O8 0.952986 0.750000 0.051345
O O9 0.924626 0.482277 0.084580
O O10 0.000000 0.501492 0.056291
O O11 0.943220 0.500000 0.000000
O O12 0.343377 0.750000 0.292074
O O13 0.372256 0.957468 0.349934
O O14 0.118050 0.250000 0.119798
O O15 0.150669 0.028652 0.071077
O O16 0.304831 0.500000 0.500000
O O17 0.318531 0.250000 0.550870
#
# Coordination Sequence:
#
# PCOD9535193 Si02
#       7
#     8  16   8  16  16  16  16
#     4   9  16  26  36  58  65  86 110 124 161 192
#     4   8  16  26  35  49  67  88 108 132 161 190
#     4   9  16  24  40  48  70  88 106 130 154 201
#     4  10  20  32  42  52  67  86 110 139 170 205
#     4   9  16  27  39  52  71  85 104 133 159 195
#     4  11  19  28  41  53  68  87 108 135 171 207
#     4  10  19  27  37  52  67  86 113 140 169 201
#
# _framework density 11.375099000000001
#
# number of rings (size 3 to 8) (size 9 to 14) (size 15 to 20)
#    0.000    2.500    0.833    4.000    4.667    1.667 
#    0.000    3.333    0.000    0.000    0.000    0.000 
#    0.000    0.000    0.000    0.000    0.000    0.000 
#
# Total GULP energy -267392.860471 kJ/mol
# GULP energy per Si atom -5570.684593 kJ/mol
# Density = 1.134921 g / cm^3
# Si number density = 11.375099 Si / 1000 Ang^3
#
#
#
# Elastic Constant Matrix: (Units=GPa)
#
#
# Indices 1 2 3 4 5 6 
#
# 1 24.4616 21.6754 23.0484 0.0000 0.0000 0.0000
# 2 21.6754 78.4669 31.4297 0.0000 0.0000 0.0000
# 3 23.0484 31.4297 40.1473 0.0000 0.0000 0.0000
# 4 0.0000 0.0000 0.0000 14.7998 0.0000 0.0000
# 5 0.0000 0.0000 0.0000 0.0000 10.5582 0.0000
# 6 0.0000 0.0000 0.0000 0.0000 0.0000 8.9306
#
#
#
# Elastic Compliance Matrix: (Units=1/GPa)
#
#
# Indices 1 2 3 4 5 6 
#
# 1 0.091036 -0.006138 -0.047458 0.000000 0.000000 0.000000
# 2 -0.006138 0.018980 -0.011335 0.000000 0.000000 0.000000
# 3 -0.047458 -0.011335 0.061027 0.000000 0.000000 0.000000
# 4 0.000000 0.000000 0.000000 0.067568 0.000000 0.000000
# 5 0.000000 0.000000 0.000000 0.000000 0.094713 0.000000
# 6 0.000000 0.000000 0.000000 0.000000 0.000000 0.111974
#
#
# Mechanical properties :
#
#
# Convention : Reuss Voigt Hill
#
# Bulk Modulus (GPa) = 24.28293 32.82031 28.55162
# Shear Modulus (GPa) = 8.49059 11.31922 9.90490
#
# Velocity S-wave (km/s) = 2.73503 3.15792 2.95405
# Velocity P-wave (km/s) = 5.60068 6.49708 6.06546
#
# Compressibility (1/GPa) = 0.04118119
#
# Stress axis : x y z
#
# Youngs Moduli (GPa) = 10.98467 52.68739 16.38614
#
# Poissons Ratio (x) = 0.32341 0.77765
# Poissons Ratio (y) = 0.06743 0.18573
# Poissons Ratio (z) = 0.52131 0.59719
#
# Static dielectric constant tensor:
#      x y z
#    x 1.342000 0.000000 0.000000 
#    y 0.000000 1.402460 0.000000 
#    z 0.000000 0.000000 1.358030 
# 
# From -- ./inp_files/74003.got.cif
#   From: 2010.05.17/outbox.cif.g08.bks.cpg/sg74_38_cif.got.tgz:74003.got - 2010.06.03 17:57:02.
