data_PCOD9535459
_publ_section_title
;
Structure prediction by ZEFSAII (Michael W. Deem and Ramdas Pophale) SiO2 
 PCOD9535459
Probable space group: I M M A
;
_chemical_formula_sum "Si O2"
_cell_formula_units_Z 112
_cell_length_a 18.397208
_cell_length_b 21.003322
_cell_length_c 15.991571
_cell_angle_alpha 90.000000
_cell_angle_beta 90.000000
_cell_angle_gamma 90.000000
_cell_volume 6179.182750
_symmetry_space_group_name_H-M "I M M A"
_symmetry_group_IT_number 74
_symmetry_cell_setting 'orthorhombic'
loop_
_space_group_symop_operation_xyz
x,y,z
-x,1/2-y,z
x,-y,-z
-x,1/2+y,-z
-x,-y,-z
x,1/2+y,-z
-x,y,z
x,1/2-y,z
1/2+x,1/2+y,1/2+z
1/2-x,-y,1/2+z
1/2+x,1/2-y,1/2-z
1/2-x,y,1/2-z
1/2-x,1/2-y,1/2-z
1/2+x,y,1/2-z
1/2-x,1/2+y,1/2+z
1/2+x,-y,1/2+z
loop_
_atom_site_type_symbol
_atom_site_label
_atom_site_fract_x
_atom_site_fract_y
_atom_site_fract_z
Si Si1 0.729353 0.540895 0.083901
Si Si2 0.583390 0.015543 0.826969
Si Si3 0.414116 0.068835 0.455596
Si Si4 0.087491 0.181656 0.922480
Si Si5 0.582602 0.844099 0.234657
Si Si6 0.274791 0.677775 0.153663
Si Si7 0.183297 0.947231 0.799033
O O1 0.643354 0.529427 0.102059
O O2 0.741978 0.617173 0.094227
O O3 0.775552 0.508212 0.158854
O O4 0.746163 0.500000 0.000000
O O5 0.500000 0.001844 0.852164
O O6 0.621696 0.963782 0.768498
O O7 0.581510 0.079596 0.771074
O O8 0.500000 0.075251 0.432856
O O9 0.393228 0.121351 0.523441
O O10 0.361508 0.079527 0.377222
O O11 0.407156 0.000000 0.500000
O O12 0.109443 0.250000 0.958067
O O13 0.109870 0.175910 0.826156
O O14 0.000000 0.180689 0.919002
O O15 0.500000 0.822159 0.223491
O O16 0.637830 0.821330 0.164760
O O17 0.252312 0.750000 0.130350
O O18 0.250000 0.664209 0.250000
O O19 0.250000 0.913138 0.750000
#
# Coordination Sequence:
#
# PCOD9535459 Si02
#       7
#    16  16  16  16  16  16  16
#     4  10  20  33  49  70 100 135 165 198 245 298
#     4   9  17  30  49  72  96 124 163 205 241 282
#     4  10  19  30  48  73  98 125 158 196 237 285
#     4   9  17  28  44  71 104 130 150 180 232 293
#     4   9  16  28  47  70  98 129 156 184 226 287
#     4  10  20  33  49  71 100 132 166 201 239 291
#     4  10  19  31  48  67  92 126 163 202 244 287
#
# _framework density 18.125374000000001
#
# number of rings (size 3 to 8) (size 9 to 14) (size 15 to 20)
#    0.000    2.429    0.000    4.286    0.000    4.571 
#    0.000    0.000    0.000    0.429    0.000    3.000 
#    0.000    5.143    0.000    0.000    0.000    0.000 
#
# Total GULP energy -311870.040422 kJ/mol
# GULP energy per Si atom -5569.107865 kJ/mol
# Density = 1.808412 g / cm^3
# Si number density = 18.125374 Si / 1000 Ang^3
#
#
#
# Elastic Constant Matrix: (Units=GPa)
#
#
# Indices 1 2 3 4 5 6 
#
# 1 135.8609 18.0041 32.0168 0.0000 0.0000 0.0000
# 2 18.0041 93.9644 40.7128 0.0000 0.0000 0.0000
# 3 32.0168 40.7128 66.8430 0.0000 0.0000 0.0000
# 4 0.0000 0.0000 0.0000 10.6034 0.0000 0.0000
# 5 0.0000 0.0000 0.0000 0.0000 35.6888 0.0000
# 6 0.0000 0.0000 0.0000 0.0000 0.0000 -9.6373
#
#
#
# Elastic Compliance Matrix: (Units=1/GPa)
#
#
# Indices 1 2 3 4 5 6 
#
# 1 0.008299 0.000180 -0.004085 0.000000 0.000000 0.000000
# 2 0.000180 0.014462 -0.008894 0.000000 0.000000 0.000000
# 3 -0.004085 -0.008894 0.022334 0.000000 0.000000 0.000000
# 4 0.000000 0.000000 0.000000 0.094309 0.000000 0.000000
# 5 0.000000 0.000000 0.000000 0.000000 0.028020 0.000000
# 6 0.000000 0.000000 0.000000 0.000000 0.000000 -0.103763
#
#
# Mechanical properties :
#
#
# Convention : Reuss Voigt Hill
#
# Bulk Modulus (GPa) = 51.29136 53.12619 52.20878
# Shear Modulus (GPa) = 52.21470 21.05994 36.63732
#
# Velocity S-wave (km/s) = 5.37309 3.41237 4.50080
# Velocity P-wave (km/s) = 8.17636 6.70072 7.47505
#
# Compressibility (1/GPa) = 0.01949646
#
# Stress axis : x y z
#
# Youngs Moduli (GPa) = 120.49289 69.14831 44.77417
#
# Poissons Ratio (x) = -0.01242 0.18288
# Poissons Ratio (y) = -0.02164 0.39824
# Poissons Ratio (z) = 0.49217 0.61503
#
# Static dielectric constant tensor:
#      x y z
#    x 1.712560 0.000000 0.000000 
#    y 0.000000 1.586420 0.000000 
#    z 0.000000 0.000000 1.614090 
# 
# From -- ./inp_files/44427.got.cif
#   From: 2010.05.17/outbox.cif.g08.bks.cpg/sg74_23_cif.got.tgz:44427.got - 2010.06.03 17:57:02.
