data_PCOD9535960
_publ_section_title
;
Structure prediction by ZEFSAII (Michael W. Deem and Ramdas Pophale) SiO2 
 PCOD9535960
Probable space group: I M M A
;
_chemical_formula_sum "Si O2"
_cell_formula_units_Z 104
_cell_length_a 8.603692
_cell_length_b 20.765992
_cell_length_c 29.843455
_cell_angle_alpha 90.000000
_cell_angle_beta 90.000000
_cell_angle_gamma 90.000000
_cell_volume 5331.956990
_symmetry_space_group_name_H-M "I M M A"
_symmetry_group_IT_number 74
_symmetry_cell_setting 'orthorhombic'
loop_
_space_group_symop_operation_xyz
x,y,z
-x,1/2-y,z
x,-y,-z
-x,1/2+y,-z
-x,-y,-z
x,1/2+y,-z
-x,y,z
x,1/2-y,z
1/2+x,1/2+y,1/2+z
1/2-x,-y,1/2+z
1/2+x,1/2-y,1/2-z
1/2-x,y,1/2-z
1/2-x,1/2-y,1/2-z
1/2+x,y,1/2-z
1/2-x,1/2+y,1/2+z
1/2+x,-y,1/2+z
loop_
_atom_site_type_symbol
_atom_site_label
_atom_site_fract_x
_atom_site_fract_y
_atom_site_fract_z
Si Si1 0.312123 0.750000 0.801096
Si Si2 0.186013 0.126470 0.360972
Si Si3 0.686940 0.016145 0.298621
Si Si4 0.187371 0.678593 0.106642
Si Si5 0.685835 0.366307 0.702642
Si Si6 0.816035 0.425676 0.050135
Si Si7 0.317208 0.435522 0.951868
O O1 0.500000 0.750000 0.798285
O O2 0.250000 0.750000 0.750000
O O3 0.264853 0.812892 0.830087
O O4 0.239530 0.062269 0.335303
O O5 0.257807 0.121090 0.410552
O O6 0.000000 0.128258 0.364852
O O7 0.500000 0.020693 0.300063
O O8 0.750000 0.036651 0.250000
O O9 0.732445 0.941250 0.304276
O O10 0.223791 0.750000 0.089794
O O11 0.231739 0.672602 0.158805
O O12 0.271298 0.622913 0.079770
O O13 0.000000 0.669331 0.103674
O O14 0.500000 0.365205 0.705600
O O15 0.750000 0.343375 0.750000
O O16 0.774269 0.499831 0.062094
O O17 0.000000 0.419515 0.044337
O O18 0.732333 0.417025 0.002407
O O19 0.500000 0.449451 0.950360
#
# Coordination Sequence:
#
# PCOD9535960 Si02
#       7
#     8  16  16  16  16  16  16
#     4  10  24  42  60  82 118 162 204 250 299 358
#     4  11  22  38  58  85 116 152 196 246 299 354
#     4  10  19  32  52  80 112 148 191 242 296 348
#     4  10  21  38  58  82 116 158 199 237 283 342
#     4   9  19  34  53  79 112 148 189 237 285 333
#     4  11  22  39  64  91 118 150 189 239 297 357
#     4  11  22  39  63  91 120 152 191 241 296 352
#
# _framework density 19.505033000000001
#
# number of rings (size 3 to 8) (size 9 to 14) (size 15 to 20)
#    0.000    1.692    0.000    6.000    0.000    5.538 
#    1.385    0.000    0.000    0.000    0.000    0.000 
#    0.000    0.000    0.000    0.000    0.000    0.000 
#
# Total GULP energy -290573.525303 kJ/mol
# GULP energy per Si atom -5587.952410 kJ/mol
# Density = 1.946064 g / cm^3
# Si number density = 19.505033 Si / 1000 Ang^3
#
#
#
# Elastic Constant Matrix: (Units=GPa)
#
#
# Indices 1 2 3 4 5 6 
#
# 1 30.6927 7.2573 0.1548 0.0000 0.0000 0.0000
# 2 7.2573 48.4532 40.7229 0.0000 0.0000 0.0000
# 3 0.1548 40.7229 85.5561 0.0000 0.0000 0.0000
# 4 0.0000 0.0000 0.0000 15.4068 0.0000 0.0000
# 5 0.0000 0.0000 0.0000 0.0000 36.5407 0.0000
# 6 0.0000 0.0000 0.0000 0.0000 0.0000 17.7407
#
#
#
# Elastic Compliance Matrix: (Units=1/GPa)
#
#
# Indices 1 2 3 4 5 6 
#
# 1 0.034581 -0.008546 0.004005 0.000000 0.000000 0.000000
# 2 -0.008546 0.036512 -0.017363 0.000000 0.000000 0.000000
# 3 0.004005 -0.017363 0.019946 0.000000 0.000000 0.000000
# 4 0.000000 0.000000 0.000000 0.064906 0.000000 0.000000
# 5 0.000000 0.000000 0.000000 0.000000 0.027367 0.000000
# 6 0.000000 0.000000 0.000000 0.000000 0.000000 0.056368
#
#
# Mechanical properties :
#
#
# Convention : Reuss Voigt Hill
#
# Bulk Modulus (GPa) = 21.17265 28.99689 25.08477
# Shear Modulus (GPa) = 16.70951 21.70876 19.20913
#
# Velocity S-wave (km/s) = 2.93008 3.33976 3.14160
# Velocity P-wave (km/s) = 4.72501 5.45625 5.10374
#
# Compressibility (1/GPa) = 0.04723074
#
# Stress axis : x y z
#
# Youngs Moduli (GPa) = 28.91720 27.38862 50.13652
#
# Poissons Ratio (x) = 0.23405 -0.20080
# Poissons Ratio (y) = 0.24712 0.87053
# Poissons Ratio (z) = -0.11581 0.47556
#
# Static dielectric constant tensor:
#      x y z
#    x 1.660530 0.000000 0.000000 
#    y 0.000000 1.678750 0.000000 
#    z 0.000000 0.000000 1.709870 
# 
# From -- ./inp_files/64481.got.cif
#   From: 2010.05.17/outbox.cif.g08.bks.cpg/sg74_33_cif.got.tgz:64481.got - 2010.06.03 17:57:02.
