data_PCOD9535094
_publ_section_title
;
Structure prediction by ZEFSAII (Michael W. Deem and Ramdas Pophale) SiO2 
 PCOD9535094
Probable space group: I M M A
;
_chemical_formula_sum "Si O2"
_cell_formula_units_Z 96
_cell_length_a 14.580726
_cell_length_b 22.721191
_cell_length_c 15.592357
_cell_angle_alpha 90.000000
_cell_angle_beta 90.000000
_cell_angle_gamma 90.000000
_cell_volume 5165.614721
_symmetry_space_group_name_H-M "I M M A"
_symmetry_group_IT_number 74
_symmetry_cell_setting 'orthorhombic'
loop_
_space_group_symop_operation_xyz
x,y,z
-x,1/2-y,z
x,-y,-z
-x,1/2+y,-z
-x,-y,-z
x,1/2+y,-z
-x,y,z
x,1/2-y,z
1/2+x,1/2+y,1/2+z
1/2-x,-y,1/2+z
1/2+x,1/2-y,1/2-z
1/2-x,y,1/2-z
1/2-x,1/2-y,1/2-z
1/2+x,y,1/2-z
1/2-x,1/2+y,1/2+z
1/2+x,-y,1/2+z
loop_
_atom_site_type_symbol
_atom_site_label
_atom_site_fract_x
_atom_site_fract_y
_atom_site_fract_z
Si Si1 0.399959 0.006561 0.603573
Si Si2 0.890037 0.250000 0.573529
Si Si3 0.389558 0.250000 0.730687
Si Si4 0.276184 0.433813 0.159471
Si Si5 0.395829 0.031782 0.906436
Si Si6 0.710155 0.136179 0.988114
Si Si7 0.893628 0.855931 0.104653
O O1 0.500000 0.985110 0.632934
O O2 0.314687 0.969625 0.634155
O O3 0.398684 0.000000 0.500000
O O4 0.391624 0.075102 0.629309
O O5 0.854898 0.250000 0.672263
O O6 0.850887 0.192846 0.527515
O O7 0.000000 0.250000 0.573317
O O8 0.500000 0.250000 0.736750
O O9 0.366835 0.309252 0.678212
O O10 0.250000 0.406049 0.250000
O O11 0.355493 0.483832 0.159207
O O12 0.298859 0.389214 0.083427
O O13 0.500000 0.049857 0.885343
O O14 0.328108 0.086513 0.921948
O O15 0.397431 0.000000 0.000000
O O16 0.816341 0.149481 0.967948
O O17 0.000000 0.843549 0.079340
#
# Coordination Sequence:
#
# PCOD9535094 Si02
#       7
#    16   8   8  16  16  16  16
#     4  10  18  34  58  83 114 155 195 231 288 359
#     4  11  25  43  63  82 113 154 198 244 296 362
#     4   9  21  39  57  90 120 144 186 238 293 345
#     4  11  22  36  55  85 118 152 197 249 294 341
#     4   9  18  35  57  80 112 151 196 244 291 346
#     4  11  21  38  60  84 112 160 201 236 292 356
#     4  10  19  34  59  86 122 157 187 234 290 358
#
# _framework density 18.584429
#
# number of rings (size 3 to 8) (size 9 to 14) (size 15 to 20)
#    0.000    1.833    3.333    1.500    0.000    4.000 
#    0.000    2.083    0.000    0.000    0.000    1.167 
#    0.000    0.000    0.000    0.000    0.000    0.000 
#
# Total GULP energy -267810.795511 kJ/mol
# GULP energy per Si atom -5579.391573 kJ/mol
# Density = 1.854213 g / cm^3
# Si number density = 18.584429 Si / 1000 Ang^3
#
#
#
# Elastic Constant Matrix: (Units=GPa)
#
#
# Indices 1 2 3 4 5 6 
#
# 1 103.0336 25.8279 19.2359 0.0001 0.0000 0.0001
# 2 25.8279 110.1007 48.1248 0.0002 0.0001 0.0002
# 3 19.2359 48.1248 78.6977 0.0002 0.0002 0.0002
# 4 0.0001 0.0002 0.0002 14.8565 0.0001 0.0002
# 5 0.0000 0.0001 0.0002 0.0001 -7.8431 -0.0002
# 6 0.0001 0.0002 0.0002 0.0002 -0.0002 -19.3750
#
#
#
# Elastic Compliance Matrix: (Units=1/GPa)
#
#
# Indices 1 2 3 4 5 6 
#
# 1 0.010430 -0.001818 -0.001437 0.000000 0.000000 0.000000
# 2 -0.001818 0.012713 -0.007330 0.000000 0.000000 0.000000
# 3 -0.001437 -0.007330 0.017540 0.000000 0.000000 0.000000
# 4 0.000000 0.000000 0.000000 0.067310 0.000001 0.000001
# 5 0.000000 0.000000 0.000000 0.000001 -0.127501 0.000001
# 6 0.000000 0.000000 0.000000 0.000001 0.000001 -0.051613
#
#
# Mechanical properties :
#
#
# Convention : Reuss Voigt Hill
#
# Bulk Modulus (GPa) = 51.24989 53.13434 52.19211
# Shear Modulus (GPa) = -115.08684 10.77060 -52.15812
#
# Velocity S-wave (km/s) = -7.87788 2.41000 -5.30344
# Velocity P-wave (km/s) = 7.42369 6.03299 3.05895
#
# Compressibility (1/GPa) = 0.01951224
#
# Stress axis : x y z
#
# Youngs Moduli (GPa) = 95.87968 78.65998 57.01127
#
# Poissons Ratio (x) = 0.14303 0.08194
# Poissons Ratio (y) = 0.17435 0.41787
# Poissons Ratio (z) = 0.13781 0.57655
#
# Static dielectric constant tensor:
#      x y z
#    x 1.670760 0.000000 0.000000 
#    y 0.000000 1.635790 0.000000 
#    z 0.000000 0.000000 1.667170 
# 
# From -- ./inp_files/32469.got.cif
#   From: 2010.05.17/outbox.cif.g08.bks.cpg/sg74_17_cif.got.tgz:32469.got - 2010.06.03 17:57:02.
