data_PCOD9535835
_publ_section_title
;
Structure prediction by ZEFSAII (Michael W. Deem and Ramdas Pophale) SiO2 
 PCOD9535835
Probable space group: I M M A
;
_chemical_formula_sum "Si O2"
_cell_formula_units_Z 72
_cell_length_a 8.907822
_cell_length_b 34.485068
_cell_length_c 14.522596
_cell_angle_alpha 90.000000
_cell_angle_beta 90.000000
_cell_angle_gamma 90.000000
_cell_volume 4461.150481
_symmetry_space_group_name_H-M "I M M A"
_symmetry_group_IT_number 74
_symmetry_cell_setting 'orthorhombic'
loop_
_space_group_symop_operation_xyz
x,y,z
-x,1/2-y,z
x,-y,-z
-x,1/2+y,-z
-x,-y,-z
x,1/2+y,-z
-x,y,z
x,1/2-y,z
1/2+x,1/2+y,1/2+z
1/2-x,-y,1/2+z
1/2+x,1/2-y,1/2-z
1/2-x,y,1/2-z
1/2-x,1/2-y,1/2-z
1/2+x,y,1/2-z
1/2-x,1/2+y,1/2+z
1/2+x,-y,1/2+z
loop_
_atom_site_type_symbol
_atom_site_label
_atom_site_fract_x
_atom_site_fract_y
_atom_site_fract_z
Si Si1 0.319005 0.664763 0.852893
Si Si2 0.680184 0.591524 0.547301
Si Si3 0.330118 0.513832 0.893845
Si Si4 0.820335 0.250000 0.351354
Si Si5 0.321612 0.564828 0.341794
O O1 0.500000 0.661146 0.847828
O O2 0.250000 0.661985 0.750000
O O3 0.250182 0.630770 0.913936
O O4 0.280105 0.707891 0.891699
O O5 0.500000 0.591484 0.555801
O O6 0.748006 0.555079 0.603544
O O7 0.718425 0.584814 0.439227
O O8 0.500000 0.516763 0.857108
O O9 0.237426 0.479298 0.848374
O O10 0.340060 0.500000 0.000000
O O11 0.750000 0.250000 0.250000
O O12 0.000000 0.250000 0.342560
O O13 0.500000 0.564877 0.333716
O O14 0.250000 0.582704 0.250000
#
# Coordination Sequence:
#
# PCOD9535835 Si02
#       5
#    16  16  16   8  16
#     4  10  19  32  50  72  98 126 155 188 229 278
#     4  10  20  33  48  70  98 125 157 197 237 277
#     4   9  17  30  47  65  87 117 153 192 233 274
#     4   8  16  30  48  70  95 122 151 184 225 276
#     4  10  20  33  49  68  93 125 161 200 239 279
#
# _framework density 16.139334999999999
#
# number of rings (size 3 to 8) (size 9 to 14) (size 15 to 20)
#    0.000    2.444    0.000    2.667    0.000    7.111 
#    0.000    4.444    0.000    0.000    0.000    0.778 
#    0.000    0.000    0.000    0.000    0.000    0.000 
#
# Total GULP energy -200621.868483 kJ/mol
# GULP energy per Si atom -5572.829680 kJ/mol
# Density = 1.610260 g / cm^3
# Si number density = 16.139335 Si / 1000 Ang^3
#
#
#
# Elastic Constant Matrix: (Units=GPa)
#
#
# Indices 1 2 3 4 5 6 
#
# 1 64.0017 51.3472 34.5884 0.0001 0.0000 0.0000
# 2 51.3472 153.4351 48.7040 0.0002 0.0000 0.0000
# 3 34.5884 48.7040 71.1902 0.0003 0.0000 0.0000
# 4 0.0001 0.0002 0.0003 20.1759 0.0000 0.0000
# 5 0.0000 0.0000 0.0000 0.0000 22.7990 0.0000
# 6 0.0000 0.0000 0.0000 0.0000 0.0000 18.8314
#
#
#
# Elastic Compliance Matrix: (Units=1/GPa)
#
#
# Indices 1 2 3 4 5 6 
#
# 1 0.024500 -0.005647 -0.008040 0.000000 0.000000 0.000000
# 2 -0.005647 0.009627 -0.003843 0.000000 0.000000 0.000000
# 3 -0.008040 -0.003843 0.020582 0.000000 0.000000 0.000000
# 4 0.000000 0.000000 0.000000 0.049564 0.000000 0.000000
# 5 0.000000 0.000000 0.000000 0.000000 0.043862 0.000000
# 6 0.000000 0.000000 0.000000 0.000000 0.000000 0.053103
#
#
# Mechanical properties :
#
#
# Convention : Reuss Voigt Hill
#
# Bulk Modulus (GPa) = 50.89139 61.98958 56.44048
# Shear Modulus (GPa) = 20.58908 22.62709 21.60809
#
# Velocity S-wave (km/s) = 3.57558 3.74837 3.66299
# Velocity P-wave (km/s) = 6.97476 7.56479 7.27576
#
# Compressibility (1/GPa) = 0.01964969
#
# Stress axis : x y z
#
# Youngs Moduli (GPa) = 40.81607 103.87631 48.58555
#
# Poissons Ratio (x) = 0.58657 0.39065
# Poissons Ratio (y) = 0.23048 0.18669
# Poissons Ratio (z) = 0.32818 0.39915
#
# Static dielectric constant tensor:
#      x y z
#    x 1.546320 0.000000 0.000000 
#    y 0.000000 1.543230 0.000000 
#    z 0.000000 0.000000 1.559530 
# 
# From -- ./inp_files/29396.got.cif
#   From: 2010.05.17/outbox.cif.g08.bks.cpg/sg74_15_cif.got.tgz:29396.got - 2010.06.03 17:57:02.
