data_PCOD9535594
_publ_section_title
;
Structure prediction by ZEFSAII (Michael W. Deem and Ramdas Pophale) SiO2 
 PCOD9535594
Probable space group: I M M A
;
_chemical_formula_sum "Si O2"
_cell_formula_units_Z 128
_cell_length_a 20.174111
_cell_length_b 17.552254
_cell_length_c 21.631726
_cell_angle_alpha 90.000000
_cell_angle_beta 90.000000
_cell_angle_gamma 90.000000
_cell_volume 7659.818415
_symmetry_space_group_name_H-M "I M M A"
_symmetry_group_IT_number 74
_symmetry_cell_setting 'orthorhombic'
loop_
_space_group_symop_operation_xyz
x,y,z
-x,1/2-y,z
x,-y,-z
-x,1/2+y,-z
-x,-y,-z
x,1/2+y,-z
-x,y,z
x,1/2-y,z
1/2+x,1/2+y,1/2+z
1/2-x,-y,1/2+z
1/2+x,1/2-y,1/2-z
1/2-x,y,1/2-z
1/2-x,1/2-y,1/2-z
1/2+x,y,1/2-z
1/2-x,1/2+y,1/2+z
1/2+x,-y,1/2+z
loop_
_atom_site_type_symbol
_atom_site_label
_atom_site_fract_x
_atom_site_fract_y
_atom_site_fract_z
Si Si1 0.572814 0.002825 0.637365
Si Si2 0.576105 0.475137 0.781851
Si Si3 0.820956 0.891027 0.722029
Si Si4 0.378946 0.833134 0.651822
Si Si5 0.792694 0.028056 0.929529
Si Si6 0.260927 0.130598 0.100052
Si Si7 0.077143 0.338669 0.624386
Si Si8 0.199762 0.337532 0.538823
O O1 0.500000 0.022192 0.612770
O O2 0.580539 0.910387 0.639137
O O3 0.578052 0.033159 0.707583
O O4 0.635154 0.033606 0.599960
O O5 0.500000 0.498699 0.796865
O O6 0.629551 0.540591 0.794726
O O7 0.590017 0.398634 0.820518
O O8 0.750000 0.918301 0.750000
O O9 0.853585 0.843246 0.777536
O O10 0.803426 0.846695 0.659528
O O11 0.410632 0.750000 0.644190
O O12 0.313145 0.836765 0.608811
O O13 0.751734 0.105323 0.930213
O O14 0.751406 0.960642 0.896740
O O15 0.799980 0.000000 0.000000
O O16 0.293841 0.150225 0.034933
O O17 0.086039 0.250000 0.643643
O O18 0.127675 0.353296 0.568111
O O19 0.000000 0.347497 0.606043
O O20 0.216005 0.250000 0.551958
#
# Coordination Sequence:
#
# PCOD9535594 Si02
#       8
#    16  16  16  16  16  16  16  16
#     4   9  18  32  50  70  91 122 158 189 229 277
#     4   9  17  31  49  67  91 120 152 192 234 278
#     4   9  17  28  46  69  93 124 156 189 226 269
#     4   9  17  28  44  70  99 122 150 190 231 270
#     4   9  18  32  49  69  94 123 154 190 230 274
#     4   9  17  29  46  67  93 124 157 190 226 273
#     4   9  18  32  49  69  92 120 155 194 237 282
#     4  10  19  31  49  69  92 123 156 193 235 276
#
# _framework density 16.710578999999999
#
# number of rings (size 3 to 8) (size 9 to 14) (size 15 to 20)
#    0.000    2.875    0.000    1.875    0.000    3.250 
#    0.000    1.250    0.000    7.875    0.000    1.750 
#    0.000    0.000    0.000    0.000    0.000    0.000 
#
# Total GULP energy -356354.702236 kJ/mol
# GULP energy per Si atom -5568.042222 kJ/mol
# Density = 1.667254 g / cm^3
# Si number density = 16.710579 Si / 1000 Ang^3
#
#
#
# Elastic Constant Matrix: (Units=GPa)
#
#
# Indices 1 2 3 4 5 6 
#
# 1 88.8245 50.8249 34.8710 0.0000 0.0000 0.0000
# 2 50.8249 86.4993 34.1694 0.0000 0.0000 0.0000
# 3 34.8710 34.1694 54.5019 0.0000 0.0000 0.0000
# 4 0.0000 0.0000 0.0000 11.7765 0.0000 0.0000
# 5 0.0000 0.0000 0.0000 0.0000 24.0622 0.0000
# 6 0.0000 0.0000 0.0000 0.0000 0.0000 8.9579
#
#
#
# Elastic Compliance Matrix: (Units=1/GPa)
#
#
# Indices 1 2 3 4 5 6 
#
# 1 0.018649 -0.008300 -0.006728 0.000000 0.000000 0.000000
# 2 -0.008300 0.019060 -0.006639 0.000000 0.000000 0.000000
# 3 -0.006728 -0.006639 0.026815 0.000000 0.000000 0.000000
# 4 0.000000 0.000000 0.000000 0.084915 0.000000 0.000000
# 5 0.000000 0.000000 0.000000 0.000000 0.041559 0.000000
# 6 0.000000 0.000000 0.000000 0.000000 0.000000 0.111633
#
#
# Mechanical properties :
#
#
# Convention : Reuss Voigt Hill
#
# Bulk Modulus (GPa) = 47.19302 52.17291 49.68296
# Shear Modulus (GPa) = 14.16315 16.29001 15.22658
#
# Velocity S-wave (km/s) = 2.91444 3.12562 3.02187
# Velocity P-wave (km/s) = 6.29508 6.65697 6.47855
#
# Compressibility (1/GPa) = 0.02118958
#
# Stress axis : x y z
#
# Youngs Moduli (GPa) = 53.62354 52.46552 37.29221
#
# Poissons Ratio (x) = 0.43544 0.25091
# Poissons Ratio (y) = 0.44505 0.24760
# Poissons Ratio (z) = 0.36079 0.34834
#
# Static dielectric constant tensor:
#      x y z
#    x 1.559020 0.000000 0.000000 
#    y 0.000000 1.578320 0.000000 
#    z 0.000000 0.000000 1.572670 
# 
# From -- ./inp_files/61110.got.cif
#   From: 2010.05.17/outbox.cif.g08.bks.cpg/sg74_31_cif.got.tgz:61110.got - 2010.06.03 17:57:02.
