data_PCOD9535205
_publ_section_title
;
Structure prediction by ZEFSAII (Michael W. Deem and Ramdas Pophale) SiO2 
 PCOD9535205
Probable space group: I M M A
;
_chemical_formula_sum "Si O2"
_cell_formula_units_Z 96
_cell_length_a 29.759652
_cell_length_b 8.727457
_cell_length_c 27.186415
_cell_angle_alpha 90.000000
_cell_angle_beta 90.000000
_cell_angle_gamma 90.000000
_cell_volume 7061.021083
_symmetry_space_group_name_H-M "I M M A"
_symmetry_group_IT_number 74
_symmetry_cell_setting 'orthorhombic'
loop_
_space_group_symop_operation_xyz
x,y,z
-x,1/2-y,z
x,-y,-z
-x,1/2+y,-z
-x,-y,-z
x,1/2+y,-z
-x,y,z
x,1/2-y,z
1/2+x,1/2+y,1/2+z
1/2-x,-y,1/2+z
1/2+x,1/2-y,1/2-z
1/2-x,y,1/2-z
1/2-x,1/2-y,1/2-z
1/2+x,y,1/2-z
1/2-x,1/2+y,1/2+z
1/2+x,-y,1/2+z
loop_
_atom_site_type_symbol
_atom_site_label
_atom_site_fract_x
_atom_site_fract_y
_atom_site_fract_z
Si Si1 0.861379 0.435075 0.244097
Si Si2 0.221816 0.430594 0.300994
Si Si3 0.806458 0.064487 0.144232
Si Si4 0.948934 0.567922 0.206433
Si Si5 0.948804 0.433173 0.096947
Si Si6 0.640167 0.432109 0.552552
O O1 0.864244 0.250000 0.246903
O O2 0.827320 0.491640 0.286748
O O3 0.837649 0.471279 0.191627
O O4 0.910446 0.507006 0.242281
O O5 0.215974 0.250000 0.311553
O O6 0.250000 0.439122 0.250000
O O7 0.256009 0.491179 0.342154
O O8 0.805903 0.250000 0.140015
O O9 0.827975 0.993445 0.095985
O O10 0.944038 0.750000 0.199198
O O11 0.943348 0.486238 0.153530
O O12 0.000000 0.537123 0.223182
O O13 0.943448 0.250000 0.094481
O O14 0.910242 0.511884 0.065363
O O15 0.000000 0.472527 0.082088
O O16 0.653464 0.500000 0.500000
O O17 0.641206 0.250000 0.551244
#
# Coordination Sequence:
#
# PCOD9535205 Si02
#       6
#    16  16  16  16  16  16
#     4   9  15  25  44  64  82 105 133 162 195 238
#     4   7  12  23  41  64  83 102 126 155 195 239
#     4   9  16  29  46  62  82 103 128 163 201 242
#     4  10  19  28  39  58  84 111 136 165 203 241
#     4  10  20  34  49  61  74  97 131 170 212 253
#     4  12  24  35  47  61  79 102 132 167 209 251
#
# _framework density 13.595765999999999
#
# number of rings (size 3 to 8) (size 9 to 14) (size 15 to 20)
#    0.000    2.500    1.667    4.500    0.000    2.333 
#    0.000    0.833    0.000    3.000    0.000    0.000 
#    0.000    0.000    0.000    0.000    0.000    0.833 
#
# Total GULP energy -267398.281165 kJ/mol
# GULP energy per Si atom -5570.797524 kJ/mol
# Density = 1.356482 g / cm^3
# Si number density = 13.595766 Si / 1000 Ang^3
#
#
#
# Elastic Constant Matrix: (Units=GPa)
#
#
# Indices 1 2 3 4 5 6 
#
# 1 88.6394 35.5342 51.2648 0.0000 0.0000 0.0000
# 2 35.5342 36.2520 26.7080 0.0000 0.0000 0.0000
# 3 51.2648 26.7080 55.1165 0.0000 0.0000 0.0000
# 4 0.0000 0.0000 0.0000 13.7720 0.0000 0.0000
# 5 0.0000 0.0000 0.0000 0.0000 16.7168 0.0000
# 6 0.0000 0.0000 0.0000 0.0000 0.0000 14.4075
#
#
#
# Elastic Compliance Matrix: (Units=1/GPa)
#
#
# Indices 1 2 3 4 5 6 
#
# 1 0.027738 -0.012724 -0.019634 0.000000 0.000000 0.000000
# 2 -0.012724 0.048736 -0.011782 0.000000 0.000000 0.000000
# 3 -0.019634 -0.011782 0.042114 0.000000 0.000000 0.000000
# 4 0.000000 0.000000 0.000000 0.072611 0.000000 0.000000
# 5 0.000000 0.000000 0.000000 0.000000 0.059820 0.000000
# 6 0.000000 0.000000 0.000000 0.000000 0.000000 0.069408
#
#
# Mechanical properties :
#
#
# Convention : Reuss Voigt Hill
#
# Bulk Modulus (GPa) = 32.99260 45.22465 39.10863
# Shear Modulus (GPa) = 11.93861 13.41265 12.67563
#
# Velocity S-wave (km/s) = 2.96651 3.14432 3.05671
# Velocity P-wave (km/s) = 6.00442 6.82043 6.42539
#
# Compressibility (1/GPa) = 0.03030982
#
# Stress axis : x y z
#
# Youngs Moduli (GPa) = 36.05222 20.51851 23.74504
#
# Poissons Ratio (x) = 0.26107 0.46620
# Poissons Ratio (y) = 0.45872 0.27976
# Poissons Ratio (z) = 0.70783 0.24175
#
# Static dielectric constant tensor:
#      x y z
#    x 1.481320 0.000000 0.000000 
#    y 0.000000 1.455750 0.000000 
#    z 0.000000 0.000000 1.421770 
# 
# From -- ./inp_files/64904.got.cif
#   From: 2010.05.17/outbox.cif.g08.bks.cpg/sg74_33_cif.got.tgz:64904.got - 2010.06.03 17:57:02.
