data_PCOD9535018
_publ_section_title
;
Structure prediction by ZEFSAII (Michael W. Deem and Ramdas Pophale) SiO2 
 PCOD9535018
Probable space group: I M M A
;
_chemical_formula_sum "Si O2"
_cell_formula_units_Z 88
_cell_length_a 19.218827
_cell_length_b 7.498286
_cell_length_c 29.007533
_cell_angle_alpha 90.000000
_cell_angle_beta 90.000000
_cell_angle_gamma 90.000000
_cell_volume 4180.225149
_symmetry_space_group_name_H-M "I M M A"
_symmetry_group_IT_number 74
_symmetry_cell_setting 'orthorhombic'
loop_
_space_group_symop_operation_xyz
x,y,z
-x,1/2-y,z
x,-y,-z
-x,1/2+y,-z
-x,-y,-z
x,1/2+y,-z
-x,y,z
x,1/2-y,z
1/2+x,1/2+y,1/2+z
1/2-x,-y,1/2+z
1/2+x,1/2-y,1/2-z
1/2-x,y,1/2-z
1/2-x,1/2-y,1/2-z
1/2+x,y,1/2-z
1/2-x,1/2+y,1/2+z
1/2+x,-y,1/2+z
loop_
_atom_site_type_symbol
_atom_site_label
_atom_site_fract_x
_atom_site_fract_y
_atom_site_fract_z
Si Si1 0.312552 0.467062 0.283336
Si Si2 0.362780 0.539374 0.887343
Si Si3 0.709245 0.468390 0.388721
Si Si4 0.423258 0.463687 0.445752
Si Si5 0.500000 0.458948 0.945728
Si Si6 0.920595 0.531691 0.710001
O O1 0.311543 0.250000 0.284514
O O2 0.250000 0.522849 0.250000
O O3 0.302470 0.523667 0.335701
O O4 0.381946 0.522576 0.256597
O O5 0.353165 0.750000 0.881005
O O6 0.287058 0.472503 0.903445
O O7 0.429080 0.520968 0.920770
O O8 0.382227 0.469217 0.836494
O O9 0.707761 0.250000 0.390540
O O10 0.644341 0.532120 0.419021
O O11 0.416315 0.500000 0.500000
O O12 0.500000 0.531089 0.431008
O O13 0.424571 0.250000 0.439397
O O14 0.500000 0.250000 0.940036
O O15 0.500000 0.500000 0.000000
O O16 0.919801 0.750000 0.709036
O O17 0.000000 0.474392 0.708294
#
# Coordination Sequence:
#
# PCOD9535018 Si02
#       6
#    16  16  16  16   8  16
#     4   9  14  22  38  68 107 138 163 199 250 299
#     4  10  18  33  55  77 105 139 176 217 264 314
#     4   9  17  28  48  77 109 141 173 216 263 309
#     4   9  18  33  51  72 101 135 170 212 262 311
#     4  12  26  42  58  78 104 136 176 224 275 324
#     4   9  15  23  41  70 103 139 175 207 248 304
#
# _framework density 21.051497999999999
#
# number of rings (size 3 to 8) (size 9 to 14) (size 15 to 20)
#    0.000    2.545    2.727    0.818    0.000    1.455 
#    0.000    6.364    0.000    0.000    0.000    3.818 
#    0.000    0.000    0.000    0.000    0.000    0.000 
#
# Total GULP energy -245483.206211 kJ/mol
# GULP energy per Si atom -5579.163778 kJ/mol
# Density = 2.100358 g / cm^3
# Si number density = 21.051498 Si / 1000 Ang^3
#
#
#
# Elastic Constant Matrix: (Units=GPa)
#
#
# Indices 1 2 3 4 5 6 
#
# 1 237.7887 6.5829 97.1543 0.0000 0.0000 0.0000
# 2 6.5829 52.8356 -8.6257 0.0000 0.0000 0.0000
# 3 97.1543 -8.6257 103.0614 0.0000 0.0000 0.0000
# 4 0.0000 0.0000 0.0000 -1.9451 0.0000 0.0000
# 5 0.0000 0.0000 0.0000 0.0000 -915.2112 0.0000
# 6 0.0000 0.0000 0.0000 0.0000 0.0000 -12.7449
#
#
#
# Elastic Compliance Matrix: (Units=1/GPa)
#
#
# Indices 1 2 3 4 5 6 
#
# 1 0.007040 -0.001988 -0.006803 0.000000 0.000000 0.000000
# 2 -0.001988 0.019750 0.003527 0.000000 0.000000 0.000000
# 3 -0.006803 0.003527 0.016411 0.000000 0.000000 0.000000
# 4 0.000000 0.000000 0.000000 -0.514119 0.000000 0.000000
# 5 0.000000 0.000000 0.000000 0.000000 -0.001093 0.000000
# 6 0.000000 0.000000 0.000000 0.000000 0.000000 -0.078463
#
#
# Mechanical properties :
#
#
# Convention : Reuss Voigt Hill
#
# Bulk Modulus (GPa) = 30.60586 64.87874 47.74230
# Shear Modulus (GPa) = -9.45080 -166.07528 -87.76304
#
# Velocity S-wave (km/s) = -2.12111 -8.89164 -6.46376
# Velocity P-wave (km/s) = 2.92768 8.63302 5.74272
#
# Compressibility (1/GPa) = 0.03267348
#
# Stress axis : x y z
#
# Youngs Moduli (GPa) = 142.04832 50.63282 60.93496
#
# Poissons Ratio (x) = 0.10064 0.41452
# Poissons Ratio (y) = 0.28235 -0.21490
# Poissons Ratio (z) = 0.96631 -0.17857
#
# Static dielectric constant tensor:
#      x y z
#    x 1.553150 0.000000 0.000000 
#    y 0.000000 1.823300 0.000000 
#    z 0.000000 0.000000 1.691990 
# 
# From -- ./inp_files/72979.got.cif
#   From: 2010.05.17/outbox.cif.g08.bks.cpg/sg74_37_cif.got.tgz:72979.got - 2010.06.03 17:57:02.
