data_PCOD9535852
_publ_section_title
;
Structure prediction by ZEFSAII (Michael W. Deem and Ramdas Pophale) SiO2 
 PCOD9535852
Probable space group: I M M A
;
_chemical_formula_sum "Si O2"
_cell_formula_units_Z 112
_cell_length_a 15.683563
_cell_length_b 27.366570
_cell_length_c 15.037474
_cell_angle_alpha 90.000000
_cell_angle_beta 90.000000
_cell_angle_gamma 90.000000
_cell_volume 6454.163911
_symmetry_space_group_name_H-M "I M M A"
_symmetry_group_IT_number 74
_symmetry_cell_setting 'orthorhombic'
loop_
_space_group_symop_operation_xyz
x,y,z
-x,1/2-y,z
x,-y,-z
-x,1/2+y,-z
-x,-y,-z
x,1/2+y,-z
-x,y,z
x,1/2-y,z
1/2+x,1/2+y,1/2+z
1/2-x,-y,1/2+z
1/2+x,1/2-y,1/2-z
1/2-x,y,1/2-z
1/2-x,1/2-y,1/2-z
1/2+x,y,1/2-z
1/2-x,1/2+y,1/2+z
1/2+x,-y,1/2+z
loop_
_atom_site_type_symbol
_atom_site_label
_atom_site_fract_x
_atom_site_fract_y
_atom_site_fract_z
Si Si1 0.175790 0.471666 0.920763
Si Si2 0.902621 0.375839 0.616733
Si Si3 0.349930 0.692403 0.268894
Si Si4 0.400771 0.691479 0.473699
Si Si5 0.748948 0.375369 0.011102
Si Si6 0.098471 0.530108 0.275456
Si Si7 0.201421 0.447696 0.342601
O O1 0.205733 0.419867 0.957939
O O2 0.136460 0.464893 0.823046
O O3 0.250216 0.510699 0.899844
O O4 0.124613 0.500000 0.000000
O O5 0.901996 0.339509 0.699866
O O6 0.831128 0.357722 0.547754
O O7 0.871294 0.427949 0.656533
O O8 0.000000 0.380508 0.581959
O O9 0.362903 0.750000 0.253541
O O10 0.250000 0.681659 0.250000
O O11 0.377755 0.682105 0.369838
O O12 0.500000 0.676746 0.490652
O O13 0.395455 0.750000 0.487684
O O14 0.325151 0.663373 0.525524
O O15 0.707290 0.399415 0.098853
O O16 0.116291 0.476212 0.314365
O O17 0.000000 0.539210 0.266724
O O18 0.250000 0.439763 0.250000
#
# Coordination Sequence:
#
# PCOD9535852 Si02
#       7
#    16  16  16  16  16  16  16
#     4   9  18  31  49  72  99 137 177 214 262 311
#     4  11  22  31  47  77 106 142 186 218 255 305
#     4  10  19  32  50  74 109 148 179 211 256 312
#     4  10  21  36  55  80 109 140 174 216 269 325
#     4  11  20  34  56  76 104 141 179 225 265 314
#     4  10  20  32  48  72 105 140 178 222 262 315
#     4   9  19  36  53  72  99 138 177 214 272 321
#
# _framework density 17.353138000000001
#
# number of rings (size 3 to 8) (size 9 to 14) (size 15 to 20)
#    0.000    2.000    2.857    1.286    0.000    3.429 
#    0.000    7.143    0.000    0.429    0.000    0.000 
#    0.000    0.000    0.000    0.000    0.000    0.000 
#
# Total GULP energy -311807.234149 kJ/mol
# GULP energy per Si atom -5567.986324 kJ/mol
# Density = 1.731364 g / cm^3
# Si number density = 17.353138 Si / 1000 Ang^3
#
#
#
# Elastic Constant Matrix: (Units=GPa)
#
#
# Indices 1 2 3 4 5 6 
#
# 1 57.3926 20.9162 8.7992 0.0000 0.0000 0.0000
# 2 20.9162 33.5795 9.0194 -0.0001 0.0000 0.0001
# 3 8.7992 9.0194 36.8104 -0.0001 0.0000 0.0001
# 4 0.0000 -0.0001 -0.0001 24.9624 0.0000 0.0001
# 5 0.0000 0.0000 0.0000 0.0000 0.2492 0.0000
# 6 0.0000 0.0001 0.0001 0.0001 0.0000 3.5081
#
#
#
# Elastic Compliance Matrix: (Units=1/GPa)
#
#
# Indices 1 2 3 4 5 6 
#
# 1 0.022691 -0.013570 -0.002099 0.000000 0.000000 0.000000
# 2 -0.013570 0.039993 -0.006555 0.000000 0.000000 -0.000001
# 3 -0.002099 -0.006555 0.029274 0.000000 0.000000 -0.000001
# 4 0.000000 0.000000 0.000000 0.040060 0.000001 -0.000001
# 5 0.000000 0.000000 0.000000 0.000001 4.012894 -0.000006
# 6 0.000000 -0.000001 -0.000001 -0.000001 -0.000006 0.285051
#
#
# Mechanical properties :
#
#
# Convention : Reuss Voigt Hill
#
# Bulk Modulus (GPa) = 21.04847 22.80577 21.92712
# Shear Modulus (GPa) = 1.11352 11.68047 6.39700
#
# Velocity S-wave (km/s) = 0.80192 2.59724 1.92207
# Velocity P-wave (km/s) = 3.60739 4.70796 4.19393
#
# Compressibility (1/GPa) = 0.04750940
#
# Stress axis : x y z
#
# Youngs Moduli (GPa) = 44.06999 25.00408 34.15970
#
# Poissons Ratio (x) = 0.33931 0.07171
# Poissons Ratio (y) = 0.59804 0.22393
# Poissons Ratio (z) = 0.09251 0.16391
#
# Static dielectric constant tensor:
#      x y z
#    x 1.627780 0.000000 0.000000 
#    y 0.000000 1.615350 0.000000 
#    z 0.000000 0.000000 1.650900 
# 
# From -- ./inp_files/32918.got.cif
#   From: 2010.05.17/outbox.cif.g08.bks.cpg/sg74_17_cif.got.tgz:32918.got - 2010.06.03 17:57:02.
