data_PCOD9535759
_publ_section_title
;
Structure prediction by ZEFSAII (Michael W. Deem and Ramdas Pophale) SiO2 
 PCOD9535759
Probable space group: I M M A
;
_chemical_formula_sum "Si O2"
_cell_formula_units_Z 116
_cell_length_a 24.935598
_cell_length_b 7.641021
_cell_length_c 30.172043
_cell_angle_alpha 90.000000
_cell_angle_beta 90.000000
_cell_angle_gamma 90.000000
_cell_volume 5748.782782
_symmetry_space_group_name_H-M "I M M A"
_symmetry_group_IT_number 74
_symmetry_cell_setting 'orthorhombic'
loop_
_space_group_symop_operation_xyz
x,y,z
-x,1/2-y,z
x,-y,-z
-x,1/2+y,-z
-x,-y,-z
x,1/2+y,-z
-x,y,z
x,1/2-y,z
1/2+x,1/2+y,1/2+z
1/2-x,-y,1/2+z
1/2+x,1/2-y,1/2-z
1/2-x,y,1/2-z
1/2-x,1/2-y,1/2-z
1/2+x,y,1/2-z
1/2-x,1/2+y,1/2+z
1/2+x,-y,1/2+z
loop_
_atom_site_type_symbol
_atom_site_label
_atom_site_fract_x
_atom_site_fract_y
_atom_site_fract_z
Si Si1 0.558313 0.959915 0.379690
Si Si2 0.229746 0.539914 0.549502
Si Si3 0.407749 0.452332 0.714785
Si Si4 0.851322 0.956458 0.950598
Si Si5 0.580610 0.044439 0.814700
Si Si6 0.307911 0.462166 0.142090
Si Si7 0.000000 0.250000 0.344910
Si Si8 0.784652 0.460956 0.206964
O O1 0.500000 0.020857 0.396178
O O2 0.556486 0.750000 0.376011
O O3 0.568236 0.031524 0.330083
O O4 0.607006 0.995350 0.412678
O O5 0.210341 0.500000 0.500000
O O6 0.188380 0.750000 0.644549
O O7 0.290893 0.469128 0.553708
O O8 0.194543 0.479727 0.591019
O O9 0.424492 0.250000 0.716137
O O10 0.423003 0.520228 0.763350
O O11 0.343625 0.461691 0.709237
O O12 0.845322 0.750000 0.948094
O O13 0.871322 0.000000 0.000000
O O14 0.564394 0.250000 0.817340
O O15 0.642218 0.034776 0.830591
O O16 0.546293 0.906314 0.842366
O O17 0.268010 0.750000 0.946695
O O18 0.251376 0.510217 0.164900
O O19 0.791038 0.250000 0.207028
O O20 0.750000 0.509137 0.250000
#
# Coordination Sequence:
#
# PCOD9535759 Si02
#       8
#    16  16  16  16  16  16   4  16
#     4  10  22  39  55  74 105 149 196 255 308 341
#     4   9  19  34  57  86 123 155 187 233 293 357
#     4  10  22  37  54  80 116 152 200 250 301 353
#     4  10  20  37  58  83 110 147 192 241 298 362
#     4  11  24  41  63  90 118 160 207 250 297 361
#     4  10  19  36  57  87 125 159 195 244 298 355
#     4  12  26  44  64  84 122 160 206 252 310 338
#     4  10  19  31  54  80 115 158 194 236 294 359
#
# _framework density 20.178184999999999
#
# number of rings (size 3 to 8) (size 9 to 14) (size 15 to 20)
#    0.000    1.931    2.069    1.448    1.931    4.138 
#    0.000    0.000    0.000    0.000    0.000    0.483 
#    0.000    0.000    0.000    0.000    0.000    0.000 
#
# Total GULP energy -323255.837094 kJ/mol
# GULP energy per Si atom -5573.376502 kJ/mol
# Density = 2.013226 g / cm^3
# Si number density = 20.178185 Si / 1000 Ang^3
#
#
#
# Elastic Constant Matrix: (Units=GPa)
#
#
# Indices 1 2 3 4 5 6 
#
# 1 30.7473 4.3043 -2.2040 0.0000 0.0000 0.0000
# 2 4.3043 68.3033 3.6146 0.0000 0.0000 0.0000
# 3 -2.2040 3.6146 96.5702 0.0000 0.0000 0.0000
# 4 0.0000 0.0000 0.0000 16.0104 0.0000 0.0000
# 5 0.0000 0.0000 0.0000 0.0000 232.0502 0.0000
# 6 0.0000 0.0000 0.0000 0.0000 0.0000 7.5822
#
#
#
# Elastic Compliance Matrix: (Units=1/GPa)
#
#
# Indices 1 2 3 4 5 6 
#
# 1 0.032879 -0.002116 0.000830 0.000000 0.000000 0.000000
# 2 -0.002116 0.014806 -0.000602 0.000000 0.000000 0.000000
# 3 0.000830 -0.000602 0.010397 0.000000 0.000000 0.000000
# 4 0.000000 0.000000 0.000000 0.062459 0.000000 0.000000
# 5 0.000000 0.000000 0.000000 0.000000 0.004309 0.000000
# 6 0.000000 0.000000 0.000000 0.000000 0.000000 0.131887
#
#
# Mechanical properties :
#
#
# Convention : Reuss Voigt Hill
#
# Bulk Modulus (GPa) = 18.41489 23.00561 20.71025
# Shear Modulus (GPa) = 17.94586 63.78897 40.86741
#
# Velocity S-wave (km/s) = 2.98546 5.62863 4.50525
# Velocity P-wave (km/s) = 4.58584 7.32584 6.11138
#
# Compressibility (1/GPa) = 0.05430387
#
# Stress axis : x y z
#
# Youngs Moduli (GPa) = 30.41467 67.54110 96.18484
#
# Poissons Ratio (x) = 0.14291 -0.07979
# Poissons Ratio (y) = 0.06435 0.05795
# Poissons Ratio (z) = -0.02523 0.04069
#
# Static dielectric constant tensor:
#      x y z
#    x 1.716540 0.000000 0.000000 
#    y 0.000000 1.757400 0.000000 
#    z 0.000000 0.000000 1.722130 
# 
# From -- ./inp_files/68783.got.cif
#   From: 2010.05.17/outbox.cif.g08.bks.cpg/sg74_35_cif.got.tgz:68783.got - 2010.06.03 17:57:02.
