data_PCOD9535421
_publ_section_title
;
Structure prediction by ZEFSAII (Michael W. Deem and Ramdas Pophale) SiO2 
 PCOD9535421
Probable space group: I M M A
;
_chemical_formula_sum "Si O2"
_cell_formula_units_Z 96
_cell_length_a 19.181233
_cell_length_b 9.172615
_cell_length_c 32.286611
_cell_angle_alpha 90.000000
_cell_angle_beta 90.000000
_cell_angle_gamma 90.000000
_cell_volume 5680.573028
_symmetry_space_group_name_H-M "I M M A"
_symmetry_group_IT_number 74
_symmetry_cell_setting 'orthorhombic'
loop_
_space_group_symop_operation_xyz
x,y,z
-x,1/2-y,z
x,-y,-z
-x,1/2+y,-z
-x,-y,-z
x,1/2+y,-z
-x,y,z
x,1/2-y,z
1/2+x,1/2+y,1/2+z
1/2-x,-y,1/2+z
1/2+x,1/2-y,1/2-z
1/2-x,y,1/2-z
1/2-x,1/2-y,1/2-z
1/2+x,y,1/2-z
1/2-x,1/2+y,1/2+z
1/2+x,-y,1/2+z
loop_
_atom_site_type_symbol
_atom_site_label
_atom_site_fract_x
_atom_site_fract_y
_atom_site_fract_z
Si Si1 0.676683 0.074725 0.126225
Si Si2 0.918836 0.575555 0.704655
Si Si3 0.581230 0.075367 0.710877
Si Si4 0.658645 0.083202 0.540829
Si Si5 0.173213 0.927101 0.131301
Si Si6 0.171282 0.080924 0.541684
O O1 0.681475 0.250000 0.122092
O O2 0.626497 0.038495 0.164549
O O3 0.752504 0.005689 0.134656
O O4 0.650739 0.004521 0.083187
O O5 0.915606 0.750000 0.710099
O O6 0.893946 0.499516 0.746816
O O7 0.000000 0.534761 0.698393
O O8 0.500000 0.035199 0.704882
O O9 0.584824 0.250000 0.715809
O O10 0.625806 0.036696 0.670555
O O11 0.636397 0.250000 0.537258
O O12 0.639898 0.029282 0.586894
O O13 0.743632 0.079207 0.540890
O O14 0.634524 0.000000 0.500000
O O15 0.183059 0.750000 0.129735
O O16 0.150021 0.250000 0.542663
O O17 0.147597 0.000000 0.500000
#
# Coordination Sequence:
#
# PCOD9535421 Si02
#       6
#    16  16  16  16  16  16
#     4  10  19  30  47  71  96 123 156 192 232 278
#     4   9  19  35  51  67  91 123 156 192 236 283
#     4   9  18  33  52  70  88 118 160 197 232 281
#     4   8  14  24  39  60  87 118 147 177 217 263
#     4   9  18  31  46  68  97 123 150 192 241 279
#     4   9  16  27  44  67  96 126 155 189 230 274
#
# _framework density 16.899704
#
# number of rings (size 3 to 8) (size 9 to 14) (size 15 to 20)
#    0.000    3.000    0.000    2.000    0.000    6.667 
#    0.000    3.333    0.000    1.000    0.000    0.000 
#    0.000    0.000    0.000    0.000    0.000    1.833 
#
# Total GULP energy -267351.105645 kJ/mol
# GULP energy per Si atom -5569.814701 kJ/mol
# Density = 1.686124 g / cm^3
# Si number density = 16.899704 Si / 1000 Ang^3
#
#
#
# Elastic Constant Matrix: (Units=GPa)
#
#
# Indices 1 2 3 4 5 6 
#
# 1 31.0549 27.3240 62.8491 0.0000 0.0000 0.0000
# 2 27.3240 53.7465 76.0865 0.0000 0.0000 0.0000
# 3 62.8491 76.0865 218.7094 0.0000 0.0000 0.0000
# 4 0.0000 0.0000 0.0000 35.5467 0.0000 0.0000
# 5 0.0000 0.0000 0.0000 0.0000 -10.5160 0.0000
# 6 0.0000 0.0000 0.0000 0.0000 0.0000 11.7766
#
#
#
# Elastic Compliance Matrix: (Units=1/GPa)
#
#
# Indices 1 2 3 4 5 6 
#
# 1 0.084022 -0.016817 -0.018294 0.000000 0.000000 0.000000
# 2 -0.016817 0.040027 -0.009092 0.000000 0.000000 0.000000
# 3 -0.018294 -0.009092 0.012993 0.000000 0.000000 0.000000
# 4 0.000000 0.000000 0.000000 0.028132 0.000000 0.000000
# 5 0.000000 0.000000 0.000000 0.000000 -0.095093 0.000000
# 6 0.000000 0.000000 0.000000 0.000000 0.000000 0.084914
#
#
# Mechanical properties :
#
#
# Convention : Reuss Voigt Hill
#
# Bulk Modulus (GPa) = 20.56181 70.67001 45.61591
# Shear Modulus (GPa) = 19.25944 16.51155 17.88549
#
# Velocity S-wave (km/s) = 3.37951 3.12914 3.25673
# Velocity P-wave (km/s) = 5.23655 7.41373 6.41813
#
# Compressibility (1/GPa) = 0.04863386
#
# Stress axis : x y z
#
# Youngs Moduli (GPa) = 11.90167 24.98314 76.96743
#
# Poissons Ratio (x) = 0.42014 1.40807
# Poissons Ratio (y) = 0.20015 0.69981
# Poissons Ratio (z) = 0.21773 0.22715
#
# Static dielectric constant tensor:
#      x y z
#    x 1.553080 0.000000 0.000000 
#    y 0.000000 1.569820 0.000000 
#    z 0.000000 0.000000 1.580010 
# 
# From -- ./inp_files/64675.got.cif
#   From: 2010.05.17/outbox.cif.g08.bks.cpg/sg74_33_cif.got.tgz:64675.got - 2010.06.03 17:57:02.
