data_PCOD9535935
_publ_section_title
;
Structure prediction by ZEFSAII (Michael W. Deem and Ramdas Pophale) SiO2 
 PCOD9535935
Probable space group: I M M A
;
_chemical_formula_sum "Si O2"
_cell_formula_units_Z 80
_cell_length_a 9.190170
_cell_length_b 27.203782
_cell_length_c 18.669994
_cell_angle_alpha 90.000000
_cell_angle_beta 90.000000
_cell_angle_gamma 90.000000
_cell_volume 4667.636307
_symmetry_space_group_name_H-M "I M M A"
_symmetry_group_IT_number 74
_symmetry_cell_setting 'orthorhombic'
loop_
_space_group_symop_operation_xyz
x,y,z
-x,1/2-y,z
x,-y,-z
-x,1/2+y,-z
-x,-y,-z
x,1/2+y,-z
-x,y,z
x,1/2-y,z
1/2+x,1/2+y,1/2+z
1/2-x,-y,1/2+z
1/2+x,1/2-y,1/2-z
1/2-x,y,1/2-z
1/2-x,1/2-y,1/2-z
1/2+x,y,1/2-z
1/2-x,1/2+y,1/2+z
1/2+x,-y,1/2+z
loop_
_atom_site_type_symbol
_atom_site_label
_atom_site_fract_x
_atom_site_fract_y
_atom_site_fract_z
Si Si1 0.169131 0.309302 0.322809
Si Si2 0.827297 0.099186 0.678281
Si Si3 0.827458 0.648628 0.961533
Si Si4 0.326831 0.445033 0.975207
Si Si5 0.673322 0.193780 0.616162
O O1 0.176256 0.250000 0.326393
O O2 0.250000 0.324710 0.250000
O O3 0.247416 0.330582 0.392354
O O4 0.000000 0.323685 0.320925
O O5 0.750000 0.081004 0.750000
O O6 0.798822 0.065201 0.608894
O O7 0.761923 0.152787 0.659100
O O8 0.000000 0.102662 0.688628
O O9 0.000000 0.646550 0.949576
O O10 0.763745 0.595501 0.981903
O O11 0.801938 0.682492 0.031848
O O12 0.500000 0.436797 0.986808
O O13 0.292068 0.500000 0.000000
O O14 0.500000 0.187493 0.629248
O O15 0.713043 0.250000 0.632790
#
# Coordination Sequence:
#
# PCOD9535935 Si02
#       5
#    16  16  16  16  16
#     4  10  20  33  50  73 103 139 176 213 255 305
#     4  10  20  34  53  76 102 132 165 204 250 298
#     4  10  19  32  52  77 104 133 168 212 259 308
#     4   9  19  37  58  77  99 131 171 214 259 305
#     4   9  18  32  50  73 102 136 171 205 242 289
#
# _framework density 17.139295000000001
#
# number of rings (size 3 to 8) (size 9 to 14) (size 15 to 20)
#    0.000    2.400    0.000    2.400    0.000    4.800 
#    0.000    1.000    0.000    2.400    0.000    0.000 
#    0.000    0.000    0.000    0.000    0.000    0.000 
#
# Total GULP energy -223230.830536 kJ/mol
# GULP energy per Si atom -5580.770763 kJ/mol
# Density = 1.710029 g / cm^3
# Si number density = 17.139295 Si / 1000 Ang^3
#
#
#
# Elastic Constant Matrix: (Units=GPa)
#
#
# Indices 1 2 3 4 5 6 
#
# 1 81.0965 33.8328 61.7643 0.0000 0.0000 0.0000
# 2 33.8328 69.3716 23.5062 0.0000 0.0000 0.0000
# 3 61.7643 23.5062 99.7710 0.0000 0.0000 0.0000
# 4 0.0000 0.0000 0.0000 10.0697 0.0000 0.0000
# 5 0.0000 0.0000 0.0000 0.0000 36.0492 0.0000
# 6 0.0000 0.0000 0.0000 0.0000 0.0000 24.8149
#
#
#
# Elastic Compliance Matrix: (Units=1/GPa)
#
#
# Indices 1 2 3 4 5 6 
#
# 1 0.027000 -0.008155 -0.014793 0.000000 0.000000 0.000000
# 2 -0.008155 0.018129 0.000777 0.000000 0.000000 0.000000
# 3 -0.014793 0.000777 0.018998 0.000000 0.000000 0.000000
# 4 0.000000 0.000000 0.000000 0.099308 0.000000 0.000000
# 5 0.000000 0.000000 0.000000 0.000000 0.027740 0.000000
# 6 0.000000 0.000000 0.000000 0.000000 0.000000 0.040298
#
#
# Mechanical properties :
#
#
# Convention : Reuss Voigt Hill
#
# Bulk Modulus (GPa) = 50.54475 54.27176 52.40826
# Shear Modulus (GPa) = 17.70472 22.92914 20.31693
#
# Velocity S-wave (km/s) = 3.21750 3.66158 3.44670
# Velocity P-wave (km/s) = 6.58466 7.04344 6.81791
#
# Compressibility (1/GPa) = 0.01978445
#
# Stress axis : x y z
#
# Youngs Moduli (GPa) = 37.03678 55.15982 52.63784
#
# Poissons Ratio (x) = 0.44985 0.77869
# Poissons Ratio (y) = 0.30205 -0.04092
# Poissons Ratio (z) = 0.54790 -0.04289
#
# Static dielectric constant tensor:
#      x y z
#    x 1.568660 0.000000 0.000000 
#    y 0.000000 1.551050 0.000000 
#    z 0.000000 0.000000 1.572800 
# 
# From -- ./inp_files/39708.got.cif
#   From: 2010.05.17/outbox.cif.g08.bks.cpg/sg74_20_cif.got.tgz:39708.got - 2010.06.03 17:57:02.
