data_PCOD9535716
_publ_section_title
;
Structure prediction by ZEFSAII (Michael W. Deem and Ramdas Pophale) SiO2 
 PCOD9535716
Probable space group: I M M A
;
_chemical_formula_sum "Si O2"
_cell_formula_units_Z 96
_cell_length_a 9.405842
_cell_length_b 21.797081
_cell_length_c 24.018901
_cell_angle_alpha 90.000000
_cell_angle_beta 90.000000
_cell_angle_gamma 90.000000
_cell_volume 4924.352680
_symmetry_space_group_name_H-M "I M M A"
_symmetry_group_IT_number 74
_symmetry_cell_setting 'orthorhombic'
loop_
_space_group_symop_operation_xyz
x,y,z
-x,1/2-y,z
x,-y,-z
-x,1/2+y,-z
-x,-y,-z
x,1/2+y,-z
-x,y,z
x,1/2-y,z
1/2+x,1/2+y,1/2+z
1/2-x,-y,1/2+z
1/2+x,1/2-y,1/2-z
1/2-x,y,1/2-z
1/2-x,1/2-y,1/2-z
1/2+x,y,1/2-z
1/2-x,1/2+y,1/2+z
1/2+x,-y,1/2+z
loop_
_atom_site_type_symbol
_atom_site_label
_atom_site_fract_x
_atom_site_fract_y
_atom_site_fract_z
Si Si1 0.669507 0.684677 0.191270
Si Si2 0.330987 0.452940 0.808518
Si Si3 0.163586 0.824960 0.804716
Si Si4 0.662150 0.323724 0.085378
Si Si5 0.162965 0.601548 0.994955
Si Si6 0.163057 0.010309 0.907701
O O1 0.500000 0.684971 0.200616
O O2 0.704951 0.750000 0.161985
O O3 0.750000 0.686273 0.250000
O O4 0.700949 0.616746 0.169312
O O5 0.500000 0.459758 0.801333
O O6 0.250000 0.460653 0.750000
O O7 0.267281 0.495858 0.856032
O O8 0.161449 0.750000 0.803382
O O9 0.250000 0.845147 0.750000
O O10 0.242894 0.842782 0.861494
O O11 0.000000 0.845919 0.803984
O O12 0.500000 0.345267 0.091696
O O13 0.661346 0.250000 0.085151
O O14 0.731032 0.348138 0.028658
O O15 0.166994 0.547578 0.948744
O O16 0.000000 0.624120 0.997802
O O17 0.198794 0.568442 0.052824
O O18 0.000000 0.017805 0.888116
#
# Coordination Sequence:
#
# PCOD9535716 Si02
#       6
#    16  16  16  16  16  16
#     4   8  14  25  41  63  93 129 166 200 237 287
#     4  10  19  31  51  78 107 139 172 211 260 309
#     4   9  16  27  45  69  99 136 174 209 249 302
#     4  10  20  33  51  78 110 139 169 211 260 307
#     4   9  19  37  59  78  99 133 174 215 259 307
#     4   9  19  37  58  78 101 131 171 217 261 306
#
# _framework density 19.494948000000001
#
# number of rings (size 3 to 8) (size 9 to 14) (size 15 to 20)
#    0.000    2.833    0.000    2.500    0.000    5.000 
#    0.000    3.333    0.000    7.000    0.000    0.000 
#    0.000    0.000    0.000    0.000    0.000    0.000 
#
# Total GULP energy -267457.299294 kJ/mol
# GULP energy per Si atom -5572.027069 kJ/mol
# Density = 1.945058 g / cm^3
# Si number density = 19.494948 Si / 1000 Ang^3
#
#
#
# Elastic Constant Matrix: (Units=GPa)
#
#
# Indices 1 2 3 4 5 6 
#
# 1 104.7750 15.6138 58.4586 0.0000 0.0000 0.0000
# 2 15.6138 11.1014 10.6168 0.0000 0.0000 0.0000
# 3 58.4586 10.6168 71.1328 0.0000 0.0000 0.0000
# 4 0.0000 0.0000 0.0000 12.6776 0.0000 0.0000
# 5 0.0000 0.0000 0.0000 0.0000 24.6082 0.0000
# 6 0.0000 0.0000 0.0000 0.0000 0.0000 8.8358
#
#
#
# Elastic Compliance Matrix: (Units=1/GPa)
#
#
# Indices 1 2 3 4 5 6 
#
# 1 0.019325 -0.013988 -0.013794 0.000000 0.000000 0.000000
# 2 -0.013988 0.115202 -0.005699 0.000000 0.000000 0.000000
# 3 -0.013794 -0.005699 0.026245 0.000000 0.000000 0.000000
# 4 0.000000 0.000000 0.000000 0.078880 0.000000 0.000000
# 5 0.000000 0.000000 0.000000 0.000000 0.040637 0.000000
# 6 0.000000 0.000000 0.000000 0.000000 0.000000 0.113176
#
#
# Mechanical properties :
#
#
# Convention : Reuss Voigt Hill
#
# Bulk Modulus (GPa) = 10.65977 39.59862 25.12920
# Shear Modulus (GPa) = 10.16887 16.04564 13.10726
#
# Velocity S-wave (km/s) = 2.28637 2.87203 2.59577
# Velocity P-wave (km/s) = 3.52843 5.59950 4.67997
#
# Compressibility (1/GPa) = 0.09381063
#
# Stress axis : x y z
#
# Youngs Moduli (GPa) = 51.74612 8.68040 38.10243
#
# Poissons Ratio (x) = 0.12142 0.52559
# Poissons Ratio (y) = 0.72383 0.21713
# Poissons Ratio (z) = 0.71379 0.04947
#
# Static dielectric constant tensor:
#      x y z
#    x 1.660550 0.000000 0.000000 
#    y 0.000000 1.758200 0.000000 
#    z 0.000000 0.000000 1.662030 
# 
# From -- ./inp_files/57249.got.cif
#   From: 2010.05.17/outbox.cif.g08.bks.cpg/sg74_29_cif.got.tgz:57249.got - 2010.06.03 17:57:02.
