data_PCOD9535581
_publ_section_title
;
Structure prediction by ZEFSAII (Michael W. Deem and Ramdas Pophale) SiO2 
 PCOD9535581
Probable space group: I M M A
;
_chemical_formula_sum "Si O2"
_cell_formula_units_Z 80
_cell_length_a 8.924491
_cell_length_b 28.167309
_cell_length_c 18.479358
_cell_angle_alpha 90.000000
_cell_angle_beta 90.000000
_cell_angle_gamma 90.000000
_cell_volume 4645.320607
_symmetry_space_group_name_H-M "I M M A"
_symmetry_group_IT_number 74
_symmetry_cell_setting 'orthorhombic'
loop_
_space_group_symop_operation_xyz
x,y,z
-x,1/2-y,z
x,-y,-z
-x,1/2+y,-z
-x,-y,-z
x,1/2+y,-z
-x,y,z
x,1/2-y,z
1/2+x,1/2+y,1/2+z
1/2-x,-y,1/2+z
1/2+x,1/2-y,1/2-z
1/2-x,y,1/2-z
1/2-x,1/2-y,1/2-z
1/2+x,y,1/2-z
1/2-x,1/2+y,1/2+z
1/2+x,-y,1/2+z
loop_
_atom_site_type_symbol
_atom_site_label
_atom_site_fract_x
_atom_site_fract_y
_atom_site_fract_z
Si Si1 0.321520 0.942203 0.902069
Si Si2 0.820009 0.697392 0.970190
Si Si3 0.679582 0.542505 0.170968
Si Si4 0.679323 0.099670 0.543605
Si Si5 0.322215 0.842295 0.827145
O O1 0.500000 0.943081 0.918033
O O2 0.292744 0.897197 0.849941
O O3 0.280630 0.991129 0.863371
O O4 0.234292 0.932623 0.976356
O O5 0.780037 0.750000 0.996814
O O6 0.746852 0.688174 0.892186
O O7 0.000000 0.695092 0.961894
O O8 0.776999 0.653489 0.021552
O O9 0.500000 0.545277 0.175135
O O10 0.750000 0.546881 0.250000
O O11 0.743151 0.581502 0.115996
O O12 0.500000 0.096932 0.550096
O O13 0.500000 0.835410 0.823946
O O14 0.250000 0.831830 0.750000
#
# Coordination Sequence:
#
# PCOD9535581 Si02
#       5
#    16  16  16  16  16
#     4   9  19  34  51  73 103 139 173 203 239 286
#     4   9  19  36  55  73  95 127 167 209 253 300
#     4  11  22  35  52  75 105 137 168 204 246 293
#     4  10  20  34  54  78 102 130 166 207 249 296
#     4  10  19  31  48  72 103 136 170 207 245 288
#
# _framework density 17.221632
#
# number of rings (size 3 to 8) (size 9 to 14) (size 15 to 20)
#    0.000    2.200    0.000    3.000    0.000    6.400 
#    0.000    0.000    0.000    0.600    0.000    0.000 
#    0.000    0.000    0.000    0.000    0.000    0.000 
#
# Total GULP energy -223343.479359 kJ/mol
# GULP energy per Si atom -5583.586984 kJ/mol
# Density = 1.718243 g / cm^3
# Si number density = 17.221632 Si / 1000 Ang^3
#
#
#
# Elastic Constant Matrix: (Units=GPa)
#
#
# Indices 1 2 3 4 5 6 
#
# 1 34.3717 37.8133 47.7348 0.0000 0.0000 0.0000
# 2 37.8133 107.0633 71.7548 0.0000 0.0000 0.0000
# 3 47.7348 71.7548 123.6458 0.0001 0.0000 0.0000
# 4 0.0000 0.0000 0.0001 5.7199 0.0000 0.0000
# 5 0.0000 0.0000 0.0000 0.0000 34.2712 0.0000
# 6 0.0000 0.0000 0.0000 0.0000 0.0000 20.6677
#
#
#
# Elastic Compliance Matrix: (Units=1/GPa)
#
#
# Indices 1 2 3 4 5 6 
#
# 1 0.069539 -0.010748 -0.020609 0.000000 0.000000 0.000000
# 2 -0.010748 0.016947 -0.005685 0.000000 0.000000 0.000000
# 3 -0.020609 -0.005685 0.019343 0.000000 0.000000 0.000000
# 4 0.000000 0.000000 0.000000 0.174828 0.000000 0.000000
# 5 0.000000 0.000000 0.000000 0.000000 0.029179 0.000000
# 6 0.000000 0.000000 0.000000 0.000000 0.000000 0.048385
#
#
# Mechanical properties :
#
#
# Convention : Reuss Voigt Hill
#
# Bulk Modulus (GPa) = 31.50130 64.40962 47.95546
# Shear Modulus (GPa) = 11.28956 19.31694 15.30325
#
# Velocity S-wave (km/s) = 2.56314 3.35276 2.98418
# Velocity P-wave (km/s) = 5.20490 7.24359 6.30716
#
# Compressibility (1/GPa) = 0.03174472
#
# Stress axis : x y z
#
# Youngs Moduli (GPa) = 14.38036 59.00914 51.69771
#
# Poissons Ratio (x) = 0.63423 1.06544
# Poissons Ratio (y) = 0.15456 0.29391
# Poissons Ratio (z) = 0.29637 0.33548
#
# Static dielectric constant tensor:
#      x y z
#    x 1.572420 0.000000 0.000000 
#    y 0.000000 1.602010 0.000000 
#    z 0.000000 0.000000 1.542640 
# 
# From -- ./inp_files/39676.got.cif
#   From: 2010.05.17/outbox.cif.g08.bks.cpg/sg74_20_cif.got.tgz:39676.got - 2010.06.03 17:57:02.
