data_PCOD9535488
_publ_section_title
;
Structure prediction by ZEFSAII (Michael W. Deem and Ramdas Pophale) SiO2 
 PCOD9535488
Probable space group: I M M A
;
_chemical_formula_sum "Si O2"
_cell_formula_units_Z 72
_cell_length_a 13.403850
_cell_length_b 13.764970
_cell_length_c 24.780769
_cell_angle_alpha 90.000000
_cell_angle_beta 90.000000
_cell_angle_gamma 90.000000
_cell_volume 4572.140921
_symmetry_space_group_name_H-M "I M M A"
_symmetry_group_IT_number 74
_symmetry_cell_setting 'orthorhombic'
loop_
_space_group_symop_operation_xyz
x,y,z
-x,1/2-y,z
x,-y,-z
-x,1/2+y,-z
-x,-y,-z
x,1/2+y,-z
-x,y,z
x,1/2-y,z
1/2+x,1/2+y,1/2+z
1/2-x,-y,1/2+z
1/2+x,1/2-y,1/2-z
1/2-x,y,1/2-z
1/2-x,1/2-y,1/2-z
1/2+x,y,1/2-z
1/2-x,1/2+y,1/2+z
1/2+x,-y,1/2+z
loop_
_atom_site_type_symbol
_atom_site_label
_atom_site_fract_x
_atom_site_fract_y
_atom_site_fract_z
Si Si1 0.175395 0.000000 0.500000
Si Si2 0.719216 0.134134 0.187979
Si Si3 0.500000 0.363062 0.462259
Si Si4 0.500000 0.867205 0.845271
Si Si5 0.500000 0.634845 0.970313
Si Si6 0.830490 0.014332 0.095892
Si Si7 0.500000 0.635479 0.407726
O O1 0.100176 0.090710 0.495351
O O2 0.243898 0.990106 0.447061
O O3 0.727859 0.250000 0.174200
O O4 0.750000 0.123003 0.250000
O O5 0.603766 0.103232 0.181417
O O6 0.784827 0.070380 0.147053
O O7 0.500000 0.250000 0.449464
O O8 0.404215 0.413521 0.436311
O O9 0.500000 0.374270 0.526819
O O10 0.500000 0.750000 0.844002
O O11 0.500000 0.896834 0.907674
O O12 0.500000 0.750000 0.973175
O O13 0.900663 0.922421 0.110698
O O14 0.500000 0.750000 0.394529
#
# Coordination Sequence:
#
# PCOD9535488 Si02
#       7
#     8  16   8   8   8  16   8
#     4  11  20  31  52  78 100 139 180 213 256 322
#     4  10  21  35  54  80 109 142 174 210 263 323
#     4  10  19  30  49  80 111 138 167 212 268 325
#     4   9  17  31  50  72 105 139 169 203 247 307
#     4  10  21  33  48  74 107 141 171 211 262 310
#     4  11  19  34  52  76 107 140 179 217 262 316
#     4  10  21  34  50  77 109 140 180 222 262 310
#
# _framework density 15.747545000000001
#
# number of rings (size 3 to 8) (size 9 to 14) (size 15 to 20)
#    0.000    1.778    4.444    1.333    0.000    3.556 
#    0.000    3.333    0.000    0.667    0.000    1.556 
#    0.000    0.000    0.000    0.000    0.000    0.000 
#
# Total GULP energy -200738.312051 kJ/mol
# GULP energy per Si atom -5576.064224 kJ/mol
# Density = 1.571170 g / cm^3
# Si number density = 15.747545 Si / 1000 Ang^3
#
#
#
# Elastic Constant Matrix: (Units=GPa)
#
#
# Indices 1 2 3 4 5 6 
#
# 1 147.1200 64.3371 63.7144 0.0000 0.0000 0.0000
# 2 64.3371 99.8497 46.8774 0.0000 0.0000 0.0000
# 3 63.7144 46.8774 85.2881 0.0000 0.0000 0.0000
# 4 0.0000 0.0000 0.0000 25.6820 0.0000 0.0000
# 5 0.0000 0.0000 0.0000 0.0000 40.6703 0.0000
# 6 0.0000 0.0000 0.0000 0.0000 0.0000 15.6498
#
#
#
# Elastic Compliance Matrix: (Units=1/GPa)
#
#
# Indices 1 2 3 4 5 6 
#
# 1 0.011374 -0.004501 -0.006023 0.000000 0.000000 0.000000
# 2 -0.004501 0.015279 -0.005036 0.000000 0.000000 0.000000
# 3 -0.006023 -0.005036 0.018992 0.000000 0.000000 0.000000
# 4 0.000000 0.000000 0.000000 0.038938 0.000000 0.000000
# 5 0.000000 0.000000 0.000000 0.000000 0.024588 0.000000
# 6 0.000000 0.000000 0.000000 0.000000 0.000000 0.063899
#
#
# Mechanical properties :
#
#
# Convention : Reuss Voigt Hill
#
# Bulk Modulus (GPa) = 68.84073 75.79062 72.31568
# Shear Modulus (GPa) = 23.91988 26.88901 25.40444
#
# Velocity S-wave (km/s) = 3.90161 4.13668 4.02086
# Velocity P-wave (km/s) = 8.00668 8.42907 8.22059
#
# Compressibility (1/GPa) = 0.01452628
#
# Stress axis : x y z
#
# Youngs Moduli (GPa) = 87.92042 65.44789 52.65335
#
# Poissons Ratio (x) = 0.29458 0.31713
# Poissons Ratio (y) = 0.39573 0.26514
# Poissons Ratio (z) = 0.52954 0.32957
#
# Static dielectric constant tensor:
#      x y z
#    x 1.558170 0.000000 0.000000 
#    y 0.000000 1.525590 0.000000 
#    z 0.000000 0.000000 1.508260 
# 
# From -- ./inp_files/58461.got.cif
#   From: 2010.05.17/outbox.cif.g08.bks.cpg/sg74_30_cif.got.tgz:58461.got - 2010.06.03 17:57:02.
