data_PCOD9535132
_publ_section_title
;
Structure prediction by ZEFSAII (Michael W. Deem and Ramdas Pophale) SiO2 
 PCOD9535132
Probable space group: I M M A
;
_chemical_formula_sum "Si O2"
_cell_formula_units_Z 96
_cell_length_a 19.078454
_cell_length_b 18.990960
_cell_length_c 14.860525
_cell_angle_alpha 90.000000
_cell_angle_beta 90.000000
_cell_angle_gamma 90.000000
_cell_volume 5384.238027
_symmetry_space_group_name_H-M "I M M A"
_symmetry_group_IT_number 74
_symmetry_cell_setting 'orthorhombic'
loop_
_space_group_symop_operation_xyz
x,y,z
-x,1/2-y,z
x,-y,-z
-x,1/2+y,-z
-x,-y,-z
x,1/2+y,-z
-x,y,z
x,1/2-y,z
1/2+x,1/2+y,1/2+z
1/2-x,-y,1/2+z
1/2+x,1/2-y,1/2-z
1/2-x,y,1/2-z
1/2-x,1/2-y,1/2-z
1/2+x,y,1/2-z
1/2-x,1/2+y,1/2+z
1/2+x,-y,1/2+z
loop_
_atom_site_type_symbol
_atom_site_label
_atom_site_fract_x
_atom_site_fract_y
_atom_site_fract_z
Si Si1 0.676187 0.110789 0.958939
Si Si2 0.418194 0.670622 0.186751
Si Si3 0.831536 0.666350 0.992056
Si Si4 0.325466 0.959894 0.861980
Si Si5 0.083380 0.913732 0.136098
Si Si6 0.658526 0.057089 0.340623
O O1 0.629903 0.163476 0.900711
O O2 0.756513 0.136134 0.971577
O O3 0.667811 0.037987 0.903033
O O4 0.650992 0.093521 0.059883
O O5 0.500000 0.658248 0.164246
O O6 0.412210 0.750000 0.223321
O O7 0.397715 0.615964 0.264878
O O8 0.826616 0.750000 0.981451
O O9 0.888146 0.642454 0.065239
O O10 0.853101 0.626709 0.899678
O O11 0.359320 0.943477 0.765542
O O12 0.241958 0.953145 0.848724
O O13 0.000000 0.920709 0.131305
O O14 0.119953 0.988777 0.119422
#
# Coordination Sequence:
#
# PCOD9535132 Si02
#       6
#    16  16  16  16  16  16
#     4  10  18  35  57  84 110 142 182 226 269 324
#     4  10  21  36  54  81 117 147 174 222 283 333
#     4  11  23  36  55  84 114 145 184 226 272 328
#     4   9  18  33  59  83 108 139 183 232 268 311
#     4  11  22  37  56  80 109 145 189 231 275 326
#     4  10  19  37  56  81 110 146 182 226 274 318
#
# _framework density 17.829822
#
# number of rings (size 3 to 8) (size 9 to 14) (size 15 to 20)
#    0.000    1.833    3.333    1.500    0.000    3.000 
#    0.000   11.667    0.000    0.000    0.000    0.000 
#    0.000    0.000    0.000    0.000    0.000    0.000 
#
# Total GULP energy -267519.357572 kJ/mol
# GULP energy per Si atom -5573.319949 kJ/mol
# Density = 1.778924 g / cm^3
# Si number density = 17.829822 Si / 1000 Ang^3
#
#
#
# Elastic Constant Matrix: (Units=GPa)
#
#
# Indices 1 2 3 4 5 6 
#
# 1 24.8249 24.0321 27.9289 0.0000 0.0000 0.0000
# 2 24.0321 99.9910 47.1591 0.0000 0.0000 0.0000
# 3 27.9289 47.1591 120.3483 0.0000 0.0000 0.0000
# 4 0.0000 0.0000 0.0000 26.0131 0.0000 0.0000
# 5 0.0000 0.0000 0.0000 0.0000 13.3465 0.0000
# 6 0.0000 0.0000 0.0000 0.0000 0.0000 15.2694
#
#
#
# Elastic Compliance Matrix: (Units=1/GPa)
#
#
# Indices 1 2 3 4 5 6 
#
# 1 0.061569 -0.009886 -0.010414 0.000000 0.000000 0.000000
# 2 -0.009886 0.013856 -0.003135 0.000000 0.000000 0.000000
# 3 -0.010414 -0.003135 0.011955 0.000000 0.000000 0.000000
# 4 0.000000 0.000000 0.000000 0.038442 0.000000 0.000000
# 5 0.000000 0.000000 0.000000 0.000000 0.074926 0.000000
# 6 0.000000 0.000000 0.000000 0.000000 0.000000 0.065490
#
#
# Mechanical properties :
#
#
# Convention : Reuss Voigt Hill
#
# Bulk Modulus (GPa) = 24.68632 49.26716 36.97674
# Shear Modulus (GPa) = 15.30875 20.66209 17.98542
#
# Velocity S-wave (km/s) = 2.93337 3.40788 3.17949
# Velocity P-wave (km/s) = 5.03473 6.57090 5.85343
#
# Compressibility (1/GPa) = 0.04050827
#
# Stress axis : x y z
#
# Youngs Moduli (GPa) = 16.24198 72.17322 83.64998
#
# Poissons Ratio (x) = 0.71350 0.87116
# Poissons Ratio (y) = 0.16057 0.26226
# Poissons Ratio (z) = 0.16915 0.22628
#
# Static dielectric constant tensor:
#      x y z
#    x 1.587580 0.000000 0.000000 
#    y 0.000000 1.612770 0.000000 
#    z 0.000000 0.000000 1.639300 
# 
# From -- ./inp_files/35297.got.cif
#   From: 2010.05.17/outbox.cif.g08.bks.cpg/sg74_18_cif.got.tgz:35297.got - 2010.06.03 17:57:02.
