data_PCOD9535038
_publ_section_title
;
Structure prediction by ZEFSAII (Michael W. Deem and Ramdas Pophale) SiO2 
 PCOD9535038
Probable space group: I M M A
;
_chemical_formula_sum "Si O2"
_cell_formula_units_Z 80
_cell_length_a 14.987386
_cell_length_b 23.892603
_cell_length_c 12.629211
_cell_angle_alpha 90.000000
_cell_angle_beta 90.000000
_cell_angle_gamma 90.000000
_cell_volume 4522.364661
_symmetry_space_group_name_H-M "I M M A"
_symmetry_group_IT_number 74
_symmetry_cell_setting 'orthorhombic'
loop_
_space_group_symop_operation_xyz
x,y,z
-x,1/2-y,z
x,-y,-z
-x,1/2+y,-z
-x,-y,-z
x,1/2+y,-z
-x,y,z
x,1/2-y,z
1/2+x,1/2+y,1/2+z
1/2-x,-y,1/2+z
1/2+x,1/2-y,1/2-z
1/2-x,y,1/2-z
1/2-x,1/2-y,1/2-z
1/2+x,y,1/2-z
1/2-x,1/2+y,1/2+z
1/2+x,-y,1/2+z
loop_
_atom_site_type_symbol
_atom_site_label
_atom_site_fract_x
_atom_site_fract_y
_atom_site_fract_z
Si Si1 0.106692 0.513245 0.846380
Si Si2 0.000000 0.182763 0.937861
Si Si3 0.000000 0.814598 0.316919
Si Si4 0.188629 0.868400 0.349905
Si Si5 0.393438 0.986044 0.120222
Si Si6 0.656541 0.097274 0.521510
O O1 0.120521 0.525413 0.721766
O O2 0.134991 0.451063 0.888908
O O3 0.000000 0.516199 0.866945
O O4 0.154644 0.559974 0.916488
O O5 0.083343 0.146199 0.977931
O O6 0.000000 0.250000 0.961590
O O7 0.000000 0.177078 0.810053
O O8 0.905824 0.837893 0.357932
O O9 0.000000 0.750000 0.340399
O O10 0.250000 0.850117 0.250000
O O11 0.158991 0.932302 0.340698
O O12 0.252444 0.870924 0.450991
O O13 0.500000 0.974611 0.115965
O O14 0.365760 0.000000 0.000000
#
# Coordination Sequence:
#
# PCOD9535038 Si02
#       6
#    16   8   8  16  16  16
#     4  10  18  33  58  80 118 156 187 232 282 354
#     4  11  20  33  53  79 114 147 194 251 290 340
#     4  11  24  40  54  75 113 156 199 241 295 361
#     4  12  22  34  57  78 116 149 185 235 296 344
#     4  10  21  35  52  82 119 153 182 219 278 347
#     4  11  20  33  53  86 112 152 190 228 295 352
#
# _framework density 17.689859999999999
#
# number of rings (size 3 to 8) (size 9 to 14) (size 15 to 20)
#    0.000    1.200    7.000    0.600    2.800    1.200 
#    0.000    0.000    0.000    0.000    0.000    2.800 
#    0.000    3.200    0.000    0.000    0.000    0.000 
#
# Total GULP energy -222781.039463 kJ/mol
# GULP energy per Si atom -5569.525987 kJ/mol
# Density = 1.764960 g / cm^3
# Si number density = 17.689860 Si / 1000 Ang^3
#
#
#
# Elastic Constant Matrix: (Units=GPa)
#
#
# Indices 1 2 3 4 5 6 
#
# 1 118.9385 43.2806 36.1641 0.0000 0.0000 0.0001
# 2 43.2806 62.7518 12.2834 0.0000 0.0000 0.0000
# 3 36.1641 12.2834 99.4647 0.0001 -0.0001 -0.0002
# 4 0.0000 0.0000 0.0001 10.2120 0.0000 -0.0001
# 5 0.0000 0.0000 -0.0001 0.0000 3.5513 0.0001
# 6 0.0001 0.0000 -0.0002 -0.0001 0.0001 56.0048
#
#
#
# Elastic Compliance Matrix: (Units=1/GPa)
#
#
# Indices 1 2 3 4 5 6 
#
# 1 0.012317 -0.007807 -0.003514 0.000000 0.000000 0.000000
# 2 -0.007807 0.021279 0.000211 0.000000 0.000000 0.000000
# 3 -0.003514 0.000211 0.011306 0.000000 0.000000 0.000000
# 4 0.000000 0.000000 0.000000 0.097924 0.000001 0.000000
# 5 0.000000 0.000000 0.000000 0.000001 0.281584 0.000000
# 6 0.000000 0.000000 0.000000 0.000000 0.000000 0.017856
#
#
# Mechanical properties :
#
#
# Convention : Reuss Voigt Hill
#
# Bulk Modulus (GPa) = 44.09089 51.62346 47.85717
# Shear Modulus (GPa) = 10.59214 26.58209 18.58712
#
# Velocity S-wave (km/s) = 2.44963 3.88064 3.24500
# Velocity P-wave (km/s) = 5.74277 7.02318 6.41500
#
# Compressibility (1/GPa) = 0.02268042
#
# Stress axis : x y z
#
# Youngs Moduli (GPa) = 81.18670 46.99376 88.45239
#
# Poissons Ratio (x) = 0.36690 0.31084
# Poissons Ratio (y) = 0.63386 -0.01864
# Poissons Ratio (z) = 0.28531 -0.00991
#
# Static dielectric constant tensor:
#      x y z
#    x 1.625590 0.000000 0.000000 
#    y 0.000000 1.588940 0.000000 
#    z 0.000000 0.000000 1.676080 
# 
# From -- ./inp_files/20543.got.cif
#   From: 2010.05.17/outbox.cif.g08.bks.cpg/sg74_11_cif.got.tgz:20543.got - 2010.06.03 17:57:02.
