data_PCOD9535052
_publ_section_title
;
Structure prediction by ZEFSAII (Michael W. Deem and Ramdas Pophale) SiO2 
 PCOD9535052
Probable space group: I M M A
;
_chemical_formula_sum "Si O2"
_cell_formula_units_Z 64
_cell_length_a 19.740188
_cell_length_b 17.454067
_cell_length_c 7.788206
_cell_angle_alpha 90.000000
_cell_angle_beta 90.000000
_cell_angle_gamma 90.000000
_cell_volume 2683.399617
_symmetry_space_group_name_H-M "I M M A"
_symmetry_group_IT_number 74
_symmetry_cell_setting 'orthorhombic'
loop_
_space_group_symop_operation_xyz
x,y,z
-x,1/2-y,z
x,-y,-z
-x,1/2+y,-z
-x,-y,-z
x,1/2+y,-z
-x,y,z
x,1/2-y,z
1/2+x,1/2+y,1/2+z
1/2-x,-y,1/2+z
1/2+x,1/2-y,1/2-z
1/2-x,y,1/2-z
1/2-x,1/2-y,1/2-z
1/2+x,y,1/2-z
1/2-x,1/2+y,1/2+z
1/2+x,-y,1/2+z
loop_
_atom_site_type_symbol
_atom_site_label
_atom_site_fract_x
_atom_site_fract_y
_atom_site_fract_z
Si Si1 0.077997 0.160194 0.846211
Si Si2 0.790803 0.836700 0.572362
Si Si3 0.306621 0.444205 0.643187
Si Si4 0.574603 0.157837 0.240450
O O1 0.091783 0.250000 0.811031
O O2 0.132615 0.102078 0.769407
O O3 0.000000 0.145152 0.798171
O O4 0.083943 0.149518 0.053859
O O5 0.800704 0.750000 0.506006
O O6 0.750000 0.830057 0.750000
O O7 0.742775 0.882309 0.445078
O O8 0.862962 0.871966 0.629298
O O9 0.336117 0.500000 0.500000
O O10 0.250000 0.490568 0.750000
O O11 0.500000 0.127903 0.195025
O O12 0.574262 0.250000 0.213825
#
# Coordination Sequence:
#
# PCOD9535052 Si02
#       4
#    16  16  16  16
#     4   9  18  36  64  93 116 145 193 247 297 354
#     4  10  18  33  59  86 114 148 190 241 296 350
#     4  12  26  40  57  82 121 162 205 242 292 346
#     4   8  14  27  54  89 116 142 180 228 286 347
#
# _framework density 23.850342000000001
#
# number of rings (size 3 to 8) (size 9 to 14) (size 15 to 20)
#    0.000    2.250    2.500    3.000    0.000    2.500 
#    0.000    1.250    0.000    4.500    0.000    0.000 
#    0.000    0.000    0.000    0.000    0.000    0.000 
#
# Total GULP energy -178805.472239 kJ/mol
# GULP energy per Si atom -5587.671007 kJ/mol
# Density = 2.379606 g / cm^3
# Si number density = 23.850342 Si / 1000 Ang^3
#
#
#
# Elastic Constant Matrix: (Units=GPa)
#
#
# Indices 1 2 3 4 5 6 
#
# 1 169.3066 41.3879 18.7604 0.0000 0.0000 0.0000
# 2 41.3879 57.3247 -0.3199 0.0000 0.0000 0.0000
# 3 18.7604 -0.3199 44.2048 0.0000 0.0000 0.0000
# 4 0.0000 0.0000 0.0000 193.7299 0.0000 0.0000
# 5 0.0000 0.0000 0.0000 0.0000 31.9039 0.0000
# 6 0.0000 0.0000 0.0000 0.0000 0.0000 17.0833
#
#
#
# Elastic Compliance Matrix: (Units=1/GPa)
#
#
# Indices 1 2 3 4 5 6 
#
# 1 0.007618 -0.005519 -0.003273 0.000000 0.000000 0.000000
# 2 -0.005519 0.021443 0.002497 0.000000 0.000000 0.000000
# 3 -0.003273 0.002497 0.024029 0.000000 0.000000 0.000000
# 4 0.000000 0.000000 0.000000 0.005162 0.000000 0.000000
# 5 0.000000 0.000000 0.000000 0.000000 0.031344 0.000000
# 6 0.000000 0.000000 0.000000 0.000000 0.000000 0.058537
#
#
# Mechanical properties :
#
#
# Convention : Reuss Voigt Hill
#
# Bulk Modulus (GPa) = 24.69055 43.38812 34.03933
# Shear Modulus (GPa) = 28.69906 62.61061 45.65483
#
# Velocity S-wave (km/s) = 3.47262 5.12918 4.37993
# Velocity P-wave (km/s) = 5.14330 7.30132 6.31517
#
# Compressibility (1/GPa) = 0.04050132
#
# Stress axis : x y z
#
# Youngs Moduli (GPa) = 131.26540 46.63587 41.61613
#
# Poissons Ratio (x) = 0.25736 0.13621
# Poissons Ratio (y) = 0.72439 -0.10392
# Poissons Ratio (z) = 0.42964 -0.11646
#
# Static dielectric constant tensor:
#      x y z
#    x 1.922510 0.000000 0.000000 
#    y 0.000000 1.899580 0.000000 
#    z 0.000000 0.000000 2.012510 
# 
# From -- ./inp_files/10223.got.cif
#   From: 2010.05.17/outbox.cif.g08.bks.cpg/sg74_6_cif.got.tgz:10223.got - 2010.06.03 17:57:02.
