data_PCOD9535330
_publ_section_title
;
Structure prediction by ZEFSAII (Michael W. Deem and Ramdas Pophale) SiO2 
 PCOD9535330
Probable space group: I M M A
;
_chemical_formula_sum "Si O2"
_cell_formula_units_Z 104
_cell_length_a 7.529465
_cell_length_b 25.604460
_cell_length_c 20.563087
_cell_angle_alpha 90.000000
_cell_angle_beta 90.000000
_cell_angle_gamma 90.000000
_cell_volume 3964.314060
_symmetry_space_group_name_H-M "I M M A"
_symmetry_group_IT_number 74
_symmetry_cell_setting 'orthorhombic'
loop_
_space_group_symop_operation_xyz
x,y,z
-x,1/2-y,z
x,-y,-z
-x,1/2+y,-z
-x,-y,-z
x,1/2+y,-z
-x,y,z
x,1/2-y,z
1/2+x,1/2+y,1/2+z
1/2-x,-y,1/2+z
1/2+x,1/2-y,1/2-z
1/2-x,y,1/2-z
1/2-x,1/2-y,1/2-z
1/2+x,y,1/2-z
1/2-x,1/2+y,1/2+z
1/2+x,-y,1/2+z
loop_
_atom_site_type_symbol
_atom_site_label
_atom_site_fract_x
_atom_site_fract_y
_atom_site_fract_z
Si Si1 0.786313 0.692892 0.991843
Si Si2 0.794290 0.078040 0.503220
Si Si3 0.789276 0.468965 0.374624
Si Si4 0.787204 0.860381 0.674262
Si Si5 0.213453 0.250000 0.328073
Si Si6 0.301799 0.418485 0.651565
Si Si7 0.784119 0.306455 0.852995
O O1 0.720431 0.750000 0.968390
O O2 0.713358 0.636190 0.970991
O O3 0.000000 0.691418 0.986645
O O4 0.745309 0.693805 0.069772
O O5 0.727272 0.037286 0.449402
O O6 0.697781 0.081829 0.572167
O O7 0.000000 0.066412 0.519464
O O8 0.712743 0.416858 0.343202
O O9 0.763957 0.522935 0.336989
O O10 0.000000 0.462744 0.379490
O O11 0.750000 0.855791 0.750000
O O12 0.715511 0.805492 0.645776
O O13 0.000000 0.860435 0.664283
O O14 0.250000 0.250000 0.250000
O O15 0.000000 0.250000 0.334740
O O16 0.500000 0.417263 0.677627
O O17 0.215764 0.363003 0.671423
O O18 0.721658 0.250000 0.826741
O O19 0.000000 0.307339 0.846984
#
# Coordination Sequence:
#
# PCOD9535330 Si02
#       7
#    16  16  16  16   8  16  16
#     4   8  14  26  42  58  81 114 152 195 238 273
#     4  10  19  30  43  62  90 126 162 195 234 282
#     4  10  21  34  45  65  96 126 154 190 239 289
#     4   9  18  34  54  74  94 120 154 197 248 295
#     4   8  14  28  52  74  90 114 150 192 240 294
#     4  10  19  30  47  68  90 124 164 198 233 276
#     4   7  11  22  40  60  81 108 144 185 224 258
#
# _framework density 26.234047
#
# number of rings (size 3 to 8) (size 9 to 14) (size 15 to 20)
#    0.000    3.077    0.000    3.231    0.000    4.000 
#    1.385    0.000    0.000    1.385    0.000    0.000 
#    0.000    0.615    0.000    1.385    0.000    2.308 
#
# Total GULP energy -290134.449084 kJ/mol
# GULP energy per Si atom -5579.508636 kJ/mol
# Density = 2.617434 g / cm^3
# Si number density = 26.234047 Si / 1000 Ang^3
#
#
#
# Elastic Constant Matrix: (Units=GPa)
#
#
# Indices 1 2 3 4 5 6 
#
# 1 77.1749 5.8956 -2.2792 0.0000 0.0000 0.0000
# 2 5.8956 280.3312 34.7010 0.0000 0.0000 0.0000
# 3 -2.2792 34.7010 44.8262 -0.0001 0.0002 0.0001
# 4 0.0000 0.0000 -0.0001 27.2064 0.0001 0.0000
# 5 0.0000 0.0000 0.0002 0.0001 -15.1863 -0.0001
# 6 0.0000 0.0000 0.0001 0.0000 -0.0001 13.5399
#
#
#
# Elastic Compliance Matrix: (Units=1/GPa)
#
#
# Indices 1 2 3 4 5 6 
#
# 1 0.013016 -0.000393 0.000966 0.000000 0.000000 0.000000
# 2 -0.000393 0.003957 -0.003083 0.000000 0.000000 0.000000
# 3 0.000966 -0.003083 0.024744 0.000000 0.000000 0.000000
# 4 0.000000 0.000000 0.000000 0.036756 0.000000 0.000000
# 5 0.000000 0.000000 0.000000 0.000000 -0.065849 0.000000
# 6 0.000000 0.000000 0.000000 0.000000 0.000000 0.073856
#
#
# Mechanical properties :
#
#
# Convention : Reuss Voigt Hill
#
# Bulk Modulus (GPa) = 27.25021 53.21858 40.23439
# Shear Modulus (GPa) = 48.20032 29.37966 38.78999
#
# Velocity S-wave (km/s) = 4.29105 3.35013 3.84944
# Velocity P-wave (km/s) = 5.91275 5.94093 5.92686
#
# Compressibility (1/GPa) = 0.03669697
#
# Stress axis : x y z
#
# Youngs Moduli (GPa) = 76.82748 252.70698 40.41320
#
# Poissons Ratio (x) = 0.09940 -0.03905
# Poissons Ratio (y) = 0.03022 0.12461
# Poissons Ratio (z) = -0.07424 0.77918
#
# Static dielectric constant tensor:
#      x y z
#    x 1.969300 0.000000 0.000000 
#    y 0.000000 2.188270 0.000000 
#    z 0.000000 0.000000 2.118980 
# 
# From -- ./inp_files/64796.got.cif
#   From: 2010.05.17/outbox.cif.g08.bks.cpg/sg74_33_cif.got.tgz:64796.got - 2010.06.03 17:57:02.
