data_PCOD9535937
_publ_section_title
;
Structure prediction by ZEFSAII (Michael W. Deem and Ramdas Pophale) SiO2 
 PCOD9535937
Probable space group: I M M A
;
_chemical_formula_sum "Si O2"
_cell_formula_units_Z 104
_cell_length_a 9.124248
_cell_length_b 28.439749
_cell_length_c 23.058961
_cell_angle_alpha 90.000000
_cell_angle_beta 90.000000
_cell_angle_gamma 90.000000
_cell_volume 5983.600295
_symmetry_space_group_name_H-M "I M M A"
_symmetry_group_IT_number 74
_symmetry_cell_setting 'orthorhombic'
loop_
_space_group_symop_operation_xyz
x,y,z
-x,1/2-y,z
x,-y,-z
-x,1/2+y,-z
-x,-y,-z
x,1/2+y,-z
-x,y,z
x,1/2-y,z
1/2+x,1/2+y,1/2+z
1/2-x,-y,1/2+z
1/2+x,1/2-y,1/2-z
1/2-x,y,1/2-z
1/2-x,1/2-y,1/2-z
1/2+x,y,1/2-z
1/2-x,1/2+y,1/2+z
1/2+x,-y,1/2+z
loop_
_atom_site_type_symbol
_atom_site_label
_atom_site_fract_x
_atom_site_fract_y
_atom_site_fract_z
Si Si1 0.824441 0.250000 0.187072
Si Si2 0.323752 0.101356 0.623543
Si Si3 0.671449 0.447069 0.985217
Si Si4 0.176164 0.696113 0.187492
Si Si5 0.326821 0.148742 0.312199
Si Si6 0.826354 0.019337 0.691136
Si Si7 0.333597 0.427804 0.117199
O O1 0.750000 0.250000 0.250000
O O2 0.785115 0.300348 0.160522
O O3 0.000000 0.250000 0.194053
O O4 0.500000 0.097032 0.623148
O O5 0.258653 0.081995 0.562947
O O6 0.285386 0.154907 0.641915
O O7 0.253499 0.066802 0.671430
O O8 0.500000 0.451345 0.966300
O O9 0.725175 0.500000 0.000000
O O10 0.675484 0.423565 0.048306
O O11 0.214964 0.750000 0.170180
O O12 0.250000 0.686945 0.250000
O O13 0.000000 0.694429 0.194772
O O14 0.500000 0.147548 0.303367
O O15 0.250000 0.144576 0.250000
O O16 0.276832 0.106779 0.352220
O O17 0.750000 0.001741 0.750000
O O18 0.000000 0.026511 0.699956
O O19 0.808044 0.980697 0.640349
O O20 0.500000 0.415891 0.135450
#
# Coordination Sequence:
#
# PCOD9535937 Si02
#       7
#     8  16  16  16  16  16  16
#     4   8  16  30  48  72 100 132 166 204 251 306
#     4  11  22  35  56  84 109 141 183 224 267 321
#     4  10  20  39  59  76 102 142 181 219 266 312
#     4   9  19  36  57  83 115 146 179 222 275 330
#     4  10  19  32  52  77 106 136 171 213 262 314
#     4  11  22  36  52  76 111 145 175 214 266 319
#     4  10  21  36  54  75 102 138 177 217 266 315
#
# _framework density 17.380839999999999
#
# number of rings (size 3 to 8) (size 9 to 14) (size 15 to 20)
#    0.000    2.000    1.538    2.308    0.000    6.462 
#    0.000    0.000    1.692    0.000    0.000    0.000 
#    0.000    0.000    0.000    0.000    0.000    0.000 
#
# Total GULP energy -289905.992524 kJ/mol
# GULP energy per Si atom -5575.115241 kJ/mol
# Density = 1.734128 g / cm^3
# Si number density = 17.380840 Si / 1000 Ang^3
#
#
#
# Elastic Constant Matrix: (Units=GPa)
#
#
# Indices 1 2 3 4 5 6 
#
# 1 57.7232 50.8613 35.1874 0.0000 0.0000 0.0000
# 2 50.8613 115.5142 40.0693 0.0000 0.0000 0.0000
# 3 35.1874 40.0693 77.8801 0.0000 0.0000 0.0000
# 4 0.0000 0.0000 0.0000 17.6403 0.0000 0.0000
# 5 0.0000 0.0000 0.0000 0.0000 28.5237 0.0000
# 6 0.0000 0.0000 0.0000 0.0000 0.0000 19.3356
#
#
#
# Elastic Compliance Matrix: (Units=1/GPa)
#
#
# Indices 1 2 3 4 5 6 
#
# 1 0.032768 -0.011311 -0.008986 0.000000 0.000000 0.000000
# 2 -0.011311 0.014442 -0.002320 0.000000 0.000000 0.000000
# 3 -0.008986 -0.002320 0.018094 0.000000 0.000000 0.000000
# 4 0.000000 0.000000 0.000000 0.056688 0.000000 0.000000
# 5 0.000000 0.000000 0.000000 0.000000 0.035059 0.000000
# 6 0.000000 0.000000 0.000000 0.000000 0.000000 0.051718
#
#
# Mechanical properties :
#
#
# Convention : Reuss Voigt Hill
#
# Bulk Modulus (GPa) = 49.82396 55.92815 52.87606
# Shear Modulus (GPa) = 19.17976 21.43322 20.30649
#
# Velocity S-wave (km/s) = 3.32550 3.51544 3.42179
# Velocity P-wave (km/s) = 6.59345 6.98037 6.78967
#
# Compressibility (1/GPa) = 0.02007066
#
# Stress axis : x y z
#
# Youngs Moduli (GPa) = 30.51766 69.24287 55.26797
#
# Poissons Ratio (x) = 0.78320 0.49661
# Poissons Ratio (y) = 0.34518 0.12822
# Poissons Ratio (z) = 0.27422 0.16064
#
# Static dielectric constant tensor:
#      x y z
#    x 1.586930 0.000000 0.000000 
#    y 0.000000 1.628600 0.000000 
#    z 0.000000 0.000000 1.574830 
# 
# From -- ./inp_files/49278.got.cif
#   From: 2010.05.17/outbox.cif.g08.bks.cpg/sg74_25_cif.got.tgz:49278.got - 2010.06.03 17:57:02.
