data_PCOD9535880
_publ_section_title
;
Structure prediction by ZEFSAII (Michael W. Deem and Ramdas Pophale) SiO2 
 PCOD9535880
Probable space group: I M M A
;
_chemical_formula_sum "Si O2"
_cell_formula_units_Z 88
_cell_length_a 10.119954
_cell_length_b 15.832902
_cell_length_c 30.952309
_cell_angle_alpha 90.000000
_cell_angle_beta 90.000000
_cell_angle_gamma 90.000000
_cell_volume 4959.433993
_symmetry_space_group_name_H-M "I M M A"
_symmetry_group_IT_number 74
_symmetry_cell_setting 'orthorhombic'
loop_
_space_group_symop_operation_xyz
x,y,z
-x,1/2-y,z
x,-y,-z
-x,1/2+y,-z
-x,-y,-z
x,1/2+y,-z
-x,y,z
x,1/2-y,z
1/2+x,1/2+y,1/2+z
1/2-x,-y,1/2+z
1/2+x,1/2-y,1/2-z
1/2-x,y,1/2-z
1/2-x,1/2-y,1/2-z
1/2+x,y,1/2-z
1/2-x,1/2+y,1/2+z
1/2+x,-y,1/2+z
loop_
_atom_site_type_symbol
_atom_site_label
_atom_site_fract_x
_atom_site_fract_y
_atom_site_fract_z
Si Si1 0.151320 0.091829 0.614365
Si Si2 0.851897 0.844327 0.183414
Si Si3 0.357113 0.420940 0.171134
Si Si4 0.654440 0.491864 0.551156
Si Si5 0.653916 0.655380 0.609957
Si Si6 0.250000 0.980273 0.250000
O O1 0.239161 0.147153 0.647159
O O2 0.000000 0.120865 0.606600
O O3 0.141197 0.002695 0.639754
O O4 0.240931 0.072242 0.572559
O O5 0.844531 0.750000 0.202527
O O6 0.831185 0.917016 0.218940
O O7 0.000000 0.854777 0.164794
O O8 0.500000 0.378877 0.169094
O O9 0.242249 0.363888 0.151715
O O10 0.331535 0.459701 0.218158
O O11 0.672281 0.500000 0.500000
O O12 0.500000 0.468092 0.559419
O O13 0.675989 0.582737 0.574274
O O14 0.500000 0.650186 0.621967
O O15 0.680978 0.750000 0.593621
#
# Coordination Sequence:
#
# PCOD9535880 Si02
#       6
#    16  16  16  16  16   8
#     4   9  18  32  49  70  99 133 167 204 247 295
#     4  10  20  33  50  72  99 133 171 209 250 298
#     4   9  18  31  49  72  96 126 162 199 241 290
#     4   9  17  31  53  78 102 130 166 205 246 297
#     4   9  18  33  52  73  98 128 161 199 244 291
#     4  10  19  32  51  74  98 126 164 210 253 296
#
# _framework density 17.743960000000001
#
# number of rings (size 3 to 8) (size 9 to 14) (size 15 to 20)
#    0.000    2.727    0.000    1.364    0.000    6.909 
#    0.000    1.364    0.000    3.273    0.000    0.000 
#    0.000    0.000    0.000    0.000    0.000    0.000 
#
# Total GULP energy -244959.649981 kJ/mol
# GULP energy per Si atom -5567.264772 kJ/mol
# Density = 1.770357 g / cm^3
# Si number density = 17.743960 Si / 1000 Ang^3
#
#
#
# Elastic Constant Matrix: (Units=GPa)
#
#
# Indices 1 2 3 4 5 6 
#
# 1 120.5246 37.4003 58.1399 0.0000 0.0000 0.0000
# 2 37.4003 47.6047 20.2464 0.0000 0.0000 0.0000
# 3 58.1399 20.2464 96.3525 0.0000 0.0000 0.0000
# 4 0.0000 0.0000 0.0000 12.2299 0.0000 0.0000
# 5 0.0000 0.0000 0.0000 0.0000 16.2207 0.0000
# 6 0.0000 0.0000 0.0000 0.0000 0.0000 15.8660
#
#
#
# Elastic Compliance Matrix: (Units=1/GPa)
#
#
# Indices 1 2 3 4 5 6 
#
# 1 0.014122 -0.008204 -0.006797 0.000000 0.000000 0.000000
# 2 -0.008204 0.027834 -0.000898 0.000000 0.000000 0.000000
# 3 -0.006797 -0.000898 0.014669 0.000000 0.000000 0.000000
# 4 0.000000 0.000000 0.000000 0.081767 0.000000 0.000000
# 5 0.000000 0.000000 0.000000 0.000000 0.061650 0.000000
# 6 0.000000 0.000000 0.000000 0.000000 0.000000 0.063028
#
#
# Mechanical properties :
#
#
# Convention : Reuss Voigt Hill
#
# Bulk Modulus (GPa) = 40.28151 55.11723 47.69937
# Shear Modulus (GPa) = 16.49385 18.77631 17.63508
#
# Velocity S-wave (km/s) = 3.05216 3.25650 3.15598
# Velocity P-wave (km/s) = 5.93057 6.72827 6.34198
#
# Compressibility (1/GPa) = 0.02482528
#
# Stress axis : x y z
#
# Youngs Moduli (GPa) = 70.81265 35.92770 68.17126
#
# Poissons Ratio (x) = 0.29474 0.46338
# Poissons Ratio (y) = 0.58093 0.06125
# Poissons Ratio (z) = 0.48134 0.03228
#
# Static dielectric constant tensor:
#      x y z
#    x 1.637750 0.000000 0.000000 
#    y 0.000000 1.602200 0.000000 
#    z 0.000000 0.000000 1.580740 
# 
# From -- ./inp_files/70243.got.cif
#   From: 2010.05.17/outbox.cif.g08.bks.cpg/sg74_36_cif.got.tgz:70243.got - 2010.06.03 17:57:02.
