data_PCOD9535713
_publ_section_title
;
Structure prediction by ZEFSAII (Michael W. Deem and Ramdas Pophale) SiO2 
 PCOD9535713
Probable space group: I M M A
;
_chemical_formula_sum "Si O2"
_cell_formula_units_Z 96
_cell_length_a 9.629619
_cell_length_b 30.198339
_cell_length_c 20.171638
_cell_angle_alpha 90.000000
_cell_angle_beta 90.000000
_cell_angle_gamma 90.000000
_cell_volume 5865.882053
_symmetry_space_group_name_H-M "I M M A"
_symmetry_group_IT_number 74
_symmetry_cell_setting 'orthorhombic'
loop_
_space_group_symop_operation_xyz
x,y,z
-x,1/2-y,z
x,-y,-z
-x,1/2+y,-z
-x,-y,-z
x,1/2+y,-z
-x,y,z
x,1/2-y,z
1/2+x,1/2+y,1/2+z
1/2-x,-y,1/2+z
1/2+x,1/2-y,1/2-z
1/2-x,y,1/2-z
1/2-x,1/2-y,1/2-z
1/2+x,y,1/2-z
1/2-x,1/2+y,1/2+z
1/2+x,-y,1/2+z
loop_
_atom_site_type_symbol
_atom_site_label
_atom_site_fract_x
_atom_site_fract_y
_atom_site_fract_z
Si Si1 0.668727 0.542969 0.458912
Si Si2 0.835224 0.516374 0.184804
Si Si3 0.834306 0.697296 0.460979
Si Si4 0.667216 0.129086 0.456413
Si Si5 0.663703 0.410597 0.314776
Si Si6 0.660112 0.803993 0.187937
O O1 0.716897 0.500000 0.500000
O O2 0.500000 0.540789 0.458152
O O3 0.712547 0.540175 0.382492
O O4 0.706432 0.587398 0.497198
O O5 0.750000 0.528880 0.250000
O O6 0.816795 0.463386 0.173462
O O7 0.000000 0.523942 0.194572
O O8 0.812556 0.750000 0.466466
O O9 0.747867 0.670909 0.515095
O O10 0.791852 0.683218 0.385934
O O11 0.000000 0.689421 0.466858
O O12 0.500000 0.134850 0.460195
O O13 0.702160 0.115832 0.381056
O O14 0.500000 0.404040 0.302781
O O15 0.750000 0.398071 0.250000
O O16 0.500000 0.817346 0.195949
O O17 0.662600 0.750000 0.188559
O O18 0.750000 0.819769 0.250000
#
# Coordination Sequence:
#
# PCOD9535713 Si02
#       6
#    16  16  16  16  16  16
#     4   9  15  28  49  70  95 128 160 192 234 285
#     4   9  16  28  47  68  95 131 165 196 233 281
#     4   9  19  35  51  69  98 133 163 198 252 304
#     4  10  19  31  51  77  98 123 166 208 240 283
#     4   9  17  29  47  72  98 124 158 200 240 285
#     4   8  14  26  45  67  89 116 153 194 235 281
#
# _framework density 16.365825999999998
#
# number of rings (size 3 to 8) (size 9 to 14) (size 15 to 20)
#    0.000    3.000    1.667    1.000    0.000    1.667 
#    0.000    3.333    0.000    5.500    0.000    0.000 
#    0.000    0.000    0.000    0.000    0.000    0.000 
#
# Total GULP energy -267389.913266 kJ/mol
# GULP energy per Si atom -5570.623193 kJ/mol
# Density = 1.632858 g / cm^3
# Si number density = 16.365826 Si / 1000 Ang^3
#
#
#
# Elastic Constant Matrix: (Units=GPa)
#
#
# Indices 1 2 3 4 5 6 
#
# 1 33.3397 26.8984 62.5633 0.0000 0.0000 0.0000
# 2 26.8984 40.1015 48.6060 0.0000 0.0000 0.0000
# 3 62.5633 48.6060 170.8491 0.0000 0.0000 0.0000
# 4 0.0000 0.0000 0.0000 25.1931 0.0000 0.0000
# 5 0.0000 0.0000 0.0000 0.0000 31.8634 0.0000
# 6 0.0000 0.0000 0.0000 0.0000 0.0000 9.1942
#
#
#
# Elastic Compliance Matrix: (Units=1/GPa)
#
#
# Indices 1 2 3 4 5 6 
#
# 1 0.137396 -0.047585 -0.036775 0.000000 0.000000 0.000000
# 2 -0.047585 0.054542 0.001908 0.000000 0.000000 0.000000
# 3 -0.036775 0.001908 0.018777 0.000000 0.000000 0.000000
# 4 0.000000 0.000000 0.000000 0.039693 0.000000 0.000000
# 5 0.000000 0.000000 0.000000 0.000000 0.031384 0.000000
# 6 0.000000 0.000000 0.000000 0.000000 0.000000 0.108764
#
#
# Mechanical properties :
#
#
# Convention : Reuss Voigt Hill
#
# Bulk Modulus (GPa) = 21.82896 57.82507 39.82701
# Shear Modulus (GPa) = 8.76070 20.33165 14.54617
#
# Velocity S-wave (km/s) = 2.31617 3.52848 2.98453
# Velocity P-wave (km/s) = 4.52990 7.21178 6.02203
#
# Compressibility (1/GPa) = 0.04581070
#
# Stress axis : x y z
#
# Youngs Moduli (GPa) = 7.27823 18.33453 53.25661
#
# Poissons Ratio (x) = 0.87245 1.95853
# Poissons Ratio (y) = 0.34633 -0.10162
# Poissons Ratio (z) = 0.26766 -0.03499
#
# Static dielectric constant tensor:
#      x y z
#    x 1.538520 0.000000 0.000000 
#    y 0.000000 1.546970 0.000000 
#    z 0.000000 0.000000 1.551410 
# 
# From -- ./inp_files/41477.got.cif
#   From: 2010.05.17/outbox.cif.g08.bks.cpg/sg74_21_cif.got.tgz:41477.got - 2010.06.03 17:57:02.
