data_PCOD9535579
_publ_section_title
;
Structure prediction by ZEFSAII (Michael W. Deem and Ramdas Pophale) SiO2 
 PCOD9535579
Probable space group: I M M A
;
_chemical_formula_sum "Si O2"
_cell_formula_units_Z 88
_cell_length_a 21.794182
_cell_length_b 9.270963
_cell_length_c 25.599971
_cell_angle_alpha 90.000000
_cell_angle_beta 90.000000
_cell_angle_gamma 90.000000
_cell_volume 5172.552347
_symmetry_space_group_name_H-M "I M M A"
_symmetry_group_IT_number 74
_symmetry_cell_setting 'orthorhombic'
loop_
_space_group_symop_operation_xyz
x,y,z
-x,1/2-y,z
x,-y,-z
-x,1/2+y,-z
-x,-y,-z
x,1/2+y,-z
-x,y,z
x,1/2-y,z
1/2+x,1/2+y,1/2+z
1/2-x,-y,1/2+z
1/2+x,1/2-y,1/2-z
1/2-x,y,1/2-z
1/2-x,1/2-y,1/2-z
1/2+x,y,1/2-z
1/2-x,1/2+y,1/2+z
1/2+x,-y,1/2+z
loop_
_atom_site_type_symbol
_atom_site_label
_atom_site_fract_x
_atom_site_fract_y
_atom_site_fract_z
Si Si1 0.296141 0.915846 0.640099
Si Si2 0.000000 0.421136 0.944443
Si Si3 0.366887 0.578506 0.444443
Si Si4 0.323980 0.914822 0.259003
Si Si5 0.572538 0.922756 0.945701
Si Si6 0.350358 0.417796 0.157160
O O1 0.314221 0.750000 0.632097
O O2 0.222620 0.920133 0.646072
O O3 0.315413 0.014027 0.592109
O O4 0.328710 0.981598 0.691179
O O5 0.934259 0.454321 0.919526
O O6 0.000000 0.250000 0.954226
O O7 0.000000 0.500000 0.000000
O O8 0.364615 0.500000 0.500000
O O9 0.360909 0.750000 0.450635
O O10 0.343697 0.750000 0.269000
O O11 0.250000 0.910472 0.250000
O O12 0.356645 0.982405 0.208257
O O13 0.500000 0.953229 0.937067
O O14 0.579476 0.750000 0.952241
O O15 0.611912 0.963912 0.894411
O O16 0.590833 0.000000 0.000000
O O17 0.366857 0.250000 0.168484
#
# Coordination Sequence:
#
# PCOD9535579 Si02
#       6
#    16   8  16  16  16  16
#     4  10  19  31  48  72 101 130 160 199 246 294
#     4   8  16  30  48  66  86 118 156 192 227 270
#     4  10  19  32  49  70  96 126 161 199 240 286
#     4   9  17  30  49  72  95 123 160 198 238 288
#     4   9  18  33  52  73  98 130 167 205 245 293
#     4   9  18  32  50  72  98 128 161 200 247 294
#
# _framework density 17.012879000000002
#
# number of rings (size 3 to 8) (size 9 to 14) (size 15 to 20)
#    0.000    2.727    0.000    1.636    0.000    5.091 
#    0.000    1.818    2.000    0.000    0.000    0.000 
#    0.000    0.000    0.000    0.000    0.000    0.000 
#
# Total GULP energy -244969.537202 kJ/mol
# GULP energy per Si atom -5567.489482 kJ/mol
# Density = 1.697416 g / cm^3
# Si number density = 17.012879 Si / 1000 Ang^3
#
#
#
# Elastic Constant Matrix: (Units=GPa)
#
#
# Indices 1 2 3 4 5 6 
#
# 1 23.2233 23.3908 29.1479 0.0000 0.0000 0.0000
# 2 23.3908 78.7590 44.4824 0.0000 0.0000 0.0000
# 3 29.1479 44.4824 101.8800 0.0000 0.0000 0.0000
# 4 0.0000 0.0000 0.0000 31.6568 0.0000 0.0000
# 5 0.0000 0.0000 0.0000 0.0000 18.9726 0.0000
# 6 0.0000 0.0000 0.0000 0.0000 0.0000 17.2538
#
#
#
# Elastic Compliance Matrix: (Units=1/GPa)
#
#
# Indices 1 2 3 4 5 6 
#
# 1 0.077116 -0.013860 -0.016012 0.000000 0.000000 0.000000
# 2 -0.013860 0.019344 -0.004480 0.000000 0.000000 0.000000
# 3 -0.016012 -0.004480 0.016353 0.000000 0.000000 0.000000
# 4 0.000000 0.000000 0.000000 0.031589 0.000000 0.000000
# 5 0.000000 0.000000 0.000000 0.000000 0.052708 0.000000
# 6 0.000000 0.000000 0.000000 0.000000 0.000000 0.057958
#
#
# Mechanical properties :
#
#
# Convention : Reuss Voigt Hill
#
# Bulk Modulus (GPa) = 22.67107 44.21160 33.44133
# Shear Modulus (GPa) = 14.77217 20.69938 17.73577
#
# Velocity S-wave (km/s) = 2.94988 3.49189 3.23227
# Velocity P-wave (km/s) = 4.99571 6.50394 5.79907
#
# Compressibility (1/GPa) = 0.04410907
#
# Stress axis : x y z
#
# Youngs Moduli (GPa) = 12.96740 51.69627 61.15217
#
# Poissons Ratio (x) = 0.71650 0.97915
# Poissons Ratio (y) = 0.17973 0.27399
# Poissons Ratio (z) = 0.20763 0.23162
#
# Static dielectric constant tensor:
#      x y z
#    x 1.597070 0.000000 0.000000 
#    y 0.000000 1.571140 0.000000 
#    z 0.000000 0.000000 1.569020 
# 
# From -- ./inp_files/68107.got.cif
#   From: 2010.05.17/outbox.cif.g08.bks.cpg/sg74_35_cif.got.tgz:68107.got - 2010.06.03 17:57:02.
