data_PCOD9535617
_publ_section_title
;
Structure prediction by ZEFSAII (Michael W. Deem and Ramdas Pophale) SiO2 
 PCOD9535617
Probable space group: I M M A
;
_chemical_formula_sum "Si O2"
_cell_formula_units_Z 104
_cell_length_a 8.541636
_cell_length_b 29.400382
_cell_length_c 24.875322
_cell_angle_alpha 90.000000
_cell_angle_beta 90.000000
_cell_angle_gamma 90.000000
_cell_volume 6246.873975
_symmetry_space_group_name_H-M "I M M A"
_symmetry_group_IT_number 74
_symmetry_cell_setting 'orthorhombic'
loop_
_space_group_symop_operation_xyz
x,y,z
-x,1/2-y,z
x,-y,-z
-x,1/2+y,-z
-x,-y,-z
x,1/2+y,-z
-x,y,z
x,1/2-y,z
1/2+x,1/2+y,1/2+z
1/2-x,-y,1/2+z
1/2+x,1/2-y,1/2-z
1/2-x,y,1/2-z
1/2-x,1/2-y,1/2-z
1/2+x,y,1/2-z
1/2-x,1/2+y,1/2+z
1/2+x,-y,1/2+z
loop_
_atom_site_type_symbol
_atom_site_label
_atom_site_fract_x
_atom_site_fract_y
_atom_site_fract_z
Si Si1 0.688654 0.697951 0.106015
Si Si2 0.311760 0.196877 0.489345
Si Si3 0.310046 0.162637 0.375109
Si Si4 0.813097 0.750000 0.689324
Si Si5 0.689018 0.926236 0.689051
Si Si6 0.812379 0.378421 0.689117
Si Si7 0.187708 0.973640 0.188845
O O1 0.500000 0.698650 0.107418
O O2 0.744382 0.750000 0.114625
O O3 0.742545 0.662870 0.151479
O O4 0.741110 0.683356 0.046512
O O5 0.500000 0.194471 0.493204
O O6 0.269845 0.250000 0.479918
O O7 0.261262 0.168715 0.437135
O O8 0.500000 0.164314 0.373785
O O9 0.247890 0.205345 0.341408
O O10 0.258513 0.115632 0.347677
O O11 0.750000 0.750000 0.750000
O O12 0.000000 0.750000 0.689992
O O13 0.500000 0.925308 0.691492
O O14 0.750000 0.921014 0.750000
O O15 0.733557 0.976472 0.667300
O O16 0.750000 0.373774 0.750000
O O17 0.756957 0.427110 0.665758
O O18 0.000000 0.378416 0.691378
O O19 0.250000 0.974375 0.250000
O O20 0.000000 0.970210 0.188880
#
# Coordination Sequence:
#
# PCOD9535617 Si02
#       7
#    16  16  16   8  16  16  16
#     4   9  19  34  50  70  98 127 156 194 235 278
#     4   9  17  31  51  71  91 121 161 200 239 280
#     4  10  19  34  51  69  96 126 160 204 247 288
#     4  12  24  34  46  68  98 132 165 200 247 296
#     4   9  18  30  47  69  95 125 157 197 242 287
#     4  10  19  31  49  73  99 128 156 187 234 283
#     4   9  16  28  46  69  94 123 158 193 232 280
#
# _framework density 16.648326000000001
#
# number of rings (size 3 to 8) (size 9 to 14) (size 15 to 20)
#    0.000    2.462    0.769    3.000    0.000    4.615 
#    0.000    0.000    0.000    0.923    0.000    6.462 
#    0.000    0.000    0.000    0.000    0.000    0.000 
#
# Total GULP energy -289796.838354 kJ/mol
# GULP energy per Si atom -5573.016122 kJ/mol
# Density = 1.661043 g / cm^3
# Si number density = 16.648326 Si / 1000 Ang^3
#
#
#
# Elastic Constant Matrix: (Units=GPa)
#
#
# Indices 1 2 3 4 5 6 
#
# 1 22.1597 27.1404 19.7567 0.0000 0.0000 0.0000
# 2 27.1404 152.4878 87.5763 0.0000 0.0000 0.0000
# 3 19.7567 87.5763 104.0696 0.0000 0.0000 0.0000
# 4 0.0000 0.0000 0.0000 7.4151 0.0000 0.0000
# 5 0.0000 0.0000 0.0000 0.0000 21.9119 0.0000
# 6 0.0000 0.0000 0.0000 0.0000 0.0000 16.7985
#
#
#
# Elastic Compliance Matrix: (Units=1/GPa)
#
#
# Indices 1 2 3 4 5 6 
#
# 1 0.058803 -0.007847 -0.004560 0.000000 0.000000 0.000000
# 2 -0.007847 0.013739 -0.010072 0.000000 0.000000 0.000000
# 3 -0.004560 -0.010072 0.018950 0.000000 0.000000 0.000000
# 4 0.000000 0.000000 0.000000 0.134860 0.000000 0.000000
# 5 0.000000 0.000000 0.000000 0.000000 0.045637 0.000000
# 6 0.000000 0.000000 0.000000 0.000000 0.000000 0.059529
#
#
# Mechanical properties :
#
#
# Convention : Reuss Voigt Hill
#
# Bulk Modulus (GPa) = 21.48924 60.85155 41.17040
# Shear Modulus (GPa) = 12.75547 18.84135 15.79841
#
# Velocity S-wave (km/s) = 2.77098 3.36776 3.08384
# Velocity P-wave (km/s) = 4.81389 7.19395 6.12072
#
# Compressibility (1/GPa) = 0.04653491
#
# Stress axis : x y z
#
# Youngs Moduli (GPa) = 17.00580 72.78517 52.76984
#
# Poissons Ratio (x) = 0.57117 0.24061
# Poissons Ratio (y) = 0.13345 0.53149
# Poissons Ratio (z) = 0.07754 0.73308
#
# Static dielectric constant tensor:
#      x y z
#    x 1.583910 0.000000 0.000000 
#    y 0.000000 1.592820 0.000000 
#    z 0.000000 0.000000 1.529450 
# 
# From -- ./inp_files/57839.got.cif
#   From: 2010.05.17/outbox.cif.g08.bks.cpg/sg74_29_cif.got.tgz:57839.got - 2010.06.03 17:57:02.
