data_PCOD9535534
_publ_section_title
;
Structure prediction by ZEFSAII (Michael W. Deem and Ramdas Pophale) SiO2 
 PCOD9535534
Probable space group: I M M A
;
_chemical_formula_sum "Si O2"
_cell_formula_units_Z 80
_cell_length_a 12.040338
_cell_length_b 17.882842
_cell_length_c 26.071308
_cell_angle_alpha 90.000000
_cell_angle_beta 90.000000
_cell_angle_gamma 90.000000
_cell_volume 5613.555729
_symmetry_space_group_name_H-M "I M M A"
_symmetry_group_IT_number 74
_symmetry_cell_setting 'orthorhombic'
loop_
_space_group_symop_operation_xyz
x,y,z
-x,1/2-y,z
x,-y,-z
-x,1/2+y,-z
-x,-y,-z
x,1/2+y,-z
-x,y,z
x,1/2-y,z
1/2+x,1/2+y,1/2+z
1/2-x,-y,1/2+z
1/2+x,1/2-y,1/2-z
1/2-x,y,1/2-z
1/2-x,1/2-y,1/2-z
1/2+x,y,1/2-z
1/2-x,1/2+y,1/2+z
1/2+x,-y,1/2+z
loop_
_atom_site_type_symbol
_atom_site_label
_atom_site_fract_x
_atom_site_fract_y
_atom_site_fract_z
Si Si1 0.767932 0.338083 0.998373
Si Si2 0.500000 0.340372 0.634297
Si Si3 0.267883 0.660599 0.307809
Si Si4 0.632776 0.898165 0.099336
Si Si5 0.500000 0.584291 0.476007
Si Si6 0.626773 0.048704 0.052832
O O1 0.775313 0.250000 0.005094
O O2 0.703237 0.380696 0.043554
O O3 0.699465 0.355703 0.945875
O O4 0.888161 0.375413 0.994429
O O5 0.500000 0.250000 0.619127
O O6 0.389283 0.353981 0.667711
O O7 0.500000 0.396103 0.585308
O O8 0.256472 0.750000 0.306444
O O9 0.250000 0.632265 0.250000
O O10 0.175607 0.630466 0.346642
O O11 0.500000 0.889208 0.091937
O O12 0.659384 0.986465 0.094026
O O13 0.500000 0.500000 0.500000
O O14 0.500000 0.071941 0.060811
O O15 0.630631 0.000000 0.000000
#
# Coordination Sequence:
#
# PCOD9535534 Si02
#       6
#    16   8  16  16   8  16
#     4  11  20  30  45  67  92 120 156 192 229 275
#     4  10  20  36  50  66  96 128 161 199 236 275
#     4  10  21  33  47  66  91 123 158 198 235 271
#     4  10  19  31  47  65  89 121 156 191 227 275
#     4  12  22  32  48  66  92 134 166 189 230 287
#     4   8  16  30  45  63  88 117 149 187 230 273
#
# _framework density 14.251217
#
# number of rings (size 3 to 8) (size 9 to 14) (size 15 to 20)
#    0.000    2.000    2.000    5.100    1.400    2.800 
#    0.000    0.000    0.000    0.000    0.000    0.000 
#    0.000    0.800    0.000    1.200    0.000    0.000 
#
# Total GULP energy -222857.446917 kJ/mol
# GULP energy per Si atom -5571.436173 kJ/mol
# Density = 1.421878 g / cm^3
# Si number density = 14.251217 Si / 1000 Ang^3
#
#
#
# Elastic Constant Matrix: (Units=GPa)
#
#
# Indices 1 2 3 4 5 6 
#
# 1 86.7036 63.2995 28.3487 0.0000 0.0000 0.0000
# 2 63.2995 102.5935 33.5392 0.0000 0.0000 0.0000
# 3 28.3487 33.5392 49.3789 0.0000 0.0000 0.0000
# 4 0.0000 0.0000 0.0000 21.3689 0.0000 0.0000
# 5 0.0000 0.0000 0.0000 0.0000 8.5382 0.0000
# 6 0.0000 0.0000 0.0000 0.0000 0.0000 -16.9019
#
#
#
# Elastic Compliance Matrix: (Units=1/GPa)
#
#
# Indices 1 2 3 4 5 6 
#
# 1 0.021681 -0.011965 -0.004321 0.000000 0.000000 0.000000
# 2 -0.011965 0.019132 -0.006126 0.000000 0.000000 0.000000
# 3 -0.004321 -0.006126 0.026893 0.000000 0.000000 0.000000
# 4 0.000000 0.000000 0.000000 0.046797 0.000000 0.000000
# 5 0.000000 0.000000 0.000000 0.000000 0.117120 0.000000
# 6 0.000000 0.000000 0.000000 0.000000 0.000000 -0.059165
#
#
# Mechanical properties :
#
#
# Convention : Reuss Voigt Hill
#
# Bulk Modulus (GPa) = 43.69917 54.33898 49.01907
# Shear Modulus (GPa) = 22.23121 10.16694 16.19907
#
# Velocity S-wave (km/s) = 3.95391 2.67387 3.37513
# Velocity P-wave (km/s) = 7.18154 6.90977 7.04697
#
# Compressibility (1/GPa) = 0.02288373
#
# Stress axis : x y z
#
# Youngs Moduli (GPa) = 46.12269 52.26847 37.18452
#
# Poissons Ratio (x) = 0.62538 0.16066
# Poissons Ratio (y) = 0.55185 0.22779
# Poissons Ratio (z) = 0.19928 0.32019
#
# Static dielectric constant tensor:
#      x y z
#    x 1.491620 0.000000 0.000000 
#    y 0.000000 1.469860 0.000000 
#    z 0.000000 0.000000 1.472610 
# 
# From -- ./inp_files/58763.got.cif
#   From: 2010.05.17/outbox.cif.g08.bks.cpg/sg74_30_cif.got.tgz:58763.got - 2010.06.03 17:57:02.
