data_PCOD9535155
_publ_section_title
;
Structure prediction by ZEFSAII (Michael W. Deem and Ramdas Pophale) SiO2 
 PCOD9535155
Probable space group: I M M A
;
_chemical_formula_sum "Si O2"
_cell_formula_units_Z 88
_cell_length_a 20.021305
_cell_length_b 13.050799
_cell_length_c 19.984682
_cell_angle_alpha 90.000000
_cell_angle_beta 90.000000
_cell_angle_gamma 90.000000
_cell_volume 5221.878044
_symmetry_space_group_name_H-M "I M M A"
_symmetry_group_IT_number 74
_symmetry_cell_setting 'orthorhombic'
loop_
_space_group_symop_operation_xyz
x,y,z
-x,1/2-y,z
x,-y,-z
-x,1/2+y,-z
-x,-y,-z
x,1/2+y,-z
-x,y,z
x,1/2-y,z
1/2+x,1/2+y,1/2+z
1/2-x,-y,1/2+z
1/2+x,1/2-y,1/2-z
1/2-x,y,1/2-z
1/2-x,1/2-y,1/2-z
1/2+x,y,1/2-z
1/2-x,1/2+y,1/2+z
1/2+x,-y,1/2+z
loop_
_atom_site_type_symbol
_atom_site_label
_atom_site_fract_x
_atom_site_fract_y
_atom_site_fract_z
Si Si1 0.310412 0.976529 0.304568
Si Si2 0.425430 0.560516 0.896921
Si Si3 0.781172 0.031976 0.576958
Si Si4 0.426747 0.750000 0.997682
Si Si5 0.576267 0.630404 0.743693
Si Si6 0.179849 0.250000 0.612807
Si Si7 0.828852 0.750000 0.236049
O O1 0.250000 0.979737 0.250000
O O2 0.274408 0.012528 0.373068
O O3 0.340409 0.859689 0.299785
O O4 0.369155 0.054724 0.286603
O O5 0.500000 0.512040 0.905430
O O6 0.358483 0.494636 0.905331
O O7 0.419845 0.650605 0.951169
O O8 0.423696 0.609877 0.823476
O O9 0.776487 0.150679 0.597337
O O10 0.770749 0.000000 0.500000
O O11 0.500000 0.750000 0.027210
O O12 0.375162 0.750000 0.056165
O O13 0.500000 0.610317 0.720545
O O14 0.591486 0.750000 0.731671
O O15 0.146681 0.250000 0.686532
O O16 0.750000 0.750000 0.250000
#
# Coordination Sequence:
#
# PCOD9535155 Si02
#       7
#    16  16  16   8  16   8   8
#     4  11  20  37  58  82 109 148 192 237 282 331
#     4  10  19  33  51  76 112 154 186 214 261 327
#     4  12  23  35  53  80 111 145 187 233 283 330
#     4  10  20  32  48  72 114 157 184 211 258 325
#     4  10  20  36  58  83 113 146 181 228 287 339
#     4  12  20  34  52  74 105 148 190 229 268 329
#     4  10  18  36  60  73 105 154 191 233 282 313
#
# _framework density 16.852174000000002
#
# number of rings (size 3 to 8) (size 9 to 14) (size 15 to 20)
#    0.000    1.273    8.182    0.000    0.000    1.455 
#    3.273    1.364    0.000    0.545    0.000    0.000 
#    0.000    0.000    0.000    0.000    0.000    0.000 
#
# Total GULP energy -245137.142611 kJ/mol
# GULP energy per Si atom -5571.298696 kJ/mol
# Density = 1.681382 g / cm^3
# Si number density = 16.852174 Si / 1000 Ang^3
#
#
#
# Elastic Constant Matrix: (Units=GPa)
#
#
# Indices 1 2 3 4 5 6 
#
# 1 95.6778 52.9865 52.7417 0.0000 0.0000 0.0000
# 2 52.9865 90.1804 23.4273 0.0000 0.0000 0.0000
# 3 52.7417 23.4273 90.7490 0.0000 0.0000 0.0000
# 4 0.0000 0.0000 0.0000 15.8634 0.0000 0.0000
# 5 0.0000 0.0000 0.0000 0.0000 31.1761 0.0000
# 6 0.0000 0.0000 0.0000 0.0000 0.0000 -136.9331
#
#
#
# Elastic Compliance Matrix: (Units=1/GPa)
#
#
# Indices 1 2 3 4 5 6 
#
# 1 0.021459 -0.010042 -0.009879 0.000000 0.000000 0.000000
# 2 -0.010042 0.016585 0.001555 0.000000 0.000000 0.000000
# 3 -0.009879 0.001555 0.016360 0.000000 0.000000 0.000000
# 4 0.000000 0.000000 0.000000 0.063038 0.000000 0.000000
# 5 0.000000 0.000000 0.000000 0.000000 0.032076 0.000000
# 6 0.000000 0.000000 0.000000 0.000000 0.000000 -0.007303
#
#
# Mechanical properties :
#
#
# Convention : Reuss Voigt Hill
#
# Bulk Modulus (GPa) = 56.59029 59.43537 58.01283
# Shear Modulus (GPa) = 27.05075 -8.14859 9.45108
#
# Velocity S-wave (km/s) = 4.01081 -2.20133 2.37074
# Velocity P-wave (km/s) = 7.42308 5.37439 6.48021
#
# Compressibility (1/GPa) = 0.01767087
#
# Stress axis : x y z
#
# Youngs Moduli (GPa) = 46.60105 60.29451 61.12614
#
# Poissons Ratio (x) = 0.60547 0.60387
# Poissons Ratio (y) = 0.46796 -0.09503
# Poissons Ratio (z) = 0.46038 -0.09373
#
# Static dielectric constant tensor:
#      x y z
#    x 1.591750 0.000000 0.000000 
#    y 0.000000 1.733150 0.000000 
#    z 0.000000 0.000000 1.665100 
# 
# From -- ./inp_files/52910.got.cif
#   From: 2010.05.17/outbox.cif.g08.bks.cpg/sg74_27_cif.got.tgz:52910.got - 2010.06.03 17:57:02.
