data_PCOD9535089
_publ_section_title
;
Structure prediction by ZEFSAII (Michael W. Deem and Ramdas Pophale) SiO2 
 PCOD9535089
Probable space group: I M M A
;
_chemical_formula_sum "Si O2"
_cell_formula_units_Z 104
_cell_length_a 8.722465
_cell_length_b 26.480376
_cell_length_c 20.411278
_cell_angle_alpha 90.000000
_cell_angle_beta 90.000000
_cell_angle_gamma 90.000000
_cell_volume 4714.477645
_symmetry_space_group_name_H-M "I M M A"
_symmetry_group_IT_number 74
_symmetry_cell_setting 'orthorhombic'
loop_
_space_group_symop_operation_xyz
x,y,z
-x,1/2-y,z
x,-y,-z
-x,1/2+y,-z
-x,-y,-z
x,1/2+y,-z
-x,y,z
x,1/2-y,z
1/2+x,1/2+y,1/2+z
1/2-x,-y,1/2+z
1/2+x,1/2-y,1/2-z
1/2-x,y,1/2-z
1/2-x,1/2-y,1/2-z
1/2+x,y,1/2-z
1/2-x,1/2+y,1/2+z
1/2+x,-y,1/2+z
loop_
_atom_site_type_symbol
_atom_site_label
_atom_site_fract_x
_atom_site_fract_y
_atom_site_fract_z
Si Si1 0.683054 0.338342 0.183071
Si Si2 0.681530 0.250000 0.824364
Si Si3 0.823675 0.049346 0.631282
Si Si4 0.820537 0.349652 0.822363
Si Si5 0.314822 0.804976 0.963351
Si Si6 0.320530 0.445284 0.353309
Si Si7 0.821171 0.417448 0.486668
O O1 0.500000 0.338314 0.186882
O O2 0.750000 0.315780 0.250000
O O3 0.725869 0.312412 0.113875
O O4 0.744514 0.395731 0.177631
O O5 0.500000 0.250000 0.820983
O O6 0.750000 0.250000 0.750000
O O7 0.739665 0.301707 0.856187
O O8 0.718281 0.096500 0.648362
O O9 0.820133 0.049875 0.552218
O O10 0.000000 0.058934 0.651183
O O11 0.763065 0.997781 0.662208
O O12 0.750000 0.352155 0.750000
O O13 0.000000 0.340000 0.819373
O O14 0.500000 0.802706 0.967344
O O15 0.255715 0.750000 0.985764
O O16 0.275999 0.858395 0.997596
O O17 0.500000 0.447474 0.338300
O O18 0.289515 0.437768 0.430833
O O19 0.000000 0.417525 0.462211
#
# Coordination Sequence:
#
# PCOD9535089 Si02
#       7
#    16   8  16  16  16  16  16
#     4  10  20  35  55  81 112 148 187 231 278 333
#     4  10  18  34  58  80 104 140 180 216 263 318
#     4  11  22  37  56  83 113 145 186 231 278 335
#     4  11  22  38  58  82 112 145 182 227 277 330
#     4   8  15  31  55  81 111 146 184 225 272 323
#     4  11  22  36  56  80 108 146 186 230 281 334
#     4   9  19  36  57  81 110 146 185 228 276 329
#
# _framework density 22.059708000000001
#
# number of rings (size 3 to 8) (size 9 to 14) (size 15 to 20)
#    0.000    2.000    0.000    6.692    0.000    4.000 
#    1.385    3.077    0.000   11.077    0.000    0.000 
#    0.000    0.000    0.000    0.000    0.000    0.000 
#
# Total GULP energy -290464.535174 kJ/mol
# GULP energy per Si atom -5585.856446 kJ/mol
# Density = 2.200950 g / cm^3
# Si number density = 22.059708 Si / 1000 Ang^3
#
#
#
# Elastic Constant Matrix: (Units=GPa)
#
#
# Indices 1 2 3 4 5 6 
#
# 1 103.3838 14.9389 2.1561 0.0000 0.0000 0.0000
# 2 14.9389 112.8456 -7.5448 0.0000 0.0000 0.0000
# 3 2.1561 -7.5448 26.3964 0.0000 0.0000 0.0000
# 4 0.0000 0.0000 0.0000 8.3313 0.0000 0.0000
# 5 0.0000 0.0000 0.0000 0.0000 18.7334 0.0000
# 6 0.0000 0.0000 0.0000 0.0000 0.0000 26.7649
#
#
#
# Elastic Compliance Matrix: (Units=1/GPa)
#
#
# Indices 1 2 3 4 5 6 
#
# 1 0.009899 -0.001391 -0.001206 0.000000 0.000000 0.000000
# 2 -0.001391 0.009230 0.002752 0.000000 0.000000 0.000000
# 3 -0.001206 0.002752 0.038769 0.000000 0.000000 0.000000
# 4 0.000000 0.000000 0.000000 0.120029 0.000000 0.000000
# 5 0.000000 0.000000 0.000000 0.000000 0.053381 0.000000
# 6 0.000000 0.000000 0.000000 0.000000 0.000000 0.037362
#
#
# Mechanical properties :
#
#
# Convention : Reuss Voigt Hill
#
# Bulk Modulus (GPa) = 17.18016 29.08067 23.13042
# Shear Modulus (GPa) = 17.37543 26.30430 21.83987
#
# Velocity S-wave (km/s) = 2.80956 3.45688 3.14989
# Velocity P-wave (km/s) = 4.28133 5.39858 4.87209
#
# Compressibility (1/GPa) = 0.05820667
#
# Stress axis : x y z
#
# Youngs Moduli (GPa) = 101.02170 108.34470 25.79381
#
# Poissons Ratio (x) = 0.15072 0.03111
# Poissons Ratio (y) = 0.14053 -0.07098
# Poissons Ratio (z) = 0.12185 -0.29814
#
# Static dielectric constant tensor:
#      x y z
#    x 1.734560 0.000000 0.000000 
#    y 0.000000 1.872480 0.000000 
#    z 0.000000 0.000000 1.857560 
# 
# From -- ./inp_files/49239.got.cif
#   From: 2010.05.17/outbox.cif.g08.bks.cpg/sg74_25_cif.got.tgz:49239.got - 2010.06.03 17:57:02.
