data_PCOD9535568
_publ_section_title
;
Structure prediction by ZEFSAII (Michael W. Deem and Ramdas Pophale) SiO2 
 PCOD9535568
Probable space group: I M M A
;
_chemical_formula_sum "Si O2"
_cell_formula_units_Z 104
_cell_length_a 26.179287
_cell_length_b 7.962574
_cell_length_c 21.494882
_cell_angle_alpha 90.000000
_cell_angle_beta 90.000000
_cell_angle_gamma 90.000000
_cell_volume 4480.705095
_symmetry_space_group_name_H-M "I M M A"
_symmetry_group_IT_number 74
_symmetry_cell_setting 'orthorhombic'
loop_
_space_group_symop_operation_xyz
x,y,z
-x,1/2-y,z
x,-y,-z
-x,1/2+y,-z
-x,-y,-z
x,1/2+y,-z
-x,y,z
x,1/2-y,z
1/2+x,1/2+y,1/2+z
1/2-x,-y,1/2+z
1/2+x,1/2-y,1/2-z
1/2-x,y,1/2-z
1/2-x,1/2-y,1/2-z
1/2+x,y,1/2-z
1/2-x,1/2+y,1/2+z
1/2+x,-y,1/2+z
loop_
_atom_site_type_symbol
_atom_site_label
_atom_site_fract_x
_atom_site_fract_y
_atom_site_fract_z
Si Si1 0.174336 0.950597 0.566610
Si Si2 0.910873 0.452932 0.659441
Si Si3 0.087787 0.057026 0.793973
Si Si4 0.199478 0.559480 0.779102
Si Si5 0.097783 0.945366 0.067706
Si Si6 0.000000 0.952099 0.428957
Si Si7 0.212847 0.061834 0.076269
O O1 0.178450 0.750000 0.569138
O O2 0.232380 0.020958 0.563523
O O3 0.149437 0.000000 0.500000
O O4 0.143868 0.004844 0.628421
O O5 0.912764 0.250000 0.664260
O O6 0.929033 0.518521 0.727506
O O7 0.950538 0.513516 0.607777
O O8 0.069846 0.250000 0.797080
O O9 0.080840 0.981111 0.863962
O O10 0.148605 0.049016 0.780015
O O11 0.190153 0.750000 0.753011
O O12 0.250000 0.483401 0.750000
O O13 0.213195 0.581503 0.850382
O O14 0.087089 0.750000 0.072469
O O15 0.159091 0.972240 0.064121
O O16 0.076828 0.000000 0.000000
O O17 0.000000 0.750000 0.425109
O O18 0.000000 0.000000 0.500000
O O19 0.209837 0.250000 0.048004
#
# Coordination Sequence:
#
# PCOD9535568 Si02
#       7
#    16  16  16  16  16   8  16
#     4  11  22  34  49  71  99 133 172 212 254 298
#     4  10  21  38  57  77 101 128 161 204 253 305
#     4   9  19  33  49  71  98 127 162 204 247 292
#     4   9  16  27  43  64  93 128 165 205 247 290
#     4  10  19  31  48  71 100 135 173 210 247 288
#     4  10  22  40  62  84 105 130 160 198 247 302
#     4   9  18  30  44  65  95 132 173 213 249 287
#
# _framework density 23.210632
#
# number of rings (size 3 to 8) (size 9 to 14) (size 15 to 20)
#    0.000    2.308    0.000    2.769    0.000    7.077 
#    0.000    3.077    0.000    0.000    0.000    0.538 
#    0.000    0.000    0.000    0.000    0.000    0.000 
#
# Total GULP energy -289586.484093 kJ/mol
# GULP energy per Si atom -5568.970848 kJ/mol
# Density = 2.315780 g / cm^3
# Si number density = 23.210632 Si / 1000 Ang^3
#
#
#
# Elastic Constant Matrix: (Units=GPa)
#
#
# Indices 1 2 3 4 5 6 
#
# 1 18.6693 -5.3174 12.9506 0.0000 0.0000 0.0000
# 2 -5.3174 30.8635 11.9199 0.0000 0.0000 0.0000
# 3 12.9506 11.9199 202.6913 0.0000 0.0000 0.0000
# 4 0.0000 0.0000 0.0000 24.2483 0.0000 0.0000
# 5 0.0000 0.0000 0.0000 0.0000 33.5819 0.0000
# 6 0.0000 0.0000 0.0000 0.0000 0.0000 0.2072
#
#
#
# Elastic Compliance Matrix: (Units=1/GPa)
#
#
# Indices 1 2 3 4 5 6 
#
# 1 0.060180 0.012129 -0.004558 0.000000 0.000000 0.000000
# 2 0.012129 0.035598 -0.002868 0.000000 0.000000 0.000000
# 3 -0.004558 -0.002868 0.005394 0.000000 0.000000 0.000000
# 4 0.000000 0.000000 0.000000 0.041240 0.000000 0.000000
# 5 0.000000 0.000000 0.000000 0.000000 0.029778 0.000000
# 6 0.000000 0.000000 0.000000 0.000000 0.000000 4.826359
#
#
# Mechanical properties :
#
#
# Convention : Reuss Voigt Hill
#
# Bulk Modulus (GPa) = 9.04354 32.37005 20.70680
# Shear Modulus (GPa) = 0.99483 27.11889 14.05686
#
# Velocity S-wave (km/s) = 0.65539 3.42187 2.46361
# Velocity P-wave (km/s) = 2.11600 5.43955 4.12712
#
# Compressibility (1/GPa) = 0.11057616
#
# Stress axis : x y z
#
# Youngs Moduli (GPa) = 16.61670 28.09130 185.40666
#
# Poissons Ratio (x) = -0.34071 0.84516
# Poissons Ratio (y) = -0.20154 0.53182
# Poissons Ratio (z) = 0.07575 0.08058
#
# Static dielectric constant tensor:
#      x y z
#    x 1.916160 0.000000 0.000000 
#    y 0.000000 1.870770 0.000000 
#    z 0.000000 0.000000 1.981320 
# 
# From -- ./inp_files/62684.got.cif
#   From: 2010.05.17/outbox.cif.g08.bks.cpg/sg74_32_cif.got.tgz:62684.got - 2010.06.03 17:57:02.
