data_PCOD9535720
_publ_section_title
;
Structure prediction by ZEFSAII (Michael W. Deem and Ramdas Pophale) SiO2 
 PCOD9535720
Probable space group: I M M A
;
_chemical_formula_sum "Si O2"
_cell_formula_units_Z 64
_cell_length_a 23.751604
_cell_length_b 19.163849
_cell_length_c 5.549690
_cell_angle_alpha 90.000000
_cell_angle_beta 90.000000
_cell_angle_gamma 90.000000
_cell_volume 2526.064343
_symmetry_space_group_name_H-M "I M M A"
_symmetry_group_IT_number 74
_symmetry_cell_setting 'orthorhombic'
loop_
_space_group_symop_operation_xyz
x,y,z
-x,1/2-y,z
x,-y,-z
-x,1/2+y,-z
-x,-y,-z
x,1/2+y,-z
-x,y,z
x,1/2-y,z
1/2+x,1/2+y,1/2+z
1/2-x,-y,1/2+z
1/2+x,1/2-y,1/2-z
1/2-x,y,1/2-z
1/2-x,1/2-y,1/2-z
1/2+x,y,1/2-z
1/2-x,1/2+y,1/2+z
1/2+x,-y,1/2+z
loop_
_atom_site_type_symbol
_atom_site_label
_atom_site_fract_x
_atom_site_fract_y
_atom_site_fract_z
Si Si1 0.229023 0.830242 0.994830
Si Si2 0.436442 0.130694 0.836378
Si Si3 0.851546 0.001561 0.749936
Si Si4 0.897839 0.350985 0.157630
O O1 0.251505 0.750000 0.996711
O O2 0.250000 0.860090 0.250000
O O3 0.250000 0.865619 0.750000
O O4 0.162697 0.827974 0.946448
O O5 0.500000 0.107097 0.892004
O O6 0.436943 0.165216 0.570271
O O7 0.392432 0.067791 0.787608
O O8 0.414817 0.172576 0.072680
O O9 0.891399 0.934050 0.788815
O O10 0.819044 0.000000 0.500000
O O11 0.818472 0.000000 0.000000
#
# Coordination Sequence:
#
# PCOD9535720 Si02
#       4
#    16  16  16  16
#     4  10  21  38  60  81  99 129 179 235 287 331
#     4  10  19  31  51  79 111 146 179 208 248 311
#     4   8  16  27  44  70 103 135 169 205 244 292
#     4  10  19  32  52  77 106 136 174 222 266 310
#
# _framework density 25.335854000000001
#
# number of rings (size 3 to 8) (size 9 to 14) (size 15 to 20)
#    0.000    2.500    0.000    2.250    0.000    9.000 
#    0.000    0.000    0.000   31.500    0.000    0.000 
#    0.000    0.000    0.000    0.000    0.000    0.000 
#
# Total GULP energy -178190.317353 kJ/mol
# GULP energy per Si atom -5568.447417 kJ/mol
# Density = 2.527819 g / cm^3
# Si number density = 25.335854 Si / 1000 Ang^3
#
#
#
# Elastic Constant Matrix: (Units=GPa)
#
#
# Indices 1 2 3 4 5 6 
#
# 1 114.7042 0.6536 62.3255 0.0000 0.0000 0.0000
# 2 0.6536 95.2001 27.5944 0.0000 0.0000 0.0000
# 3 62.3255 27.5944 372.4225 0.0000 0.0000 0.0000
# 4 0.0000 0.0000 0.0000 -78.8535 0.0000 0.0000
# 5 0.0000 0.0000 0.0000 0.0000 36.4001 0.0000
# 6 0.0000 0.0000 0.0000 0.0000 0.0000 47.9936
#
#
#
# Elastic Compliance Matrix: (Units=1/GPa)
#
#
# Indices 1 2 3 4 5 6 
#
# 1 0.009606 0.000409 -0.001638 0.000000 0.000000 0.000000
# 2 0.000409 0.010752 -0.000865 0.000000 0.000000 0.000000
# 3 -0.001638 -0.000865 0.003023 0.000000 0.000000 0.000000
# 4 0.000000 0.000000 0.000000 -0.012682 0.000000 0.000000
# 5 0.000000 0.000000 0.000000 0.000000 0.027472 0.000000
# 6 0.000000 0.000000 0.000000 0.000000 0.000000 0.020836
#
#
# Mechanical properties :
#
#
# Convention : Reuss Voigt Hill
#
# Bulk Modulus (GPa) = 52.10259 84.83040 68.46650
# Shear Modulus (GPa) = 71.84546 33.89158 52.86852
#
# Velocity S-wave (km/s) = 5.33093 3.66142 4.57301
# Velocity P-wave (km/s) = 7.64860 7.17145 7.41386
#
# Compressibility (1/GPa) = 0.01919290
#
# Stress axis : x y z
#
# Youngs Moduli (GPa) = 104.10518 93.00475 330.76325
#
# Poissons Ratio (x) = -0.03802 0.54173
# Poissons Ratio (y) = -0.04256 0.28614
# Poissons Ratio (z) = 0.17050 0.08046
#
# Static dielectric constant tensor:
#      x y z
#    x 1.994270 0.000000 0.000000 
#    y 0.000000 2.170520 0.000000 
#    z 0.000000 0.000000 2.180290 
# 
# From -- ./inp_files/3695.got.cif
#   From: 2010.05.17/outbox.cif.g08.bks.cpg/sg74_2_cif.got.tgz:3695.got - 2010.06.03 17:57:02.
