data_PCOD9535999
_publ_section_title
;
Structure prediction by ZEFSAII (Michael W. Deem and Ramdas Pophale) SiO2 
 PCOD9535999
Probable space group: I M M A
;
_chemical_formula_sum "Si O2"
_cell_formula_units_Z 116
_cell_length_a 31.679724
_cell_length_b 7.581641
_cell_length_c 22.095714
_cell_angle_alpha 90.000000
_cell_angle_beta 90.000000
_cell_angle_gamma 90.000000
_cell_volume 5307.043475
_symmetry_space_group_name_H-M "I M M A"
_symmetry_group_IT_number 74
_symmetry_cell_setting 'orthorhombic'
loop_
_space_group_symop_operation_xyz
x,y,z
-x,1/2-y,z
x,-y,-z
-x,1/2+y,-z
-x,-y,-z
x,1/2+y,-z
-x,y,z
x,1/2-y,z
1/2+x,1/2+y,1/2+z
1/2-x,-y,1/2+z
1/2+x,1/2-y,1/2-z
1/2-x,y,1/2-z
1/2-x,1/2-y,1/2-z
1/2+x,y,1/2-z
1/2-x,1/2+y,1/2+z
1/2+x,-y,1/2+z
loop_
_atom_site_type_symbol
_atom_site_label
_atom_site_fract_x
_atom_site_fract_y
_atom_site_fract_z
Si Si1 0.939627 0.952456 0.930542
Si Si2 0.171385 0.966388 0.376142
Si Si3 0.546306 0.954981 0.804973
Si Si4 0.916078 0.959547 0.431615
Si Si5 0.149900 0.535005 0.117079
Si Si6 0.500000 0.750000 0.383070
Si Si7 0.259395 0.961041 0.429450
Si Si8 0.634186 0.546749 0.248454
O O1 0.951261 0.750000 0.918415
O O2 0.889431 0.971308 0.922219
O O3 0.963328 0.094030 0.888948
O O4 0.950689 0.000000 0.000000
O O5 0.171428 0.750000 0.376169
O O6 0.132305 0.019641 0.419340
O O7 0.217050 0.028194 0.397147
O O8 0.159061 0.029239 0.308985
O O9 0.500000 0.030067 0.792007
O O10 0.546574 0.750000 0.787951
O O11 0.555969 0.966251 0.876846
O O12 0.585120 0.041500 0.770193
O O13 0.917152 0.750000 0.423568
O O14 0.929150 0.000000 0.500000
O O15 0.148978 0.750000 0.115307
O O16 0.195627 0.474016 0.094645
O O17 0.142196 0.471364 0.185700
O O18 0.259611 0.750000 0.420723
O O19 0.255930 0.000000 0.500000
O O20 0.647682 0.750000 0.252343
#
# Coordination Sequence:
#
# PCOD9535999 Si02
#       8
#    16  16  16  16  16   4  16  16
#     4  12  24  40  66  91 125 163 200 258 313 369
#     4   8  16  32  54  85 112 148 194 240 287 350
#     4  10  21  37  55  76 106 142 186 236 289 350
#     4  10  19  32  53  80 113 146 186 233 287 344
#     4  10  21  39  57  85 120 161 201 245 298 361
#     4  12  24  44  66  94 128 152 214 250 320 376
#     4  10  20  34  57  84 119 154 195 239 292 355
#     4   9  19  37  60  80 112 150 193 245 299 350
#
# _framework density 21.857742999999999
#
# number of rings (size 3 to 8) (size 9 to 14) (size 15 to 20)
#    0.000    2.069    1.379    2.897    0.000    4.138 
#    1.241    5.517    0.000    0.000    0.000    5.793 
#    0.000    0.000    0.000    0.000    0.000    0.000 
#
# Total GULP energy -323562.581609 kJ/mol
# GULP energy per Si atom -5578.665200 kJ/mol
# Density = 2.180799 g / cm^3
# Si number density = 21.857743 Si / 1000 Ang^3
#
#
#
# Elastic Constant Matrix: (Units=GPa)
#
#
# Indices 1 2 3 4 5 6 
#
# 1 151.3124 1.0496 40.9351 0.0000 0.0000 0.0000
# 2 1.0496 93.5865 -3.6011 0.0000 0.0000 0.0000
# 3 40.9351 -3.6011 70.6995 0.0000 0.0000 0.0000
# 4 0.0000 0.0000 0.0000 10.7518 0.0000 0.0000
# 5 0.0000 0.0000 0.0000 0.0000 -9.7027 0.0000
# 6 0.0000 0.0000 0.0000 0.0000 0.0000 90.2268
#
#
#
# Elastic Compliance Matrix: (Units=1/GPa)
#
#
# Indices 1 2 3 4 5 6 
#
# 1 0.007843 -0.000263 -0.004554 0.000000 0.000000 0.000000
# 2 -0.000263 0.010715 0.000698 0.000000 0.000000 0.000000
# 3 -0.004554 0.000698 0.016817 0.000000 0.000000 0.000000
# 4 0.000000 0.000000 0.000000 0.093008 0.000000 0.000000
# 5 0.000000 0.000000 0.000000 0.000000 -0.103064 0.000000
# 6 0.000000 0.000000 0.000000 0.000000 0.000000 0.011083
#
#
# Mechanical properties :
#
#
# Convention : Reuss Voigt Hill
#
# Bulk Modulus (GPa) = 36.85143 43.59618 40.22380
# Shear Modulus (GPa) = 93.13425 36.73617 64.93521
#
# Velocity S-wave (km/s) = 6.53466 4.10407 5.45643
# Velocity P-wave (km/s) = 8.59255 6.51511 7.62491
#
# Compressibility (1/GPa) = 0.02713599
#
# Stress axis : x y z
#
# Youngs Moduli (GPa) = 127.50568 93.32606 59.46385
#
# Poissons Ratio (x) = 0.02456 0.27082
# Poissons Ratio (y) = 0.03356 -0.04152
# Poissons Ratio (z) = 0.58071 -0.06516
#
# Static dielectric constant tensor:
#      x y z
#    x 1.786410 0.000000 0.000000 
#    y 0.000000 1.819990 0.000000 
#    z 0.000000 0.000000 1.794740 
# 
# From -- ./inp_files/62440.got.cif
#   From: 2010.05.17/outbox.cif.g08.bks.cpg/sg74_32_cif.got.tgz:62440.got - 2010.06.03 17:57:02.
