data_PCOD9535075
_publ_section_title
;
Structure prediction by ZEFSAII (Michael W. Deem and Ramdas Pophale) SiO2 
 PCOD9535075
Probable space group: I M M A
;
_chemical_formula_sum "Si O2"
_cell_formula_units_Z 68
_cell_length_a 7.826897
_cell_length_b 19.302273
_cell_length_c 19.267199
_cell_angle_alpha 90.000000
_cell_angle_beta 90.000000
_cell_angle_gamma 90.000000
_cell_volume 2910.828747
_symmetry_space_group_name_H-M "I M M A"
_symmetry_group_IT_number 74
_symmetry_cell_setting 'orthorhombic'
loop_
_space_group_symop_operation_xyz
x,y,z
-x,1/2-y,z
x,-y,-z
-x,1/2+y,-z
-x,-y,-z
x,1/2+y,-z
-x,y,z
x,1/2-y,z
1/2+x,1/2+y,1/2+z
1/2-x,-y,1/2+z
1/2+x,1/2-y,1/2-z
1/2-x,y,1/2-z
1/2-x,1/2-y,1/2-z
1/2+x,y,1/2-z
1/2-x,1/2+y,1/2+z
1/2+x,-y,1/2+z
loop_
_atom_site_type_symbol
_atom_site_label
_atom_site_fract_x
_atom_site_fract_y
_atom_site_fract_z
Si Si1 0.805459 0.513532 0.423966
Si Si2 0.304436 0.250000 0.507370
Si Si3 0.804913 0.598001 0.826438
Si Si4 0.803464 0.347468 0.863528
Si Si5 0.500000 0.750000 0.187618
Si Si6 0.692532 0.250000 0.144032
O O1 0.727961 0.500000 0.500000
O O2 0.803896 0.441346 0.383679
O O3 0.716886 0.571029 0.375776
O O4 0.000000 0.538481 0.434400
O O5 0.500000 0.250000 0.482549
O O6 0.280821 0.185509 0.559133
O O7 0.191752 0.250000 0.439694
O O8 0.750000 0.575828 0.750000
O O9 0.782160 0.680054 0.832439
O O10 0.000000 0.579458 0.839321
O O11 0.653649 0.310434 0.820286
O O12 0.000000 0.330647 0.840987
O O13 0.500000 0.250000 0.171336
#
# Coordination Sequence:
#
# PCOD9535075 Si02
#       6
#    16   8  16  16   4   8
#     4  11  23  40  64  95 132 172 216 274 334 395
#     4   9  19  33  54  87 127 166 213 262 320 384
#     4  12  26  45  66  90 128 172 225 273 328 395
#     4  10  20  34  56  87 126 168 215 263 329 391
#     4  10  18  34  54  82 122 162 198 262 314 394
#     4  12  24  38  61  89 123 170 219 270 320 384
#
# _framework density 23.361044
#
# number of rings (size 3 to 8) (size 9 to 14) (size 15 to 20)
#    0.000    1.176    1.176    6.706    3.294    5.647 
#    0.000    0.000    0.000    0.000    0.000    3.294 
#    3.529    0.000    0.000    0.000    0.000    0.000 
#
# Total GULP energy -189689.452622 kJ/mol
# GULP energy per Si atom -5579.101548 kJ/mol
# Density = 2.330787 g / cm^3
# Si number density = 23.361044 Si / 1000 Ang^3
#
#
#
# Elastic Constant Matrix: (Units=GPa)
#
#
# Indices 1 2 3 4 5 6 
#
# 1 152.5201 12.3758 14.1531 0.0000 0.0000 0.0000
# 2 12.3758 114.0329 10.5954 0.0000 0.0000 0.0000
# 3 14.1531 10.5954 91.0564 0.0000 0.0000 0.0000
# 4 0.0000 0.0000 0.0000 26.7840 0.0000 0.0000
# 5 0.0000 0.0000 0.0000 0.0000 25.5603 0.0000
# 6 0.0000 0.0000 0.0000 0.0000 0.0000 30.3246
#
#
#
# Elastic Compliance Matrix: (Units=1/GPa)
#
#
# Indices 1 2 3 4 5 6 
#
# 1 0.006698 -0.000637 -0.000967 0.000000 0.000000 0.000000
# 2 -0.000637 0.008926 -0.000940 0.000000 0.000000 0.000000
# 3 -0.000967 -0.000940 0.011242 0.000000 0.000000 0.000000
# 4 0.000000 0.000000 0.000000 0.037336 0.000000 0.000000
# 5 0.000000 0.000000 0.000000 0.000000 0.039123 0.000000
# 6 0.000000 0.000000 0.000000 0.000000 0.000000 0.032977
#
#
# Mechanical properties :
#
#
# Convention : Reuss Voigt Hill
#
# Bulk Modulus (GPa) = 45.91709 47.98421 46.95065
# Shear Modulus (GPa) = 33.63658 37.89946 35.76802
#
# Velocity S-wave (km/s) = 3.79866 4.03219 3.91717
# Velocity P-wave (km/s) = 6.24002 6.50100 6.37185
#
# Compressibility (1/GPa) = 0.02177838
#
# Stress axis : x y z
#
# Youngs Moduli (GPa) = 149.29983 112.03424 88.95354
#
# Poissons Ratio (x) = 0.07137 0.08601
# Poissons Ratio (y) = 0.09511 0.08358
# Poissons Ratio (z) = 0.14436 0.10527
#
# Static dielectric constant tensor:
#      x y z
#    x 1.850210 0.000000 0.000000 
#    y 0.000000 1.922440 0.000000 
#    z 0.000000 0.000000 1.905030 
# 
# From -- ./inp_files/48179.got.cif
#   From: 2010.05.17/outbox.cif.g08.bks.cpg/sg74_25_cif.got.tgz:48179.got - 2010.06.03 17:57:02.
