data_PCOD9535489
_publ_section_title
;
Structure prediction by ZEFSAII (Michael W. Deem and Ramdas Pophale) SiO2 
 PCOD9535489
Probable space group: I M M A
;
_chemical_formula_sum "Si O2"
_cell_formula_units_Z 88
_cell_length_a 9.858425
_cell_length_b 22.444547
_cell_length_c 21.291029
_cell_angle_alpha 90.000000
_cell_angle_beta 90.000000
_cell_angle_gamma 90.000000
_cell_volume 4711.020919
_symmetry_space_group_name_H-M "I M M A"
_symmetry_group_IT_number 74
_symmetry_cell_setting 'orthorhombic'
loop_
_space_group_symop_operation_xyz
x,y,z
-x,1/2-y,z
x,-y,-z
-x,1/2+y,-z
-x,-y,-z
x,1/2+y,-z
-x,y,z
x,1/2-y,z
1/2+x,1/2+y,1/2+z
1/2-x,-y,1/2+z
1/2+x,1/2-y,1/2-z
1/2-x,y,1/2-z
1/2-x,1/2-y,1/2-z
1/2+x,y,1/2-z
1/2-x,1/2+y,1/2+z
1/2+x,-y,1/2+z
loop_
_atom_site_type_symbol
_atom_site_label
_atom_site_fract_x
_atom_site_fract_y
_atom_site_fract_z
Si Si1 0.838565 0.750000 0.313242
Si Si2 0.847602 0.179037 0.028596
Si Si3 0.342060 0.145803 0.913332
Si Si4 0.660081 0.992370 0.071001
Si Si5 0.657393 0.556644 0.805895
Si Si6 0.346579 0.817447 0.854683
O O1 0.750000 0.750000 0.250000
O O2 0.811382 0.691156 0.356218
O O3 0.000000 0.750000 0.298610
O O4 0.858219 0.250000 0.021313
O O5 0.764073 0.170190 0.092254
O O6 0.000000 0.153878 0.030112
O O7 0.757943 0.157625 0.970743
O O8 0.500000 0.157462 0.930927
O O9 0.329932 0.074959 0.903056
O O10 0.500000 0.007299 0.065059
O O11 0.710949 0.035026 0.126227
O O12 0.716766 0.000000 0.000000
O O13 0.500000 0.537607 0.799302
O O14 0.750000 0.533580 0.750000
O O15 0.658725 0.628474 0.806497
O O16 0.500000 0.819657 0.882494
O O17 0.327608 0.750000 0.830222
#
# Coordination Sequence:
#
# PCOD9535489 Si02
#       6
#     8  16  16  16  16  16
#     4  10  22  36  52  76 106 142 185 232 277 332
#     4  10  19  30  49  80 113 138 166 215 277 326
#     4  10  19  34  55  77 103 141 184 223 272 336
#     4   9  18  34  58  83 107 141 187 233 274 327
#     4  10  21  37  56  80 110 145 185 229 277 329
#     4   9  18  33  54  78 105 142 184 221 259 315
#
# _framework density 18.679603
#
# number of rings (size 3 to 8) (size 9 to 14) (size 15 to 20)
#    0.000    2.364    0.909    1.636    0.000    6.182 
#    0.000    0.909    0.000    2.182    0.000    0.000 
#    0.000    0.000    0.000    0.000    0.000    0.000 
#
# Total GULP energy -245091.819534 kJ/mol
# GULP energy per Si atom -5570.268626 kJ/mol
# Density = 1.863709 g / cm^3
# Si number density = 18.679603 Si / 1000 Ang^3
#
#
#
# Elastic Constant Matrix: (Units=GPa)
#
#
# Indices 1 2 3 4 5 6 
#
# 1 67.2773 24.8930 24.1769 0.0000 0.0000 0.0000
# 2 24.8930 56.7032 40.3749 0.0000 0.0000 0.0000
# 3 24.1769 40.3749 71.3795 0.0000 0.0000 0.0000
# 4 0.0000 0.0000 0.0000 15.0201 0.0000 0.0000
# 5 0.0000 0.0000 0.0000 0.0000 27.0451 0.0000
# 6 0.0000 0.0000 0.0000 0.0000 0.0000 6.9410
#
#
#
# Elastic Compliance Matrix: (Units=1/GPa)
#
#
# Indices 1 2 3 4 5 6 
#
# 1 0.018059 -0.005982 -0.002733 0.000000 0.000000 0.000000
# 2 -0.005982 0.031510 -0.015797 0.000000 0.000000 0.000000
# 3 -0.002733 -0.015797 0.023871 0.000000 0.000000 0.000000
# 4 0.000000 0.000000 0.000000 0.066577 0.000000 0.000000
# 5 0.000000 0.000000 0.000000 0.000000 0.036975 0.000000
# 6 0.000000 0.000000 0.000000 0.000000 0.000000 0.144071
#
#
# Mechanical properties :
#
#
# Convention : Reuss Voigt Hill
#
# Bulk Modulus (GPa) = 40.95745 41.58330 41.27038
# Shear Modulus (GPa) = 13.21956 16.86225 15.04090
#
# Velocity S-wave (km/s) = 2.66315 3.00777 2.84069
# Velocity P-wave (km/s) = 5.60628 5.86276 5.73595
#
# Compressibility (1/GPa) = 0.02441558
#
# Stress axis : x y z
#
# Youngs Moduli (GPa) = 55.37259 31.73597 41.89216
#
# Poissons Ratio (x) = 0.18985 0.11450
# Poissons Ratio (y) = 0.33124 0.66177
# Poissons Ratio (z) = 0.15135 0.50134
#
# Static dielectric constant tensor:
#      x y z
#    x 1.658900 0.000000 0.000000 
#    y 0.000000 1.687080 0.000000 
#    z 0.000000 0.000000 1.632160 
# 
# From -- ./inp_files/48768.got.cif
#   From: 2010.05.17/outbox.cif.g08.bks.cpg/sg74_25_cif.got.tgz:48768.got - 2010.06.03 17:57:02.
