data_PCOD9535411
_publ_section_title
;
Structure prediction by ZEFSAII (Michael W. Deem and Ramdas Pophale) SiO2 
 PCOD9535411
Probable space group: I M M A
;
_chemical_formula_sum "Si O2"
_cell_formula_units_Z 96
_cell_length_a 14.798666
_cell_length_b 19.710188
_cell_length_c 20.674399
_cell_angle_alpha 90.000000
_cell_angle_beta 90.000000
_cell_angle_gamma 90.000000
_cell_volume 6030.401508
_symmetry_space_group_name_H-M "I M M A"
_symmetry_group_IT_number 74
_symmetry_cell_setting 'orthorhombic'
loop_
_space_group_symop_operation_xyz
x,y,z
-x,1/2-y,z
x,-y,-z
-x,1/2+y,-z
-x,-y,-z
x,1/2+y,-z
-x,y,z
x,1/2-y,z
1/2+x,1/2+y,1/2+z
1/2-x,-y,1/2+z
1/2+x,1/2-y,1/2-z
1/2-x,y,1/2-z
1/2-x,1/2-y,1/2-z
1/2+x,y,1/2-z
1/2-x,1/2+y,1/2+z
1/2+x,-y,1/2+z
loop_
_atom_site_type_symbol
_atom_site_label
_atom_site_fract_x
_atom_site_fract_y
_atom_site_fract_z
Si Si1 0.000000 0.825559 0.076572
Si Si2 0.801343 0.826881 0.378088
Si Si3 0.500000 0.475006 0.626949
Si Si4 0.314503 0.033946 0.430514
Si Si5 0.000000 0.323816 0.666371
Si Si6 0.000000 0.535849 0.276431
Si Si7 0.202175 0.530114 0.317439
Si Si8 0.684498 0.826342 0.505224
O O1 0.000000 0.893256 0.119196
O O2 0.000000 0.750000 0.107774
O O3 0.088741 0.829558 0.031976
O O4 0.774123 0.750000 0.356999
O O5 0.775494 0.890391 0.333066
O O6 0.758579 0.837296 0.448620
O O7 0.910070 0.829038 0.376552
O O8 0.588456 0.506020 0.593196
O O9 0.500000 0.489640 0.703191
O O10 0.313694 0.114199 0.442869
O O11 0.295156 0.000000 0.500000
O O12 0.243440 0.011219 0.376727
O O13 0.000000 0.250000 0.697827
O O14 0.000000 0.382211 0.719390
O O15 0.094838 0.517928 0.310308
O O16 0.250000 0.512619 0.250000
O O17 0.695792 0.750000 0.531007
#
# Coordination Sequence:
#
# PCOD9535411 Si02
#       8
#     8  16   8  16   8   8  16  16
#     4  10  19  30  46  77 118 145 173 219 263 318
#     4   9  17  31  50  74 107 145 180 216 257 314
#     4  12  20  33  54  82 112 148 183 222 266 331
#     4  12  21  35  58  82 107 143 186 225 273 319
#     4   8  16  31  49  69 105 149 186 210 245 311
#     4  10  22  35  50  78 111 146 183 217 270 317
#     4  11  21  36  53  78 111 145 184 222 266 322
#     4  10  20  34  52  79 110 138 176 223 275 324
#
# _framework density 15.919339000000001
#
# number of rings (size 3 to 8) (size 9 to 14) (size 15 to 20)
#    0.000    1.667    5.000    0.750    0.000    0.667 
#    0.000    1.250    0.000    0.500    0.000    0.000 
#    0.000    0.000    0.000    0.000    0.000    0.000 
#
# Total GULP energy -267533.132039 kJ/mol
# GULP energy per Si atom -5573.606917 kJ/mol
# Density = 1.588311 g / cm^3
# Si number density = 15.919339 Si / 1000 Ang^3
#
#
#
# Elastic Constant Matrix: (Units=GPa)
#
#
# Indices 1 2 3 4 5 6 
#
# 1 68.5292 33.7988 49.4914 0.0000 0.0000 0.0000
# 2 33.7988 92.8718 51.1762 0.0000 0.0000 0.0000
# 3 49.4914 51.1762 94.9950 0.0000 0.0000 0.0000
# 4 0.0000 0.0000 0.0000 17.5002 0.0000 0.0000
# 5 0.0000 0.0000 0.0000 0.0000 13.4793 0.0000
# 6 0.0000 0.0000 0.0000 0.0000 0.0000 12.0777
#
#
#
# Elastic Compliance Matrix: (Units=1/GPa)
#
#
# Indices 1 2 3 4 5 6 
#
# 1 0.023829 -0.002604 -0.011012 0.000000 0.000000 0.000000
# 2 -0.002604 0.015598 -0.007046 0.000000 0.000000 0.000000
# 3 -0.011012 -0.007046 0.020060 0.000000 0.000000 0.000000
# 4 0.000000 0.000000 0.000000 0.057142 0.000000 0.000000
# 5 0.000000 0.000000 0.000000 0.000000 0.074188 0.000000
# 6 0.000000 0.000000 0.000000 0.000000 0.000000 0.082797
#
#
# Mechanical properties :
#
#
# Convention : Reuss Voigt Hill
#
# Bulk Modulus (GPa) = 55.05815 58.36987 56.71401
# Shear Modulus (GPa) = 15.57663 16.74009 16.15836
#
# Velocity S-wave (km/s) = 3.13145 3.24629 3.18939
# Velocity P-wave (km/s) = 6.90908 7.12719 7.01898
#
# Compressibility (1/GPa) = 0.01816262
#
# Stress axis : x y z
#
# Youngs Moduli (GPa) = 41.96481 64.11038 49.85040
#
# Poissons Ratio (x) = 0.16696 0.54895
# Poissons Ratio (y) = 0.10929 0.35126
# Poissons Ratio (z) = 0.46211 0.45174
#
# Static dielectric constant tensor:
#      x y z
#    x 1.547390 0.000000 0.000000 
#    y 0.000000 1.562810 0.000000 
#    z 0.000000 0.000000 1.495070 
# 
# From -- ./inp_files/32496.got.cif
#   From: 2010.05.17/outbox.cif.g08.bks.cpg/sg74_17_cif.got.tgz:32496.got - 2010.06.03 17:57:02.
