data_PCOD9535066
_publ_section_title
;
Structure prediction by ZEFSAII (Michael W. Deem and Ramdas Pophale) SiO2 
 PCOD9535066
Probable space group: I M M A
;
_chemical_formula_sum "Si O2"
_cell_formula_units_Z 96
_cell_length_a 11.511213
_cell_length_b 14.314325
_cell_length_c 32.095259
_cell_angle_alpha 90.000000
_cell_angle_beta 90.000000
_cell_angle_gamma 90.000000
_cell_volume 5288.504134
_symmetry_space_group_name_H-M "I M M A"
_symmetry_group_IT_number 74
_symmetry_cell_setting 'orthorhombic'
loop_
_space_group_symop_operation_xyz
x,y,z
-x,1/2-y,z
x,-y,-z
-x,1/2+y,-z
-x,-y,-z
x,1/2+y,-z
-x,y,z
x,1/2-y,z
1/2+x,1/2+y,1/2+z
1/2-x,-y,1/2+z
1/2+x,1/2-y,1/2-z
1/2-x,y,1/2-z
1/2-x,1/2-y,1/2-z
1/2+x,y,1/2-z
1/2-x,1/2+y,1/2+z
1/2+x,-y,1/2+z
loop_
_atom_site_type_symbol
_atom_site_label
_atom_site_fract_x
_atom_site_fract_y
_atom_site_fract_z
Si Si1 0.371248 0.363150 0.480888
Si Si2 0.134600 0.534888 0.135147
Si Si3 0.749302 0.862284 0.894094
Si Si4 0.759929 0.639472 0.438357
Si Si5 0.000000 0.606585 0.486371
Si Si6 0.000000 0.143189 0.416093
Si Si7 0.133109 0.138075 0.776520
O O1 0.500000 0.397436 0.472951
O O2 0.374196 0.250000 0.484723
O O3 0.293437 0.380564 0.441004
O O4 0.321152 0.397577 0.524222
O O5 0.173751 0.426631 0.135559
O O6 0.221330 0.585840 0.102897
O O7 0.141917 0.583567 0.179916
O O8 0.000000 0.542658 0.121014
O O9 0.757033 0.750000 0.886588
O O10 0.616824 0.897069 0.896819
O O11 0.740404 0.750000 0.431520
O O12 0.888172 0.628862 0.458168
O O13 0.000000 0.500000 0.500000
O O14 0.000000 0.649019 0.533277
O O15 0.000000 0.250000 0.402246
O O16 0.137081 0.250000 0.783673
O O17 0.250000 0.115152 0.750000
O O18 0.000000 0.118911 0.759592
#
# Coordination Sequence:
#
# PCOD9535066 Si02
#       7
#    16  16  16  16   8   8  16
#     4   9  17  29  47  70 100 142 187 228 268 316
#     4  11  23  37  57  85 114 144 180 228 282 336
#     4  10  20  35  54  78 110 149 194 236 276 323
#     4  11  22  35  51  75 108 145 187 236 286 331
#     4  12  22  34  50  70 104 150 197 240 283 330
#     4  10  18  34  54  68  98 152 200 236 279 322
#     4   9  19  40  67  91 117 147 178 217 273 344
#
# _framework density 18.152581000000001
#
# number of rings (size 3 to 8) (size 9 to 14) (size 15 to 20)
#    0.000    1.833    1.667    3.250    0.000    2.667 
#    3.000    1.667    0.000    0.500    0.000    0.000 
#    0.000    0.000    0.000    0.000    0.000    0.000 
#
# Total GULP energy -267590.385707 kJ/mol
# GULP energy per Si atom -5574.799702 kJ/mol
# Density = 1.811126 g / cm^3
# Si number density = 18.152581 Si / 1000 Ang^3
#
#
#
# Elastic Constant Matrix: (Units=GPa)
#
#
# Indices 1 2 3 4 5 6 
#
# 1 96.2704 20.2227 29.9079 0.0000 0.0000 0.0000
# 2 20.2227 73.7173 22.0626 0.0000 0.0000 0.0000
# 3 29.9079 22.0626 51.7366 0.0000 0.0000 0.0000
# 4 0.0000 0.0000 0.0000 22.7503 0.0000 0.0000
# 5 0.0000 0.0000 0.0000 0.0000 28.1760 0.0000
# 6 0.0000 0.0000 0.0000 0.0000 0.0000 19.9075
#
#
#
# Elastic Compliance Matrix: (Units=1/GPa)
#
#
# Indices 1 2 3 4 5 6 
#
# 1 0.012802 -0.001487 -0.006766 0.000000 0.000000 0.000000
# 2 -0.001487 0.015723 -0.005845 0.000000 0.000000 0.000000
# 3 -0.006766 -0.005845 0.025733 0.000000 0.000000 0.000000
# 4 0.000000 0.000000 0.000000 0.043956 0.000000 0.000000
# 5 0.000000 0.000000 0.000000 0.000000 0.035491 0.000000
# 6 0.000000 0.000000 0.000000 0.000000 0.000000 0.050232
#
#
# Mechanical properties :
#
#
# Convention : Reuss Voigt Hill
#
# Bulk Modulus (GPa) = 38.37254 40.67897 39.52576
# Shear Modulus (GPa) = 22.64286 24.13550 23.38918
#
# Velocity S-wave (km/s) = 3.53563 3.65031 3.59343
# Velocity P-wave (km/s) = 6.15243 6.34228 6.24807
#
# Compressibility (1/GPa) = 0.02606030
#
# Stress axis : x y z
#
# Youngs Moduli (GPa) = 78.11383 63.60264 38.86074
#
# Poissons Ratio (x) = 0.09456 0.26295
# Poissons Ratio (y) = 0.11614 0.22715
# Poissons Ratio (z) = 0.52855 0.37177
#
# Static dielectric constant tensor:
#      x y z
#    x 1.689390 0.000000 0.000000 
#    y 0.000000 1.454700 0.000000 
#    z 0.000000 0.000000 1.576210 
# 
# From -- ./inp_files/71812.got.cif
#   From: 2010.05.17/outbox.cif.g08.bks.cpg/sg74_36_cif.got.tgz:71812.got - 2010.06.03 17:57:02.
