data_PCOD9535114
_publ_section_title
;
Structure prediction by ZEFSAII (Michael W. Deem and Ramdas Pophale) SiO2 
 PCOD9535114
Probable space group: I M M A
;
_chemical_formula_sum "Si O2"
_cell_formula_units_Z 72
_cell_length_a 27.191373
_cell_length_b 15.354077
_cell_length_c 9.107207
_cell_angle_alpha 90.000000
_cell_angle_beta 90.000000
_cell_angle_gamma 90.000000
_cell_volume 3802.244668
_symmetry_space_group_name_H-M "I M M A"
_symmetry_group_IT_number 74
_symmetry_cell_setting 'orthorhombic'
loop_
_space_group_symop_operation_xyz
x,y,z
-x,1/2-y,z
x,-y,-z
-x,1/2+y,-z
-x,-y,-z
x,1/2+y,-z
-x,y,z
x,1/2-y,z
1/2+x,1/2+y,1/2+z
1/2-x,-y,1/2+z
1/2+x,1/2-y,1/2-z
1/2-x,y,1/2-z
1/2-x,1/2-y,1/2-z
1/2+x,y,1/2-z
1/2-x,1/2+y,1/2+z
1/2+x,-y,1/2+z
loop_
_atom_site_type_symbol
_atom_site_label
_atom_site_fract_x
_atom_site_fract_y
_atom_site_fract_z
Si Si1 0.697397 0.913997 0.326772
Si Si2 0.554352 0.893991 0.505449
Si Si3 0.801514 0.250000 0.333124
Si Si4 0.658717 0.600997 0.642088
Si Si5 0.340805 0.750000 0.150828
Si Si6 0.945109 0.750000 0.249026
O O1 0.750000 0.930818 0.250000
O O2 0.695519 0.890833 0.500804
O O3 0.673577 0.834073 0.243594
O O4 0.664297 0.000350 0.314541
O O5 0.500000 0.870414 0.566325
O O6 0.604033 0.874018 0.592380
O O7 0.558465 0.836017 0.356523
O O8 0.554664 0.000000 0.500000
O O9 0.750000 0.250000 0.250000
O O10 0.826900 0.336655 0.272638
O O11 0.807497 0.250000 0.506363
O O12 0.399937 0.750000 0.137860
O O13 0.000000 0.750000 0.313759
#
# Coordination Sequence:
#
# PCOD9535114 Si02
#       6
#    16  16   8  16   8   8
#     4  11  22  37  61  83 114 154 200 244 295 352
#     4  10  18  34  61  91 115 145 192 250 301 344
#     4  12  26  39  57  83 122 160 199 245 289 351
#     4  11  21  40  59  88 117 151 198 251 291 347
#     4  12  22  39  57  85 117 162 194 235 302 348
#     4  10  19  34  59  88 117 152 196 242 292 354
#
# _framework density 18.936183
#
# number of rings (size 3 to 8) (size 9 to 14) (size 15 to 20)
#    0.000    1.111    4.444    3.667    0.000    2.667 
#    0.000    1.111    0.000    0.000    0.000    7.778 
#    0.000    0.000    0.000    0.000    0.000    0.000 
#
# Total GULP energy -200719.121770 kJ/mol
# GULP energy per Si atom -5575.531160 kJ/mol
# Density = 1.889308 g / cm^3
# Si number density = 18.936183 Si / 1000 Ang^3
#
#
#
# Elastic Constant Matrix: (Units=GPa)
#
#
# Indices 1 2 3 4 5 6 
#
# 1 116.0044 -5.5397 7.6852 0.0000 0.0000 0.0000
# 2 -5.5397 81.1990 44.1976 0.0000 0.0000 0.0000
# 3 7.6852 44.1976 62.5924 0.0000 0.0000 0.0000
# 4 0.0000 0.0000 0.0000 61.9271 0.0000 0.0000
# 5 0.0000 0.0000 0.0000 0.0000 28.2339 0.0000
# 6 0.0000 0.0000 0.0000 0.0000 0.0000 22.6074
#
#
#
# Elastic Compliance Matrix: (Units=1/GPa)
#
#
# Indices 1 2 3 4 5 6 
#
# 1 0.008877 0.001947 -0.002465 0.000000 0.000000 0.000000
# 2 0.001947 0.020431 -0.014666 0.000000 0.000000 0.000000
# 3 -0.002465 -0.014666 0.026635 0.000000 0.000000 0.000000
# 4 0.000000 0.000000 0.000000 0.016148 0.000000 0.000000
# 5 0.000000 0.000000 0.000000 0.000000 0.035418 0.000000
# 6 0.000000 0.000000 0.000000 0.000000 0.000000 0.044233
#
#
# Mechanical properties :
#
#
# Convention : Reuss Voigt Hill
#
# Bulk Modulus (GPa) = 39.09969 39.16466 39.13217
# Shear Modulus (GPa) = 26.22821 36.78386 31.50603
#
# Velocity S-wave (km/s) = 3.72571 4.41218 4.08340
# Velocity P-wave (km/s) = 6.26106 6.83255 6.55304
#
# Compressibility (1/GPa) = 0.02557565
#
# Stress axis : x y z
#
# Youngs Moduli (GPa) = 112.65509 48.94506 37.54479
#
# Poissons Ratio (x) = -0.09531 0.09254
# Poissons Ratio (y) = -0.21937 0.55063
# Poissons Ratio (z) = 0.27768 0.71782
#
# Static dielectric constant tensor:
#      x y z
#    x 1.705680 0.000000 0.000000 
#    y 0.000000 1.335820 0.000000 
#    z 0.000000 0.000000 1.625900 
# 
# From -- ./inp_files/14775.got.cif
#   From: 2010.05.17/outbox.cif.g08.bks.cpg/sg74_8_cif.got.tgz:14775.got - 2010.06.03 17:57:02.
