data_PCOD9535804
_publ_section_title
;
Structure prediction by ZEFSAII (Michael W. Deem and Ramdas Pophale) SiO2 
 PCOD9535804
Probable space group: I M M A
;
_chemical_formula_sum "Si O2"
_cell_formula_units_Z 96
_cell_length_a 8.804846
_cell_length_b 27.599580
_cell_length_c 21.351850
_cell_angle_alpha 90.000000
_cell_angle_beta 90.000000
_cell_angle_gamma 90.000000
_cell_volume 5188.714170
_symmetry_space_group_name_H-M "I M M A"
_symmetry_group_IT_number 74
_symmetry_cell_setting 'orthorhombic'
loop_
_space_group_symop_operation_xyz
x,y,z
-x,1/2-y,z
x,-y,-z
-x,1/2+y,-z
-x,-y,-z
x,1/2+y,-z
-x,y,z
x,1/2-y,z
1/2+x,1/2+y,1/2+z
1/2-x,-y,1/2+z
1/2+x,1/2-y,1/2-z
1/2-x,y,1/2-z
1/2-x,1/2-y,1/2-z
1/2+x,y,1/2-z
1/2-x,1/2+y,1/2+z
1/2+x,-y,1/2+z
loop_
_atom_site_type_symbol
_atom_site_label
_atom_site_fract_x
_atom_site_fract_y
_atom_site_fract_z
Si Si1 0.817341 0.545451 0.546713
Si Si2 0.831361 0.153228 0.876720
Si Si3 0.675275 0.750000 0.974261
Si Si4 0.824262 0.250000 0.627821
Si Si5 0.176601 0.077205 0.691210
Si Si6 0.329862 0.850058 0.524233
Si Si7 0.180158 0.527105 0.815944
O O1 0.769355 0.500000 0.500000
O O2 0.759205 0.599027 0.528039
O O3 0.755188 0.541158 0.617918
O O4 0.000000 0.544157 0.547482
O O5 0.764088 0.202595 0.850119
O O6 0.709726 0.111060 0.866795
O O7 0.000000 0.140927 0.852286
O O8 0.845501 0.159659 0.950569
O O9 0.500000 0.750000 0.955418
O O10 0.752195 0.699644 0.951776
O O11 0.677328 0.750000 0.050993
O O12 0.000000 0.250000 0.646718
O O13 0.250000 0.105026 0.750000
O O14 0.279365 0.029828 0.686130
O O15 0.000000 0.065366 0.698064
O O16 0.500000 0.856193 0.551109
O O17 0.250000 0.546911 0.750000
O O18 0.000000 0.535192 0.816742
#
# Coordination Sequence:
#
# PCOD9535804 Si02
#       7
#    16  16   8   8  16  16  16
#     4  11  23  37  55  83 118 152 188 232 282 333
#     4  10  19  32  49  70  97 129 166 210 261 314
#     4   9  17  31  51  74 103 138 177 219 264 320
#     4   9  17  29  46  68  93 126 166 207 257 314
#     4  11  21  34  51  70  93 125 168 213 258 310
#     4  10  20  33  52  78 108 141 177 219 269 324
#     4  11  22  38  58  79 107 143 183 223 268 326
#
# _framework density 18.501695000000002
#
# number of rings (size 3 to 8) (size 9 to 14) (size 15 to 20)
#    0.000    1.667    0.000    7.000    0.000    8.000 
#    0.000    0.417    0.000    0.000    0.000    0.583 
#    0.000    0.000    0.000    0.000    0.000    0.000 
#
# Total GULP energy -267271.151154 kJ/mol
# GULP energy per Si atom -5568.148982 kJ/mol
# Density = 1.845958 g / cm^3
# Si number density = 18.501695 Si / 1000 Ang^3
#
#
#
# Elastic Constant Matrix: (Units=GPa)
#
#
# Indices 1 2 3 4 5 6 
#
# 1 134.7243 46.6544 33.1443 0.0000 0.0000 0.0000
# 2 46.6544 101.6782 23.8108 0.0000 0.0000 0.0000
# 3 33.1443 23.8108 51.2988 0.0000 0.0000 0.0000
# 4 0.0000 0.0000 0.0000 8.1396 0.0000 0.0000
# 5 0.0000 0.0000 0.0000 0.0000 26.2482 0.0000
# 6 0.0000 0.0000 0.0000 0.0000 0.0000 24.1877
#
#
#
# Elastic Compliance Matrix: (Units=1/GPa)
#
#
# Indices 1 2 3 4 5 6 
#
# 1 0.009754 -0.003366 -0.004740 0.000000 0.000000 0.000000
# 2 -0.003366 0.012196 -0.003486 0.000000 0.000000 0.000000
# 3 -0.004740 -0.003486 0.024174 0.000000 0.000000 0.000000
# 4 0.000000 0.000000 0.000000 0.122856 0.000000 0.000000
# 5 0.000000 0.000000 0.000000 0.000000 0.038098 0.000000
# 6 0.000000 0.000000 0.000000 0.000000 0.000000 0.041343
#
#
# Mechanical properties :
#
#
# Convention : Reuss Voigt Hill
#
# Bulk Modulus (GPa) = 43.59106 54.99113 49.29109
# Shear Modulus (GPa) = 17.90503 23.98791 20.94647
#
# Velocity S-wave (km/s) = 3.11424 3.60464 3.36838
# Velocity P-wave (km/s) = 6.04509 6.86376 6.46739
#
# Compressibility (1/GPa) = 0.02294048
#
# Stress axis : x y z
#
# Youngs Moduli (GPa) = 102.52007 81.99653 41.36625
#
# Poissons Ratio (x) = 0.27597 0.19608
# Poissons Ratio (y) = 0.34505 0.14421
# Poissons Ratio (z) = 0.48595 0.28585
#
# Static dielectric constant tensor:
#      x y z
#    x 1.661890 0.000000 0.000000 
#    y 0.000000 1.671740 0.000000 
#    z 0.000000 0.000000 1.746910 
# 
# From -- ./inp_files/57360.got.cif
#   From: 2010.05.17/outbox.cif.g08.bks.cpg/sg74_29_cif.got.tgz:57360.got - 2010.06.03 17:57:02.
