data_PCOD9535526
_publ_section_title
;
Structure prediction by ZEFSAII (Michael W. Deem and Ramdas Pophale) SiO2 
 PCOD9535526
Probable space group: I M M A
;
_chemical_formula_sum "Si O2"
_cell_formula_units_Z 116
_cell_length_a 8.777296
_cell_length_b 26.501871
_cell_length_c 23.751326
_cell_angle_alpha 90.000000
_cell_angle_beta 90.000000
_cell_angle_gamma 90.000000
_cell_volume 5524.909147
_symmetry_space_group_name_H-M "I M M A"
_symmetry_group_IT_number 74
_symmetry_cell_setting 'orthorhombic'
loop_
_space_group_symop_operation_xyz
x,y,z
-x,1/2-y,z
x,-y,-z
-x,1/2+y,-z
-x,-y,-z
x,1/2+y,-z
-x,y,z
x,1/2-y,z
1/2+x,1/2+y,1/2+z
1/2-x,-y,1/2+z
1/2+x,1/2-y,1/2-z
1/2-x,y,1/2-z
1/2-x,1/2-y,1/2-z
1/2+x,y,1/2-z
1/2-x,1/2+y,1/2+z
1/2+x,-y,1/2+z
loop_
_atom_site_type_symbol
_atom_site_label
_atom_site_fract_x
_atom_site_fract_y
_atom_site_fract_z
Si Si1 0.181637 0.543880 0.192081
Si Si2 0.318076 0.192007 0.414705
Si Si3 0.317410 0.535867 0.887155
Si Si4 0.332885 0.159340 0.582815
Si Si5 0.819687 0.897276 0.511886
Si Si6 0.680003 0.843602 0.193481
Si Si7 0.500000 0.750000 0.467076
Si Si8 0.179561 0.375478 0.188837
O O1 0.250000 0.520348 0.250000
O O2 0.235544 0.512743 0.138028
O O3 0.252882 0.599631 0.189632
O O4 0.000000 0.545394 0.196589
O O5 0.500000 0.189315 0.429380
O O6 0.272695 0.250000 0.422081
O O7 0.223291 0.151126 0.449573
O O8 0.306740 0.174177 0.349984
O O9 0.500000 0.529493 0.885960
O O10 0.273189 0.554811 0.949850
O O11 0.266847 0.580640 0.844986
O O12 0.500000 0.144172 0.605804
O O13 0.261181 0.114122 0.547065
O O14 0.232788 0.178956 0.634379
O O15 0.370088 0.205673 0.541629
O O16 0.000000 0.899969 0.503061
O O17 0.500000 0.845086 0.198622
O O18 0.750000 0.820018 0.250000
O O19 0.250000 0.369002 0.250000
O O20 0.000000 0.388634 0.192245
#
# Coordination Sequence:
#
# PCOD9535526 Si02
#       8
#    16  16  16  16  16  16   4  16
#     4  11  21  35  58  89 120 159 206 248 294 356
#     4   9  19  33  49  68  94 133 182 232 287 352
#     4  10  20  35  52  77 115 152 195 246 292 345
#     4  10  21  41  64  89 121 154 197 236 288 352
#     4  10  21  35  55  83 114 151 191 243 301 345
#     4  11  22  40  67  95 125 161 195 236 291 347
#     4   8  24  40  68  92 120 160 200 236 298 346
#     4  10  19  31  46  66  95 136 180 232 295 349
#
# _framework density 20.995819000000001
#
# number of rings (size 3 to 8) (size 9 to 14) (size 15 to 20)
#    0.414    1.517    0.000    5.379    0.966    2.759 
#    0.000    2.069    0.000    4.138    0.000    0.000 
#    0.000    0.000    0.000    0.000    0.000    0.000 
#
# Total GULP energy -323309.342118 kJ/mol
# GULP energy per Si atom -5574.299002 kJ/mol
# Density = 2.094803 g / cm^3
# Si number density = 20.995819 Si / 1000 Ang^3
#
#
#
# Elastic Constant Matrix: (Units=GPa)
#
#
# Indices 1 2 3 4 5 6 
#
# 1 111.9162 -5.2169 25.5939 0.0000 0.0000 0.0000
# 2 -5.2169 29.8516 -1.4067 0.0000 0.0000 0.0000
# 3 25.5939 -1.4067 89.5238 0.0000 0.0000 0.0000
# 4 0.0000 0.0000 0.0000 -12.8539 0.0000 0.0000
# 5 0.0000 0.0000 0.0000 0.0000 38.6090 0.0000
# 6 0.0000 0.0000 0.0000 0.0000 0.0000 24.8109
#
#
#
# Elastic Compliance Matrix: (Units=1/GPa)
#
#
# Indices 1 2 3 4 5 6 
#
# 1 0.009632 0.001555 -0.002729 0.000000 0.000000 0.000000
# 2 0.001555 0.033775 0.000086 0.000000 0.000000 0.000000
# 3 -0.002729 0.000086 0.011952 0.000000 0.000000 0.000000
# 4 0.000000 0.000000 0.000000 -0.077797 0.000000 0.000000
# 5 0.000000 0.000000 0.000000 0.000000 0.025901 0.000000
# 6 0.000000 0.000000 0.000000 0.000000 0.000000 0.040305
#
#
# Mechanical properties :
#
#
# Convention : Reuss Voigt Hill
#
# Bulk Modulus (GPa) = 18.80339 29.91470 24.35904
# Shear Modulus (GPa) = 78.52915 24.26795 51.39855
#
# Velocity S-wave (km/s) = 6.12238 3.40346 4.95313
# Velocity P-wave (km/s) = 7.67810 5.45194 6.65871
#
# Compressibility (1/GPa) = 0.05318191
#
# Stress axis : x y z
#
# Youngs Moduli (GPa) = 103.82202 29.60784 83.66922
#
# Poissons Ratio (x) = -0.04603 0.22835
# Poissons Ratio (y) = -0.16141 -0.00722
# Poissons Ratio (z) = 0.28335 -0.00255
#
# Static dielectric constant tensor:
#      x y z
#    x 1.720170 0.000000 0.000000 
#    y 0.000000 1.772260 0.000000 
#    z 0.000000 0.000000 1.848340 
# 
# From -- ./inp_files/57904.got.cif
#   From: 2010.05.17/outbox.cif.g08.bks.cpg/sg74_29_cif.got.tgz:57904.got - 2010.06.03 17:57:02.
