data_PCOD9535781
_publ_section_title
;
Structure prediction by ZEFSAII (Michael W. Deem and Ramdas Pophale) SiO2 
 PCOD9535781
Probable space group: I M M A
;
_chemical_formula_sum "Si O2"
_cell_formula_units_Z 120
_cell_length_a 24.135388
_cell_length_b 14.775478
_cell_length_c 20.009392
_cell_angle_alpha 90.000000
_cell_angle_beta 90.000000
_cell_angle_gamma 90.000000
_cell_volume 7135.587187
_symmetry_space_group_name_H-M "I M M A"
_symmetry_group_IT_number 74
_symmetry_cell_setting 'orthorhombic'
loop_
_space_group_symop_operation_xyz
x,y,z
-x,1/2-y,z
x,-y,-z
-x,1/2+y,-z
-x,-y,-z
x,1/2+y,-z
-x,y,z
x,1/2-y,z
1/2+x,1/2+y,1/2+z
1/2-x,-y,1/2+z
1/2+x,1/2-y,1/2-z
1/2-x,y,1/2-z
1/2-x,1/2-y,1/2-z
1/2+x,y,1/2-z
1/2-x,1/2+y,1/2+z
1/2+x,-y,1/2+z
loop_
_atom_site_type_symbol
_atom_site_label
_atom_site_fract_x
_atom_site_fract_y
_atom_site_fract_z
Si Si1 0.200082 0.144234 0.800106
Si Si2 0.887318 0.350259 0.685562
Si Si3 0.777523 0.853622 0.849530
Si Si4 0.400761 0.500000 0.000000
Si Si5 0.208002 0.471150 0.932186
Si Si6 0.060836 0.970639 0.648723
Si Si7 0.656617 0.353817 0.218405
Si Si8 0.817521 0.855662 0.449304
O O1 0.213379 0.250000 0.817079
O O2 0.250000 0.111688 0.750000
O O3 0.145801 0.142427 0.754365
O O4 0.189414 0.086655 0.866969
O O5 0.911129 0.250000 0.678309
O O6 0.931303 0.428558 0.677053
O O7 0.841157 0.360132 0.626642
O O8 0.786886 0.750000 0.871963
O O9 0.716179 0.856527 0.817932
O O10 0.824707 0.876379 0.794195
O O11 0.777069 0.931189 0.903313
O O12 0.432893 0.482379 0.068745
O O13 0.362560 0.588760 0.008902
O O14 0.261142 0.411642 0.953615
O O15 0.175371 0.500000 0.000000
O O16 0.111373 0.914940 0.681688
O O17 0.000000 0.933350 0.664381
O O18 0.637157 0.250000 0.217452
O O19 0.811900 0.750000 0.467642
#
# Coordination Sequence:
#
# PCOD9535781 Si02
#       8
#    16  16  16   8  16  16  16  16
#     4  10  19  32  52  75 101 134 175 222 269 323
#     4   9  18  33  53  73  92 126 173 220 269 313
#     4   9  19  35  54  73  98 132 170 213 261 320
#     4  10  21  36  46  68  94 148 188 220 267 304
#     4  12  22  29  43  76 109 143 168 206 269 321
#     4  11  22  35  51  72 103 139 180 228 266 306
#     4   9  19  35  54  74  92 126 177 222 262 303
#     4  10  19  32  47  69  97 128 179 230 264 300
#
# _framework density 16.817115999999999
#
# number of rings (size 3 to 8) (size 9 to 14) (size 15 to 20)
#    0.000    2.000    2.000    3.800    1.867    2.133 
#    0.000    0.000    0.000    2.400    0.000    0.000 
#    0.000    8.533    0.000   23.467    0.000    0.000 
#
# Total GULP energy -334212.794880 kJ/mol
# GULP energy per Si atom -5570.213248 kJ/mol
# Density = 1.677884 g / cm^3
# Si number density = 16.817116 Si / 1000 Ang^3
#
#
#
# Elastic Constant Matrix: (Units=GPa)
#
#
# Indices 1 2 3 4 5 6 
#
# 1 59.9909 30.2084 19.5311 0.0000 0.0000 0.0000
# 2 30.2084 99.1099 53.8809 0.0000 0.0000 0.0000
# 3 19.5311 53.8809 75.2839 0.0000 0.0000 0.0000
# 4 0.0000 0.0000 0.0000 17.0584 0.0000 0.0000
# 5 0.0000 0.0000 0.0000 0.0000 42.5813 0.0000
# 6 0.0000 0.0000 0.0000 0.0000 0.0000 1.4798
#
#
#
# Elastic Compliance Matrix: (Units=1/GPa)
#
#
# Indices 1 2 3 4 5 6 
#
# 1 0.019773 -0.005300 -0.001336 0.000000 0.000000 0.000000
# 2 -0.005300 0.017937 -0.011462 0.000000 0.000000 0.000000
# 3 -0.001336 -0.011462 0.021833 0.000000 0.000000 0.000000
# 4 0.000000 0.000000 0.000000 0.058622 0.000000 0.000000
# 5 0.000000 0.000000 0.000000 0.000000 0.023484 0.000000
# 6 0.000000 0.000000 0.000000 0.000000 0.000000 0.675749
#
#
# Mechanical properties :
#
#
# Convention : Reuss Voigt Hill
#
# Bulk Modulus (GPa) = 42.83508 49.06953 45.95230
# Shear Modulus (GPa) = 5.80464 20.94152 13.37308
#
# Velocity S-wave (km/s) = 1.85987 3.53264 2.82300
# Velocity P-wave (km/s) = 5.48986 6.77356 6.16521
#
# Compressibility (1/GPa) = 0.02334535
#
# Stress axis : x y z
#
# Youngs Moduli (GPa) = 50.57339 55.75125 45.80140
#
# Poissons Ratio (x) = 0.29550 0.06121
# Poissons Ratio (y) = 0.26805 0.52499
# Poissons Ratio (z) = 0.06759 0.63904
#
# Static dielectric constant tensor:
#      x y z
#    x 1.544000 0.000000 0.000000 
#    y 0.000000 1.595860 0.000000 
#    z 0.000000 0.000000 1.638530 
# 
# From -- ./inp_files/54819.got.cif
#   From: 2010.05.17/outbox.cif.g08.bks.cpg/sg74_28_cif.got.tgz:54819.got - 2010.06.03 17:57:02.
