data_PCOD9535354
_publ_section_title
;
Structure prediction by ZEFSAII (Michael W. Deem and Ramdas Pophale) SiO2 
 PCOD9535354
Probable space group: I M M A
;
_chemical_formula_sum "Si O2"
_cell_formula_units_Z 80
_cell_length_a 26.458964
_cell_length_b 8.017750
_cell_length_c 28.308620
_cell_angle_alpha 90.000000
_cell_angle_beta 90.000000
_cell_angle_gamma 90.000000
_cell_volume 6005.429107
_symmetry_space_group_name_H-M "I M M A"
_symmetry_group_IT_number 74
_symmetry_cell_setting 'orthorhombic'
loop_
_space_group_symop_operation_xyz
x,y,z
-x,1/2-y,z
x,-y,-z
-x,1/2+y,-z
-x,-y,-z
x,1/2+y,-z
-x,y,z
x,1/2-y,z
1/2+x,1/2+y,1/2+z
1/2-x,-y,1/2+z
1/2+x,1/2-y,1/2-z
1/2-x,y,1/2-z
1/2-x,1/2-y,1/2-z
1/2+x,y,1/2-z
1/2-x,1/2+y,1/2+z
1/2+x,-y,1/2+z
loop_
_atom_site_type_symbol
_atom_site_label
_atom_site_fract_x
_atom_site_fract_y
_atom_site_fract_z
Si Si1 0.890158 0.939243 0.766988
Si Si2 0.676670 0.437710 0.361981
Si Si3 0.000000 0.052779 0.795848
Si Si4 0.168025 0.250000 0.731223
Si Si5 0.734838 0.250000 0.672418
Si Si6 0.500000 0.050846 0.404753
Si Si7 0.607385 0.552237 0.446256
O O1 0.881646 0.750000 0.750023
O O2 0.862864 0.953084 0.818288
O O3 0.949182 0.973182 0.775120
O O4 0.865700 0.083576 0.735035
O O5 0.697763 0.250000 0.360199
O O6 0.717343 0.583826 0.354828
O O7 0.645189 0.464826 0.409665
O O8 0.000000 0.250000 0.786531
O O9 0.000000 0.025000 0.852285
O O10 0.206977 0.250000 0.687946
O O11 0.202397 0.250000 0.778818
O O12 0.500000 0.250000 0.400180
O O13 0.449689 0.995602 0.431893
O O14 0.616714 0.500000 0.500000
O O15 0.613296 0.750000 0.440879
#
# Coordination Sequence:
#
# PCOD9535354 Si02
#       7
#    16  16   8   8   8   8  16
#     4  10  19  30  45  64  87 111 141 175 217 260
#     4  10  19  32  47  64  82 109 141 177 225 272
#     4  12  20  29  45  63  85 118 148 181 214 268
#     4   9  18  31  46  66  84 105 136 179 224 268
#     4   9  18  32  48  64  84 104 136 178 226 277
#     4  12  23  33  44  62  81 111 151 184 229 276
#     4  12  23  35  46  61  83 111 145 189 233 274
#
# _framework density 13.321279000000001
#
# number of rings (size 3 to 8) (size 9 to 14) (size 15 to 20)
#    0.000    1.400    4.000    3.900    0.000    0.800 
#    0.000    4.000    0.000    0.000    0.000    0.000 
#    0.000    0.000    0.000    0.000    0.000    0.000 
#
# Total GULP energy -223262.065711 kJ/mol
# GULP energy per Si atom -5581.551643 kJ/mol
# Density = 1.329096 g / cm^3
# Si number density = 13.321279 Si / 1000 Ang^3
#
#
#
# Elastic Constant Matrix: (Units=GPa)
#
#
# Indices 1 2 3 4 5 6 
#
# 1 68.9881 49.5933 37.7962 0.0000 0.0000 0.0000
# 2 49.5933 124.2767 29.5981 0.0000 0.0000 0.0000
# 3 37.7962 29.5981 41.6553 0.0000 0.0000 0.0000
# 4 0.0000 0.0000 0.0000 14.0742 0.0000 0.0000
# 5 0.0000 0.0000 0.0000 0.0000 5.3774 0.0000
# 6 0.0000 0.0000 0.0000 0.0000 0.0000 7.4102
#
#
#
# Elastic Compliance Matrix: (Units=1/GPa)
#
#
# Indices 1 2 3 4 5 6 
#
# 1 0.033686 -0.007418 -0.025294 0.000000 0.000000 0.000000
# 2 -0.007418 0.011319 -0.001312 0.000000 0.000000 0.000000
# 3 -0.025294 -0.001312 0.047889 0.000000 0.000000 0.000000
# 4 0.000000 0.000000 0.000000 0.071052 0.000000 0.000000
# 5 0.000000 0.000000 0.000000 0.000000 0.185963 0.000000
# 6 0.000000 0.000000 0.000000 0.000000 0.000000 0.134950
#
#
# Mechanical properties :
#
#
# Convention : Reuss Voigt Hill
#
# Bulk Modulus (GPa) = 40.24769 52.09948 46.17359
# Shear Modulus (GPa) = 8.90965 13.23452 11.07209
#
# Velocity S-wave (km/s) = 2.58898 3.15538 2.88611
# Velocity P-wave (km/s) = 6.26225 7.24363 6.77074
#
# Compressibility (1/GPa) = 0.02484615
#
# Stress axis : x y z
#
# Youngs Moduli (GPa) = 29.68619 88.34430 20.88161
#
# Poissons Ratio (x) = 0.65538 0.52817
# Poissons Ratio (y) = 0.22023 0.02739
# Poissons Ratio (z) = 0.75088 0.11589
#
# Static dielectric constant tensor:
#      x y z
#    x 1.417670 0.000000 0.000000 
#    y 0.000000 1.466940 0.000000 
#    z 0.000000 0.000000 1.404620 
# 
# From -- ./inp_files/57204.got.cif
#   From: 2010.05.17/outbox.cif.g08.bks.cpg/sg74_29_cif.got.tgz:57204.got - 2010.06.03 17:57:02.
