data_PCOD9535367
_publ_section_title
;
Structure prediction by ZEFSAII (Michael W. Deem and Ramdas Pophale) SiO2 
 PCOD9535367
Probable space group: I M M A
;
_chemical_formula_sum "Si O2"
_cell_formula_units_Z 96
_cell_length_a 19.615438
_cell_length_b 8.545352
_cell_length_c 33.078157
_cell_angle_alpha 90.000000
_cell_angle_beta 90.000000
_cell_angle_gamma 90.000000
_cell_volume 5544.587878
_symmetry_space_group_name_H-M "I M M A"
_symmetry_group_IT_number 74
_symmetry_cell_setting 'orthorhombic'
loop_
_space_group_symop_operation_xyz
x,y,z
-x,1/2-y,z
x,-y,-z
-x,1/2+y,-z
-x,-y,-z
x,1/2+y,-z
-x,y,z
x,1/2-y,z
1/2+x,1/2+y,1/2+z
1/2-x,-y,1/2+z
1/2+x,1/2-y,1/2-z
1/2-x,y,1/2-z
1/2-x,1/2-y,1/2-z
1/2+x,y,1/2-z
1/2-x,1/2+y,1/2+z
1/2+x,-y,1/2+z
loop_
_atom_site_type_symbol
_atom_site_label
_atom_site_fract_x
_atom_site_fract_y
_atom_site_fract_z
Si Si1 0.659837 0.563337 0.169395
Si Si2 0.077994 0.438575 0.256250
Si Si3 0.923389 0.059155 0.162966
Si Si4 0.213527 0.061201 0.122934
Si Si5 0.577768 0.061093 0.910676
Si Si6 0.293887 0.562841 0.956017
O O1 0.665508 0.750000 0.169059
O O2 0.630494 0.507443 0.211896
O O3 0.731996 0.491170 0.156588
O O4 0.606959 0.517069 0.133590
O O5 0.081237 0.250000 0.258000
O O6 0.090245 0.485204 0.209682
O O7 0.000000 0.485209 0.266598
O O8 0.923989 0.250000 0.162170
O O9 0.861849 0.005484 0.134647
O O10 0.000000 0.007396 0.152081
O O11 0.212664 0.250000 0.122224
O O12 0.243150 0.007214 0.079735
O O13 0.500000 0.008447 0.915925
O O14 0.579124 0.250000 0.913248
O O15 0.630933 0.993667 0.942841
O O16 0.293049 0.750000 0.956578
O O17 0.275918 0.500000 0.000000
#
# Coordination Sequence:
#
# PCOD9535367 Si02
#       6
#    16  16  16  16  16  16
#     4  10  19  30  45  67  98 133 164 194 230 271
#     4   9  17  29  46  68  94 126 163 200 235 269
#     4   8  15  30  52  74  93 117 154 198 238 275
#     4   9  18  33  52  72  92 118 156 196 233 277
#     4   9  18  32  48  66  91 125 162 196 228 262
#     4  10  20  33  50  71  93 119 150 186 231 280
#
# _framework density 17.314181999999999
#
# number of rings (size 3 to 8) (size 9 to 14) (size 15 to 20)
#    0.000    2.833    0.000    2.500    0.000    3.667 
#    0.000    4.167    0.000    2.000    0.000    0.000 
#    0.000    0.000    0.000    0.000    0.000    0.500 
#
# Total GULP energy -267619.576308 kJ/mol
# GULP energy per Si atom -5575.407840 kJ/mol
# Density = 1.727477 g / cm^3
# Si number density = 17.314182 Si / 1000 Ang^3
#
#
#
# Elastic Constant Matrix: (Units=GPa)
#
#
# Indices 1 2 3 4 5 6 
#
# 1 149.1181 17.9966 88.6810 0.0000 0.0000 0.0000
# 2 17.9966 5.5617 13.0554 0.0000 0.0000 0.0000
# 3 88.6810 13.0554 82.0651 0.0000 0.0000 0.0000
# 4 0.0000 0.0000 0.0000 18.0374 0.0000 0.0000
# 5 0.0000 0.0000 0.0000 0.0000 10.0038 0.0000
# 6 0.0000 0.0000 0.0000 0.0000 0.0000 9.0726
#
#
#
# Elastic Compliance Matrix: (Units=1/GPa)
#
#
# Indices 1 2 3 4 5 6 
#
# 1 0.020430 -0.022798 -0.018450 0.000000 0.000000 0.000000
# 2 -0.022798 0.312401 -0.025063 0.000000 0.000000 0.000000
# 3 -0.018450 -0.025063 0.036110 0.000000 0.000000 0.000000
# 4 0.000000 0.000000 0.000000 0.055440 0.000000 0.000000
# 5 0.000000 0.000000 0.000000 0.000000 0.099962 0.000000
# 6 0.000000 0.000000 0.000000 0.000000 0.000000 0.110222
#
#
# Mechanical properties :
#
#
# Convention : Reuss Voigt Hill
#
# Bulk Modulus (GPa) = 4.23155 52.91232 28.57194
# Shear Modulus (GPa) = 5.91045 15.22356 10.56701
#
# Velocity S-wave (km/s) = 1.84961 2.96844 2.47312
# Velocity P-wave (km/s) = 2.64777 6.50963 4.96920
#
# Compressibility (1/GPa) = 0.23631985
#
# Stress axis : x y z
#
# Youngs Moduli (GPa) = 48.94838 3.20101 27.69332
#
# Poissons Ratio (x) = 0.07298 0.51094
# Poissons Ratio (y) = 1.11592 0.69407
# Poissons Ratio (z) = 0.90309 0.08023
#
# Static dielectric constant tensor:
#      x y z
#    x 1.587190 0.000000 0.000000 
#    y 0.000000 1.584940 0.000000 
#    z 0.000000 0.000000 1.577400 
# 
# From -- ./inp_files/64357.got.cif
#   From: 2010.05.17/outbox.cif.g08.bks.cpg/sg74_33_cif.got.tgz:64357.got - 2010.06.03 17:57:02.
