data_PCOD9535521
_publ_section_title
;
Structure prediction by ZEFSAII (Michael W. Deem and Ramdas Pophale) SiO2 
 PCOD9535521
Probable space group: I M M A
;
_chemical_formula_sum "Si O2"
_cell_formula_units_Z 96
_cell_length_a 7.339984
_cell_length_b 30.286946
_cell_length_c 20.874797
_cell_angle_alpha 90.000000
_cell_angle_beta 90.000000
_cell_angle_gamma 90.000000
_cell_volume 4640.586340
_symmetry_space_group_name_H-M "I M M A"
_symmetry_group_IT_number 74
_symmetry_cell_setting 'orthorhombic'
loop_
_space_group_symop_operation_xyz
x,y,z
-x,1/2-y,z
x,-y,-z
-x,1/2+y,-z
-x,-y,-z
x,1/2+y,-z
-x,y,z
x,1/2-y,z
1/2+x,1/2+y,1/2+z
1/2-x,-y,1/2+z
1/2+x,1/2-y,1/2-z
1/2-x,y,1/2-z
1/2-x,1/2-y,1/2-z
1/2+x,y,1/2-z
1/2-x,1/2+y,1/2+z
1/2+x,-y,1/2+z
loop_
_atom_site_type_symbol
_atom_site_label
_atom_site_fract_x
_atom_site_fract_y
_atom_site_fract_z
Si Si1 0.282613 0.119288 0.325774
Si Si2 0.282789 0.799367 0.317940
Si Si3 0.277679 0.801054 0.582802
Si Si4 0.777169 0.843738 0.052758
Si Si5 0.720852 0.534070 0.596402
Si Si6 0.221009 0.443683 0.949177
O O1 0.500000 0.118788 0.335515
O O2 0.250000 0.121596 0.250000
O O3 0.217668 0.162884 0.364165
O O4 0.213948 0.073038 0.356740
O O5 0.500000 0.796961 0.324595
O O6 0.207534 0.750000 0.312689
O O7 0.250000 0.822795 0.250000
O O8 0.214941 0.819578 0.383440
O O9 0.500000 0.800330 0.583754
O O10 0.219624 0.750000 0.592204
O O11 0.222142 0.820106 0.513226
O O12 0.717323 0.894101 0.060758
O O13 0.000000 0.843870 0.050789
O O14 0.500000 0.533653 0.601890
O O15 0.782127 0.482840 0.598442
O O16 0.766268 0.546472 0.523207
O O17 0.000000 0.443946 0.946195
#
# Coordination Sequence:
#
# PCOD9535521 Si02
#       6
#    16  16  16  16  16  16
#     4  10  19  31  46  65  91 122 151 183 225 270
#     4   9  17  28  42  61  86 115 143 171 209 259
#     4   9  16  26  42  65  90 114 147 192 232 260
#     4   9  14  23  41  66  89 110 141 185 226 256
#     4   8  13  23  39  62  87 109 137 175 218 257
#     4   8  12  20  39  64  87 106 133 179 222 252
#
# _framework density 20.68704
#
# number of rings (size 3 to 8) (size 9 to 14) (size 15 to 20)
#    0.000    3.167    1.667    1.500    0.000    2.333 
#    0.000    0.833    0.000    1.000    0.000    2.333 
#    0.000    0.000    0.000    0.000    0.000    0.000 
#
# Total GULP energy -267425.860699 kJ/mol
# GULP energy per Si atom -5571.372098 kJ/mol
# Density = 2.063996 g / cm^3
# Si number density = 20.687040 Si / 1000 Ang^3
#
#
#
# Elastic Constant Matrix: (Units=GPa)
#
#
# Indices 1 2 3 4 5 6 
#
# 1 78.1192 4.6493 -0.2847 0.0000 0.0000 0.0000
# 2 4.6493 190.0847 112.2284 0.0000 0.0000 0.0000
# 3 -0.2847 112.2284 169.0458 0.0000 0.0000 0.0000
# 4 0.0000 0.0000 0.0000 24.2476 0.0000 0.0000
# 5 0.0000 0.0000 0.0000 0.0000 10.2160 0.0000
# 6 0.0000 0.0000 0.0000 0.0000 0.0000 -8.6633
#
#
#
# Elastic Compliance Matrix: (Units=1/GPa)
#
#
# Indices 1 2 3 4 5 6 
#
# 1 0.012834 -0.000537 0.000378 0.000000 0.000000 0.000000
# 2 -0.000537 0.008675 -0.005760 0.000000 0.000000 0.000000
# 3 0.000378 -0.005760 0.009740 0.000000 0.000000 0.000000
# 4 0.000000 0.000000 0.000000 0.041241 0.000000 0.000000
# 5 0.000000 0.000000 0.000000 0.000000 0.097885 0.000000
# 6 0.000000 0.000000 0.000000 0.000000 0.000000 -0.115429
#
#
# Mechanical properties :
#
#
# Convention : Reuss Voigt Hill
#
# Bulk Modulus (GPa) = 51.51631 74.49285 63.00458
# Shear Modulus (GPa) = 68.25508 26.53719 47.39613
#
# Velocity S-wave (km/s) = 5.75028 3.58550 4.79174
# Velocity P-wave (km/s) = 8.30930 7.29580 7.81899
#
# Compressibility (1/GPa) = 0.01941133
#
# Stress axis : x y z
#
# Youngs Moduli (GPa) = 77.91614 115.27743 102.66716
#
# Poissons Ratio (x) = 0.06193 -0.03884
# Poissons Ratio (y) = 0.04186 0.59136
# Poissons Ratio (z) = -0.02948 0.66400
#
# Static dielectric constant tensor:
#      x y z
#    x 1.810870 0.000000 0.000000 
#    y 0.000000 1.779320 0.000000 
#    z 0.000000 0.000000 1.705260 
# 
# From -- ./inp_files/41661.got.cif
#   From: 2010.05.17/outbox.cif.g08.bks.cpg/sg74_21_cif.got.tgz:41661.got - 2010.06.03 17:57:02.
