data_PCOD9535684
_publ_section_title
;
Structure prediction by ZEFSAII (Michael W. Deem and Ramdas Pophale) SiO2 
 PCOD9535684
Probable space group: I M M A
;
_chemical_formula_sum "Si O2"
_cell_formula_units_Z 128
_cell_length_a 20.381069
_cell_length_b 20.339689
_cell_length_c 17.566551
_cell_angle_alpha 90.000000
_cell_angle_beta 90.000000
_cell_angle_gamma 90.000000
_cell_volume 7282.118945
_symmetry_space_group_name_H-M "I M M A"
_symmetry_group_IT_number 74
_symmetry_cell_setting 'orthorhombic'
loop_
_space_group_symop_operation_xyz
x,y,z
-x,1/2-y,z
x,-y,-z
-x,1/2+y,-z
-x,-y,-z
x,1/2+y,-z
-x,y,z
x,1/2-y,z
1/2+x,1/2+y,1/2+z
1/2-x,-y,1/2+z
1/2+x,1/2-y,1/2-z
1/2-x,y,1/2-z
1/2-x,1/2-y,1/2-z
1/2+x,y,1/2-z
1/2-x,1/2+y,1/2+z
1/2+x,-y,1/2+z
loop_
_atom_site_type_symbol
_atom_site_label
_atom_site_fract_x
_atom_site_fract_y
_atom_site_fract_z
Si Si1 0.103246 0.174375 0.784800
Si Si2 0.075425 0.075976 0.472364
Si Si3 0.727888 0.173156 0.614330
Si Si4 0.336673 0.424301 0.493179
Si Si5 0.129562 0.112310 0.632304
Si Si6 0.823651 0.452307 0.166418
Si Si7 0.833054 0.961732 0.662756
Si Si8 0.430025 0.943578 0.385232
O O1 0.084823 0.250000 0.792763
O O2 0.179509 0.168173 0.812751
O O3 0.091830 0.148852 0.699782
O O4 0.068676 0.125208 0.842203
O O5 0.097928 0.114400 0.548353
O O6 0.128612 0.077888 0.403605
O O7 0.000000 0.092368 0.450184
O O8 0.075084 0.000000 0.500000
O O9 0.728875 0.250000 0.592684
O O10 0.700396 0.126718 0.546977
O O11 0.799838 0.146762 0.630607
O O12 0.308700 0.500000 0.500000
O O13 0.337464 0.405354 0.405154
O O14 0.409041 0.430335 0.528346
O O15 0.139157 0.036027 0.656640
O O16 0.840905 0.432491 0.252304
O O17 0.746102 0.467261 0.157038
O O18 0.870302 0.514718 0.149815
O O19 0.500000 0.977194 0.377514
#
# Coordination Sequence:
#
# PCOD9535684 Si02
#       8
#    16  16  16  16  16  16  16  16
#     4  10  20  32  46  72 105 145 186 220 257 310
#     4   9  20  35  49  71 102 140 181 225 276 325
#     4  10  20  32  51  79 113 144 178 225 274 319
#     4   9  18  32  50  73 104 137 176 217 263 325
#     4  11  18  29  50  71 100 141 184 221 258 314
#     4  10  19  31  50  78 100 129 172 215 269 326
#     4  10  19  31  51  76 104 133 169 222 276 322
#     4  10  20  33  47  68 103 140 172 217 266 313
#
# _framework density 17.577300999999999
#
# number of rings (size 3 to 8) (size 9 to 14) (size 15 to 20)
#    0.000    2.125    1.250    3.750    1.750    7.500 
#    0.000    0.000    0.000    1.125    0.000    7.875 
#    0.000    0.000    0.000    0.750    0.000    0.000 
#
# Total GULP energy -356362.937023 kJ/mol
# GULP energy per Si atom -5568.170891 kJ/mol
# Density = 1.753729 g / cm^3
# Si number density = 17.577301 Si / 1000 Ang^3
#
#
#
# Elastic Constant Matrix: (Units=GPa)
#
#
# Indices 1 2 3 4 5 6 
#
# 1 76.8758 0.2901 35.6886 0.0000 0.0000 0.0000
# 2 0.2901 43.5625 20.9421 0.0000 0.0000 0.0000
# 3 35.6886 20.9421 142.5638 0.0000 0.0000 0.0000
# 4 0.0000 0.0000 0.0000 12.1020 0.0000 0.0000
# 5 0.0000 0.0000 0.0000 0.0000 -1.5263 0.0000
# 6 0.0000 0.0000 0.0000 0.0000 0.0000 4.0846
#
#
#
# Elastic Compliance Matrix: (Units=1/GPa)
#
#
# Indices 1 2 3 4 5 6 
#
# 1 0.014851 0.001817 -0.003985 0.000000 0.000000 0.000000
# 2 0.001817 0.024922 -0.004116 0.000000 0.000000 0.000000
# 3 -0.003985 -0.004116 0.008616 0.000000 0.000000 0.000000
# 4 0.000000 0.000000 0.000000 0.082631 0.000000 0.000000
# 5 0.000000 0.000000 0.000000 0.000000 -0.655162 0.000000
# 6 0.000000 0.000000 0.000000 0.000000 0.000000 0.244823
#
#
# Mechanical properties :
#
#
# Convention : Reuss Voigt Hill
#
# Bulk Modulus (GPa) = 27.91573 41.87151 34.89362
# Shear Modulus (GPa) = -19.62243 16.67080 -1.47581
#
# Velocity S-wave (km/s) = -3.34481 3.08300 -0.91730
# Velocity P-wave (km/s) = 0.99959 6.04535 4.33275
#
# Compressibility (1/GPa) = 0.03582210
#
# Stress axis : x y z
#
# Youngs Moduli (GPa) = 67.33591 40.12519 116.05700
#
# Poissons Ratio (x) = -0.07289 0.46243
# Poissons Ratio (y) = -0.12232 0.47766
# Poissons Ratio (z) = 0.26830 0.16514
#
# Static dielectric constant tensor:
#      x y z
#    x 1.670920 0.000000 0.000000 
#    y 0.000000 1.580010 0.000000 
#    z 0.000000 0.000000 1.656340 
# 
# From -- ./inp_files/45607.got.cif
#   From: 2010.05.17/outbox.cif.g08.bks.cpg/sg74_23_cif.got.tgz:45607.got - 2010.06.03 17:57:02.
