data_PCOD9535321
_publ_section_title
;
Structure prediction by ZEFSAII (Michael W. Deem and Ramdas Pophale) SiO2 
 PCOD9535321
Probable space group: I M M A
;
_chemical_formula_sum "Si O2"
_cell_formula_units_Z 96
_cell_length_a 33.158972
_cell_length_b 8.989590
_cell_length_c 27.261701
_cell_angle_alpha 90.000000
_cell_angle_beta 90.000000
_cell_angle_gamma 90.000000
_cell_volume 8126.319494
_symmetry_space_group_name_H-M "I M M A"
_symmetry_group_IT_number 74
_symmetry_cell_setting 'orthorhombic'
loop_
_space_group_symop_operation_xyz
x,y,z
-x,1/2-y,z
x,-y,-z
-x,1/2+y,-z
-x,-y,-z
x,1/2+y,-z
-x,y,z
x,1/2-y,z
1/2+x,1/2+y,1/2+z
1/2-x,-y,1/2+z
1/2+x,1/2-y,1/2-z
1/2-x,y,1/2-z
1/2-x,1/2-y,1/2-z
1/2+x,y,1/2-z
1/2-x,1/2+y,1/2+z
1/2+x,-y,1/2+z
loop_
_atom_site_type_symbol
_atom_site_label
_atom_site_fract_x
_atom_site_fract_y
_atom_site_fract_z
Si Si1 0.192126 0.428014 0.553296
Si Si2 0.382801 0.429631 0.111745
Si Si3 0.952218 0.426294 0.552762
Si Si4 0.837029 0.579548 0.705497
Si Si5 0.289583 0.079473 0.714542
Si Si6 0.758267 0.420468 0.365598
O O1 0.196871 0.500000 0.500000
O O2 0.189099 0.250000 0.550731
O O3 0.151745 0.496513 0.577886
O O4 0.228596 0.478311 0.588875
O O5 0.380479 0.250000 0.107367
O O6 0.424973 0.492463 0.092892
O O7 0.372116 0.468624 0.168169
O O8 0.943006 0.500000 0.500000
O O9 0.943382 0.250000 0.551132
O O10 0.000000 0.445111 0.561633
O O11 0.843802 0.750000 0.720647
O O12 0.825918 0.482221 0.752406
O O13 0.797249 0.578691 0.670623
O O14 0.295957 0.250000 0.700708
O O15 0.250000 0.074294 0.750000
O O16 0.278072 0.982799 0.667223
O O17 0.751762 0.250000 0.380797
#
# Coordination Sequence:
#
# PCOD9535321 Si02
#       6
#    16  16  16  16  16  16
#     4  11  20  29  39  51  68  88 112 140 171 205
#     4  10  19  30  42  55  70  87 108 135 170 208
#     4  10  20  32  44  56  69  86 109 137 170 208
#     4   8  15  25  36  50  67  86 105 128 160 197
#     4   9  15  22  34  51  68  86 107 130 157 191
#     4   9  16  26  37  49  66  87 110 134 162 195
#
# _framework density 11.813466
#
# number of rings (size 3 to 8) (size 9 to 14) (size 15 to 20)
#    0.000    2.500    0.000    5.000    0.000    7.667 
#    0.000    0.000    0.000    0.000    0.000    0.000 
#    0.000    0.000    0.000    0.000    0.000    0.000 
#
# Total GULP energy -267397.157669 kJ/mol
# GULP energy per Si atom -5570.774118 kJ/mol
# Density = 1.178658 g / cm^3
# Si number density = 11.813466 Si / 1000 Ang^3
#
#
#
# Elastic Constant Matrix: (Units=GPa)
#
#
# Indices 1 2 3 4 5 6 
#
# 1 35.9291 25.5820 23.9422 0.0000 0.0000 0.0000
# 2 25.5820 81.4034 29.6152 0.0000 0.0000 0.0000
# 3 23.9422 29.6152 36.2660 0.0000 0.0000 0.0000
# 4 0.0000 0.0000 0.0000 20.0093 0.0000 0.0000
# 5 0.0000 0.0000 0.0000 0.0000 22.4599 0.0000
# 6 0.0000 0.0000 0.0000 0.0000 0.0000 15.0914
#
#
#
# Elastic Compliance Matrix: (Units=1/GPa)
#
#
# Indices 1 2 3 4 5 6 
#
# 1 0.051315 -0.005408 -0.029461 0.000000 0.000000 0.000000
# 2 -0.005408 0.018047 -0.011167 0.000000 0.000000 0.000000
# 3 -0.029461 -0.011167 0.056143 0.000000 0.000000 0.000000
# 4 0.000000 0.000000 0.000000 0.049977 0.000000 0.000000
# 5 0.000000 0.000000 0.000000 0.000000 0.044524 0.000000
# 6 0.000000 0.000000 0.000000 0.000000 0.000000 0.066263
#
#
# Mechanical properties :
#
#
# Convention : Reuss Voigt Hill
#
# Bulk Modulus (GPa) = 29.91094 34.65302 32.28198
# Shear Modulus (GPa) = 12.83749 16.47607 14.65678
#
# Velocity S-wave (km/s) = 3.30006 3.73860 3.52616
# Velocity P-wave (km/s) = 6.31624 6.93061 6.63054
#
# Compressibility (1/GPa) = 0.03343258
#
# Stress axis : x y z
#
# Youngs Moduli (GPa) = 19.48731 55.41208 17.81181
#
# Poissons Ratio (x) = 0.29969 0.52476
# Poissons Ratio (y) = 0.10539 0.19890
# Poissons Ratio (z) = 0.57412 0.61876
#
# Static dielectric constant tensor:
#      x y z
#    x 1.371840 0.000000 0.000000 
#    y 0.000000 1.395770 0.000000 
#    z 0.000000 0.000000 1.376530 
# 
# From -- ./inp_files/64929.got.cif
#   From: 2010.05.17/outbox.cif.g08.bks.cpg/sg74_33_cif.got.tgz:64929.got - 2010.06.03 17:57:02.
