data_PCOD9535957
_publ_section_title
;
Structure prediction by ZEFSAII (Michael W. Deem and Ramdas Pophale) SiO2 
 PCOD9535957
Probable space group: I M M A
;
_chemical_formula_sum "Si O2"
_cell_formula_units_Z 72
_cell_length_a 18.222455
_cell_length_b 23.155313
_cell_length_c 10.269269
_cell_angle_alpha 90.000000
_cell_angle_beta 90.000000
_cell_angle_gamma 90.000000
_cell_volume 4333.083644
_symmetry_space_group_name_H-M "I M M A"
_symmetry_group_IT_number 74
_symmetry_cell_setting 'orthorhombic'
loop_
_space_group_symop_operation_xyz
x,y,z
-x,1/2-y,z
x,-y,-z
-x,1/2+y,-z
-x,-y,-z
x,1/2+y,-z
-x,y,z
x,1/2-y,z
1/2+x,1/2+y,1/2+z
1/2-x,-y,1/2+z
1/2+x,1/2-y,1/2-z
1/2-x,y,1/2-z
1/2-x,1/2-y,1/2-z
1/2+x,y,1/2-z
1/2-x,1/2+y,1/2+z
1/2+x,-y,1/2+z
loop_
_atom_site_type_symbol
_atom_site_label
_atom_site_fract_x
_atom_site_fract_y
_atom_site_fract_z
Si Si1 0.586873 0.914429 0.180826
Si Si2 0.800229 0.182005 0.621924
Si Si3 0.323292 0.000000 0.000000
Si Si4 0.269734 0.891419 0.602555
Si Si5 0.416744 0.069000 0.512260
O O1 0.500000 0.915614 0.154974
O O2 0.626396 0.855990 0.134694
O O3 0.598166 0.918069 0.336079
O O4 0.626999 0.967239 0.106964
O O5 0.814210 0.250000 0.612623
O O6 0.750000 0.171424 0.750000
O O7 0.757613 0.157205 0.497320
O O8 0.272514 0.049176 0.064286
O O9 0.250000 0.877097 0.750000
O O10 0.355520 0.902521 0.577661
O O11 0.500000 0.087179 0.480726
O O12 0.412798 0.000000 0.500000
#
# Coordination Sequence:
#
# PCOD9535957 Si02
#       5
#    16  16   8  16  16
#     4  10  20  35  55  82 113 146 184 227 276 333
#     4  10  21  38  58  79 107 143 192 239 270 322
#     4  10  21  30  55  82 118 146 182 218 273 340
#     4  11  21  34  56  82 112 150 183 228 273 330
#     4  10  19  32  52  79 114 146 179 220 273 334
#
# _framework density 16.616342
#
# number of rings (size 3 to 8) (size 9 to 14) (size 15 to 20)
#    0.000    1.778    3.333    1.667    0.000    0.889 
#    0.000    4.444    0.000    0.667    0.000    0.000 
#    0.000    0.000    0.000    0.000    0.000    0.000 
#
# Total GULP energy -200942.535607 kJ/mol
# GULP energy per Si atom -5581.737100 kJ/mol
# Density = 1.657852 g / cm^3
# Si number density = 16.616342 Si / 1000 Ang^3
#
#
#
# Elastic Constant Matrix: (Units=GPa)
#
#
# Indices 1 2 3 4 5 6 
#
# 1 119.3506 35.5443 61.7925 0.0000 0.0000 0.0000
# 2 35.5443 77.1559 33.8792 0.0000 0.0000 0.0000
# 3 61.7925 33.8792 118.8421 0.0000 0.0000 0.0000
# 4 0.0000 0.0000 0.0000 19.1440 0.0000 0.0000
# 5 0.0000 0.0000 0.0000 0.0000 24.5499 0.0000
# 6 0.0000 0.0000 0.0000 0.0000 0.0000 13.4505
#
#
#
# Elastic Compliance Matrix: (Units=1/GPa)
#
#
# Indices 1 2 3 4 5 6 
#
# 1 0.012127 -0.003221 -0.005387 0.000000 0.000000 0.000000
# 2 -0.003221 0.015671 -0.002793 0.000000 0.000000 0.000000
# 3 -0.005387 -0.002793 0.012012 0.000000 0.000000 0.000000
# 4 0.000000 0.000000 0.000000 0.052236 0.000000 0.000000
# 5 0.000000 0.000000 0.000000 0.000000 0.040733 0.000000
# 6 0.000000 0.000000 0.000000 0.000000 0.000000 0.074347
#
#
# Mechanical properties :
#
#
# Convention : Reuss Voigt Hill
#
# Bulk Modulus (GPa) = 58.79657 64.19783 61.49720
# Shear Modulus (GPa) = 21.22265 23.70437 22.46351
#
# Velocity S-wave (km/s) = 3.57769 3.78109 3.68080
# Velocity P-wave (km/s) = 7.24763 7.60141 7.42663
#
# Compressibility (1/GPa) = 0.01700779
#
# Stress axis : x y z
#
# Youngs Moduli (GPa) = 82.45911 63.81239 83.25166
#
# Poissons Ratio (x) = 0.20555 0.44850
# Poissons Ratio (y) = 0.26562 0.23248
# Poissons Ratio (z) = 0.44423 0.17820
#
# Static dielectric constant tensor:
#      x y z
#    x 1.560860 0.000000 0.000000 
#    y 0.000000 1.525700 0.000000 
#    z 0.000000 0.000000 1.550940 
# 
# From -- ./inp_files/10656.got.cif
#   From: 2010.05.17/outbox.cif.g08.bks.cpg/sg74_6_cif.got.tgz:10656.got - 2010.06.03 17:57:02.
