data_PCOD9535992
_publ_section_title
;
Structure prediction by ZEFSAII (Michael W. Deem and Ramdas Pophale) SiO2 
 PCOD9535992
Probable space group: I M M A
;
_chemical_formula_sum "Si O2"
_cell_formula_units_Z 104
_cell_length_a 19.418311
_cell_length_b 9.308460
_cell_length_c 31.059914
_cell_angle_alpha 90.000000
_cell_angle_beta 90.000000
_cell_angle_gamma 90.000000
_cell_volume 5614.221437
_symmetry_space_group_name_H-M "I M M A"
_symmetry_group_IT_number 74
_symmetry_cell_setting 'orthorhombic'
loop_
_space_group_symop_operation_xyz
x,y,z
-x,1/2-y,z
x,-y,-z
-x,1/2+y,-z
-x,-y,-z
x,1/2+y,-z
-x,y,z
x,1/2-y,z
1/2+x,1/2+y,1/2+z
1/2-x,-y,1/2+z
1/2+x,1/2-y,1/2-z
1/2-x,y,1/2-z
1/2-x,1/2-y,1/2-z
1/2+x,y,1/2-z
1/2-x,1/2+y,1/2+z
1/2+x,-y,1/2+z
loop_
_atom_site_type_symbol
_atom_site_label
_atom_site_fract_x
_atom_site_fract_y
_atom_site_fract_z
Si Si1 0.827145 0.583090 0.231358
Si Si2 0.581656 0.417640 0.198983
Si Si3 0.686638 0.000000 0.500000
Si Si4 0.277034 0.413366 0.920908
Si Si5 0.176743 0.076420 0.140613
Si Si6 0.575717 0.917019 0.569072
Si Si7 0.077362 0.079342 0.608766
O O1 0.847130 0.750000 0.225252
O O2 0.750000 0.580723 0.250000
O O3 0.876327 0.504614 0.265465
O O4 0.826401 0.496804 0.186752
O O5 0.500000 0.423710 0.208560
O O6 0.602507 0.250000 0.197940
O O7 0.590905 0.491016 0.152371
O O8 0.737075 0.077564 0.533781
O O9 0.632241 0.077367 0.468591
O O10 0.268928 0.250000 0.904430
O O11 0.241765 0.521194 0.887140
O O12 0.358458 0.445176 0.923004
O O13 0.177554 0.250000 0.143777
O O14 0.111691 0.023405 0.111861
O O15 0.500000 0.979303 0.558839
O O16 0.566772 0.750000 0.577947
O O17 0.077329 0.250000 0.618954
O O18 0.000000 0.043090 0.593147
#
# Coordination Sequence:
#
# PCOD9535992 Si02
#       7
#    16  16   8  16  16  16  16
#     4  11  23  37  54  78 109 145 184 224 267 319
#     4  10  21  36  55  80 108 139 179 226 272 319
#     4  10  19  32  53  80 106 136 174 214 259 314
#     4  10  20  35  55  78 106 138 174 218 266 321
#     4  10  21  35  53  78 107 140 178 221 270 319
#     4   9  18  33  52  74 102 136 173 213 257 306
#     4   9  18  34  55  77 103 138 177 216 263 319
#
# _framework density 18.524386
#
# number of rings (size 3 to 8) (size 9 to 14) (size 15 to 20)
#    0.000    2.154    0.000    3.000    0.000    7.692 
#    0.000    1.923    0.000    8.769    0.000    0.000 
#    0.000    0.000    0.000    0.000    0.000    0.000 
#
# Total GULP energy -289703.708818 kJ/mol
# GULP energy per Si atom -5571.225170 kJ/mol
# Density = 1.848222 g / cm^3
# Si number density = 18.524386 Si / 1000 Ang^3
#
#
#
# Elastic Constant Matrix: (Units=GPa)
#
#
# Indices 1 2 3 4 5 6 
#
# 1 139.1350 47.6144 62.8513 0.0000 0.0000 0.0000
# 2 47.6144 72.1557 25.8192 0.0000 0.0000 0.0000
# 3 62.8513 25.8192 73.1898 0.0000 0.0000 0.0000
# 4 0.0000 0.0000 0.0000 23.6564 0.0000 0.0000
# 5 0.0000 0.0000 0.0000 0.0000 14.3900 0.0000
# 6 0.0000 0.0000 0.0000 0.0000 0.0000 25.0447
#
#
#
# Elastic Compliance Matrix: (Units=1/GPa)
#
#
# Indices 1 2 3 4 5 6 
#
# 1 0.013352 -0.005388 -0.009565 0.000000 0.000000 0.000000
# 2 -0.005388 0.018035 -0.001735 0.000000 0.000000 0.000000
# 3 -0.009565 -0.001735 0.022489 0.000000 0.000000 0.000000
# 4 0.000000 0.000000 0.000000 0.042272 0.000000 0.000000
# 5 0.000000 0.000000 0.000000 0.000000 0.069493 0.000000
# 6 0.000000 0.000000 0.000000 0.000000 0.000000 0.039929
#
#
# Mechanical properties :
#
#
# Convention : Reuss Voigt Hill
#
# Bulk Modulus (GPa) = 48.78184 61.89448 55.33816
# Shear Modulus (GPa) = 20.34335 22.49793 21.42064
#
# Velocity S-wave (km/s) = 3.31749 3.48875 3.40420
# Velocity P-wave (km/s) = 6.40823 7.05078 6.73717
#
# Compressibility (1/GPa) = 0.02049943
#
# Stress axis : x y z
#
# Youngs Moduli (GPa) = 74.89479 55.44650 44.46547
#
# Poissons Ratio (x) = 0.29875 0.42532
# Poissons Ratio (y) = 0.40354 0.07716
# Poissons Ratio (z) = 0.71639 0.09622
#
# Static dielectric constant tensor:
#      x y z
#    x 1.697220 0.000000 0.000000 
#    y 0.000000 1.639560 0.000000 
#    z 0.000000 0.000000 1.614410 
# 
# From -- ./inp_files/73381.got.cif
#   From: 2010.05.17/outbox.cif.g08.bks.cpg/sg74_37_cif.got.tgz:73381.got - 2010.06.03 17:57:02.
