data_PCOD9535103
_publ_section_title
;
Structure prediction by ZEFSAII (Michael W. Deem and Ramdas Pophale) SiO2 
 PCOD9535103
Probable space group: I M M A
;
_chemical_formula_sum "Si O2"
_cell_formula_units_Z 80
_cell_length_a 26.661086
_cell_length_b 13.556176
_cell_length_c 9.892793
_cell_angle_alpha 90.000000
_cell_angle_beta 90.000000
_cell_angle_gamma 90.000000
_cell_volume 3575.476733
_symmetry_space_group_name_H-M "I M M A"
_symmetry_group_IT_number 74
_symmetry_cell_setting 'orthorhombic'
loop_
_space_group_symop_operation_xyz
x,y,z
-x,1/2-y,z
x,-y,-z
-x,1/2+y,-z
-x,-y,-z
x,1/2+y,-z
-x,y,z
x,1/2-y,z
1/2+x,1/2+y,1/2+z
1/2-x,-y,1/2+z
1/2+x,1/2-y,1/2-z
1/2-x,y,1/2-z
1/2-x,1/2-y,1/2-z
1/2+x,y,1/2-z
1/2-x,1/2+y,1/2+z
1/2+x,-y,1/2+z
loop_
_atom_site_type_symbol
_atom_site_label
_atom_site_fract_x
_atom_site_fract_y
_atom_site_fract_z
Si Si1 0.590655 0.418487 0.819658
Si Si2 0.336345 0.856077 0.585622
Si Si3 0.440734 0.860487 0.883366
Si Si4 0.944514 0.884175 0.024574
Si Si5 0.306592 0.564074 0.295774
O O1 0.580826 0.537238 0.822747
O O2 0.566654 0.372833 0.684171
O O3 0.650400 0.402344 0.808245
O O4 0.568395 0.373956 0.955883
O O5 0.319063 0.750000 0.636610
O O6 0.396303 0.852026 0.560212
O O7 0.315318 0.878055 0.435496
O O8 0.319199 0.949389 0.672418
O O9 0.500000 0.862810 0.855564
O O10 0.421989 0.750000 0.845517
O O11 0.000000 0.848587 0.989049
O O12 0.945284 0.000000 0.000000
O O13 0.250000 0.575604 0.250000
#
# Coordination Sequence:
#
# PCOD9535103 Si02
#       5
#    16  16  16  16  16
#     4  10  19  37  57  80 111 151 188 234 277 335
#     4  10  21  39  58  86 117 144 184 236 288 342
#     4  10  21  35  54  83 116 150 187 229 277 331
#     4  10  18  34  59  86 116 153 187 223 282 347
#     4  10  22  41  59  80 110 149 188 240 290 335
#
# _framework density 22.374638999999998
#
# number of rings (size 3 to 8) (size 9 to 14) (size 15 to 20)
#    0.000    2.000    4.000    2.400    0.000    8.400 
#    0.000    2.000    0.000    0.000    0.000    0.000 
#    0.000    0.000    0.000    0.000    0.000    0.000 
#
# Total GULP energy -223471.346505 kJ/mol
# GULP energy per Si atom -5586.783663 kJ/mol
# Density = 2.232371 g / cm^3
# Si number density = 22.374639 Si / 1000 Ang^3
#
#
#
# Elastic Constant Matrix: (Units=GPa)
#
#
# Indices 1 2 3 4 5 6 
#
# 1 151.3019 5.1567 9.9914 0.0000 0.0000 0.0000
# 2 5.1567 101.9641 -5.1297 0.0000 0.0000 0.0000
# 3 9.9914 -5.1297 65.0214 0.0000 0.0000 0.0000
# 4 0.0000 0.0000 0.0000 -18.2873 0.0000 0.0000
# 5 0.0000 0.0000 0.0000 0.0000 5.0927 0.0000
# 6 0.0000 0.0000 0.0000 0.0000 0.0000 -24.1001
#
#
#
# Elastic Compliance Matrix: (Units=1/GPa)
#
#
# Indices 1 2 3 4 5 6 
#
# 1 0.006693 -0.000392 -0.001059 0.000000 0.000000 0.000000
# 2 -0.000392 0.009869 0.000839 0.000000 0.000000 0.000000
# 3 -0.001059 0.000839 0.015609 0.000000 0.000000 0.000000
# 4 0.000000 0.000000 0.000000 -0.054683 0.000000 0.000000
# 5 0.000000 0.000000 0.000000 0.000000 0.196359 0.000000
# 6 0.000000 0.000000 0.000000 0.000000 0.000000 -0.041494
#
#
# Mechanical properties :
#
#
# Convention : Reuss Voigt Hill
#
# Bulk Modulus (GPa) = 32.31435 37.59157 34.95296
# Shear Modulus (GPa) = 34.74806 13.09233 23.92020
#
# Velocity S-wave (km/s) = 3.94510 2.42159 3.27322
# Velocity P-wave (km/s) = 5.93511 4.96551 5.47183
#
# Compressibility (1/GPa) = 0.03094600
#
# Stress axis : x y z
#
# Youngs Moduli (GPa) = 149.41862 101.32343 64.06758
#
# Poissons Ratio (x) = 0.03969 0.06787
# Poissons Ratio (y) = 0.05854 -0.05374
# Poissons Ratio (z) = 0.15828 -0.08499
#
# Static dielectric constant tensor:
#      x y z
#    x 1.791600 0.000000 0.000000 
#    y 0.000000 1.914020 0.000000 
#    z 0.000000 0.000000 1.817150 
# 
# From -- ./inp_files/26089.got.cif
#   From: 2010.05.17/outbox.cif.g08.bks.cpg/sg74_14_cif.got.tgz:26089.got - 2010.06.03 17:57:02.
