data_PCOD9535351
_publ_section_title
;
Structure prediction by ZEFSAII (Michael W. Deem and Ramdas Pophale) SiO2 
 PCOD9535351
Probable space group: I M M A
;
_chemical_formula_sum "Si O2"
_cell_formula_units_Z 88
_cell_length_a 36.635375
_cell_length_b 19.330072
_cell_length_c 5.490351
_cell_angle_alpha 90.000000
_cell_angle_beta 90.000000
_cell_angle_gamma 90.000000
_cell_volume 3888.071322
_symmetry_space_group_name_H-M "I M M A"
_symmetry_group_IT_number 74
_symmetry_cell_setting 'orthorhombic'
loop_
_space_group_symop_operation_xyz
x,y,z
-x,1/2-y,z
x,-y,-z
-x,1/2+y,-z
-x,-y,-z
x,1/2+y,-z
-x,y,z
x,1/2-y,z
1/2+x,1/2+y,1/2+z
1/2-x,-y,1/2+z
1/2+x,1/2-y,1/2-z
1/2-x,y,1/2-z
1/2-x,1/2-y,1/2-z
1/2+x,y,1/2-z
1/2-x,1/2+y,1/2+z
1/2+x,-y,1/2+z
loop_
_atom_site_type_symbol
_atom_site_label
_atom_site_fract_x
_atom_site_fract_y
_atom_site_fract_z
Si Si1 0.793064 0.333673 0.733434
Si Si2 0.128729 0.500000 0.000000
Si Si3 0.000000 0.044559 0.752197
Si Si4 0.428045 0.874558 0.394221
Si Si5 0.905696 0.353357 0.395525
Si Si6 0.824544 0.829068 0.764054
Si Si7 0.871970 0.000000 0.500000
O O1 0.799419 0.250000 0.724404
O O2 0.750000 0.344934 0.750000
O O3 0.807671 0.362215 0.477865
O O4 0.814058 0.359546 0.974181
O O5 0.101775 0.434645 0.955657
O O6 0.150202 0.501708 0.749034
O O7 0.000000 0.000000 0.500000
O O8 0.035885 0.091232 0.781743
O O9 0.000000 0.000000 0.000000
O O10 0.433227 0.843850 0.667941
O O11 0.413862 0.827605 0.169621
O O12 0.867466 0.326970 0.288284
O O13 0.898321 0.434412 0.457150
O O14 0.810308 0.750000 0.774883
#
# Coordination Sequence:
#
# PCOD9535351 Si02
#       7
#    16   8   8  16  16  16   8
#     4   9  17  30  49  75 106 132 156 198 255 306
#     4   8  14  25  40  58  84 115 150 177 234 283
#     4  12  22  30  48  72  99 132 165 198 264 319
#     4  10  19  30  44  66  95 129 160 201 247 304
#     4  10  19  32  47  68  99 132 165 204 247 298
#     4  10  19  31  50  76 102 132 169 204 247 303
#     4   8  16  26  42  61  88 123 152 189 234 287
#
# _framework density 22.633327999999999
#
# number of rings (size 3 to 8) (size 9 to 14) (size 15 to 20)
#    0.000    2.364    0.909    2.727    5.091    2.182 
#    0.000    0.000    0.000    0.000    0.000    6.364 
#    0.000    0.000    0.000    0.000    0.000    0.000 
#
# Total GULP energy -245043.656859 kJ/mol
# GULP energy per Si atom -5569.174020 kJ/mol
# Density = 2.258181 g / cm^3
# Si number density = 22.633328 Si / 1000 Ang^3
#
#
#
# Elastic Constant Matrix: (Units=GPa)
#
#
# Indices 1 2 3 4 5 6 
#
# 1 49.1498 6.4990 41.2683 0.0008 -0.0011 -0.0002
# 2 6.4990 56.2961 25.9714 0.0001 0.0000 0.0001
# 3 41.2683 25.9714 255.3373 -0.0022 0.0006 -0.0018
# 4 0.0008 0.0001 -0.0022 -9.5266 -0.0003 0.0034
# 5 -0.0011 0.0000 0.0006 -0.0003 34.9644 0.0003
# 6 -0.0002 0.0001 -0.0018 0.0034 0.0003 8.8731
#
#
#
# Elastic Compliance Matrix: (Units=1/GPa)
#
#
# Indices 1 2 3 4 5 6 
#
# 1 0.023595 -0.001012 -0.003711 0.000003 0.000001 0.000000
# 2 -0.001012 0.018681 -0.001737 0.000001 0.000000 -0.000001
# 3 -0.003711 -0.001737 0.004693 -0.000001 0.000000 0.000001
# 4 0.000003 0.000001 -0.000001 -0.104969 -0.000001 0.000041
# 5 0.000001 0.000000 0.000000 -0.000001 0.028601 -0.000001
# 6 0.000000 -0.000001 0.000001 0.000041 -0.000001 0.112700
#
#
# Mechanical properties :
#
#
# Convention : Reuss Voigt Hill
#
# Bulk Modulus (GPa) = 29.36787 56.47337 42.92062
# Shear Modulus (GPa) = 46.48155 25.99847 36.24001
#
# Velocity S-wave (km/s) = 4.53667 3.39290 4.00581
# Velocity P-wave (km/s) = 6.35968 6.35253 6.35610
#
# Compressibility (1/GPa) = 0.03405082
#
# Stress axis : x y z
#
# Youngs Moduli (GPa) = 42.38120 53.52972 213.09516
#
# Poissons Ratio (x) = 0.05418 0.79071
# Poissons Ratio (y) = 0.04289 0.37005
# Poissons Ratio (z) = 0.15726 0.09296
#
# Static dielectric constant tensor:
#      x y z
#    x 1.758180 0.000010 -0.000010 
#    y 0.000010 2.053060 -0.000010 
#    z -0.000010 -0.000010 2.039930 
# 
# From -- ./inp_files/4645.got.cif
#   From: 2010.05.17/outbox.cif.g08.bks.cpg/sg74_3_cif.got.tgz:4645.got - 2010.06.03 17:57:02.
