data_PCOD9535899
_publ_section_title
;
Structure prediction by ZEFSAII (Michael W. Deem and Ramdas Pophale) SiO2 
 PCOD9535899
Probable space group: I M M A
;
_chemical_formula_sum "Si O2"
_cell_formula_units_Z 112
_cell_length_a 25.324634
_cell_length_b 14.214034
_cell_length_c 15.881395
_cell_angle_alpha 90.000000
_cell_angle_beta 90.000000
_cell_angle_gamma 90.000000
_cell_volume 5716.749666
_symmetry_space_group_name_H-M "I M M A"
_symmetry_group_IT_number 74
_symmetry_cell_setting 'orthorhombic'
loop_
_space_group_symop_operation_xyz
x,y,z
-x,1/2-y,z
x,-y,-z
-x,1/2+y,-z
-x,-y,-z
x,1/2+y,-z
-x,y,z
x,1/2-y,z
1/2+x,1/2+y,1/2+z
1/2-x,-y,1/2+z
1/2+x,1/2-y,1/2-z
1/2-x,y,1/2-z
1/2-x,1/2-y,1/2-z
1/2+x,y,1/2-z
1/2-x,1/2+y,1/2+z
1/2+x,-y,1/2+z
loop_
_atom_site_type_symbol
_atom_site_label
_atom_site_fract_x
_atom_site_fract_y
_atom_site_fract_z
Si Si1 0.438724 0.862135 0.781180
Si Si2 0.209972 0.648190 0.673953
Si Si3 0.214964 0.145894 0.834525
Si Si4 0.360674 0.006861 0.747106
Si Si5 0.589821 0.642441 0.971680
Si Si6 0.059610 0.363550 0.651755
Si Si7 0.713689 0.889144 0.003771
O O1 0.500000 0.883218 0.768748
O O2 0.431839 0.750000 0.771166
O O3 0.401632 0.924854 0.721561
O O4 0.423518 0.891256 0.877825
O O5 0.180264 0.750000 0.675379
O O6 0.250000 0.650566 0.750000
O O7 0.177340 0.552873 0.690126
O O8 0.238350 0.644229 0.584263
O O9 0.189406 0.250000 0.836565
O O10 0.250000 0.141185 0.750000
O O11 0.173750 0.060480 0.823155
O O12 0.254457 0.139995 0.913885
O O13 0.394973 0.085326 0.795472
O O14 0.571141 0.750000 0.968568
O O15 0.563469 0.601074 0.054990
O O16 0.652354 0.640993 0.993689
O O17 0.068032 0.250000 0.652293
O O18 0.000000 0.381561 0.682847
O O19 0.713274 0.000000 0.000000
#
# Coordination Sequence:
#
# PCOD9535899 Si02
#       7
#    16  16  16  16  16  16  16
#     4  10  21  35  53  80 115 154 198 249 307 371
#     4  11  23  39  60  87 118 152 193 244 305 371
#     4  11  24  39  55  79 114 160 213 259 297 344
#     4  12  21  36  54  78 111 155 201 250 295 353
#     4  10  19  32  51  77 110 150 194 239 294 360
#     4  10  21  35  51  74 108 151 198 246 296 352
#     4  12  22  36  58  86 117 161 204 247 296 364
#
# _framework density 19.591552
#
# number of rings (size 3 to 8) (size 9 to 14) (size 15 to 20)
#    0.000    1.143    1.429    6.857    0.000    4.000 
#    0.000    1.429    0.000    0.000    0.000    0.000 
#    0.000   20.571    0.000   57.714    0.000    0.857 
#
# Total GULP energy -312478.576060 kJ/mol
# GULP energy per Si atom -5579.974572 kJ/mol
# Density = 1.954696 g / cm^3
# Si number density = 19.591552 Si / 1000 Ang^3
#
#
#
# Elastic Constant Matrix: (Units=GPa)
#
#
# Indices 1 2 3 4 5 6 
#
# 1 89.4653 36.6965 45.1663 0.0000 0.0000 0.0000
# 2 36.6965 125.4067 16.0490 0.0000 0.0000 0.0000
# 3 45.1663 16.0490 80.9593 0.0000 0.0000 0.0000
# 4 0.0000 0.0000 0.0000 22.7155 0.0000 0.0000
# 5 0.0000 0.0000 0.0000 0.0000 20.4065 0.0000
# 6 0.0000 0.0000 0.0000 0.0000 0.0000 40.5922
#
#
#
# Elastic Compliance Matrix: (Units=1/GPa)
#
#
# Indices 1 2 3 4 5 6 
#
# 1 0.017250 -0.003915 -0.008847 0.000000 0.000000 0.000000
# 2 -0.003915 0.009070 0.000386 0.000000 0.000000 0.000000
# 3 -0.008847 0.000386 0.017211 0.000000 0.000000 0.000000
# 4 0.000000 0.000000 0.000000 0.044023 0.000000 0.000000
# 5 0.000000 0.000000 0.000000 0.000000 0.049004 0.000000
# 6 0.000000 0.000000 0.000000 0.000000 0.000000 0.024635
#
#
# Mechanical properties :
#
#
# Convention : Reuss Voigt Hill
#
# Bulk Modulus (GPa) = 53.25244 54.62831 53.94038
# Shear Modulus (GPa) = 26.01368 29.93748 27.97558
#
# Velocity S-wave (km/s) = 3.64785 3.91331 3.78291
# Velocity P-wave (km/s) = 6.70692 6.95434 6.83175
#
# Compressibility (1/GPa) = 0.01877848
#
# Stress axis : x y z
#
# Youngs Moduli (GPa) = 57.97039 110.24916 58.10168
#
# Poissons Ratio (x) = 0.43168 0.51405
# Poissons Ratio (y) = 0.22698 -0.02245
# Poissons Ratio (z) = 0.51289 -0.04259
#
# Static dielectric constant tensor:
#      x y z
#    x 1.746090 0.000000 0.000000 
#    y 0.000000 1.792780 0.000000 
#    z 0.000000 0.000000 1.681720 
# 
# From -- ./inp_files/32959.got.cif
#   From: 2010.05.17/outbox.cif.g08.bks.cpg/sg74_17_cif.got.tgz:32959.got - 2010.06.03 17:57:02.
