data_PCOD9535545
_publ_section_title
;
Structure prediction by ZEFSAII (Michael W. Deem and Ramdas Pophale) SiO2 
 PCOD9535545
Probable space group: I M M A
;
_chemical_formula_sum "Si O2"
_cell_formula_units_Z 116
_cell_length_a 31.448676
_cell_length_b 8.045833
_cell_length_c 27.419110
_cell_angle_alpha 90.000000
_cell_angle_beta 90.000000
_cell_angle_gamma 90.000000
_cell_volume 6937.879206
_symmetry_space_group_name_H-M "I M M A"
_symmetry_group_IT_number 74
_symmetry_cell_setting 'orthorhombic'
loop_
_space_group_symop_operation_xyz
x,y,z
-x,1/2-y,z
x,-y,-z
-x,1/2+y,-z
-x,-y,-z
x,1/2+y,-z
-x,y,z
x,1/2-y,z
1/2+x,1/2+y,1/2+z
1/2-x,-y,1/2+z
1/2+x,1/2-y,1/2-z
1/2-x,y,1/2-z
1/2-x,1/2-y,1/2-z
1/2+x,y,1/2-z
1/2-x,1/2+y,1/2+z
1/2+x,-y,1/2+z
loop_
_atom_site_type_symbol
_atom_site_label
_atom_site_fract_x
_atom_site_fract_y
_atom_site_fract_z
Si Si1 0.202270 0.947658 0.055834
Si Si2 0.500000 0.750000 0.188887
Si Si3 0.265311 0.552753 0.860770
Si Si4 0.345792 0.938892 0.188262
Si Si5 0.548168 0.051856 0.327968
Si Si6 0.132992 0.054103 0.868438
Si Si7 0.194061 0.057131 0.213652
Si Si8 0.936576 0.056100 0.286963
O O1 0.204552 0.750000 0.057695
O O2 0.158186 0.997987 0.082826
O O3 0.240705 0.013916 0.089317
O O4 0.204103 0.000000 0.000000
O O5 0.463474 0.597625 0.191058
O O6 0.267599 0.750000 0.855351
O O7 0.312381 0.483152 0.854016
O O8 0.234363 0.491517 0.816889
O O9 0.359376 0.750000 0.183481
O O10 0.319281 0.962423 0.238172
O O11 0.388287 0.046043 0.193896
O O12 0.500000 0.988582 0.334163
O O13 0.547909 0.250000 0.335031
O O14 0.561394 0.023246 0.271565
O O15 0.583051 0.976601 0.363963
O O16 0.141076 0.250000 0.860685
O O17 0.155336 0.956011 0.824457
O O18 0.201136 0.250000 0.226680
O O19 0.951178 0.250000 0.293911
#
# Coordination Sequence:
#
# PCOD9535545 Si02
#       8
#    16   4  16  16  16  16  16  16
#     4  10  21  38  57  78  99 127 166 212 264 320
#     4  12  22  36  52  74  94 144 198 216 268 306
#     4  10  21  35  51  73 100 135 173 212 263 314
#     4  12  22  32  47  72 105 142 180 215 260 307
#     4  10  20  32  47  68  97 132 170 214 267 313
#     4  10  20  31  49  74  98 124 167 218 261 310
#     4  10  19  31  47  67  98 137 174 214 257 308
#     4  11  22  35  50  72 104 141 184 228 262 309
#
# _framework density 16.719806999999999
#
# number of rings (size 3 to 8) (size 9 to 14) (size 15 to 20)
#    0.000    1.517    2.759    3.517    0.966    5.241 
#    0.000    0.000    0.000    0.414    0.000    0.000 
#    0.000    0.000    0.000    0.621    3.586    1.103 
#
# Total GULP energy -323012.287481 kJ/mol
# GULP energy per Si atom -5569.177370 kJ/mol
# Density = 1.668175 g / cm^3
# Si number density = 16.719807 Si / 1000 Ang^3
#
#
#
# Elastic Constant Matrix: (Units=GPa)
#
#
# Indices 1 2 3 4 5 6 
#
# 1 129.4535 26.5531 45.1648 0.0000 0.0000 0.0000
# 2 26.5531 66.5491 8.9130 0.0000 0.0000 0.0000
# 3 45.1648 8.9130 40.7785 0.0000 0.0000 0.0000
# 4 0.0000 0.0000 0.0000 18.9272 0.0000 0.0000
# 5 0.0000 0.0000 0.0000 0.0000 4.0029 0.0000
# 6 0.0000 0.0000 0.0000 0.0000 0.0000 36.5887
#
#
#
# Elastic Compliance Matrix: (Units=1/GPa)
#
#
# Indices 1 2 3 4 5 6 
#
# 1 0.013311 -0.003437 -0.013992 0.000000 0.000000 0.000000
# 2 -0.003437 0.016367 0.000230 0.000000 0.000000 0.000000
# 3 -0.013992 0.000230 0.039970 0.000000 0.000000 0.000000
# 4 0.000000 0.000000 0.000000 0.052834 0.000000 0.000000
# 5 0.000000 0.000000 0.000000 0.000000 0.249818 0.000000
# 6 0.000000 0.000000 0.000000 0.000000 0.000000 0.027331
#
#
# Mechanical properties :
#
#
# Convention : Reuss Voigt Hill
#
# Bulk Modulus (GPa) = 28.36963 44.22699 36.29831
# Shear Modulus (GPa) = 11.21629 22.31379 16.76504
#
# Velocity S-wave (km/s) = 2.59287 3.65714 3.16999
# Velocity P-wave (km/s) = 5.09592 6.65899 5.92919
#
# Compressibility (1/GPa) = 0.03524896
#
# Stress axis : x y z
#
# Youngs Moduli (GPa) = 75.12307 61.09774 25.01897
#
# Poissons Ratio (x) = 0.21001 0.35007
# Poissons Ratio (y) = 0.25822 -0.00575
# Poissons Ratio (z) = 1.05113 -0.01403
#
# Static dielectric constant tensor:
#      x y z
#    x 1.619090 0.000000 0.000000 
#    y 0.000000 1.595760 0.000000 
#    z 0.000000 0.000000 1.515430 
# 
# From -- ./inp_files/62764.got.cif
#   From: 2010.05.17/outbox.cif.g08.bks.cpg/sg74_32_cif.got.tgz:62764.got - 2010.06.03 17:57:02.
