data_PCOD9535144
_publ_section_title
;
Structure prediction by ZEFSAII (Michael W. Deem and Ramdas Pophale) SiO2 
 PCOD9535144
Probable space group: I M M A
;
_chemical_formula_sum "Si O2"
_cell_formula_units_Z 96
_cell_length_a 13.680674
_cell_length_b 15.213105
_cell_length_c 21.314071
_cell_angle_alpha 90.000000
_cell_angle_beta 90.000000
_cell_angle_gamma 90.000000
_cell_volume 4436.002324
_symmetry_space_group_name_H-M "I M M A"
_symmetry_group_IT_number 74
_symmetry_cell_setting 'orthorhombic'
loop_
_space_group_symop_operation_xyz
x,y,z
-x,1/2-y,z
x,-y,-z
-x,1/2+y,-z
-x,-y,-z
x,1/2+y,-z
-x,y,z
x,1/2-y,z
1/2+x,1/2+y,1/2+z
1/2-x,-y,1/2+z
1/2+x,1/2-y,1/2-z
1/2-x,y,1/2-z
1/2-x,1/2-y,1/2-z
1/2+x,y,1/2-z
1/2-x,1/2+y,1/2+z
1/2+x,-y,1/2+z
loop_
_atom_site_type_symbol
_atom_site_label
_atom_site_fract_x
_atom_site_fract_y
_atom_site_fract_z
Si Si1 0.183832 0.593444 0.969140
Si Si2 0.611472 0.597318 0.801289
Si Si3 0.392526 0.094207 0.862185
Si Si4 0.752935 0.250000 0.675566
Si Si5 0.827648 0.851420 0.832783
Si Si6 0.615494 0.750000 0.440336
Si Si7 0.893591 0.143772 0.494933
O O1 0.142254 0.608908 0.899825
O O2 0.163445 0.500000 0.000000
O O3 0.151376 0.666794 0.018984
O O4 0.300119 0.607746 0.960090
O O5 0.500000 0.630192 0.813882
O O6 0.619623 0.500800 0.831736
O O7 0.708862 0.647500 0.824705
O O8 0.627000 0.597082 0.726028
O O9 0.500000 0.127659 0.843207
O O10 0.311535 0.162481 0.842160
O O11 0.391496 0.096700 0.937597
O O12 0.750000 0.250000 0.750000
O O13 0.659953 0.250000 0.629491
O O14 0.859151 0.750000 0.829535
O O15 0.500000 0.750000 0.437404
O O16 0.884902 0.250000 0.503708
O O17 0.000000 0.126849 0.465705
#
# Coordination Sequence:
#
# PCOD9535144 Si02
#       7
#    16  16  16   8  16   8  16
#     4  12  24  44  73  99 136 180 226 286 343 400
#     4  10  23  40  64  97 134 172 224 286 335 398
#     4  10  19  37  64  95 131 168 210 263 334 405
#     4  12  25  39  70  97 132 182 214 268 332 390
#     4  11  24  42  67  95 129 179 228 274 340 402
#     4  12  28  51  70 100 141 180 235 285 327 397
#     4  10  18  35  66 101 136 174 215 266 343 422
#
# _framework density 21.641107000000002
#
# number of rings (size 3 to 8) (size 9 to 14) (size 15 to 20)
#    0.000    1.167    4.167    2.250    2.333    4.000 
#    0.000    1.667    0.000    0.000    0.000    0.000 
#    0.000    0.000    0.000    0.000    0.000    0.000 
#
# Total GULP energy -268340.902064 kJ/mol
# GULP energy per Si atom -5590.435460 kJ/mol
# Density = 2.159185 g / cm^3
# Si number density = 21.641107 Si / 1000 Ang^3
#
#
#
# Elastic Constant Matrix: (Units=GPa)
#
#
# Indices 1 2 3 4 5 6 
#
# 1 80.0170 14.4107 16.0411 0.0000 0.0000 0.0000
# 2 14.4107 105.4098 32.5179 0.0000 0.0000 0.0000
# 3 16.0411 32.5179 151.9522 0.0000 0.0000 0.0000
# 4 0.0000 0.0000 0.0000 7.1140 0.0000 0.0000
# 5 0.0000 0.0000 0.0000 0.0000 12.2163 0.0000
# 6 0.0000 0.0000 0.0000 0.0000 0.0000 -3.2630
#
#
#
# Elastic Compliance Matrix: (Units=1/GPa)
#
#
# Indices 1 2 3 4 5 6 
#
# 1 0.012970 -0.001446 -0.001060 0.000000 0.000000 0.000000
# 2 -0.001446 0.010319 -0.002056 0.000000 0.000000 0.000000
# 3 -0.001060 -0.002056 0.007133 0.000000 0.000000 0.000000
# 4 0.000000 0.000000 0.000000 0.140569 0.000000 0.000000
# 5 0.000000 0.000000 0.000000 0.000000 0.081858 0.000000
# 6 0.000000 0.000000 0.000000 0.000000 0.000000 -0.306462
#
#
# Mechanical properties :
#
#
# Convention : Reuss Voigt Hill
#
# Bulk Modulus (GPa) = 46.95139 51.47983 49.21561
# Shear Modulus (GPa) = -133.72218 21.50739 -56.10740
#
# Velocity S-wave (km/s) = -7.86924 3.15591 -5.09731
# Velocity P-wave (km/s) = 7.79898 6.09256 3.44273
#
# Compressibility (1/GPa) = 0.02129863
#
# Stress axis : x y z
#
# Youngs Moduli (GPa) = 77.09944 96.91232 140.19799
#
# Poissons Ratio (x) = 0.14016 0.14857
# Poissons Ratio (y) = 0.11151 0.28818
# Poissons Ratio (z) = 0.08170 0.19920
#
# Static dielectric constant tensor:
#      x y z
#    x 1.796230 0.000000 0.000000 
#    y 0.000000 1.353250 0.000000 
#    z 0.000000 0.000000 1.830500 
# 
# From -- ./inp_files/51950.got.cif
#   From: 2010.05.17/outbox.cif.g08.bks.cpg/sg74_26_cif.got.tgz:51950.got - 2010.06.03 17:57:02.
