data_PCOD9535915
_publ_section_title
;
Structure prediction by ZEFSAII (Michael W. Deem and Ramdas Pophale) SiO2 
 PCOD9535915
Probable space group: I M M A
;
_chemical_formula_sum "Si O2"
_cell_formula_units_Z 96
_cell_length_a 17.974208
_cell_length_b 19.719814
_cell_length_c 14.111594
_cell_angle_alpha 90.000000
_cell_angle_beta 90.000000
_cell_angle_gamma 90.000000
_cell_volume 5001.826814
_symmetry_space_group_name_H-M "I M M A"
_symmetry_group_IT_number 74
_symmetry_cell_setting 'orthorhombic'
loop_
_space_group_symop_operation_xyz
x,y,z
-x,1/2-y,z
x,-y,-z
-x,1/2+y,-z
-x,-y,-z
x,1/2+y,-z
-x,y,z
x,1/2-y,z
1/2+x,1/2+y,1/2+z
1/2-x,-y,1/2+z
1/2+x,1/2-y,1/2-z
1/2-x,y,1/2-z
1/2-x,1/2-y,1/2-z
1/2+x,y,1/2-z
1/2-x,1/2+y,1/2+z
1/2+x,-y,1/2+z
loop_
_atom_site_type_symbol
_atom_site_label
_atom_site_fract_x
_atom_site_fract_y
_atom_site_fract_z
Si Si1 0.329086 0.425590 0.451791
Si Si2 0.913522 0.476331 0.221981
Si Si3 0.324133 0.827180 0.209547
Si Si4 0.414311 0.875025 0.375703
Si Si5 0.414083 0.330518 0.971030
Si Si6 0.657488 0.942949 0.918743
O O1 0.334970 0.500000 0.500000
O O2 0.379553 0.427290 0.358212
O O3 0.361793 0.376167 0.532125
O O4 0.242951 0.418265 0.424816
O O5 0.910616 0.551154 0.175259
O O6 0.865107 0.472252 0.316946
O O7 0.000000 0.461503 0.242167
O O8 0.303617 0.750000 0.183904
O O9 0.250000 0.862451 0.250000
O O10 0.382924 0.826933 0.294359
O O11 0.361652 0.855085 0.115247
O O12 0.500000 0.862048 0.400936
O O13 0.500000 0.339202 0.942880
O O14 0.402812 0.250000 0.988184
O O15 0.394075 0.378501 0.057936
O O16 0.646705 0.000000 0.000000
#
# Coordination Sequence:
#
# PCOD9535915 Si02
#       6
#    16  16  16  16  16  16
#     4   9  19  34  51  73 103 136 166 203 258 314
#     4  10  20  33  51  76 104 133 168 211 258 306
#     4  10  20  33  50  73 102 136 172 209 251 303
#     4  10  19  32  52  75 101 133 169 210 255 304
#     4  10  21  36  52  73 106 143 171 201 254 317
#     4  11  21  33  54  81 105 131 171 219 256 294
#
# _framework density 19.192988
#
# number of rings (size 3 to 8) (size 9 to 14) (size 15 to 20)
#    0.000    2.000    0.000    4.000    0.000    8.333 
#    0.000    0.000    0.000    3.000    0.000    0.000 
#    0.000    0.000    0.000    0.000    0.000    0.000 
#
# Total GULP energy -267810.320216 kJ/mol
# GULP energy per Si atom -5579.381671 kJ/mol
# Density = 1.914930 g / cm^3
# Si number density = 19.192988 Si / 1000 Ang^3
#
#
#
# Elastic Constant Matrix: (Units=GPa)
#
#
# Indices 1 2 3 4 5 6 
#
# 1 102.6354 14.1144 31.3500 0.0000 0.0000 0.0000
# 2 14.1144 26.9509 -0.7674 0.0000 0.0000 0.0000
# 3 31.3500 -0.7674 82.2347 0.0000 0.0000 0.0000
# 4 0.0000 0.0000 0.0000 13.5349 0.0000 0.0000
# 5 0.0000 0.0000 0.0000 0.0000 36.1083 0.0000
# 6 0.0000 0.0000 0.0000 0.0000 0.0000 11.5184
#
#
#
# Elastic Compliance Matrix: (Units=1/GPa)
#
#
# Indices 1 2 3 4 5 6 
#
# 1 0.012051 -0.006444 -0.004654 0.000000 0.000000 0.000000
# 2 -0.006444 0.040560 0.002835 0.000000 0.000000 0.000000
# 3 -0.004654 0.002835 0.013961 0.000000 0.000000 0.000000
# 4 0.000000 0.000000 0.000000 0.073883 0.000000 0.000000
# 5 0.000000 0.000000 0.000000 0.000000 0.027694 0.000000
# 6 0.000000 0.000000 0.000000 0.000000 0.000000 0.086818
#
#
# Mechanical properties :
#
#
# Convention : Reuss Voigt Hill
#
# Bulk Modulus (GPa) = 19.98165 33.46834 26.72499
# Shear Modulus (GPa) = 17.35054 23.37391 20.36222
#
# Velocity S-wave (km/s) = 3.00993 3.49354 3.26071
# Velocity P-wave (km/s) = 4.74479 5.80936 5.30386
#
# Compressibility (1/GPa) = 0.05004592
#
# Stress axis : x y z
#
# Youngs Moduli (GPa) = 82.98044 24.65493 71.62758
#
# Poissons Ratio (x) = 0.15887 0.33338
# Poissons Ratio (y) = 0.53471 -0.20307
# Poissons Ratio (z) = 0.38622 -0.06990
#
# Static dielectric constant tensor:
#      x y z
#    x 1.693540 0.000000 0.000000 
#    y 0.000000 1.687770 0.000000 
#    z 0.000000 0.000000 1.655300 
# 
# From -- ./inp_files/22478.got.cif
#   From: 2010.05.17/outbox.cif.g08.bks.cpg/sg74_12_cif.got.tgz:22478.got - 2010.06.03 17:57:02.
