data_PCOD9535572
_publ_section_title
;
Structure prediction by ZEFSAII (Michael W. Deem and Ramdas Pophale) SiO2 
 PCOD9535572
Probable space group: I M M A
;
_chemical_formula_sum "Si O2"
_cell_formula_units_Z 64
_cell_length_a 28.331432
_cell_length_b 8.715869
_cell_length_c 15.027596
_cell_angle_alpha 90.000000
_cell_angle_beta 90.000000
_cell_angle_gamma 90.000000
_cell_volume 3710.810113
_symmetry_space_group_name_H-M "I M M A"
_symmetry_group_IT_number 74
_symmetry_cell_setting 'orthorhombic'
loop_
_space_group_symop_operation_xyz
x,y,z
-x,1/2-y,z
x,-y,-z
-x,1/2+y,-z
-x,-y,-z
x,1/2+y,-z
-x,y,z
x,1/2-y,z
1/2+x,1/2+y,1/2+z
1/2-x,-y,1/2+z
1/2+x,1/2-y,1/2-z
1/2-x,y,1/2-z
1/2-x,1/2-y,1/2-z
1/2+x,y,1/2-z
1/2-x,1/2+y,1/2+z
1/2+x,-y,1/2+z
loop_
_atom_site_type_symbol
_atom_site_label
_atom_site_fract_x
_atom_site_fract_y
_atom_site_fract_z
Si Si1 0.824207 0.932534 0.403651
Si Si2 0.945605 0.565039 0.903970
Si Si3 0.279542 0.434050 0.403643
Si Si4 0.635800 0.565153 0.730148
O O1 0.821893 0.750000 0.408927
O O2 0.837357 0.000000 0.500000
O O3 0.771857 0.997882 0.382649
O O4 0.858299 0.987039 0.325203
O O5 0.944014 0.750000 0.909035
O O6 0.910041 0.517627 0.826253
O O7 0.000000 0.518482 0.888001
O O8 0.931002 0.500000 0.000000
O O9 0.293649 0.500000 0.500000
O O10 0.275736 0.250000 0.409339
O O11 0.318475 0.472439 0.330164
O O12 0.634864 0.750000 0.741347
#
# Coordination Sequence:
#
# PCOD9535572 Si02
#       4
#    16  16  16  16
#     4  11  22  35  51  70  96 130 167 207 247 290
#     4   9  18  33  53  77 105 134 162 197 242 290
#     4  10  19  31  48  71 102 135 165 201 242 287
#     4  10  20  33  50  73 101 132 166 203 244 289
#
# _framework density 17.246908000000001
#
# number of rings (size 3 to 8) (size 9 to 14) (size 15 to 20)
#    0.000    2.000    0.000    6.000    0.000    6.000 
#    0.000    0.000    0.000    0.750    0.000    0.000 
#    0.000    0.000    0.000    0.000    0.000    0.000 
#
# Total GULP energy -178716.284861 kJ/mol
# GULP energy per Si atom -5584.883902 kJ/mol
# Density = 1.720765 g / cm^3
# Si number density = 17.246908 Si / 1000 Ang^3
#
#
#
# Elastic Constant Matrix: (Units=GPa)
#
#
# Indices 1 2 3 4 5 6 
#
# 1 78.0044 35.2407 87.1237 0.0000 0.0000 0.0000
# 2 35.2407 53.6293 49.0712 0.0000 0.0000 0.0000
# 3 87.1237 49.0712 137.0561 0.0000 0.0000 0.0000
# 4 0.0000 0.0000 0.0000 32.7575 0.0000 0.0000
# 5 0.0000 0.0000 0.0000 0.0000 29.3853 0.0000
# 6 0.0000 0.0000 0.0000 0.0000 0.0000 14.7126
#
#
#
# Elastic Compliance Matrix: (Units=1/GPa)
#
#
# Indices 1 2 3 4 5 6 
#
# 1 0.045111 -0.005063 -0.026864 0.000000 0.000000 0.000000
# 2 -0.005063 0.028300 -0.006914 0.000000 0.000000 0.000000
# 3 -0.026864 -0.006914 0.026848 0.000000 0.000000 0.000000
# 4 0.000000 0.000000 0.000000 0.030527 0.000000 0.000000
# 5 0.000000 0.000000 0.000000 0.000000 0.034031 0.000000
# 6 0.000000 0.000000 0.000000 0.000000 0.000000 0.067969
#
#
# Mechanical properties :
#
#
# Convention : Reuss Voigt Hill
#
# Bulk Modulus (GPa) = 44.29014 67.95123 56.12068
# Shear Modulus (GPa) = 15.72359 21.85469 18.78914
#
# Velocity S-wave (km/s) = 3.02267 3.56359 3.30422
# Velocity P-wave (km/s) = 6.15775 7.51111 6.86785
#
# Compressibility (1/GPa) = 0.02257839
#
# Stress axis : x y z
#
# Youngs Moduli (GPa) = 22.16742 35.33592 37.24632
#
# Poissons Ratio (x) = 0.17891 1.00057
# Poissons Ratio (y) = 0.11224 0.25752
# Poissons Ratio (z) = 0.59549 0.24431
#
# Static dielectric constant tensor:
#      x y z
#    x 1.584800 0.000000 0.000000 
#    y 0.000000 1.579930 0.000000 
#    z 0.000000 0.000000 1.577690 
# 
# From -- ./inp_files/17587.got.cif
#   From: 2010.05.17/outbox.cif.g08.bks.cpg/sg74_9_cif.got.tgz:17587.got - 2010.06.03 17:57:02.
