data_PCOD9535491
_publ_section_title
;
Structure prediction by ZEFSAII (Michael W. Deem and Ramdas Pophale) SiO2 
 PCOD9535491
Probable space group: I M M A
;
_chemical_formula_sum "Si O2"
_cell_formula_units_Z 104
_cell_length_a 8.851162
_cell_length_b 33.288366
_cell_length_c 20.442511
_cell_angle_alpha 90.000000
_cell_angle_beta 90.000000
_cell_angle_gamma 90.000000
_cell_volume 6023.196163
_symmetry_space_group_name_H-M "I M M A"
_symmetry_group_IT_number 74
_symmetry_cell_setting 'orthorhombic'
loop_
_space_group_symop_operation_xyz
x,y,z
-x,1/2-y,z
x,-y,-z
-x,1/2+y,-z
-x,-y,-z
x,1/2+y,-z
-x,y,z
x,1/2-y,z
1/2+x,1/2+y,1/2+z
1/2-x,-y,1/2+z
1/2+x,1/2-y,1/2-z
1/2-x,y,1/2-z
1/2-x,1/2-y,1/2-z
1/2+x,y,1/2-z
1/2-x,1/2+y,1/2+z
1/2+x,-y,1/2+z
loop_
_atom_site_type_symbol
_atom_site_label
_atom_site_fract_x
_atom_site_fract_y
_atom_site_fract_z
Si Si1 0.680103 0.250000 0.321779
Si Si2 0.181129 0.047032 0.678798
Si Si3 0.679359 0.903250 0.950219
Si Si4 0.319952 0.986540 0.573570
Si Si5 0.820089 0.186858 0.418655
Si Si6 0.181515 0.123982 0.597211
Si Si7 0.680630 0.794920 0.439385
O O1 0.500000 0.250000 0.318979
O O2 0.750000 0.250000 0.250000
O O3 0.739348 0.211743 0.362429
O O4 0.250000 0.040269 0.750000
O O5 0.223278 0.091292 0.651444
O O6 0.000000 0.044920 0.681273
O O7 0.241099 0.014598 0.626861
O O8 0.500000 0.912163 0.949000
O O9 0.769268 0.940400 0.921146
O O10 0.704773 0.860935 0.914277
O O11 0.722056 0.894916 0.026139
O O12 0.500000 0.990426 0.579761
O O13 0.275864 0.000000 0.500000
O O14 0.755159 0.200442 0.488896
O O15 0.000000 0.194223 0.417681
O O16 0.257901 0.167477 0.601845
O O17 0.000000 0.129309 0.596835
O O18 0.500000 0.798145 0.445875
O O19 0.716389 0.750000 0.414445
#
# Coordination Sequence:
#
# PCOD9535491 Si02
#       7
#     8  16  16  16  16  16  16
#     4  12  24  38  56  78 106 146 189 230 279 334
#     4  11  23  40  60  83 115 152 192 236 287 345
#     4   9  18  34  56  82 110 143 184 229 281 331
#     4  11  22  35  56  87 117 149 190 236 284 336
#     4  10  20  35  54  78 108 143 182 226 277 331
#     4   9  19  34  54  80 110 148 186 225 278 335
#     4  10  19  30  50  82 115 143 176 226 279 325
#
# _framework density 17.266580999999999
#
# number of rings (size 3 to 8) (size 9 to 14) (size 15 to 20)
#    0.000    1.846    2.308    3.462    0.000    5.846 
#    0.000    0.769    0.000    4.154    0.000    0.000 
#    0.000    0.000    0.000    0.000    0.000    0.000 
#
# Total GULP energy -290293.614423 kJ/mol
# GULP energy per Si atom -5582.569508 kJ/mol
# Density = 1.722728 g / cm^3
# Si number density = 17.266581 Si / 1000 Ang^3
#
#
#
# Elastic Constant Matrix: (Units=GPa)
#
#
# Indices 1 2 3 4 5 6 
#
# 1 73.1276 62.0418 46.9871 0.0000 0.0000 0.0000
# 2 62.0418 138.3019 58.6992 0.0000 0.0000 0.0000
# 3 46.9871 58.6992 98.9192 0.0000 0.0000 0.0000
# 4 0.0000 0.0000 0.0000 19.8753 0.0000 0.0000
# 5 0.0000 0.0000 0.0000 0.0000 21.4603 0.0000
# 6 0.0000 0.0000 0.0000 0.0000 0.0000 -1.4325
#
#
#
# Elastic Compliance Matrix: (Units=1/GPa)
#
#
# Indices 1 2 3 4 5 6 
#
# 1 0.025297 -0.008351 -0.007060 0.000000 0.000000 0.000000
# 2 -0.008351 0.012422 -0.003404 0.000000 0.000000 0.000000
# 3 -0.007060 -0.003404 0.015483 0.000000 0.000000 0.000000
# 4 0.000000 0.000000 0.000000 0.050314 0.000000 -0.000001
# 5 0.000000 0.000000 0.000000 0.000000 0.046598 0.000000
# 6 0.000000 0.000000 0.000000 -0.000001 0.000000 -0.698088
#
#
# Mechanical properties :
#
#
# Convention : Reuss Voigt Hill
#
# Bulk Modulus (GPa) = 64.22744 71.75611 67.99177
# Shear Modulus (GPa) = -9.89798 17.48866 3.79534
#
# Velocity S-wave (km/s) = -2.39685 3.18600 1.48420
# Velocity P-wave (km/s) = 5.44228 7.42847 6.51155
#
# Compressibility (1/GPa) = 0.01556967
#
# Stress axis : x y z
#
# Youngs Moduli (GPa) = 39.53114 80.50350 64.58702
#
# Poissons Ratio (x) = 0.67232 0.45600
# Poissons Ratio (y) = 0.33014 0.21987
# Poissons Ratio (z) = 0.27910 0.27405
#
# Static dielectric constant tensor:
#      x y z
#    x 1.576700 0.000000 0.000000 
#    y 0.000000 1.597690 0.000000 
#    z 0.000000 0.000000 1.557370 
# 
# From -- ./inp_files/49635.got.cif
#   From: 2010.05.17/outbox.cif.g08.bks.cpg/sg74_25_cif.got.tgz:49635.got - 2010.06.03 17:57:02.
