data_PCOD9535355
_publ_section_title
;
Structure prediction by ZEFSAII (Michael W. Deem and Ramdas Pophale) SiO2 
 PCOD9535355
Probable space group: I M M A
;
_chemical_formula_sum "Si O2"
_cell_formula_units_Z 80
_cell_length_a 19.981088
_cell_length_b 10.478617
_cell_length_c 25.497819
_cell_angle_alpha 90.000000
_cell_angle_beta 90.000000
_cell_angle_gamma 90.000000
_cell_volume 5338.584649
_symmetry_space_group_name_H-M "I M M A"
_symmetry_group_IT_number 74
_symmetry_cell_setting 'orthorhombic'
loop_
_space_group_symop_operation_xyz
x,y,z
-x,1/2-y,z
x,-y,-z
-x,1/2+y,-z
-x,-y,-z
x,1/2+y,-z
-x,y,z
x,1/2-y,z
1/2+x,1/2+y,1/2+z
1/2-x,-y,1/2+z
1/2+x,1/2-y,1/2-z
1/2-x,y,1/2-z
1/2-x,1/2-y,1/2-z
1/2+x,y,1/2-z
1/2-x,1/2+y,1/2+z
1/2+x,-y,1/2+z
loop_
_atom_site_type_symbol
_atom_site_label
_atom_site_fract_x
_atom_site_fract_y
_atom_site_fract_z
Si Si1 0.876474 0.250000 0.564396
Si Si2 0.257025 0.096852 0.336210
Si Si3 0.139587 0.596643 0.743769
Si Si4 0.500000 0.750000 0.865968
Si Si5 0.500000 0.250000 0.856185
Si Si6 0.120197 0.750000 0.553488
Si Si7 0.285973 0.501788 0.941000
Si Si8 0.000000 0.007362 0.289580
O O1 0.907357 0.250000 0.505773
O O2 0.829608 0.125236 0.567563
O O3 0.934308 0.250000 0.607231
O O4 0.257558 0.250000 0.344651
O O5 0.186884 0.066426 0.306451
O O6 0.315849 0.067953 0.294963
O O7 0.261508 0.024775 0.391288
O O8 0.128318 0.750000 0.742591
O O9 0.069024 0.525922 0.741920
O O10 0.564242 0.750000 0.902834
O O11 0.500000 0.624309 0.830725
O O12 0.500000 0.375372 0.820457
O O13 0.164943 0.624003 0.559493
O O14 0.256099 0.500000 0.000000
#
# Coordination Sequence:
#
# PCOD9535355 Si02
#       8
#     8  16  16   4   4   8  16   8
#     4  10  21  32  41  62  97 126 166 193 224 270
#     4   9  16  29  51  71  94 118 155 198 246 277
#     4   9  17  30  49  74  91 117 157 205 238 277
#     4  12  19  28  50  64  86 124 167 206 222 260
#     4  12  23  32  42  60  98 140 151 188 234 278
#     4  10  19  30  45  64  87 126 166 199 228 258
#     4  10  19  31  47  67  92 124 159 199 234 275
#     4  12  22  32  47  70  97 120 163 194 235 284
#
# _framework density 14.985246
#
# number of rings (size 3 to 8) (size 9 to 14) (size 15 to 20)
#    0.000    2.000    2.000    5.100    0.000    0.000 
#    0.000    5.000    0.000    3.600    0.000    0.700 
#    0.000    0.000    0.000    0.000    0.000    0.000 
#
# Total GULP energy -223077.895562 kJ/mol
# GULP energy per Si atom -5576.947389 kJ/mol
# Density = 1.495114 g / cm^3
# Si number density = 14.985246 Si / 1000 Ang^3
#
#
#
# Elastic Constant Matrix: (Units=GPa)
#
#
# Indices 1 2 3 4 5 6 
#
# 1 73.6393 23.0702 44.7116 0.0000 0.0000 0.0000
# 2 23.0702 85.0647 29.8846 0.0000 0.0000 0.0000
# 3 44.7116 29.8846 110.6158 0.0000 0.0000 0.0000
# 4 0.0000 0.0000 0.0000 20.0130 0.0000 0.0000
# 5 0.0000 0.0000 0.0000 0.0000 26.3961 0.0000
# 6 0.0000 0.0000 0.0000 0.0000 0.0000 8.3957
#
#
#
# Elastic Compliance Matrix: (Units=1/GPa)
#
#
# Indices 1 2 3 4 5 6 
#
# 1 0.018519 -0.002644 -0.006771 0.000000 0.000000 0.000000
# 2 -0.002644 0.013366 -0.002542 0.000000 0.000000 0.000000
# 3 -0.006771 -0.002542 0.012464 0.000000 0.000000 0.000000
# 4 0.000000 0.000000 0.000000 0.049967 0.000000 0.000000
# 5 0.000000 0.000000 0.000000 0.000000 0.037884 0.000000
# 6 0.000000 0.000000 0.000000 0.000000 0.000000 0.119109
#
#
# Mechanical properties :
#
#
# Convention : Reuss Voigt Hill
#
# Bulk Modulus (GPa) = 48.93690 51.62807 50.28249
# Shear Modulus (GPa) = 17.72817 22.40452 20.06634
#
# Velocity S-wave (km/s) = 3.44327 3.87085 3.66330
# Velocity P-wave (km/s) = 6.96676 7.38278 7.17778
#
# Compressibility (1/GPa) = 0.02043448
#
# Stress axis : x y z
#
# Youngs Moduli (GPa) = 53.99761 74.81701 80.22969
#
# Poissons Ratio (x) = 0.19779 0.54327
# Poissons Ratio (y) = 0.14275 0.20398
# Poissons Ratio (z) = 0.36564 0.19022
#
# Static dielectric constant tensor:
#      x y z
#    x 1.484310 0.000000 0.000000 
#    y 0.000000 1.482990 0.000000 
#    z 0.000000 0.000000 1.526750 
# 
# From -- ./inp_files/61401.got.cif
#   From: 2010.05.17/outbox.cif.g08.bks.cpg/sg74_31_cif.got.tgz:61401.got - 2010.06.03 17:57:02.
