data_PCOD9535037
_publ_section_title
;
Structure prediction by ZEFSAII (Michael W. Deem and Ramdas Pophale) SiO2 
 PCOD9535037
Probable space group: I M M A
;
_chemical_formula_sum "Si O2"
_cell_formula_units_Z 112
_cell_length_a 14.465213
_cell_length_b 29.758607
_cell_length_c 11.512535
_cell_angle_alpha 90.000000
_cell_angle_beta 90.000000
_cell_angle_gamma 90.000000
_cell_volume 4955.738645
_symmetry_space_group_name_H-M "I M M A"
_symmetry_group_IT_number 74
_symmetry_cell_setting 'orthorhombic'
loop_
_space_group_symop_operation_xyz
x,y,z
-x,1/2-y,z
x,-y,-z
-x,1/2+y,-z
-x,-y,-z
x,1/2+y,-z
-x,y,z
x,1/2-y,z
1/2+x,1/2+y,1/2+z
1/2-x,-y,1/2+z
1/2+x,1/2-y,1/2-z
1/2-x,y,1/2-z
1/2-x,1/2-y,1/2-z
1/2+x,y,1/2-z
1/2-x,1/2+y,1/2+z
1/2+x,-y,1/2+z
loop_
_atom_site_type_symbol
_atom_site_label
_atom_site_fract_x
_atom_site_fract_y
_atom_site_fract_z
Si Si1 0.389199 0.051422 0.010150
Si Si2 0.357378 0.394333 0.245562
Si Si3 0.611762 0.935280 0.236446
Si Si4 0.889932 0.018518 0.121310
Si Si5 0.294558 0.303411 0.917202
Si Si6 0.847978 0.699520 0.683692
Si Si7 0.389091 0.340103 0.685139
O O1 0.500000 0.049627 0.004288
O O2 0.353127 0.074550 0.893066
O O3 0.371934 0.077382 0.128124
O O4 0.357462 0.000000 0.000000
O O5 0.250000 0.385978 0.250000
O O6 0.377618 0.429388 0.348417
O O7 0.398165 0.344188 0.238243
O O8 0.500000 0.937172 0.229763
O O9 0.630072 0.893540 0.319329
O O10 0.644310 0.983603 0.281203
O O11 0.000000 0.012383 0.118954
O O12 0.853045 0.000000 0.000000
O O13 0.299049 0.250000 0.900276
O O14 0.358014 0.324640 0.815249
O O15 0.187225 0.317606 0.898258
O O16 0.329273 0.312422 0.047940
O O17 0.889848 0.750000 0.688825
O O18 0.750000 0.703874 0.750000
O O19 0.500000 0.331928 0.667286
#
# Coordination Sequence:
#
# PCOD9535037 Si02
#       7
#    16  16  16  16  16  16  16
#     4  10  18  33  58  79 107 151 195 232 279 353
#     4  11  22  35  56  88 116 145 194 250 299 355
#     4   9  18  33  54  81 109 147 195 236 290 356
#     4  10  21  39  58  79 116 161 196 236 296 368
#     4  10  21  38  61  91 121 162 214 262 328 390
#     4   9  20  40  63  84 117 163 207 258 317 378
#     4  10  20  35  58  91 127 163 207 261 321 389
#
# _framework density 22.600062000000001
#
# number of rings (size 3 to 8) (size 9 to 14) (size 15 to 20)
#    0.000    2.143    1.429    2.143    0.000    4.000 
#    2.571    0.714    0.000    7.714    0.000   12.000 
#    0.000    0.000    0.000    0.000    0.000    0.000 
#
# Total GULP energy -312305.849554 kJ/mol
# GULP energy per Si atom -5576.890171 kJ/mol
# Density = 2.254862 g / cm^3
# Si number density = 22.600062 Si / 1000 Ang^3
#
#
#
# Elastic Constant Matrix: (Units=GPa)
#
#
# Indices 1 2 3 4 5 6 
#
# 1 97.0681 14.9905 -0.2310 0.0001 0.0000 0.0000
# 2 14.9905 174.1887 41.6519 0.0000 -0.0001 0.0000
# 3 -0.2310 41.6519 65.1665 0.0005 -0.0003 -0.0001
# 4 0.0001 0.0000 0.0005 31.2547 0.0000 -0.0001
# 5 0.0000 -0.0001 -0.0003 0.0000 19.1962 0.0000
# 6 0.0000 0.0000 -0.0001 -0.0001 0.0000 20.6921
#
#
#
# Elastic Compliance Matrix: (Units=1/GPa)
#
#
# Indices 1 2 3 4 5 6 
#
# 1 0.010470 -0.001074 0.000724 0.000000 0.000000 0.000000
# 2 -0.001074 0.006887 -0.004406 0.000000 0.000000 0.000000
# 3 0.000724 -0.004406 0.018164 0.000000 0.000000 0.000000
# 4 0.000000 0.000000 0.000000 0.031995 0.000000 0.000000
# 5 0.000000 0.000000 0.000000 0.000000 0.052094 0.000000
# 6 0.000000 0.000000 0.000000 0.000000 0.000000 0.048328
#
#
# Mechanical properties :
#
#
# Convention : Reuss Voigt Hill
#
# Bulk Modulus (GPa) = 38.44953 49.91623 44.18288
# Shear Modulus (GPa) = 26.86469 32.89608 29.88038
#
# Velocity S-wave (km/s) = 3.45149 3.81934 3.64007
# Velocity P-wave (km/s) = 5.73879 6.44861 6.10402
#
# Compressibility (1/GPa) = 0.02600812
#
# Stress axis : x y z
#
# Youngs Moduli (GPa) = 95.51437 145.20563 55.05479
#
# Poissons Ratio (x) = 0.15595 -0.03984
# Poissons Ratio (y) = 0.10258 0.24255
# Poissons Ratio (z) = -0.06911 0.63971
#
# Static dielectric constant tensor:
#      x y z
#    x 1.862060 0.000000 0.000000 
#    y 0.000000 1.914700 0.000000 
#    z 0.000000 0.000000 1.842590 
# 
# From -- ./inp_files/21148.got.cif
#   From: 2010.05.17/outbox.cif.g08.bks.cpg/sg74_11_cif.got.tgz:21148.got - 2010.06.03 17:57:02.
