data_PCOD9535257
_publ_section_title
;
Structure prediction by ZEFSAII (Michael W. Deem and Ramdas Pophale) SiO2 
 PCOD9535257
Probable space group: I M M A
;
_chemical_formula_sum "Si O2"
_cell_formula_units_Z 88
_cell_length_a 14.397834
_cell_length_b 13.148880
_cell_length_c 29.033555
_cell_angle_alpha 90.000000
_cell_angle_beta 90.000000
_cell_angle_gamma 90.000000
_cell_volume 5496.498832
_symmetry_space_group_name_H-M "I M M A"
_symmetry_group_IT_number 74
_symmetry_cell_setting 'orthorhombic'
loop_
_space_group_symop_operation_xyz
x,y,z
-x,1/2-y,z
x,-y,-z
-x,1/2+y,-z
-x,-y,-z
x,1/2+y,-z
-x,y,z
x,1/2-y,z
1/2+x,1/2+y,1/2+z
1/2-x,-y,1/2+z
1/2+x,1/2-y,1/2-z
1/2-x,y,1/2-z
1/2-x,1/2-y,1/2-z
1/2+x,y,1/2-z
1/2-x,1/2+y,1/2+z
1/2+x,-y,1/2+z
loop_
_atom_site_type_symbol
_atom_site_label
_atom_site_fract_x
_atom_site_fract_y
_atom_site_fract_z
Si Si1 0.608105 0.368741 0.937155
Si Si2 0.607189 0.373550 0.326743
Si Si3 0.891734 0.551385 0.627972
Si Si4 0.717582 0.632184 0.582280
Si Si5 0.242167 0.000000 0.500000
Si Si6 0.386847 0.866954 0.773922
O O1 0.500000 0.379123 0.951647
O O2 0.627405 0.250000 0.930133
O O3 0.618735 0.437138 0.891202
O O4 0.675915 0.418641 0.974458
O O5 0.500000 0.405881 0.331073
O O6 0.608153 0.250000 0.325223
O O7 0.663340 0.403224 0.371969
O O8 0.645070 0.404220 0.276359
O O9 0.825784 0.619550 0.596043
O O10 0.864348 0.568547 0.680997
O O11 0.000000 0.580176 0.623441
O O12 0.695715 0.750000 0.573202
O O13 0.700933 0.560416 0.538700
O O14 0.500000 0.863944 0.770626
O O15 0.355530 0.750000 0.781615
#
# Coordination Sequence:
#
# PCOD9535257 Si02
#       6
#    16  16  16  16   8  16
#     4   9  17  29  43  58  81 114 145 171 201 238
#     4   8  15  28  44  62  85 110 135 167 208 251
#     4   9  17  27  40  63  91 114 138 164 193 238
#     4  10  19  29  43  62  83 110 141 171 207 248
#     4  10  19  30  41  60  82 104 138 180 214 246
#     4   8  13  23  40  62  89 115 133 157 198 243
#
# _framework density 16.010190999999999
#
# number of rings (size 3 to 8) (size 9 to 14) (size 15 to 20)
#    0.000    3.091    0.000    2.455    0.000    2.545 
#    0.000    3.182    0.000    0.000    0.000   11.455 
#    0.000   13.818    0.000    0.000    0.000    0.000 
#
# Total GULP energy -245049.117479 kJ/mol
# GULP energy per Si atom -5569.298125 kJ/mol
# Density = 1.597375 g / cm^3
# Si number density = 16.010191 Si / 1000 Ang^3
#
#
#
# Elastic Constant Matrix: (Units=GPa)
#
#
# Indices 1 2 3 4 5 6 
#
# 1 25.3044 3.9442 17.2408 0.0000 0.0000 0.0000
# 2 3.9442 45.4728 27.7010 0.0000 0.0000 0.0000
# 3 17.2408 27.7010 113.2842 0.0000 0.0000 0.0000
# 4 0.0000 0.0000 0.0000 27.2972 0.0000 0.0000
# 5 0.0000 0.0000 0.0000 0.0000 25.4850 0.0000
# 6 0.0000 0.0000 0.0000 0.0000 0.0000 9.3467
#
#
#
# Elastic Compliance Matrix: (Units=1/GPa)
#
#
# Indices 1 2 3 4 5 6 
#
# 1 0.044094 0.000309 -0.006786 0.000000 0.000000 0.000000
# 2 0.000309 0.025843 -0.006366 0.000000 0.000000 0.000000
# 3 -0.006786 -0.006366 0.011417 0.000000 0.000000 0.000000
# 4 0.000000 0.000000 0.000000 0.036634 0.000000 0.000000
# 5 0.000000 0.000000 0.000000 0.000000 0.039239 0.000000
# 6 0.000000 0.000000 0.000000 0.000000 0.000000 0.106990
#
#
# Mechanical properties :
#
#
# Convention : Reuss Voigt Hill
#
# Bulk Modulus (GPa) = 17.96384 31.31482 24.63933
# Shear Modulus (GPa) = 16.20964 21.43747 18.82356
#
# Velocity S-wave (km/s) = 3.18537 3.66319 3.43260
# Velocity P-wave (km/s) = 4.97728 6.12321 5.57974
#
# Compressibility (1/GPa) = 0.05566739
#
# Stress axis : x y z
#
# Youngs Moduli (GPa) = 22.67859 38.69588 87.58937
#
# Poissons Ratio (x) = -0.01197 0.59442
# Poissons Ratio (y) = -0.00702 0.55762
# Poissons Ratio (z) = 0.15391 0.24635
#
# Static dielectric constant tensor:
#      x y z
#    x 1.581110 0.000000 0.000000 
#    y 0.000000 1.510250 0.000000 
#    z 0.000000 0.000000 1.565780 
# 
# From -- ./inp_files/67081.got.cif
#   From: 2010.05.17/outbox.cif.g08.bks.cpg/sg74_34_cif.got.tgz:67081.got - 2010.06.03 17:57:02.
