data_PCOD9535296
_publ_section_title
;
Structure prediction by ZEFSAII (Michael W. Deem and Ramdas Pophale) SiO2 
 PCOD9535296
Probable space group: I M M A
;
_chemical_formula_sum "Si O2"
_cell_formula_units_Z 116
_cell_length_a 7.850326
_cell_length_b 27.586713
_cell_length_c 27.842799
_cell_angle_alpha 90.000000
_cell_angle_beta 90.000000
_cell_angle_gamma 90.000000
_cell_volume 6029.767143
_symmetry_space_group_name_H-M "I M M A"
_symmetry_group_IT_number 74
_symmetry_cell_setting 'orthorhombic'
loop_
_space_group_symop_operation_xyz
x,y,z
-x,1/2-y,z
x,-y,-z
-x,1/2+y,-z
-x,-y,-z
x,1/2+y,-z
-x,y,z
x,1/2-y,z
1/2+x,1/2+y,1/2+z
1/2-x,-y,1/2+z
1/2+x,1/2-y,1/2-z
1/2-x,y,1/2-z
1/2-x,1/2-y,1/2-z
1/2+x,y,1/2-z
1/2-x,1/2+y,1/2+z
1/2+x,-y,1/2+z
loop_
_atom_site_type_symbol
_atom_site_label
_atom_site_fract_x
_atom_site_fract_y
_atom_site_fract_z
Si Si1 0.294723 0.325759 0.817835
Si Si2 0.293783 0.804752 0.069400
Si Si3 0.699384 0.461933 0.198750
Si Si4 0.294488 0.433510 0.832373
Si Si5 0.699016 0.065292 0.403147
Si Si6 0.699030 0.961863 0.436355
Si Si7 0.500000 0.750000 0.290315
Si Si8 0.303752 0.118506 0.007256
O O1 0.500000 0.313979 0.809778
O O2 0.263845 0.319438 0.875420
O O3 0.261757 0.382363 0.807257
O O4 0.152966 0.291905 0.794138
O O5 0.500000 0.804825 0.065164
O O6 0.231450 0.750000 0.062587
O O7 0.227222 0.841155 0.028596
O O8 0.500000 0.468504 0.200256
O O9 0.750000 0.441100 0.250000
O O10 0.771792 0.516813 0.191810
O O11 0.738759 0.431052 0.151342
O O12 0.500000 0.435930 0.837940
O O13 0.218242 0.434153 0.885875
O O14 0.500000 0.056031 0.399204
O O15 0.727119 0.108252 0.440572
O O16 0.772233 0.015279 0.425629
O O17 0.500000 0.965007 0.450027
O O18 0.789364 0.931141 0.477079
O O19 0.500000 0.130542 0.015204
#
# Coordination Sequence:
#
# PCOD9535296 Si02
#       8
#    16  16  16  16  16  16   4  16
#     4  10  19  33  47  68 102 130 169 222 258 304
#     4   9  17  31  47  63  94 135 173 214 257 290
#     4  10  20  36  57  79 101 128 161 202 255 310
#     4   9  18  32  50  71  99 130 163 205 256 303
#     4  10  21  35  47  69 100 133 165 206 249 296
#     4  10  19  29  45  66  97 133 168 204 244 292
#     4  12  22  28  48  74  94 134 180 208 274 304
#     4  11  20  30  47  68  95 135 175 206 247 298
#
# _framework density 19.23789
#
# number of rings (size 3 to 8) (size 9 to 14) (size 15 to 20)
#    0.000    2.069    2.069    2.276    0.966    3.862 
#    1.241    0.000    0.000    0.000    0.000    0.483 
#    0.000    0.552    0.000    1.517    0.000    2.207 
#
# Total GULP energy -323173.459358 kJ/mol
# GULP energy per Si atom -5571.956196 kJ/mol
# Density = 1.919410 g / cm^3
# Si number density = 19.237890 Si / 1000 Ang^3
#
#
#
# Elastic Constant Matrix: (Units=GPa)
#
#
# Indices 1 2 3 4 5 6 
#
# 1 47.9222 16.4532 16.6482 0.0000 0.0000 0.0000
# 2 16.4532 43.4133 45.1200 0.0000 0.0000 0.0000
# 3 16.6482 45.1200 135.2834 0.0000 0.0000 0.0000
# 4 0.0000 0.0000 0.0000 4.3057 0.0000 0.0000
# 5 0.0000 0.0000 0.0000 0.0000 21.6953 0.0000
# 6 0.0000 0.0000 0.0000 0.0000 0.0000 27.3700
#
#
#
# Elastic Compliance Matrix: (Units=1/GPa)
#
#
# Indices 1 2 3 4 5 6 
#
# 1 0.023990 -0.009219 0.000123 0.000000 0.000000 0.000000
# 2 -0.009219 0.038798 -0.011805 0.000000 0.000000 0.000000
# 3 0.000123 -0.011805 0.011314 0.000000 0.000000 0.000000
# 4 0.000000 0.000000 0.000000 0.232253 0.000000 0.000000
# 5 0.000000 0.000000 0.000000 0.000000 0.046093 0.000000
# 6 0.000000 0.000000 0.000000 0.000000 0.000000 0.036536
#
#
# Mechanical properties :
#
#
# Convention : Reuss Voigt Hill
#
# Bulk Modulus (GPa) = 30.96195 42.56240 36.76217
# Shear Modulus (GPa) = 11.32363 20.56736 15.94550
#
# Velocity S-wave (km/s) = 2.42876 3.27327 2.88211
# Velocity P-wave (km/s) = 4.89841 6.03804 5.49783
#
# Compressibility (1/GPa) = 0.03229770
#
# Stress axis : x y z
#
# Youngs Moduli (GPa) = 41.68429 25.77458 88.38478
#
# Poissons Ratio (x) = 0.23762 -0.01084
# Poissons Ratio (y) = 0.38430 1.04342
# Poissons Ratio (z) = -0.00511 0.30428
#
# Static dielectric constant tensor:
#      x y z
#    x 1.684510 0.000000 0.000000 
#    y 0.000000 1.696260 0.000000 
#    z 0.000000 0.000000 1.817910 
# 
# From -- ./inp_files/65315.got.cif
#   From: 2010.05.17/outbox.cif.g08.bks.cpg/sg74_33_cif.got.tgz:65315.got - 2010.06.03 17:57:02.
