data_PCOD9535139
_publ_section_title
;
Structure prediction by ZEFSAII (Michael W. Deem and Ramdas Pophale) SiO2 
 PCOD9535139
Probable space group: I M M A
;
_chemical_formula_sum "Si O2"
_cell_formula_units_Z 100
_cell_length_a 15.420220
_cell_length_b 14.588165
_cell_length_c 19.019148
_cell_angle_alpha 90.000000
_cell_angle_beta 90.000000
_cell_angle_gamma 90.000000
_cell_volume 4278.408955
_symmetry_space_group_name_H-M "I M M A"
_symmetry_group_IT_number 74
_symmetry_cell_setting 'orthorhombic'
loop_
_space_group_symop_operation_xyz
x,y,z
-x,1/2-y,z
x,-y,-z
-x,1/2+y,-z
-x,-y,-z
x,1/2+y,-z
-x,y,z
x,1/2-y,z
1/2+x,1/2+y,1/2+z
1/2-x,-y,1/2+z
1/2+x,1/2-y,1/2-z
1/2-x,y,1/2-z
1/2-x,1/2-y,1/2-z
1/2+x,y,1/2-z
1/2-x,1/2+y,1/2+z
1/2+x,-y,1/2+z
loop_
_atom_site_type_symbol
_atom_site_label
_atom_site_fract_x
_atom_site_fract_y
_atom_site_fract_z
Si Si1 0.592200 0.639651 0.134449
Si Si2 0.842066 0.404126 0.781674
Si Si3 0.098187 0.138852 0.395450
Si Si4 0.500000 0.250000 0.303078
Si Si5 0.651763 0.388887 0.259863
Si Si6 0.595390 0.856859 0.434472
Si Si7 0.274719 0.362261 0.980961
O O1 0.500000 0.608986 0.103600
O O2 0.594201 0.750000 0.131004
O O3 0.596733 0.612875 0.215388
O O4 0.673025 0.607131 0.088409
O O5 0.750000 0.370978 0.750000
O O6 0.836831 0.512589 0.795515
O O7 0.874871 0.359374 0.852978
O O8 0.103206 0.250000 0.386054
O O9 0.116440 0.097671 0.319409
O O10 0.169300 0.110802 0.451896
O O11 0.000000 0.119217 0.418356
O O12 0.578305 0.328618 0.297451
O O13 0.750000 0.350816 0.250000
O O14 0.500000 0.898950 0.442407
O O15 0.588400 0.750000 0.454596
O O16 0.676184 0.894805 0.478283
O O17 0.273605 0.250000 0.980262
#
# Coordination Sequence:
#
# PCOD9535139 Si02
#       7
#    16  16  16   4  16  16  16
#     4  10  19  31  50  81 120 159 200 241 283 343
#     4  11  22  35  55  85 121 162 201 247 298 350
#     4  10  18  35  62  89 114 151 195 243 310 365
#     4  12  22  44  68  90 116 150 194 246 326 372
#     4  11  24  40  64  93 118 149 194 256 310 368
#     4  10  20  34  55  84 124 172 207 236 283 349
#     4   9  18  32  55  83 117 159 198 241 284 349
#
# _framework density 23.373175
#
# number of rings (size 3 to 8) (size 9 to 14) (size 15 to 20)
#    0.000    1.760    3.200    1.680    2.240    3.840 
#    0.000    0.800    1.760    1.920    0.000    4.480 
#    0.000    0.000    0.000    0.000    0.000    0.000 
#
# Total GULP energy -278905.091779 kJ/mol
# GULP energy per Si atom -5578.101836 kJ/mol
# Density = 2.331998 g / cm^3
# Si number density = 23.373175 Si / 1000 Ang^3
#
#
#
# Elastic Constant Matrix: (Units=GPa)
#
#
# Indices 1 2 3 4 5 6 
#
# 1 203.3636 24.8320 6.2770 0.0000 0.0000 0.0000
# 2 24.8320 57.8202 -2.5319 0.0000 0.0000 0.0000
# 3 6.2770 -2.5319 31.4817 0.0000 0.0000 0.0000
# 4 0.0000 0.0000 0.0000 16.7719 0.0000 0.0000
# 5 0.0000 0.0000 0.0000 0.0000 22.9765 0.0000
# 6 0.0000 0.0000 0.0000 0.0000 0.0000 3.8706
#
#
#
# Elastic Compliance Matrix: (Units=1/GPa)
#
#
# Indices 1 2 3 4 5 6 
#
# 1 0.005236 -0.002303 -0.001229 0.000000 0.000000 0.000000
# 2 -0.002303 0.018369 0.001936 0.000000 0.000000 0.000000
# 3 -0.001229 0.001936 0.032165 0.000000 0.000000 0.000000
# 4 0.000000 0.000000 0.000000 0.059624 0.000000 0.000000
# 5 0.000000 0.000000 0.000000 0.000000 0.043523 0.000000
# 6 0.000000 0.000000 0.000000 0.000000 0.000000 0.258358
#
#
# Mechanical properties :
#
#
# Convention : Reuss Voigt Hill
#
# Bulk Modulus (GPa) = 19.01887 38.86887 28.94387
# Shear Modulus (GPa) = 11.41571 26.32969 18.87270
#
# Velocity S-wave (km/s) = 2.21240 3.35997 2.84465
# Velocity P-wave (km/s) = 3.83158 5.63190 4.81660
#
# Compressibility (1/GPa) = 0.05257935
#
# Stress axis : x y z
#
# Youngs Moduli (GPa) = 190.97030 54.44041 31.08935
#
# Poissons Ratio (x) = 0.12536 0.03822
# Poissons Ratio (y) = 0.43975 -0.06020
# Poissons Ratio (z) = 0.23475 -0.10542
#
# Static dielectric constant tensor:
#      x y z
#    x 1.920090 0.000000 0.000000 
#    y 0.000000 1.909800 0.000000 
#    z 0.000000 0.000000 1.826920 
# 
# From -- ./inp_files/52143.got.cif
#   From: 2010.05.17/outbox.cif.g08.bks.cpg/sg74_27_cif.got.tgz:52143.got - 2010.06.03 17:57:02.
