data_PCOD9535060
_publ_section_title
;
Structure prediction by ZEFSAII (Michael W. Deem and Ramdas Pophale) SiO2 
 PCOD9535060
Probable space group: I M M A
;
_chemical_formula_sum "Si O2"
_cell_formula_units_Z 76
_cell_length_a 11.087145
_cell_length_b 14.771771
_cell_length_c 29.428201
_cell_angle_alpha 90.000000
_cell_angle_beta 90.000000
_cell_angle_gamma 90.000000
_cell_volume 4819.655618
_symmetry_space_group_name_H-M "I M M A"
_symmetry_group_IT_number 74
_symmetry_cell_setting 'orthorhombic'
loop_
_space_group_symop_operation_xyz
x,y,z
-x,1/2-y,z
x,-y,-z
-x,1/2+y,-z
-x,-y,-z
x,1/2+y,-z
-x,y,z
x,1/2-y,z
1/2+x,1/2+y,1/2+z
1/2-x,-y,1/2+z
1/2+x,1/2-y,1/2-z
1/2-x,y,1/2-z
1/2-x,1/2-y,1/2-z
1/2+x,y,1/2-z
1/2-x,1/2+y,1/2+z
1/2+x,-y,1/2+z
loop_
_atom_site_type_symbol
_atom_site_label
_atom_site_fract_x
_atom_site_fract_y
_atom_site_fract_z
Si Si1 0.363624 0.908528 0.384377
Si Si2 0.755154 0.750000 0.434180
Si Si3 0.860479 0.250000 0.028427
Si Si4 0.500000 0.436810 0.043932
Si Si5 0.138076 0.141727 0.783256
Si Si6 0.000000 0.750000 0.491250
Si Si7 0.766779 0.949404 0.950307
O O1 0.500000 0.873411 0.391598
O O2 0.267640 0.838136 0.404382
O O3 0.348072 0.912642 0.330310
O O4 0.347482 0.999024 0.413642
O O5 0.656755 0.750000 0.474207
O O6 0.882485 0.750000 0.459600
O O7 0.800936 0.155766 0.044280
O O8 0.000000 0.250000 0.041050
O O9 0.371826 0.455025 0.066605
O O10 0.500000 0.500000 0.000000
O O11 0.500000 0.336453 0.023566
O O12 0.144599 0.250000 0.793792
O O13 0.250000 0.121684 0.750000
O O14 0.000000 0.126009 0.765855
O O15 0.776937 0.000000 0.000000
#
# Coordination Sequence:
#
# PCOD9535060 Si02
#       7
#    16   8   8   8  16   4  16
#     4  11  21  34  51  76 104 135 170 209 255 303
#     4  12  20  32  49  72  98 136 177 206 247 299
#     4  12  22  32  48  71 101 136 175 213 243 297
#     4  10  18  34  46  60  94 132 172 212 246 284
#     4   9  18  35  55  75 104 132 164 208 259 312
#     4  12  20  36  48  62  98 142 178 210 254 284
#     4  11  21  33  49  71 100 138 173 211 251 296
#
# _framework density 15.768762000000001
#
# number of rings (size 3 to 8) (size 9 to 14) (size 15 to 20)
#    0.000    1.263    5.263    2.842    0.000    0.842 
#    3.789    0.000    0.000    0.000    0.000    0.737 
#    0.000    0.000    0.000    0.000    0.000    0.000 
#
# Total GULP energy -211806.613177 kJ/mol
# GULP energy per Si atom -5573.858241 kJ/mol
# Density = 1.573287 g / cm^3
# Si number density = 15.768762 Si / 1000 Ang^3
#
#
#
# Elastic Constant Matrix: (Units=GPa)
#
#
# Indices 1 2 3 4 5 6 
#
# 1 91.0286 6.8331 37.3378 0.0000 0.0000 0.0000
# 2 6.8331 79.2223 20.7742 0.0000 0.0000 0.0000
# 3 37.3378 20.7742 68.9245 0.0000 0.0000 0.0000
# 4 0.0000 0.0000 0.0000 18.2445 0.0000 0.0000
# 5 0.0000 0.0000 0.0000 0.0000 24.1530 0.0000
# 6 0.0000 0.0000 0.0000 0.0000 0.0000 9.8019
#
#
#
# Elastic Compliance Matrix: (Units=1/GPa)
#
#
# Indices 1 2 3 4 5 6 
#
# 1 0.014178 0.000859 -0.007939 0.000000 0.000000 0.000000
# 2 0.000859 0.013758 -0.004612 0.000000 0.000000 0.000000
# 3 -0.007939 -0.004612 0.020200 0.000000 0.000000 0.000000
# 4 0.000000 0.000000 0.000000 0.054811 0.000000 0.000000
# 5 0.000000 0.000000 0.000000 0.000000 0.041403 0.000000
# 6 0.000000 0.000000 0.000000 0.000000 0.000000 0.102021
#
#
# Mechanical properties :
#
#
# Convention : Reuss Voigt Hill
#
# Bulk Modulus (GPa) = 40.40302 41.00730 40.70516
# Shear Modulus (GPa) = 17.98529 22.05522 20.02025
#
# Velocity S-wave (km/s) = 3.38089 3.74393 3.56703
# Velocity P-wave (km/s) = 6.39675 6.68963 6.54483
#
# Compressibility (1/GPa) = 0.02475063
#
# Stress axis : x y z
#
# Youngs Moduli (GPa) = 70.53413 72.68488 49.50611
#
# Poissons Ratio (x) = -0.06244 0.39304
# Poissons Ratio (y) = -0.06059 0.22833
# Poissons Ratio (z) = 0.55998 0.33523
#
# Static dielectric constant tensor:
#      x y z
#    x 1.559440 0.000000 0.000000 
#    y 0.000000 1.531650 0.000000 
#    z 0.000000 0.000000 1.496250 
# 
# From -- ./inp_files/65881.got.cif
#   From: 2010.05.17/outbox.cif.g08.bks.cpg/sg74_33_cif.got.tgz:65881.got - 2010.06.03 17:57:02.
