data_PCOD9535434
_publ_section_title
;
Structure prediction by ZEFSAII (Michael W. Deem and Ramdas Pophale) SiO2 
 PCOD9535434
Probable space group: I M M A
;
_chemical_formula_sum "Si O2"
_cell_formula_units_Z 116
_cell_length_a 7.738031
_cell_length_b 27.787369
_cell_length_c 27.345008
_cell_angle_alpha 90.000000
_cell_angle_beta 90.000000
_cell_angle_gamma 90.000000
_cell_volume 5879.710569
_symmetry_space_group_name_H-M "I M M A"
_symmetry_group_IT_number 74
_symmetry_cell_setting 'orthorhombic'
loop_
_space_group_symop_operation_xyz
x,y,z
-x,1/2-y,z
x,-y,-z
-x,1/2+y,-z
-x,-y,-z
x,1/2+y,-z
-x,y,z
x,1/2-y,z
1/2+x,1/2+y,1/2+z
1/2-x,-y,1/2+z
1/2+x,1/2-y,1/2-z
1/2-x,y,1/2-z
1/2-x,1/2-y,1/2-z
1/2+x,y,1/2-z
1/2-x,1/2+y,1/2+z
1/2+x,-y,1/2+z
loop_
_atom_site_type_symbol
_atom_site_label
_atom_site_fract_x
_atom_site_fract_y
_atom_site_fract_z
Si Si1 0.298291 0.408733 0.034629
Si Si2 0.000000 0.750000 0.367497
Si Si3 0.708446 0.405795 0.307076
Si Si4 0.802422 0.681337 0.099639
Si Si5 0.301987 0.020002 0.382612
Si Si6 0.791886 0.301546 0.191892
Si Si7 0.299963 0.419671 0.924468
Si Si8 0.206235 0.802920 0.983186
O O1 0.500000 0.422100 0.037488
O O2 0.203013 0.440463 0.074416
O O3 0.231407 0.421115 0.980158
O O4 0.280445 0.351196 0.040462
O O5 0.845905 0.708485 0.371099
O O6 0.500000 0.405685 0.312652
O O7 0.750000 0.409075 0.250000
O O8 0.776360 0.451194 0.336908
O O9 0.772119 0.353467 0.326207
O O10 0.790152 0.623737 0.103730
O O11 0.766097 0.692749 0.041888
O O12 0.000000 0.695909 0.109945
O O13 0.500000 0.006962 0.371901
O O14 0.213318 0.971320 0.399827
O O15 0.727518 0.250000 0.172010
O O16 0.750000 0.301465 0.250000
O O17 0.000000 0.301479 0.186504
O O18 0.500000 0.405294 0.928994
O O19 0.270520 0.750000 0.967661
O O20 0.000000 0.804076 0.975120
#
# Coordination Sequence:
#
# PCOD9535434 Si02
#       8
#    16   4  16  16  16  16  16  16
#     4  10  21  33  49  70  95 129 173 217 256 307
#     4  12  18  28  48  74 106 140 176 220 254 314
#     4   9  19  34  52  74  97 125 164 208 261 320
#     4  10  19  30  47  73 102 136 178 216 263 307
#     4  11  22  35  50  70  99 132 170 215 262 311
#     4   8  13  24  44  68  91 115 148 194 251 308
#     4  10  20  35  52  73  99 133 178 219 260 308
#     4   9  17  29  46  67  93 127 168 212 264 314
#
# _framework density 19.728863
#
# number of rings (size 3 to 8) (size 9 to 14) (size 15 to 20)
#    0.000    2.345    1.379    1.862    0.966    4.690 
#    0.000    0.690    0.000    2.483    0.000    1.931 
#    0.000    0.000    0.000    0.621    4.000    1.241 
#
# Total GULP energy -322978.566547 kJ/mol
# GULP energy per Si atom -5568.595975 kJ/mol
# Density = 1.968396 g / cm^3
# Si number density = 19.728863 Si / 1000 Ang^3
#
#
#
# Elastic Constant Matrix: (Units=GPa)
#
#
# Indices 1 2 3 4 5 6 
#
# 1 59.7017 10.0072 0.9320 0.0000 0.0000 0.0000
# 2 10.0072 154.2950 40.5236 0.0000 0.0000 0.0000
# 3 0.9320 40.5236 31.3350 0.0000 0.0000 0.0000
# 4 0.0000 0.0000 0.0000 -25.1831 0.0000 0.0000
# 5 0.0000 0.0000 0.0000 0.0000 7.9539 0.0000
# 6 0.0000 0.0000 0.0000 0.0000 0.0000 29.6067
#
#
#
# Elastic Compliance Matrix: (Units=1/GPa)
#
#
# Indices 1 2 3 4 5 6 
#
# 1 0.016974 -0.001466 0.001392 0.000000 0.000000 0.000000
# 2 -0.001466 0.009941 -0.012813 0.000000 0.000000 0.000000
# 3 0.001392 -0.012813 0.048442 0.000000 0.000000 0.000000
# 4 0.000000 0.000000 0.000000 -0.039709 0.000000 0.000000
# 5 0.000000 0.000000 0.000000 0.000000 0.125725 0.000000
# 6 0.000000 0.000000 0.000000 0.000000 0.000000 0.033776
#
#
# Mechanical properties :
#
#
# Convention : Reuss Voigt Hill
#
# Bulk Modulus (GPa) = 20.16870 38.69524 29.43197
# Shear Modulus (GPa) = 21.05688 15.40009 18.22849
#
# Velocity S-wave (km/s) = 3.27052 2.79693 3.04295
# Velocity P-wave (km/s) = 4.95044 5.48512 5.22462
#
# Compressibility (1/GPa) = 0.04958177
#
# Stress axis : x y z
#
# Youngs Moduli (GPa) = 58.91360 100.59014 20.64330
#
# Poissons Ratio (x) = 0.14750 -0.02873
# Poissons Ratio (y) = 0.08639 0.26450
# Poissons Ratio (z) = -0.08198 1.28885
#
# Static dielectric constant tensor:
#      x y z
#    x 1.718040 0.000000 0.000000 
#    y 0.000000 1.728470 0.000000 
#    z 0.000000 0.000000 1.623430 
# 
# From -- ./inp_files/57705.got.cif
#   From: 2010.05.17/outbox.cif.g08.bks.cpg/sg74_29_cif.got.tgz:57705.got - 2010.06.03 17:57:02.
