data_PCOD9535692
_publ_section_title
;
Structure prediction by ZEFSAII (Michael W. Deem and Ramdas Pophale) SiO2 
 PCOD9535692
Probable space group: I M M A
;
_chemical_formula_sum "Si O2"
_cell_formula_units_Z 112
_cell_length_a 28.364476
_cell_length_b 14.423016
_cell_length_c 13.643148
_cell_angle_alpha 90.000000
_cell_angle_beta 90.000000
_cell_angle_gamma 90.000000
_cell_volume 5581.429463
_symmetry_space_group_name_H-M "I M M A"
_symmetry_group_IT_number 74
_symmetry_cell_setting 'orthorhombic'
loop_
_space_group_symop_operation_xyz
x,y,z
-x,1/2-y,z
x,-y,-z
-x,1/2+y,-z
-x,-y,-z
x,1/2+y,-z
-x,y,z
x,1/2-y,z
1/2+x,1/2+y,1/2+z
1/2-x,-y,1/2+z
1/2+x,1/2-y,1/2-z
1/2-x,y,1/2-z
1/2-x,1/2-y,1/2-z
1/2+x,y,1/2-z
1/2-x,1/2+y,1/2+z
1/2+x,-y,1/2+z
loop_
_atom_site_type_symbol
_atom_site_label
_atom_site_fract_x
_atom_site_fract_y
_atom_site_fract_z
Si Si1 0.305038 0.464340 0.259934
Si Si2 0.853993 0.639194 0.939465
Si Si3 0.617513 0.144179 0.156664
Si Si4 0.947278 0.390945 0.519389
Si Si5 0.447089 0.637721 0.662647
Si Si6 0.150919 0.360810 0.834138
Si Si7 0.552065 0.860062 0.250020
O O1 0.250000 0.446388 0.250000
O O2 0.324088 0.414885 0.358760
O O3 0.337528 0.420654 0.174203
O O4 0.315636 0.573470 0.270919
O O5 0.849697 0.750000 0.922769
O O6 0.908704 0.613537 0.919527
O O7 0.840320 0.621878 0.051121
O O8 0.630501 0.250000 0.183052
O O9 0.576829 0.111972 0.233333
O O10 0.593678 0.145031 0.050666
O O11 0.948238 0.500000 0.500000
O O12 0.939466 0.373060 0.634007
O O13 0.000000 0.354881 0.494470
O O14 0.500000 0.602739 0.649990
O O15 0.449901 0.750000 0.663339
O O16 0.155053 0.250000 0.815373
O O17 0.097453 0.392705 0.809171
O O18 0.500000 0.898780 0.272859
O O19 0.549777 0.750000 0.268588
#
# Coordination Sequence:
#
# PCOD9535692 Si02
#       7
#    16  16  16  16  16  16  16
#     4  11  23  40  61  82 108 142 187 245 299 343
#     4   9  19  36  59  86 115 147 181 221 275 335
#     4  10  20  34  55  82 112 149 190 235 291 344
#     4  10  19  31  50  79 117 157 194 232 276 333
#     4   8  14  26  48  81 116 146 178 216 262 324
#     4  10  21  39  61  84 114 150 186 226 275 335
#     4   9  18  33  54  80 111 149 188 221 260 321
#
# _framework density 20.066542999999999
#
# number of rings (size 3 to 8) (size 9 to 14) (size 15 to 20)
#    0.000    2.429    0.000    3.429    0.000    3.429 
#    0.000   10.000    0.000    6.000    0.000    0.000 
#    0.000    0.000    0.000    0.000    0.000    0.000 
#
# Total GULP energy -312567.501145 kJ/mol
# GULP energy per Si atom -5581.562520 kJ/mol
# Density = 2.002087 g / cm^3
# Si number density = 20.066543 Si / 1000 Ang^3
#
#
#
# Elastic Constant Matrix: (Units=GPa)
#
#
# Indices 1 2 3 4 5 6 
#
# 1 132.8164 31.4761 28.3488 0.0000 0.0000 0.0000
# 2 31.4761 78.7446 17.0501 0.0000 0.0000 0.0000
# 3 28.3488 17.0501 38.4545 0.0000 0.0000 0.0000
# 4 0.0000 0.0000 0.0000 23.0472 0.0000 0.0000
# 5 0.0000 0.0000 0.0000 0.0000 14.0897 0.0000
# 6 0.0000 0.0000 0.0000 0.0000 0.0000 19.5247
#
#
#
# Elastic Compliance Matrix: (Units=1/GPa)
#
#
# Indices 1 2 3 4 5 6 
#
# 1 0.009355 -0.002485 -0.005795 0.000000 0.000000 0.000000
# 2 -0.002485 0.014708 -0.004690 0.000000 0.000000 0.000000
# 3 -0.005795 -0.004690 0.032356 0.000000 0.000000 0.000000
# 4 0.000000 0.000000 0.000000 0.043389 0.000000 0.000000
# 5 0.000000 0.000000 0.000000 0.000000 0.070974 0.000000
# 6 0.000000 0.000000 0.000000 0.000000 0.000000 0.051217
#
#
# Mechanical properties :
#
#
# Convention : Reuss Voigt Hill
#
# Bulk Modulus (GPa) = 32.80763 44.86284 38.83524
# Shear Modulus (GPa) = 19.37254 22.87501 21.12378
#
# Velocity S-wave (km/s) = 3.11048 3.37999 3.24803
# Velocity P-wave (km/s) = 5.41157 6.13498 5.78459
#
# Compressibility (1/GPa) = 0.03048071
#
# Stress axis : x y z
#
# Youngs Moduli (GPa) = 106.89596 67.99088 30.90621
#
# Poissons Ratio (x) = 0.16893 0.17910
# Poissons Ratio (y) = 0.26560 0.14494
# Poissons Ratio (z) = 0.61944 0.31885
#
# Static dielectric constant tensor:
#      x y z
#    x 1.694280 0.000000 0.000000 
#    y 0.000000 1.778100 0.000000 
#    z 0.000000 0.000000 1.694530 
# 
# From -- ./inp_files/37429.got.cif
#   From: 2010.05.17/outbox.cif.g08.bks.cpg/sg74_19_cif.got.tgz:37429.got - 2010.06.03 17:57:02.
