data_PCOD9535374
_publ_section_title
;
Structure prediction by ZEFSAII (Michael W. Deem and Ramdas Pophale) SiO2 
 PCOD9535374
Probable space group: I M M A
;
_chemical_formula_sum "Si O2"
_cell_formula_units_Z 72
_cell_length_a 27.671598
_cell_length_b 27.487182
_cell_length_c 5.151305
_cell_angle_alpha 90.000000
_cell_angle_beta 90.000000
_cell_angle_gamma 90.000000
_cell_volume 3918.155991
_symmetry_space_group_name_H-M "I M M A"
_symmetry_group_IT_number 74
_symmetry_cell_setting 'orthorhombic'
loop_
_space_group_symop_operation_xyz
x,y,z
-x,1/2-y,z
x,-y,-z
-x,1/2+y,-z
-x,-y,-z
x,1/2+y,-z
-x,y,z
x,1/2-y,z
1/2+x,1/2+y,1/2+z
1/2-x,-y,1/2+z
1/2+x,1/2-y,1/2-z
1/2-x,y,1/2-z
1/2-x,1/2-y,1/2-z
1/2+x,y,1/2-z
1/2-x,1/2+y,1/2+z
1/2+x,-y,1/2+z
loop_
_atom_site_type_symbol
_atom_site_label
_atom_site_fract_x
_atom_site_fract_y
_atom_site_fract_z
Si Si1 0.945278 0.691800 0.033673
Si Si2 0.383159 0.691627 0.950233
Si Si3 0.807191 0.151653 0.812242
Si Si4 0.784812 0.946975 0.000099
Si Si5 0.715799 0.250000 0.496209
O O1 0.947933 0.750000 0.989278
O O2 0.910092 0.673800 0.806864
O O3 0.000000 0.672794 0.020214
O O4 0.921434 0.685507 0.313966
O O5 0.371246 0.750000 0.936795
O O6 0.336947 0.661787 0.051466
O O7 0.750000 0.150133 0.750000
O O8 0.817101 0.100748 0.953192
O O9 0.814318 0.200455 0.983321
O O10 0.750000 0.950488 0.250000
O O11 0.750000 0.940151 0.750000
O O12 0.809800 0.000000 0.000000
O O13 0.750000 0.250000 0.750000
O O14 0.750000 0.250000 0.250000
#
# Coordination Sequence:
#
# PCOD9535374 Si02
#       5
#    16  16  16  16   8
#     4   9  18  32  48  64  88 120 157 198 236 272
#     4  10  19  30  45  68  92 123 157 189 229 281
#     4  10  20  33  46  69 100 132 159 191 227 278
#     4   9  18  32  48  64  86 123 166 201 231 261
#     4  10  20  30  42  60  89 130 159 178 216 266
#
# _framework density 18.375989000000001
#
# number of rings (size 3 to 8) (size 9 to 14) (size 15 to 20)
#    0.000    2.444    1.111    1.333    0.000    9.778 
#    0.000    0.000    0.000    0.000    0.000    0.000 
#    0.000    5.333    0.000    0.000    0.000    0.000 
#
# Total GULP energy -200889.921561 kJ/mol
# GULP energy per Si atom -5580.275599 kJ/mol
# Density = 1.833416 g / cm^3
# Si number density = 18.375989 Si / 1000 Ang^3
#
#
#
# Elastic Constant Matrix: (Units=GPa)
#
#
# Indices 1 2 3 4 5 6 
#
# 1 91.9199 6.1565 14.5650 0.0000 0.0000 0.0000
# 2 6.1565 126.1781 9.6597 0.0000 0.0000 0.0000
# 3 14.5650 9.6597 90.4943 0.0000 0.0000 0.0000
# 4 0.0000 0.0000 0.0000 16.4098 0.0000 0.0000
# 5 0.0000 0.0000 0.0000 0.0000 19.0887 0.0000
# 6 0.0000 0.0000 0.0000 0.0000 0.0000 2.6645
#
#
#
# Elastic Compliance Matrix: (Units=1/GPa)
#
#
# Indices 1 2 3 4 5 6 
#
# 1 0.011185 -0.000411 -0.001756 0.000000 0.000000 0.000000
# 2 -0.000411 0.008006 -0.000788 0.000000 0.000000 0.000000
# 3 -0.001756 -0.000788 0.011417 0.000000 0.000000 0.000000
# 4 0.000000 0.000000 0.000000 0.060939 0.000000 0.000000
# 5 0.000000 0.000000 0.000000 0.000000 0.052387 0.000000
# 6 0.000000 0.000000 0.000000 0.000000 0.000000 0.375303
#
#
# Mechanical properties :
#
#
# Convention : Reuss Voigt Hill
#
# Bulk Modulus (GPa) = 40.49243 41.03940 40.76592
# Shear Modulus (GPa) = 9.37416 26.18000 17.77708
#
# Velocity S-wave (km/s) = 2.26106 3.77859 3.11369
# Velocity P-wave (km/s) = 5.37586 6.43574 5.92953
#
# Compressibility (1/GPa) = 0.02469597
#
# Stress axis : x y z
#
# Youngs Moduli (GPa) = 89.40646 124.91055 87.58673
#
# Poissons Ratio (x) = 0.05137 0.15383
# Poissons Ratio (y) = 0.03677 0.06905
# Poissons Ratio (z) = 0.15702 0.09847
#
# Static dielectric constant tensor:
#      x y z
#    x 1.621960 0.000000 0.000000 
#    y 0.000000 1.704620 0.000000 
#    z 0.000000 0.000000 1.668640 
# 
# From -- ./inp_files/3727.got.cif
#   From: 2010.05.17/outbox.cif.g08.bks.cpg/sg74_2_cif.got.tgz:3727.got - 2010.06.03 17:57:02.
