data_PCOD9535727
_publ_section_title
;
Structure prediction by ZEFSAII (Michael W. Deem and Ramdas Pophale) SiO2 
 PCOD9535727
Probable space group: I M M A
;
_chemical_formula_sum "Si O2"
_cell_formula_units_Z 56
_cell_length_a 15.735922
_cell_length_b 27.521561
_cell_length_c 5.383008
_cell_angle_alpha 90.000000
_cell_angle_beta 90.000000
_cell_angle_gamma 90.000000
_cell_volume 2331.257694
_symmetry_space_group_name_H-M "I M M A"
_symmetry_group_IT_number 74
_symmetry_cell_setting 'orthorhombic'
loop_
_space_group_symop_operation_xyz
x,y,z
-x,1/2-y,z
x,-y,-z
-x,1/2+y,-z
-x,-y,-z
x,1/2+y,-z
-x,y,z
x,1/2-y,z
1/2+x,1/2+y,1/2+z
1/2-x,-y,1/2+z
1/2+x,1/2-y,1/2-z
1/2-x,y,1/2-z
1/2-x,1/2-y,1/2-z
1/2+x,y,1/2-z
1/2-x,1/2+y,1/2+z
1/2+x,-y,1/2+z
loop_
_atom_site_type_symbol
_atom_site_label
_atom_site_fract_x
_atom_site_fract_y
_atom_site_fract_z
Si Si1 0.000000 0.968295 0.254811
Si Si2 0.326852 0.943934 0.424246
Si Si3 0.854120 0.693717 0.262999
Si Si4 0.348781 0.145807 0.261413
O O1 0.088038 0.940596 0.236985
O O2 0.000000 0.000000 0.500000
O O3 0.000000 0.000000 0.000000
O O4 0.250000 0.926282 0.250000
O O5 0.344043 0.910990 0.665277
O O6 0.310669 0.000000 0.500000
O O7 0.876682 0.750000 0.293410
O O8 0.750000 0.691257 0.250000
O O9 0.884682 0.662815 0.499810
O O10 0.886480 0.672299 0.002561
O O11 0.250000 0.161449 0.250000
#
# Coordination Sequence:
#
# PCOD9535727 Si02
#       4
#     8  16  16  16
#     4  10  24  42  60  86 117 156 205 244 288 356
#     4  11  22  38  62  88 122 160 196 244 299 352
#     4   9  17  30  49  77 115 151 189 244 295 341
#     4  10  19  31  51  82 114 150 196 237 288 356
#
# _framework density 24.021369
#
# number of rings (size 3 to 8) (size 9 to 14) (size 15 to 20)
#    0.000    2.000    0.000    5.143    0.000   10.286 
#    0.000    0.000    0.000    0.000    0.000    6.000 
#    0.000    0.000    0.000    4.000    0.000    0.000 
#
# Total GULP energy -156568.270839 kJ/mol
# GULP energy per Si atom -5591.723959 kJ/mol
# Density = 2.396670 g / cm^3
# Si number density = 24.021369 Si / 1000 Ang^3
#
#
#
# Elastic Constant Matrix: (Units=GPa)
#
#
# Indices 1 2 3 4 5 6 
#
# 1 100.1954 -7.0641 21.0743 -0.0043 -0.0034 -0.0016
# 2 -7.0641 181.4803 107.0562 -0.0009 -0.0002 -0.0038
# 3 21.0743 107.0562 221.7127 -0.0317 0.0235 -0.0339
# 4 -0.0043 -0.0009 -0.0317 49.1286 -0.0018 -0.0032
# 5 -0.0034 -0.0002 0.0235 -0.0018 11.6852 0.0100
# 6 -0.0016 -0.0038 -0.0339 -0.0032 0.0100 -6.0718
#
#
#
# Elastic Compliance Matrix: (Units=1/GPa)
#
#
# Indices 1 2 3 4 5 6 
#
# 1 0.010427 0.001385 -0.001660 0.000000 0.000006 0.000006
# 2 0.001385 0.007889 -0.003941 -0.000002 0.000008 0.000017
# 3 -0.001660 -0.003941 0.006571 0.000004 -0.000014 -0.000034
# 4 0.000000 -0.000002 0.000004 0.020355 0.000003 -0.000011
# 5 0.000006 0.000008 -0.000014 0.000003 0.085578 0.000141
# 6 0.000006 0.000017 -0.000034 -0.000011 0.000141 -0.164696
#
#
# Mechanical properties :
#
#
# Convention : Reuss Voigt Hill
#
# Bulk Modulus (GPa) = 60.76910 82.83567 71.80239
# Shear Modulus (GPa) = -250.51112 36.43655 -107.03729
#
# Velocity S-wave (km/s) = -10.22317 3.89889 -6.68251
# Velocity P-wave (km/s) = 10.67699 7.40456 5.43924
#
# Compressibility (1/GPa) = 0.01645573
#
# Stress axis : x y z
#
# Youngs Moduli (GPa) = 95.90222 126.76026 152.18346
#
# Poissons Ratio (x) = -0.17557 0.25262
# Poissons Ratio (y) = -0.13283 0.59974
# Poissons Ratio (z) = 0.15919 0.49955
#
# Static dielectric constant tensor:
#      x y z
#    x 1.931690 0.000000 0.000010 
#    y 0.000000 1.928530 -0.000020 
#    z 0.000010 -0.000020 1.923630 
# 
# From -- ./inp_files/1522.got.cif
#   From: 2010.05.17/outbox.cif.g08.bks.cpg/sg74_1_cif.got.tgz:1522.got - 2010.06.03 17:57:02.
