data_PCOD9535019
_publ_section_title
;
Structure prediction by ZEFSAII (Michael W. Deem and Ramdas Pophale) SiO2 
 PCOD9535019
Probable space group: I M M A
;
_chemical_formula_sum "Si O2"
_cell_formula_units_Z 128
_cell_length_a 23.414286
_cell_length_b 26.028588
_cell_length_c 11.929032
_cell_angle_alpha 90.000000
_cell_angle_beta 90.000000
_cell_angle_gamma 90.000000
_cell_volume 7270.038848
_symmetry_space_group_name_H-M "I M M A"
_symmetry_group_IT_number 74
_symmetry_cell_setting 'orthorhombic'
loop_
_space_group_symop_operation_xyz
x,y,z
-x,1/2-y,z
x,-y,-z
-x,1/2+y,-z
-x,-y,-z
x,1/2+y,-z
-x,y,z
x,1/2-y,z
1/2+x,1/2+y,1/2+z
1/2-x,-y,1/2+z
1/2+x,1/2-y,1/2-z
1/2-x,y,1/2-z
1/2-x,1/2-y,1/2-z
1/2+x,y,1/2-z
1/2-x,1/2+y,1/2+z
1/2+x,-y,1/2+z
loop_
_atom_site_type_symbol
_atom_site_label
_atom_site_fract_x
_atom_site_fract_y
_atom_site_fract_z
Si Si1 0.567911 0.810113 0.720000
Si Si2 0.380637 0.904794 0.587602
Si Si3 0.064542 0.483793 0.230205
Si Si4 0.737283 0.964185 0.616620
Si Si5 0.932840 0.849216 0.527671
Si Si6 0.431257 0.195602 0.796281
Si Si7 0.638762 0.446571 0.066671
Si Si8 0.568724 0.901468 0.349275
O O1 0.500000 0.817003 0.694707
O O2 0.581714 0.750000 0.699714
O O3 0.603769 0.852162 0.651447
O O4 0.575707 0.824049 0.850988
O O5 0.426314 0.948923 0.621608
O O6 0.318913 0.928815 0.616277
O O7 0.392029 0.896701 0.457447
O O8 0.106600 0.458777 0.318553
O O9 0.077518 0.542798 0.205515
O O10 0.000000 0.479660 0.271918
O O11 0.750000 0.983855 0.750000
O O12 0.795489 0.934104 0.589369
O O13 0.730363 0.000000 0.500000
O O14 0.919148 0.810823 0.427334
O O15 0.895150 0.899910 0.512483
O O16 0.000000 0.863172 0.518869
O O17 0.500000 0.196928 0.785423
O O18 0.408549 0.250000 0.752820
O O19 0.414045 0.144479 0.732611
O O20 0.636397 0.500000 0.000000
O O21 0.500000 0.897571 0.374338
#
# Coordination Sequence:
#
# PCOD9535019 Si02
#       8
#    16  16  16  16  16  16  16  16
#     4  10  20  34  56  87 118 151 195 244 296 355
#     4  12  22  37  58  81 115 154 194 238 293 349
#     4  11  20  33  53  82 117 148 182 229 292 360
#     4  11  23  41  62  85 116 158 206 249 295 353
#     4  10  18  33  55  82 116 151 191 239 298 359
#     4   9  18  33  53  79 114 154 192 232 283 347
#     4  11  22  34  54  83 116 150 191 240 293 354
#     4  10  21  33  51  82 116 150 188 230 288 355
#
# _framework density 17.606508999999999
#
# number of rings (size 3 to 8) (size 9 to 14) (size 15 to 20)
#    0.000    1.500    2.500    3.750    0.000    5.000 
#    0.000    1.250    0.000    4.125    0.000    0.875 
#    0.000    0.000    0.000    0.000    0.000    0.000 
#
# Total GULP energy -356520.694473 kJ/mol
# GULP energy per Si atom -5570.635851 kJ/mol
# Density = 1.756644 g / cm^3
# Si number density = 17.606509 Si / 1000 Ang^3
#
#
#
# Elastic Constant Matrix: (Units=GPa)
#
#
# Indices 1 2 3 4 5 6 
#
# 1 50.4529 37.0861 13.9694 0.0000 0.0000 0.0000
# 2 37.0861 120.5981 17.6102 0.0000 0.0000 0.0000
# 3 13.9694 17.6102 48.3010 0.0000 0.0000 0.0000
# 4 0.0000 0.0000 0.0000 -3.9717 0.0000 0.0000
# 5 0.0000 0.0000 0.0000 0.0000 5.3185 0.0000
# 6 0.0000 0.0000 0.0000 0.0000 0.0000 15.0668
#
#
#
# Elastic Compliance Matrix: (Units=1/GPa)
#
#
# Indices 1 2 3 4 5 6 
#
# 1 0.026704 -0.007482 -0.004995 0.000000 0.000000 0.000000
# 2 -0.007482 0.010855 -0.001794 0.000000 0.000000 0.000000
# 3 -0.004995 -0.001794 0.022802 0.000000 0.000000 0.000000
# 4 0.000000 0.000000 0.000000 -0.251781 0.000000 0.000000
# 5 0.000000 0.000000 0.000000 0.000000 0.188024 0.000000
# 6 0.000000 0.000000 0.000000 0.000000 0.000000 0.066371
#
#
# Mechanical properties :
#
#
# Convention : Reuss Voigt Hill
#
# Bulk Modulus (GPa) = 31.42833 39.63149 35.52991
# Shear Modulus (GPa) = 48.96092 13.32848 31.14470
#
# Velocity S-wave (km/s) = 5.27909 2.75438 4.21043
# Velocity P-wave (km/s) = 7.41940 5.71611 6.62274
#
# Compressibility (1/GPa) = 0.03181843
#
# Stress axis : x y z
#
# Youngs Moduli (GPa) = 37.44822 92.12431 43.85569
#
# Poissons Ratio (x) = 0.68931 0.21906
# Poissons Ratio (y) = 0.28020 0.07866
# Poissons Ratio (z) = 0.18705 0.16523
#
# Static dielectric constant tensor:
#      x y z
#    x 1.588310 0.000000 0.000000 
#    y 0.000000 1.701480 0.000000 
#    z 0.000000 0.000000 1.776290 
# 
# From -- ./inp_files/25568.got.cif
#   From: 2010.05.17/outbox.cif.g08.bks.cpg/sg74_13_cif.got.tgz:25568.got - 2010.06.03 17:57:02.
