data_PCOD9535916
_publ_section_title
;
Structure prediction by ZEFSAII (Michael W. Deem and Ramdas Pophale) SiO2 
 PCOD9535916
Probable space group: I M M A
;
_chemical_formula_sum "Si O2"
_cell_formula_units_Z 80
_cell_length_a 19.214930
_cell_length_b 8.587165
_cell_length_c 27.275753
_cell_angle_alpha 90.000000
_cell_angle_beta 90.000000
_cell_angle_gamma 90.000000
_cell_volume 4500.547642
_symmetry_space_group_name_H-M "I M M A"
_symmetry_group_IT_number 74
_symmetry_cell_setting 'orthorhombic'
loop_
_space_group_symop_operation_xyz
x,y,z
-x,1/2-y,z
x,-y,-z
-x,1/2+y,-z
-x,-y,-z
x,1/2+y,-z
-x,y,z
x,1/2-y,z
1/2+x,1/2+y,1/2+z
1/2-x,-y,1/2+z
1/2+x,1/2-y,1/2-z
1/2-x,y,1/2-z
1/2-x,1/2-y,1/2-z
1/2+x,y,1/2-z
1/2-x,1/2+y,1/2+z
1/2+x,-y,1/2+z
loop_
_atom_site_type_symbol
_atom_site_label
_atom_site_fract_x
_atom_site_fract_y
_atom_site_fract_z
Si Si1 0.221616 0.436841 0.901005
Si Si2 0.079432 0.436745 0.653375
Si Si3 0.215803 0.436633 0.301739
Si Si4 0.858758 0.935480 0.552827
Si Si5 0.423513 0.062075 0.555164
O O1 0.227098 0.250000 0.905608
O O2 0.242036 0.487263 0.846437
O O3 0.279150 0.512881 0.936482
O O4 0.143797 0.487851 0.914521
O O5 0.086151 0.250000 0.653871
O O6 0.136558 0.507987 0.689972
O O7 0.098438 0.495709 0.598689
O O8 0.000000 0.478882 0.665212
O O9 0.218075 0.250000 0.306744
O O10 0.250000 0.480017 0.250000
O O11 0.863762 0.750000 0.553441
O O12 0.880868 0.000000 0.500000
O O13 0.500000 0.012753 0.573863
O O14 0.422799 0.250000 0.553798
O O15 0.416701 0.000000 0.500000
#
# Coordination Sequence:
#
# PCOD9535916 Si02
#       5
#    16  16  16  16  16
#     4  10  19  32  52  75 101 133 171 216 260 305
#     4  10  21  37  57  81 107 135 170 211 256 306
#     4  10  21  37  57  79 103 133 170 211 256 306
#     4  11  21  33  51  75 106 141 176 212 251 301
#     4   9  18  31  47  70 100 134 169 205 249 299
#
# _framework density 17.775614999999998
#
# number of rings (size 3 to 8) (size 9 to 14) (size 15 to 20)
#    0.000    2.000    0.000    6.600    0.000    6.800 
#    0.000    1.000    0.000    3.600    0.000    0.000 
#    0.000    0.000    0.000    0.000    0.000    0.000 
#
# Total GULP energy -223274.972233 kJ/mol
# GULP energy per Si atom -5581.874306 kJ/mol
# Density = 1.773516 g / cm^3
# Si number density = 17.775615 Si / 1000 Ang^3
#
#
#
# Elastic Constant Matrix: (Units=GPa)
#
#
# Indices 1 2 3 4 5 6 
#
# 1 134.5583 13.5859 33.5833 0.0000 0.0000 0.0000
# 2 13.5859 38.0442 7.0799 0.0000 0.0000 0.0000
# 3 33.5833 7.0799 67.6747 0.0000 0.0000 0.0000
# 4 0.0000 0.0000 0.0000 27.3754 0.0000 0.0000
# 5 0.0000 0.0000 0.0000 0.0000 9.5749 0.0000
# 6 0.0000 0.0000 0.0000 0.0000 0.0000 17.4572
#
#
#
# Elastic Compliance Matrix: (Units=1/GPa)
#
#
# Indices 1 2 3 4 5 6 
#
# 1 0.008683 -0.002344 -0.004063 0.000000 0.000000 0.000000
# 2 -0.002344 0.027440 -0.001707 0.000000 0.000000 0.000000
# 3 -0.004063 -0.001707 0.016972 0.000000 0.000000 0.000000
# 4 0.000000 0.000000 0.000000 0.036529 0.000000 0.000000
# 5 0.000000 0.000000 0.000000 0.000000 0.104440 0.000000
# 6 0.000000 0.000000 0.000000 0.000000 0.000000 0.057283
#
#
# Mechanical properties :
#
#
# Convention : Reuss Voigt Hill
#
# Bulk Modulus (GPa) = 27.12669 38.75283 32.93976
# Shear Modulus (GPa) = 17.86581 23.28338 20.57459
#
# Velocity S-wave (km/s) = 3.17373 3.62311 3.40584
# Velocity P-wave (km/s) = 5.35946 6.27304 5.83416
#
# Compressibility (1/GPa) = 0.03686407
#
# Stress axis : x y z
#
# Youngs Moduli (GPa) = 115.17303 36.44297 58.92184
#
# Poissons Ratio (x) = 0.08544 0.23942
# Poissons Ratio (y) = 0.27001 0.10060
# Poissons Ratio (z) = 0.46800 0.06222
#
# Static dielectric constant tensor:
#      x y z
#    x 1.632630 0.000000 0.000000 
#    y 0.000000 1.596930 0.000000 
#    z 0.000000 0.000000 1.574750 
# 
# From -- ./inp_files/67546.got.cif
#   From: 2010.05.17/outbox.cif.g08.bks.cpg/sg74_34_cif.got.tgz:67546.got - 2010.06.03 17:57:02.
