data_PCOD9535832
_publ_section_title
;
Structure prediction by ZEFSAII (Michael W. Deem and Ramdas Pophale) SiO2 
 PCOD9535832
Probable space group: I M M A
;
_chemical_formula_sum "Si O2"
_cell_formula_units_Z 80
_cell_length_a 7.723005
_cell_length_b 26.560147
_cell_length_c 18.905886
_cell_angle_alpha 90.000000
_cell_angle_beta 90.000000
_cell_angle_gamma 90.000000
_cell_volume 3878.053759
_symmetry_space_group_name_H-M "I M M A"
_symmetry_group_IT_number 74
_symmetry_cell_setting 'orthorhombic'
loop_
_space_group_symop_operation_xyz
x,y,z
-x,1/2-y,z
x,-y,-z
-x,1/2+y,-z
-x,-y,-z
x,1/2+y,-z
-x,y,z
x,1/2-y,z
1/2+x,1/2+y,1/2+z
1/2-x,-y,1/2+z
1/2+x,1/2-y,1/2-z
1/2-x,y,1/2-z
1/2-x,1/2-y,1/2-z
1/2+x,y,1/2-z
1/2-x,1/2+y,1/2+z
1/2+x,-y,1/2+z
loop_
_atom_site_type_symbol
_atom_site_label
_atom_site_fract_x
_atom_site_fract_y
_atom_site_fract_z
Si Si1 0.293939 0.150919 0.420398
Si Si2 0.712789 0.652580 0.418816
Si Si3 0.791276 0.056803 0.168248
Si Si4 0.295639 0.750000 0.832795
Si Si5 0.792051 0.250000 0.832482
Si Si6 0.708140 0.443750 0.668181
O O1 0.500000 0.143591 0.426967
O O2 0.228378 0.157475 0.500203
O O3 0.223492 0.101211 0.381477
O O4 0.268624 0.200065 0.372530
O O5 0.500000 0.652828 0.418250
O O6 0.770979 0.699867 0.371990
O O7 0.770281 0.600423 0.382952
O O8 0.750000 0.067905 0.250000
O O9 0.000000 0.055677 0.161993
O O10 0.726578 0.000255 0.152286
O O11 0.500000 0.750000 0.838517
O O12 0.250000 0.750000 0.750000
O O13 0.750000 0.250000 0.750000
O O14 0.000000 0.250000 0.838811
O O15 0.500000 0.445165 0.662062
O O16 0.750000 0.432344 0.750000
#
# Coordination Sequence:
#
# PCOD9535832 Si02
#       6
#    16  16  16   8   8  16
#     4  10  20  36  56  78 104 136 170 211 260 309
#     4   9  18  32  52  75 103 136 171 210 257 307
#     4   9  18  31  51  76 102 133 172 213 254 300
#     4  12  25  40  58  80 104 134 171 212 254 306
#     4  10  19  32  50  72  96 130 171 210 252 304
#     4   9  17  31  50  75 104 137 175 215 255 301
#
# _framework density 20.628905
#
# number of rings (size 3 to 8) (size 9 to 14) (size 15 to 20)
#    0.000    2.400    0.000    2.700    0.000    4.800 
#    0.000    7.000    0.000    0.000    0.000    7.000 
#    0.000    0.000    0.000    0.000    0.000    0.000 
#
# Total GULP energy -223361.159481 kJ/mol
# GULP energy per Si atom -5584.028987 kJ/mol
# Density = 2.058195 g / cm^3
# Si number density = 20.628905 Si / 1000 Ang^3
#
#
#
# Elastic Constant Matrix: (Units=GPa)
#
#
# Indices 1 2 3 4 5 6 
#
# 1 30.1395 0.2778 -2.9782 0.0000 0.0000 0.0000
# 2 0.2778 185.5877 145.7047 0.0000 0.0000 0.0000
# 3 -2.9782 145.7047 198.5750 0.0001 0.0000 0.0000
# 4 0.0000 0.0000 0.0001 -3.6733 0.0000 0.0000
# 5 0.0000 0.0000 0.0000 0.0000 23.6101 0.0000
# 6 0.0000 0.0000 0.0000 0.0000 0.0000 -7.2733
#
#
#
# Elastic Compliance Matrix: (Units=1/GPa)
#
#
# Indices 1 2 3 4 5 6 
#
# 1 0.033314 -0.001043 0.001265 0.000000 0.000000 0.000000
# 2 -0.001043 0.012743 -0.009366 0.000000 0.000000 0.000000
# 3 0.001265 -0.009366 0.011927 0.000000 0.000000 0.000000
# 4 0.000000 0.000000 0.000000 -0.272232 0.000000 0.000000
# 5 0.000000 0.000000 0.000000 0.000000 0.042355 0.000000
# 6 0.000000 0.000000 0.000000 0.000000 0.000000 -0.137490
#
#
# Mechanical properties :
#
#
# Convention : Reuss Voigt Hill
#
# Bulk Modulus (GPa) = 25.19148 77.81232 51.50190
# Shear Modulus (GPa) = -17.99440 20.61923 1.31242
#
# Velocity S-wave (km/s) = -2.95666 3.16497 0.79849
# Velocity P-wave (km/s) = 0.76319 7.15248 5.08628
#
# Compressibility (1/GPa) = 0.03969597
#
# Stress axis : x y z
#
# Youngs Moduli (GPa) = 30.01769 78.47516 83.84353
#
# Poissons Ratio (x) = 0.08184 -0.10605
# Poissons Ratio (y) = 0.03131 0.78526
# Poissons Ratio (z) = -0.03797 0.73498
#
# Static dielectric constant tensor:
#      x y z
#    x 1.762760 0.000000 0.000000 
#    y 0.000000 1.706780 0.000000 
#    z 0.000000 0.000000 1.681730 
# 
# From -- ./inp_files/39794.got.cif
#   From: 2010.05.17/outbox.cif.g08.bks.cpg/sg74_20_cif.got.tgz:39794.got - 2010.06.03 17:57:02.
