data_PCOD9535683
_publ_section_title
;
Structure prediction by ZEFSAII (Michael W. Deem and Ramdas Pophale) SiO2 
 PCOD9535683
Probable space group: I M M A
;
_chemical_formula_sum "Si O2"
_cell_formula_units_Z 112
_cell_length_a 14.879725
_cell_length_b 25.726726
_cell_length_c 15.003920
_cell_angle_alpha 90.000000
_cell_angle_beta 90.000000
_cell_angle_gamma 90.000000
_cell_volume 5743.599722
_symmetry_space_group_name_H-M "I M M A"
_symmetry_group_IT_number 74
_symmetry_cell_setting 'orthorhombic'
loop_
_space_group_symop_operation_xyz
x,y,z
-x,1/2-y,z
x,-y,-z
-x,1/2+y,-z
-x,-y,-z
x,1/2+y,-z
-x,y,z
x,1/2-y,z
1/2+x,1/2+y,1/2+z
1/2-x,-y,1/2+z
1/2+x,1/2-y,1/2-z
1/2-x,y,1/2-z
1/2-x,1/2-y,1/2-z
1/2+x,y,1/2-z
1/2-x,1/2+y,1/2+z
1/2+x,-y,1/2+z
loop_
_atom_site_type_symbol
_atom_site_label
_atom_site_fract_x
_atom_site_fract_y
_atom_site_fract_z
Si Si1 0.723041 0.807364 0.559512
Si Si2 0.605823 0.847816 0.402852
Si Si3 0.894734 0.810392 0.302429
Si Si4 0.271632 0.902490 0.147071
Si Si5 0.097679 0.305890 0.230543
Si Si6 0.899561 0.497975 0.605514
Si Si7 0.683105 0.607261 0.835993
O O1 0.766838 0.750000 0.547505
O O2 0.650126 0.813978 0.481143
O O3 0.671268 0.805903 0.653998
O O4 0.779194 0.860438 0.577952
O O5 0.500000 0.858175 0.417755
O O6 0.614030 0.822188 0.304060
O O7 0.674829 0.896457 0.399595
O O8 0.873721 0.750000 0.317840
O O9 0.828236 0.848433 0.355686
O O10 0.000000 0.819822 0.324727
O O11 0.250000 0.910456 0.250000
O O12 0.334862 0.949528 0.121567
O O13 0.104779 0.250000 0.277686
O O14 0.110308 0.352907 0.296895
O O15 0.000000 0.309029 0.187287
O O16 0.908516 0.500000 0.500000
O O17 0.855991 0.551648 0.638790
O O18 0.000000 0.490781 0.644868
O O19 0.750000 0.600651 0.750000
#
# Coordination Sequence:
#
# PCOD9535683 Si02
#       7
#    16  16  16  16  16  16  16
#     4  10  19  31  50  77 110 144 175 210 257 313
#     4  10  20  33  52  80 112 144 177 212 257 316
#     4   9  18  33  54  80 109 141 177 217 261 312
#     4  10  21  37  57  79 106 139 178 221 267 316
#     4   9  17  30  50  76 105 137 174 216 260 309
#     4  11  23  39  59  79 101 134 178 228 276 321
#     4  10  20  35  54  76 104 138 177 219 264 315
#
# _framework density 19.499967000000002
#
# number of rings (size 3 to 8) (size 9 to 14) (size 15 to 20)
#    0.000    2.143    0.000    3.429    0.000    6.857 
#    0.000    0.000    0.000    4.714    0.000    6.000 
#    0.000    0.000    0.000    0.000    0.000    0.000 
#
# Total GULP energy -311967.085383 kJ/mol
# GULP energy per Si atom -5570.840810 kJ/mol
# Density = 1.945558 g / cm^3
# Si number density = 19.499967 Si / 1000 Ang^3
#
#
#
# Elastic Constant Matrix: (Units=GPa)
#
#
# Indices 1 2 3 4 5 6 
#
# 1 96.2330 68.3415 15.7719 0.0000 0.0000 0.0000
# 2 68.3415 143.7231 20.9350 0.0000 0.0000 0.0000
# 3 15.7719 20.9350 38.3890 0.0000 0.0000 0.0000
# 4 0.0000 0.0000 0.0000 2.5988 0.0000 0.0000
# 5 0.0000 0.0000 0.0000 0.0000 21.3444 0.0000
# 6 0.0000 0.0000 0.0000 0.0000 0.0000 41.2745
#
#
#
# Elastic Compliance Matrix: (Units=1/GPa)
#
#
# Indices 1 2 3 4 5 6 
#
# 1 0.015929 -0.007192 -0.002622 0.000000 0.000000 0.000000
# 2 -0.007192 0.010806 -0.002938 0.000000 0.000000 0.000000
# 3 -0.002622 -0.002938 0.028729 0.000000 0.000000 0.000000
# 4 0.000000 0.000000 0.000000 0.384792 0.000000 0.000000
# 5 0.000000 0.000000 0.000000 0.000000 0.046851 0.000000
# 6 0.000000 0.000000 0.000000 0.000000 0.000000 0.024228
#
#
# Mechanical properties :
#
#
# Convention : Reuss Voigt Hill
#
# Bulk Modulus (GPa) = 33.37928 54.27131 43.82529
# Shear Modulus (GPa) = 9.14368 24.59665 16.87017
#
# Velocity S-wave (km/s) = 2.16778 3.55543 2.94451
# Velocity P-wave (km/s) = 4.83947 6.68929 5.83811
#
# Compressibility (1/GPa) = 0.02995871
#
# Stress axis : x y z
#
# Youngs Moduli (GPa) = 62.77855 92.54268 34.80860
#
# Poissons Ratio (x) = 0.66561 0.09127
# Poissons Ratio (y) = 0.45153 0.10226
# Poissons Ratio (z) = 0.16461 0.27188
#
# Static dielectric constant tensor:
#      x y z
#    x 1.736170 0.000000 0.000000 
#    y 0.000000 1.707200 0.000000 
#    z 0.000000 0.000000 1.684300 
# 
# From -- ./inp_files/32968.got.cif
#   From: 2010.05.17/outbox.cif.g08.bks.cpg/sg74_17_cif.got.tgz:32968.got - 2010.06.03 17:57:02.
