data_PCOD9535777
_publ_section_title
;
Structure prediction by ZEFSAII (Michael W. Deem and Ramdas Pophale) SiO2 
 PCOD9535777
Probable space group: I M M A
;
_chemical_formula_sum "Si O2"
_cell_formula_units_Z 80
_cell_length_a 8.658449
_cell_length_b 19.588485
_cell_length_c 33.767133
_cell_angle_alpha 90.000000
_cell_angle_beta 90.000000
_cell_angle_gamma 90.000000
_cell_volume 5727.104927
_symmetry_space_group_name_H-M "I M M A"
_symmetry_group_IT_number 74
_symmetry_cell_setting 'orthorhombic'
loop_
_space_group_symop_operation_xyz
x,y,z
-x,1/2-y,z
x,-y,-z
-x,1/2+y,-z
-x,-y,-z
x,1/2+y,-z
-x,y,z
x,1/2-y,z
1/2+x,1/2+y,1/2+z
1/2-x,-y,1/2+z
1/2+x,1/2-y,1/2-z
1/2-x,y,1/2-z
1/2-x,1/2-y,1/2-z
1/2+x,y,1/2-z
1/2-x,1/2+y,1/2+z
1/2+x,-y,1/2+z
loop_
_atom_site_type_symbol
_atom_site_label
_atom_site_fract_x
_atom_site_fract_y
_atom_site_fract_z
Si Si1 0.184535 0.250000 0.500922
Si Si2 0.684026 0.384943 0.127712
Si Si3 0.683261 0.250000 0.413833
Si Si4 0.685025 0.670059 0.706538
Si Si5 0.316212 0.028160 0.439799
Si Si6 0.684202 0.901214 0.017937
O O1 0.278290 0.250000 0.460156
O O2 0.217273 0.321064 0.522893
O O3 0.000000 0.250000 0.491398
O O4 0.500000 0.387858 0.126789
O O5 0.743008 0.316863 0.105534
O O6 0.744006 0.376725 0.172386
O O7 0.754061 0.446856 0.102343
O O8 0.500000 0.250000 0.406818
O O9 0.500000 0.664996 0.706271
O O10 0.725399 0.750000 0.698193
O O11 0.750000 0.654194 0.750000
O O12 0.500000 0.035781 0.441788
O O13 0.240746 0.075129 0.474319
O O14 0.266900 0.951654 0.451463
O O15 0.500000 0.911850 0.020107
#
# Coordination Sequence:
#
# PCOD9535777 Si02
#       6
#     8  16   8  16  16  16
#     4  10  20  32  48  65  87 116 149 187 228 272
#     4  12  22  33  48  64  87 118 152 189 229 269
#     4  12  22  30  43  65  88 112 150 193 228 266
#     4  10  20  33  48  66  90 116 147 185 226 267
#     4  11  21  32  45  64  88 115 149 189 228 266
#     4  10  19  32  47  64  87 116 148 184 228 274
#
# _framework density 13.968662999999999
#
# number of rings (size 3 to 8) (size 9 to 14) (size 15 to 20)
#    0.000    1.200    3.000    6.900    0.000    1.600 
#    0.000    0.000    0.000    0.000    0.000    0.000 
#    0.000    0.000    0.000    0.900    0.000   11.400 
#
# Total GULP energy -223414.291444 kJ/mol
# GULP energy per Si atom -5585.357286 kJ/mol
# Density = 1.393687 g / cm^3
# Si number density = 13.968663 Si / 1000 Ang^3
#
#
#
# Elastic Constant Matrix: (Units=GPa)
#
#
# Indices 1 2 3 4 5 6 
#
# 1 76.6936 22.1695 32.1125 0.0000 0.0000 0.0000
# 2 22.1695 76.6827 37.1857 0.0000 0.0000 0.0000
# 3 32.1125 37.1857 90.5173 0.0000 0.0000 0.0000
# 4 0.0000 0.0000 0.0000 27.2648 0.0000 0.0000
# 5 0.0000 0.0000 0.0000 0.0000 23.6962 0.0000
# 6 0.0000 0.0000 0.0000 0.0000 0.0000 -3.2057
#
#
#
# Elastic Compliance Matrix: (Units=1/GPa)
#
#
# Indices 1 2 3 4 5 6 
#
# 1 0.015628 -0.002285 -0.004606 0.000000 0.000000 0.000000
# 2 -0.002285 0.016619 -0.006017 0.000000 0.000000 0.000000
# 3 -0.004606 -0.006017 0.015153 0.000000 0.000000 0.000000
# 4 0.000000 0.000000 0.000000 0.036677 0.000000 0.000000
# 5 0.000000 0.000000 0.000000 0.000000 0.042201 0.000000
# 6 0.000000 0.000000 0.000000 0.000000 0.000000 -0.311942
#
#
# Mechanical properties :
#
#
# Convention : Reuss Voigt Hill
#
# Bulk Modulus (GPa) = 46.32659 47.42545 46.87602
# Shear Modulus (GPa) = -32.75384 19.71276 -6.52054
#
# Velocity S-wave (km/s) = -4.84758 3.76069 -2.16289
# Velocity P-wave (km/s) = 1.38010 7.27200 5.23387
#
# Compressibility (1/GPa) = 0.02158587
#
# Stress axis : x y z
#
# Youngs Moduli (GPa) = 63.98874 60.17213 65.99214
#
# Poissons Ratio (x) = 0.13747 0.30394
# Poissons Ratio (y) = 0.14619 0.39706
# Poissons Ratio (z) = 0.29471 0.36204
#
# Static dielectric constant tensor:
#      x y z
#    x 1.462930 0.000000 0.000000 
#    y 0.000000 1.477470 0.000000 
#    z 0.000000 0.000000 1.448110 
# 
# From -- ./inp_files/70397.got.cif
#   From: 2010.05.17/outbox.cif.g08.bks.cpg/sg74_36_cif.got.tgz:70397.got - 2010.06.03 17:57:02.
