data_PCOD9535005
_publ_section_title
;
Structure prediction by ZEFSAII (Michael W. Deem and Ramdas Pophale) SiO2 
 PCOD9535005
Probable space group: I M M A
;
_chemical_formula_sum "Si O2"
_cell_formula_units_Z 60
_cell_length_a 23.584457
_cell_length_b 20.210558
_cell_length_c 7.057831
_cell_angle_alpha 90.000000
_cell_angle_beta 90.000000
_cell_angle_gamma 90.000000
_cell_volume 3364.150690
_symmetry_space_group_name_H-M "I M M A"
_symmetry_group_IT_number 74
_symmetry_cell_setting 'orthorhombic'
loop_
_space_group_symop_operation_xyz
x,y,z
-x,1/2-y,z
x,-y,-z
-x,1/2+y,-z
-x,-y,-z
x,1/2+y,-z
-x,y,z
x,1/2-y,z
1/2+x,1/2+y,1/2+z
1/2-x,-y,1/2+z
1/2+x,1/2-y,1/2-z
1/2-x,y,1/2-z
1/2-x,1/2-y,1/2-z
1/2+x,y,1/2-z
1/2-x,1/2+y,1/2+z
1/2+x,-y,1/2+z
loop_
_atom_site_type_symbol
_atom_site_label
_atom_site_fract_x
_atom_site_fract_y
_atom_site_fract_z
Si Si1 0.874013 0.250000 0.297555
Si Si2 0.376788 0.351019 0.528293
Si Si3 0.000000 0.155451 0.821079
Si Si4 0.316175 0.750000 0.203800
Si Si5 0.000000 0.250000 0.468372
Si Si6 0.901746 0.000000 0.000000
Si Si7 0.000000 0.497249 0.723839
O O1 0.861627 0.185289 0.168377
O O2 0.836069 0.250000 0.486319
O O3 0.940841 0.250000 0.355557
O O4 0.442580 0.331447 0.566314
O O5 0.342782 0.314147 0.693564
O O6 0.370189 0.430707 0.540670
O O7 0.000000 0.189636 0.617174
O O8 0.000000 0.078540 0.781824
O O9 0.250000 0.750000 0.250000
O O10 0.943368 0.977560 0.826836
O O11 0.000000 0.500000 0.500000
#
# Coordination Sequence:
#
# PCOD9535005 Si02
#       7
#     8  16   8   8   4   8   8
#     4  11  22  34  62  85 110 156 189 230 293 354
#     4  10  21  38  57  86 120 149 190 241 292 350
#     4  10  18  33  50  84 121 145 179 238 283 339
#     4  11  24  42  61  80 112 151 201 251 287 333
#     4  12  18  28  56  86 114 142 192 224 282 334
#     4   9  20  34  54  82 122 150 184 237 280 340
#     4   9  19  29  49  77 121 164 181 205 275 357
#
# _framework density 17.835111000000001
#
# number of rings (size 3 to 8) (size 9 to 14) (size 15 to 20)
#    0.000    1.867    2.667    2.400    3.733    2.133 
#    0.000    0.000    5.867    0.000    0.000    0.000 
#    0.000    0.000    0.000    0.000    0.000    0.000 
#
# Total GULP energy -167180.683178 kJ/mol
# GULP energy per Si atom -5572.689439 kJ/mol
# Density = 1.779452 g / cm^3
# Si number density = 17.835111 Si / 1000 Ang^3
#
#
#
# Elastic Constant Matrix: (Units=GPa)
#
#
# Indices 1 2 3 4 5 6 
#
# 1 77.7429 23.3820 35.1682 0.0000 0.0000 0.0000
# 2 23.3820 118.9680 28.0774 0.0000 0.0000 0.0000
# 3 35.1682 28.0774 141.7286 0.0000 0.0000 0.0000
# 4 0.0000 0.0000 0.0000 58.9373 0.0000 0.0000
# 5 0.0000 0.0000 0.0000 0.0000 -0.9063 0.0000
# 6 0.0000 0.0000 0.0000 0.0000 0.0000 -2.6799
#
#
#
# Elastic Compliance Matrix: (Units=1/GPa)
#
#
# Indices 1 2 3 4 5 6 
#
# 1 0.015006 -0.002172 -0.003293 0.000000 0.000000 0.000000
# 2 -0.002172 0.009132 -0.001270 0.000000 0.000000 0.000000
# 3 -0.003293 -0.001270 0.008125 0.000000 0.000000 0.000000
# 4 0.000000 0.000000 0.000000 0.016967 0.000000 0.000000
# 5 0.000000 0.000000 0.000000 0.000000 -1.103381 0.000000
# 6 0.000000 0.000000 0.000000 0.000000 0.000000 -0.373147
#
#
# Mechanical properties :
#
#
# Convention : Reuss Voigt Hill
#
# Bulk Modulus (GPa) = 53.21468 56.85495 55.03481
# Shear Modulus (GPa) = -3.55224 27.85769 12.15273
#
# Velocity S-wave (km/s) = -1.41281 3.95645 2.61318
# Velocity P-wave (km/s) = 5.21924 7.26764 6.32689
#
# Compressibility (1/GPa) = 0.01879181
#
# Stress axis : x y z
#
# Youngs Moduli (GPa) = 66.64038 109.50155 123.08379
#
# Poissons Ratio (x) = 0.23784 0.40534
# Poissons Ratio (y) = 0.14475 0.15634
# Poissons Ratio (z) = 0.21946 0.13909
#
# Static dielectric constant tensor:
#      x y z
#    x 1.656550 0.000000 0.000000 
#    y 0.000000 1.593600 0.000000 
#    z 0.000000 0.000000 1.631650 
# 
# From -- ./inp_files/2962.got.cif
#   From: 2010.05.17/outbox.cif.g08.bks.cpg/sg74_2_cif.got.tgz:2962.got - 2010.06.03 17:57:02.
