data_PCOD9535278
_publ_section_title
;
Structure prediction by ZEFSAII (Michael W. Deem and Ramdas Pophale) SiO2 
 PCOD9535278
Probable space group: I M M A
;
_chemical_formula_sum "Si O2"
_cell_formula_units_Z 104
_cell_length_a 25.765170
_cell_length_b 7.434194
_cell_length_c 20.668660
_cell_angle_alpha 90.000000
_cell_angle_beta 90.000000
_cell_angle_gamma 90.000000
_cell_volume 3958.942769
_symmetry_space_group_name_H-M "I M M A"
_symmetry_group_IT_number 74
_symmetry_cell_setting 'orthorhombic'
loop_
_space_group_symop_operation_xyz
x,y,z
-x,1/2-y,z
x,-y,-z
-x,1/2+y,-z
-x,-y,-z
x,1/2+y,-z
-x,y,z
x,1/2-y,z
1/2+x,1/2+y,1/2+z
1/2-x,-y,1/2+z
1/2+x,1/2-y,1/2-z
1/2-x,y,1/2-z
1/2-x,1/2-y,1/2-z
1/2+x,y,1/2-z
1/2-x,1/2+y,1/2+z
1/2+x,-y,1/2+z
loop_
_atom_site_type_symbol
_atom_site_label
_atom_site_fract_x
_atom_site_fract_y
_atom_site_fract_z
Si Si1 0.943507 0.032518 0.603474
Si Si2 0.671191 0.031024 0.249028
Si Si3 0.668573 0.451650 0.902422
Si Si4 0.000000 0.465914 0.077484
Si Si5 0.056383 0.036930 0.241860
Si Si6 0.280019 0.463671 0.376705
Si Si7 0.610978 0.034819 0.424364
O O1 0.942898 0.250000 0.597656
O O2 0.887186 0.962656 0.579052
O O3 0.000000 0.969012 0.577842
O O4 0.943254 0.987986 0.679931
O O5 0.673238 0.250000 0.241624
O O6 0.614393 0.979130 0.277711
O O7 0.714029 0.975825 0.301742
O O8 0.671409 0.957626 0.176369
O O9 0.665348 0.250000 0.926743
O O10 0.727245 0.509983 0.916269
O O11 0.055668 0.532489 0.103077
O O12 0.000000 0.250000 0.085796
O O13 0.000000 0.500000 0.000000
O O14 0.055179 0.250000 0.228383
O O15 0.000000 0.962538 0.221829
O O16 0.284400 0.250000 0.372048
O O17 0.332569 0.537970 0.407147
O O18 0.611931 0.250000 0.412146
O O19 0.606400 0.000000 0.500000
#
# Coordination Sequence:
#
# PCOD9535278 Si02
#       7
#    16  16  16   8  16  16  16
#     4   8  14  25  40  57  78 107 142 179 216 251
#     4   9  17  29  42  58  85 121 153 183 223 268
#     4  10  19  29  44  65  88 118 155 190 221 259
#     4   8  14  28  50  72  90 112 146 188 234 282
#     4   8  13  22  36  54  75 102 140 182 218 251
#     4  10  20  32  44  63  91 121 150 180 224 277
#     4   9  18  33  52  72  92 117 150 191 238 283
#
# _framework density 26.269639999999999
#
# number of rings (size 3 to 8) (size 9 to 14) (size 15 to 20)
#    0.000    3.077    0.000    0.923    0.000    3.692 
#    1.385    0.000    0.000    0.000    0.000    0.000 
#    0.000    0.615    0.000    1.385    0.000    2.462 
#
# Total GULP energy -289932.268005 kJ/mol
# GULP energy per Si atom -5575.620539 kJ/mol
# Density = 2.620985 g / cm^3
# Si number density = 26.269640 Si / 1000 Ang^3
#
#
#
# Elastic Constant Matrix: (Units=GPa)
#
#
# Indices 1 2 3 4 5 6 
#
# 1 270.1019 7.2409 32.3830 0.0000 0.0000 0.0000
# 2 7.2409 84.2711 -5.8324 0.0000 0.0000 0.0000
# 3 32.3830 -5.8324 53.1288 0.0000 0.0000 0.0000
# 4 0.0000 0.0000 0.0000 -2.0948 0.0000 0.0000
# 5 0.0000 0.0000 0.0000 0.0000 24.4533 0.0000
# 6 0.0000 0.0000 0.0000 0.0000 0.0000 63.4418
#
#
#
# Elastic Compliance Matrix: (Units=1/GPa)
#
#
# Indices 1 2 3 4 5 6 
#
# 1 0.004017 -0.000518 -0.002505 0.000000 0.000000 0.000000
# 2 -0.000518 0.012024 0.001636 0.000000 0.000000 0.000000
# 3 -0.002505 0.001636 0.020529 0.000000 0.000000 0.000000
# 4 0.000000 0.000000 0.000000 -0.477382 0.000000 0.000000
# 5 0.000000 0.000000 0.000000 0.000000 0.040894 0.000000
# 6 0.000000 0.000000 0.000000 0.000000 0.000000 0.015762
#
#
# Mechanical properties :
#
#
# Convention : Reuss Voigt Hill
#
# Bulk Modulus (GPa) = 29.59073 52.78721 41.18897
# Shear Modulus (GPa) = -13.50928 42.07410 14.28241
#
# Velocity S-wave (km/s) = -2.27018 4.00637 2.33423
# Velocity P-wave (km/s) = 2.10168 6.44510 4.79356
#
# Compressibility (1/GPa) = 0.03379437
#
# Stress axis : x y z
#
# Youngs Moduli (GPa) = 248.97015 83.16529 48.71234
#
# Poissons Ratio (x) = 0.04312 0.12203
# Poissons Ratio (y) = 0.12909 -0.07969
# Poissons Ratio (z) = 0.62369 -0.13606
#
# Static dielectric constant tensor:
#      x y z
#    x 2.185740 0.000000 0.000000 
#    y 0.000000 1.785190 0.000000 
#    z 0.000000 0.000000 2.113110 
# 
# From -- ./inp_files/62350.got.cif
#   From: 2010.05.17/outbox.cif.g08.bks.cpg/sg74_32_cif.got.tgz:62350.got - 2010.06.03 17:57:02.
