data_PCOD9535385
_publ_section_title
;
Structure prediction by ZEFSAII (Michael W. Deem and Ramdas Pophale) SiO2 
 PCOD9535385
Probable space group: I M M A
;
_chemical_formula_sum "Si O2"
_cell_formula_units_Z 80
_cell_length_a 24.241410
_cell_length_b 8.793425
_cell_length_c 26.597234
_cell_angle_alpha 90.000000
_cell_angle_beta 90.000000
_cell_angle_gamma 90.000000
_cell_volume 5669.599937
_symmetry_space_group_name_H-M "I M M A"
_symmetry_group_IT_number 74
_symmetry_cell_setting 'orthorhombic'
loop_
_space_group_symop_operation_xyz
x,y,z
-x,1/2-y,z
x,-y,-z
-x,1/2+y,-z
-x,-y,-z
x,1/2+y,-z
-x,y,z
x,1/2-y,z
1/2+x,1/2+y,1/2+z
1/2-x,-y,1/2+z
1/2+x,1/2-y,1/2-z
1/2-x,y,1/2-z
1/2-x,1/2-y,1/2-z
1/2+x,y,1/2-z
1/2-x,1/2+y,1/2+z
1/2+x,-y,1/2+z
loop_
_atom_site_type_symbol
_atom_site_label
_atom_site_fract_x
_atom_site_fract_y
_atom_site_fract_z
Si Si1 0.717494 0.574021 0.696579
Si Si2 0.681548 0.570371 0.150089
Si Si3 0.500000 0.068431 0.782741
Si Si4 0.614595 0.932839 0.756919
Si Si5 0.890341 0.068130 0.554426
Si Si6 0.000000 0.932404 0.604577
O O1 0.715848 0.750000 0.680460
O O2 0.750000 0.569905 0.750000
O O3 0.755403 0.479028 0.659077
O O4 0.656184 0.522348 0.711749
O O5 0.675671 0.750000 0.159678
O O6 0.644148 0.483445 0.191172
O O7 0.657562 0.537567 0.095120
O O8 0.500000 0.250000 0.786655
O O9 0.555174 0.009597 0.755822
O O10 0.500000 0.997986 0.838901
O O11 0.610050 0.750000 0.756843
O O12 0.898099 0.250000 0.551135
O O13 0.878175 0.000000 0.500000
O O14 0.946037 0.993334 0.576064
O O15 0.000000 0.750000 0.606170
#
# Coordination Sequence:
#
# PCOD9535385 Si02
#       6
#    16  16   8  16  16   8
#     4   8  16  29  45  64  85 109 141 175 212 264
#     4  10  19  30  46  65  86 110 142 184 224 261
#     4  12  22  31  45  66  90 116 148 187 222 261
#     4  10  19  31  46  64  86 115 146 176 216 264
#     4  11  23  36  48  64  86 113 150 192 229 268
#     4  12  23  35  50  62  81 116 150 189 233 269
#
# _framework density 14.110343
#
# number of rings (size 3 to 8) (size 9 to 14) (size 15 to 20)
#    0.000    1.800    2.000    5.100    0.000    6.800 
#    0.000    0.000    0.000    0.000    0.000    0.000 
#    0.000    0.000    0.000    0.900    0.000   11.800 
#
# Total GULP energy -223152.441745 kJ/mol
# GULP energy per Si atom -5578.811044 kJ/mol
# Density = 1.407823 g / cm^3
# Si number density = 14.110343 Si / 1000 Ang^3
#
#
#
# Elastic Constant Matrix: (Units=GPa)
#
#
# Indices 1 2 3 4 5 6 
#
# 1 116.7957 54.0374 57.4872 0.0000 0.0000 0.0000
# 2 54.0374 82.4722 43.4995 0.0000 0.0000 0.0000
# 3 57.4872 43.4995 59.5812 0.0000 0.0000 0.0000
# 4 0.0000 0.0000 0.0000 19.7225 0.0000 0.0000
# 5 0.0000 0.0000 0.0000 0.0000 9.1601 0.0000
# 6 0.0000 0.0000 0.0000 0.0000 0.0000 24.1636
#
#
#
# Elastic Compliance Matrix: (Units=1/GPa)
#
#
# Indices 1 2 3 4 5 6 
#
# 1 0.017106 -0.004070 -0.013534 0.000000 0.000000 0.000000
# 2 -0.004070 0.020687 -0.011176 0.000000 0.000000 0.000000
# 3 -0.013534 -0.011176 0.038001 0.000000 0.000000 0.000000
# 4 0.000000 0.000000 0.000000 0.050703 0.000000 0.000000
# 5 0.000000 0.000000 0.000000 0.000000 0.109170 0.000000
# 6 0.000000 0.000000 0.000000 0.000000 0.000000 0.041385
#
#
# Mechanical properties :
#
#
# Convention : Reuss Voigt Hill
#
# Bulk Modulus (GPa) = 54.84010 63.21083 59.02547
# Shear Modulus (GPa) = 14.67608 17.53090 16.10349
#
# Velocity S-wave (km/s) = 3.22855 3.52861 3.38191
# Velocity P-wave (km/s) = 7.26963 7.84196 7.56121
#
# Compressibility (1/GPa) = 0.01823483
#
# Stress axis : x y z
#
# Youngs Moduli (GPa) = 58.45770 48.33960 26.31490
#
# Poissons Ratio (x) = 0.19675 0.35613
# Poissons Ratio (y) = 0.23794 0.29410
# Poissons Ratio (z) = 0.79114 0.54025
#
# Static dielectric constant tensor:
#      x y z
#    x 1.482370 0.000000 0.000000 
#    y 0.000000 1.473030 0.000000 
#    z 0.000000 0.000000 1.439470 
# 
# From -- ./inp_files/57200.got.cif
#   From: 2010.05.17/outbox.cif.g08.bks.cpg/sg74_29_cif.got.tgz:57200.got - 2010.06.03 17:57:02.
