data_PCOD9535273
_publ_section_title
;
Structure prediction by ZEFSAII (Michael W. Deem and Ramdas Pophale) SiO2 
 PCOD9535273
Probable space group: I M M A
;
_chemical_formula_sum "Si O2"
_cell_formula_units_Z 104
_cell_length_a 8.669345
_cell_length_b 27.446872
_cell_length_c 21.361973
_cell_angle_alpha 90.000000
_cell_angle_beta 90.000000
_cell_angle_gamma 90.000000
_cell_volume 5083.004626
_symmetry_space_group_name_H-M "I M M A"
_symmetry_group_IT_number 74
_symmetry_cell_setting 'orthorhombic'
loop_
_space_group_symop_operation_xyz
x,y,z
-x,1/2-y,z
x,-y,-z
-x,1/2+y,-z
-x,-y,-z
x,1/2+y,-z
-x,y,z
x,1/2-y,z
1/2+x,1/2+y,1/2+z
1/2-x,-y,1/2+z
1/2+x,1/2-y,1/2-z
1/2-x,y,1/2-z
1/2-x,1/2-y,1/2-z
1/2+x,y,1/2-z
1/2-x,1/2+y,1/2+z
1/2+x,-y,1/2+z
loop_
_atom_site_type_symbol
_atom_site_label
_atom_site_fract_x
_atom_site_fract_y
_atom_site_fract_z
Si Si1 0.681493 0.916176 0.685343
Si Si2 0.813520 0.141270 0.543622
Si Si3 0.670834 0.961172 0.446405
Si Si4 0.314879 0.339971 0.093750
Si Si5 0.174949 0.020339 0.670829
Si Si6 0.686770 0.750000 0.820080
Si Si7 0.684958 0.633101 0.185296
O O1 0.500000 0.910467 0.685572
O O2 0.750000 0.894713 0.750000
O O3 0.748797 0.889442 0.624257
O O4 0.724706 0.973423 0.686737
O O5 0.718743 0.092022 0.531913
O O6 0.779686 0.170687 0.479640
O O7 0.773056 0.154803 0.616368
O O8 0.000000 0.133449 0.544726
O O9 0.500000 0.959285 0.414829
O O10 0.811023 0.978366 0.403499
O O11 0.657981 0.000000 0.500000
O O12 0.500000 0.343568 0.097386
O O13 0.263291 0.296987 0.139886
O O14 0.231350 0.075419 0.685082
O O15 0.000000 0.014410 0.693271
O O16 0.500000 0.750000 0.817529
O O17 0.750000 0.750000 0.750000
O O18 0.500000 0.634104 0.188960
O O19 0.750000 0.654820 0.250000
#
# Coordination Sequence:
#
# PCOD9535273 Si02
#       7
#    16  16  16  16  16   8  16
#     4  12  24  36  51  74 104 139 181 225 270 320
#     4   9  19  34  51  72 101 136 173 214 263 317
#     4  10  19  29  43  67  99 134 175 221 264 310
#     4  10  21  39  60  81 106 135 170 216 269 326
#     4  10  20  33  48  68  98 139 184 226 269 311
#     4  10  22  40  64  90 111 136 170 210 263 324
#     4   9  18  31  48  72 101 137 178 217 257 301
#
# _framework density 20.460339000000001
#
# number of rings (size 3 to 8) (size 9 to 14) (size 15 to 20)
#    0.000    2.000    0.000    5.077    0.000   10.462 
#    0.000    0.000    0.000    0.000    0.000    0.538 
#    0.000    0.000    0.000    0.000    0.000    0.000 
#
# Total GULP energy -289530.629031 kJ/mol
# GULP energy per Si atom -5567.896712 kJ/mol
# Density = 2.041377 g / cm^3
# Si number density = 20.460339 Si / 1000 Ang^3
#
#
#
# Elastic Constant Matrix: (Units=GPa)
#
#
# Indices 1 2 3 4 5 6 
#
# 1 28.1178 10.4503 29.1687 0.0000 0.0000 0.0000
# 2 10.4503 25.0911 29.9874 0.0000 0.0000 0.0000
# 3 29.1687 29.9874 179.0798 -0.0001 0.0000 0.0000
# 4 0.0000 0.0000 -0.0001 23.5027 0.0000 0.0000
# 5 0.0000 0.0000 0.0000 0.0000 21.2496 0.0000
# 6 0.0000 0.0000 0.0000 0.0000 0.0000 6.2071
#
#
#
# Elastic Compliance Matrix: (Units=1/GPa)
#
#
# Indices 1 2 3 4 5 6 
#
# 1 0.045823 -0.012708 -0.005336 0.000000 0.000000 0.000000
# 2 -0.012708 0.053351 -0.006864 0.000000 0.000000 0.000000
# 3 -0.005336 -0.006864 0.007603 0.000000 0.000000 0.000000
# 4 0.000000 0.000000 0.000000 0.042548 0.000000 0.000000
# 5 0.000000 0.000000 0.000000 0.000000 0.047060 0.000000
# 6 0.000000 0.000000 0.000000 0.000000 0.000000 0.161105
#
#
# Mechanical properties :
#
#
# Convention : Reuss Voigt Hill
#
# Bulk Modulus (GPa) = 17.55583 41.27793 29.41688
# Shear Modulus (GPa) = 11.72907 21.03739 16.38323
#
# Velocity S-wave (km/s) = 2.39688 3.21004 2.83279
# Velocity P-wave (km/s) = 4.03226 5.82731 5.01082
#
# Compressibility (1/GPa) = 0.05696112
#
# Stress axis : x y z
#
# Youngs Moduli (GPa) = 21.82316 18.74387 131.53482
#
# Poissons Ratio (x) = 0.23820 0.70183
# Poissons Ratio (y) = 0.27733 0.90283
# Poissons Ratio (z) = 0.11644 0.12865
#
# Static dielectric constant tensor:
#      x y z
#    x 1.617880 0.000000 0.000000 
#    y 0.000000 1.741750 0.000000 
#    z 0.000000 0.000000 1.827960 
# 
# From -- ./inp_files/49652.got.cif
#   From: 2010.05.17/outbox.cif.g08.bks.cpg/sg74_25_cif.got.tgz:49652.got - 2010.06.03 17:57:02.
