data_PCOD9535849
_publ_section_title
;
Structure prediction by ZEFSAII (Michael W. Deem and Ramdas Pophale) SiO2 
 PCOD9535849
Probable space group: I M M A
;
_chemical_formula_sum "Si O2"
_cell_formula_units_Z 56
_cell_length_a 10.314114
_cell_length_b 7.586291
_cell_length_c 29.513786
_cell_angle_alpha 90.000000
_cell_angle_beta 90.000000
_cell_angle_gamma 90.000000
_cell_volume 2309.331869
_symmetry_space_group_name_H-M "I M M A"
_symmetry_group_IT_number 74
_symmetry_cell_setting 'orthorhombic'
loop_
_space_group_symop_operation_xyz
x,y,z
-x,1/2-y,z
x,-y,-z
-x,1/2+y,-z
-x,-y,-z
x,1/2+y,-z
-x,y,z
x,1/2-y,z
1/2+x,1/2+y,1/2+z
1/2-x,-y,1/2+z
1/2+x,1/2-y,1/2-z
1/2-x,y,1/2-z
1/2-x,1/2-y,1/2-z
1/2+x,y,1/2-z
1/2-x,1/2+y,1/2+z
1/2+x,-y,1/2+z
loop_
_atom_site_type_symbol
_atom_site_label
_atom_site_fract_x
_atom_site_fract_y
_atom_site_fract_z
Si Si1 0.500000 0.039636 0.447286
Si Si2 0.000000 0.034389 0.716837
Si Si3 0.000000 0.034328 0.821688
Si Si4 0.282008 0.039380 0.851716
Si Si5 0.716816 0.458340 0.051812
O O1 0.500000 0.250000 0.437695
O O2 0.359337 0.961515 0.436860
O O3 0.500000 0.000000 0.500000
O O4 0.126103 0.975990 0.688861
O O5 0.000000 0.250000 0.716832
O O6 0.000000 0.982522 0.769103
O O7 0.865646 0.971419 0.844469
O O8 0.000000 0.250000 0.824261
O O9 0.274856 0.250000 0.847684
O O10 0.348813 0.001767 0.900504
O O11 0.729468 0.250000 0.050280
O O12 0.673566 0.500000 0.000000
#
# Coordination Sequence:
#
# PCOD9535849 Si02
#       5
#     8   8   8  16  16
#     4   8  15  26  42  65  94 128 163 204 251 296
#     4   9  18  33  53  78 108 139 173 216 262 309
#     4   9  17  31  55  83 106 133 174 220 261 307
#     4  10  19  32  53  80 107 137 175 216 260 309
#     4  10  19  32  50  74 106 141 177 216 260 310
#
# _framework density 24.249438000000001
#
# number of rings (size 3 to 8) (size 9 to 14) (size 15 to 20)
#    0.000    2.571    0.000    2.571    0.000    4.571 
#    0.000    5.714    0.000    5.143    0.000    0.000 
#    0.000    0.000    0.000    0.000    0.000    0.000 
#
# Total GULP energy -155924.103436 kJ/mol
# GULP energy per Si atom -5568.717980 kJ/mol
# Density = 2.419425 g / cm^3
# Si number density = 24.249438 Si / 1000 Ang^3
#
#
#
# Elastic Constant Matrix: (Units=GPa)
#
#
# Indices 1 2 3 4 5 6 
#
# 1 120.4846 5.3979 64.5091 0.0000 0.0000 0.0000
# 2 5.3979 66.6676 -6.6740 0.0000 0.0000 0.0000
# 3 64.5091 -6.6740 247.7714 0.0000 0.0000 0.0000
# 4 0.0000 0.0000 0.0000 21.6195 0.0000 0.0000
# 5 0.0000 0.0000 0.0000 0.0000 0.9896 0.0000
# 6 0.0000 0.0000 0.0000 0.0000 0.0000 -8.9656
#
#
#
# Elastic Compliance Matrix: (Units=1/GPa)
#
#
# Indices 1 2 3 4 5 6 
#
# 1 0.009716 -0.001043 -0.002558 0.000000 0.000000 0.000000
# 2 -0.001043 0.015152 0.000680 0.000000 0.000000 0.000000
# 3 -0.002558 0.000680 0.004720 0.000000 0.000000 0.000000
# 4 0.000000 0.000000 0.000000 0.046254 0.000000 0.000000
# 5 0.000000 0.000000 0.000000 0.000000 1.010554 0.000000
# 6 0.000000 0.000000 0.000000 0.000000 0.000000 -0.111538
#
#
# Mechanical properties :
#
#
# Convention : Reuss Voigt Hill
#
# Bulk Modulus (GPa) = 42.11092 62.37662 52.24377
# Shear Modulus (GPa) = 5.05757 27.50808 16.28283
#
# Velocity S-wave (km/s) = 1.44574 3.37171 2.59409
# Velocity P-wave (km/s) = 4.49336 6.39818 5.52843
#
# Compressibility (1/GPa) = 0.02374681
#
# Stress axis : x y z
#
# Youngs Moduli (GPa) = 102.92343 65.99677 211.85525
#
# Poissons Ratio (x) = 0.06882 0.54186
# Poissons Ratio (y) = 0.10732 -0.14398
# Poissons Ratio (z) = 0.26325 -0.04485
#
# Static dielectric constant tensor:
#      x y z
#    x 1.847620 0.000000 0.000000 
#    y 0.000000 1.823800 0.000000 
#    z 0.000000 0.000000 1.911780 
# 
# From -- ./inp_files/65520.got.cif
#   From: 2010.05.17/outbox.cif.g08.bks.cpg/sg74_33_cif.got.tgz:65520.got - 2010.06.03 17:57:02.
