data_PCOD9535264
_publ_section_title
;
Structure prediction by ZEFSAII (Michael W. Deem and Ramdas Pophale) SiO2 
 PCOD9535264
Probable space group: I M M A
;
_chemical_formula_sum "Si O2"
_cell_formula_units_Z 64
_cell_length_a 20.597227
_cell_length_b 9.691277
_cell_length_c 14.033721
_cell_angle_alpha 90.000000
_cell_angle_beta 90.000000
_cell_angle_gamma 90.000000
_cell_volume 2801.319217
_symmetry_space_group_name_H-M "I M M A"
_symmetry_group_IT_number 74
_symmetry_cell_setting 'orthorhombic'
loop_
_space_group_symop_operation_xyz
x,y,z
-x,1/2-y,z
x,-y,-z
-x,1/2+y,-z
-x,-y,-z
x,1/2+y,-z
-x,y,z
x,1/2-y,z
1/2+x,1/2+y,1/2+z
1/2-x,-y,1/2+z
1/2+x,1/2-y,1/2-z
1/2-x,y,1/2-z
1/2-x,1/2-y,1/2-z
1/2+x,y,1/2-z
1/2-x,1/2+y,1/2+z
1/2+x,-y,1/2+z
loop_
_atom_site_type_symbol
_atom_site_label
_atom_site_fract_x
_atom_site_fract_y
_atom_site_fract_z
Si Si1 0.747175 0.094317 0.633409
Si Si2 0.000000 0.968358 0.611152
Si Si3 0.500000 0.914536 0.322306
Si Si4 0.627898 0.407645 0.362598
Si Si5 0.854677 0.893790 0.637554
O O1 0.738060 0.250000 0.600363
O O2 0.750000 0.099229 0.750000
O O3 0.688779 0.995714 0.601261
O O4 0.815403 0.026466 0.604354
O O5 0.000000 0.068236 0.705549
O O6 0.000000 0.000000 0.500000
O O7 0.930782 0.896356 0.619440
O O8 0.500000 0.750000 0.343864
O O9 0.437044 0.997489 0.362206
O O10 0.618445 0.250000 0.399554
O O11 0.647435 0.392306 0.251767
O O12 0.825216 0.750000 0.601755
#
# Coordination Sequence:
#
# PCOD9535264 Si02
#       5
#    16   8   8  16  16
#     4   9  16  26  41  61  82 103 132 173 219 264
#     4  10  21  33  45  61  83 115 157 200 233 259
#     4  10  19  29  43  65  91 117 148 186 224 261
#     4   9  16  27  43  61  83 111 140 171 212 264
#     4   9  17  29  43  58  77 105 143 183 222 265
#
# _framework density 22.846378000000001
#
# number of rings (size 3 to 8) (size 9 to 14) (size 15 to 20)
#    0.000    2.750    0.000    2.250    0.000   13.000 
#    0.000    0.000    0.000    0.000    0.000    0.000 
#    0.000    0.000    0.000    1.125    0.000   15.500 
#
# Total GULP energy -178299.809516 kJ/mol
# GULP energy per Si atom -5571.869047 kJ/mol
# Density = 2.279438 g / cm^3
# Si number density = 22.846378 Si / 1000 Ang^3
#
#
#
# Elastic Constant Matrix: (Units=GPa)
#
#
# Indices 1 2 3 4 5 6 
#
# 1 153.7351 112.3327 12.0389 0.0000 0.0000 0.0000
# 2 112.3327 235.2726 8.8939 0.0000 0.0000 0.0000
# 3 12.0389 8.8939 69.6245 0.0000 0.0000 0.0000
# 4 0.0000 0.0000 0.0000 -9.0841 0.0000 0.0000
# 5 0.0000 0.0000 0.0000 0.0000 -21.7162 0.0000
# 6 0.0000 0.0000 0.0000 0.0000 0.0000 11.5448
#
#
#
# Elastic Compliance Matrix: (Units=1/GPa)
#
#
# Indices 1 2 3 4 5 6 
#
# 1 0.010078 -0.004769 -0.001133 0.000000 0.000000 0.000000
# 2 -0.004769 0.006528 -0.000009 0.000000 0.000000 0.000000
# 3 -0.001133 -0.000009 0.014560 0.000000 0.000000 0.000000
# 4 0.000000 0.000000 0.000000 -0.110083 0.000000 0.000000
# 5 0.000000 0.000000 0.000000 0.000000 -0.046049 0.000000
# 6 0.000000 0.000000 0.000000 0.000000 0.000000 0.086619
#
#
# Mechanical properties :
#
#
# Convention : Reuss Voigt Hill
#
# Bulk Modulus (GPa) = 51.69985 80.57368 66.13676
# Shear Modulus (GPa) = -249.05594 17.84003 -115.60796
#
# Velocity S-wave (km/s) = -10.45227 2.79743 -7.12125
# Velocity P-wave (km/s) = 11.09000 6.76597 6.21328
#
# Compressibility (1/GPa) = 0.01934242
#
# Stress axis : x y z
#
# Youngs Moduli (GPa) = 99.22471 153.19213 68.68164
#
# Poissons Ratio (x) = 0.73058 0.07785
# Poissons Ratio (y) = 0.47321 0.00064
# Poissons Ratio (z) = 0.11246 0.00142
#
# Static dielectric constant tensor:
#      x y z
#    x 1.951410 0.000000 0.000000 
#    y 0.000000 1.866800 0.000000 
#    z 0.000000 0.000000 1.777920 
# 
# From -- ./inp_files/33632.got.cif
#   From: 2010.05.17/outbox.cif.g08.bks.cpg/sg74_17_cif.got.tgz:33632.got - 2010.06.03 17:57:02.
