data_PCOD9535973
_publ_section_title
;
Structure prediction by ZEFSAII (Michael W. Deem and Ramdas Pophale) SiO2 
 PCOD9535973
Probable space group: I M M A
;
_chemical_formula_sum "Si O2"
_cell_formula_units_Z 88
_cell_length_a 32.197469
_cell_length_b 16.907032
_cell_length_c 9.230355
_cell_angle_alpha 90.000000
_cell_angle_beta 90.000000
_cell_angle_gamma 90.000000
_cell_volume 5024.669634
_symmetry_space_group_name_H-M "I M M A"
_symmetry_group_IT_number 74
_symmetry_cell_setting 'orthorhombic'
loop_
_space_group_symop_operation_xyz
x,y,z
-x,1/2-y,z
x,-y,-z
-x,1/2+y,-z
-x,-y,-z
x,1/2+y,-z
-x,y,z
x,1/2-y,z
1/2+x,1/2+y,1/2+z
1/2-x,-y,1/2+z
1/2+x,1/2-y,1/2-z
1/2-x,y,1/2-z
1/2-x,1/2-y,1/2-z
1/2+x,y,1/2-z
1/2-x,1/2+y,1/2+z
1/2+x,-y,1/2+z
loop_
_atom_site_type_symbol
_atom_site_label
_atom_site_fract_x
_atom_site_fract_y
_atom_site_fract_z
Si Si1 0.548862 0.160035 0.354662
Si Si2 0.601829 0.420734 0.595522
Si Si3 0.766955 0.660467 0.489298
Si Si4 0.250000 0.542809 0.750000
Si Si5 0.693042 0.104947 0.703172
Si Si6 0.950504 0.007101 0.333263
O O1 0.500000 0.151358 0.394167
O O2 0.555618 0.250000 0.306474
O O3 0.577267 0.139292 0.492054
O O4 0.557293 0.094656 0.231579
O O5 0.608016 0.500000 0.500000
O O6 0.646338 0.392357 0.650020
O O7 0.573642 0.446451 0.730939
O O8 0.773509 0.750000 0.539770
O O9 0.764884 0.597863 0.618795
O O10 0.723290 0.653526 0.403093
O O11 0.800231 0.636524 0.366242
O O12 0.287165 0.483674 0.702852
O O13 0.000000 0.992672 0.323706
O O14 0.937833 0.000000 0.500000
#
# Coordination Sequence:
#
# PCOD9535973 Si02
#       6
#    16  16  16   8  16  16
#     4   9  18  33  53  77 105 136 171 213 257 302
#     4  10  19  32  53  76 100 134 175 212 251 306
#     4  10  20  34  52  73  99 129 164 207 254 299
#     4  10  19  34  53  74  98 130 172 208 245 300
#     4  10  19  34  52  73  99 132 167 204 250 300
#     4   9  18  33  53  76 102 135 173 212 256 308
#
# _framework density 17.513590000000001
#
# number of rings (size 3 to 8) (size 9 to 14) (size 15 to 20)
#    0.000    2.545    0.000    5.182    0.000    5.091 
#    0.000    0.909    0.000   10.909    0.000    0.000 
#    0.000    0.000    0.000    0.000    0.000    0.000 
#
# Total GULP energy -245423.131531 kJ/mol
# GULP energy per Si atom -5577.798444 kJ/mol
# Density = 1.747373 g / cm^3
# Si number density = 17.513590 Si / 1000 Ang^3
#
#
#
# Elastic Constant Matrix: (Units=GPa)
#
#
# Indices 1 2 3 4 5 6 
#
# 1 71.5922 29.5920 49.1070 0.0000 0.0000 0.0000
# 2 29.5920 87.3731 26.3191 0.0000 0.0000 0.0000
# 3 49.1070 26.3191 97.7433 0.0000 0.0000 0.0000
# 4 0.0000 0.0000 0.0000 18.3566 0.0000 0.0000
# 5 0.0000 0.0000 0.0000 0.0000 20.5729 0.0000
# 6 0.0000 0.0000 0.0000 0.0000 0.0000 2.1073
#
#
#
# Elastic Compliance Matrix: (Units=1/GPa)
#
#
# Indices 1 2 3 4 5 6 
#
# 1 0.022945 -0.004678 -0.010268 0.000000 0.000000 0.000000
# 2 -0.004678 0.013409 -0.001260 0.000000 0.000000 0.000000
# 3 -0.010268 -0.001260 0.015729 0.000000 0.000000 0.000000
# 4 0.000000 0.000000 0.000000 0.054476 0.000000 0.000000
# 5 0.000000 0.000000 0.000000 0.000000 0.048608 0.000000
# 6 0.000000 0.000000 0.000000 0.000000 0.000000 0.474542
#
#
# Mechanical properties :
#
#
# Convention : Reuss Voigt Hill
#
# Bulk Modulus (GPa) = 50.83856 51.86053 51.34955
# Shear Modulus (GPa) = 7.47744 18.32004 12.89874
#
# Velocity S-wave (km/s) = 2.06852 3.23777 2.71680
# Velocity P-wave (km/s) = 5.89882 6.60708 6.26297
#
# Compressibility (1/GPa) = 0.01967011
#
# Stress axis : x y z
#
# Youngs Moduli (GPa) = 43.58303 74.57553 63.57700
#
# Poissons Ratio (x) = 0.34887 0.65281
# Poissons Ratio (y) = 0.20388 0.08013
# Poissons Ratio (z) = 0.44751 0.09399
#
# Static dielectric constant tensor:
#      x y z
#    x 1.579710 0.000000 0.000000 
#    y 0.000000 1.597520 0.000000 
#    z 0.000000 0.000000 1.582570 
# 
# From -- ./inp_files/16082.got.cif
#   From: 2010.05.17/outbox.cif.g08.bks.cpg/sg74_9_cif.got.tgz:16082.got - 2010.06.03 17:57:02.
