data_PCOD9535518
_publ_section_title
;
Structure prediction by ZEFSAII (Michael W. Deem and Ramdas Pophale) SiO2 
 PCOD9535518
Probable space group: I M M A
;
_chemical_formula_sum "Si O2"
_cell_formula_units_Z 104
_cell_length_a 7.645819
_cell_length_b 30.104652
_cell_length_c 24.420081
_cell_angle_alpha 90.000000
_cell_angle_beta 90.000000
_cell_angle_gamma 90.000000
_cell_volume 5620.885313
_symmetry_space_group_name_H-M "I M M A"
_symmetry_group_IT_number 74
_symmetry_cell_setting 'orthorhombic'
loop_
_space_group_symop_operation_xyz
x,y,z
-x,1/2-y,z
x,-y,-z
-x,1/2+y,-z
-x,-y,-z
x,1/2+y,-z
-x,y,z
x,1/2-y,z
1/2+x,1/2+y,1/2+z
1/2-x,-y,1/2+z
1/2+x,1/2-y,1/2-z
1/2-x,y,1/2-z
1/2-x,1/2-y,1/2-z
1/2+x,y,1/2-z
1/2-x,1/2+y,1/2+z
1/2+x,-y,1/2+z
loop_
_atom_site_type_symbol
_atom_site_label
_atom_site_fract_x
_atom_site_fract_y
_atom_site_fract_z
Si Si1 0.209775 0.975513 0.814779
Si Si2 0.208822 0.699871 0.890979
Si Si3 0.789164 0.621376 0.814424
Si Si4 0.710463 0.250000 0.685865
Si Si5 0.710830 0.427859 0.685378
Si Si6 0.708795 0.699527 0.015974
Si Si7 0.293267 0.160690 0.628501
O O1 0.250000 0.975608 0.750000
O O2 0.275892 0.927326 0.834026
O O3 0.000000 0.975406 0.822161
O O4 0.276446 0.023592 0.834350
O O5 0.279293 0.750000 0.882687
O O6 0.278673 0.662431 0.850109
O O7 0.000000 0.702193 0.882656
O O8 0.239022 0.687541 0.954322
O O9 0.750000 0.626646 0.750000
O O10 0.000000 0.620718 0.819597
O O11 0.500000 0.250000 0.678772
O O12 0.750000 0.250000 0.750000
O O13 0.779574 0.294943 0.657595
O O14 0.500000 0.429004 0.680059
O O15 0.750000 0.422821 0.750000
O O16 0.779055 0.385212 0.652607
O O17 0.500000 0.700791 0.018354
O O18 0.775599 0.750000 0.026522
O O19 0.771732 0.667473 0.063839
O O20 0.500000 0.160030 0.640725
#
# Coordination Sequence:
#
# PCOD9535518 Si02
#       7
#    16  16  16   8  16  16  16
#     4   8  14  26  43  64  90 118 150 184 216 259
#     4   9  18  32  49  68  92 122 152 183 221 268
#     4   9  17  29  47  71  97 124 150 178 219 266
#     4  10  20  30  42  62  90 120 147 180 225 272
#     4   9  17  28  44  66  91 119 151 187 226 267
#     4  10  20  33  49  68  87 113 153 195 230 265
#     4  10  19  31  46  64  88 120 153 186 227 273
#
# _framework density 18.502424999999999
#
# number of rings (size 3 to 8) (size 9 to 14) (size 15 to 20)
#    0.000    2.769    0.769    0.923    0.000    2.769 
#    0.000    0.000    0.000    0.923    0.000    6.462 
#    0.000    0.000    0.000    0.000    0.000    0.000 
#
# Total GULP energy -289727.900983 kJ/mol
# GULP energy per Si atom -5571.690404 kJ/mol
# Density = 1.846031 g / cm^3
# Si number density = 18.502425 Si / 1000 Ang^3
#
#
#
# Elastic Constant Matrix: (Units=GPa)
#
#
# Indices 1 2 3 4 5 6 
#
# 1 34.7321 9.1601 -8.4155 0.0000 0.0000 0.0000
# 2 9.1601 205.1793 99.2088 0.0000 0.0000 0.0000
# 3 -8.4155 99.2088 86.0710 0.0000 0.0000 0.0000
# 4 0.0000 0.0000 0.0000 19.8261 0.0000 0.0000
# 5 0.0000 0.0000 0.0000 0.0000 18.0935 0.0000
# 6 0.0000 0.0000 0.0000 0.0000 0.0000 -0.4492
#
#
#
# Elastic Compliance Matrix: (Units=1/GPa)
#
#
# Indices 1 2 3 4 5 6 
#
# 1 0.033341 -0.006923 0.011240 0.000000 0.000000 0.000000
# 2 -0.006923 0.012447 -0.015024 0.000000 0.000000 0.000000
# 3 0.011240 -0.015024 0.030035 0.000000 0.000000 0.000000
# 4 0.000000 0.000000 0.000000 0.050438 0.000000 0.000000
# 5 0.000000 0.000000 0.000000 0.000000 0.055268 0.000000
# 6 0.000000 0.000000 0.000000 0.000000 0.000000 -2.226394
#
#
# Mechanical properties :
#
#
# Convention : Reuss Voigt Hill
#
# Bulk Modulus (GPa) = 18.37965 58.43215 38.40590
# Shear Modulus (GPa) = -2.49338 22.56270 10.03466
#
# Velocity S-wave (km/s) = -1.16212 3.49584 2.33135
# Velocity P-wave (km/s) = 2.85561 6.92416 5.29615
#
# Compressibility (1/GPa) = 0.05440801
#
# Stress axis : x y z
#
# Youngs Moduli (GPa) = 29.99306 80.33746 33.29452
#
# Poissons Ratio (x) = 0.55619 -0.37422
# Poissons Ratio (y) = 0.20765 0.50023
# Poissons Ratio (z) = -0.33712 1.20702
#
# Static dielectric constant tensor:
#      x y z
#    x 1.666590 0.000000 0.000000 
#    y 0.000000 1.705810 0.000000 
#    z 0.000000 0.000000 1.588180 
# 
# From -- ./inp_files/57622.got.cif
#   From: 2010.05.17/outbox.cif.g08.bks.cpg/sg74_29_cif.got.tgz:57622.got - 2010.06.03 17:57:02.
