data_PCOD9535638
_publ_section_title
;
Structure prediction by ZEFSAII (Michael W. Deem and Ramdas Pophale) SiO2 
 PCOD9535638
Probable space group: I M M A
;
_chemical_formula_sum "Si O2"
_cell_formula_units_Z 96
_cell_length_a 23.180649
_cell_length_b 24.920662
_cell_length_c 8.318653
_cell_angle_alpha 90.000000
_cell_angle_beta 90.000000
_cell_angle_gamma 90.000000
_cell_volume 4805.495496
_symmetry_space_group_name_H-M "I M M A"
_symmetry_group_IT_number 74
_symmetry_cell_setting 'orthorhombic'
loop_
_space_group_symop_operation_xyz
x,y,z
-x,1/2-y,z
x,-y,-z
-x,1/2+y,-z
-x,-y,-z
x,1/2+y,-z
-x,y,z
x,1/2-y,z
1/2+x,1/2+y,1/2+z
1/2-x,-y,1/2+z
1/2+x,1/2-y,1/2-z
1/2-x,y,1/2-z
1/2-x,1/2-y,1/2-z
1/2+x,y,1/2-z
1/2-x,1/2+y,1/2+z
1/2+x,-y,1/2+z
loop_
_atom_site_type_symbol
_atom_site_label
_atom_site_fract_x
_atom_site_fract_y
_atom_site_fract_z
Si Si1 0.064678 0.437548 0.491991
Si Si2 0.603990 0.611886 0.306099
Si Si3 0.342655 0.632662 0.797838
Si Si4 0.789184 0.847322 0.386119
Si Si5 0.203691 0.937175 0.994250
Si Si6 0.435959 0.687877 0.580608
O O1 0.079284 0.500000 0.500000
O O2 0.065852 0.417014 0.674570
O O3 0.113009 0.405472 0.394805
O O4 0.000000 0.431100 0.424045
O O5 0.650628 0.645818 0.204683
O O6 0.644144 0.571334 0.407612
O O7 0.570200 0.649620 0.427229
O O8 0.308586 0.592974 0.675708
O O9 0.383220 0.671713 0.694873
O O10 0.305057 0.666142 0.928597
O O11 0.750000 0.818081 0.250000
O O12 0.754089 0.902799 0.420689
O O13 0.218054 0.000000 0.000000
O O14 0.500000 0.680220 0.653926
O O15 0.431030 0.750000 0.534555
#
# Coordination Sequence:
#
# PCOD9535638 Si02
#       6
#    16  16  16  16  16  16
#     4  10  19  31  49  76 112 151 183 215 271 345
#     4   9  19  34  52  76 111 144 181 229 278 330
#     4  10  20  34  54  79 112 143 182 235 281 328
#     4   9  19  33  51  75 108 144 178 217 267 325
#     4  10  19  31  52  82 113 149 190 227 270 327
#     4  10  21  39  62  83 104 138 187 242 295 339
#
# _framework density 19.977128
#
# number of rings (size 3 to 8) (size 9 to 14) (size 15 to 20)
#    0.000    2.333    0.000    2.500    0.000    6.667 
#    0.000    3.333    0.000   48.000    0.000    0.000 
#    0.000    0.000    0.000    0.000    0.000    0.000 
#
# Total GULP energy -267332.889411 kJ/mol
# GULP energy per Si atom -5569.435196 kJ/mol
# Density = 1.993166 g / cm^3
# Si number density = 19.977128 Si / 1000 Ang^3
#
#
#
# Elastic Constant Matrix: (Units=GPa)
#
#
# Indices 1 2 3 4 5 6 
#
# 1 60.3691 9.8459 10.2769 0.0000 0.0000 0.0000
# 2 9.8459 58.1241 10.1638 0.0000 0.0000 0.0000
# 3 10.2769 10.1638 106.1473 0.0000 0.0000 0.0000
# 4 0.0000 0.0000 0.0000 2.7045 0.0000 0.0000
# 5 0.0000 0.0000 0.0000 0.0000 99.4706 0.0000
# 6 0.0000 0.0000 0.0000 0.0000 0.0000 11.0828
#
#
#
# Elastic Compliance Matrix: (Units=1/GPa)
#
#
# Indices 1 2 3 4 5 6 
#
# 1 0.017241 -0.002673 -0.001413 0.000000 0.000000 0.000000
# 2 -0.002673 0.017912 -0.001456 0.000000 0.000000 0.000000
# 3 -0.001413 -0.001456 0.009697 0.000000 0.000000 0.000000
# 4 0.000000 0.000000 0.000000 0.369757 0.000000 0.000000
# 5 0.000000 0.000000 0.000000 0.000000 0.010053 0.000000
# 6 0.000000 0.000000 0.000000 0.000000 0.000000 0.090230
#
#
# Mechanical properties :
#
#
# Convention : Reuss Voigt Hill
#
# Bulk Modulus (GPa) = 29.61683 31.69040 30.65362
# Shear Modulus (GPa) = 9.30697 35.60851 22.45774
#
# Velocity S-wave (km/s) = 2.16077 4.22650 3.35651
# Velocity P-wave (km/s) = 4.59160 6.30203 5.51354
#
# Compressibility (1/GPa) = 0.03376458
#
# Stress axis : x y z
#
# Youngs Moduli (GPa) = 58.00002 55.82828 103.12313
#
# Poissons Ratio (x) = 0.14925 0.14574
# Poissons Ratio (y) = 0.15506 0.15018
# Poissons Ratio (z) = 0.08197 0.08130
#
# Static dielectric constant tensor:
#      x y z
#    x 1.715500 0.000000 0.000000 
#    y 0.000000 1.652230 0.000000 
#    z 0.000000 0.000000 1.766700 
# 
# From -- ./inp_files/13927.got.cif
#   From: 2010.05.17/outbox.cif.g08.bks.cpg/sg74_7_cif.got.tgz:13927.got - 2010.06.03 17:57:02.
