data_PCOD9535119
_publ_section_title
;
Structure prediction by ZEFSAII (Michael W. Deem and Ramdas Pophale) SiO2 
 PCOD9535119
Probable space group: I M M A
;
_chemical_formula_sum "Si O2"
_cell_formula_units_Z 64
_cell_length_a 16.355890
_cell_length_b 29.973517
_cell_length_c 6.159960
_cell_angle_alpha 90.000000
_cell_angle_beta 90.000000
_cell_angle_gamma 90.000000
_cell_volume 3019.880640
_symmetry_space_group_name_H-M "I M M A"
_symmetry_group_IT_number 74
_symmetry_cell_setting 'orthorhombic'
loop_
_space_group_symop_operation_xyz
x,y,z
-x,1/2-y,z
x,-y,-z
-x,1/2+y,-z
-x,-y,-z
x,1/2+y,-z
-x,y,z
x,1/2-y,z
1/2+x,1/2+y,1/2+z
1/2-x,-y,1/2+z
1/2+x,1/2-y,1/2-z
1/2-x,y,1/2-z
1/2-x,1/2-y,1/2-z
1/2+x,y,1/2-z
1/2-x,1/2+y,1/2+z
1/2+x,-y,1/2+z
loop_
_atom_site_type_symbol
_atom_site_label
_atom_site_fract_x
_atom_site_fract_y
_atom_site_fract_z
Si Si1 0.250000 0.894062 0.250000
Si Si2 0.000000 0.199424 0.986737
Si Si3 0.000000 0.459641 0.161347
Si Si4 0.168631 0.160632 0.131030
Si Si5 0.367720 0.923241 0.939395
Si Si6 0.500000 0.891760 0.278883
O O1 0.304972 0.859857 0.396414
O O2 0.216993 0.927574 0.436626
O O3 0.086361 0.190039 0.110499
O O4 0.000000 0.250000 0.908769
O O5 0.000000 0.161100 0.804295
O O6 0.081256 0.459447 0.308087
O O7 0.000000 0.500000 0.000000
O O8 0.000000 0.414833 0.014524
O O9 0.250000 0.180430 0.250000
O O10 0.144668 0.118675 0.281214
O O11 0.424523 0.908655 0.139254
#
# Coordination Sequence:
#
# PCOD9535119 Si02
#       6
#     8   8   8  16  16   8
#     4  10  18  34  65  90 118 178 214 270 325 390
#     4  12  22  39  63  93 135 178 225 282 340 407
#     4  11  22  36  62 101 126 164 216 278 340 403
#     4  10  21  39  65  96 126 178 221 274 334 397
#     4  10  19  35  64  90 126 167 219 262 333 398
#     4  11  20  40  60  92 129 164 220 269 332 408
#
# _framework density 21.192889000000001
#
# number of rings (size 3 to 8) (size 9 to 14) (size 15 to 20)
#    0.000    1.500    5.000    0.750    0.000    2.500 
#    0.000    3.125    0.000    0.000  146.250    0.000 
#    0.000    0.000    0.000    0.000    0.000    0.000 
#
# Total GULP energy -178203.521260 kJ/mol
# GULP energy per Si atom -5568.860039 kJ/mol
# Density = 2.114465 g / cm^3
# Si number density = 21.192889 Si / 1000 Ang^3
#
#
#
# Elastic Constant Matrix: (Units=GPa)
#
#
# Indices 1 2 3 4 5 6 
#
# 1 96.3841 26.2657 27.4005 0.0018 0.0054 0.0022
# 2 26.2657 67.3569 29.9635 0.0084 0.0076 0.0065
# 3 27.4005 29.9635 94.2979 -0.0052 0.0241 0.0183
# 4 0.0018 0.0084 -0.0052 15.0777 0.0011 0.0030
# 5 0.0054 0.0076 0.0241 0.0011 42.7185 0.0102
# 6 0.0022 0.0065 0.0183 0.0030 0.0102 6.7277
#
#
#
# Elastic Compliance Matrix: (Units=1/GPa)
#
#
# Indices 1 2 3 4 5 6 
#
# 1 0.012035 -0.003654 -0.002336 0.000000 0.000000 0.000006
# 2 -0.003654 0.018400 -0.004785 -0.000011 0.000000 -0.000004
# 3 -0.002336 -0.004785 0.012804 0.000007 -0.000006 -0.000029
# 4 0.000000 -0.000011 0.000007 0.066323 -0.000002 -0.000030
# 5 0.000000 0.000000 -0.000006 -0.000002 0.023409 -0.000035
# 6 0.000006 -0.000004 -0.000029 -0.000030 -0.000035 0.148639
#
#
# Mechanical properties :
#
#
# Convention : Reuss Voigt Hill
#
# Bulk Modulus (GPa) = 46.10618 47.25536 46.68077
# Shear Modulus (GPa) = 16.10884 24.53205 20.32045
#
# Velocity S-wave (km/s) = 2.75999 3.40599 3.09986
# Velocity P-wave (km/s) = 5.65327 6.14929 5.90649
#
# Compressibility (1/GPa) = 0.02168907
#
# Stress axis : x y z
#
# Youngs Moduli (GPa) = 83.09130 54.34891 78.10132
#
# Poissons Ratio (x) = 0.19858 0.18245
# Poissons Ratio (y) = 0.30360 0.37370
# Poissons Ratio (z) = 0.19410 0.26005
#
# Static dielectric constant tensor:
#      x y z
#    x 2.126170 0.000030 0.000030 
#    y 0.000030 1.742300 -0.000010 
#    z 0.000030 -0.000010 1.771240 
# 
# From -- ./inp_files/2408.got.cif
#   From: 2010.05.17/outbox.cif.g08.bks.cpg/sg74_2_cif.got.tgz:2408.got - 2010.06.03 17:57:02.
