data_PCOD9535634
_publ_section_title
;
Structure prediction by ZEFSAII (Michael W. Deem and Ramdas Pophale) SiO2 
 PCOD9535634
Probable space group: I M M A
;
_chemical_formula_sum "Si O2"
_cell_formula_units_Z 104
_cell_length_a 26.753782
_cell_length_b 8.381411
_cell_length_c 22.071464
_cell_angle_alpha 90.000000
_cell_angle_beta 90.000000
_cell_angle_gamma 90.000000
_cell_volume 4949.182431
_symmetry_space_group_name_H-M "I M M A"
_symmetry_group_IT_number 74
_symmetry_cell_setting 'orthorhombic'
loop_
_space_group_symop_operation_xyz
x,y,z
-x,1/2-y,z
x,-y,-z
-x,1/2+y,-z
-x,-y,-z
x,1/2+y,-z
-x,y,z
x,1/2-y,z
1/2+x,1/2+y,1/2+z
1/2-x,-y,1/2+z
1/2+x,1/2-y,1/2-z
1/2-x,y,1/2-z
1/2-x,1/2-y,1/2-z
1/2+x,y,1/2-z
1/2-x,1/2+y,1/2+z
1/2+x,-y,1/2+z
loop_
_atom_site_type_symbol
_atom_site_label
_atom_site_fract_x
_atom_site_fract_y
_atom_site_fract_z
Si Si1 0.206457 0.057009 0.564494
Si Si2 0.894757 0.560899 0.384982
Si Si3 0.055466 0.057212 0.161658
Si Si4 0.641256 0.440880 0.243832
Si Si5 0.866259 0.441140 0.067808
Si Si6 0.000000 0.438114 0.431075
Si Si7 0.784532 0.437596 0.838600
O O1 0.208568 0.250000 0.565118
O O2 0.149009 0.002528 0.570050
O O3 0.235935 0.000779 0.624862
O O4 0.227826 0.000000 0.500000
O O5 0.899000 0.750000 0.391868
O O6 0.872335 0.521010 0.319282
O O7 0.949216 0.491171 0.397697
O O8 0.052971 0.250000 0.166558
O O9 0.096313 0.007412 0.211037
O O10 0.079469 0.022855 0.096416
O O11 0.000000 0.992322 0.170479
O O12 0.640093 0.250000 0.237199
O O13 0.692982 0.486937 0.277358
O O14 0.857733 0.250000 0.072454
O O15 0.826940 0.529792 0.110759
O O16 0.861893 0.500000 0.000000
O O17 0.000000 0.500000 0.500000
O O18 0.000000 0.250000 0.433397
O O19 0.778107 0.250000 0.827256
#
# Coordination Sequence:
#
# PCOD9535634 Si02
#       7
#    16  16  16  16  16   8  16
#     4  10  23  40  62  90 121 159 203 253 308 368
#     4  11  24  43  65  93 126 162 205 254 309 370
#     4   8  16  31  50  72 103 143 187 240 294 348
#     4  10  21  37  59  89 121 158 203 250 305 364
#     4  10  19  31  49  75 107 145 192 242 299 362
#     4  12  26  46  70  98 130 166 207 254 311 372
#     4  10  20  37  59  84 117 158 200 248 304 360
#
# _framework density 21.013573000000001
#
# number of rings (size 3 to 8) (size 9 to 14) (size 15 to 20)
#    0.000    2.000    0.000    4.385    1.077    5.846 
#    0.000    3.077    0.000    8.769    0.000    0.000 
#    0.000    0.000    0.000    0.000    0.000    0.000 
#
# Total GULP energy -290322.006368 kJ/mol
# GULP energy per Si atom -5583.115507 kJ/mol
# Density = 2.096574 g / cm^3
# Si number density = 21.013573 Si / 1000 Ang^3
#
#
#
# Elastic Constant Matrix: (Units=GPa)
#
#
# Indices 1 2 3 4 5 6 
#
# 1 142.1184 15.5396 35.7049 0.0000 0.0000 0.0000
# 2 15.5396 30.5689 -5.9612 0.0000 0.0000 0.0000
# 3 35.7049 -5.9612 97.6077 0.0000 0.0000 0.0000
# 4 0.0000 0.0000 0.0000 30.3467 0.0000 0.0000
# 5 0.0000 0.0000 0.0000 0.0000 21.3608 0.0000
# 6 0.0000 0.0000 0.0000 0.0000 0.0000 15.9251
#
#
#
# Elastic Compliance Matrix: (Units=1/GPa)
#
#
# Indices 1 2 3 4 5 6 
#
# 1 0.008427 -0.004944 -0.003385 0.000000 0.000000 0.000000
# 2 -0.004944 0.036008 0.004008 0.000000 0.000000 0.000000
# 3 -0.003385 0.004008 0.011728 0.000000 0.000000 0.000000
# 4 0.000000 0.000000 0.000000 0.032953 0.000000 0.000000
# 5 0.000000 0.000000 0.000000 0.000000 0.046815 0.000000
# 6 0.000000 0.000000 0.000000 0.000000 0.000000 0.062794
#
#
# Mechanical properties :
#
#
# Convention : Reuss Voigt Hill
#
# Bulk Modulus (GPa) = 21.04332 40.09573 30.56953
# Shear Modulus (GPa) = 22.40073 28.52728 25.46401
#
# Velocity S-wave (km/s) = 3.26853 3.68851 3.48485
# Velocity P-wave (km/s) = 4.92750 6.10430 5.54719
#
# Compressibility (1/GPa) = 0.04752101
#
# Stress axis : x y z
#
# Youngs Moduli (GPa) = 118.66156 27.77171 85.26629
#
# Poissons Ratio (x) = 0.13731 0.28860
# Poissons Ratio (y) = 0.58667 -0.34172
# Poissons Ratio (z) = 0.40163 -0.11130
#
# Static dielectric constant tensor:
#      x y z
#    x 1.802730 0.000000 0.000000 
#    y 0.000000 1.723830 0.000000 
#    z 0.000000 0.000000 1.746620 
# 
# From -- ./inp_files/55269.got.cif
#   From: 2010.05.17/outbox.cif.g08.bks.cpg/sg74_28_cif.got.tgz:55269.got - 2010.06.03 17:57:02.
