data_PCOD9535151
_publ_section_title
;
Structure prediction by ZEFSAII (Michael W. Deem and Ramdas Pophale) SiO2 
 PCOD9535151
Probable space group: I M M A
;
_chemical_formula_sum "Si O2"
_cell_formula_units_Z 76
_cell_length_a 11.396593
_cell_length_b 14.761548
_cell_length_c 26.384877
_cell_angle_alpha 90.000000
_cell_angle_beta 90.000000
_cell_angle_gamma 90.000000
_cell_volume 4438.763599
_symmetry_space_group_name_H-M "I M M A"
_symmetry_group_IT_number 74
_symmetry_cell_setting 'orthorhombic'
loop_
_space_group_symop_operation_xyz
x,y,z
-x,1/2-y,z
x,-y,-z
-x,1/2+y,-z
-x,-y,-z
x,1/2+y,-z
-x,y,z
x,1/2-y,z
1/2+x,1/2+y,1/2+z
1/2-x,-y,1/2+z
1/2+x,1/2-y,1/2-z
1/2-x,y,1/2-z
1/2-x,1/2-y,1/2-z
1/2+x,y,1/2-z
1/2-x,1/2+y,1/2+z
1/2+x,-y,1/2+z
loop_
_atom_site_type_symbol
_atom_site_label
_atom_site_fract_x
_atom_site_fract_y
_atom_site_fract_z
Si Si1 0.867974 0.250000 0.139589
Si Si2 0.250000 0.949137 0.250000
Si Si3 0.000000 0.356936 0.765029
Si Si4 0.500000 0.750000 0.446330
Si Si5 0.362678 0.424933 0.043363
Si Si6 0.204766 0.750000 0.973388
Si Si7 0.223453 0.449567 0.143225
Si Si8 0.500000 0.931183 0.378815
O O1 0.868325 0.250000 0.078600
O O2 0.805380 0.156048 0.153185
O O3 0.000000 0.250000 0.159877
O O4 0.126112 0.894869 0.254095
O O5 0.246006 0.006002 0.197823
O O6 0.000000 0.385448 0.823689
O O7 0.000000 0.250000 0.758166
O O8 0.616325 0.750000 0.480315
O O9 0.500000 0.845134 0.415918
O O10 0.500000 0.402445 0.044253
O O11 0.285841 0.338274 0.028539
O O12 0.322530 0.454965 0.099784
O O13 0.343475 0.500000 0.000000
O O14 0.112512 0.502917 0.118920
#
# Coordination Sequence:
#
# PCOD9535151 Si02
#       8
#     8   8   8   4  16   8  16   8
#     4  10  18  36  56  80 114 148 185 233 307 348
#     4  10  23  37  64  88 120 156 204 252 302 356
#     4  10  20  40  60  87 119 162 196 244 299 363
#     4  12  20  32  58  88 120 148 196 238 300 366
#     4  10  21  37  57  78 114 155 194 237 288 348
#     4  10  21  34  54  83 110 149 192 234 285 350
#     4  10  21  37  59  85 116 153 196 249 297 358
#     4  10  20  34  55  87 120 145 188 247 300 348
#
# _framework density 17.121884999999999
#
# number of rings (size 3 to 8) (size 9 to 14) (size 15 to 20)
#    0.000    1.895    2.105    1.895    1.474    0.421 
#    0.000    3.158    0.000    0.000    0.000    0.000 
#    0.000    0.000    0.000    0.000    0.000    0.000 
#
# Total GULP energy -211746.944838 kJ/mol
# GULP energy per Si atom -5572.288022 kJ/mol
# Density = 1.708291 g / cm^3
# Si number density = 17.121885 Si / 1000 Ang^3
#
#
#
# Elastic Constant Matrix: (Units=GPa)
#
#
# Indices 1 2 3 4 5 6 
#
# 1 123.5274 65.0051 43.8366 0.0000 0.0000 0.0000
# 2 65.0051 123.9392 38.4770 0.0000 0.0000 0.0000
# 3 43.8366 38.4770 52.5272 0.0000 0.0000 0.0000
# 4 0.0000 0.0000 0.0000 18.3345 0.0000 0.0000
# 5 0.0000 0.0000 0.0000 0.0000 30.0977 0.0000
# 6 0.0000 0.0000 0.0000 0.0000 0.0000 -29.2175
#
#
#
# Elastic Compliance Matrix: (Units=1/GPa)
#
#
# Indices 1 2 3 4 5 6 
#
# 1 0.013220 -0.004541 -0.007706 0.000000 0.000000 0.000000
# 2 -0.004541 0.012004 -0.005003 0.000000 0.000000 0.000000
# 3 -0.007706 -0.005003 0.029133 0.000000 0.000000 0.000000
# 4 0.000000 0.000000 0.000000 0.054542 0.000000 0.000000
# 5 0.000000 0.000000 0.000000 0.000000 0.033225 0.000000
# 6 0.000000 0.000000 0.000000 0.000000 0.000000 -0.034226
#
#
# Mechanical properties :
#
#
# Convention : Reuss Voigt Hill
#
# Bulk Modulus (GPa) = 50.36133 66.07016 58.21574
# Shear Modulus (GPa) = 33.55319 14.02128 23.78723
#
# Velocity S-wave (km/s) = 4.43161 2.86476 3.73136
# Velocity P-wave (km/s) = 7.46076 7.04375 7.25525
#
# Compressibility (1/GPa) = 0.01985650
#
# Stress axis : x y z
#
# Youngs Moduli (GPa) = 75.64352 83.30903 34.32479
#
# Poissons Ratio (x) = 0.37834 0.26451
# Poissons Ratio (y) = 0.34353 0.17172
# Poissons Ratio (z) = 0.58291 0.41677
#
# Static dielectric constant tensor:
#      x y z
#    x 1.582270 0.000000 0.000000 
#    y 0.000000 1.584170 0.000000 
#    z 0.000000 0.000000 1.556380 
# 
# From -- ./inp_files/71605.got.cif
#   From: 2010.05.17/outbox.cif.g08.bks.cpg/sg74_36_cif.got.tgz:71605.got - 2010.06.03 17:57:02.
