data_PCOD9535317
_publ_section_title
;
Structure prediction by ZEFSAII (Michael W. Deem and Ramdas Pophale) SiO2 
 PCOD9535317
Probable space group: I M M A
;
_chemical_formula_sum "Si O2"
_cell_formula_units_Z 68
_cell_length_a 22.543507
_cell_length_b 17.207839
_cell_length_c 7.102053
_cell_angle_alpha 90.000000
_cell_angle_beta 90.000000
_cell_angle_gamma 90.000000
_cell_volume 2755.064187
_symmetry_space_group_name_H-M "I M M A"
_symmetry_group_IT_number 74
_symmetry_cell_setting 'orthorhombic'
loop_
_space_group_symop_operation_xyz
x,y,z
-x,1/2-y,z
x,-y,-z
-x,1/2+y,-z
-x,-y,-z
x,1/2+y,-z
-x,y,z
x,1/2-y,z
1/2+x,1/2+y,1/2+z
1/2-x,-y,1/2+z
1/2+x,1/2-y,1/2-z
1/2-x,y,1/2-z
1/2-x,1/2-y,1/2-z
1/2+x,y,1/2-z
1/2-x,1/2+y,1/2+z
1/2+x,-y,1/2+z
loop_
_atom_site_type_symbol
_atom_site_label
_atom_site_fract_x
_atom_site_fract_y
_atom_site_fract_z
Si Si1 0.500000 0.750000 0.421075
Si Si2 0.566785 0.472048 0.218042
Si Si3 0.351219 0.338849 0.090167
Si Si4 0.390263 0.864026 0.343206
Si Si5 0.230069 0.408436 0.965852
O O1 0.447110 0.816793 0.409279
O O2 0.500000 0.455960 0.279872
O O3 0.605758 0.395009 0.206733
O O4 0.594089 0.544752 0.326799
O O5 0.564745 0.500000 0.000000
O O6 0.350684 0.250000 0.152769
O O7 0.285895 0.376561 0.082469
O O8 0.374935 0.339593 0.872810
O O9 0.330224 0.858798 0.465591
O O10 0.250000 0.403076 0.750000
O O11 0.220517 0.500000 0.000000
#
# Coordination Sequence:
#
# PCOD9535317 Si02
#       5
#     4  16  16  16  16
#     4  12  20  32  54  92 112 150 194 256 294 348
#     4   9  17  30  48  77 114 156 188 229 292 357
#     4  10  19  29  51  86 117 148 195 251 298 340
#     4  10  20  32  54  80 119 149 191 244 301 353
#     4  10  21  38  59  85 118 158 201 244 294 355
#
# _framework density 24.681822
#
# number of rings (size 3 to 8) (size 9 to 14) (size 15 to 20)
#    0.000    2.118    2.353    3.529    3.294    1.882 
#    0.000    0.588    0.000    6.353    0.000    0.000 
#    0.000    1.882    0.000    0.000    0.000    0.000 
#
# Total GULP energy -189973.100486 kJ/mol
# GULP energy per Si atom -5587.444132 kJ/mol
# Density = 2.462565 g / cm^3
# Si number density = 24.681822 Si / 1000 Ang^3
#
#
#
# Elastic Constant Matrix: (Units=GPa)
#
#
# Indices 1 2 3 4 5 6 
#
# 1 245.5354 115.4963 28.4467 0.0000 0.0000 0.0000
# 2 115.4963 229.6253 23.1670 0.0000 0.0000 0.0000
# 3 28.4467 23.1670 44.5813 0.0000 0.0000 0.0000
# 4 0.0000 0.0000 0.0000 20.3325 0.0000 0.0000
# 5 0.0000 0.0000 0.0000 0.0000 23.2228 0.0000
# 6 0.0000 0.0000 0.0000 0.0000 0.0000 12.6152
#
#
#
# Elastic Compliance Matrix: (Units=1/GPa)
#
#
# Indices 1 2 3 4 5 6 
#
# 1 0.005532 -0.002561 -0.002199 0.000000 0.000000 0.000000
# 2 -0.002561 0.005781 -0.001370 0.000000 0.000000 0.000000
# 3 -0.002199 -0.001370 0.024546 0.000000 0.000000 0.000000
# 4 0.000000 0.000000 0.000000 0.049182 0.000000 0.000000
# 5 0.000000 0.000000 0.000000 0.000000 0.043061 0.000000
# 6 0.000000 0.000000 0.000000 0.000000 0.000000 0.079269
#
#
# Mechanical properties :
#
#
# Convention : Reuss Voigt Hill
#
# Bulk Modulus (GPa) = 42.37445 94.88468 68.62957
# Shear Modulus (GPa) = 21.97812 34.74289 28.36051
#
# Velocity S-wave (km/s) = 2.98729 3.75591 3.39343
# Velocity P-wave (km/s) = 5.39482 7.57204 6.57419
#
# Compressibility (1/GPa) = 0.02359912
#
# Stress axis : x y z
#
# Youngs Moduli (GPa) = 180.76673 172.97785 40.73922
#
# Poissons Ratio (x) = 0.44292 0.08960
# Poissons Ratio (y) = 0.46287 0.05583
# Poissons Ratio (z) = 0.39755 0.23703
#
# Static dielectric constant tensor:
#      x y z
#    x 1.926700 0.000000 0.000000 
#    y 0.000000 1.878260 0.000000 
#    z 0.000000 0.000000 2.011620 
# 
# From -- ./inp_files/23399.got.cif
#   From: 2010.05.17/outbox.cif.g08.bks.cpg/sg74_12_cif.got.tgz:23399.got - 2010.06.03 17:57:02.
