data_PCOD9535911
_publ_section_title
;
Structure prediction by ZEFSAII (Michael W. Deem and Ramdas Pophale) SiO2 
 PCOD9535911
Probable space group: I M M A
;
_chemical_formula_sum "Si O2"
_cell_formula_units_Z 96
_cell_length_a 9.667769
_cell_length_b 23.637527
_cell_length_c 22.018091
_cell_angle_alpha 90.000000
_cell_angle_beta 90.000000
_cell_angle_gamma 90.000000
_cell_volume 5031.621511
_symmetry_space_group_name_H-M "I M M A"
_symmetry_group_IT_number 74
_symmetry_cell_setting 'orthorhombic'
loop_
_space_group_symop_operation_xyz
x,y,z
-x,1/2-y,z
x,-y,-z
-x,1/2+y,-z
-x,-y,-z
x,1/2+y,-z
-x,y,z
x,1/2-y,z
1/2+x,1/2+y,1/2+z
1/2-x,-y,1/2+z
1/2+x,1/2-y,1/2-z
1/2-x,y,1/2-z
1/2-x,1/2-y,1/2-z
1/2+x,y,1/2-z
1/2-x,1/2+y,1/2+z
1/2+x,-y,1/2+z
loop_
_atom_site_type_symbol
_atom_site_label
_atom_site_fract_x
_atom_site_fract_y
_atom_site_fract_z
Si Si1 0.159629 0.871192 0.429220
Si Si2 0.337817 0.184826 0.470154
Si Si3 0.341694 0.812738 0.850022
Si Si4 0.163283 0.062621 0.308184
Si Si5 0.340121 0.497342 0.068530
Si Si6 0.157988 0.317999 0.694878
O O1 0.255110 0.856460 0.485731
O O2 0.209498 0.837215 0.370550
O O3 0.000000 0.854883 0.442833
O O4 0.159808 0.937136 0.412990
O O5 0.500000 0.171632 0.467021
O O6 0.322870 0.250000 0.492273
O O7 0.266602 0.183000 0.404576
O O8 0.500000 0.814676 0.874493
O O9 0.325582 0.750000 0.821381
O O10 0.327263 0.869045 0.810645
O O11 0.250000 0.042206 0.250000
O O12 0.213546 0.038756 0.374090
O O13 0.000000 0.047541 0.302585
O O14 0.500000 0.476971 0.060071
O O15 0.278098 0.500000 0.000000
O O16 0.157127 0.250000 0.696835
O O17 0.250000 0.339353 0.750000
O O18 0.000000 0.338028 0.700823
#
# Coordination Sequence:
#
# PCOD9535911 Si02
#       6
#    16  16  16  16  16  16
#     4  10  19  32  52  74  97 133 179 218 257 317
#     4  10  20  32  49  78 112 139 167 214 274 324
#     4   9  18  34  56  79 104 140 183 219 256 313
#     4  10  21  37  57  82 112 144 180 226 277 326
#     4   9  18  34  56  79 103 137 182 226 265 310
#     4   9  18  31  46  66  93 125 162 205 252 302
#
# _framework density 19.079336000000001
#
# number of rings (size 3 to 8) (size 9 to 14) (size 15 to 20)
#    0.000    2.500    0.000    2.000    0.000    6.667 
#    0.000    2.500    0.000    2.000    0.000    0.000 
#    0.000    0.000    0.000    0.000    0.000    0.000 
#
# Total GULP energy -267435.656051 kJ/mol
# GULP energy per Si atom -5571.576168 kJ/mol
# Density = 1.903591 g / cm^3
# Si number density = 19.079336 Si / 1000 Ang^3
#
#
#
# Elastic Constant Matrix: (Units=GPa)
#
#
# Indices 1 2 3 4 5 6 
#
# 1 50.0443 22.2449 38.7989 0.0000 0.0000 0.0000
# 2 22.2449 34.2790 17.4307 0.0000 0.0000 0.0000
# 3 38.7989 17.4307 96.9247 0.0000 0.0000 0.0000
# 4 0.0000 0.0000 0.0000 14.3458 0.0000 0.0000
# 5 0.0000 0.0000 0.0000 0.0000 32.0879 0.0000
# 6 0.0000 0.0000 0.0000 0.0000 0.0000 0.1506
#
#
#
# Elastic Compliance Matrix: (Units=1/GPa)
#
#
# Indices 1 2 3 4 5 6 
#
# 1 0.036998 -0.018137 -0.011548 0.000000 0.000000 0.000000
# 2 -0.018137 0.041000 -0.000113 0.000000 0.000000 0.000000
# 3 -0.011548 -0.000113 0.014960 0.000000 0.000000 0.000000
# 4 0.000000 0.000000 0.000000 0.069707 0.000000 0.000000
# 5 0.000000 0.000000 0.000000 0.000000 0.031164 0.000000
# 6 0.000000 0.000000 0.000000 0.000000 0.000000 6.640634
#
#
# Mechanical properties :
#
#
# Convention : Reuss Voigt Hill
#
# Bulk Modulus (GPa) = 29.97519 37.57744 33.77632
# Shear Modulus (GPa) = 0.72409 16.16843 8.44626
#
# Velocity S-wave (km/s) = 0.61672 2.91423 2.10631
# Velocity P-wave (km/s) = 4.03138 5.57331 4.86383
#
# Compressibility (1/GPa) = 0.03336093
#
# Stress axis : x y z
#
# Youngs Moduli (GPa) = 27.02875 24.39047 66.84289
#
# Poissons Ratio (x) = 0.44237 0.77193
# Poissons Ratio (y) = 0.49022 0.00756
# Poissons Ratio (z) = 0.31214 0.00276
#
# Static dielectric constant tensor:
#      x y z
#    x 1.655840 0.000000 0.000000 
#    y 0.000000 1.686610 0.000000 
#    z 0.000000 0.000000 1.670070 
# 
# From -- ./inp_files/49085.got.cif
#   From: 2010.05.17/outbox.cif.g08.bks.cpg/sg74_25_cif.got.tgz:49085.got - 2010.06.03 17:57:02.
