data_PCOD9535689
_publ_section_title
;
Structure prediction by ZEFSAII (Michael W. Deem and Ramdas Pophale) SiO2 
 PCOD9535689
Probable space group: I M M A
;
_chemical_formula_sum "Si O2"
_cell_formula_units_Z 72
_cell_length_a 8.516288
_cell_length_b 29.877416
_cell_length_c 14.257222
_cell_angle_alpha 90.000000
_cell_angle_beta 90.000000
_cell_angle_gamma 90.000000
_cell_volume 3627.674280
_symmetry_space_group_name_H-M "I M M A"
_symmetry_group_IT_number 74
_symmetry_cell_setting 'orthorhombic'
loop_
_space_group_symop_operation_xyz
x,y,z
-x,1/2-y,z
x,-y,-z
-x,1/2+y,-z
-x,-y,-z
x,1/2+y,-z
-x,y,z
x,1/2-y,z
1/2+x,1/2+y,1/2+z
1/2-x,-y,1/2+z
1/2+x,1/2-y,1/2-z
1/2-x,y,1/2-z
1/2-x,1/2-y,1/2-z
1/2+x,y,1/2-z
1/2-x,1/2+y,1/2+z
1/2+x,-y,1/2+z
loop_
_atom_site_type_symbol
_atom_site_label
_atom_site_fract_x
_atom_site_fract_y
_atom_site_fract_z
Si Si1 0.311740 0.071992 0.356614
Si Si2 0.310627 0.661076 0.534700
Si Si3 0.187863 0.379454 0.644663
Si Si4 0.690101 0.250000 0.356039
Si Si5 0.811608 0.021129 0.642664
O O1 0.500000 0.070737 0.354985
O O2 0.250000 0.074956 0.250000
O O3 0.258058 0.116356 0.410535
O O4 0.251774 0.025067 0.399683
O O5 0.500000 0.661076 0.533568
O O6 0.250442 0.656322 0.429058
O O7 0.258011 0.705463 0.588874
O O8 0.250000 0.373150 0.750000
O O9 0.238887 0.429438 0.609986
O O10 0.000000 0.378944 0.646875
O O11 0.500000 0.250000 0.354036
O O12 0.750000 0.250000 0.250000
O O13 0.750000 0.020183 0.750000
O O14 0.000000 0.019120 0.640905
#
# Coordination Sequence:
#
# PCOD9535689 Si02
#       5
#    16  16  16   8  16
#     4  10  19  31  50  78 111 147 185 228 274 325
#     4  10  22  38  57  82 111 144 185 229 277 330
#     4  10  21  37  58  82 111 147 186 228 273 322
#     4  10  22  42  65  88 115 146 179 224 278 330
#     4   9  17  30  49  75 108 146 184 223 269 322
#
# _framework density 19.847425999999999
#
# number of rings (size 3 to 8) (size 9 to 14) (size 15 to 20)
#    0.000    2.222    0.000    4.000    0.000    6.222 
#    0.000    5.000    0.000    0.000    0.000    0.000 
#    0.000    0.000    0.000    0.000    0.000    0.000 
#
# Total GULP energy -201002.437659 kJ/mol
# GULP energy per Si atom -5583.401046 kJ/mol
# Density = 1.980225 g / cm^3
# Si number density = 19.847426 Si / 1000 Ang^3
#
#
#
# Elastic Constant Matrix: (Units=GPa)
#
#
# Indices 1 2 3 4 5 6 
#
# 1 23.9640 29.7589 14.8215 0.0000 0.0000 0.0000
# 2 29.7589 153.9713 91.8192 0.0000 0.0000 0.0000
# 3 14.8215 91.8192 127.8785 0.0004 0.0000 0.0000
# 4 0.0000 0.0000 0.0004 37.5947 0.0000 0.0000
# 5 0.0000 0.0000 0.0000 0.0000 21.4959 0.0000
# 6 0.0000 0.0000 0.0000 0.0000 0.0000 21.7115
#
#
#
# Elastic Compliance Matrix: (Units=1/GPa)
#
#
# Indices 1 2 3 4 5 6 
#
# 1 0.055263 -0.011999 0.002211 0.000000 0.000000 0.000000
# 2 -0.011999 0.013963 -0.008635 0.000000 0.000000 0.000000
# 3 0.002211 -0.008635 0.013764 0.000000 0.000000 0.000000
# 4 0.000000 0.000000 0.000000 0.026599 0.000000 0.000000
# 5 0.000000 0.000000 0.000000 0.000000 0.046520 0.000000
# 6 0.000000 0.000000 0.000000 0.000000 0.000000 0.046059
#
#
# Mechanical properties :
#
#
# Convention : Reuss Voigt Hill
#
# Bulk Modulus (GPa) = 21.67202 64.29034 42.98118
# Shear Modulus (GPa) = 19.65428 27.45471 23.55450
#
# Velocity S-wave (km/s) = 3.15027 3.72329 3.44870
# Velocity P-wave (km/s) = 4.91683 7.13768 6.12869
#
# Compressibility (1/GPa) = 0.04614244
#
# Stress axis : x y z
#
# Youngs Moduli (GPa) = 18.09531 71.61568 72.65338
#
# Poissons Ratio (x) = 0.85933 -0.16060
# Poissons Ratio (y) = 0.21713 0.62738
# Poissons Ratio (z) = -0.04000 0.61842
#
# Static dielectric constant tensor:
#      x y z
#    x 1.675920 0.000000 0.000000 
#    y 0.000000 1.722830 0.000000 
#    z 0.000000 0.000000 1.689350 
# 
# From -- ./inp_files/29149.got.cif
#   From: 2010.05.17/outbox.cif.g08.bks.cpg/sg74_15_cif.got.tgz:29149.got - 2010.06.03 17:57:02.
