data_PCOD9535687
_publ_section_title
;
Structure prediction by ZEFSAII (Michael W. Deem and Ramdas Pophale) SiO2 
 PCOD9535687
Probable space group: I M M A
;
_chemical_formula_sum "Si O2"
_cell_formula_units_Z 96
_cell_length_a 15.181095
_cell_length_b 14.937050
_cell_length_c 22.603301
_cell_angle_alpha 90.000000
_cell_angle_beta 90.000000
_cell_angle_gamma 90.000000
_cell_volume 5125.542054
_symmetry_space_group_name_H-M "I M M A"
_symmetry_group_IT_number 74
_symmetry_cell_setting 'orthorhombic'
loop_
_space_group_symop_operation_xyz
x,y,z
-x,1/2-y,z
x,-y,-z
-x,1/2+y,-z
-x,-y,-z
x,1/2+y,-z
-x,y,z
x,1/2-y,z
1/2+x,1/2+y,1/2+z
1/2-x,-y,1/2+z
1/2+x,1/2-y,1/2-z
1/2-x,y,1/2-z
1/2-x,1/2-y,1/2-z
1/2+x,y,1/2-z
1/2-x,1/2+y,1/2+z
1/2+x,-y,1/2+z
loop_
_atom_site_type_symbol
_atom_site_label
_atom_site_fract_x
_atom_site_fract_y
_atom_site_fract_z
Si Si1 0.731476 0.046914 0.613838
Si Si2 0.853240 0.152682 0.232545
Si Si3 0.596830 0.104109 0.518006
Si Si4 0.691304 0.346399 0.402069
Si Si5 0.399637 0.355870 0.842040
Si Si6 0.401945 0.460520 0.722767
O O1 0.672295 0.102491 0.567405
O O2 0.825337 0.091433 0.622685
O O3 0.674882 0.047235 0.674622
O O4 0.740645 0.941993 0.595733
O O5 0.887028 0.250000 0.253054
O O6 0.750000 0.149182 0.250000
O O7 0.858708 0.151352 0.160969
O O8 0.894926 0.059493 0.252233
O O9 0.500000 0.134289 0.538165
O O10 0.627239 0.151950 0.458214
O O11 0.589792 0.000000 0.500000
O O12 0.740151 0.250000 0.402285
O O13 0.500000 0.375868 0.860874
O O14 0.385407 0.250000 0.846259
O O15 0.392334 0.387906 0.773976
O O16 0.500000 0.453183 0.695580
#
# Coordination Sequence:
#
# PCOD9535687 Si02
#       6
#    16  16  16  16  16  16
#     4  10  19  34  56  78 104 143 185 222 261 313
#     4   9  17  30  49  74 105 143 184 219 252 300
#     4   9  18  32  50  77 114 150 181 213 251 304
#     4   9  18  31  49  75 109 145 175 208 256 309
#     4  10  22  39  57  77 101 131 173 227 281 326
#     4  10  19  31  50  78 110 142 176 217 269 324
#
# _framework density 18.729725999999999
#
# number of rings (size 3 to 8) (size 9 to 14) (size 15 to 20)
#    0.000    2.500    0.000    3.000    0.000    6.667 
#    0.000    3.333    0.000    9.000    0.000    0.000 
#    0.000    0.000    0.000    0.000    0.000    0.000 
#
# Total GULP energy -267390.564586 kJ/mol
# GULP energy per Si atom -5570.636762 kJ/mol
# Density = 1.868710 g / cm^3
# Si number density = 18.729726 Si / 1000 Ang^3
#
#
#
# Elastic Constant Matrix: (Units=GPa)
#
#
# Indices 1 2 3 4 5 6 
#
# 1 122.9361 64.4953 38.1940 0.0000 0.0000 0.0000
# 2 64.4953 100.7215 22.8576 0.0000 0.0000 0.0000
# 3 38.1940 22.8576 42.7205 0.0000 0.0000 0.0000
# 4 0.0000 0.0000 0.0000 -96.1787 0.0000 0.0000
# 5 0.0000 0.0000 0.0000 0.0000 18.8015 0.0000
# 6 0.0000 0.0000 0.0000 0.0000 0.0000 -1.1935
#
#
#
# Elastic Compliance Matrix: (Units=1/GPa)
#
#
# Indices 1 2 3 4 5 6 
#
# 1 0.014958 -0.007448 -0.009389 0.000000 0.000000 0.000000
# 2 -0.007448 0.015009 -0.001372 0.000000 0.000000 0.000000
# 3 -0.009389 -0.001372 0.032536 0.000000 0.000000 0.000000
# 4 0.000000 0.000000 0.000000 -0.010397 0.000000 0.000000
# 5 0.000000 0.000000 0.000000 0.000000 0.053187 0.000000
# 6 0.000000 0.000000 0.000000 0.000000 0.000000 -0.837859
#
#
# Mechanical properties :
#
#
# Convention : Reuss Voigt Hill
#
# Bulk Modulus (GPa) = 38.33382 57.49688 47.91535
# Shear Modulus (GPa) = -7.27320 -6.32538 -6.79929
#
# Velocity S-wave (km/s) = -1.97273 -1.83971 -1.90738
# Velocity P-wave (km/s) = 3.91438 5.12369 4.55930
#
# Compressibility (1/GPa) = 0.02608663
#
# Stress axis : x y z
#
# Youngs Moduli (GPa) = 66.85197 66.62791 30.73547
#
# Poissons Ratio (x) = 0.49623 0.28856
# Poissons Ratio (y) = 0.49790 0.04216
# Poissons Ratio (z) = 0.62764 0.09140
#
# Static dielectric constant tensor:
#      x y z
#    x 1.652050 0.000000 0.000000 
#    y 0.000000 1.708580 0.000000 
#    z 0.000000 0.000000 1.646550 
# 
# From -- ./inp_files/51911.got.cif
#   From: 2010.05.17/outbox.cif.g08.bks.cpg/sg74_26_cif.got.tgz:51911.got - 2010.06.03 17:57:02.
