data_PCOD9535676
_publ_section_title
;
Structure prediction by ZEFSAII (Michael W. Deem and Ramdas Pophale) SiO2 
 PCOD9535676
Probable space group: I M M A
;
_chemical_formula_sum "Si O2"
_cell_formula_units_Z 64
_cell_length_a 21.842831
_cell_length_b 8.048993
_cell_length_c 21.421870
_cell_angle_alpha 90.000000
_cell_angle_beta 90.000000
_cell_angle_gamma 90.000000
_cell_volume 3766.238814
_symmetry_space_group_name_H-M "I M M A"
_symmetry_group_IT_number 74
_symmetry_cell_setting 'orthorhombic'
loop_
_space_group_symop_operation_xyz
x,y,z
-x,1/2-y,z
x,-y,-z
-x,1/2+y,-z
-x,-y,-z
x,1/2+y,-z
-x,y,z
x,1/2-y,z
1/2+x,1/2+y,1/2+z
1/2-x,-y,1/2+z
1/2+x,1/2-y,1/2-z
1/2-x,y,1/2-z
1/2-x,1/2-y,1/2-z
1/2+x,y,1/2-z
1/2-x,1/2+y,1/2+z
1/2+x,-y,1/2+z
loop_
_atom_site_type_symbol
_atom_site_label
_atom_site_fract_x
_atom_site_fract_y
_atom_site_fract_z
Si Si1 0.797438 0.931302 0.191328
Si Si2 0.326130 0.250000 0.254723
Si Si3 0.228583 0.450237 0.432685
Si Si4 0.088741 0.443228 0.569012
Si Si5 0.565959 0.750000 0.841523
O O1 0.825669 0.750000 0.184822
O O2 0.750000 0.920625 0.250000
O O3 0.841145 0.082015 0.209095
O O4 0.763931 0.983301 0.127699
O O5 0.250000 0.250000 0.250000
O O6 0.368980 0.250000 0.194465
O O7 0.256300 0.500000 0.500000
O O8 0.222395 0.250000 0.429567
O O9 0.162363 0.537088 0.430728
O O10 0.068933 0.500000 0.500000
O O11 0.073113 0.250000 0.580796
O O12 0.066703 0.582622 0.617068
O O13 0.500000 0.750000 0.806620
#
# Coordination Sequence:
#
# PCOD9535676 Si02
#       5
#    16   8  16  16   8
#     4  10  19  31  50  77 104 143 185 226 277 341
#     4  10  20  36  58  76 104 142 184 227 277 337
#     4  11  19  31  52  81 117 147 187 239 286 328
#     4  11  20  36  54  74 104 151 199 239 278 322
#     4  12  26  40  56  82 112 144 194 245 282 329
#
# _framework density 16.993079999999999
#
# number of rings (size 3 to 8) (size 9 to 14) (size 15 to 20)
#    0.000    1.250    3.750    6.750    0.000    4.000 
#    0.000    0.000    0.000    0.000    0.000    0.000 
#    0.000    1.000    0.000    0.000    0.000    0.000 
#
# Total GULP energy -178305.248841 kJ/mol
# GULP energy per Si atom -5572.039026 kJ/mol
# Density = 1.695440 g / cm^3
# Si number density = 16.993080 Si / 1000 Ang^3
#
#
#
# Elastic Constant Matrix: (Units=GPa)
#
#
# Indices 1 2 3 4 5 6 
#
# 1 49.4927 26.0607 37.1320 0.0000 0.0000 0.0000
# 2 26.0607 200.9635 42.9696 0.0000 0.0000 0.0000
# 3 37.1320 42.9696 112.1871 0.0000 0.0000 0.0000
# 4 0.0000 0.0000 0.0000 29.6572 0.0000 0.0000
# 5 0.0000 0.0000 0.0000 0.0000 -0.8527 0.0000
# 6 0.0000 0.0000 0.0000 0.0000 0.0000 17.8671
#
#
#
# Elastic Compliance Matrix: (Units=1/GPa)
#
#
# Indices 1 2 3 4 5 6 
#
# 1 0.027440 -0.001761 -0.008408 0.000000 0.000000 0.000000
# 2 -0.001761 0.005533 -0.001536 0.000000 0.000000 0.000000
# 3 -0.008408 -0.001536 0.012285 0.000000 0.000000 0.000000
# 4 0.000000 0.000000 0.000000 0.033719 0.000000 0.000000
# 5 0.000000 0.000000 0.000000 0.000000 -1.172793 0.000000
# 6 0.000000 0.000000 0.000000 0.000000 0.000000 0.055969
#
#
# Mechanical properties :
#
#
# Convention : Reuss Voigt Hill
#
# Bulk Modulus (GPa) = 45.77056 63.88532 54.82794
# Shear Modulus (GPa) = -4.96448 26.43306 10.73429
#
# Velocity S-wave (km/s) = -1.71109 3.94829 2.51606
# Velocity P-wave (km/s) = 4.80516 7.64603 6.38558
#
# Compressibility (1/GPa) = 0.02184810
#
# Stress axis : x y z
#
# Youngs Moduli (GPa) = 36.44309 180.73825 81.40008
#
# Poissons Ratio (x) = 0.31822 0.68440
# Poissons Ratio (y) = 0.06416 0.12507
# Poissons Ratio (z) = 0.30641 0.27769
#
# Static dielectric constant tensor:
#      x y z
#    x 1.561690 0.000000 0.000000 
#    y 0.000000 1.635550 0.000000 
#    z 0.000000 0.000000 1.643200 
# 
# From -- ./inp_files/48306.got.cif
#   From: 2010.05.17/outbox.cif.g08.bks.cpg/sg74_25_cif.got.tgz:48306.got - 2010.06.03 17:57:02.
