data_PCOD9535609
_publ_section_title
;
Structure prediction by ZEFSAII (Michael W. Deem and Ramdas Pophale) SiO2 
 PCOD9535609
Probable space group: I M M A
;
_chemical_formula_sum "Si O2"
_cell_formula_units_Z 104
_cell_length_a 9.048678
_cell_length_b 22.327023
_cell_length_c 30.810900
_cell_angle_alpha 90.000000
_cell_angle_beta 90.000000
_cell_angle_gamma 90.000000
_cell_volume 6224.727416
_symmetry_space_group_name_H-M "I M M A"
_symmetry_group_IT_number 74
_symmetry_cell_setting 'orthorhombic'
loop_
_space_group_symop_operation_xyz
x,y,z
-x,1/2-y,z
x,-y,-z
-x,1/2+y,-z
-x,-y,-z
x,1/2+y,-z
-x,y,z
x,1/2-y,z
1/2+x,1/2+y,1/2+z
1/2-x,-y,1/2+z
1/2+x,1/2-y,1/2-z
1/2-x,y,1/2-z
1/2-x,1/2-y,1/2-z
1/2+x,y,1/2-z
1/2-x,1/2+y,1/2+z
1/2+x,-y,1/2+z
loop_
_atom_site_type_symbol
_atom_site_label
_atom_site_fract_x
_atom_site_fract_y
_atom_site_fract_z
Si Si1 0.176627 0.537144 0.295924
Si Si2 0.177441 0.865778 0.144789
Si Si3 0.822800 0.320793 0.378975
Si Si4 0.676479 0.104155 0.204695
Si Si5 0.170268 0.322812 0.031676
Si Si6 0.674702 0.677929 0.057639
Si Si7 0.823102 0.250000 0.797055
O O1 0.250000 0.554790 0.250000
O O2 0.248879 0.576588 0.333398
O O3 0.206517 0.466438 0.302230
O O4 0.000000 0.546051 0.294112
O O5 0.240521 0.852827 0.097182
O O6 0.216777 0.808761 0.175185
O O7 0.000000 0.870932 0.143702
O O8 0.792738 0.250000 0.372925
O O9 0.774354 0.357521 0.336715
O O10 0.744613 0.341579 0.423161
O O11 0.000000 0.327537 0.383934
O O12 0.500000 0.111231 0.208783
O O13 0.750000 0.122524 0.250000
O O14 0.172892 0.250000 0.032017
O O15 0.000000 0.341803 0.028999
O O16 0.260091 0.341051 0.988908
O O17 0.500000 0.666168 0.059845
O O18 0.696088 0.750000 0.061540
O O19 0.750000 0.250000 0.750000
O O20 0.000000 0.250000 0.791707
#
# Coordination Sequence:
#
# PCOD9535609 Si02
#       7
#    16  16  16  16  16  16   8
#     4  10  20  35  52  71  95 129 172 210 248 295
#     4  11  21  34  50  71  98 130 166 209 256 298
#     4   9  17  31  51  76 105 135 166 200 244 297
#     4   9  19  34  52  74 102 134 168 207 246 290
#     4   9  17  29  47  72 102 134 165 202 245 293
#     4  10  19  31  49  73 100 132 167 204 248 300
#     4  10  22  34  46  66  96 128 158 200 253 300
#
# _framework density 16.707559
#
# number of rings (size 3 to 8) (size 9 to 14) (size 15 to 20)
#    0.000    2.308    0.769    2.308    0.000    6.462 
#    0.000    0.000    0.000    0.923    0.000    6.462 
#    0.000    0.000    0.000    0.000    0.000    0.000 
#
# Total GULP energy -290124.917315 kJ/mol
# GULP energy per Si atom -5579.325333 kJ/mol
# Density = 1.666953 g / cm^3
# Si number density = 16.707559 Si / 1000 Ang^3
#
#
#
# Elastic Constant Matrix: (Units=GPa)
#
#
# Indices 1 2 3 4 5 6 
#
# 1 69.2158 38.3122 72.7770 0.0000 0.0000 0.0000
# 2 38.3122 37.5739 58.9575 0.0000 0.0000 0.0000
# 3 72.7770 58.9575 184.6036 0.0000 0.0000 0.0000
# 4 0.0000 0.0000 0.0000 17.1925 0.0000 0.0000
# 5 0.0000 0.0000 0.0000 0.0000 36.9290 0.0000
# 6 0.0000 0.0000 0.0000 0.0000 0.0000 18.0378
#
#
#
# Elastic Compliance Matrix: (Units=1/GPa)
#
#
# Indices 1 2 3 4 5 6 
#
# 1 0.035199 -0.028297 -0.004839 0.000000 0.000000 0.000000
# 2 -0.028297 0.076098 -0.013148 0.000000 0.000000 0.000000
# 3 -0.004839 -0.013148 0.011524 0.000000 0.000000 0.000000
# 4 0.000000 0.000000 0.000000 0.058165 0.000000 0.000000
# 5 0.000000 0.000000 0.000000 0.000000 0.027079 0.000000
# 6 0.000000 0.000000 0.000000 0.000000 0.000000 0.055439
#
#
# Mechanical properties :
#
#
# Convention : Reuss Voigt Hill
#
# Bulk Modulus (GPa) = 33.05561 70.16518 51.61039
# Shear Modulus (GPa) = 13.65536 22.52162 18.08849
#
# Velocity S-wave (km/s) = 2.86198 3.67548 3.29394
# Velocity P-wave (km/s) = 5.54518 7.75238 6.73975
#
# Compressibility (1/GPa) = 0.03025205
#
# Stress axis : x y z
#
# Youngs Moduli (GPa) = 28.41012 13.14091 86.77604
#
# Poissons Ratio (x) = 0.37185 0.41992
# Poissons Ratio (y) = 0.80393 1.14094
# Poissons Ratio (z) = 0.13748 0.17278
#
# Static dielectric constant tensor:
#      x y z
#    x 1.556950 0.000000 0.000000 
#    y 0.000000 1.552850 0.000000 
#    z 0.000000 0.000000 1.542250 
# 
# From -- ./inp_files/64753.got.cif
#   From: 2010.05.17/outbox.cif.g08.bks.cpg/sg74_33_cif.got.tgz:64753.got - 2010.06.03 17:57:02.
