data_PCOD9535511
_publ_section_title
;
Structure prediction by ZEFSAII (Michael W. Deem and Ramdas Pophale) SiO2 
 PCOD9535511
Probable space group: I M M A
;
_chemical_formula_sum "Si O2"
_cell_formula_units_Z 96
_cell_length_a 26.062392
_cell_length_b 14.770430
_cell_length_c 12.245467
_cell_angle_alpha 90.000000
_cell_angle_beta 90.000000
_cell_angle_gamma 90.000000
_cell_volume 4713.926033
_symmetry_space_group_name_H-M "I M M A"
_symmetry_group_IT_number 74
_symmetry_cell_setting 'orthorhombic'
loop_
_space_group_symop_operation_xyz
x,y,z
-x,1/2-y,z
x,-y,-z
-x,1/2+y,-z
-x,-y,-z
x,1/2+y,-z
-x,y,z
x,1/2-y,z
1/2+x,1/2+y,1/2+z
1/2-x,-y,1/2+z
1/2+x,1/2-y,1/2-z
1/2-x,y,1/2-z
1/2-x,1/2-y,1/2-z
1/2+x,y,1/2-z
1/2-x,1/2+y,1/2+z
1/2+x,-y,1/2+z
loop_
_atom_site_type_symbol
_atom_site_label
_atom_site_fract_x
_atom_site_fract_y
_atom_site_fract_z
Si Si1 0.683569 0.138958 0.942159
Si Si2 0.797219 0.393655 0.894264
Si Si3 0.440686 0.639828 0.453915
Si Si4 0.151634 0.591892 0.896465
Si Si5 0.199384 0.356516 0.312307
Si Si6 0.615519 0.850241 0.240476
O O1 0.682364 0.250000 0.939902
O O2 0.736630 0.108251 0.885830
O O3 0.634293 0.106429 0.872714
O O4 0.687108 0.106801 0.067678
O O5 0.822978 0.492830 0.888558
O O6 0.830419 0.342281 0.805376
O O7 0.811430 0.357960 0.015771
O O8 0.500000 0.618714 0.470973
O O9 0.434249 0.750000 0.456908
O O10 0.403367 0.598687 0.545633
O O11 0.421815 0.609311 0.332811
O O12 0.154425 0.631059 0.775817
O O13 0.208495 0.250000 0.327961
O O14 0.250000 0.393849 0.250000
O O15 0.594851 0.750000 0.216006
#
# Coordination Sequence:
#
# PCOD9535511 Si02
#       6
#    16  16  16  16  16  16
#     4  10  19  32  50  72 103 146 183 214 259 315
#     4  10  19  31  45  71 105 137 173 209 260 314
#     4   9  18  35  60  81  99 132 180 236 285 317
#     4  10  20  33  46  73 109 138 174 216 262 318
#     4  10  19  31  48  69 100 145 182 210 252 314
#     4   9  18  32  50  73  98 129 177 224 266 314
#
# _framework density 20.365189999999998
#
# number of rings (size 3 to 8) (size 9 to 14) (size 15 to 20)
#    0.000    2.333    1.667    1.500    0.000    4.000 
#    3.000    6.667    0.000    1.000    0.000    4.667 
#    0.000   13.333    0.000    0.000    0.000    0.000 
#
# Total GULP energy -267592.082558 kJ/mol
# GULP energy per Si atom -5574.835053 kJ/mol
# Density = 2.031884 g / cm^3
# Si number density = 20.365190 Si / 1000 Ang^3
#
#
#
# Elastic Constant Matrix: (Units=GPa)
#
#
# Indices 1 2 3 4 5 6 
#
# 1 114.7719 13.0705 39.0634 0.0000 0.0000 0.0000
# 2 13.0705 51.3979 15.0748 0.0000 0.0000 0.0000
# 3 39.0634 15.0748 116.0085 0.0000 0.0000 0.0000
# 4 0.0000 0.0000 0.0000 15.1596 0.0000 0.0000
# 5 0.0000 0.0000 0.0000 0.0000 23.9262 0.0000
# 6 0.0000 0.0000 0.0000 0.0000 0.0000 15.3109
#
#
#
# Elastic Compliance Matrix: (Units=1/GPa)
#
#
# Indices 1 2 3 4 5 6 
#
# 1 0.009968 -0.001612 -0.003147 0.000000 0.000000 0.000000
# 2 -0.001612 0.020488 -0.002120 0.000000 0.000000 0.000000
# 3 -0.003147 -0.002120 0.009955 0.000000 0.000000 0.000000
# 4 0.000000 0.000000 0.000000 0.065965 0.000000 0.000000
# 5 0.000000 0.000000 0.000000 0.000000 0.041795 0.000000
# 6 0.000000 0.000000 0.000000 0.000000 0.000000 0.065313
#
#
# Mechanical properties :
#
#
# Convention : Reuss Voigt Hill
#
# Bulk Modulus (GPa) = 37.51808 46.28839 41.90323
# Shear Modulus (GPa) = 21.17530 25.21066 23.19298
#
# Velocity S-wave (km/s) = 3.22806 3.52224 3.37835
# Velocity P-wave (km/s) = 5.68827 6.27057 5.98651
#
# Compressibility (1/GPa) = 0.02665382
#
# Stress axis : x y z
#
# Youngs Moduli (GPa) = 100.32543 48.81009 100.45068
#
# Poissons Ratio (x) = 0.07867 0.31611
# Poissons Ratio (y) = 0.16170 0.21291
# Poissons Ratio (z) = 0.31572 0.10345
#
# Static dielectric constant tensor:
#      x y z
#    x 1.703750 0.000000 0.000000 
#    y 0.000000 1.820290 0.000000 
#    z 0.000000 0.000000 1.819210 
# 
# From -- ./inp_files/25296.got.cif
#   From: 2010.05.17/outbox.cif.g08.bks.cpg/sg74_13_cif.got.tgz:25296.got - 2010.06.03 17:57:02.
