data_PCOD9535115
_publ_section_title
;
Structure prediction by ZEFSAII (Michael W. Deem and Ramdas Pophale) SiO2 
 PCOD9535115
Probable space group: I M M A
;
_chemical_formula_sum "Si O2"
_cell_formula_units_Z 72
_cell_length_a 27.432929
_cell_length_b 14.750789
_cell_length_c 9.555875
_cell_angle_alpha 90.000000
_cell_angle_beta 90.000000
_cell_angle_gamma 90.000000
_cell_volume 3866.855029
_symmetry_space_group_name_H-M "I M M A"
_symmetry_group_IT_number 74
_symmetry_cell_setting 'orthorhombic'
loop_
_space_group_symop_operation_xyz
x,y,z
-x,1/2-y,z
x,-y,-z
-x,1/2+y,-z
-x,-y,-z
x,1/2+y,-z
-x,y,z
x,1/2-y,z
1/2+x,1/2+y,1/2+z
1/2-x,-y,1/2+z
1/2+x,1/2-y,1/2-z
1/2-x,y,1/2-z
1/2-x,1/2-y,1/2-z
1/2+x,y,1/2-z
1/2-x,1/2+y,1/2+z
1/2+x,-y,1/2+z
loop_
_atom_site_type_symbol
_atom_site_label
_atom_site_fract_x
_atom_site_fract_y
_atom_site_fract_z
Si Si1 0.055984 0.357316 0.884179
Si Si2 0.839129 0.852916 0.499388
Si Si3 0.946013 0.397007 0.554577
Si Si4 0.307304 0.000696 0.222597
Si Si5 0.628680 0.500000 0.500000
O O1 0.066310 0.250000 0.884616
O O2 0.058513 0.390830 0.722885
O O3 0.093517 0.414087 0.975748
O O4 0.000000 0.370848 0.931230
O O5 0.821024 0.750000 0.493792
O O6 0.897953 0.851707 0.507355
O O7 0.825167 0.912190 0.363110
O O8 0.818362 0.911803 0.626940
O O9 0.944528 0.500000 0.500000
O O10 0.000000 0.360183 0.519151
O O11 0.250000 0.993561 0.250000
O O12 0.337424 0.008850 0.364751
#
# Coordination Sequence:
#
# PCOD9535115 Si02
#       5
#    16  16  16  16   8
#     4  10  21  36  57  90 127 159 196 244 299 366
#     4  11  22  42  66  91 122 160 205 252 309 367
#     4  10  18  34  61  92 125 160 198 242 300 366
#     4  11  25  44  62  88 122 159 206 266 309 356
#     4  12  21  38  66  88 120 166 205 244 308 372
#
# _framework density 18.619783000000002
#
# number of rings (size 3 to 8) (size 9 to 14) (size 15 to 20)
#    0.000    1.333    4.444    2.333    0.000    3.111 
#    0.000    3.333    0.000    0.000    0.000    0.000 
#    0.000    0.000    0.000    0.000    0.000    0.000 
#
# Total GULP energy -201025.380863 kJ/mol
# GULP energy per Si atom -5584.038357 kJ/mol
# Density = 1.857740 g / cm^3
# Si number density = 18.619783 Si / 1000 Ang^3
#
#
#
# Elastic Constant Matrix: (Units=GPa)
#
#
# Indices 1 2 3 4 5 6 
#
# 1 150.7681 68.7275 53.9288 0.0000 0.0000 0.0000
# 2 68.7275 165.2311 74.4442 0.0000 0.0000 0.0000
# 3 53.9288 74.4442 107.6930 0.0000 0.0000 0.0000
# 4 0.0000 0.0000 0.0000 -4.2435 0.0000 0.0000
# 5 0.0000 0.0000 0.0000 0.0000 21.0566 0.0000
# 6 0.0000 0.0000 0.0000 0.0000 0.0000 0.9311
#
#
#
# Elastic Compliance Matrix: (Units=1/GPa)
#
#
# Indices 1 2 3 4 5 6 
#
# 1 0.008690 -0.002402 -0.002691 0.000000 0.000000 0.000000
# 2 -0.002402 0.009454 -0.005332 0.000000 0.000000 0.000000
# 3 -0.002691 -0.005332 0.014319 0.000000 0.000000 0.000000
# 4 0.000000 0.000000 0.000000 -0.235656 0.000000 0.000000
# 5 0.000000 0.000000 0.000000 0.000000 0.047491 0.000000
# 6 0.000000 0.000000 0.000000 0.000000 0.000000 1.073964
#
#
# Mechanical properties :
#
#
# Convention : Reuss Voigt Hill
#
# Bulk Modulus (GPa) = 86.11625 90.87702 88.49663
# Shear Modulus (GPa) = 5.30232 18.65496 11.97864
#
# Velocity S-wave (km/s) = 1.68934 3.16870 2.53914
# Velocity P-wave (km/s) = 7.08205 7.89305 7.49852
#
# Compressibility (1/GPa) = 0.01161221
#
# Stress axis : x y z
#
# Youngs Moduli (GPa) = 115.06950 105.77937 69.83640
#
# Poissons Ratio (x) = 0.25410 0.18795
# Poissons Ratio (y) = 0.27642 0.37237
# Poissons Ratio (z) = 0.30968 0.56402
#
# Static dielectric constant tensor:
#      x y z
#    x 1.652820 0.000000 0.000000 
#    y 0.000000 1.651690 0.000000 
#    z 0.000000 0.000000 1.622750 
# 
# From -- ./inp_files/9159.got.cif
#   From: 2010.05.17/outbox.cif.g08.bks.cpg/sg74_5_cif.got.tgz:9159.got - 2010.06.03 17:57:02.
