data_PCOD9535218
_publ_section_title
;
Structure prediction by ZEFSAII (Michael W. Deem and Ramdas Pophale) SiO2 
 PCOD9535218
Probable space group: I M M A
;
_chemical_formula_sum "Si O2"
_cell_formula_units_Z 96
_cell_length_a 30.622656
_cell_length_b 9.360613
_cell_length_c 20.445925
_cell_angle_alpha 90.000000
_cell_angle_beta 90.000000
_cell_angle_gamma 90.000000
_cell_volume 5860.759625
_symmetry_space_group_name_H-M "I M M A"
_symmetry_group_IT_number 74
_symmetry_cell_setting 'orthorhombic'
loop_
_space_group_symop_operation_xyz
x,y,z
-x,1/2-y,z
x,-y,-z
-x,1/2+y,-z
-x,-y,-z
x,1/2+y,-z
-x,y,z
x,1/2-y,z
1/2+x,1/2+y,1/2+z
1/2-x,-y,1/2+z
1/2+x,1/2-y,1/2-z
1/2-x,y,1/2-z
1/2-x,1/2-y,1/2-z
1/2+x,y,1/2-z
1/2-x,1/2+y,1/2+z
1/2+x,-y,1/2+z
loop_
_atom_site_type_symbol
_atom_site_label
_atom_site_fract_x
_atom_site_fract_y
_atom_site_fract_z
Si Si1 0.950758 0.415606 0.400933
Si Si2 0.135723 0.582185 0.394362
Si Si3 0.217685 0.580582 0.809186
Si Si4 0.951578 0.084906 0.241869
Si Si5 0.776774 0.579582 0.564060
Si Si6 0.633542 0.416337 0.735843
O O1 0.943419 0.250000 0.420630
O O2 0.910355 0.516842 0.418753
O O3 0.951262 0.417397 0.321356
O O4 0.000000 0.458350 0.421789
O O5 0.139322 0.750000 0.411180
O O6 0.176230 0.490772 0.420604
O O7 0.137642 0.569698 0.315041
O O8 0.208595 0.750000 0.804130
O O9 0.250000 0.541466 0.750000
O O10 0.244015 0.554523 0.875707
O O11 0.173324 0.495365 0.799024
O O12 0.945035 0.250000 0.222931
O O13 0.000000 0.038643 0.221154
O O14 0.912374 0.987951 0.217955
O O15 0.759715 0.500000 0.500000
O O16 0.781388 0.750000 0.554993
O O17 0.633968 0.250000 0.720324
#
# Coordination Sequence:
#
# PCOD9535218 Si02
#       6
#    16  16  16  16  16  16
#     4   8  14  25  42  64  90 123 163 204 246 291
#     4  10  19  30  46  70  98 128 163 203 249 296
#     4  10  20  35  54  74  97 130 169 206 246 297
#     4   8  14  25  41  62  93 132 167 199 239 291
#     4  11  23  38  55  73  97 129 165 207 251 298
#     4  10  19  28  45  73 102 130 162 207 251 289
#
# _framework density 16.380129
#
# number of rings (size 3 to 8) (size 9 to 14) (size 15 to 20)
#    0.000    2.500    1.667    2.500    0.000    3.667 
#    0.000    3.333    0.000    0.500    0.000    0.000 
#    0.000    0.667    0.000    2.167    0.000    2.667 
#
# Total GULP energy -267733.249405 kJ/mol
# GULP energy per Si atom -5577.776029 kJ/mol
# Density = 1.634285 g / cm^3
# Si number density = 16.380129 Si / 1000 Ang^3
#
#
#
# Elastic Constant Matrix: (Units=GPa)
#
#
# Indices 1 2 3 4 5 6 
#
# 1 142.9839 89.3273 44.2727 0.0000 0.0000 0.0000
# 2 89.3273 96.9964 46.8881 0.0000 0.0000 0.0000
# 3 44.2727 46.8881 52.0388 0.0000 0.0000 0.0000
# 4 0.0000 0.0000 0.0000 17.2152 0.0000 0.0000
# 5 0.0000 0.0000 0.0000 0.0000 2.1420 0.0000
# 6 0.0000 0.0000 0.0000 0.0000 0.0000 -42.5944
#
#
#
# Elastic Compliance Matrix: (Units=1/GPa)
#
#
# Indices 1 2 3 4 5 6 
#
# 1 0.016480 -0.014881 -0.000613 0.000000 0.000000 0.000000
# 2 -0.014881 0.031702 -0.015904 0.000000 0.000000 0.000000
# 3 -0.000613 -0.015904 0.034068 0.000000 0.000000 0.000000
# 4 0.000000 0.000000 0.000000 0.058088 0.000000 0.000000
# 5 0.000000 0.000000 0.000000 0.000000 0.466843 0.000000
# 6 0.000000 0.000000 0.000000 0.000000 0.000000 -0.023477
#
#
# Mechanical properties :
#
#
# Convention : Reuss Voigt Hill
#
# Bulk Modulus (GPa) = 51.40215 72.55501 61.97858
# Shear Modulus (GPa) = 7.65715 2.78796 5.22256
#
# Velocity S-wave (km/s) = 2.16444 1.30604 1.78753
# Velocity P-wave (km/s) = 6.13965 6.83118 6.49463
#
# Compressibility (1/GPa) = 0.01945444
#
# Stress axis : x y z
#
# Youngs Moduli (GPa) = 60.67872 31.54356 29.35345
#
# Poissons Ratio (x) = 0.46940 0.01798
# Poissons Ratio (y) = 0.90297 0.46684
# Poissons Ratio (z) = 0.03717 0.50167
#
# Static dielectric constant tensor:
#      x y z
#    x 1.548740 0.000000 0.000000 
#    y 0.000000 1.541710 0.000000 
#    z 0.000000 0.000000 1.550910 
# 
# From -- ./inp_files/55057.got.cif
#   From: 2010.05.17/outbox.cif.g08.bks.cpg/sg74_28_cif.got.tgz:55057.got - 2010.06.03 17:57:02.
