data_PCOD9535319
_publ_section_title
;
Structure prediction by ZEFSAII (Michael W. Deem and Ramdas Pophale) SiO2 
 PCOD9535319
Probable space group: I M M A
;
_chemical_formula_sum "Si O2"
_cell_formula_units_Z 116
_cell_length_a 14.814366
_cell_length_b 28.108777
_cell_length_c 10.676252
_cell_angle_alpha 90.000000
_cell_angle_beta 90.000000
_cell_angle_gamma 90.000000
_cell_volume 4445.737707
_symmetry_space_group_name_H-M "I M M A"
_symmetry_group_IT_number 74
_symmetry_cell_setting 'orthorhombic'
loop_
_space_group_symop_operation_xyz
x,y,z
-x,1/2-y,z
x,-y,-z
-x,1/2+y,-z
-x,-y,-z
x,1/2+y,-z
-x,y,z
x,1/2-y,z
1/2+x,1/2+y,1/2+z
1/2-x,-y,1/2+z
1/2+x,1/2-y,1/2-z
1/2-x,y,1/2-z
1/2-x,1/2-y,1/2-z
1/2+x,y,1/2-z
1/2-x,1/2+y,1/2+z
1/2+x,-y,1/2+z
loop_
_atom_site_type_symbol
_atom_site_label
_atom_site_fract_x
_atom_site_fract_y
_atom_site_fract_z
Si Si1 0.500000 0.750000 0.950589
Si Si2 0.803534 0.945823 0.966983
Si Si3 0.129139 0.333800 0.369516
Si Si4 0.607029 0.698107 0.310528
Si Si5 0.102073 0.509477 0.763026
Si Si6 0.392739 0.402456 0.680541
Si Si7 0.097602 0.935461 0.515339
Si Si8 0.665441 0.694176 0.599106
O O1 0.577758 0.791818 0.940607
O O2 0.831923 0.950995 0.823069
O O3 0.703419 0.938905 0.019470
O O4 0.862713 0.907148 0.036793
O O5 0.832839 0.000000 0.000000
O O6 0.097020 0.384595 0.415807
O O7 0.235621 0.329142 0.399175
O O8 0.114537 0.327148 0.219897
O O9 0.500000 0.699775 0.283145
O O10 0.643548 0.750000 0.269024
O O11 0.641413 0.646988 0.259362
O O12 0.621269 0.694399 0.461038
O O13 0.134264 0.454576 0.768963
O O14 0.094457 0.523396 0.619235
O O15 0.000000 0.512481 0.817827
O O16 0.500000 0.400091 0.683960
O O17 0.000000 0.935807 0.444711
O O18 0.676825 0.750000 0.631028
#
# Coordination Sequence:
#
# PCOD9535319 Si02
#       8
#     4  16  16  16  16  16  16  16
#     4  12  20  34  44  56  88 130 164 200 228 274
#     4  10  20  34  51  69  94 125 159 200 247 289
#     4  11  21  31  43  60  87 122 162 201 231 267
#     4   9  18  27  43  67  93 123 153 183 227 284
#     4   9  19  33  49  71  95 119 160 200 244 288
#     4   9  17  32  50  70  97 129 156 197 239 286
#     4  11  23  33  47  71  94 127 164 202 239 283
#     4  10  19  30  41  60  86 120 160 195 231 268
#
# _framework density 26.092407000000001
#
# number of rings (size 3 to 8) (size 9 to 14) (size 15 to 20)
#    0.000    2.069    2.069    2.069    6.759    1.931 
#    0.000    0.000    0.000    0.000    0.000    0.000 
#    0.000    8.828    0.000    3.862    0.552    0.414 
#
# Total GULP energy -323379.689657 kJ/mol
# GULP energy per Si atom -5575.511891 kJ/mol
# Density = 2.603302 g / cm^3
# Si number density = 26.092407 Si / 1000 Ang^3
#
#
#
# Elastic Constant Matrix: (Units=GPa)
#
#
# Indices 1 2 3 4 5 6 
#
# 1 113.7560 27.0522 35.9300 0.0000 0.0001 0.0000
# 2 27.0522 203.5784 8.6532 -0.0001 -0.0003 0.0000
# 3 35.9300 8.6532 34.2596 -0.0012 -0.0010 -0.0001
# 4 0.0000 -0.0001 -0.0012 11.3584 -0.0003 -0.0001
# 5 0.0001 -0.0003 -0.0010 -0.0003 9.8999 -0.0001
# 6 0.0000 0.0000 -0.0001 -0.0001 -0.0001 23.3393
#
#
#
# Elastic Compliance Matrix: (Units=1/GPa)
#
#
# Indices 1 2 3 4 5 6 
#
# 1 0.013428 -0.001199 -0.013780 -0.000001 -0.000002 0.000000
# 2 -0.001199 0.005072 -0.000024 0.000000 0.000000 0.000000
# 3 -0.013780 -0.000024 0.043647 0.000005 0.000004 0.000000
# 4 -0.000001 0.000000 0.000005 0.088041 0.000003 0.000000
# 5 -0.000002 0.000000 0.000004 0.000003 0.101011 0.000000
# 6 0.000000 0.000000 0.000000 0.000000 0.000000 0.042846
#
#
# Mechanical properties :
#
#
# Convention : Reuss Voigt Hill
#
# Bulk Modulus (GPa) = 31.11209 54.98497 43.04853
# Shear Modulus (GPa) = 14.93581 27.58343 21.25962
#
# Velocity S-wave (km/s) = 2.39512 3.25490 2.85754
# Velocity P-wave (km/s) = 4.42702 5.93673 5.23657
#
# Compressibility (1/GPa) = 0.03214185
#
# Stress axis : x y z
#
# Youngs Moduli (GPa) = 74.46943 197.14462 22.91098
#
# Poissons Ratio (x) = 0.23631 0.31572
# Poissons Ratio (y) = 0.08926 0.00055
# Poissons Ratio (z) = 1.02621 0.00474
#
# Static dielectric constant tensor:
#      x y z
#    x 2.066630 0.000000 0.000000 
#    y 0.000000 2.052830 0.000000 
#    z 0.000000 0.000000 2.374640 
# 
# From -- ./inp_files/43287.got.cif
#   From: 2010.05.17/outbox.cif.g08.bks.cpg/sg74_22_cif.got.tgz:43287.got - 2010.06.03 17:57:02.
