data_PCOD9535070
_publ_section_title
;
Structure prediction by ZEFSAII (Michael W. Deem and Ramdas Pophale) SiO2 
 PCOD9535070
Probable space group: I M M A
;
_chemical_formula_sum "Si O2"
_cell_formula_units_Z 96
_cell_length_a 18.738819
_cell_length_b 14.880603
_cell_length_c 18.241793
_cell_angle_alpha 90.000000
_cell_angle_beta 90.000000
_cell_angle_gamma 90.000000
_cell_volume 5086.631423
_symmetry_space_group_name_H-M "I M M A"
_symmetry_group_IT_number 74
_symmetry_cell_setting 'orthorhombic'
loop_
_space_group_symop_operation_xyz
x,y,z
-x,1/2-y,z
x,-y,-z
-x,1/2+y,-z
-x,-y,-z
x,1/2+y,-z
-x,y,z
x,1/2-y,z
1/2+x,1/2+y,1/2+z
1/2-x,-y,1/2+z
1/2+x,1/2-y,1/2-z
1/2-x,y,1/2-z
1/2-x,1/2-y,1/2-z
1/2+x,y,1/2-z
1/2-x,1/2+y,1/2+z
1/2+x,-y,1/2+z
loop_
_atom_site_type_symbol
_atom_site_label
_atom_site_fract_x
_atom_site_fract_y
_atom_site_fract_z
Si Si1 0.781774 0.250000 0.973582
Si Si2 0.915493 0.556874 0.156120
Si Si3 0.865004 0.441447 0.678488
Si Si4 0.648097 0.250000 0.047654
Si Si5 0.913589 0.250000 0.618587
Si Si6 0.728417 0.047432 0.578697
Si Si7 0.423592 0.750000 0.415572
Si Si8 0.920538 0.565793 0.564365
O O1 0.733059 0.250000 0.044240
O O2 0.766271 0.155808 0.932871
O O3 0.865907 0.250000 0.979253
O O4 0.881016 0.546242 0.236290
O O5 0.852365 0.520710 0.102655
O O6 0.917102 0.662544 0.135018
O O7 0.000000 0.527247 0.151653
O O8 0.883961 0.339035 0.657561
O O9 0.788178 0.468375 0.642150
O O10 0.919529 0.504712 0.635227
O O11 0.621783 0.343613 0.079028
O O12 0.617089 0.250000 0.964185
O O13 0.000000 0.250000 0.618356
O O14 0.742015 0.000000 0.500000
O O15 0.500000 0.750000 0.451168
O O16 0.893068 0.500000 0.500000
O O17 0.000000 0.592837 0.541164
#
# Coordination Sequence:
#
# PCOD9535070 Si02
#       8
#     8  16  16   8   8  16   8  16
#     4  10  18  34  54  78 108 142 177 228 274 321
#     4  10  21  36  56  82 113 147 183 227 280 336
#     4  12  21  35  54  83 114 146 185 224 278 330
#     4  12  20  33  47  76 110 151 192 223 263 324
#     4  12  21  30  51  81 119 155 182 216 265 338
#     4  11  22  38  58  82 112 147 187 231 277 329
#     4   8  17  33  53  78 109 141 175 215 275 340
#     4  11  21  32  48  72 108 149 189 226 262 316
#
# _framework density 18.873000000000001
#
# number of rings (size 3 to 8) (size 9 to 14) (size 15 to 20)
#    0.000    1.167    3.333    4.750    0.000    1.000 
#    0.000    3.333    0.000    1.000    0.000    4.667 
#    0.000    0.000    0.000    0.000    0.000    0.000 
#
# Total GULP energy -267350.335679 kJ/mol
# GULP energy per Si atom -5569.798660 kJ/mol
# Density = 1.883004 g / cm^3
# Si number density = 18.873000 Si / 1000 Ang^3
#
#
#
# Elastic Constant Matrix: (Units=GPa)
#
#
# Indices 1 2 3 4 5 6 
#
# 1 169.7355 26.8219 51.1731 0.0000 0.0000 0.0000
# 2 26.8219 76.8567 22.4797 0.0000 0.0000 0.0000
# 3 51.1731 22.4797 60.3373 0.0000 0.0000 0.0000
# 4 0.0000 0.0000 0.0000 -0.2402 0.0000 0.0000
# 5 0.0000 0.0000 0.0000 0.0000 33.3781 0.0000
# 6 0.0000 0.0000 0.0000 0.0000 0.0000 19.9005
#
#
#
# Elastic Compliance Matrix: (Units=1/GPa)
#
#
# Indices 1 2 3 4 5 6 
#
# 1 0.007971 -0.000903 -0.006424 0.000000 0.000000 0.000000
# 2 -0.000903 0.014705 -0.004713 0.000000 0.000000 0.000000
# 3 -0.006424 -0.004713 0.023778 0.000000 0.000000 0.000000
# 4 0.000000 0.000000 0.000000 -4.162996 0.000000 0.000000
# 5 0.000000 0.000000 0.000000 0.000000 0.029960 0.000000
# 6 0.000000 0.000000 0.000000 0.000000 0.000000 0.050250
#
#
# Mechanical properties :
#
#
# Convention : Reuss Voigt Hill
#
# Bulk Modulus (GPa) = 44.69443 56.43099 50.56271
# Shear Modulus (GPa) = -1.24850 24.37134 11.56142
#
# Velocity S-wave (km/s) = -0.81423 3.59741 2.47774
# Velocity P-wave (km/s) = 4.78008 6.87171 5.91902
#
# Compressibility (1/GPa) = 0.02237415
#
# Stress axis : x y z
#
# Youngs Moduli (GPa) = 125.45619 68.00523 42.05643
#
# Poissons Ratio (x) = 0.06140 0.27017
# Poissons Ratio (y) = 0.11326 0.19820
# Poissons Ratio (z) = 0.80592 0.32050
#
# Static dielectric constant tensor:
#      x y z
#    x 1.763220 0.000000 0.000000 
#    y 0.000000 1.652670 0.000000 
#    z 0.000000 0.000000 1.293980 
# 
# From -- ./inp_files/35356.got.cif
#   From: 2010.05.17/outbox.cif.g08.bks.cpg/sg74_18_cif.got.tgz:35356.got - 2010.06.03 17:57:02.
