data_PCOD9535657
_publ_section_title
;
Structure prediction by ZEFSAII (Michael W. Deem and Ramdas Pophale) SiO2 
 PCOD9535657
Probable space group: I M M A
;
_chemical_formula_sum "Si O2"
_cell_formula_units_Z 112
_cell_length_a 14.461250
_cell_length_b 17.220996
_cell_length_c 21.432440
_cell_angle_alpha 90.000000
_cell_angle_beta 90.000000
_cell_angle_gamma 90.000000
_cell_volume 5337.473312
_symmetry_space_group_name_H-M "I M M A"
_symmetry_group_IT_number 74
_symmetry_cell_setting 'orthorhombic'
loop_
_space_group_symop_operation_xyz
x,y,z
-x,1/2-y,z
x,-y,-z
-x,1/2+y,-z
-x,-y,-z
x,1/2+y,-z
-x,y,z
x,1/2-y,z
1/2+x,1/2+y,1/2+z
1/2-x,-y,1/2+z
1/2+x,1/2-y,1/2-z
1/2-x,y,1/2-z
1/2-x,1/2-y,1/2-z
1/2+x,y,1/2-z
1/2-x,1/2+y,1/2+z
1/2+x,-y,1/2+z
loop_
_atom_site_type_symbol
_atom_site_label
_atom_site_fract_x
_atom_site_fract_y
_atom_site_fract_z
Si Si1 0.782515 0.655394 0.600261
Si Si2 0.111483 0.658868 0.335338
Si Si3 0.604518 0.572206 0.651712
Si Si4 0.856611 0.337418 0.272502
Si Si5 0.610640 0.588712 0.292678
Si Si6 0.293478 0.344843 0.962715
Si Si7 0.398764 0.339904 0.581714
O O1 0.773142 0.750000 0.604152
O O2 0.681197 0.618288 0.612027
O O3 0.849115 0.631325 0.657316
O O4 0.821947 0.634029 0.532627
O O5 0.136759 0.750000 0.326794
O O6 0.146551 0.610589 0.275515
O O7 0.149468 0.630939 0.401953
O O8 0.000000 0.655777 0.336333
O O9 0.500000 0.568590 0.624691
O O10 0.596936 0.613516 0.719026
O O11 0.643084 0.487744 0.670926
O O12 0.893146 0.250000 0.273735
O O13 0.750000 0.333580 0.250000
O O14 0.500000 0.576814 0.284767
O O15 0.621498 0.655686 0.344205
O O16 0.293925 0.250000 0.960845
O O17 0.188488 0.373778 0.953648
O O18 0.500000 0.375845 0.571160
O O19 0.404078 0.250000 0.563516
#
# Coordination Sequence:
#
# PCOD9535657 Si02
#       7
#    16  16  16  16  16  16  16
#     4   9  18  34  52  70 101 135 163 208 259 305
#     4   9  17  32  54  77 104 138 175 218 265 306
#     4  10  19  31  50  75 102 130 166 211 257 308
#     4   8  15  30  49  67  91 123 160 207 255 294
#     4   9  18  32  49  72 103 134 166 213 264 300
#     4   9  18  32  51  77 104 134 176 214 250 308
#     4   9  17  31  50  72 103 139 172 210 255 301
#
# _framework density 20.983712000000001
#
# number of rings (size 3 to 8) (size 9 to 14) (size 15 to 20)
#    0.000    3.000    0.000    1.714    0.000    4.000 
#    7.714    5.000    0.000    5.143    0.000    3.000 
#    0.000    0.000    0.000    0.000    0.000    0.000 
#
# Total GULP energy -311961.502051 kJ/mol
# GULP energy per Si atom -5570.741108 kJ/mol
# Density = 2.093595 g / cm^3
# Si number density = 20.983712 Si / 1000 Ang^3
#
#
#
# Elastic Constant Matrix: (Units=GPa)
#
#
# Indices 1 2 3 4 5 6 
#
# 1 29.9070 4.9416 -5.1886 0.0000 0.0000 0.0000
# 2 4.9416 27.9908 -8.1071 0.0000 0.0000 0.0000
# 3 -5.1886 -8.1071 73.9558 0.0000 0.0000 0.0000
# 4 0.0000 0.0000 0.0000 6.6294 0.0000 0.0000
# 5 0.0000 0.0000 0.0000 0.0000 18.2315 0.0000
# 6 0.0000 0.0000 0.0000 0.0000 0.0000 12.7910
#
#
#
# Elastic Compliance Matrix: (Units=1/GPa)
#
#
# Indices 1 2 3 4 5 6 
#
# 1 0.034677 -0.005595 0.001820 0.000000 0.000000 0.000000
# 2 -0.005595 0.037800 0.003751 0.000000 0.000000 0.000000
# 3 0.001820 0.003751 0.014060 0.000000 0.000000 0.000000
# 4 0.000000 0.000000 0.000000 0.150842 0.000000 0.000000
# 5 0.000000 0.000000 0.000000 0.000000 0.054850 0.000000
# 6 0.000000 0.000000 0.000000 0.000000 0.000000 0.078180
#
#
# Mechanical properties :
#
#
# Convention : Reuss Voigt Hill
#
# Bulk Modulus (GPa) = 11.56212 12.79392 12.17802
# Shear Modulus (GPa) = 12.52227 16.87757 14.69992
#
# Velocity S-wave (km/s) = 2.44552 2.83913 2.64964
# Velocity P-wave (km/s) = 3.67370 4.10583 3.89576
#
# Compressibility (1/GPa) = 0.08648930
#
# Stress axis : x y z
#
# Youngs Moduli (GPa) = 28.83743 26.45488 71.12148
#
# Poissons Ratio (x) = 0.14801 -0.12941
# Poissons Ratio (y) = 0.16134 -0.26679
# Poissons Ratio (z) = -0.05247 -0.09924
#
# Static dielectric constant tensor:
#      x y z
#    x 1.791980 0.000000 0.000000 
#    y 0.000000 1.805110 0.000000 
#    z 0.000000 0.000000 1.766770 
# 
# From -- ./inp_files/53258.got.cif
#   From: 2010.05.17/outbox.cif.g08.bks.cpg/sg74_27_cif.got.tgz:53258.got - 2010.06.03 17:57:02.
