data_PCOD9535073
_publ_section_title
;
Structure prediction by ZEFSAII (Michael W. Deem and Ramdas Pophale) SiO2 
 PCOD9535073
Probable space group: I M M A
;
_chemical_formula_sum "Si O2"
_cell_formula_units_Z 112
_cell_length_a 18.492484
_cell_length_b 18.636402
_cell_length_c 18.128785
_cell_angle_alpha 90.000000
_cell_angle_beta 90.000000
_cell_angle_gamma 90.000000
_cell_volume 6247.784192
_symmetry_space_group_name_H-M "I M M A"
_symmetry_group_IT_number 74
_symmetry_cell_setting 'orthorhombic'
loop_
_space_group_symop_operation_xyz
x,y,z
-x,1/2-y,z
x,-y,-z
-x,1/2+y,-z
-x,-y,-z
x,1/2+y,-z
-x,y,z
x,1/2-y,z
1/2+x,1/2+y,1/2+z
1/2-x,-y,1/2+z
1/2+x,1/2-y,1/2-z
1/2-x,y,1/2-z
1/2-x,1/2-y,1/2-z
1/2+x,y,1/2-z
1/2-x,1/2+y,1/2+z
1/2+x,-y,1/2+z
loop_
_atom_site_type_symbol
_atom_site_label
_atom_site_fract_x
_atom_site_fract_y
_atom_site_fract_z
Si Si1 0.662483 0.554196 0.242356
Si Si2 0.084744 0.581947 0.672802
Si Si3 0.157109 0.334698 0.457792
Si Si4 0.688444 0.592867 0.562385
Si Si5 0.584300 0.665734 0.678783
Si Si6 0.680058 0.931575 0.401847
Si Si7 0.319721 0.834716 0.123593
O O1 0.750000 0.544786 0.250000
O O2 0.629500 0.487024 0.199390
O O3 0.634819 0.562063 0.326532
O O4 0.647214 0.624270 0.193253
O O5 0.110629 0.616271 0.596426
O O6 0.096036 0.640382 0.737497
O O7 0.000000 0.564243 0.669603
O O8 0.148325 0.250000 0.442086
O O9 0.240363 0.358534 0.445108
O O10 0.141406 0.346168 0.544766
O O11 0.635858 0.622652 0.624361
O O12 0.711093 0.511808 0.584338
O O13 0.649616 0.589164 0.482178
O O14 0.500000 0.652021 0.661309
O O15 0.598306 0.750000 0.671663
O O16 0.742023 0.873168 0.386241
O O17 0.312488 0.750000 0.135574
#
# Coordination Sequence:
#
# PCOD9535073 Si02
#       7
#    16  16  16  16  16  16  16
#     4  10  19  35  58  82 108 145 182 231 273 327
#     4  11  23  37  55  80 112 148 188 229 276 333
#     4  10  20  34  54  79 109 145 183 227 275 328
#     4  10  18  34  54  82 110 143 185 224 268 327
#     4  10  21  36  53  77 112 147 179 223 275 325
#     4   9  18  31  54  80 113 141 176 225 274 321
#     4   9  19  34  54  83 111 139 180 232 283 326
#
# _framework density 17.926354
#
# number of rings (size 3 to 8) (size 9 to 14) (size 15 to 20)
#    0.000    2.143    1.429    2.571    0.000    5.714 
#    0.000    5.000    0.000    1.286    0.000    0.000 
#    0.000    0.000    0.000    0.000    0.000    0.000 
#
# Total GULP energy -312069.293041 kJ/mol
# GULP energy per Si atom -5572.665947 kJ/mol
# Density = 1.788555 g / cm^3
# Si number density = 17.926354 Si / 1000 Ang^3
#
#
#
# Elastic Constant Matrix: (Units=GPa)
#
#
# Indices 1 2 3 4 5 6 
#
# 1 36.2451 35.5892 33.6489 0.0000 0.0000 0.0000
# 2 35.5892 83.6368 55.4902 0.0000 0.0000 0.0000
# 3 33.6489 55.4902 126.0018 0.0000 0.0000 0.0000
# 4 0.0000 0.0000 0.0000 33.7621 0.0000 0.0000
# 5 0.0000 0.0000 0.0000 0.0000 -3.2713 0.0000
# 6 0.0000 0.0000 0.0000 0.0000 0.0000 7.8711
#
#
#
# Elastic Compliance Matrix: (Units=1/GPa)
#
#
# Indices 1 2 3 4 5 6 
#
# 1 0.050071 -0.017568 -0.005635 0.000000 0.000000 0.000000
# 2 -0.017568 0.023056 -0.005462 0.000000 0.000000 0.000000
# 3 -0.005635 -0.005462 0.011847 0.000000 0.000000 0.000000
# 4 0.000000 0.000000 0.000000 0.029619 0.000000 0.000000
# 5 0.000000 0.000000 0.000000 0.000000 -0.305689 0.000000
# 6 0.000000 0.000000 0.000000 0.000000 0.000000 0.127048
#
#
# Mechanical properties :
#
#
# Convention : Reuss Voigt Hill
#
# Bulk Modulus (GPa) = 36.17408 55.03780 45.60594
# Shear Modulus (GPa) = 2003.93934 15.74941 1009.84437
#
# Velocity S-wave (km/s) = 33.47088 2.96727 23.76031
# Velocity P-wave (km/s) = 38.90960 6.51985 27.89682
#
# Compressibility (1/GPa) = 0.02764410
#
# Stress axis : x y z
#
# Youngs Moduli (GPa) = 19.97170 43.37309 84.41208
#
# Poissons Ratio (x) = 0.76196 0.47565
# Poissons Ratio (y) = 0.35086 0.46107
# Poissons Ratio (z) = 0.11254 0.23691
#
# Static dielectric constant tensor:
#      x y z
#    x 1.583410 0.000000 0.000000 
#    y 0.000000 1.597360 0.000000 
#    z 0.000000 0.000000 1.660390 
# 
# From -- ./inp_files/46243.got.cif
#   From: 2010.05.17/outbox.cif.g08.bks.cpg/sg74_24_cif.got.tgz:46243.got - 2010.06.03 17:57:02.
