data_PCOD9535791
_publ_section_title
;
Structure prediction by ZEFSAII (Michael W. Deem and Ramdas Pophale) SiO2 
 PCOD9535791
Probable space group: I M M A
;
_chemical_formula_sum "Si O2"
_cell_formula_units_Z 96
_cell_length_a 8.721295
_cell_length_b 31.794280
_cell_length_c 21.319063
_cell_angle_alpha 90.000000
_cell_angle_beta 90.000000
_cell_angle_gamma 90.000000
_cell_volume 5911.505315
_symmetry_space_group_name_H-M "I M M A"
_symmetry_group_IT_number 74
_symmetry_cell_setting 'orthorhombic'
loop_
_space_group_symop_operation_xyz
x,y,z
-x,1/2-y,z
x,-y,-z
-x,1/2+y,-z
-x,-y,-z
x,1/2+y,-z
-x,y,z
x,1/2-y,z
1/2+x,1/2+y,1/2+z
1/2-x,-y,1/2+z
1/2+x,1/2-y,1/2-z
1/2-x,y,1/2-z
1/2-x,1/2-y,1/2-z
1/2+x,y,1/2-z
1/2-x,1/2+y,1/2+z
1/2+x,-y,1/2+z
loop_
_atom_site_type_symbol
_atom_site_label
_atom_site_fract_x
_atom_site_fract_y
_atom_site_fract_z
Si Si1 0.185191 0.795950 0.449381
Si Si2 0.678634 0.885593 0.009528
Si Si3 0.184236 0.465913 0.051863
Si Si4 0.820850 0.405455 0.656856
Si Si5 0.680704 0.317000 0.685170
Si Si6 0.684515 0.496374 0.685123
O O1 0.227121 0.750000 0.475259
O O2 0.238491 0.837510 0.486663
O O3 0.245497 0.798966 0.378222
O O4 0.000000 0.798857 0.446511
O O5 0.500000 0.884550 0.991317
O O6 0.686953 0.902026 0.081317
O O7 0.763520 0.919494 0.967294
O O8 0.231596 0.479154 0.121878
O O9 0.000000 0.467480 0.050109
O O10 0.240888 0.500000 0.000000
O O11 0.723141 0.366480 0.681985
O O12 0.752667 0.449556 0.678013
O O13 0.000000 0.401020 0.675079
O O14 0.500000 0.310570 0.684189
O O15 0.750000 0.300308 0.750000
O O16 0.500000 0.494447 0.687735
O O17 0.750000 0.514475 0.750000
#
# Coordination Sequence:
#
# PCOD9535791 Si02
#       6
#    16  16  16  16  16  16
#     4   9  19  36  53  70  94 121 153 198 249 297
#     4   9  18  31  51  75  95 123 162 202 242 286
#     4  10  20  34  51  72 100 133 167 203 246 291
#     4  10  19  32  48  68  94 126 165 206 250 290
#     4  11  21  32  46  64  89 122 163 205 248 295
#     4  11  22  34  48  69  99 133 168 206 249 290
#
# _framework density 16.239519999999999
#
# number of rings (size 3 to 8) (size 9 to 14) (size 15 to 20)
#    0.000    2.000    1.667    4.000    0.000    5.000 
#    0.000    0.000    0.000    0.000    0.000    0.000 
#    0.000    0.667    0.000    1.500    0.000    2.333 
#
# Total GULP energy -267866.741082 kJ/mol
# GULP energy per Si atom -5580.557106 kJ/mol
# Density = 1.620256 g / cm^3
# Si number density = 16.239520 Si / 1000 Ang^3
#
#
#
# Elastic Constant Matrix: (Units=GPa)
#
#
# Indices 1 2 3 4 5 6 
#
# 1 20.6698 15.0246 18.4170 0.0000 0.0000 0.0000
# 2 15.0246 119.7767 53.8671 0.0000 0.0000 0.0000
# 3 18.4170 53.8671 79.9846 0.0000 0.0000 0.0000
# 4 0.0000 0.0000 0.0000 -0.3752 0.0000 0.0000
# 5 0.0000 0.0000 0.0000 0.0000 23.0156 0.0000
# 6 0.0000 0.0000 0.0000 0.0000 0.0000 14.2659
#
#
#
# Elastic Compliance Matrix: (Units=1/GPa)
#
#
# Indices 1 2 3 4 5 6 
#
# 1 0.061174 -0.001920 -0.012792 0.000000 0.000000 0.000000
# 2 -0.001920 0.012036 -0.007664 0.000000 0.000000 0.000000
# 3 -0.012792 -0.007664 0.020609 -0.000001 0.000000 0.000000
# 4 0.000000 0.000000 -0.000001 -2.665533 0.000000 0.000001
# 5 0.000000 0.000000 0.000000 0.000000 0.043449 0.000000
# 6 0.000000 0.000000 0.000000 0.000001 0.000000 0.070097
#
#
# Mechanical properties :
#
#
# Convention : Reuss Voigt Hill
#
# Bulk Modulus (GPa) = 20.38063 43.89426 32.13744
# Shear Modulus (GPa) = -2.08589 16.25610 7.08510
#
# Velocity S-wave (km/s) = -1.13457 3.16732 2.09102
# Velocity P-wave (km/s) = 3.29559 6.36112 5.06581
#
# Compressibility (1/GPa) = 0.04906620
#
# Stress axis : x y z
#
# Youngs Moduli (GPa) = 16.34685 83.08066 48.52161
#
# Poissons Ratio (x) = 0.15955 0.62070
# Poissons Ratio (y) = 0.03139 0.37187
# Poissons Ratio (z) = 0.20911 0.63673
#
# Static dielectric constant tensor:
#      x y z
#    x 1.546480 0.000000 0.000000 
#    y 0.000000 1.571720 0.000000 
#    z 0.000000 0.000000 1.544470 
# 
# From -- ./inp_files/49046.got.cif
#   From: 2010.05.17/outbox.cif.g08.bks.cpg/sg74_25_cif.got.tgz:49046.got - 2010.06.03 17:57:02.
