data_PCOD9535220
_publ_section_title
;
Structure prediction by ZEFSAII (Michael W. Deem and Ramdas Pophale) SiO2 
 PCOD9535220
Probable space group: I M M A
;
_chemical_formula_sum "Si O2"
_cell_formula_units_Z 60
_cell_length_a 7.417286
_cell_length_b 15.583410
_cell_length_c 25.336659
_cell_angle_alpha 90.000000
_cell_angle_beta 90.000000
_cell_angle_gamma 90.000000
_cell_volume 2928.578493
_symmetry_space_group_name_H-M "I M M A"
_symmetry_group_IT_number 74
_symmetry_cell_setting 'orthorhombic'
loop_
_space_group_symop_operation_xyz
x,y,z
-x,1/2-y,z
x,-y,-z
-x,1/2+y,-z
-x,-y,-z
x,1/2+y,-z
-x,y,z
x,1/2-y,z
1/2+x,1/2+y,1/2+z
1/2-x,-y,1/2+z
1/2+x,1/2-y,1/2-z
1/2-x,y,1/2-z
1/2-x,1/2-y,1/2-z
1/2+x,y,1/2-z
1/2-x,1/2+y,1/2+z
1/2+x,-y,1/2+z
loop_
_atom_site_type_symbol
_atom_site_label
_atom_site_fract_x
_atom_site_fract_y
_atom_site_fract_z
Si Si1 0.218811 0.750000 0.347129
Si Si2 0.213888 0.750000 0.687855
Si Si3 0.500000 0.650812 0.540059
Si Si4 0.714053 0.066008 0.809188
Si Si5 0.500000 0.250000 0.561353
Si Si6 0.781521 0.912725 0.617752
O O1 0.277121 0.663364 0.317227
O O2 0.323339 0.750000 0.402443
O O3 0.000000 0.750000 0.352873
O O4 0.250000 0.750000 0.750000
O O5 0.273415 0.664130 0.657742
O O6 0.000000 0.750000 0.682116
O O7 0.500000 0.750000 0.560109
O O8 0.500000 0.667435 0.477529
O O9 0.324842 0.604814 0.563870
O O10 0.500000 0.068159 0.815029
O O11 0.750000 0.034895 0.750000
O O12 0.777497 0.000419 0.853789
O O13 0.000000 0.911856 0.611026
#
# Coordination Sequence:
#
# PCOD9535220 Si02
#       6
#     8   8   8  16   4  16
#     4  10  23  43  63  88 127 158 210 270 309 366
#     4  10  19  28  46  72 110 155 188 236 290 353
#     4  10  22  39  64  88 113 164 212 247 317 358
#     4  10  22  38  61  93 124 169 205 247 316 370
#     4  10  24  42  68  96 110 170 222 254 330 358
#     4  10  21  37  55  86 124 157 200 251 304 372
#
# _framework density 20.487755
#
# number of rings (size 3 to 8) (size 9 to 14) (size 15 to 20)
#    0.400    1.600    1.333    1.200    5.600    1.067 
#    0.000    2.667    0.000    4.800    0.000    0.000 
#    0.000    0.000    0.000    0.000    0.000    0.000 
#
# Total GULP energy -167379.088664 kJ/mol
# GULP energy per Si atom -5579.302955 kJ/mol
# Density = 2.044112 g / cm^3
# Si number density = 20.487755 Si / 1000 Ang^3
#
#
#
# Elastic Constant Matrix: (Units=GPa)
#
#
# Indices 1 2 3 4 5 6 
#
# 1 77.7893 8.6527 10.4537 0.0000 0.0000 0.0000
# 2 8.6527 74.6415 -10.8718 0.0000 0.0000 0.0000
# 3 10.4537 -10.8718 66.4070 0.0000 0.0000 0.0000
# 4 0.0000 0.0000 0.0000 30.9996 0.0000 0.0000
# 5 0.0000 0.0000 0.0000 0.0000 34.9148 0.0000
# 6 0.0000 0.0000 0.0000 0.0000 0.0000 5.0774
#
#
#
# Elastic Compliance Matrix: (Units=1/GPa)
#
#
# Indices 1 2 3 4 5 6 
#
# 1 0.013392 -0.001905 -0.002420 0.000000 0.000000 0.000000
# 2 -0.001905 0.013996 0.002591 0.000000 0.000000 0.000000
# 3 -0.002420 0.002591 0.015864 0.000000 0.000000 0.000000
# 4 0.000000 0.000000 0.000000 0.032258 0.000000 0.000000
# 5 0.000000 0.000000 0.000000 0.000000 0.028641 0.000000
# 6 0.000000 0.000000 0.000000 0.000000 0.000000 0.196950
#
#
# Mechanical properties :
#
#
# Convention : Reuss Voigt Hill
#
# Bulk Modulus (GPa) = 25.13572 26.14522 25.64047
# Shear Modulus (GPa) = 15.73167 28.23859 21.98513
#
# Velocity S-wave (km/s) = 2.77403 3.71659 3.27935
# Velocity P-wave (km/s) = 4.74927 5.58628 5.18470
#
# Compressibility (1/GPa) = 0.03978403
#
# Stress axis : x y z
#
# Youngs Moduli (GPa) = 74.66949 71.45092 63.03645
#
# Poissons Ratio (x) = 0.13611 0.15255
# Poissons Ratio (y) = 0.14224 -0.16334
# Poissons Ratio (z) = 0.18071 -0.18514
#
# Static dielectric constant tensor:
#      x y z
#    x 1.721200 0.000000 0.000000 
#    y 0.000000 1.764180 0.000000 
#    z 0.000000 0.000000 1.721140 
# 
# From -- ./inp_files/56355.got.cif
#   From: 2010.05.17/outbox.cif.g08.bks.cpg/sg74_29_cif.got.tgz:56355.got - 2010.06.03 17:57:02.
