data_PCOD9535398
_publ_section_title
;
Structure prediction by ZEFSAII (Michael W. Deem and Ramdas Pophale) SiO2 
 PCOD9535398
Probable space group: I M M A
;
_chemical_formula_sum "Si O2"
_cell_formula_units_Z 88
_cell_length_a 26.542199
_cell_length_b 37.865211
_cell_length_c 5.016140
_cell_angle_alpha 90.000000
_cell_angle_beta 90.000000
_cell_angle_gamma 90.000000
_cell_volume 5041.350947
_symmetry_space_group_name_H-M "I M M A"
_symmetry_group_IT_number 74
_symmetry_cell_setting 'orthorhombic'
loop_
_space_group_symop_operation_xyz
x,y,z
-x,1/2-y,z
x,-y,-z
-x,1/2+y,-z
-x,-y,-z
x,1/2+y,-z
-x,y,z
x,1/2-y,z
1/2+x,1/2+y,1/2+z
1/2-x,-y,1/2+z
1/2+x,1/2-y,1/2-z
1/2-x,y,1/2-z
1/2-x,1/2-y,1/2-z
1/2+x,y,1/2-z
1/2-x,1/2+y,1/2+z
1/2+x,-y,1/2+z
loop_
_atom_site_type_symbol
_atom_site_label
_atom_site_fract_x
_atom_site_fract_y
_atom_site_fract_z
Si Si1 0.558641 0.976074 0.762240
Si Si2 0.658776 0.820079 0.198382
Si Si3 0.212164 0.750000 0.493637
Si Si4 0.557909 0.143464 0.860211
Si Si5 0.593658 0.601083 0.626427
Si Si6 0.192980 0.361601 0.196183
O O1 0.500000 0.968019 0.826815
O O2 0.584615 0.938817 0.711545
O O3 0.559954 0.000000 0.500000
O O4 0.579798 0.000000 0.000000
O O5 0.677089 0.784121 0.059583
O O6 0.598611 0.826318 0.220655
O O7 0.686193 0.829788 0.478244
O O8 0.675083 0.849266 0.985494
O O9 0.250000 0.750000 0.250000
O O10 0.250000 0.750000 0.750000
O O11 0.500000 0.155012 0.850628
O O12 0.567130 0.111862 0.649124
O O13 0.570974 0.127517 0.149916
O O14 0.652946 0.609558 0.599529
O O15 0.250000 0.372422 0.250000
#
# Coordination Sequence:
#
# PCOD9535398 Si02
#       6
#    16  16   8  16  16  16
#     4  10  19  30  46  69  98 128 158 197 246 297
#     4  10  21  33  50  77 100 128 166 203 249 302
#     4  12  22  34  53  74 103 134 162 204 255 300
#     4  10  19  33  52  73 100 130 165 206 246 293
#     4  10  20  32  51  75  98 130 167 203 246 297
#     4  10  19  34  53  73  99 127 165 211 249 287
#
# _framework density 17.455639999999999
#
# number of rings (size 3 to 8) (size 9 to 14) (size 15 to 20)
#    0.000    1.818    0.000    6.000    0.000    1.455 
#    0.000    0.455    0.000    1.091    0.000    8.909 
#    0.000    0.000    0.000    0.000    0.000    0.000 
#
# Total GULP energy -245237.279332 kJ/mol
# GULP energy per Si atom -5573.574530 kJ/mol
# Density = 1.741591 g / cm^3
# Si number density = 17.455640 Si / 1000 Ang^3
#
#
#
# Elastic Constant Matrix: (Units=GPa)
#
#
# Indices 1 2 3 4 5 6 
#
# 1 130.2265 45.2395 14.7725 0.0000 0.0000 0.0000
# 2 45.2395 78.0610 -5.0438 0.0000 0.0000 0.0000
# 3 14.7725 -5.0438 83.6724 0.0000 0.0000 0.0000
# 4 0.0000 0.0000 0.0000 22.6260 0.0000 0.0000
# 5 0.0000 0.0000 0.0000 0.0000 12.5077 0.0000
# 6 0.0000 0.0000 0.0000 0.0000 0.0000 43.6223
#
#
#
# Elastic Compliance Matrix: (Units=1/GPa)
#
#
# Indices 1 2 3 4 5 6 
#
# 1 0.009975 -0.005918 -0.002118 0.000000 0.000000 0.000000
# 2 -0.005918 0.016371 0.002032 0.000000 0.000000 0.000000
# 3 -0.002118 0.002032 0.012448 0.000000 0.000000 0.000000
# 4 0.000000 0.000000 0.000000 0.044197 0.000000 0.000000
# 5 0.000000 0.000000 0.000000 0.000000 0.079951 0.000000
# 6 0.000000 0.000000 0.000000 0.000000 0.000000 0.022924
#
#
# Mechanical properties :
#
#
# Convention : Reuss Voigt Hill
#
# Bulk Modulus (GPa) = 37.33259 44.65515 40.99387
# Shear Modulus (GPa) = 24.17767 31.55065 27.86416
#
# Velocity S-wave (km/s) = 3.72572 4.25605 3.99969
# Velocity P-wave (km/s) = 6.31993 7.05618 6.69818
#
# Compressibility (1/GPa) = 0.02678625
#
# Stress axis : x y z
#
# Youngs Moduli (GPa) = 100.25136 61.08245 80.33583
#
# Poissons Ratio (x) = 0.36147 0.17014
# Poissons Ratio (y) = 0.59326 -0.16321
# Poissons Ratio (z) = 0.21231 -0.12410
#
# Static dielectric constant tensor:
#      x y z
#    x 1.729970 0.000000 0.000000 
#    y 0.000000 1.694470 0.000000 
#    z 0.000000 0.000000 1.620720 
# 
# From -- ./inp_files/4610.got.cif
#   From: 2010.05.17/outbox.cif.g08.bks.cpg/sg74_3_cif.got.tgz:4610.got - 2010.06.03 17:57:02.
