data_PCOD9535940
_publ_section_title
;
Structure prediction by ZEFSAII (Michael W. Deem and Ramdas Pophale) SiO2 
 PCOD9535940
Probable space group: I M M A
;
_chemical_formula_sum "Si O2"
_cell_formula_units_Z 64
_cell_length_a 21.455045
_cell_length_b 9.055465
_cell_length_c 18.792300
_cell_angle_alpha 90.000000
_cell_angle_beta 90.000000
_cell_angle_gamma 90.000000
_cell_volume 3651.069693
_symmetry_space_group_name_H-M "I M M A"
_symmetry_group_IT_number 74
_symmetry_cell_setting 'orthorhombic'
loop_
_space_group_symop_operation_xyz
x,y,z
-x,1/2-y,z
x,-y,-z
-x,1/2+y,-z
-x,-y,-z
x,1/2+y,-z
-x,y,z
x,1/2-y,z
1/2+x,1/2+y,1/2+z
1/2-x,-y,1/2+z
1/2+x,1/2-y,1/2-z
1/2-x,y,1/2-z
1/2-x,1/2-y,1/2-z
1/2+x,y,1/2-z
1/2-x,1/2+y,1/2+z
1/2+x,-y,1/2+z
loop_
_atom_site_type_symbol
_atom_site_label
_atom_site_fract_x
_atom_site_fract_y
_atom_site_fract_z
Si Si1 0.000000 0.572239 0.577134
Si Si2 0.500000 0.927501 0.423234
Si Si3 0.618841 0.073449 0.172539
Si Si4 0.254923 0.079967 0.836435
Si Si5 0.881877 0.428600 0.827564
O O1 0.000000 0.500000 0.500000
O O2 0.061636 0.530611 0.621770
O O3 0.000000 0.750000 0.570138
O O4 0.500000 0.750000 0.430243
O O5 0.438651 0.969017 0.378475
O O6 0.500000 0.000000 0.500000
O O7 0.619860 0.250000 0.179479
O O8 0.685511 0.016559 0.143911
O O9 0.610063 0.001674 0.250371
O O10 0.265155 0.250000 0.857972
O O11 0.250000 0.077914 0.750000
O O12 0.185967 0.029773 0.859202
O O13 0.880848 0.250000 0.818331
#
# Coordination Sequence:
#
# PCOD9535940 Si02
#       5
#     8   8  16  16  16
#     4  10  23  38  50  70 100 132 167 206 246 292
#     4  10  21  36  52  72 100 134 171 206 242 288
#     4  10  19  32  52  78 102 124 160 208 250 289
#     4   8  15  29  49  74 102 129 159 197 242 293
#     4   9  18  33  53  76 101 131 166 200 240 296
#
# _framework density 17.529108999999998
#
# number of rings (size 3 to 8) (size 9 to 14) (size 15 to 20)
#    0.000    2.750    0.000    3.000    0.000    7.500 
#    0.000    1.250    0.000    6.000    0.000    0.000 
#    0.000    0.000    0.000    0.000    0.000    0.000 
#
# Total GULP energy -178391.399285 kJ/mol
# GULP energy per Si atom -5574.731228 kJ/mol
# Density = 1.748921 g / cm^3
# Si number density = 17.529109 Si / 1000 Ang^3
#
#
#
# Elastic Constant Matrix: (Units=GPa)
#
#
# Indices 1 2 3 4 5 6 
#
# 1 211.5224 56.6630 88.7415 0.0000 0.0000 0.0000
# 2 56.6630 34.0238 37.5444 0.0000 0.0000 0.0000
# 3 88.7415 37.5444 84.9069 0.0000 0.0000 0.0000
# 4 0.0000 0.0000 0.0000 27.0694 0.0000 0.0000
# 5 0.0000 0.0000 0.0000 0.0000 -3.5452 0.0000
# 6 0.0000 0.0000 0.0000 0.0000 0.0000 29.1035
#
#
#
# Elastic Compliance Matrix: (Units=1/GPa)
#
#
# Indices 1 2 3 4 5 6 
#
# 1 0.009867 -0.009867 -0.005949 0.000000 0.000000 0.000000
# 2 -0.009867 0.067265 -0.019431 0.000000 0.000000 0.000000
# 3 -0.005949 -0.019431 0.026588 0.000000 0.000000 0.000000
# 4 0.000000 0.000000 0.000000 0.036942 0.000000 0.000000
# 5 0.000000 0.000000 0.000000 0.000000 -0.282068 0.000000
# 6 0.000000 0.000000 0.000000 0.000000 0.000000 0.034360
#
#
# Mechanical properties :
#
#
# Convention : Reuss Voigt Hill
#
# Bulk Modulus (GPa) = 30.09769 77.37233 53.73501
# Shear Modulus (GPa) = -196.26107 20.35915 -87.95096
#
# Velocity S-wave (km/s) = -10.59273 3.41170 -7.09106
# Velocity P-wave (km/s) = 11.50655 7.73012 6.02685
#
# Compressibility (1/GPa) = 0.03322514
#
# Stress axis : x y z
#
# Youngs Moduli (GPa) = 101.34956 14.86647 37.61152
#
# Poissons Ratio (x) = 0.14669 0.22376
# Poissons Ratio (y) = 1.00004 0.73082
# Poissons Ratio (z) = 0.60296 0.28887
#
# Static dielectric constant tensor:
#      x y z
#    x 1.635220 0.000000 0.000000 
#    y 0.000000 1.588400 0.000000 
#    z 0.000000 0.000000 1.551640 
# 
# From -- ./inp_files/45767.got.cif
#   From: 2010.05.17/outbox.cif.g08.bks.cpg/sg74_23_cif.got.tgz:45767.got - 2010.06.03 17:57:02.
