data_PCOD9535078
_publ_section_title
;
Structure prediction by ZEFSAII (Michael W. Deem and Ramdas Pophale) SiO2 
 PCOD9535078
Probable space group: I M M A
;
_chemical_formula_sum "Si O2"
_cell_formula_units_Z 96
_cell_length_a 15.599023
_cell_length_b 22.136176
_cell_length_c 14.581586
_cell_angle_alpha 90.000000
_cell_angle_beta 90.000000
_cell_angle_gamma 90.000000
_cell_volume 5035.061287
_symmetry_space_group_name_H-M "I M M A"
_symmetry_group_IT_number 74
_symmetry_cell_setting 'orthorhombic'
loop_
_space_group_symop_operation_xyz
x,y,z
-x,1/2-y,z
x,-y,-z
-x,1/2+y,-z
-x,-y,-z
x,1/2+y,-z
-x,y,z
x,1/2-y,z
1/2+x,1/2+y,1/2+z
1/2-x,-y,1/2+z
1/2+x,1/2-y,1/2-z
1/2-x,y,1/2-z
1/2-x,1/2-y,1/2-z
1/2+x,y,1/2-z
1/2-x,1/2+y,1/2+z
1/2+x,-y,1/2+z
loop_
_atom_site_type_symbol
_atom_site_label
_atom_site_fract_x
_atom_site_fract_y
_atom_site_fract_z
Si Si1 0.396214 0.182596 0.881520
Si Si2 0.900885 0.152195 0.820768
Si Si3 0.285063 0.101514 0.347683
Si Si4 0.812941 0.966617 0.164272
Si Si5 0.901298 0.320061 0.021511
Si Si6 0.674320 0.934250 0.012361
O O1 0.500000 0.182016 0.880054
O O2 0.369602 0.250000 0.914877
O O3 0.364788 0.174999 0.775946
O O4 0.368515 0.123162 0.937950
O O5 0.889810 0.079974 0.824270
O O6 0.000000 0.171045 0.821379
O O7 0.864172 0.174198 0.917878
O O8 0.250000 0.123023 0.250000
O O9 0.345222 0.145432 0.404626
O O10 0.204361 0.086478 0.412466
O O11 0.333315 0.037268 0.335325
O O12 0.750000 0.956362 0.250000
O O13 0.758417 0.950210 0.073714
O O14 0.903514 0.250000 0.044582
O O15 0.000000 0.343046 0.019806
O O16 0.628595 0.000000 0.000000
#
# Coordination Sequence:
#
# PCOD9535078 Si02
#       6
#    16  16  16  16  16  16
#     4  10  21  37  57  85 119 149 180 224 279 339
#     4  10  19  33  56  86 117 146 173 214 280 347
#     4  10  22  37  56  78 107 145 188 239 277 314
#     4  10  18  34  55  83 113 139 178 226 279 338
#     4  10  21  37  56  80 111 145 183 228 280 337
#     4  10  20  36  57  81 111 148 189 231 277 328
#
# _framework density 19.066303000000001
#
# number of rings (size 3 to 8) (size 9 to 14) (size 15 to 20)
#    0.000    2.000    3.333    0.500    0.000    4.000 
#    0.000    3.333    0.000    2.000    0.000    0.000 
#    0.000    0.000    0.000    0.000    0.000    0.000 
#
# Total GULP energy -267485.131940 kJ/mol
# GULP energy per Si atom -5572.606915 kJ/mol
# Density = 1.902291 g / cm^3
# Si number density = 19.066303 Si / 1000 Ang^3
#
#
#
# Elastic Constant Matrix: (Units=GPa)
#
#
# Indices 1 2 3 4 5 6 
#
# 1 18.2823 33.6740 22.6640 0.0000 0.0000 0.0000
# 2 33.6740 130.5594 48.2468 0.0001 0.0000 0.0000
# 3 22.6640 48.2468 137.6919 0.0001 0.0000 0.0000
# 4 0.0000 0.0001 0.0001 23.0393 0.0000 0.0000
# 5 0.0000 0.0000 0.0000 0.0000 22.0396 0.0000
# 6 0.0000 0.0000 0.0000 0.0000 0.0000 28.1184
#
#
#
# Elastic Compliance Matrix: (Units=1/GPa)
#
#
# Indices 1 2 3 4 5 6 
#
# 1 0.114604 -0.025948 -0.009772 0.000000 0.000000 0.000000
# 2 -0.025948 0.014674 -0.000871 0.000000 0.000000 0.000000
# 3 -0.009772 -0.000871 0.009176 0.000000 0.000000 0.000000
# 4 0.000000 0.000000 0.000000 0.043404 0.000000 0.000000
# 5 0.000000 0.000000 0.000000 0.000000 0.045373 0.000000
# 6 0.000000 0.000000 0.000000 0.000000 0.000000 0.035564
#
#
# Mechanical properties :
#
#
# Convention : Reuss Voigt Hill
#
# Bulk Modulus (GPa) = 15.32013 55.07813 35.19913
# Shear Modulus (GPa) = 13.97691 26.76937 20.37314
#
# Velocity S-wave (km/s) = 2.71046 3.75108 3.27240
# Velocity P-wave (km/s) = 4.22470 6.90733 5.72535
#
# Compressibility (1/GPa) = 0.06527360
#
# Stress axis : x y z
#
# Youngs Moduli (GPa) = 8.72568 68.14998 108.97904
#
# Poissons Ratio (x) = 1.76834 1.06492
# Poissons Ratio (y) = 0.22641 0.09487
# Poissons Ratio (z) = 0.08527 0.05933
#
# Static dielectric constant tensor:
#      x y z
#    x 1.678370 0.000000 0.000000 
#    y 0.000000 1.703070 0.000000 
#    z 0.000000 0.000000 1.680230 
# 
# From -- ./inp_files/32361.got.cif
#   From: 2010.05.17/outbox.cif.g08.bks.cpg/sg74_17_cif.got.tgz:32361.got - 2010.06.03 17:57:02.
