data_PCOD9535245
_publ_section_title
;
Structure prediction by ZEFSAII (Michael W. Deem and Ramdas Pophale) SiO2 
 PCOD9535245
Probable space group: I M M A
;
_chemical_formula_sum "Si O2"
_cell_formula_units_Z 80
_cell_length_a 28.017974
_cell_length_b 8.940877
_cell_length_c 19.898140
_cell_angle_alpha 90.000000
_cell_angle_beta 90.000000
_cell_angle_gamma 90.000000
_cell_volume 4984.588721
_symmetry_space_group_name_H-M "I M M A"
_symmetry_group_IT_number 74
_symmetry_cell_setting 'orthorhombic'
loop_
_space_group_symop_operation_xyz
x,y,z
-x,1/2-y,z
x,-y,-z
-x,1/2+y,-z
-x,-y,-z
x,1/2+y,-z
-x,y,z
x,1/2-y,z
1/2+x,1/2+y,1/2+z
1/2-x,-y,1/2+z
1/2+x,1/2-y,1/2-z
1/2-x,y,1/2-z
1/2-x,1/2-y,1/2-z
1/2+x,y,1/2-z
1/2-x,1/2+y,1/2+z
1/2+x,-y,1/2+z
loop_
_atom_site_type_symbol
_atom_site_label
_atom_site_fract_x
_atom_site_fract_y
_atom_site_fract_z
Si Si1 0.808031 0.418748 0.934679
Si Si2 0.305444 0.081295 0.932479
Si Si3 0.055316 0.071061 0.926472
Si Si4 0.866707 0.073357 0.169815
Si Si5 0.299934 0.569606 0.787448
O O1 0.826759 0.250000 0.925183
O O2 0.751656 0.406553 0.942372
O O3 0.821093 0.528568 0.874996
O O4 0.828112 0.500000 0.000000
O O5 0.324700 0.250000 0.927181
O O6 0.308275 0.995692 0.861631
O O7 0.324105 0.000000 0.000000
O O8 0.059734 0.250000 0.931508
O O9 0.000000 0.034906 0.910525
O O10 0.090106 0.009338 0.868238
O O11 0.065171 0.000000 0.000000
O O12 0.875623 0.250000 0.168257
O O13 0.846834 0.030318 0.243037
O O14 0.296880 0.750000 0.791073
O O15 0.250000 0.519397 0.750000
#
# Coordination Sequence:
#
# PCOD9535245 Si02
#       5
#    16  16  16  16  16
#     4  10  19  29  42  62  89 122 162 203 240 284
#     4  10  20  32  48  66  90 126 166 205 243 287
#     4  10  21  37  55  74  99 131 168 212 257 302
#     4  11  21  32  49  70  95 128 163 205 251 296
#     4  10  20  34  49  68  98 131 165 206 250 295
#
# _framework density 16.049468999999998
#
# number of rings (size 3 to 8) (size 9 to 14) (size 15 to 20)
#    0.000    1.800    2.000    3.000    0.000    4.800 
#    0.000    0.000    0.000    0.000    0.000    0.000 
#    0.000    0.800    0.000    2.600    0.000    3.800 
#
# Total GULP energy -222742.676836 kJ/mol
# GULP energy per Si atom -5568.566921 kJ/mol
# Density = 1.601294 g / cm^3
# Si number density = 16.049469 Si / 1000 Ang^3
#
#
#
# Elastic Constant Matrix: (Units=GPa)
#
#
# Indices 1 2 3 4 5 6 
#
# 1 59.4481 34.8254 35.9791 0.0000 0.0000 0.0000
# 2 34.8254 44.3372 50.1807 0.0000 0.0000 0.0000
# 3 35.9791 50.1807 139.2104 0.0000 0.0000 0.0000
# 4 0.0000 0.0000 0.0000 22.6311 0.0000 0.0000
# 5 0.0000 0.0000 0.0000 0.0000 31.6979 0.0000
# 6 0.0000 0.0000 0.0000 0.0000 0.0000 26.9483
#
#
#
# Elastic Compliance Matrix: (Units=1/GPa)
#
#
# Indices 1 2 3 4 5 6 
#
# 1 0.031298 -0.026061 0.001305 0.000000 0.000000 0.000000
# 2 -0.026061 0.059796 -0.014819 0.000000 0.000000 0.000000
# 3 0.001305 -0.014819 0.012188 0.000000 0.000000 0.000000
# 4 0.000000 0.000000 0.000000 0.044187 0.000000 0.000000
# 5 0.000000 0.000000 0.000000 0.000000 0.031548 0.000000
# 6 0.000000 0.000000 0.000000 0.000000 0.000000 0.037108
#
#
# Mechanical properties :
#
#
# Convention : Reuss Voigt Hill
#
# Bulk Modulus (GPa) = 41.43734 53.88511 47.66122
# Shear Modulus (GPa) = 16.48428 24.38950 20.43689
#
# Velocity S-wave (km/s) = 3.20830 3.90249 3.57230
# Velocity P-wave (km/s) = 6.29276 7.34528 6.83930
#
# Compressibility (1/GPa) = 0.02413282
#
# Stress axis : x y z
#
# Youngs Moduli (GPa) = 31.95076 16.72342 82.04819
#
# Poissons Ratio (x) = 0.43582 -0.10706
# Poissons Ratio (y) = 0.83265 1.21589
# Poissons Ratio (z) = -0.04169 0.24783
#
# Static dielectric constant tensor:
#      x y z
#    x 1.553890 0.000000 0.000000 
#    y 0.000000 1.564560 0.000000 
#    z 0.000000 0.000000 1.522160 
# 
# From -- ./inp_files/39713.got.cif
#   From: 2010.05.17/outbox.cif.g08.bks.cpg/sg74_20_cif.got.tgz:39713.got - 2010.06.03 17:57:02.
