data_PCOD9535163
_publ_section_title
;
Structure prediction by ZEFSAII (Michael W. Deem and Ramdas Pophale) SiO2 
 PCOD9535163
Probable space group: I M M A
;
_chemical_formula_sum "Si O2"
_cell_formula_units_Z 88
_cell_length_a 9.994266
_cell_length_b 21.768336
_cell_length_c 22.881006
_cell_angle_alpha 90.000000
_cell_angle_beta 90.000000
_cell_angle_gamma 90.000000
_cell_volume 4977.958267
_symmetry_space_group_name_H-M "I M M A"
_symmetry_group_IT_number 74
_symmetry_cell_setting 'orthorhombic'
loop_
_space_group_symop_operation_xyz
x,y,z
-x,1/2-y,z
x,-y,-z
-x,1/2+y,-z
-x,-y,-z
x,1/2+y,-z
-x,y,z
x,1/2-y,z
1/2+x,1/2+y,1/2+z
1/2-x,-y,1/2+z
1/2+x,1/2-y,1/2-z
1/2-x,y,1/2-z
1/2-x,1/2-y,1/2-z
1/2+x,y,1/2-z
1/2-x,1/2+y,1/2+z
1/2+x,-y,1/2+z
loop_
_atom_site_type_symbol
_atom_site_label
_atom_site_fract_x
_atom_site_fract_y
_atom_site_fract_z
Si Si1 0.161166 0.500083 0.194199
Si Si2 0.839088 0.376671 0.871137
Si Si3 0.764660 0.385762 0.120584
Si Si4 0.000000 0.675186 0.670663
Si Si5 0.500000 0.177194 0.308050
Si Si6 0.336287 0.750000 0.309345
Si Si7 0.162578 0.927804 0.004077
O O1 0.250000 0.483671 0.250000
O O2 0.191800 0.569433 0.174702
O O3 0.208667 0.454898 0.143064
O O4 0.000000 0.493435 0.202707
O O5 0.799888 0.310650 0.846471
O O6 0.000000 0.375436 0.875895
O O7 0.790828 0.397621 0.935063
O O8 0.626790 0.355700 0.140028
O O9 0.874233 0.347507 0.156446
O O10 0.785763 0.389646 0.051394
O O11 0.000000 0.658464 0.739878
O O12 0.000000 0.750000 0.666116
O O13 0.500000 0.250000 0.308196
O O14 0.500000 0.750000 0.299170
O O15 0.250000 0.750000 0.250000
O O16 0.000000 0.926547 0.001969
O O17 0.200978 0.000000 0.000000
#
# Coordination Sequence:
#
# PCOD9535163 Si02
#       7
#    16  16  16   8   8   8  16
#     4  11  21  34  57  89 119 148 196 252 303 356
#     4   9  19  35  58  89 118 158 199 244 301 348
#     4  12  22  38  61  88 113 158 202 237 303 358
#     4  11  26  44  59  80 128 163 186 245 311 353
#     4  11  22  40  61  90 114 149 206 249 287 361
#     4  10  20  38  62  88 122 160 201 245 298 358
#     4  10  18  36  61  87 120 151 194 250 296 346
#
# _framework density 17.677931000000001
#
# number of rings (size 3 to 8) (size 9 to 14) (size 15 to 20)
#    0.000    1.455    3.636    2.727    1.273    1.455 
#    3.273    0.455    4.000    0.000    0.000    0.000 
#    0.000    0.000    0.000    0.000    0.000    0.000 
#
# Total GULP energy -245477.834873 kJ/mol
# GULP energy per Si atom -5579.041702 kJ/mol
# Density = 1.763769 g / cm^3
# Si number density = 17.677931 Si / 1000 Ang^3
#
#
#
# Elastic Constant Matrix: (Units=GPa)
#
#
# Indices 1 2 3 4 5 6 
#
# 1 86.4358 24.0759 27.0483 0.0000 0.0000 0.0000
# 2 24.0759 99.2213 27.4805 0.0000 0.0000 0.0000
# 3 27.0483 27.4805 112.3708 0.0000 0.0000 0.0000
# 4 0.0000 0.0000 0.0000 26.0871 0.0000 0.0000
# 5 0.0000 0.0000 0.0000 0.0000 17.1716 0.0000
# 6 0.0000 0.0000 0.0000 0.0000 0.0000 13.2805
#
#
#
# Elastic Compliance Matrix: (Units=1/GPa)
#
#
# Indices 1 2 3 4 5 6 
#
# 1 0.013050 -0.002463 -0.002539 0.000000 0.000000 0.000000
# 2 -0.002463 0.011276 -0.002165 0.000000 0.000000 0.000000
# 3 -0.002539 -0.002165 0.010040 0.000000 0.000000 0.000000
# 4 0.000000 0.000000 0.000000 0.038333 0.000000 0.000000
# 5 0.000000 0.000000 0.000000 0.000000 0.058236 0.000000
# 6 0.000000 0.000000 0.000000 0.000000 0.000000 0.075298
#
#
# Mechanical properties :
#
#
# Convention : Reuss Voigt Hill
#
# Bulk Modulus (GPa) = 49.92074 50.58193 50.25134
# Shear Modulus (GPa) = 22.00291 25.93606 23.96949
#
# Velocity S-wave (km/s) = 3.53179 3.83449 3.68625
# Velocity P-wave (km/s) = 6.70311 6.94835 6.82683
#
# Compressibility (1/GPa) = 0.02003175
#
# Stress axis : x y z
#
# Youngs Moduli (GPa) = 76.62896 88.68616 99.60607
#
# Poissons Ratio (x) = 0.21847 0.25288
# Poissons Ratio (y) = 0.18877 0.21560
# Poissons Ratio (z) = 0.19454 0.19197
#
# Static dielectric constant tensor:
#      x y z
#    x 1.518080 0.000000 0.000000 
#    y 0.000000 1.639310 0.000000 
#    z 0.000000 0.000000 1.600650 
# 
# From -- ./inp_files/48831.got.cif
#   From: 2010.05.17/outbox.cif.g08.bks.cpg/sg74_25_cif.got.tgz:48831.got - 2010.06.03 17:57:02.
