data_PCOD9535173
_publ_section_title
;
Structure prediction by ZEFSAII (Michael W. Deem and Ramdas Pophale) SiO2 
 PCOD9535173
Probable space group: I M M A
;
_chemical_formula_sum "Si O2"
_cell_formula_units_Z 84
_cell_length_a 22.239507
_cell_length_b 21.337027
_cell_length_c 8.177846
_cell_angle_alpha 90.000000
_cell_angle_beta 90.000000
_cell_angle_gamma 90.000000
_cell_volume 3880.592057
_symmetry_space_group_name_H-M "I M M A"
_symmetry_group_IT_number 74
_symmetry_cell_setting 'orthorhombic'
loop_
_space_group_symop_operation_xyz
x,y,z
-x,1/2-y,z
x,-y,-z
-x,1/2+y,-z
-x,-y,-z
x,1/2+y,-z
-x,y,z
x,1/2-y,z
1/2+x,1/2+y,1/2+z
1/2-x,-y,1/2+z
1/2+x,1/2-y,1/2-z
1/2-x,y,1/2-z
1/2-x,1/2-y,1/2-z
1/2+x,y,1/2-z
1/2-x,1/2+y,1/2+z
1/2+x,-y,1/2+z
loop_
_atom_site_type_symbol
_atom_site_label
_atom_site_fract_x
_atom_site_fract_y
_atom_site_fract_z
Si Si1 0.000000 0.994663 0.800548
Si Si2 0.368695 0.990432 0.698481
Si Si3 0.685006 0.750000 0.166959
Si Si4 0.634724 0.370854 0.665511
Si Si5 0.875264 0.250000 0.341738
Si Si6 0.185515 0.363501 0.185739
Si Si7 0.500000 0.635093 0.292347
Si Si8 0.000000 0.750000 0.460750
O O1 0.935787 0.967129 0.756919
O O2 0.000000 0.935638 0.275297
O O3 0.000000 0.000000 0.000000
O O4 0.325895 0.934303 0.748814
O O5 0.367036 0.000000 0.500000
O O6 0.358256 0.061799 0.754777
O O7 0.750000 0.750000 0.250000
O O8 0.650843 0.687704 0.224020
O O9 0.678725 0.750000 0.974093
O O10 0.678235 0.367970 0.509597
O O11 0.564194 0.363355 0.614665
O O12 0.864072 0.186968 0.240026
O O13 0.939544 0.250000 0.430958
O O14 0.250000 0.343104 0.250000
O O15 0.500000 0.689148 0.157391
#
# Coordination Sequence:
#
# PCOD9535173 Si02
#       8
#     8  16   8  16   8  16   8   4
#     4   8  14  29  59  93 114 144 200 272 306 356
#     4   8  17  33  60  90 118 153 205 261 313 359
#     4  12  23  38  60  85 120 173 217 250 304 388
#     4  10  20  39  67  91 117 168 226 260 309 379
#     4  12  26  41  59  89 131 165 197 267 340 374
#     4  11  23  41  62  92 131 166 209 266 317 376
#     4  10  18  37  67  90 122 157 222 270 306 372
#     4  12  24  42  62  92 140 164 202 276 336 392
#
# _framework density 21.646182
#
# number of rings (size 3 to 8) (size 9 to 14) (size 15 to 20)
#    0.000    1.905    1.905    3.143    0.000    2.286 
#    0.000    2.857    0.000    2.286    0.000    0.000 
#    0.000    0.000    0.000    0.000    0.000    0.000 
#
# Total GULP energy -234216.254680 kJ/mol
# GULP energy per Si atom -5576.577492 kJ/mol
# Density = 2.159691 g / cm^3
# Si number density = 21.646182 Si / 1000 Ang^3
#
#
#
# Elastic Constant Matrix: (Units=GPa)
#
#
# Indices 1 2 3 4 5 6 
#
# 1 93.0600 21.3635 7.4773 0.0000 0.0000 0.0000
# 2 21.3635 153.0875 22.4513 0.0000 0.0000 0.0000
# 3 7.4773 22.4513 21.0493 0.0000 0.0000 0.0000
# 4 0.0000 0.0000 0.0000 -8.2003 0.0000 0.0000
# 5 0.0000 0.0000 0.0000 0.0000 21.8562 0.0000
# 6 0.0000 0.0000 0.0000 0.0000 0.0000 30.2340
#
#
#
# Elastic Compliance Matrix: (Units=1/GPa)
#
#
# Indices 1 2 3 4 5 6 
#
# 1 0.011234 -0.001165 -0.002748 0.000000 0.000000 0.000000
# 2 -0.001165 0.007864 -0.007974 0.000000 0.000000 0.000000
# 3 -0.002748 -0.007974 0.056989 0.000000 0.000000 0.000000
# 4 0.000000 0.000000 0.000000 -0.121947 0.000000 0.000000
# 5 0.000000 0.000000 0.000000 0.000000 0.045754 0.000000
# 6 0.000000 0.000000 0.000000 0.000000 0.000000 0.033075
#
#
# Mechanical properties :
#
#
# Convention : Reuss Voigt Hill
#
# Bulk Modulus (GPa) = 19.11577 41.08676 30.10127
# Shear Modulus (GPa) = 67.40224 23.17163 45.28694
#
# Velocity S-wave (km/s) = 5.58621 3.27536 4.57896
# Velocity P-wave (km/s) = 7.10337 5.77289 6.47241
#
# Compressibility (1/GPa) = 0.05231282
#
# Stress axis : x y z
#
# Youngs Moduli (GPa) = 89.01591 127.15815 17.54715
#
# Poissons Ratio (x) = 0.14809 0.04823
# Poissons Ratio (y) = 0.10367 0.13993
# Poissons Ratio (z) = 0.24465 1.01400
#
# Static dielectric constant tensor:
#      x y z
#    x 1.819320 0.000000 0.000000 
#    y 0.000000 1.813780 0.000000 
#    z 0.000000 0.000000 1.787750 
# 
# From -- ./inp_files/12414.got.cif
#   From: 2010.05.17/outbox.cif.g08.bks.cpg/sg74_7_cif.got.tgz:12414.got - 2010.06.03 17:57:02.
