data_PCOD9535072
_publ_section_title
;
Structure prediction by ZEFSAII (Michael W. Deem and Ramdas Pophale) SiO2 
 PCOD9535072
Probable space group: I M M A
;
_chemical_formula_sum "Si O2"
_cell_formula_units_Z 116
_cell_length_a 17.626056
_cell_length_b 30.067276
_cell_length_c 12.848447
_cell_angle_alpha 90.000000
_cell_angle_beta 90.000000
_cell_angle_gamma 90.000000
_cell_volume 6809.259214
_symmetry_space_group_name_H-M "I M M A"
_symmetry_group_IT_number 74
_symmetry_cell_setting 'orthorhombic'
loop_
_space_group_symop_operation_xyz
x,y,z
-x,1/2-y,z
x,-y,-z
-x,1/2+y,-z
-x,-y,-z
x,1/2+y,-z
-x,y,z
x,1/2-y,z
1/2+x,1/2+y,1/2+z
1/2-x,-y,1/2+z
1/2+x,1/2-y,1/2-z
1/2-x,y,1/2-z
1/2-x,1/2-y,1/2-z
1/2+x,y,1/2-z
1/2-x,1/2+y,1/2+z
1/2+x,-y,1/2+z
loop_
_atom_site_type_symbol
_atom_site_label
_atom_site_fract_x
_atom_site_fract_y
_atom_site_fract_z
Si Si1 0.341279 0.045286 0.254742
Si Si2 0.084219 0.329985 0.944364
Si Si3 0.836896 0.946906 0.522442
Si Si4 0.409861 0.386624 0.847036
Si Si5 0.160369 0.800910 0.271011
Si Si6 0.410128 0.546052 0.332951
Si Si7 0.500000 0.750000 0.533730
Si Si8 0.663235 0.585286 0.529276
O O1 0.250000 0.042597 0.250000
O O2 0.367145 0.059301 0.139999
O O3 0.360893 0.076708 0.351838
O O4 0.372167 0.996864 0.282465
O O5 0.115339 0.310137 0.836560
O O6 0.000000 0.351264 0.924122
O O7 0.141019 0.365543 0.992486
O O8 0.064897 0.289298 0.020437
O O9 0.884991 0.920054 0.438013
O O10 0.751511 0.927392 0.518416
O O11 0.834989 0.000000 0.500000
O O12 0.500000 0.379817 0.849498
O O13 0.367610 0.339396 0.848468
O O14 0.389487 0.411440 0.738538
O O15 0.145435 0.750000 0.304398
O O16 0.250000 0.805441 0.250000
O O17 0.500000 0.540648 0.330474
O O18 0.380903 0.553531 0.449096
#
# Coordination Sequence:
#
# PCOD9535072 Si02
#       8
#    16  16  16  16  16  16   4  16
#     4  10  22  38  54  78 110 154 194 237 286 331
#     4  10  18  34  54  81 118 147 181 223 291 355
#     4  11  22  40  59  76 113 163 204 233 274 342
#     4  11  24  36  55  84 111 156 196 234 278 336
#     4  11  21  35  57  88 118 149 189 236 292 351
#     4  11  22  34  53  82 117 145 188 232 285 336
#     4   8  20  32  58  80 112 162 174 224 298 370
#     4  11  21  33  57  86 112 146 185 245 291 336
#
# _framework density 17.035627000000002
#
# number of rings (size 3 to 8) (size 9 to 14) (size 15 to 20)
#    0.414    0.966    3.448    3.724    0.000    3.310 
#    0.000    0.000    0.000    0.000    1.793    1.448 
#    0.000    0.000    0.000    0.000    0.000    0.000 
#
# Total GULP energy -323069.529479 kJ/mol
# GULP energy per Si atom -5570.164301 kJ/mol
# Density = 1.699685 g / cm^3
# Si number density = 17.035627 Si / 1000 Ang^3
#
#
#
# Elastic Constant Matrix: (Units=GPa)
#
#
# Indices 1 2 3 4 5 6 
#
# 1 33.6936 34.2347 25.2166 0.0000 -0.0001 0.0004
# 2 34.2347 119.4238 28.9532 0.0001 -0.0001 0.0007
# 3 25.2166 28.9532 94.5041 0.0007 -0.0003 0.0024
# 4 0.0000 0.0001 0.0007 17.7908 0.0000 -0.0001
# 5 -0.0001 -0.0001 -0.0003 0.0000 6.0005 -0.0004
# 6 0.0004 0.0007 0.0024 -0.0001 -0.0004 87.1194
#
#
#
# Elastic Compliance Matrix: (Units=1/GPa)
#
#
# Indices 1 2 3 4 5 6 
#
# 1 0.048524 -0.011635 -0.009383 0.000000 0.000000 0.000000
# 2 -0.011635 0.011835 -0.000521 0.000000 0.000000 0.000000
# 3 -0.009383 -0.000521 0.013245 -0.000001 0.000001 0.000000
# 4 0.000000 0.000000 -0.000001 0.056209 0.000000 0.000000
# 5 0.000000 0.000000 0.000001 0.000000 0.166654 0.000001
# 6 0.000000 0.000000 0.000000 0.000000 0.000001 0.011478
#
#
# Mechanical properties :
#
#
# Convention : Reuss Voigt Hill
#
# Bulk Modulus (GPa) = 32.76015 47.15895 39.95955
# Shear Modulus (GPa) = 13.84278 32.79661 23.31969
#
# Velocity S-wave (km/s) = 2.85367 4.39244 3.70385
# Velocity P-wave (km/s) = 5.48908 7.31214 6.46519
#
# Compressibility (1/GPa) = 0.03052490
#
# Stress axis : x y z
#
# Youngs Moduli (GPa) = 20.60849 84.49245 75.50057
#
# Poissons Ratio (x) = 0.98309 0.70842
# Poissons Ratio (y) = 0.23979 0.03936
# Poissons Ratio (z) = 0.19337 0.04405
#
# Static dielectric constant tensor:
#      x y z
#    x 1.576710 0.000000 0.000000 
#    y 0.000000 1.582410 0.000000 
#    z 0.000000 0.000000 1.586240 
# 
# From -- ./inp_files/22944.got.cif
#   From: 2010.05.17/outbox.cif.g08.bks.cpg/sg74_12_cif.got.tgz:22944.got - 2010.06.03 17:57:02.
