data_PCOD9535867
_publ_section_title
;
Structure prediction by ZEFSAII (Michael W. Deem and Ramdas Pophale) SiO2 
 PCOD9535867
Probable space group: I M M A
;
_chemical_formula_sum "Si O2"
_cell_formula_units_Z 88
_cell_length_a 20.000135
_cell_length_b 7.652821
_cell_length_c 28.529530
_cell_angle_alpha 90.000000
_cell_angle_beta 90.000000
_cell_angle_gamma 90.000000
_cell_volume 4366.657201
_symmetry_space_group_name_H-M "I M M A"
_symmetry_group_IT_number 74
_symmetry_cell_setting 'orthorhombic'
loop_
_space_group_symop_operation_xyz
x,y,z
-x,1/2-y,z
x,-y,-z
-x,1/2+y,-z
-x,-y,-z
x,1/2+y,-z
-x,y,z
x,1/2-y,z
1/2+x,1/2+y,1/2+z
1/2-x,-y,1/2+z
1/2+x,1/2-y,1/2-z
1/2-x,y,1/2-z
1/2-x,1/2-y,1/2-z
1/2+x,y,1/2-z
1/2-x,1/2+y,1/2+z
1/2+x,-y,1/2+z
loop_
_atom_site_type_symbol
_atom_site_label
_atom_site_fract_x
_atom_site_fract_y
_atom_site_fract_z
Si Si1 0.640724 0.536770 0.591638
Si Si2 0.686167 0.046296 0.694682
Si Si3 0.325043 0.459115 0.845029
Si Si4 0.500000 0.959054 0.554195
Si Si5 0.278671 0.456102 0.051912
Si Si6 0.923818 0.963872 0.268847
O O1 0.641121 0.750000 0.592100
O O2 0.654037 0.470334 0.643590
O O3 0.568923 0.473435 0.575208
O O4 0.702874 0.474711 0.559711
O O5 0.695079 0.250000 0.707637
O O6 0.760729 0.971809 0.684889
O O7 0.631847 0.974817 0.731244
O O8 0.321172 0.250000 0.841083
O O9 0.317704 0.496193 0.900287
O O10 0.392801 0.514220 0.819251
O O11 0.500000 0.750000 0.561075
O O12 0.500000 0.000000 0.500000
O O13 0.274052 0.250000 0.052896
O O14 0.304580 0.500000 0.000000
O O15 0.925727 0.750000 0.266294
O O16 0.000000 0.023797 0.261226
#
# Coordination Sequence:
#
# PCOD9535867 Si02
#       6
#    16  16  16   8  16  16
#     4   9  19  32  45  65  95 127 159 198 241 285
#     4   9  17  29  48  72  96 126 164 200 234 278
#     4   9  17  31  50  72  99 130 161 197 241 285
#     4  10  20  32  44  60  88 126 164 200 241 284
#     4  10  19  32  51  73  96 122 158 201 243 289
#     4   9  17  29  48  74 101 128 162 202 240 281
#
# _framework density 20.152716000000002
#
# number of rings (size 3 to 8) (size 9 to 14) (size 15 to 20)
#    0.000    2.727    0.000    1.636    1.273    3.636 
#    0.000    0.909    0.000    6.545    0.000    0.000 
#    0.000    0.000    0.000    0.000    0.000    0.000 
#
# Total GULP energy -245218.564600 kJ/mol
# GULP energy per Si atom -5573.149195 kJ/mol
# Density = 2.010685 g / cm^3
# Si number density = 20.152716 Si / 1000 Ang^3
#
#
#
# Elastic Constant Matrix: (Units=GPa)
#
#
# Indices 1 2 3 4 5 6 
#
# 1 78.4872 3.4553 62.6208 0.0000 0.0000 0.0000
# 2 3.4553 37.1637 -1.1245 0.0000 0.0000 0.0000
# 3 62.6208 -1.1245 120.5549 0.0000 0.0000 0.0000
# 4 0.0000 0.0000 0.0000 15.7036 0.0000 0.0000
# 5 0.0000 0.0000 0.0000 0.0000 7.6933 0.0000
# 6 0.0000 0.0000 0.0000 0.0000 0.0000 -2.1351
#
#
#
# Elastic Compliance Matrix: (Units=1/GPa)
#
#
# Indices 1 2 3 4 5 6 
#
# 1 0.021968 -0.002388 -0.011433 0.000000 0.000000 0.000000
# 2 -0.002388 0.027175 0.001494 0.000000 0.000000 0.000000
# 3 -0.011433 0.001494 0.014248 0.000000 0.000000 0.000000
# 4 0.000000 0.000000 0.000000 0.063680 0.000000 0.000000
# 5 0.000000 0.000000 0.000000 0.000000 0.129983 0.000000
# 6 0.000000 0.000000 0.000000 0.000000 0.000000 -0.468359
#
#
# Mechanical properties :
#
#
# Convention : Reuss Voigt Hill
#
# Bulk Modulus (GPa) = 25.81587 40.67878 33.24732
# Shear Modulus (GPa) = -28.77902 15.66931 -6.55486
#
# Velocity S-wave (km/s) = -3.78305 2.79144 -1.80545
# Velocity P-wave (km/s) = 2.49881 5.53341 3.49103
#
# Compressibility (1/GPa) = 0.03873587
#
# Stress axis : x y z
#
# Youngs Moduli (GPa) = 45.52043 36.79822 70.18607
#
# Poissons Ratio (x) = 0.08789 0.80246
# Poissons Ratio (y) = 0.10872 -0.10487
# Poissons Ratio (z) = 0.52045 -0.05498
#
# Static dielectric constant tensor:
#      x y z
#    x 1.701670 0.000000 0.000000 
#    y 0.000000 1.836160 0.000000 
#    z 0.000000 0.000000 1.775760 
# 
# From -- ./inp_files/64303.got.cif
#   From: 2010.05.17/outbox.cif.g08.bks.cpg/sg74_33_cif.got.tgz:64303.got - 2010.06.03 17:57:02.
