data_PCOD9535812
_publ_section_title
;
Structure prediction by ZEFSAII (Michael W. Deem and Ramdas Pophale) SiO2 
 PCOD9535812
Probable space group: I M M A
;
_chemical_formula_sum "Si O2"
_cell_formula_units_Z 104
_cell_length_a 29.322127
_cell_length_b 8.690342
_cell_length_c 24.650175
_cell_angle_alpha 90.000000
_cell_angle_beta 90.000000
_cell_angle_gamma 90.000000
_cell_volume 6281.340629
_symmetry_space_group_name_H-M "I M M A"
_symmetry_group_IT_number 74
_symmetry_cell_setting 'orthorhombic'
loop_
_space_group_symop_operation_xyz
x,y,z
-x,1/2-y,z
x,-y,-z
-x,1/2+y,-z
-x,-y,-z
x,1/2+y,-z
-x,y,z
x,1/2-y,z
1/2+x,1/2+y,1/2+z
1/2-x,-y,1/2+z
1/2+x,1/2-y,1/2-z
1/2-x,y,1/2-z
1/2-x,1/2-y,1/2-z
1/2+x,y,1/2-z
1/2-x,1/2+y,1/2+z
1/2+x,-y,1/2+z
loop_
_atom_site_type_symbol
_atom_site_label
_atom_site_fract_x
_atom_site_fract_y
_atom_site_fract_z
Si Si1 0.174627 0.064720 0.938641
Si Si2 0.774816 0.065096 0.560793
Si Si3 0.000000 0.435486 0.060487
Si Si4 0.589935 0.065295 0.372570
Si Si5 0.553004 0.065643 0.145416
Si Si6 0.946633 0.565822 0.236590
Si Si7 0.874959 0.435134 0.561147
O O1 0.171710 0.250000 0.940930
O O2 0.225224 0.019817 0.916590
O O3 0.134657 0.999409 0.901588
O O4 0.170137 0.000000 0.000000
O O5 0.774805 0.250000 0.558632
O O6 0.824341 0.019538 0.583527
O O7 0.774806 0.000000 0.500000
O O8 0.045365 0.483856 0.092750
O O9 0.000000 0.250000 0.058064
O O10 0.000000 0.500000 0.000000
O O11 0.591347 0.250000 0.372039
O O12 0.582770 0.003290 0.312007
O O13 0.500000 0.022424 0.135315
O O14 0.555789 0.250000 0.146505
O O15 0.565694 0.999485 0.204441
O O16 0.585923 0.999936 0.099553
O O17 0.943177 0.750000 0.236931
O O18 0.000000 0.523854 0.226952
O O19 0.879137 0.500000 0.500000
O O20 0.877552 0.250000 0.559090
#
# Coordination Sequence:
#
# PCOD9535812 Si02
#       7
#    16  16   8  16  16  16  16
#     4  10  19  32  49  73 102 133 170 212 258 306
#     4   8  16  30  49  72 100 132 167 207 250 298
#     4  10  22  34  46  66  98 134 167 206 255 304
#     4  11  21  34  50  71  99 135 172 212 258 304
#     4  10  21  36  54  77 106 138 169 206 249 297
#     4  10  20  35  55  76  97 129 173 215 253 300
#     4  10  19  33  54  80 108 138 170 205 249 301
#
# _framework density 16.556975000000001
#
# number of rings (size 3 to 8) (size 9 to 14) (size 15 to 20)
#    0.000    2.154    0.769    2.769    0.000    5.538 
#    0.000    0.000    0.000    0.923    0.000    6.462 
#    0.000    0.000    0.000    0.000    0.000    0.000 
#
# Total GULP energy -289955.728080 kJ/mol
# GULP energy per Si atom -5576.071694 kJ/mol
# Density = 1.651929 g / cm^3
# Si number density = 16.556975 Si / 1000 Ang^3
#
#
#
# Elastic Constant Matrix: (Units=GPa)
#
#
# Indices 1 2 3 4 5 6 
#
# 1 152.3348 45.8372 89.3644 0.0000 0.0000 0.0000
# 2 45.8372 46.3389 37.7853 0.0000 0.0000 0.0000
# 3 89.3644 37.7853 108.4184 0.0000 0.0000 0.0000
# 4 0.0000 0.0000 0.0000 31.4092 0.0000 0.0000
# 5 0.0000 0.0000 0.0000 0.0000 5.1066 0.0000
# 6 0.0000 0.0000 0.0000 0.0000 0.0000 20.7911
#
#
#
# Elastic Compliance Matrix: (Units=1/GPa)
#
#
# Indices 1 2 3 4 5 6 
#
# 1 0.013857 -0.006138 -0.009282 0.000000 0.000000 0.000000
# 2 -0.006138 0.032866 -0.006395 0.000000 0.000000 0.000000
# 3 -0.009282 -0.006395 0.019103 0.000000 0.000000 0.000000
# 4 0.000000 0.000000 0.000000 0.031838 0.000000 0.000000
# 5 0.000000 0.000000 0.000000 0.000000 0.195825 0.000000
# 6 0.000000 0.000000 0.000000 0.000000 0.000000 0.048097
#
#
# Mechanical properties :
#
#
# Convention : Reuss Voigt Hill
#
# Bulk Modulus (GPa) = 45.05408 72.56288 58.80848
# Shear Modulus (GPa) = 12.73512 20.40174 16.56843
#
# Velocity S-wave (km/s) = 2.77640 3.51410 3.16680
# Velocity P-wave (km/s) = 6.12768 7.77088 6.99768
#
# Compressibility (1/GPa) = 0.02219555
#
# Stress axis : x y z
#
# Youngs Moduli (GPa) = 72.16781 30.42649 52.34679
#
# Poissons Ratio (x) = 0.18675 0.48590
# Poissons Ratio (y) = 0.44294 0.33477
# Poissons Ratio (z) = 0.66988 0.19459
#
# Static dielectric constant tensor:
#      x y z
#    x 1.587220 0.000000 0.000000 
#    y 0.000000 1.555820 0.000000 
#    z 0.000000 0.000000 1.512600 
# 
# From -- ./inp_files/55651.got.cif
#   From: 2010.05.17/outbox.cif.g08.bks.cpg/sg74_28_cif.got.tgz:55651.got - 2010.06.03 17:57:02.
