data_PCOD9535855
_publ_section_title
;
Structure prediction by ZEFSAII (Michael W. Deem and Ramdas Pophale) SiO2 
 PCOD9535855
Probable space group: I M M A
;
_chemical_formula_sum "Si O2"
_cell_formula_units_Z 112
_cell_length_a 28.496619
_cell_length_b 14.384451
_cell_length_c 15.429798
_cell_angle_alpha 90.000000
_cell_angle_beta 90.000000
_cell_angle_gamma 90.000000
_cell_volume 6324.801028
_symmetry_space_group_name_H-M "I M M A"
_symmetry_group_IT_number 74
_symmetry_cell_setting 'orthorhombic'
loop_
_space_group_symop_operation_xyz
x,y,z
-x,1/2-y,z
x,-y,-z
-x,1/2+y,-z
-x,-y,-z
x,1/2+y,-z
-x,y,z
x,1/2-y,z
1/2+x,1/2+y,1/2+z
1/2-x,-y,1/2+z
1/2+x,1/2-y,1/2-z
1/2-x,y,1/2-z
1/2-x,1/2-y,1/2-z
1/2+x,y,1/2-z
1/2-x,1/2+y,1/2+z
1/2+x,-y,1/2+z
loop_
_atom_site_type_symbol
_atom_site_label
_atom_site_fract_x
_atom_site_fract_y
_atom_site_fract_z
Si Si1 0.580549 0.858483 0.638521
Si Si2 0.447321 0.140228 0.559635
Si Si3 0.695455 0.143432 0.731870
Si Si4 0.606417 0.852668 0.156918
Si Si5 0.643032 0.983883 0.401607
Si Si6 0.946870 0.459059 0.307184
Si Si7 0.053900 0.889591 0.515550
O O1 0.586519 0.750000 0.653677
O O2 0.556043 0.869473 0.544859
O O3 0.553984 0.906383 0.716981
O O4 0.629049 0.915089 0.633269
O O5 0.500000 0.114096 0.588402
O O6 0.439948 0.250000 0.579278
O O7 0.405532 0.076365 0.594625
O O8 0.690435 0.250000 0.699939
O O9 0.750000 0.127493 0.750000
O O10 0.660946 0.137136 0.815764
O O11 0.677156 0.072268 0.660122
O O12 0.581776 0.944781 0.194927
O O13 0.589996 0.852823 0.056325
O O14 0.552769 0.000000 0.000000
O O15 0.659482 0.000000 0.500000
O O16 0.931353 0.387705 0.383641
O O17 0.000000 0.485438 0.329683
O O18 0.091649 0.750000 0.308423
O O19 0.000000 0.854943 0.504376
#
# Coordination Sequence:
#
# PCOD9535855 Si02
#       7
#    16  16  16  16  16  16  16
#     4  10  20  33  50  73 107 149 188 222 257 307
#     4   9  18  32  51  78 112 145 180 224 270 320
#     4  10  21  39  62  85 110 136 171 225 285 337
#     4  10  19  33  53  77 104 139 177 219 271 323
#     4  10  20  36  58  82 107 142 182 223 269 323
#     4  10  19  32  50  76 110 149 185 219 258 312
#     4   8  16  30  47  71 106 142 176 213 254 303
#
# _framework density 17.708068000000001
#
# number of rings (size 3 to 8) (size 9 to 14) (size 15 to 20)
#    0.000    2.429    1.429    2.143    0.000    6.286 
#    0.000    3.571    0.000    0.429    0.000    0.000 
#    0.000    0.000    0.000    0.000    0.000    0.000 
#
# Total GULP energy -312001.027896 kJ/mol
# GULP energy per Si atom -5571.446927 kJ/mol
# Density = 1.766776 g / cm^3
# Si number density = 17.708068 Si / 1000 Ang^3
#
#
#
# Elastic Constant Matrix: (Units=GPa)
#
#
# Indices 1 2 3 4 5 6 
#
# 1 83.3330 46.5422 32.3582 0.0000 0.0000 0.0000
# 2 46.5422 97.8686 23.9518 0.0000 0.0000 0.0000
# 3 32.3582 23.9518 74.4747 0.0000 0.0000 0.0000
# 4 0.0000 0.0000 0.0000 20.3475 0.0000 0.0000
# 5 0.0000 0.0000 0.0000 0.0000 15.0305 0.0000
# 6 0.0000 0.0000 0.0000 0.0000 0.0000 26.2962
#
#
#
# Elastic Compliance Matrix: (Units=1/GPa)
#
#
# Indices 1 2 3 4 5 6 
#
# 1 0.018251 -0.007314 -0.005577 0.000000 0.000000 0.000000
# 2 -0.007314 0.014022 -0.001332 0.000000 0.000000 0.000000
# 3 -0.005577 -0.001332 0.016279 0.000000 0.000000 0.000000
# 4 0.000000 0.000000 0.000000 0.049146 0.000000 0.000000
# 5 0.000000 0.000000 0.000000 0.000000 0.066531 0.000000
# 6 0.000000 0.000000 0.000000 0.000000 0.000000 0.038028
#
#
# Mechanical properties :
#
#
# Convention : Reuss Voigt Hill
#
# Bulk Modulus (GPa) = 49.73859 51.26452 50.50156
# Shear Modulus (GPa) = 21.06095 22.52312 21.79203
#
# Velocity S-wave (km/s) = 3.45243 3.57026 3.51184
# Velocity P-wave (km/s) = 6.63637 6.78294 6.71006
#
# Compressibility (1/GPa) = 0.02010511
#
# Stress axis : x y z
#
# Youngs Moduli (GPa) = 54.79192 71.31602 61.42906
#
# Poissons Ratio (x) = 0.52163 0.34261
# Poissons Ratio (y) = 0.40077 0.08180
# Poissons Ratio (z) = 0.30559 0.09497
#
# Static dielectric constant tensor:
#      x y z
#    x 1.582480 0.000000 0.000000 
#    y 0.000000 1.627110 0.000000 
#    z 0.000000 0.000000 1.681700 
# 
# From -- ./inp_files/37374.got.cif
#   From: 2010.05.17/outbox.cif.g08.bks.cpg/sg74_19_cif.got.tgz:37374.got - 2010.06.03 17:57:02.
