data_PCOD9535134
_publ_section_title
;
Structure prediction by ZEFSAII (Michael W. Deem and Ramdas Pophale) SiO2 
 PCOD9535134
Probable space group: I M M A
;
_chemical_formula_sum "Si O2"
_cell_formula_units_Z 116
_cell_length_a 14.508680
_cell_length_b 16.684652
_cell_length_c 24.945058
_cell_angle_alpha 90.000000
_cell_angle_beta 90.000000
_cell_angle_gamma 90.000000
_cell_volume 6038.506984
_symmetry_space_group_name_H-M "I M M A"
_symmetry_group_IT_number 74
_symmetry_cell_setting 'orthorhombic'
loop_
_space_group_symop_operation_xyz
x,y,z
-x,1/2-y,z
x,-y,-z
-x,1/2+y,-z
-x,-y,-z
x,1/2+y,-z
-x,y,z
x,1/2-y,z
1/2+x,1/2+y,1/2+z
1/2-x,-y,1/2+z
1/2+x,1/2-y,1/2-z
1/2-x,y,1/2-z
1/2-x,1/2-y,1/2-z
1/2+x,y,1/2-z
1/2-x,1/2+y,1/2+z
1/2+x,-y,1/2+z
loop_
_atom_site_type_symbol
_atom_site_label
_atom_site_fract_x
_atom_site_fract_y
_atom_site_fract_z
Si Si1 0.340123 0.121255 0.716899
Si Si2 0.611413 0.436562 0.275109
Si Si3 0.106393 0.652835 0.100284
Si Si4 0.793205 0.152231 0.007202
Si Si5 0.389244 0.655356 0.618126
Si Si6 0.104611 0.152184 0.449377
Si Si7 0.612321 0.658583 0.828858
Si Si8 0.500000 0.750000 0.261749
O O1 0.250000 0.142762 0.750000
O O2 0.335617 0.130181 0.652475
O O3 0.420637 0.180168 0.734839
O O4 0.362683 0.028789 0.727218
O O5 0.500000 0.430140 0.275570
O O6 0.642482 0.393714 0.329942
O O7 0.644653 0.392669 0.221304
O O8 0.102081 0.750000 0.099148
O O9 0.000000 0.624687 0.106060
O O10 0.152686 0.624284 0.045333
O O11 0.795356 0.250000 0.005715
O O12 0.843220 0.129153 0.062449
O O13 0.686209 0.127551 0.010930
O O14 0.500000 0.647544 0.612959
O O15 0.369366 0.750000 0.626100
O O16 0.102275 0.250000 0.448589
O O17 0.132973 0.128444 0.388775
O O18 0.000000 0.125394 0.461089
O O19 0.500000 0.660895 0.827238
O O20 0.645169 0.750000 0.823771
#
# Coordination Sequence:
#
# PCOD9535134 Si02
#       8
#    16  16  16  16  16  16  16   4
#     4  12  24  40  66  90 112 139 180 229 292 350
#     4  10  19  33  52  81 121 153 188 237 283 330
#     4  10  18  35  59  82 106 137 178 224 279 346
#     4   9  17  28  50  77 106 145 194 232 269 322
#     4   9  17  30  49  80 121 163 195 228 270 317
#     4   8  14  26  44  68 106 150 195 233 265 309
#     4   8  14  26  48  77 112 165 206 224 259 319
#     4  12  22  48  68  86 108 144 172 236 290 356
#
# _framework density 19.210045999999998
#
# number of rings (size 3 to 8) (size 9 to 14) (size 15 to 20)
#    0.000    2.483    2.069    1.862    0.000    4.414 
#    0.000    0.690    1.517    6.621    0.000    0.000 
#    0.000    4.414    0.000    0.000    0.000    0.000 
#
# Total GULP energy -323101.279893 kJ/mol
# GULP energy per Si atom -5570.711722 kJ/mol
# Density = 1.916632 g / cm^3
# Si number density = 19.210046 Si / 1000 Ang^3
#
#
#
# Elastic Constant Matrix: (Units=GPa)
#
#
# Indices 1 2 3 4 5 6 
#
# 1 102.0273 25.3737 80.1342 0.0000 0.0000 0.0000
# 2 25.3737 47.9084 22.8743 0.0000 0.0000 -0.0001
# 3 80.1342 22.8743 115.3517 0.0000 0.0000 -0.0001
# 4 0.0000 0.0000 0.0000 -15.6882 0.0000 -0.0001
# 5 0.0000 0.0000 0.0000 0.0000 -122.1085 -0.0009
# 6 0.0000 -0.0001 -0.0001 -0.0001 -0.000948341.0444
#
#
#
# Elastic Compliance Matrix: (Units=1/GPa)
#
#
# Indices 1 2 3 4 5 6 
#
# 1 0.022581 -0.004937 -0.014708 0.000000 0.000000 0.000000
# 2 -0.004937 0.024136 -0.001356 0.000000 0.000000 0.000000
# 3 -0.014708 -0.001356 0.019156 0.000000 0.000000 0.000000
# 4 0.000000 0.000000 0.000000 -0.063742 0.000000 0.000000
# 5 0.000000 0.000000 0.000000 0.000000 -0.008189 0.000000
# 6 0.000000 0.000000 0.000000 0.000000 0.000000 0.000021
#
#
# Mechanical properties :
#
#
# Convention : Reuss Voigt Hill
#
# Bulk Modulus (GPa) = 41.89438 58.00578 49.95008
# Shear Modulus (GPa) = 113.84303 9649.77655 4881.80979
#
# Velocity S-wave (km/s) = 7.70655 70.95211 50.46580
# Velocity P-wave (km/s) = 10.05205 82.11291 58.49604
#
# Compressibility (1/GPa) = 0.02386955
#
# Stress axis : x y z
#
# Youngs Moduli (GPa) = 44.28509 41.43255 52.20420
#
# Poissons Ratio (x) = 0.20456 0.76781
# Poissons Ratio (y) = 0.21864 0.07080
# Poissons Ratio (z) = 0.65134 0.05619
#
# Static dielectric constant tensor:
#      x y z
#    x 1.723560 0.000000 0.000000 
#    y 0.000000 1.649880 0.000000 
#    z 0.000000 0.000000 1.667280 
# 
# From -- ./inp_files/60351.got.cif
#   From: 2010.05.17/outbox.cif.g08.bks.cpg/sg74_31_cif.got.tgz:60351.got - 2010.06.03 17:57:02.
