data_PCOD9535171
_publ_section_title
;
Structure prediction by ZEFSAII (Michael W. Deem and Ramdas Pophale) SiO2 
 PCOD9535171
Probable space group: I M M A
;
_chemical_formula_sum "Si O2"
_cell_formula_units_Z 48
_cell_length_a 34.424561
_cell_length_b 9.132968
_cell_length_c 8.572359
_cell_angle_alpha 90.000000
_cell_angle_beta 90.000000
_cell_angle_gamma 90.000000
_cell_volume 2695.136074
_symmetry_space_group_name_H-M "I M M A"
_symmetry_group_IT_number 74
_symmetry_cell_setting 'orthorhombic'
loop_
_space_group_symop_operation_xyz
x,y,z
-x,1/2-y,z
x,-y,-z
-x,1/2+y,-z
-x,-y,-z
x,1/2+y,-z
-x,y,z
x,1/2-y,z
1/2+x,1/2+y,1/2+z
1/2-x,-y,1/2+z
1/2+x,1/2-y,1/2-z
1/2-x,y,1/2-z
1/2-x,1/2-y,1/2-z
1/2+x,y,1/2-z
1/2-x,1/2+y,1/2+z
1/2+x,-y,1/2+z
loop_
_atom_site_type_symbol
_atom_site_label
_atom_site_fract_x
_atom_site_fract_y
_atom_site_fract_z
Si Si1 0.876147 0.750000 0.681789
Si Si2 0.921489 0.000000 0.500000
Si Si3 0.705380 0.750000 0.705643
Si Si4 0.544486 0.750000 0.215558
Si Si5 0.116041 0.750000 0.057193
Si Si6 0.669854 0.000000 0.500000
O O1 0.895058 0.608478 0.602600
O O2 0.829302 0.750000 0.666927
O O3 0.885605 0.750000 0.867788
O O4 0.946603 0.106798 0.610314
O O5 0.750000 0.750000 0.750000
O O6 0.695663 0.606487 0.603770
O O7 0.500000 0.750000 0.267420
O O8 0.575277 0.750000 0.356822
O O9 0.141384 0.606610 0.097667
#
# Coordination Sequence:
#
# PCOD9535171 Si02
#       6
#     8   8   8   8   8   8
#     4   9  20  37  56  77 104 144 178 211 260 325
#     4  10  21  37  54  76 111 142 171 212 272 325
#     4  10  19  33  52  78 107 134 176 224 263 303
#     4  11  21  35  55  81 106 136 176 225 267 307
#     4  10  18  37  59  76 102 144 186 212 254 323
#     4   8  18  35  53  74 103 138 173 220 263 305
#
# _framework density 17.809861000000001
#
# number of rings (size 3 to 8) (size 9 to 14) (size 15 to 20)
#    0.000    2.667    0.000    4.500    0.000    1.333 
#    0.000   14.167    0.000    0.000    0.000    0.000 
#    0.000    0.000    0.000    0.000    0.000    0.000 
#
# Total GULP energy -133794.305552 kJ/mol
# GULP energy per Si atom -5574.762731 kJ/mol
# Density = 1.776933 g / cm^3
# Si number density = 17.809861 Si / 1000 Ang^3
#
#
#
# Elastic Constant Matrix: (Units=GPa)
#
#
# Indices 1 2 3 4 5 6 
#
# 1 196.4359 70.6344 56.8595 0.0000 0.0000 0.0000
# 2 70.6344 147.8455 37.0257 0.0000 0.0000 0.0000
# 3 56.8595 37.0257 67.9773 0.0000 0.0000 0.0000
# 4 0.0000 0.0000 0.0000 22.2530 0.0000 0.0000
# 5 0.0000 0.0000 0.0000 0.0000 29.4983 0.0000
# 6 0.0000 0.0000 0.0000 0.0000 0.0000 17.8677
#
#
#
# Elastic Compliance Matrix: (Units=1/GPa)
#
#
# Indices 1 2 3 4 5 6 
#
# 1 0.007323 -0.002275 -0.004886 0.000000 0.000000 0.000000
# 2 -0.002275 0.008539 -0.002748 0.000000 0.000000 0.000000
# 3 -0.004886 -0.002748 0.020295 0.000000 0.000000 0.000000
# 4 0.000000 0.000000 0.000000 0.044938 0.000000 0.000000
# 5 0.000000 0.000000 0.000000 0.000000 0.033900 0.000000
# 6 0.000000 0.000000 0.000000 0.000000 0.000000 0.055967
#
#
# Mechanical properties :
#
#
# Convention : Reuss Voigt Hill
#
# Bulk Modulus (GPa) = 61.20653 82.36645 71.78649
# Shear Modulus (GPa) = 25.48077 30.43973 27.96025
#
# Velocity S-wave (km/s) = 3.78658 4.13867 3.96653
# Velocity P-wave (km/s) = 7.31839 8.31782 7.83406
#
# Compressibility (1/GPa) = 0.01633813
#
# Stress axis : x y z
#
# Youngs Moduli (GPa) = 136.55382 117.11085 49.27387
#
# Poissons Ratio (x) = 0.26643 0.24077
# Poissons Ratio (y) = 0.31066 0.13541
# Poissons Ratio (z) = 0.66724 0.32183
#
# Static dielectric constant tensor:
#      x y z
#    x 1.588190 0.000000 0.000000 
#    y 0.000000 1.587070 0.000000 
#    z 0.000000 0.000000 1.620080 
# 
# From -- ./inp_files/6190.got.cif
#   From: 2010.05.17/outbox.cif.g08.bks.cpg/sg74_4_cif.got.tgz:6190.got - 2010.06.03 17:57:02.
