data_PCOD9535966
_publ_section_title
;
Structure prediction by ZEFSAII (Michael W. Deem and Ramdas Pophale) SiO2 
 PCOD9535966
Probable space group: I M M A
;
_chemical_formula_sum "Si O2"
_cell_formula_units_Z 96
_cell_length_a 21.903518
_cell_length_b 8.806682
_cell_length_c 24.844766
_cell_angle_alpha 90.000000
_cell_angle_beta 90.000000
_cell_angle_gamma 90.000000
_cell_volume 4792.488720
_symmetry_space_group_name_H-M "I M M A"
_symmetry_group_IT_number 74
_symmetry_cell_setting 'orthorhombic'
loop_
_space_group_symop_operation_xyz
x,y,z
-x,1/2-y,z
x,-y,-z
-x,1/2+y,-z
-x,-y,-z
x,1/2+y,-z
-x,y,z
x,1/2-y,z
1/2+x,1/2+y,1/2+z
1/2-x,-y,1/2+z
1/2+x,1/2-y,1/2-z
1/2-x,y,1/2-z
1/2-x,1/2-y,1/2-z
1/2+x,y,1/2-z
1/2-x,1/2+y,1/2+z
1/2+x,-y,1/2+z
loop_
_atom_site_type_symbol
_atom_site_label
_atom_site_fract_x
_atom_site_fract_y
_atom_site_fract_z
Si Si1 0.681429 0.072098 0.256885
Si Si2 0.567452 0.933795 0.670670
Si Si3 0.157460 0.576602 0.632431
Si Si4 0.098382 0.068769 0.943118
Si Si5 0.766924 0.568696 0.945068
Si Si6 0.068860 0.071668 0.554354
O O1 0.690664 0.250000 0.273248
O O2 0.750000 0.004816 0.250000
O O3 0.627897 0.012801 0.296354
O O4 0.656673 0.067741 0.196244
O O5 0.500000 0.971508 0.694377
O O6 0.571025 0.750000 0.668267
O O7 0.569273 0.000091 0.610559
O O8 0.142775 0.750000 0.616412
O O9 0.223511 0.544599 0.606117
O O10 0.109317 0.468653 0.604911
O O11 0.092672 0.250000 0.944344
O O12 0.169185 0.017126 0.938840
O O13 0.075963 0.000000 0.000000
O O14 0.777196 0.750000 0.951002
O O15 0.739018 0.500000 0.000000
O O16 0.066496 0.250000 0.546814
O O17 0.000000 0.011617 0.561371
O O18 0.094718 0.000000 0.500000
#
# Coordination Sequence:
#
# PCOD9535966 Si02
#       6
#    16  16  16  16  16  16
#     4   9  18  35  59  85 113 147 189 235 281 332
#     4  10  21  38  60  85 114 149 189 234 283 335
#     4  10  20  33  55  84 110 142 185 233 282 334
#     4  11  22  37  59  85 114 148 184 225 276 334
#     4  10  19  32  52  81 116 149 184 229 280 334
#     4  10  21  36  53  75 107 147 188 233 285 339
#
# _framework density 20.031345000000002
#
# number of rings (size 3 to 8) (size 9 to 14) (size 15 to 20)
#    0.000    2.000    0.000    5.000    0.000    7.667 
#    0.000    2.500    0.000    2.000    0.000    0.000 
#    0.000    0.000    0.000    0.000    0.000    0.000 
#
# Total GULP energy -267808.468792 kJ/mol
# GULP energy per Si atom -5579.343100 kJ/mol
# Density = 1.998575 g / cm^3
# Si number density = 20.031345 Si / 1000 Ang^3
#
#
#
# Elastic Constant Matrix: (Units=GPa)
#
#
# Indices 1 2 3 4 5 6 
#
# 1 118.5361 25.9154 43.4914 0.0000 0.0000 0.0000
# 2 25.9154 36.9810 15.7813 0.0000 0.0000 0.0000
# 3 43.4914 15.7813 79.2240 0.0000 0.0000 0.0000
# 4 0.0000 0.0000 0.0000 25.3337 0.0000 0.0000
# 5 0.0000 0.0000 0.0000 0.0000 18.3721 0.0000
# 6 0.0000 0.0000 0.0000 0.0000 0.0000 18.7381
#
#
#
# Elastic Compliance Matrix: (Units=1/GPa)
#
#
# Indices 1 2 3 4 5 6 
#
# 1 0.011646 -0.005938 -0.005211 0.000000 0.000000 0.000000
# 2 -0.005938 0.032581 -0.003230 0.000000 0.000000 0.000000
# 3 -0.005211 -0.003230 0.016126 0.000000 0.000000 0.000000
# 4 0.000000 0.000000 0.000000 0.039473 0.000000 0.000000
# 5 0.000000 0.000000 0.000000 0.000000 0.054430 0.000000
# 6 0.000000 0.000000 0.000000 0.000000 0.000000 0.053367
#
#
# Mechanical properties :
#
#
# Convention : Reuss Voigt Hill
#
# Bulk Modulus (GPa) = 31.64993 45.01302 38.33147
# Shear Modulus (GPa) = 20.25002 22.45896 21.35449
#
# Velocity S-wave (km/s) = 3.18294 3.35205 3.26859
# Velocity P-wave (km/s) = 5.41689 6.12387 5.78119
#
# Compressibility (1/GPa) = 0.03159565
#
# Stress axis : x y z
#
# Youngs Moduli (GPa) = 85.86481 30.69319 62.01034
#
# Poissons Ratio (x) = 0.18225 0.32311
# Poissons Ratio (y) = 0.50985 0.20031
# Poissons Ratio (z) = 0.44741 0.09915
#
# Static dielectric constant tensor:
#      x y z
#    x 1.761440 0.000000 0.000000 
#    y 0.000000 1.676350 0.000000 
#    z 0.000000 0.000000 1.721410 
# 
# From -- ./inp_files/68112.got.cif
#   From: 2010.05.17/outbox.cif.g08.bks.cpg/sg74_35_cif.got.tgz:68112.got - 2010.06.03 17:57:02.
