data_PCOD9535357
_publ_section_title
;
Structure prediction by ZEFSAII (Michael W. Deem and Ramdas Pophale) SiO2 
 PCOD9535357
Probable space group: I M M A
;
_chemical_formula_sum "Si O2"
_cell_formula_units_Z 80
_cell_length_a 27.635738
_cell_length_b 18.181645
_cell_length_c 7.218717
_cell_angle_alpha 90.000000
_cell_angle_beta 90.000000
_cell_angle_gamma 90.000000
_cell_volume 3627.139482
_symmetry_space_group_name_H-M "I M M A"
_symmetry_group_IT_number 74
_symmetry_cell_setting 'orthorhombic'
loop_
_space_group_symop_operation_xyz
x,y,z
-x,1/2-y,z
x,-y,-z
-x,1/2+y,-z
-x,-y,-z
x,1/2+y,-z
-x,y,z
x,1/2-y,z
1/2+x,1/2+y,1/2+z
1/2-x,-y,1/2+z
1/2+x,1/2-y,1/2-z
1/2-x,y,1/2-z
1/2-x,1/2-y,1/2-z
1/2+x,y,1/2-z
1/2-x,1/2+y,1/2+z
1/2+x,-y,1/2+z
loop_
_atom_site_type_symbol
_atom_site_label
_atom_site_fract_x
_atom_site_fract_y
_atom_site_fract_z
Si Si1 0.251745 0.913857 0.530249
Si Si2 0.553293 0.412588 0.471864
Si Si3 0.651191 0.334862 0.478278
Si Si4 0.156271 0.334548 0.473656
Si Si5 0.052551 0.662296 0.571982
O O1 0.250000 0.899699 0.750000
O O2 0.299056 0.872162 0.458202
O O3 0.200033 0.885005 0.460999
O O4 0.257003 0.000000 0.500000
O O5 0.557274 0.500000 0.500000
O O6 0.500000 0.389705 0.545720
O O7 0.602242 0.374599 0.541705
O O8 0.552142 0.387544 0.256006
O O9 0.649792 0.250000 0.531685
O O10 0.652680 0.338088 0.251986
O O11 0.167075 0.250000 0.521073
O O12 0.101928 0.354515 0.535638
O O13 0.056057 0.750000 0.623221
O O14 0.000000 0.652507 0.480342
#
# Coordination Sequence:
#
# PCOD9535357 Si02
#       5
#    16  16  16  16  16
#     4  10  19  30  45  65  88 113 140 174 216 259
#     4   9  15  21  31  52  83 112 135 165 210 257
#     4   9  16  26  41  59  79 107 145 183 212 243
#     4   8  14  25  42  62  81 105 140 177 210 247
#     4   8  13  22  37  57  80 105 135 174 215 249
#
# _framework density 22.055949999999999
#
# number of rings (size 3 to 8) (size 9 to 14) (size 15 to 20)
#    0.000    3.200    0.000    3.000    0.000    3.600 
#    0.000    0.000    0.000    3.000    0.000    0.000 
#    0.000    0.000    0.000    6.800    0.000    6.600 
#
# Total GULP energy -223065.518320 kJ/mol
# GULP energy per Si atom -5576.637958 kJ/mol
# Density = 2.200575 g / cm^3
# Si number density = 22.055950 Si / 1000 Ang^3
#
#
#
# Elastic Constant Matrix: (Units=GPa)
#
#
# Indices 1 2 3 4 5 6 
#
# 1 279.3252 119.2303 6.2047 0.0000 0.0000 0.0000
# 2 119.2303 119.2885 11.0204 0.0000 0.0000 0.0000
# 3 6.2047 11.0204 83.6380 0.0000 0.0000 0.0000
# 4 0.0000 0.0000 0.0000 -7.0126 0.0000 0.0000
# 5 0.0000 0.0000 0.0000 0.0000 -26.6100 0.0000
# 6 0.0000 0.0000 0.0000 0.0000 0.0000 48.0036
#
#
#
# Elastic Compliance Matrix: (Units=1/GPa)
#
#
# Indices 1 2 3 4 5 6 
#
# 1 0.006255 -0.006286 0.000364 0.000000 0.000000 0.000000
# 2 -0.006286 0.014803 -0.001484 0.000000 0.000000 0.000000
# 3 0.000364 -0.001484 0.012125 0.000000 0.000000 0.000000
# 4 0.000000 0.000000 0.000000 -0.142600 0.000000 0.000000
# 5 0.000000 0.000000 0.000000 0.000000 -0.037580 0.000000
# 6 0.000000 0.000000 0.000000 0.000000 0.000000 0.020832
#
#
# Mechanical properties :
#
#
# Convention : Reuss Voigt Hill
#
# Bulk Modulus (GPa) = 54.43250 83.90695 69.16972
# Shear Modulus (GPa) = -47.51457 25.92929 -10.79264
#
# Velocity S-wave (km/s) = -4.64645 3.43244 -2.21448
# Velocity P-wave (km/s) = 2.01325 7.33718 4.98904
#
# Compressibility (1/GPa) = 0.01837138
#
# Stress axis : x y z
#
# Youngs Moduli (GPa) = 159.87307 67.55556 82.47544
#
# Poissons Ratio (x) = 0.42462 -0.03004
# Poissons Ratio (y) = 1.00489 0.12241
# Poissons Ratio (z) = -0.05822 0.10026
#
# Static dielectric constant tensor:
#      x y z
#    x 1.852000 0.000000 0.000000 
#    y 0.000000 1.732330 0.000000 
#    z 0.000000 0.000000 1.737010 
# 
# From -- ./inp_files/10929.got.cif
#   From: 2010.05.17/outbox.cif.g08.bks.cpg/sg74_6_cif.got.tgz:10929.got - 2010.06.03 17:57:02.
