data_PCOD9535623
_publ_section_title
;
Structure prediction by ZEFSAII (Michael W. Deem and Ramdas Pophale) SiO2 
 PCOD9535623
Probable space group: I M M A
;
_chemical_formula_sum "Si O2"
_cell_formula_units_Z 80
_cell_length_a 9.059516
_cell_length_b 18.620896
_cell_length_c 27.686025
_cell_angle_alpha 90.000000
_cell_angle_beta 90.000000
_cell_angle_gamma 90.000000
_cell_volume 4670.530124
_symmetry_space_group_name_H-M "I M M A"
_symmetry_group_IT_number 74
_symmetry_cell_setting 'orthorhombic'
loop_
_space_group_symop_operation_xyz
x,y,z
-x,1/2-y,z
x,-y,-z
-x,1/2+y,-z
-x,-y,-z
x,1/2+y,-z
-x,y,z
x,1/2-y,z
1/2+x,1/2+y,1/2+z
1/2-x,-y,1/2+z
1/2+x,1/2-y,1/2-z
1/2-x,y,1/2-z
1/2-x,1/2-y,1/2-z
1/2+x,y,1/2-z
1/2-x,1/2+y,1/2+z
1/2+x,-y,1/2+z
loop_
_atom_site_type_symbol
_atom_site_label
_atom_site_fract_x
_atom_site_fract_y
_atom_site_fract_z
Si Si1 0.677401 0.470364 0.403418
Si Si2 0.822380 0.669279 0.962091
Si Si3 0.675674 0.473941 0.701515
Si Si4 0.675492 0.331258 0.834156
Si Si5 0.674744 0.612324 0.058409
O O1 0.500000 0.479137 0.408146
O O2 0.719126 0.393040 0.424420
O O3 0.714695 0.482493 0.347156
O O4 0.755440 0.533832 0.433111
O O5 0.780958 0.750000 0.947201
O O6 0.000000 0.666817 0.967273
O O7 0.750407 0.650467 0.013351
O O8 0.500000 0.473088 0.706588
O O9 0.750000 0.502584 0.750000
O O10 0.735029 0.393251 0.692527
O O11 0.500000 0.340232 0.824871
O O12 0.718040 0.250000 0.821441
O O13 0.698005 0.344559 0.891514
O O14 0.500000 0.606417 0.050476
#
# Coordination Sequence:
#
# PCOD9535623 Si02
#       5
#    16  16  16  16  16
#     4   9  19  35  52  71  96 127 164 201 236 283
#     4  10  20  33  50  72  99 131 164 198 237 282
#     4  10  20  34  52  71  91 119 157 201 245 288
#     4   9  18  32  48  68  98 132 162 193 229 273
#     4  10  19  31  49  74 103 134 165 196 233 277
#
# _framework density 17.128675999999999
#
# number of rings (size 3 to 8) (size 9 to 14) (size 15 to 20)
#    0.000    2.400    0.000    2.400    0.000    6.800 
#    0.000    0.000    0.000    0.600    0.000    0.000 
#    0.000    0.000    0.000    0.000    0.000    0.600 
#
# Total GULP energy -223250.440802 kJ/mol
# GULP energy per Si atom -5581.261020 kJ/mol
# Density = 1.708969 g / cm^3
# Si number density = 17.128676 Si / 1000 Ang^3
#
#
#
# Elastic Constant Matrix: (Units=GPa)
#
#
# Indices 1 2 3 4 5 6 
#
# 1 18.2393 17.4436 21.7669 0.0000 0.0000 0.0000
# 2 17.4436 77.2236 21.9815 0.0000 0.0000 0.0000
# 3 21.7669 21.9815 59.7078 0.0000 0.0000 0.0000
# 4 0.0000 0.0000 0.0000 3.3068 0.0000 0.0000
# 5 0.0000 0.0000 0.0000 0.0000 29.4037 0.0000
# 6 0.0000 0.0000 0.0000 0.0000 0.0000 10.9223
#
#
#
# Elastic Compliance Matrix: (Units=1/GPa)
#
#
# Indices 1 2 3 4 5 6 
#
# 1 0.110893 -0.015127 -0.034858 0.000000 0.000000 0.000000
# 2 -0.015127 0.016529 -0.000570 0.000000 0.000000 0.000000
# 3 -0.034858 -0.000570 0.029666 0.000000 0.000000 0.000000
# 4 0.000000 0.000000 0.000000 0.302407 0.000000 0.000000
# 5 0.000000 0.000000 0.000000 0.000000 0.034009 0.000000
# 6 0.000000 0.000000 0.000000 0.000000 0.000000 0.091556
#
#
# Mechanical properties :
#
#
# Convention : Reuss Voigt Hill
#
# Bulk Modulus (GPa) = 17.86433 30.83940 24.35187
# Shear Modulus (GPa) = 7.09392 14.99182 11.04287
#
# Velocity S-wave (km/s) = 2.03729 2.96167 2.54185
# Velocity P-wave (km/s) = 3.99827 5.45334 4.78148
#
# Compressibility (1/GPa) = 0.05597746
#
# Stress axis : x y z
#
# Youngs Moduli (GPa) = 9.01769 60.50091 33.70871
#
# Poissons Ratio (x) = 0.91518 1.17501
# Poissons Ratio (y) = 0.13641 0.01923
# Poissons Ratio (z) = 0.31434 0.03452
#
# Static dielectric constant tensor:
#      x y z
#    x 1.568060 0.000000 0.000000 
#    y 0.000000 1.569740 0.000000 
#    z 0.000000 0.000000 1.581180 
# 
# From -- ./inp_files/63892.got.cif
#   From: 2010.05.17/outbox.cif.g08.bks.cpg/sg74_32_cif.got.tgz:63892.got - 2010.06.03 17:57:02.
