data_PCOD9535853
_publ_section_title
;
Structure prediction by ZEFSAII (Michael W. Deem and Ramdas Pophale) SiO2 
 PCOD9535853
Probable space group: I M M A
;
_chemical_formula_sum "Si O2"
_cell_formula_units_Z 104
_cell_length_a 28.333816
_cell_length_b 8.984671
_cell_length_c 24.517003
_cell_angle_alpha 90.000000
_cell_angle_beta 90.000000
_cell_angle_gamma 90.000000
_cell_volume 6241.293820
_symmetry_space_group_name_H-M "I M M A"
_symmetry_group_IT_number 74
_symmetry_cell_setting 'orthorhombic'
loop_
_space_group_symop_operation_xyz
x,y,z
-x,1/2-y,z
x,-y,-z
-x,1/2+y,-z
-x,-y,-z
x,1/2+y,-z
-x,y,z
x,1/2-y,z
1/2+x,1/2+y,1/2+z
1/2-x,-y,1/2+z
1/2+x,1/2-y,1/2-z
1/2-x,y,1/2-z
1/2-x,1/2-y,1/2-z
1/2+x,y,1/2-z
1/2-x,1/2+y,1/2+z
1/2+x,-y,1/2+z
loop_
_atom_site_type_symbol
_atom_site_label
_atom_site_fract_x
_atom_site_fract_y
_atom_site_fract_z
Si Si1 0.604684 0.570290 0.060676
Si Si2 0.176598 0.571399 0.645870
Si Si3 0.357104 0.928367 0.732374
Si Si4 0.946407 0.570943 0.832100
Si Si5 0.942548 0.579838 0.054928
Si Si6 0.268148 0.922112 0.312940
Si Si7 0.000000 0.428258 0.559794
O O1 0.608581 0.750000 0.057555
O O2 0.645074 0.503501 0.099210
O O3 0.551667 0.532093 0.083451
O O4 0.608080 0.500000 0.000000
O O5 0.177106 0.750000 0.639634
O O6 0.153672 0.533768 0.704922
O O7 0.229831 0.508693 0.650800
O O8 0.351988 0.750000 0.727710
O O9 0.409369 0.972066 0.714076
O O10 0.319155 0.002931 0.692207
O O11 0.947009 0.750000 0.835982
O O12 0.930196 0.506117 0.890024
O O13 0.000000 0.520369 0.821440
O O14 0.926767 0.750000 0.056869
O O15 0.000000 0.579792 0.052929
O O16 0.925873 0.500000 0.000000
O O17 0.270852 0.750000 0.329308
O O18 0.250000 0.927832 0.250000
O O19 0.000000 0.500000 0.500000
O O20 0.000000 0.250000 0.554546
#
# Coordination Sequence:
#
# PCOD9535853 Si02
#       7
#    16  16  16  16  16  16   8
#     4  10  19  33  52  74 101 133 171 213 257 304
#     4  10  19  32  50  75 101 128 164 206 250 299
#     4   9  18  32  49  71  99 132 166 203 247 295
#     4   9  17  30  47  67  96 131 163 195 235 284
#     4   9  16  26  42  64  88 116 154 195 231 268
#     4   9  17  30  50  73  94 121 157 200 243 287
#     4   8  16  30  48  68  94 128 166 206 247 292
#
# _framework density 16.663212000000001
#
# number of rings (size 3 to 8) (size 9 to 14) (size 15 to 20)
#    0.000    2.769    0.000    1.846    0.000    5.538 
#    1.385    0.000    0.000    0.923    0.000    2.154 
#    0.000    0.000    0.000    0.000    0.000    0.000 
#
# Total GULP energy -289557.874967 kJ/mol
# GULP energy per Si atom -5568.420672 kJ/mol
# Density = 1.662529 g / cm^3
# Si number density = 16.663212 Si / 1000 Ang^3
#
#
#
# Elastic Constant Matrix: (Units=GPa)
#
#
# Indices 1 2 3 4 5 6 
#
# 1 99.7327 40.6764 51.1061 0.0000 0.0000 0.0000
# 2 40.6764 47.3798 31.8558 0.0000 0.0000 0.0000
# 3 51.1061 31.8558 61.3413 0.0000 0.0000 0.0000
# 4 0.0000 0.0000 0.0000 22.9183 0.0000 0.0000
# 5 0.0000 0.0000 0.0000 0.0000 27.6688 0.0000
# 6 0.0000 0.0000 0.0000 0.0000 0.0000 21.1900
#
#
#
# Elastic Compliance Matrix: (Units=1/GPa)
#
#
# Indices 1 2 3 4 5 6 
#
# 1 0.019734 -0.009046 -0.011743 0.000000 0.000000 0.000000
# 2 -0.009046 0.036576 -0.011458 0.000000 0.000000 0.000000
# 3 -0.011743 -0.011458 0.032036 0.000000 0.000000 0.000000
# 4 0.000000 0.000000 0.000000 0.043633 0.000000 0.000000
# 5 0.000000 0.000000 0.000000 0.000000 0.036142 0.000000
# 6 0.000000 0.000000 0.000000 0.000000 0.000000 0.047192
#
#
# Mechanical properties :
#
#
# Convention : Reuss Voigt Hill
#
# Bulk Modulus (GPa) = 41.92598 50.63671 46.28134
# Shear Modulus (GPa) = 17.37564 20.00979 18.69271
#
# Velocity S-wave (km/s) = 3.23267 3.46907 3.35295
# Velocity P-wave (km/s) = 6.25692 6.81911 6.54405
#
# Compressibility (1/GPa) = 0.02385156
#
# Stress axis : x y z
#
# Youngs Moduli (GPa) = 50.67375 27.34020 31.21455
#
# Poissons Ratio (x) = 0.24733 0.36656
# Poissons Ratio (y) = 0.45842 0.35765
# Poissons Ratio (z) = 0.59508 0.31326
#
# Static dielectric constant tensor:
#      x y z
#    x 1.584540 0.000000 0.000000 
#    y 0.000000 1.562140 0.000000 
#    z 0.000000 0.000000 1.535890 
# 
# From -- ./inp_files/62333.got.cif
#   From: 2010.05.17/outbox.cif.g08.bks.cpg/sg74_32_cif.got.tgz:62333.got - 2010.06.03 17:57:02.
