data_PCOD9535413
_publ_section_title
;
Structure prediction by ZEFSAII (Michael W. Deem and Ramdas Pophale) SiO2 
 PCOD9535413
Probable space group: I M M A
;
_chemical_formula_sum "Si O2"
_cell_formula_units_Z 52
_cell_length_a 19.123815
_cell_length_b 13.191649
_cell_length_c 7.801972
_cell_angle_alpha 90.000000
_cell_angle_beta 90.000000
_cell_angle_gamma 90.000000
_cell_volume 1968.239795
_symmetry_space_group_name_H-M "I M M A"
_symmetry_group_IT_number 74
_symmetry_cell_setting 'orthorhombic'
loop_
_space_group_symop_operation_xyz
x,y,z
-x,1/2-y,z
x,-y,-z
-x,1/2+y,-z
-x,-y,-z
x,1/2+y,-z
-x,y,z
x,1/2-y,z
1/2+x,1/2+y,1/2+z
1/2-x,-y,1/2+z
1/2+x,1/2-y,1/2-z
1/2-x,y,1/2-z
1/2-x,1/2-y,1/2-z
1/2+x,y,1/2-z
1/2-x,1/2+y,1/2+z
1/2+x,-y,1/2+z
loop_
_atom_site_type_symbol
_atom_site_label
_atom_site_fract_x
_atom_site_fract_y
_atom_site_fract_z
Si Si1 0.095267 0.950744 0.681657
Si Si2 0.137208 0.136633 0.838787
Si Si3 0.500000 0.750000 0.772047
Si Si4 0.721560 0.862902 0.977390
O O1 0.178192 0.931288 0.651584
O O2 0.059715 0.842905 0.718554
O O3 0.072007 0.000000 0.500000
O O4 0.086491 0.041487 0.817231
O O5 0.106939 0.250000 0.870702
O O6 0.176698 0.142046 0.654554
O O7 0.198937 0.115612 0.972609
O O8 0.719239 0.750000 0.910492
#
# Coordination Sequence:
#
# PCOD9535413 Si02
#       4
#    16  16   4  16
#     4  10  19  30  47  68 105 137 174 203 250 314
#     4   8  15  27  48  68  90 129 175 221 259 288
#     4  12  22  32  42  72 108 152 172 188 250 326
#     4   8  13  27  47  66  89 129 175 217 249 294
#
# _framework density 26.419543999999998
#
# number of rings (size 3 to 8) (size 9 to 14) (size 15 to 20)
#    0.000    3.077    1.538    2.308    2.154    0.000 
#    0.000    0.000    3.385    3.692    0.000    0.000 
#    0.000    4.923    0.000   29.077    0.000   11.692 
#
# Total GULP energy -144761.726181 kJ/mol
# GULP energy per Si atom -5567.758699 kJ/mol
# Density = 2.635941 g / cm^3
# Si number density = 26.419544 Si / 1000 Ang^3
#
#
#
# Elastic Constant Matrix: (Units=GPa)
#
#
# Indices 1 2 3 4 5 6 
#
# 1 113.6699 80.1459 15.0603 0.0000 0.0000 0.0000
# 2 80.1459 343.1771 27.3272 0.0000 0.0000 0.0000
# 3 15.0603 27.3272 99.4075 0.0000 0.0000 0.0000
# 4 0.0000 0.0000 0.0000 11.2489 0.0000 0.0000
# 5 0.0000 0.0000 0.0000 0.0000 119.5314 0.0000
# 6 0.0000 0.0000 0.0000 0.0000 0.0000 -20.1007
#
#
#
# Elastic Compliance Matrix: (Units=1/GPa)
#
#
# Indices 1 2 3 4 5 6 
#
# 1 0.010618 -0.002404 -0.000948 0.000000 0.000000 0.000000
# 2 -0.002404 0.003524 -0.000604 0.000000 0.000000 0.000000
# 3 -0.000948 -0.000604 0.010369 0.000000 0.000000 0.000000
# 4 0.000000 0.000000 0.000000 0.088898 0.000000 0.000000
# 5 0.000000 0.000000 0.000000 0.000000 0.008366 0.000000
# 6 0.000000 0.000000 0.000000 0.000000 0.000000 -0.049750
#
#
# Mechanical properties :
#
#
# Convention : Reuss Voigt Hill
#
# Bulk Modulus (GPa) = 60.24722 89.03569 74.64145
# Shear Modulus (GPa) = 58.49936 51.05067 54.77501
#
# Velocity S-wave (km/s) = 4.71068 4.40057 4.55826
# Velocity P-wave (km/s) = 7.24161 7.71971 7.48448
#
# Compressibility (1/GPa) = 0.01659828
#
# Stress axis : x y z
#
# Youngs Moduli (GPa) = 94.17802 283.80233 96.43831
#
# Poissons Ratio (x) = 0.68235 0.09140
# Poissons Ratio (y) = 0.22643 0.05829
# Poissons Ratio (z) = 0.08925 0.17152
#
# Static dielectric constant tensor:
#      x y z
#    x 2.033270 0.000000 0.000000 
#    y 0.000000 2.087810 0.000000 
#    z 0.000000 0.000000 2.136540 
# 
# From -- ./inp_files/11573.got.cif
#   From: 2010.05.17/outbox.cif.g08.bks.cpg/sg74_6_cif.got.tgz:11573.got - 2010.06.03 17:57:02.
