data_PCOD9535970
_publ_section_title
;
Structure prediction by ZEFSAII (Michael W. Deem and Ramdas Pophale) SiO2 
 PCOD9535970
Probable space group: I M M A
;
_chemical_formula_sum "Si O2"
_cell_formula_units_Z 112
_cell_length_a 29.431784
_cell_length_b 16.780032
_cell_length_c 10.434122
_cell_angle_alpha 90.000000
_cell_angle_beta 90.000000
_cell_angle_gamma 90.000000
_cell_volume 5153.060989
_symmetry_space_group_name_H-M "I M M A"
_symmetry_group_IT_number 74
_symmetry_cell_setting 'orthorhombic'
loop_
_space_group_symop_operation_xyz
x,y,z
-x,1/2-y,z
x,-y,-z
-x,1/2+y,-z
-x,-y,-z
x,1/2+y,-z
-x,y,z
x,1/2-y,z
1/2+x,1/2+y,1/2+z
1/2-x,-y,1/2+z
1/2+x,1/2-y,1/2-z
1/2-x,y,1/2-z
1/2-x,1/2-y,1/2-z
1/2+x,y,1/2-z
1/2-x,1/2+y,1/2+z
1/2+x,-y,1/2+z
loop_
_atom_site_type_symbol
_atom_site_label
_atom_site_fract_x
_atom_site_fract_y
_atom_site_fract_z
Si Si1 0.079478 0.160385 0.718882
Si Si2 0.814891 0.342784 0.305066
Si Si3 0.321513 0.888270 0.264320
Si Si4 0.901521 0.084824 0.449683
Si Si5 0.255708 0.904753 0.028407
Si Si6 0.646258 0.544219 0.629541
Si Si7 0.050343 0.515947 0.788129
O O1 0.060754 0.250000 0.738813
O O2 0.131892 0.160158 0.766974
O O3 0.081311 0.137598 0.567965
O O4 0.057016 0.080459 0.779972
O O5 0.812367 0.250000 0.291688
O O6 0.861414 0.369088 0.377556
O O7 0.773055 0.369693 0.393604
O O8 0.823338 0.381625 0.165921
O O9 0.294580 0.879826 0.132049
O O10 0.288348 0.878370 0.386783
O O11 0.339005 0.979508 0.264954
O O12 0.940613 0.055639 0.351490
O O13 0.882847 0.000000 0.500000
O O14 0.254295 0.000000 0.000000
O O15 0.656619 0.500000 0.500000
O O16 0.592127 0.553483 0.633145
O O17 0.000000 0.533761 0.834362
#
# Coordination Sequence:
#
# PCOD9535970 Si02
#       7
#    16  16  16  16  16  16  16
#     4  10  19  32  52  82 124 163 197 245 309 371
#     4  11  21  35  60  92 124 158 202 261 321 368
#     4  10  21  34  58  87 119 166 209 250 298 379
#     4   9  17  31  54  80 117 158 197 242 295 372
#     4  11  20  35  60  89 123 162 215 258 305 372
#     4  10  21  41  63  84 117 162 212 257 314 383
#     4   9  20  36  57  85 113 152 207 261 307 374
#
# _framework density 21.734653999999999
#
# number of rings (size 3 to 8) (size 9 to 14) (size 15 to 20)
#    0.000    2.000    2.857    2.143    0.000    3.714 
#    0.000    4.286    0.000   16.286    0.000    0.000 
#    0.000    0.000    0.000    0.000    0.000    0.000 
#
# Total GULP energy -312357.993558 kJ/mol
# GULP energy per Si atom -5577.821314 kJ/mol
# Density = 2.168518 g / cm^3
# Si number density = 21.734654 Si / 1000 Ang^3
#
#
#
# Elastic Constant Matrix: (Units=GPa)
#
#
# Indices 1 2 3 4 5 6 
#
# 1 135.5761 28.7504 31.4646 0.0000 0.0000 0.0000
# 2 28.7504 126.4417 26.8265 0.0000 0.0000 0.0000
# 3 31.4646 26.8265 102.5331 0.0000 0.0000 0.0000
# 4 0.0000 0.0000 0.0000 9.0103 0.0000 0.0000
# 5 0.0000 0.0000 0.0000 0.0000 8.0940 0.0000
# 6 0.0000 0.0000 0.0000 0.0000 0.0000 26.0885
#
#
#
# Elastic Compliance Matrix: (Units=1/GPa)
#
#
# Indices 1 2 3 4 5 6 
#
# 1 0.008170 -0.001404 -0.002140 0.000000 0.000000 0.000000
# 2 -0.001404 0.008615 -0.001823 0.000000 0.000000 0.000000
# 3 -0.002140 -0.001823 0.010887 0.000000 0.000000 0.000000
# 4 0.000000 0.000000 0.000000 0.110985 0.000000 0.000000
# 5 0.000000 0.000000 0.000000 0.000000 0.123548 0.000000
# 6 0.000000 0.000000 0.000000 0.000000 0.000000 0.038331
#
#
# Mechanical properties :
#
#
# Convention : Reuss Voigt Hill
#
# Bulk Modulus (GPa) = 59.03906 59.84821 59.44363
# Shear Modulus (GPa) = 15.77708 27.13919 21.45814
#
# Velocity S-wave (km/s) = 2.69717 3.53747 3.14551
# Velocity P-wave (km/s) = 6.07636 6.65436 6.37192
#
# Compressibility (1/GPa) = 0.01693794
#
# Stress axis : x y z
#
# Youngs Moduli (GPa) = 122.39529 116.07963 91.85562
#
# Poissons Ratio (x) = 0.16294 0.19657
# Poissons Ratio (y) = 0.17181 0.16747
# Poissons Ratio (z) = 0.26192 0.21163
#
# Static dielectric constant tensor:
#      x y z
#    x 1.817980 0.000000 0.000000 
#    y 0.000000 1.779840 0.000000 
#    z 0.000000 0.000000 1.888670 
# 
# From -- ./inp_files/27245.got.cif
#   From: 2010.05.17/outbox.cif.g08.bks.cpg/sg74_14_cif.got.tgz:27245.got - 2010.06.03 17:57:02.
