data_PCOD9535860
_publ_section_title
;
Structure prediction by ZEFSAII (Michael W. Deem and Ramdas Pophale) SiO2 
 PCOD9535860
Probable space group: I M M A
;
_chemical_formula_sum "Si O2"
_cell_formula_units_Z 96
_cell_length_a 19.274554
_cell_length_b 26.596738
_cell_length_c 10.132960
_cell_angle_alpha 90.000000
_cell_angle_beta 90.000000
_cell_angle_gamma 90.000000
_cell_volume 5194.563277
_symmetry_space_group_name_H-M "I M M A"
_symmetry_group_IT_number 74
_symmetry_cell_setting 'orthorhombic'
loop_
_space_group_symop_operation_xyz
x,y,z
-x,1/2-y,z
x,-y,-z
-x,1/2+y,-z
-x,-y,-z
x,1/2+y,-z
-x,y,z
x,1/2-y,z
1/2+x,1/2+y,1/2+z
1/2-x,-y,1/2+z
1/2+x,1/2-y,1/2-z
1/2-x,y,1/2-z
1/2-x,1/2-y,1/2-z
1/2+x,y,1/2-z
1/2-x,1/2+y,1/2+z
1/2+x,-y,1/2+z
loop_
_atom_site_type_symbol
_atom_site_label
_atom_site_fract_x
_atom_site_fract_y
_atom_site_fract_z
Si Si1 0.212722 0.853247 0.882199
Si Si2 0.419526 0.004224 0.190948
Si Si3 0.181550 0.193478 0.838954
Si Si4 0.577286 0.087400 0.397003
Si Si5 0.919415 0.602571 0.207072
Si Si6 0.779285 0.540816 0.603008
O O1 0.250000 0.833072 0.750000
O O2 0.137567 0.876353 0.844841
O O3 0.255913 0.902714 0.927851
O O4 0.201607 0.818306 0.008678
O O5 0.500000 0.007318 0.148124
O O6 0.398903 0.946085 0.207745
O O7 0.416701 0.032914 0.331457
O O8 0.362258 0.034066 0.108368
O O9 0.152571 0.250000 0.830882
O O10 0.250000 0.191006 0.750000
O O11 0.128868 0.151118 0.786932
O O12 0.500000 0.106595 0.365421
O O13 0.584088 0.085549 0.554054
O O14 0.000000 0.614086 0.236417
O O15 0.751359 0.500000 0.500000
O O16 0.750000 0.530056 0.750000
#
# Coordination Sequence:
#
# PCOD9535860 Si02
#       6
#    16  16  16  16  16  16
#     4  10  20  36  54  82 109 141 189 222 276 327
#     4  10  19  32  50  77 114 151 181 216 262 326
#     4  10  23  39  59  82 106 140 184 237 287 327
#     4   9  16  30  50  76 113 146 178 217 261 321
#     4   9  19  32  54  82 108 143 182 224 276 324
#     4  11  24  34  51  81 115 152 185 220 266 324
#
# _framework density 18.48086
#
# number of rings (size 3 to 8) (size 9 to 14) (size 15 to 20)
#    0.000    2.167    3.333    0.500    7.000    3.000 
#    0.000    0.000    0.000    1.000    0.000    0.000 
#    0.000    0.000    0.000    0.000    0.000    0.000 
#
# Total GULP energy -267685.161528 kJ/mol
# GULP energy per Si atom -5576.774199 kJ/mol
# Density = 1.843880 g / cm^3
# Si number density = 18.480860 Si / 1000 Ang^3
#
#
#
# Elastic Constant Matrix: (Units=GPa)
#
#
# Indices 1 2 3 4 5 6 
#
# 1 99.7797 41.6541 8.0659 0.0000 0.0000 0.0000
# 2 41.6541 87.7662 22.2391 0.0000 0.0000 0.0000
# 3 8.0659 22.2391 33.3783 0.0000 0.0000 0.0000
# 4 0.0000 0.0000 0.0000 20.5583 0.0000 0.0000
# 5 0.0000 0.0000 0.0000 0.0000 15.2581 0.0000
# 6 0.0000 0.0000 0.0000 0.0000 0.0000 35.3655
#
#
#
# Elastic Compliance Matrix: (Units=1/GPa)
#
#
# Indices 1 2 3 4 5 6 
#
# 1 0.012533 -0.006233 0.001124 0.000000 0.000000 0.000000
# 2 -0.006233 0.016808 -0.009693 0.000000 0.000000 0.000000
# 3 0.001124 -0.009693 0.036146 0.000000 0.000000 0.000000
# 4 0.000000 0.000000 0.000000 0.048642 0.000000 0.000000
# 5 0.000000 0.000000 0.000000 0.000000 0.065539 0.000000
# 6 0.000000 0.000000 0.000000 0.000000 0.000000 0.028276
#
#
# Mechanical properties :
#
#
# Convention : Reuss Voigt Hill
#
# Bulk Modulus (GPa) = 27.86727 40.53804 34.20266
# Shear Modulus (GPa) = 20.03933 24.16737 22.10335
#
# Velocity S-wave (km/s) = 3.29649 3.62013 3.46209
# Velocity P-wave (km/s) = 5.44066 6.28145 5.87611
#
# Compressibility (1/GPa) = 0.03588438
#
# Stress axis : x y z
#
# Youngs Moduli (GPa) = 79.78722 59.49455 27.66570
#
# Poissons Ratio (x) = 0.37085 -0.03111
# Poissons Ratio (y) = 0.49734 0.26815
# Poissons Ratio (z) = -0.08971 0.57666
#
# Static dielectric constant tensor:
#      x y z
#    x 1.677920 0.000000 0.000000 
#    y 0.000000 1.613550 0.000000 
#    z 0.000000 0.000000 1.677490 
# 
# From -- ./inp_files/22631.got.cif
#   From: 2010.05.17/outbox.cif.g08.bks.cpg/sg74_12_cif.got.tgz:22631.got - 2010.06.03 17:57:02.
