data_PCOD9535736
_publ_section_title
;
Structure prediction by ZEFSAII (Michael W. Deem and Ramdas Pophale) SiO2 
 PCOD9535736
Probable space group: I M M A
;
_chemical_formula_sum "Si O2"
_cell_formula_units_Z 96
_cell_length_a 20.599752
_cell_length_b 17.830939
_cell_length_c 15.722447
_cell_angle_alpha 90.000000
_cell_angle_beta 90.000000
_cell_angle_gamma 90.000000
_cell_volume 5775.057938
_symmetry_space_group_name_H-M "I M M A"
_symmetry_group_IT_number 74
_symmetry_cell_setting 'orthorhombic'
loop_
_space_group_symop_operation_xyz
x,y,z
-x,1/2-y,z
x,-y,-z
-x,1/2+y,-z
-x,-y,-z
x,1/2+y,-z
-x,y,z
x,1/2-y,z
1/2+x,1/2+y,1/2+z
1/2-x,-y,1/2+z
1/2+x,1/2-y,1/2-z
1/2-x,y,1/2-z
1/2-x,1/2-y,1/2-z
1/2+x,y,1/2-z
1/2-x,1/2+y,1/2+z
1/2+x,-y,1/2+z
loop_
_atom_site_type_symbol
_atom_site_label
_atom_site_fract_x
_atom_site_fract_y
_atom_site_fract_z
Si Si1 0.500000 0.658117 0.322413
Si Si2 0.793373 0.559784 0.833002
Si Si3 0.716296 0.162962 0.612166
Si Si4 0.629127 0.163282 0.447221
Si Si5 0.130110 0.426030 0.763025
Si Si6 0.000000 0.588915 0.989105
Si Si7 0.184615 0.040962 0.582023
O O1 0.500000 0.750000 0.314400
O O2 0.436112 0.618102 0.282662
O O3 0.500000 0.633888 0.421320
O O4 0.750000 0.575030 0.750000
O O5 0.819549 0.632227 0.879949
O O6 0.853620 0.504657 0.810281
O O7 0.744527 0.513696 0.893114
O O8 0.729557 0.250000 0.625677
O O9 0.659990 0.154827 0.541187
O O10 0.687905 0.125698 0.697925
O O11 0.778502 0.120348 0.573747
O O12 0.614206 0.250000 0.433989
O O13 0.564660 0.114604 0.442175
O O14 0.139303 0.445820 0.663878
O O15 0.000000 0.500000 0.000000
O O16 0.154414 0.000000 0.500000
#
# Coordination Sequence:
#
# PCOD9535736 Si02
#       7
#     8  16  16  16  16   8  16
#     4  12  22  36  53  77 116 147 180 225 280 340
#     4   9  19  35  54  77 106 140 184 226 263 320
#     4  10  19  31  52  79 110 139 172 220 277 335
#     4  11  21  33  51  79 111 144 179 217 269 328
#     4  10  21  33  52  78 103 146 180 220 271 326
#     4  12  24  34  54  79 114 155 180 217 267 335
#     4  10  19  34  54  74 106 136 180 230 270 320
#
# _framework density 16.62321
#
# number of rings (size 3 to 8) (size 9 to 14) (size 15 to 20)
#    0.000    1.667    3.333    3.750    2.333    2.333 
#    0.000    0.417    0.000    0.000    0.000    0.000 
#    0.000    0.000    0.000    0.000    0.000    0.000 
#
# Total GULP energy -267527.811373 kJ/mol
# GULP energy per Si atom -5573.496070 kJ/mol
# Density = 1.658537 g / cm^3
# Si number density = 16.623210 Si / 1000 Ang^3
#
#
#
# Elastic Constant Matrix: (Units=GPa)
#
#
# Indices 1 2 3 4 5 6 
#
# 1 61.9767 32.6165 18.8236 0.0000 0.0000 0.0000
# 2 32.6165 80.1069 42.9467 0.0000 0.0000 0.0000
# 3 18.8236 42.9467 81.6710 0.0000 0.0000 0.0000
# 4 0.0000 0.0000 0.0000 23.0754 0.0000 0.0000
# 5 0.0000 0.0000 0.0000 0.0000 16.7184 0.0000
# 6 0.0000 0.0000 0.0000 0.0000 0.0000 13.7791
#
#
#
# Elastic Compliance Matrix: (Units=1/GPa)
#
#
# Indices 1 2 3 4 5 6 
#
# 1 0.020548 -0.008115 -0.000469 0.000000 0.000000 0.000000
# 2 -0.008115 0.020589 -0.008956 0.000000 0.000000 0.000000
# 3 -0.000469 -0.008956 0.017062 0.000000 0.000000 0.000000
# 4 0.000000 0.000000 0.000000 0.043336 0.000000 0.000000
# 5 0.000000 0.000000 0.000000 0.000000 0.059814 0.000000
# 6 0.000000 0.000000 0.000000 0.000000 0.000000 0.072573
#
#
# Mechanical properties :
#
#
# Convention : Reuss Voigt Hill
#
# Bulk Modulus (GPa) = 43.25459 45.83647 44.54553
# Shear Modulus (GPa) = 18.06943 19.33910 18.70426
#
# Velocity S-wave (km/s) = 3.30055 3.41453 3.35802
# Velocity P-wave (km/s) = 6.37196 6.57108 6.47228
#
# Compressibility (1/GPa) = 0.02311893
#
# Stress axis : x y z
#
# Youngs Moduli (GPa) = 48.66598 48.56901 58.60980
#
# Poissons Ratio (x) = 0.39415 0.02746
# Poissons Ratio (y) = 0.39494 0.52494
# Poissons Ratio (z) = 0.02280 0.43501
#
# Static dielectric constant tensor:
#      x y z
#    x 1.567650 0.000000 0.000000 
#    y 0.000000 1.559010 0.000000 
#    z 0.000000 0.000000 1.590250 
# 
# From -- ./inp_files/35312.got.cif
#   From: 2010.05.17/outbox.cif.g08.bks.cpg/sg74_18_cif.got.tgz:35312.got - 2010.06.03 17:57:02.
