data_PCOD9535346
_publ_section_title
;
Structure prediction by ZEFSAII (Michael W. Deem and Ramdas Pophale) SiO2 
 PCOD9535346
Probable space group: I M M A
;
_chemical_formula_sum "Si O2"
_cell_formula_units_Z 96
_cell_length_a 25.381472
_cell_length_b 7.294880
_cell_length_c 23.161590
_cell_angle_alpha 90.000000
_cell_angle_beta 90.000000
_cell_angle_gamma 90.000000
_cell_volume 4288.479390
_symmetry_space_group_name_H-M "I M M A"
_symmetry_group_IT_number 74
_symmetry_cell_setting 'orthorhombic'
loop_
_space_group_symop_operation_xyz
x,y,z
-x,1/2-y,z
x,-y,-z
-x,1/2+y,-z
-x,-y,-z
x,1/2+y,-z
-x,y,z
x,1/2-y,z
1/2+x,1/2+y,1/2+z
1/2-x,-y,1/2+z
1/2+x,1/2-y,1/2-z
1/2-x,y,1/2-z
1/2-x,1/2-y,1/2-z
1/2+x,y,1/2-z
1/2-x,1/2+y,1/2+z
1/2+x,-y,1/2+z
loop_
_atom_site_type_symbol
_atom_site_label
_atom_site_fract_x
_atom_site_fract_y
_atom_site_fract_z
Si Si1 0.000000 0.973545 0.787889
Si Si2 0.386187 0.973826 0.672183
Si Si3 0.585792 0.532097 0.936925
Si Si4 0.315008 0.031893 0.434317
Si Si5 0.000000 0.525724 0.653892
Si Si6 0.807171 0.472559 0.272036
Si Si7 0.197872 0.026742 0.404718
O O1 0.053601 0.031672 0.819439
O O2 0.000000 0.750000 0.787290
O O3 0.000000 0.031027 0.720537
O O4 0.386325 0.750000 0.671527
O O5 0.355207 0.035265 0.614785
O O6 0.352397 0.031145 0.728146
O O7 0.588849 0.750000 0.928860
O O8 0.550439 0.465676 0.883754
O O9 0.645619 0.460888 0.936824
O O10 0.562020 0.500000 0.000000
O O11 0.312041 0.250000 0.425595
O O12 0.255086 0.961782 0.425696
O O13 0.332050 0.000000 0.500000
O O14 0.000000 0.750000 0.654615
O O15 0.807807 0.250000 0.271101
O O16 0.750000 0.530817 0.250000
O O17 0.811662 0.525402 0.338277
O O18 0.199480 0.250000 0.407955
#
# Coordination Sequence:
#
# PCOD9535346 Si02
#       7
#     8  16  16  16   8  16  16
#     4   9  16  27  44  67  93 115 138 185 242 278
#     4   9  16  26  42  66  93 116 144 183 230 274
#     4  10  19  30  44  64  92 125 156 185 216 260
#     4  10  19  31  46  67  93 121 151 184 222 268
#     4   9  17  29  44  65  93 119 146 185 234 272
#     4   9  13  21  39  64  90 112 139 184 232 266
#     4   9  16  26  42  66  94 119 148 186 228 268
#
# _framework density 22.385558
#
# number of rings (size 3 to 8) (size 9 to 14) (size 15 to 20)
#    0.000    2.667    1.667    1.750    0.000    4.000 
#    0.000    0.417    0.000    0.000    0.000    8.167 
#    0.000    0.000    0.000    0.000    0.000    0.000 
#
# Total GULP energy -268169.962407 kJ/mol
# GULP energy per Si atom -5586.874217 kJ/mol
# Density = 2.233461 g / cm^3
# Si number density = 22.385558 Si / 1000 Ang^3
#
#
#
# Elastic Constant Matrix: (Units=GPa)
#
#
# Indices 1 2 3 4 5 6 
#
# 1 183.3940 6.3181 79.9759 0.0000 0.0000 0.0000
# 2 6.3181 94.3370 -5.0087 0.0000 0.0000 0.0000
# 3 79.9759 -5.0087 152.1193 0.0000 0.0000 0.0000
# 4 0.0000 0.0000 0.0000 9.3696 0.0000 0.0000
# 5 0.0000 0.0000 0.0000 0.0000 19.1363 0.0000
# 6 0.0000 0.0000 0.0000 0.0000 0.0000 -21.5493
#
#
#
# Elastic Compliance Matrix: (Units=1/GPa)
#
#
# Indices 1 2 3 4 5 6 
#
# 1 0.007118 -0.000677 -0.003764 0.000000 0.000000 0.000000
# 2 -0.000677 0.010683 0.000707 0.000000 0.000000 0.000000
# 3 -0.003764 0.000707 0.008576 0.000000 0.000000 0.000000
# 4 0.000000 0.000000 0.000000 0.106728 0.000000 0.000000
# 5 0.000000 0.000000 0.000000 0.000000 0.052257 0.000000
# 6 0.000000 0.000000 0.000000 0.000000 0.000000 -0.046405
#
#
# Mechanical properties :
#
#
# Convention : Reuss Voigt Hill
#
# Bulk Modulus (GPa) = 52.88185 65.82456 59.35320
# Shear Modulus (GPa) = 32.73814 24.62897 28.68356
#
# Velocity S-wave (km/s) = 3.82837 3.32055 3.58347
# Velocity P-wave (km/s) = 6.57392 6.64606 6.61009
#
# Compressibility (1/GPa) = 0.01891008
#
# Stress axis : x y z
#
# Youngs Moduli (GPa) = 140.49622 93.60523 116.60224
#
# Poissons Ratio (x) = 0.06333 0.43893
# Poissons Ratio (y) = 0.09505 -0.08249
# Poissons Ratio (z) = 0.52887 -0.06622
#
# Static dielectric constant tensor:
#      x y z
#    x 1.811870 0.000000 0.000000 
#    y 0.000000 1.899610 0.000000 
#    z 0.000000 0.000000 1.802300 
# 
# From -- ./inp_files/46654.got.cif
#   From: 2010.05.17/outbox.cif.g08.bks.cpg/sg74_24_cif.got.tgz:46654.got - 2010.06.03 17:57:02.
