data_PCOD9535868
_publ_section_title
;
Structure prediction by ZEFSAII (Michael W. Deem and Ramdas Pophale) SiO2 
 PCOD9535868
Probable space group: I M M A
;
_chemical_formula_sum "Si O2"
_cell_formula_units_Z 88
_cell_length_a 32.221241
_cell_length_b 7.667560
_cell_length_c 17.978257
_cell_angle_alpha 90.000000
_cell_angle_beta 90.000000
_cell_angle_gamma 90.000000
_cell_volume 4441.677587
_symmetry_space_group_name_H-M "I M M A"
_symmetry_group_IT_number 74
_symmetry_cell_setting 'orthorhombic'
loop_
_space_group_symop_operation_xyz
x,y,z
-x,1/2-y,z
x,-y,-z
-x,1/2+y,-z
-x,-y,-z
x,1/2+y,-z
-x,y,z
x,1/2-y,z
1/2+x,1/2+y,1/2+z
1/2-x,-y,1/2+z
1/2+x,1/2-y,1/2-z
1/2-x,y,1/2-z
1/2-x,1/2-y,1/2-z
1/2+x,y,1/2-z
1/2-x,1/2+y,1/2+z
1/2+x,-y,1/2+z
loop_
_atom_site_type_symbol
_atom_site_label
_atom_site_fract_x
_atom_site_fract_y
_atom_site_fract_z
Si Si1 0.164057 0.957153 0.581077
Si Si2 0.703051 0.963647 0.763864
Si Si3 0.916035 0.952615 0.342750
Si Si4 0.000000 0.540074 0.413338
Si Si5 0.953452 0.460033 0.087448
Si Si6 0.121346 0.449530 0.188500
O O1 0.160073 0.750000 0.586575
O O2 0.189946 0.017079 0.652791
O O3 0.181192 0.000000 0.500000
O O4 0.118473 0.035811 0.593095
O O5 0.702159 0.750000 0.761244
O O6 0.750000 0.019646 0.750000
O O7 0.667331 0.024892 0.705857
O O8 0.920937 0.750000 0.321625
O O9 0.958874 0.025249 0.373106
O O10 0.899158 0.049062 0.270342
O O11 0.000000 0.500000 0.500000
O O12 0.000000 0.750000 0.406920
O O13 0.953997 0.250000 0.096960
O O14 0.913675 0.527703 0.133796
O O15 0.000000 0.523206 0.110167
O O16 0.948761 0.500000 0.000000
O O17 0.127934 0.250000 0.163359
#
# Coordination Sequence:
#
# PCOD9535868 Si02
#       6
#    16  16  16   8  16  16
#     4  10  19  32  51  73  96 126 164 201 244 292
#     4   8  15  30  51  72  95 125 161 200 243 293
#     4  10  20  33  48  69  97 127 162 200 239 284
#     4  10  22  34  44  64  93 126 159 192 233 278
#     4   9  18  32  49  71  99 130 165 204 247 295
#     4   9  18  32  51  74  96 126 166 202 243 295
#
# _framework density 19.812335000000001
#
# number of rings (size 3 to 8) (size 9 to 14) (size 15 to 20)
#    0.000    2.727    0.000    2.727    1.273    3.636 
#    0.000    0.909    0.000   13.636    0.000    0.000 
#    0.000    0.000    0.000    0.000    0.000    0.000 
#
# Total GULP energy -245228.696904 kJ/mol
# GULP energy per Si atom -5573.379475 kJ/mol
# Density = 1.976724 g / cm^3
# Si number density = 19.812335 Si / 1000 Ang^3
#
#
#
# Elastic Constant Matrix: (Units=GPa)
#
#
# Indices 1 2 3 4 5 6 
#
# 1 198.6846 3.7912 70.9653 0.0000 0.0000 0.0000
# 2 3.7912 42.3046 -4.9470 0.0000 0.0000 0.0000
# 3 70.9653 -4.9470 75.9840 0.0000 0.0000 0.0000
# 4 0.0000 0.0000 0.0000 22.4800 0.0000 0.0000
# 5 0.0000 0.0000 0.0000 0.0000 21.0892 0.0000
# 6 0.0000 0.0000 0.0000 0.0000 0.0000 -55.4332
#
#
#
# Elastic Compliance Matrix: (Units=1/GPa)
#
#
# Indices 1 2 3 4 5 6 
#
# 1 0.007650 -0.001533 -0.007244 0.000000 0.000000 0.000000
# 2 -0.001533 0.024127 0.003002 0.000000 0.000000 0.000000
# 3 -0.007244 0.003002 0.020122 0.000000 0.000000 0.000000
# 4 0.000000 0.000000 0.000000 0.044484 0.000000 0.000000
# 5 0.000000 0.000000 0.000000 0.000000 0.047418 0.000000
# 6 0.000000 0.000000 0.000000 0.000000 0.000000 -0.018040
#
#
# Mechanical properties :
#
#
# Convention : Reuss Voigt Hill
#
# Bulk Modulus (GPa) = 24.78392 50.73247 37.75820
# Shear Modulus (GPa) = 33.16541 14.10479 23.63510
#
# Velocity S-wave (km/s) = 4.09587 2.67108 3.45766
# Velocity P-wave (km/s) = 5.90802 5.93085 5.91944
#
# Compressibility (1/GPa) = 0.04034873
#
# Stress axis : x y z
#
# Youngs Moduli (GPa) = 130.72124 41.44817 49.69680
#
# Poissons Ratio (x) = 0.06353 0.36002
# Poissons Ratio (y) = 0.20036 -0.14920
# Poissons Ratio (z) = 0.94699 -0.12444
#
# Static dielectric constant tensor:
#      x y z
#    x 1.722700 0.000000 0.000000 
#    y 0.000000 1.740150 0.000000 
#    z 0.000000 0.000000 1.672340 
# 
# From -- ./inp_files/40120.got.cif
#   From: 2010.05.17/outbox.cif.g08.bks.cpg/sg74_21_cif.got.tgz:40120.got - 2010.06.03 17:57:02.
