data_PCOD9535375
_publ_section_title
;
Structure prediction by ZEFSAII (Michael W. Deem and Ramdas Pophale) SiO2 
 PCOD9535375
Probable space group: I M M A
;
_chemical_formula_sum "Si O2"
_cell_formula_units_Z 84
_cell_length_a 29.955215
_cell_length_b 7.296758
_cell_length_c 16.400140
_cell_angle_alpha 90.000000
_cell_angle_beta 90.000000
_cell_angle_gamma 90.000000
_cell_volume 3584.676258
_symmetry_space_group_name_H-M "I M M A"
_symmetry_group_IT_number 74
_symmetry_cell_setting 'orthorhombic'
loop_
_space_group_symop_operation_xyz
x,y,z
-x,1/2-y,z
x,-y,-z
-x,1/2+y,-z
-x,-y,-z
x,1/2+y,-z
-x,y,z
x,1/2-y,z
1/2+x,1/2+y,1/2+z
1/2-x,-y,1/2+z
1/2+x,1/2-y,1/2-z
1/2-x,y,1/2-z
1/2-x,1/2-y,1/2-z
1/2+x,y,1/2-z
1/2-x,1/2+y,1/2+z
1/2+x,-y,1/2+z
loop_
_atom_site_type_symbol
_atom_site_label
_atom_site_fract_x
_atom_site_fract_y
_atom_site_fract_z
Si Si1 0.500000 0.500000 0.000000
Si Si2 0.429957 0.973308 0.142158
Si Si3 0.048163 0.026940 0.825233
Si Si4 0.235896 0.031277 0.901928
Si Si5 0.139577 0.531582 0.096680
Si Si6 0.167628 0.468306 0.597351
O O1 0.538881 0.464020 0.068972
O O2 0.431278 0.750000 0.136205
O O3 0.448553 0.021807 0.230273
O O4 0.378740 0.035578 0.134255
O O5 0.048614 0.250000 0.830022
O O6 0.093458 0.960192 0.866987
O O7 0.000000 0.966975 0.858771
O O8 0.235994 0.250000 0.888463
O O9 0.187782 0.961474 0.871886
O O10 0.284113 0.960930 0.872644
O O11 0.235992 0.000000 0.000000
O O12 0.140002 0.750000 0.111674
O O13 0.138701 0.500000 0.000000
O O14 0.165312 0.500000 0.500000
O O15 0.168058 0.250000 0.611169
#
# Coordination Sequence:
#
# PCOD9535375 Si02
#       6
#     4  16  16  16  16  16
#     4  12  18  28  48  66  86 120 160 192 214 264
#     4  10  19  30  45  68  94 122 158 193 229 272
#     4   9  17  30  46  66  93 122 152 190 232 277
#     4   8  14  25  42  65  91 116 147 186 229 271
#     4   9  17  30  50  72  92 120 156 190 229 279
#     4   9  16  27  43  65  91 119 151 190 229 269
#
# _framework density 23.433078999999999
#
# number of rings (size 3 to 8) (size 9 to 14) (size 15 to 20)
#    0.000    2.857    1.905    0.286    0.000    0.381 
#    0.000    0.952    0.000    9.143    0.000    0.000 
#    0.000   15.238    0.000    0.000    0.000    0.000 
#
# Total GULP energy -233816.489500 kJ/mol
# GULP energy per Si atom -5567.059274 kJ/mol
# Density = 2.337974 g / cm^3
# Si number density = 23.433079 Si / 1000 Ang^3
#
#
#
# Elastic Constant Matrix: (Units=GPa)
#
#
# Indices 1 2 3 4 5 6 
#
# 1 314.5593 14.2536 49.8326 0.0000 0.0000 0.0000
# 2 14.2536 100.9443 -6.0969 0.0000 0.0000 0.0000
# 3 49.8326 -6.0969 25.2267 0.0000 0.0000 0.0000
# 4 0.0000 0.0000 0.0000 -9.2868 0.0000 0.0000
# 5 0.0000 0.0000 0.0000 0.0000 38.0235 0.0000
# 6 0.0000 0.0000 0.0000 0.0000 0.0000 -10.4969
#
#
#
# Elastic Compliance Matrix: (Units=1/GPa)
#
#
# Indices 1 2 3 4 5 6 
#
# 1 0.004781 -0.001264 -0.009750 0.000000 0.000000 0.000000
# 2 -0.001264 0.010387 0.005007 0.000000 0.000000 0.000000
# 3 -0.009750 0.005007 0.060110 0.000000 0.000000 0.000000
# 4 0.000000 0.000000 0.000000 -0.107679 0.000000 0.000000
# 5 0.000000 0.000000 0.000000 0.000000 0.026299 0.000000
# 6 0.000000 0.000000 0.000000 0.000000 0.000000 -0.095266
#
#
# Mechanical properties :
#
#
# Convention : Reuss Voigt Hill
#
# Bulk Modulus (GPa) = 15.80637 61.85655 38.83146
# Shear Modulus (GPa) = -73.24165 29.16402 -22.03881
#
# Velocity S-wave (km/s) = -5.59674 3.53167 -3.07008
# Velocity P-wave (km/s) = 5.91648 6.56389 2.00997
#
# Compressibility (1/GPa) = 0.06326562
#
# Stress axis : x y z
#
# Youngs Moduli (GPa) = 209.16791 96.27090 16.63619
#
# Poissons Ratio (x) = 0.12168 0.16220
# Poissons Ratio (y) = 0.26437 -0.08330
# Poissons Ratio (z) = 2.03929 -0.48205
#
# Static dielectric constant tensor:
#      x y z
#    x 1.939980 0.000000 0.000000 
#    y 0.000000 1.907340 0.000000 
#    z 0.000000 0.000000 1.797280 
# 
# From -- ./inp_files/37744.got.cif
#   From: 2010.05.17/outbox.cif.g08.bks.cpg/sg74_19_cif.got.tgz:37744.got - 2010.06.03 17:57:02.
