data_PCOD9535251
_publ_section_title
;
Structure prediction by ZEFSAII (Michael W. Deem and Ramdas Pophale) SiO2 
 PCOD9535251
Probable space group: I M M A
;
_chemical_formula_sum "Si O2"
_cell_formula_units_Z 112
_cell_length_a 27.299557
_cell_length_b 14.052406
_cell_length_c 15.866018
_cell_angle_alpha 90.000000
_cell_angle_beta 90.000000
_cell_angle_gamma 90.000000
_cell_volume 6086.592565
_symmetry_space_group_name_H-M "I M M A"
_symmetry_group_IT_number 74
_symmetry_cell_setting 'orthorhombic'
loop_
_space_group_symop_operation_xyz
x,y,z
-x,1/2-y,z
x,-y,-z
-x,1/2+y,-z
-x,-y,-z
x,1/2+y,-z
-x,y,z
x,1/2-y,z
1/2+x,1/2+y,1/2+z
1/2-x,-y,1/2+z
1/2+x,1/2-y,1/2-z
1/2-x,y,1/2-z
1/2-x,1/2-y,1/2-z
1/2+x,y,1/2-z
1/2-x,1/2+y,1/2+z
1/2+x,-y,1/2+z
loop_
_atom_site_type_symbol
_atom_site_label
_atom_site_fract_x
_atom_site_fract_y
_atom_site_fract_z
Si Si1 0.558741 0.642963 0.136575
Si Si2 0.722781 0.862575 0.571910
Si Si3 0.941447 0.048131 0.285950
Si Si4 0.359308 0.636590 0.692212
Si Si5 0.209831 0.009006 0.310266
Si Si6 0.801150 0.362451 0.552137
Si Si7 0.603243 0.862995 0.955450
O O1 0.500000 0.646723 0.132656
O O2 0.577501 0.750000 0.152756
O O3 0.570785 0.563977 0.205915
O O4 0.576607 0.612994 0.043466
O O5 0.731474 0.750000 0.583159
O O6 0.667069 0.879724 0.601705
O O7 0.756695 0.919306 0.636185
O O8 0.746103 0.884644 0.480772
O O9 0.913904 0.099803 0.209348
O O10 0.920230 0.090454 0.373669
O O11 0.000000 0.060354 0.283405
O O12 0.356090 0.750000 0.710410
O O13 0.327929 0.573466 0.758269
O O14 0.250000 0.959648 0.250000
O O15 0.186587 0.929547 0.369989
O O16 0.805218 0.250000 0.570895
O O17 0.839878 0.383054 0.476940
O O18 0.598699 0.750000 0.943504
#
# Coordination Sequence:
#
# PCOD9535251 Si02
#       7
#    16  16  16  16  16  16  16
#     4   9  18  31  44  60  87 124 163 198 230 274
#     4   9  18  32  48  66  90 124 165 200 232 280
#     4  11  21  31  46  68  93 122 158 201 245 284
#     4  10  20  33  48  67  94 128 163 199 241 287
#     4  10  19  31  50  74  99 125 158 201 246 283
#     4  10  20  33  50  71  97 132 169 200 233 281
#     4  10  19  29  42  63  93 129 165 197 231 276
#
# _framework density 18.401098999999999
#
# number of rings (size 3 to 8) (size 9 to 14) (size 15 to 20)
#    0.000    2.143    0.000    3.857    0.000    7.143 
#    0.000    0.000    0.000    0.857    0.000    0.000 
#    0.000    9.143    0.000    2.000    0.000   10.714 
#
# Total GULP energy -312227.322753 kJ/mol
# GULP energy per Si atom -5575.487906 kJ/mol
# Density = 1.835922 g / cm^3
# Si number density = 18.401099 Si / 1000 Ang^3
#
#
#
# Elastic Constant Matrix: (Units=GPa)
#
#
# Indices 1 2 3 4 5 6 
#
# 1 82.9756 30.6918 23.4309 0.0000 0.0000 0.0000
# 2 30.6918 64.6988 17.2302 0.0000 0.0000 0.0000
# 3 23.4309 17.2302 24.5693 0.0000 0.0000 0.0000
# 4 0.0000 0.0000 0.0000 15.8816 0.0000 0.0000
# 5 0.0000 0.0000 0.0000 0.0000 29.6223 0.0000
# 6 0.0000 0.0000 0.0000 0.0000 0.0000 22.1674
#
#
#
# Elastic Compliance Matrix: (Units=1/GPa)
#
#
# Indices 1 2 3 4 5 6 
#
# 1 0.017616 -0.004774 -0.013452 0.000000 0.000000 0.000000
# 2 -0.004774 0.020300 -0.009683 0.000000 0.000000 0.000000
# 3 -0.013452 -0.009683 0.060320 0.000000 0.000000 0.000000
# 4 0.000000 0.000000 0.000000 0.062966 0.000000 0.000000
# 5 0.000000 0.000000 0.000000 0.000000 0.033758 0.000000
# 6 0.000000 0.000000 0.000000 0.000000 0.000000 0.045111
#
#
# Mechanical properties :
#
#
# Convention : Reuss Voigt Hill
#
# Bulk Modulus (GPa) = 23.57479 34.99439 29.28459
# Shear Modulus (GPa) = 16.12748 20.26030 18.19389
#
# Velocity S-wave (km/s) = 2.96369 3.32179 3.14783
# Velocity P-wave (km/s) = 4.95486 5.81130 5.40009
#
# Compressibility (1/GPa) = 0.04241819
#
# Stress axis : x y z
#
# Youngs Moduli (GPa) = 56.76555 49.26152 16.57816
#
# Poissons Ratio (x) = 0.23520 0.22301
# Poissons Ratio (y) = 0.27102 0.16052
# Poissons Ratio (z) = 0.76360 0.47699
#
# Static dielectric constant tensor:
#      x y z
#    x 1.696220 0.000000 0.000000 
#    y 0.000000 1.665540 0.000000 
#    z 0.000000 0.000000 1.646950 
# 
# From -- ./inp_files/32891.got.cif
#   From: 2010.05.17/outbox.cif.g08.bks.cpg/sg74_17_cif.got.tgz:32891.got - 2010.06.03 17:57:02.
