data_PCOD9535541
_publ_section_title
;
Structure prediction by ZEFSAII (Michael W. Deem and Ramdas Pophale) SiO2 
 PCOD9535541
Probable space group: I M M A
;
_chemical_formula_sum "Si O2"
_cell_formula_units_Z 80
_cell_length_a 29.837224
_cell_length_b 9.258819
_cell_length_c 13.337825
_cell_angle_alpha 90.000000
_cell_angle_beta 90.000000
_cell_angle_gamma 90.000000
_cell_volume 3684.673609
_symmetry_space_group_name_H-M "I M M A"
_symmetry_group_IT_number 74
_symmetry_cell_setting 'orthorhombic'
loop_
_space_group_symop_operation_xyz
x,y,z
-x,1/2-y,z
x,-y,-z
-x,1/2+y,-z
-x,-y,-z
x,1/2+y,-z
-x,y,z
x,1/2-y,z
1/2+x,1/2+y,1/2+z
1/2-x,-y,1/2+z
1/2+x,1/2-y,1/2-z
1/2-x,y,1/2-z
1/2-x,1/2-y,1/2-z
1/2+x,y,1/2-z
1/2-x,1/2+y,1/2+z
1/2+x,-y,1/2+z
loop_
_atom_site_type_symbol
_atom_site_label
_atom_site_fract_x
_atom_site_fract_y
_atom_site_fract_z
Si Si1 0.736241 0.912317 0.633518
Si Si2 0.449776 0.576870 0.304732
Si Si3 0.648295 0.077658 0.673217
Si Si4 0.053092 0.590036 0.595595
Si Si5 0.175384 0.919180 0.402915
O O1 0.739298 0.750000 0.589514
O O2 0.750000 0.896415 0.750000
O O3 0.686888 0.980126 0.624634
O O4 0.773206 0.028189 0.601451
O O5 0.500000 0.539115 0.344888
O O6 0.449472 0.750000 0.289564
O O7 0.402762 0.543508 0.359899
O O8 0.444395 0.498093 0.198344
O O9 0.656601 0.250000 0.658739
O O10 0.653570 0.049960 0.794009
O O11 0.068099 0.500000 0.500000
O O12 0.073779 0.750000 0.603035
O O13 0.000000 0.608959 0.579977
O O14 0.171964 0.750000 0.418550
O O15 0.157133 0.000000 0.500000
#
# Coordination Sequence:
#
# PCOD9535541 Si02
#       5
#    16  16  16  16  16
#     4   9  17  30  48  68  89 115 147 183 226 276
#     4   9  17  29  43  59  82 113 150 189 223 256
#     4   9  18  31  46  65  90 122 155 187 227 270
#     4   9  16  25  36  49  67  95 133 176 220 260
#     4  10  19  31  47  67  92 119 149 187 228 272
#
# _framework density 21.711558
#
# number of rings (size 3 to 8) (size 9 to 14) (size 15 to 20)
#    0.000    2.800    0.000    1.800    0.000    7.200 
#    0.000    2.000    0.000    0.000    0.000    0.000 
#    0.000    0.800    0.000    2.200    0.000    3.200 
#
# Total GULP energy -222925.382837 kJ/mol
# GULP energy per Si atom -5573.134571 kJ/mol
# Density = 2.166214 g / cm^3
# Si number density = 21.711558 Si / 1000 Ang^3
#
#
#
# Elastic Constant Matrix: (Units=GPa)
#
#
# Indices 1 2 3 4 5 6 
#
# 1 187.2416 45.7438 -6.1094 0.0000 0.0000 0.0000
# 2 45.7438 36.6247 2.0783 0.0000 0.0000 0.0000
# 3 -6.1094 2.0783 18.3061 0.0000 0.0000 0.0000
# 4 0.0000 0.0000 0.0000 15.5333 0.0000 0.0000
# 5 0.0000 0.0000 0.0000 0.0000 -13.3037 0.0000
# 6 0.0000 0.0000 0.0000 0.0000 0.0000 17.1205
#
#
#
# Elastic Compliance Matrix: (Units=1/GPa)
#
#
# Indices 1 2 3 4 5 6 
#
# 1 0.007940 -0.010133 0.003800 0.000000 0.000000 0.000000
# 2 -0.010133 0.040412 -0.007970 0.000000 0.000000 0.000000
# 3 0.003800 -0.007970 0.056800 0.000000 0.000000 0.000000
# 4 0.000000 0.000000 0.000000 0.064378 0.000000 0.000000
# 5 0.000000 0.000000 0.000000 0.000000 -0.075167 0.000000
# 6 0.000000 0.000000 0.000000 0.000000 0.000000 0.058410
#
#
# Mechanical properties :
#
#
# Convention : Reuss Voigt Hill
#
# Bulk Modulus (GPa) = 13.06380 36.17756 24.62068
# Shear Modulus (GPa) = 24.16714 17.23399 20.70057
#
# Velocity S-wave (km/s) = 3.33994 2.82045 3.09112
# Velocity P-wave (km/s) = 4.57205 5.22547 4.90964
#
# Compressibility (1/GPa) = 0.07654742
#
# Stress axis : x y z
#
# Youngs Moduli (GPa) = 125.94174 24.74514 17.60575
#
# Poissons Ratio (x) = 0.25074 -0.06691
# Poissons Ratio (y) = 1.27615 0.14031
# Poissons Ratio (z) = -0.47861 0.19721
#
# Static dielectric constant tensor:
#      x y z
#    x 1.844290 0.000000 0.000000 
#    y 0.000000 1.762090 0.000000 
#    z 0.000000 0.000000 1.829920 
# 
# From -- ./inp_files/39941.got.cif
#   From: 2010.05.17/outbox.cif.g08.bks.cpg/sg74_20_cif.got.tgz:39941.got - 2010.06.03 17:57:02.
