data_PCOD9535771
_publ_section_title
;
Structure prediction by ZEFSAII (Michael W. Deem and Ramdas Pophale) SiO2 
 PCOD9535771
Probable space group: I M M A
;
_chemical_formula_sum "Si O2"
_cell_formula_units_Z 80
_cell_length_a 28.006937
_cell_length_b 34.460266
_cell_length_c 5.091305
_cell_angle_alpha 90.000000
_cell_angle_beta 90.000000
_cell_angle_gamma 90.000000
_cell_volume 4913.753369
_symmetry_space_group_name_H-M "I M M A"
_symmetry_group_IT_number 74
_symmetry_cell_setting 'orthorhombic'
loop_
_space_group_symop_operation_xyz
x,y,z
-x,1/2-y,z
x,-y,-z
-x,1/2+y,-z
-x,-y,-z
x,1/2+y,-z
-x,y,z
x,1/2-y,z
1/2+x,1/2+y,1/2+z
1/2-x,-y,1/2+z
1/2+x,1/2-y,1/2-z
1/2-x,y,1/2-z
1/2-x,1/2-y,1/2-z
1/2+x,y,1/2-z
1/2-x,1/2+y,1/2+z
1/2+x,-y,1/2+z
loop_
_atom_site_type_symbol
_atom_site_label
_atom_site_fract_x
_atom_site_fract_y
_atom_site_fract_z
Si Si1 0.000000 0.972199 0.751250
Si Si2 0.942563 0.843002 0.054255
Si Si3 0.557585 0.706215 0.954702
Si Si4 0.405090 0.073982 0.384097
Si Si5 0.853070 0.955577 0.397834
Si Si6 0.250000 0.472780 0.750000
O O1 0.953105 0.945793 0.772011
O O2 0.000000 0.000000 0.500000
O O3 0.000000 0.000000 0.000000
O O4 0.926262 0.824784 0.329105
O O5 0.000000 0.850305 0.064094
O O6 0.933585 0.810711 0.832551
O O7 0.917330 0.882751 0.975798
O O8 0.500000 0.708130 0.985691
O O9 0.575838 0.750000 0.990729
O O10 0.385172 0.051567 0.640347
O O11 0.368544 0.070889 0.142159
O O12 0.797892 0.949852 0.319600
O O13 0.857985 0.000000 0.500000
O O14 0.261417 0.500000 0.500000
#
# Coordination Sequence:
#
# PCOD9535771 Si02
#       6
#     8  16  16  16  16   8
#     4  12  24  34  46  64  93 134 177 204 226 266
#     4  10  19  32  46  66  99 131 163 197 239 286
#     4   9  17  29  48  68  89 124 168 203 233 278
#     4  12  22  35  49  71  99 135 165 206 244 288
#     4  11  22  36  54  71  94 124 170 213 257 298
#     4  10  20  36  56  74  90 116 159 218 271 306
#
# _framework density 16.280833000000001
#
# number of rings (size 3 to 8) (size 9 to 14) (size 15 to 20)
#    0.000    1.400    1.000    7.800    0.000    2.400 
#    0.000    0.000    0.000    0.000    0.000    0.000 
#    0.000    0.000    0.000   63.000    0.000    0.000 
#
# Total GULP energy -223378.405168 kJ/mol
# GULP energy per Si atom -5584.460129 kJ/mol
# Density = 1.624378 g / cm^3
# Si number density = 16.280833 Si / 1000 Ang^3
#
#
#
# Elastic Constant Matrix: (Units=GPa)
#
#
# Indices 1 2 3 4 5 6 
#
# 1 69.8251 25.4927 22.7812 0.0000 0.0000 0.0000
# 2 25.4927 51.3962 -4.8664 0.0000 0.0000 0.0000
# 3 22.7812 -4.8664 78.4474 0.0000 0.0000 0.0000
# 4 0.0000 0.0000 0.0000 8.3987 0.0000 0.0000
# 5 0.0000 0.0000 0.0000 0.0000 23.3543 0.0000
# 6 0.0000 0.0000 0.0000 0.0000 0.0000 -4.3005
#
#
#
# Elastic Compliance Matrix: (Units=1/GPa)
#
#
# Indices 1 2 3 4 5 6 
#
# 1 0.020391 -0.010738 -0.006588 0.000000 0.000000 0.000000
# 2 -0.010738 0.025226 0.004683 0.000000 0.000000 0.000000
# 3 -0.006588 0.004683 0.014951 0.000000 0.000000 0.000000
# 4 0.000000 0.000000 0.000000 0.119067 0.000000 0.000000
# 5 0.000000 0.000000 0.000000 0.000000 0.042819 0.000000
# 6 0.000000 0.000000 0.000000 0.000000 0.000000 -0.232529
#
#
# Mechanical properties :
#
#
# Convention : Reuss Voigt Hill
#
# Bulk Modulus (GPa) = 28.34191 31.83152 30.08672
# Shear Modulus (GPa) = 185.38607 15.90790 100.64698
#
# Velocity S-wave (km/s) = 10.68246 3.12924 7.87106
# Velocity P-wave (km/s) = 13.02302 5.71403 10.05607
#
# Compressibility (1/GPa) = 0.03528344
#
# Stress axis : x y z
#
# Youngs Moduli (GPa) = 49.04095 39.64151 66.88525
#
# Poissons Ratio (x) = 0.42566 0.44062
# Poissons Ratio (y) = 0.52659 -0.31323
# Poissons Ratio (z) = 0.32307 -0.18565
#
# Static dielectric constant tensor:
#      x y z
#    x 1.555480 0.000000 0.000000 
#    y 0.000000 1.536150 0.000000 
#    z 0.000000 0.000000 1.571980 
# 
# From -- ./inp_files/3896.got.cif
#   From: 2010.05.17/outbox.cif.g08.bks.cpg/sg74_2_cif.got.tgz:3896.got - 2010.06.03 17:57:02.
