data_PCOD9535386
_publ_section_title
;
Structure prediction by ZEFSAII (Michael W. Deem and Ramdas Pophale) SiO2 
 PCOD9535386
Probable space group: I M M A
;
_chemical_formula_sum "Si O2"
_cell_formula_units_Z 72
_cell_length_a 8.625888
_cell_length_b 17.086145
_cell_length_c 29.109699
_cell_angle_alpha 90.000000
_cell_angle_beta 90.000000
_cell_angle_gamma 90.000000
_cell_volume 4290.279807
_symmetry_space_group_name_H-M "I M M A"
_symmetry_group_IT_number 74
_symmetry_cell_setting 'orthorhombic'
loop_
_space_group_symop_operation_xyz
x,y,z
-x,1/2-y,z
x,-y,-z
-x,1/2+y,-z
-x,-y,-z
x,1/2+y,-z
-x,y,z
x,1/2-y,z
1/2+x,1/2+y,1/2+z
1/2-x,-y,1/2+z
1/2+x,1/2-y,1/2-z
1/2-x,y,1/2-z
1/2-x,1/2-y,1/2-z
1/2+x,y,1/2-z
1/2-x,1/2+y,1/2+z
1/2+x,-y,1/2+z
loop_
_atom_site_type_symbol
_atom_site_label
_atom_site_fract_x
_atom_site_fract_y
_atom_site_fract_z
Si Si1 0.813271 0.750000 0.801763
Si Si2 0.313748 0.077391 0.301666
Si Si3 0.313589 0.163817 0.054058
Si Si4 0.319402 0.419626 0.529631
Si Si5 0.685689 0.510919 0.889544
O O1 0.750000 0.750000 0.750000
O O2 0.762656 0.664753 0.819304
O O3 0.000000 0.750000 0.802049
O O4 0.500000 0.075331 0.300358
O O5 0.250000 0.067357 0.250000
O O6 0.250070 0.015605 0.338166
O O7 0.500000 0.163934 0.056337
O O8 0.256357 0.250000 0.068105
O O9 0.258911 0.091454 0.085305
O O10 0.263447 0.144459 0.001986
O O11 0.305359 0.500000 0.500000
O O12 0.500000 0.401122 0.534554
O O13 0.245387 0.440494 0.578578
O O14 0.500000 0.510509 0.889111
#
# Coordination Sequence:
#
# PCOD9535386 Si02
#       5
#     8  16  16  16  16
#     4   8  16  28  40  54  76 108 142 180 222 256
#     4  10  19  31  44  61  85 115 151 190 227 264
#     4   9  18  31  46  66  91 118 149 185 224 269
#     4   9  17  30  46  64  87 115 147 184 225 268
#     4  10  19  30  46  65  88 120 153 186 225 269
#
# _framework density 16.782122999999999
#
# number of rings (size 3 to 8) (size 9 to 14) (size 15 to 20)
#    0.000    2.667    0.000    2.000    1.556    4.889 
#    0.000    0.000    0.000    0.000    0.000    0.000 
#    0.000    0.889    0.000    3.333    0.000    5.111 
#
# Total GULP energy -200520.216788 kJ/mol
# GULP energy per Si atom -5570.006022 kJ/mol
# Density = 1.674393 g / cm^3
# Si number density = 16.782123 Si / 1000 Ang^3
#
#
#
# Elastic Constant Matrix: (Units=GPa)
#
#
# Indices 1 2 3 4 5 6 
#
# 1 8.8090 -4.4188 5.1637 0.0000 0.0000 0.0000
# 2 -4.4188 13.7830 4.5792 0.0000 0.0000 0.0000
# 3 5.1637 4.5792 88.1964 0.0000 0.0000 0.0000
# 4 0.0000 0.0000 0.0000 25.7169 0.0000 0.0000
# 5 0.0000 0.0000 0.0000 0.0000 25.1565 0.0000
# 6 0.0000 0.0000 0.0000 0.0000 0.0000 13.3859
#
#
#
# Elastic Compliance Matrix: (Units=1/GPa)
#
#
# Indices 1 2 3 4 5 6 
#
# 1 0.145244 0.050257 -0.011113 0.000000 0.000000 0.000000
# 2 0.050257 0.091217 -0.007679 0.000000 0.000000 0.000000
# 3 -0.011113 -0.007679 0.012388 0.000000 0.000000 0.000000
# 4 0.000000 0.000000 0.000000 0.038885 0.000000 0.000000
# 5 0.000000 0.000000 0.000000 0.000000 0.039751 0.000000
# 6 0.000000 0.000000 0.000000 0.000000 0.000000 0.074705
#
#
# Mechanical properties :
#
#
# Convention : Reuss Voigt Hill
#
# Bulk Modulus (GPa) = 3.20739 13.49296 8.35018
# Shear Modulus (GPa) = 11.28196 19.88282 15.58239
#
# Velocity S-wave (km/s) = 2.59561 3.44577 3.05045
# Velocity P-wave (km/s) = 3.30125 4.88760 4.17055
#
# Compressibility (1/GPa) = 0.31178011
#
# Stress axis : x y z
#
# Youngs Moduli (GPa) = 6.88495 10.96291 80.72549
#
# Poissons Ratio (x) = -0.55097 0.89712
# Poissons Ratio (y) = -0.34602 0.61985
# Poissons Ratio (z) = 0.07651 0.08418
#
# Static dielectric constant tensor:
#      x y z
#    x 1.554560 0.000000 0.000000 
#    y 0.000000 1.586340 0.000000 
#    z 0.000000 0.000000 1.570900 
# 
# From -- ./inp_files/56794.got.cif
#   From: 2010.05.17/outbox.cif.g08.bks.cpg/sg74_29_cif.got.tgz:56794.got - 2010.06.03 17:57:02.
