data_PCOD9535516
_publ_section_title
;
Structure prediction by ZEFSAII (Michael W. Deem and Ramdas Pophale) SiO2 
 PCOD9535516
Probable space group: I M M A
;
_chemical_formula_sum "Si O2"
_cell_formula_units_Z 40
_cell_length_a 5.700167
_cell_length_b 15.484025
_cell_length_c 17.411984
_cell_angle_alpha 90.000000
_cell_angle_beta 90.000000
_cell_angle_gamma 90.000000
_cell_volume 1536.808319
_symmetry_space_group_name_H-M "I M M A"
_symmetry_group_IT_number 74
_symmetry_cell_setting 'orthorhombic'
loop_
_space_group_symop_operation_xyz
x,y,z
-x,1/2-y,z
x,-y,-z
-x,1/2+y,-z
-x,-y,-z
x,1/2+y,-z
-x,y,z
x,1/2-y,z
1/2+x,1/2+y,1/2+z
1/2-x,-y,1/2+z
1/2+x,1/2-y,1/2-z
1/2-x,y,1/2-z
1/2-x,1/2-y,1/2-z
1/2+x,y,1/2-z
1/2-x,1/2+y,1/2+z
1/2+x,-y,1/2+z
loop_
_atom_site_type_symbol
_atom_site_label
_atom_site_fract_x
_atom_site_fract_y
_atom_site_fract_z
Si Si1 0.000000 0.853301 0.466110
Si Si2 0.500000 0.615677 0.855191
Si Si3 0.500000 0.096017 0.533301
Si Si4 0.000000 0.873972 0.861451
Si Si5 0.000000 0.542466 0.239593
O O1 0.000000 0.895199 0.552248
O O2 0.750959 0.881444 0.429501
O O3 0.000000 0.750000 0.474046
O O4 0.252409 0.657244 0.834641
O O5 0.500000 0.526796 0.809027
O O6 0.500000 0.146650 0.451869
O O7 0.500000 0.976730 0.665027
O O8 0.000000 0.000000 0.000000
O O9 0.250000 0.589146 0.250000
#
# Coordination Sequence:
#
# PCOD9535516 Si02
#       5
#     8   8   8   8   8
#     4  10  19  31  46  64  87 114 147 183 219 258
#     4   8  14  23  37  54  75 103 135 165 204 244
#     4  10  19  31  46  63  83 111 149 185 220 258
#     4   8  14  23  37  54  75 102 136 173 208 237
#     4   8  12  20  34  51  72 100 133 164 203 235
#
# _framework density 26.02797
#
# number of rings (size 3 to 8) (size 9 to 14) (size 15 to 20)
#    0.000    3.200    0.000    1.200    0.000    0.000 
#    0.000    0.000    0.000   30.000    0.000    0.000 
#    0.000    0.000    0.000    0.000    0.000  500.000 
#
# Total GULP energy -111433.689231 kJ/mol
# GULP energy per Si atom -5571.684462 kJ/mol
# Density = 2.596873 g / cm^3
# Si number density = 26.027970 Si / 1000 Ang^3
#
#
#
# Elastic Constant Matrix: (Units=GPa)
#
#
# Indices 1 2 3 4 5 6 
#
# 1 384.1544 20.4683 4.2944 0.0000 0.0000 0.0000
# 2 20.4683 60.4675 3.9883 0.0000 0.0000 0.0000
# 3 4.2944 3.9883 98.3493 0.0000 0.0000 0.0000
# 4 0.0000 0.0000 0.0000 -26.0887 0.0000 0.0000
# 5 0.0000 0.0000 0.0000 0.0000 -0.7787 0.0000
# 6 0.0000 0.0000 0.0000 0.0000 0.0000 20.6790
#
#
#
# Elastic Compliance Matrix: (Units=1/GPa)
#
#
# Indices 1 2 3 4 5 6 
#
# 1 0.002652 -0.000892 -0.000080 0.000000 0.000000 0.000000
# 2 -0.000892 0.016882 -0.000646 0.000000 0.000000 0.000000
# 3 -0.000080 -0.000646 0.010198 0.000000 0.000000 0.000000
# 4 0.000000 0.000000 0.000000 -0.038331 0.000000 0.000000
# 5 0.000000 0.000000 0.000000 0.000000 -1.284210 0.000000
# 6 0.000000 0.000000 0.000000 0.000000 0.000000 0.048358
#
#
# Mechanical properties :
#
#
# Convention : Reuss Voigt Hill
#
# Bulk Modulus (GPa) = 37.74104 66.71926 52.23015
# Shear Modulus (GPa) = -4.05718 33.04367 14.49325
#
# Velocity S-wave (km/s) = -1.24986 3.56693 2.36229
# Velocity P-wave (km/s) = 3.52828 6.53095 5.24891
#
# Compressibility (1/GPa) = 0.02649636
#
# Stress axis : x y z
#
# Youngs Moduli (GPa) = 377.13748 59.23318 98.06322
#
# Poissons Ratio (x) = 0.05285 0.00781
# Poissons Ratio (y) = 0.33652 0.06332
# Poissons Ratio (z) = 0.03002 0.03824
#
# Static dielectric constant tensor:
#      x y z
#    x 2.142030 0.000000 0.000000 
#    y 0.000000 1.982170 0.000000 
#    z 0.000000 0.000000 2.072820 
# 
# From -- ./inp_files/38154.got.cif
#   From: 2010.05.17/outbox.cif.g08.bks.cpg/sg74_20_cif.got.tgz:38154.got - 2010.06.03 17:57:02.
