data_PCOD9535919
_publ_section_title
;
Structure prediction by ZEFSAII (Michael W. Deem and Ramdas Pophale) SiO2 
 PCOD9535919
Probable space group: I M M A
;
_chemical_formula_sum "Si O2"
_cell_formula_units_Z 64
_cell_length_a 9.557125
_cell_length_b 13.792850
_cell_length_c 21.622036
_cell_angle_alpha 90.000000
_cell_angle_beta 90.000000
_cell_angle_gamma 90.000000
_cell_volume 2850.216603
_symmetry_space_group_name_H-M "I M M A"
_symmetry_group_IT_number 74
_symmetry_cell_setting 'orthorhombic'
loop_
_space_group_symop_operation_xyz
x,y,z
-x,1/2-y,z
x,-y,-z
-x,1/2+y,-z
-x,-y,-z
x,1/2+y,-z
-x,y,z
x,1/2-y,z
1/2+x,1/2+y,1/2+z
1/2-x,-y,1/2+z
1/2+x,1/2-y,1/2-z
1/2-x,y,1/2-z
1/2-x,1/2-y,1/2-z
1/2+x,y,1/2-z
1/2-x,1/2+y,1/2+z
1/2+x,-y,1/2+z
loop_
_atom_site_type_symbol
_atom_site_label
_atom_site_fract_x
_atom_site_fract_y
_atom_site_fract_z
Si Si1 0.000000 0.081669 0.640084
Si Si2 0.500000 0.142273 0.382758
Si Si3 0.745446 0.500000 0.500000
Si Si4 0.500000 0.137969 0.002202
Si Si5 0.723516 0.986065 0.681679
Si Si6 0.000000 0.641760 0.220967
Si Si7 0.000000 0.635817 0.030535
O O1 0.000000 0.132186 0.573500
O O2 0.000000 0.142173 0.704269
O O3 0.136341 0.016397 0.648106
O O4 0.500000 0.250000 0.358151
O O5 0.633556 0.086435 0.358020
O O6 0.500000 0.144316 0.456383
O O7 0.637730 0.432642 0.541399
O O8 0.859134 0.580931 0.522670
O O9 0.500000 0.250000 0.021162
O O10 0.750000 0.943427 0.750000
O O11 0.632396 0.082153 0.696469
O O12 0.000000 0.750000 0.197798
O O13 0.000000 0.750000 0.052982
#
# Coordination Sequence:
#
# PCOD9535919 Si02
#       7
#     8   8   8   8  16   8   8
#     4  10  19  32  52  75 105 135 167 208 251 300
#     4  10  20  35  55  75  97 132 174 211 249 296
#     4  10  22  38  56  78 106 136 168 216 268 312
#     4  11  22  35  53  80 111 139 168 207 263 321
#     4   9  19  34  50  73 105 136 168 207 248 293
#     4   9  18  32  50  72 101 138 173 203 241 292
#     4  10  20  38  61  79  98 132 179 221 259 307
#
# _framework density 22.454432000000001
#
# number of rings (size 3 to 8) (size 9 to 14) (size 15 to 20)
#    0.000    2.250    0.000    3.375    0.000    6.000 
#    0.000    0.625    0.000    9.000    0.000    0.000 
#    0.000    0.000    0.000    0.000    0.000    0.000 
#
# Total GULP energy -178703.417916 kJ/mol
# GULP energy per Si atom -5584.481810 kJ/mol
# Density = 2.240333 g / cm^3
# Si number density = 22.454432 Si / 1000 Ang^3
#
#
#
# Elastic Constant Matrix: (Units=GPa)
#
#
# Indices 1 2 3 4 5 6 
#
# 1 192.2402 76.5242 24.3457 0.0000 0.0000 0.0000
# 2 76.5242 186.7376 38.4038 0.0000 0.0000 0.0000
# 3 24.3457 38.4038 110.8728 0.0000 0.0000 0.0000
# 4 0.0000 0.0000 0.0000 9.2925 0.0000 0.0000
# 5 0.0000 0.0000 0.0000 0.0000 20.1195 0.0000
# 6 0.0000 0.0000 0.0000 0.0000 0.0000 -6.9939
#
#
#
# Elastic Compliance Matrix: (Units=1/GPa)
#
#
# Indices 1 2 3 4 5 6 
#
# 1 0.006244 -0.002451 -0.000522 0.000000 0.000000 0.000000
# 2 -0.002451 0.006728 -0.001792 0.000000 0.000000 0.000000
# 3 -0.000522 -0.001792 0.009755 0.000000 0.000000 0.000000
# 4 0.000000 0.000000 0.000000 0.107613 0.000000 0.000000
# 5 0.000000 0.000000 0.000000 0.000000 0.049703 0.000000
# 6 0.000000 0.000000 0.000000 0.000000 0.000000 -0.142981
#
#
# Mechanical properties :
#
#
# Convention : Reuss Voigt Hill
#
# Bulk Modulus (GPa) = 75.78213 85.37755 80.57984
# Shear Modulus (GPa) = 98.05506 27.85542 62.95524
#
# Velocity S-wave (km/s) = 6.61538 3.52594 5.30073
# Velocity P-wave (km/s) = 9.60071 7.39469 8.56899
#
# Compressibility (1/GPa) = 0.01319572
#
# Stress axis : x y z
#
# Youngs Moduli (GPa) = 160.16144 148.62762 102.51425
#
# Poissons Ratio (x) = 0.36433 0.05351
# Poissons Ratio (y) = 0.39260 0.18373
# Poissons Ratio (z) = 0.08359 0.26638
#
# Static dielectric constant tensor:
#      x y z
#    x 1.726900 0.000000 0.000000 
#    y 0.000000 1.801990 0.000000 
#    z 0.000000 0.000000 1.871880 
# 
# From -- ./inp_files/56520.got.cif
#   From: 2010.05.17/outbox.cif.g08.bks.cpg/sg74_29_cif.got.tgz:56520.got - 2010.06.03 17:57:02.
