data_PCOD9535241
_publ_section_title
;
Structure prediction by ZEFSAII (Michael W. Deem and Ramdas Pophale) SiO2 
 PCOD9535241
Probable space group: I M M A
;
_chemical_formula_sum "Si O2"
_cell_formula_units_Z 104
_cell_length_a 7.298898
_cell_length_b 16.845954
_cell_length_c 37.774706
_cell_angle_alpha 90.000000
_cell_angle_beta 90.000000
_cell_angle_gamma 90.000000
_cell_volume 4644.660747
_symmetry_space_group_name_H-M "I M M A"
_symmetry_group_IT_number 74
_symmetry_cell_setting 'orthorhombic'
loop_
_space_group_symop_operation_xyz
x,y,z
-x,1/2-y,z
x,-y,-z
-x,1/2+y,-z
-x,-y,-z
x,1/2+y,-z
-x,y,z
x,1/2-y,z
1/2+x,1/2+y,1/2+z
1/2-x,-y,1/2+z
1/2+x,1/2-y,1/2-z
1/2-x,y,1/2-z
1/2-x,1/2-y,1/2-z
1/2+x,y,1/2-z
1/2-x,1/2+y,1/2+z
1/2+x,-y,1/2+z
loop_
_atom_site_type_symbol
_atom_site_label
_atom_site_fract_x
_atom_site_fract_y
_atom_site_fract_z
Si Si1 0.717959 0.060974 0.291422
Si Si2 0.777693 0.413266 0.074178
Si Si3 0.275922 0.593852 0.333143
Si Si4 0.276748 0.750000 0.535635
Si Si5 0.277279 0.337855 0.353815
Si Si6 0.223501 0.912434 0.084493
Si Si7 0.718406 0.750000 0.292104
Si Si8 0.223010 0.750000 0.046466
O O1 0.500000 0.059498 0.295601
O O2 0.750000 0.065696 0.250000
O O3 0.784477 0.133426 0.315483
O O4 0.785916 0.981172 0.310132
O O5 0.717243 0.333884 0.053255
O O6 0.726950 0.397541 0.115068
O O7 0.719195 0.503866 0.066463
O O8 0.000000 0.413268 0.071413
O O9 0.500000 0.593438 0.333456
O O10 0.221253 0.590114 0.374188
O O11 0.214500 0.672173 0.312443
O O12 0.500000 0.750000 0.538453
O O13 0.225289 0.750000 0.494593
O O14 0.500000 0.335737 0.354118
O O15 0.213836 0.250000 0.362524
O O16 0.282448 0.831481 0.065363
O O17 0.000000 0.912676 0.084034
O O18 0.500000 0.750000 0.296327
O O19 0.750000 0.750000 0.250000
O O20 0.000000 0.750000 0.047812
#
# Coordination Sequence:
#
# PCOD9535241 Si02
#       8
#    16  16  16   8  16  16   8   8
#     4  10  19  30  44  63  86 110 142 183 223 259
#     4   9  14  22  37  52  69  98 137 176 210 246
#     4   9  16  27  42  58  76 103 141 181 213 250
#     4   9  16  23  32  50  75 102 135 177 216 250
#     4   9  15  25  41  58  75 100 137 178 210 247
#     4   9  15  24  37  51  70 100 137 175 209 246
#     4  10  19  29  42  60  82 108 140 180 221 260
#     4   9  17  24  30  48  77 104 135 175 215 250
#
# _framework density 22.391303000000001
#
# number of rings (size 3 to 8) (size 9 to 14) (size 15 to 20)
#    0.000    2.769    2.308    0.923    0.000    2.769 
#    0.000    3.077    0.000    0.000    0.000    0.000 
#    0.000    0.000    0.000    0.000    0.000   10.769 
#
# Total GULP energy -290253.870847 kJ/mol
# GULP energy per Si atom -5581.805209 kJ/mol
# Density = 2.234034 g / cm^3
# Si number density = 22.391303 Si / 1000 Ang^3
#
#
#
# Elastic Constant Matrix: (Units=GPa)
#
#
# Indices 1 2 3 4 5 6 
#
# 1 90.3304 3.4751 -3.9794 0.0000 0.0000 0.0000
# 2 3.4751 202.5909 83.7480 0.0000 0.0000 0.0000
# 3 -3.9794 83.7480 136.4635 0.0000 0.0000 0.0000
# 4 0.0000 0.0000 0.0000 37.0297 0.0000 0.0000
# 5 0.0000 0.0000 0.0000 0.0000 1.9746 0.0000
# 6 0.0000 0.0000 0.0000 0.0000 0.0000 -22.6726
#
#
#
# Elastic Compliance Matrix: (Units=1/GPa)
#
#
# Indices 1 2 3 4 5 6 
#
# 1 0.011113 -0.000435 0.000591 0.000000 0.000000 0.000000
# 2 -0.000435 0.006631 -0.004082 0.000000 0.000000 0.000000
# 3 0.000591 -0.004082 0.009850 0.000000 0.000000 0.000000
# 4 0.000000 0.000000 0.000000 0.027005 0.000000 0.000000
# 5 0.000000 0.000000 0.000000 0.000000 0.506441 0.000000
# 6 0.000000 0.000000 0.000000 0.000000 0.000000 -0.044106
#
#
# Mechanical properties :
#
#
# Convention : Reuss Voigt Hill
#
# Bulk Modulus (GPa) = 50.65219 66.20803 58.43011
# Shear Modulus (GPa) = 9.40967 26.34241 17.87604
#
# Velocity S-wave (km/s) = 2.05219 3.43367 2.82857
# Velocity P-wave (km/s) = 5.31844 6.73446 6.06790
#
# Compressibility (1/GPa) = 0.01974248
#
# Stress axis : x y z
#
# Youngs Moduli (GPa) = 89.98281 150.80650 101.51841
#
# Poissons Ratio (x) = 0.06559 -0.06000
# Poissons Ratio (y) = 0.03914 0.41441
# Poissons Ratio (z) = -0.05318 0.61562
#
# Static dielectric constant tensor:
#      x y z
#    x 1.869450 0.000000 0.000000 
#    y 0.000000 1.832510 0.000000 
#    z 0.000000 0.000000 1.772430 
# 
# From -- ./inp_files/72018.got.cif
#   From: 2010.05.17/outbox.cif.g08.bks.cpg/sg74_37_cif.got.tgz:72018.got - 2010.06.03 17:57:02.
