data_PCOD9535985
_publ_section_title
;
Structure prediction by ZEFSAII (Michael W. Deem and Ramdas Pophale) SiO2 
 PCOD9535985
Probable space group: I M M A
;
_chemical_formula_sum "Si O2"
_cell_formula_units_Z 96
_cell_length_a 7.693797
_cell_length_b 24.268864
_cell_length_c 26.298593
_cell_angle_alpha 90.000000
_cell_angle_beta 90.000000
_cell_angle_gamma 90.000000
_cell_volume 4910.465738
_symmetry_space_group_name_H-M "I M M A"
_symmetry_group_IT_number 74
_symmetry_cell_setting 'orthorhombic'
loop_
_space_group_symop_operation_xyz
x,y,z
-x,1/2-y,z
x,-y,-z
-x,1/2+y,-z
-x,-y,-z
x,1/2+y,-z
-x,y,z
x,1/2-y,z
1/2+x,1/2+y,1/2+z
1/2-x,-y,1/2+z
1/2+x,1/2-y,1/2-z
1/2-x,y,1/2-z
1/2-x,1/2-y,1/2-z
1/2+x,y,1/2-z
1/2-x,1/2+y,1/2+z
1/2+x,-y,1/2+z
loop_
_atom_site_type_symbol
_atom_site_label
_atom_site_fract_x
_atom_site_fract_y
_atom_site_fract_z
Si Si1 0.208791 0.687070 0.693305
Si Si2 0.204961 0.494495 0.442829
Si Si3 0.287113 0.878257 0.904468
Si Si4 0.290797 0.312596 0.691501
Si Si5 0.789470 0.313197 0.505951
Si Si6 0.203664 0.889124 0.101647
O O1 0.274864 0.750000 0.688458
O O2 0.250000 0.667136 0.750000
O O3 0.274082 0.648909 0.647851
O O4 0.000000 0.689555 0.688982
O O5 0.279432 0.500000 0.500000
O O6 0.273921 0.440547 0.414313
O O7 0.222227 0.551354 0.412641
O O8 0.000000 0.483631 0.449431
O O9 0.500000 0.877977 0.902837
O O10 0.236457 0.841417 0.953035
O O11 0.500000 0.310908 0.686343
O O12 0.226282 0.250000 0.681497
O O13 0.250000 0.326182 0.750000
O O14 0.223750 0.356750 0.650717
O O15 0.730801 0.250000 0.509396
O O16 0.727709 0.349352 0.553240
O O17 0.000000 0.313520 0.507048
O O18 0.000000 0.897916 0.110271
#
# Coordination Sequence:
#
# PCOD9535985 Si02
#       6
#    16  16  16  16  16  16
#     4   9  17  31  52  76 102 133 168 208 257 309
#     4  10  19  35  56  75 101 139 182 221 254 302
#     4   9  17  32  53  76 101 132 172 217 260 298
#     4   9  19  36  56  77 103 136 172 213 261 312
#     4  10  19  32  53  79 104 133 173 216 258 312
#     4  11  22  35  52  77 111 141 170 212 268 321
#
# _framework density 19.550080999999999
#
# number of rings (size 3 to 8) (size 9 to 14) (size 15 to 20)
#    0.000    2.333    1.667    1.500    0.000    4.667 
#    0.000    4.167    0.000    6.000    0.000    0.000 
#    0.000    0.000    0.000    0.000    0.000    0.000 
#
# Total GULP energy -267916.721867 kJ/mol
# GULP energy per Si atom -5581.598372 kJ/mol
# Density = 1.950558 g / cm^3
# Si number density = 19.550081 Si / 1000 Ang^3
#
#
#
# Elastic Constant Matrix: (Units=GPa)
#
#
# Indices 1 2 3 4 5 6 
#
# 1 27.0892 -7.9706 -7.1471 0.0000 0.0000 0.0000
# 2 -7.9706 125.8548 72.5899 0.0000 0.0000 0.0000
# 3 -7.1471 72.5899 143.1155 0.0000 0.0000 0.0000
# 4 0.0000 0.0000 0.0000 16.9359 0.0000 0.0000
# 5 0.0000 0.0000 0.0000 0.0000 20.6593 0.0000
# 6 0.0000 0.0000 0.0000 0.0000 0.0000 7.0481
#
#
#
# Elastic Compliance Matrix: (Units=1/GPa)
#
#
# Indices 1 2 3 4 5 6 
#
# 1 0.037707 0.001840 0.000950 0.000000 0.000000 0.000000
# 2 0.001840 0.011321 -0.005650 0.000000 0.000000 0.000000
# 3 0.000950 -0.005650 0.009901 0.000000 0.000000 0.000000
# 4 0.000000 0.000000 0.000000 0.059046 0.000000 0.000000
# 5 0.000000 0.000000 0.000000 0.000000 0.048404 0.000000
# 6 0.000000 0.000000 0.000000 0.000000 0.000000 0.141882
#
#
# Mechanical properties :
#
#
# Convention : Reuss Voigt Hill
#
# Bulk Modulus (GPa) = 18.79408 45.66709 32.23059
# Shear Modulus (GPa) = 15.07303 24.83450 19.95377
#
# Velocity S-wave (km/s) = 2.77969 3.56800 3.19823
# Velocity P-wave (km/s) = 4.46502 6.35483 5.49183
#
# Compressibility (1/GPa) = 0.05320825
#
# Stress axis : x y z
#
# Youngs Moduli (GPa) = 26.52020 88.32997 101.00293
#
# Poissons Ratio (x) = -0.16256 -0.09592
# Poissons Ratio (y) = -0.04881 0.57070
# Poissons Ratio (z) = -0.02518 0.49909
#
# Static dielectric constant tensor:
#      x y z
#    x 1.681320 0.000000 0.000000 
#    y 0.000000 1.672170 0.000000 
#    z 0.000000 0.000000 1.663360 
# 
# From -- ./inp_files/57265.got.cif
#   From: 2010.05.17/outbox.cif.g08.bks.cpg/sg74_29_cif.got.tgz:57265.got - 2010.06.03 17:57:02.
