data_PCOD9535883
_publ_section_title
;
Structure prediction by ZEFSAII (Michael W. Deem and Ramdas Pophale) SiO2 
 PCOD9535883
Probable space group: I M M A
;
_chemical_formula_sum "Si O2"
_cell_formula_units_Z 72
_cell_length_a 16.290615
_cell_length_b 9.216511
_cell_length_c 22.428370
_cell_angle_alpha 90.000000
_cell_angle_beta 90.000000
_cell_angle_gamma 90.000000
_cell_volume 3367.454511
_symmetry_space_group_name_H-M "I M M A"
_symmetry_group_IT_number 74
_symmetry_cell_setting 'orthorhombic'
loop_
_space_group_symop_operation_xyz
x,y,z
-x,1/2-y,z
x,-y,-z
-x,1/2+y,-z
-x,-y,-z
x,1/2+y,-z
-x,y,z
x,1/2-y,z
1/2+x,1/2+y,1/2+z
1/2-x,-y,1/2+z
1/2+x,1/2-y,1/2-z
1/2-x,y,1/2-z
1/2-x,1/2-y,1/2-z
1/2+x,y,1/2-z
1/2-x,1/2+y,1/2+z
1/2+x,-y,1/2+z
loop_
_atom_site_type_symbol
_atom_site_label
_atom_site_fract_x
_atom_site_fract_y
_atom_site_fract_z
Si Si1 0.159010 0.586932 0.256154
Si Si2 0.500000 0.416620 0.098179
Si Si3 0.839435 0.086877 0.602707
Si Si4 0.500000 0.576728 0.564404
Si Si5 0.500000 0.914654 0.755332
Si Si6 0.678585 0.924449 0.564758
O O1 0.160600 0.750000 0.229591
O O2 0.250000 0.521710 0.250000
O O3 0.145598 0.601222 0.326830
O O4 0.082302 0.494734 0.234664
O O5 0.500000 0.250000 0.078223
O O6 0.418194 0.500964 0.078419
O O7 0.500000 0.413098 0.171504
O O8 0.831439 0.250000 0.577480
O O9 0.756353 0.995970 0.596127
O O10 0.500000 0.750000 0.554840
O O11 0.500000 0.500000 0.500000
O O12 0.411382 0.542059 0.592487
O O13 0.500000 0.750000 0.734292
O O14 0.687645 0.750000 0.560866
O O15 0.678275 0.000000 0.500000
#
# Coordination Sequence:
#
# PCOD9535883 Si02
#       6
#    16   8  16   8   8  16
#     4   9  18  33  52  72  97 131 168 203 240 288
#     4   9  17  31  50  71  96 129 165 199 241 294
#     4  10  19  32  51  75 100 128 164 204 245 289
#     4   8  16  30  49  70  93 125 162 196 233 282
#     4   9  17  29  48  73  98 126 162 203 246 292
#     4  10  19  33  52  74 100 130 164 202 244 290
#
# _framework density 21.381136000000001
#
# number of rings (size 3 to 8) (size 9 to 14) (size 15 to 20)
#    0.000    2.667    0.000    2.000    0.000    4.889 
#    0.000    1.667    0.000    4.000    0.000    0.000 
#    0.000    0.000    0.000    0.000    0.000    0.000 
#
# Total GULP energy -200767.970624 kJ/mol
# GULP energy per Si atom -5576.888073 kJ/mol
# Density = 2.133247 g / cm^3
# Si number density = 21.381136 Si / 1000 Ang^3
#
#
#
# Elastic Constant Matrix: (Units=GPa)
#
#
# Indices 1 2 3 4 5 6 
#
# 1 237.9889 112.7595 1.8956 0.0000 0.0000 0.0000
# 2 112.7595 139.6685 10.3860 0.0000 0.0000 0.0000
# 3 1.8956 10.3860 33.0115 0.0000 0.0000 0.0000
# 4 0.0000 0.0000 0.0000 9.7708 0.0000 0.0000
# 5 0.0000 0.0000 0.0000 0.0000 14.4742 0.0000
# 6 0.0000 0.0000 0.0000 0.0000 0.0000 30.0454
#
#
#
# Elastic Compliance Matrix: (Units=1/GPa)
#
#
# Indices 1 2 3 4 5 6 
#
# 1 0.006866 -0.005646 0.001382 0.000000 0.000000 0.000000
# 2 -0.005646 0.011974 -0.003443 0.000000 0.000000 0.000000
# 3 0.001382 -0.003443 0.031296 0.000000 0.000000 0.000000
# 4 0.000000 0.000000 0.000000 0.102346 0.000000 0.000000
# 5 0.000000 0.000000 0.000000 0.000000 0.069088 0.000000
# 6 0.000000 0.000000 0.000000 0.000000 0.000000 0.033283
#
#
# Mechanical properties :
#
#
# Convention : Reuss Voigt Hill
#
# Bulk Modulus (GPa) = 28.79979 73.41678 51.10829
# Shear Modulus (GPa) = 17.74048 29.89994 23.82021
#
# Velocity S-wave (km/s) = 2.88362 3.74361 3.34140
# Velocity P-wave (km/s) = 4.95843 7.28683 6.23233
#
# Compressibility (1/GPa) = 0.03472248
#
# Stress axis : x y z
#
# Youngs Moduli (GPa) = 145.64776 83.51469 31.95264
#
# Poissons Ratio (x) = 0.47151 -0.04416
# Poissons Ratio (y) = 0.82231 0.11001
# Poissons Ratio (z) = -0.20129 0.28754
#
# Static dielectric constant tensor:
#      x y z
#    x 1.792920 0.000000 0.000000 
#    y 0.000000 1.751710 0.000000 
#    z 0.000000 0.000000 1.810090 
# 
# From -- ./inp_files/63667.got.cif
#   From: 2010.05.17/outbox.cif.g08.bks.cpg/sg74_32_cif.got.tgz:63667.got - 2010.06.03 17:57:02.
