data_PCOD9535403
_publ_section_title
;
Structure prediction by ZEFSAII (Michael W. Deem and Ramdas Pophale) SiO2 
 PCOD9535403
Probable space group: I M M A
;
_chemical_formula_sum "Si O2"
_cell_formula_units_Z 104
_cell_length_a 22.300275
_cell_length_b 9.108640
_cell_length_c 30.663844
_cell_angle_alpha 90.000000
_cell_angle_beta 90.000000
_cell_angle_gamma 90.000000
_cell_volume 6228.598736
_symmetry_space_group_name_H-M "I M M A"
_symmetry_group_IT_number 74
_symmetry_cell_setting 'orthorhombic'
loop_
_space_group_symop_operation_xyz
x,y,z
-x,1/2-y,z
x,-y,-z
-x,1/2+y,-z
-x,-y,-z
x,1/2+y,-z
-x,y,z
x,1/2-y,z
1/2+x,1/2+y,1/2+z
1/2-x,-y,1/2+z
1/2+x,1/2-y,1/2-z
1/2-x,y,1/2-z
1/2-x,1/2-y,1/2-z
1/2+x,y,1/2-z
1/2-x,1/2+y,1/2+z
1/2+x,-y,1/2+z
loop_
_atom_site_type_symbol
_atom_site_label
_atom_site_fract_x
_atom_site_fract_y
_atom_site_fract_z
Si Si1 0.428038 0.576048 0.803994
Si Si2 0.000000 0.574113 0.452868
Si Si3 0.359486 0.925798 0.453946
Si Si4 0.218972 0.425229 0.545404
Si Si5 0.427100 0.080754 0.714462
Si Si6 0.886848 0.926782 0.391715
Si Si7 0.072215 0.422484 0.125105
O O1 0.500000 0.552559 0.808698
O O2 0.417791 0.750000 0.801596
O O3 0.408640 0.498693 0.759061
O O4 0.396986 0.505511 0.845924
O O5 0.000000 0.500000 0.500000
O O6 0.058550 0.535296 0.424433
O O7 0.000000 0.750000 0.458705
O O8 0.366876 0.750000 0.456382
O O9 0.288825 0.958580 0.446344
O O10 0.376079 0.000000 0.500000
O O11 0.397586 0.993319 0.414857
O O12 0.201031 0.500000 0.500000
O O13 0.213524 0.250000 0.540043
O O14 0.174770 0.468507 0.584295
O O15 0.500000 0.080206 0.714521
O O16 0.407461 0.250000 0.713228
O O17 0.408635 0.994270 0.671033
O O18 0.888181 0.750000 0.385333
O O19 0.087047 0.250000 0.124061
O O20 0.000000 0.435919 0.122030
#
# Coordination Sequence:
#
# PCOD9535403 Si02
#       7
#    16   8  16  16  16  16  16
#     4  10  19  30  46  71 101 132 168 210 253 298
#     4  10  20  30  44  66  96 130 164 206 257 306
#     4  10  20  35  54  76 102 134 170 206 246 293
#     4   9  19  34  52  72  96 129 171 213 250 296
#     4   9  17  30  50  74 101 134 166 199 243 298
#     4  10  19  32  48  69  97 131 169 210 256 303
#     4  10  20  34  53  79 108 134 162 199 244 294
#
# _framework density 16.697174
#
# number of rings (size 3 to 8) (size 9 to 14) (size 15 to 20)
#    0.000    2.308    0.769    2.308    0.000    5.538 
#    0.000    0.000    0.000    0.923    0.000    6.462 
#    0.000    0.000    0.000    0.000    0.000    0.000 
#
# Total GULP energy -290124.451042 kJ/mol
# GULP energy per Si atom -5579.316366 kJ/mol
# Density = 1.665917 g / cm^3
# Si number density = 16.697174 Si / 1000 Ang^3
#
#
#
# Elastic Constant Matrix: (Units=GPa)
#
#
# Indices 1 2 3 4 5 6 
#
# 1 30.8988 39.4645 53.9230 0.0000 0.0000 0.0000
# 2 39.4645 88.4168 88.6699 0.0000 0.0000 0.0000
# 3 53.9230 88.6699 187.9741 0.0000 0.0000 0.0000
# 4 0.0000 0.0000 0.0000 39.4646 0.0000 0.0000
# 5 0.0000 0.0000 0.0000 0.0000 18.0820 0.0000
# 6 0.0000 0.0000 0.0000 0.0000 0.0000 15.1080
#
#
#
# Elastic Compliance Matrix: (Units=1/GPa)
#
#
# Indices 1 2 3 4 5 6 
#
# 1 0.089235 -0.026869 -0.012924 0.000000 0.000000 0.000000
# 2 -0.026869 0.029554 -0.006233 0.000000 0.000000 0.000000
# 3 -0.012924 -0.006233 0.011968 0.000000 0.000000 0.000000
# 4 0.000000 0.000000 0.000000 0.025339 0.000000 0.000000
# 5 0.000000 0.000000 0.000000 0.000000 0.055304 0.000000
# 6 0.000000 0.000000 0.000000 0.000000 0.000000 0.066190
#
#
# Mechanical properties :
#
#
# Convention : Reuss Voigt Hill
#
# Bulk Modulus (GPa) = 25.83666 74.60051 50.21859
# Shear Modulus (GPa) = 13.07042 22.87976 17.97509
#
# Velocity S-wave (km/s) = 2.80088 3.70574 3.28462
# Velocity P-wave (km/s) = 5.09580 7.94264 6.67281
#
# Compressibility (1/GPa) = 0.03870469
#
# Stress axis : x y z
#
# Youngs Moduli (GPa) = 11.20634 33.83638 83.55839
#
# Poissons Ratio (x) = 0.90914 1.07991
# Poissons Ratio (y) = 0.30110 0.52085
# Poissons Ratio (z) = 0.14483 0.21091
#
# Static dielectric constant tensor:
#      x y z
#    x 1.555080 0.000000 0.000000 
#    y 0.000000 1.555490 0.000000 
#    z 0.000000 0.000000 1.532550 
# 
# From -- ./inp_files/68641.got.cif
#   From: 2010.05.17/outbox.cif.g08.bks.cpg/sg74_35_cif.got.tgz:68641.got - 2010.06.03 17:57:02.
