data_PCOD9535553
_publ_section_title
;
Structure prediction by ZEFSAII (Michael W. Deem and Ramdas Pophale) SiO2 
 PCOD9535553
Probable space group: I M M A
;
_chemical_formula_sum "Si O2"
_cell_formula_units_Z 112
_cell_length_a 29.489465
_cell_length_b 15.179745
_cell_length_c 13.352674
_cell_angle_alpha 90.000000
_cell_angle_beta 90.000000
_cell_angle_gamma 90.000000
_cell_volume 5977.225157
_symmetry_space_group_name_H-M "I M M A"
_symmetry_group_IT_number 74
_symmetry_cell_setting 'orthorhombic'
loop_
_space_group_symop_operation_xyz
x,y,z
-x,1/2-y,z
x,-y,-z
-x,1/2+y,-z
-x,-y,-z
x,1/2+y,-z
-x,y,z
x,1/2-y,z
1/2+x,1/2+y,1/2+z
1/2-x,-y,1/2+z
1/2+x,1/2-y,1/2-z
1/2-x,y,1/2-z
1/2-x,1/2-y,1/2-z
1/2+x,y,1/2-z
1/2-x,1/2+y,1/2+z
1/2+x,-y,1/2+z
loop_
_atom_site_type_symbol
_atom_site_label
_atom_site_fract_x
_atom_site_fract_y
_atom_site_fract_z
Si Si1 0.949667 0.599685 0.037860
Si Si2 0.449709 0.851653 0.685662
Si Si3 0.778025 0.536760 0.644863
Si Si4 0.705027 0.151502 0.819594
Si Si5 0.645154 0.645339 0.754356
Si Si6 0.359575 0.145082 0.637380
Si Si7 0.200406 0.354294 0.047519
O O1 0.909535 0.609671 0.116528
O O2 0.000000 0.625216 0.073893
O O3 0.950951 0.500000 0.000000
O O4 0.940002 0.649751 0.933659
O O5 0.500000 0.892305 0.698715
O O6 0.452406 0.750000 0.717407
O O7 0.406257 0.889324 0.742669
O O8 0.750000 0.531096 0.750000
O O9 0.789224 0.436305 0.615677
O O10 0.823325 0.591118 0.670681
O O11 0.744698 0.591197 0.574457
O O12 0.699343 0.250000 0.864403
O O13 0.750000 0.157860 0.750000
O O14 0.663401 0.131404 0.744245
O O15 0.645438 0.750000 0.778918
O O16 0.667374 0.638346 0.643524
O O17 0.362326 0.250000 0.622345
O O18 0.325394 0.111714 0.551068
O O19 0.210939 0.250000 0.034165
#
# Coordination Sequence:
#
# PCOD9535553 Si02
#       7
#    16  16  16  16  16  16  16
#     4  10  20  28  38  59  86 114 148 188 221 252
#     4   9  16  26  38  52  76 110 144 175 210 257
#     4   9  17  27  41  59  81 108 135 173 221 261
#     4   9  19  33  45  59  80 110 150 185 219 262
#     4   9  15  24  38  58  82 108 136 170 213 259
#     4  10  19  31  48  64  83 115 152 191 225 260
#     4   9  16  27  43  66  86 104 139 179 221 267
#
# _framework density 18.737791999999999
#
# number of rings (size 3 to 8) (size 9 to 14) (size 15 to 20)
#    0.000    2.714    1.429    0.857    2.000    3.714 
#    0.000    0.000    0.000    0.000    0.000    1.000 
#    0.000    0.000    0.000    1.286    0.000   42.571 
#
# Total GULP energy -312362.552993 kJ/mol
# GULP energy per Si atom -5577.902732 kJ/mol
# Density = 1.869514 g / cm^3
# Si number density = 18.737792 Si / 1000 Ang^3
#
#
#
# Elastic Constant Matrix: (Units=GPa)
#
#
# Indices 1 2 3 4 5 6 
#
# 1 157.2508 43.4086 30.3203 0.0000 0.0000 0.0000
# 2 43.4086 78.0460 16.2661 0.0000 0.0000 0.0000
# 3 30.3203 16.2661 23.8104 0.0000 0.0000 0.0000
# 4 0.0000 0.0000 0.0000 2.5018 0.0000 0.0000
# 5 0.0000 0.0000 0.0000 0.0000 23.2219 0.0000
# 6 0.0000 0.0000 0.0000 0.0000 0.0000 32.4561
#
#
#
# Elastic Compliance Matrix: (Units=1/GPa)
#
#
# Indices 1 2 3 4 5 6 
#
# 1 0.009013 -0.003056 -0.009390 0.000000 0.000000 0.000000
# 2 -0.003056 0.015976 -0.007023 0.000000 0.000000 0.000000
# 3 -0.009390 -0.007023 0.058753 0.000000 0.000000 0.000000
# 4 0.000000 0.000000 0.000000 0.399718 0.000000 0.000000
# 5 0.000000 0.000000 0.000000 0.000000 0.043063 0.000000
# 6 0.000000 0.000000 0.000000 0.000000 0.000000 0.030811
#
#
# Mechanical properties :
#
#
# Convention : Reuss Voigt Hill
#
# Bulk Modulus (GPa) = 22.31861 48.78858 35.55360
# Shear Modulus (GPa) = 8.18053 22.91011 15.54532
#
# Velocity S-wave (km/s) = 2.09172 3.50046 2.88344
# Velocity P-wave (km/s) = 4.21552 6.51396 5.48645
#
# Compressibility (1/GPa) = 0.04480565
#
# Stress axis : x y z
#
# Youngs Moduli (GPa) = 110.94544 62.59236 17.02035
#
# Poissons Ratio (x) = 0.19129 0.15982
# Poissons Ratio (y) = 0.33907 0.11953
# Poissons Ratio (z) = 1.04177 0.43956
#
# Static dielectric constant tensor:
#      x y z
#    x 1.686580 0.000000 0.000000 
#    y 0.000000 1.909050 0.000000 
#    z 0.000000 0.000000 1.638430 
# 
# From -- ./inp_files/33157.got.cif
#   From: 2010.05.17/outbox.cif.g08.bks.cpg/sg74_17_cif.got.tgz:33157.got - 2010.06.03 17:57:02.
