data_PCOD9535766
_publ_section_title
;
Structure prediction by ZEFSAII (Michael W. Deem and Ramdas Pophale) SiO2 
 PCOD9535766
Probable space group: I M M A
;
_chemical_formula_sum "Si O2"
_cell_formula_units_Z 84
_cell_length_a 15.104851
_cell_length_b 19.572044
_cell_length_c 14.459791
_cell_angle_alpha 90.000000
_cell_angle_beta 90.000000
_cell_angle_gamma 90.000000
_cell_volume 4274.788622
_symmetry_space_group_name_H-M "I M M A"
_symmetry_group_IT_number 74
_symmetry_cell_setting 'orthorhombic'
loop_
_space_group_symop_operation_xyz
x,y,z
-x,1/2-y,z
x,-y,-z
-x,1/2+y,-z
-x,-y,-z
x,1/2+y,-z
-x,y,z
x,1/2-y,z
1/2+x,1/2+y,1/2+z
1/2-x,-y,1/2+z
1/2+x,1/2-y,1/2-z
1/2-x,y,1/2-z
1/2-x,1/2-y,1/2-z
1/2+x,y,1/2-z
1/2-x,1/2+y,1/2+z
1/2+x,-y,1/2+z
loop_
_atom_site_type_symbol
_atom_site_label
_atom_site_fract_x
_atom_site_fract_y
_atom_site_fract_z
Si Si1 0.500000 0.831006 0.761832
Si Si2 0.191413 0.417736 0.983800
Si Si3 0.819874 0.668925 0.832753
Si Si4 0.500000 0.462897 0.786135
Si Si5 0.500000 0.250000 0.915871
Si Si6 0.500000 0.560479 0.425976
Si Si7 0.874676 0.116617 0.588974
Si Si8 0.500000 0.915326 0.929368
O O1 0.500000 0.750000 0.751764
O O2 0.412626 0.855693 0.710263
O O3 0.500000 0.845467 0.871257
O O4 0.202591 0.377450 0.080078
O O5 0.198599 0.500000 0.000000
O O6 0.093152 0.401957 0.944375
O O7 0.270142 0.391016 0.918591
O O8 0.824547 0.750000 0.857872
O O9 0.750000 0.663011 0.750000
O O10 0.500000 0.469272 0.677133
O O11 0.414731 0.421183 0.821982
O O12 0.500000 0.531143 0.846608
O O13 0.422087 0.310028 0.914373
O O14 0.500000 0.500000 0.500000
O O15 0.916343 0.080368 0.497068
#
# Coordination Sequence:
#
# PCOD9535766 Si02
#       8
#     8  16  16   8   4   8  16   8
#     4  10  21  33  54  89 127 172 209 250 318 380
#     4  11  23  40  62  93 136 166 221 259 317 385
#     4  10  22  39  60  91 128 168 214 262 317 390
#     4  10  21  39  63  88 127 158 212 272 326 375
#     4   8  20  38  68  92 126 162 198 260 322 396
#     4  10  25  43  60  90 126 178 217 251 309 388
#     4  10  21  39  63  95 124 156 212 270 329 384
#     4  10  19  31  64  92 124 160 203 264 331 378
#
# _framework density 19.650095
#
# number of rings (size 3 to 8) (size 9 to 14) (size 15 to 20)
#    0.000    2.095    0.000    4.000    9.333    0.762 
#    0.000    0.000    8.381    4.571    0.000    0.000 
#    0.000    0.000    0.000    0.000    0.000    0.000 
#
# Total GULP energy -233833.997261 kJ/mol
# GULP energy per Si atom -5567.476125 kJ/mol
# Density = 1.960537 g / cm^3
# Si number density = 19.650095 Si / 1000 Ang^3
#
#
#
# Elastic Constant Matrix: (Units=GPa)
#
#
# Indices 1 2 3 4 5 6 
#
# 1 163.2466 33.2608 19.9645 0.0000 0.0000 0.0000
# 2 33.2608 88.4972 32.4335 0.0000 0.0000 0.0000
# 3 19.9645 32.4335 116.8816 0.0000 0.0000 0.0000
# 4 0.0000 0.0000 0.0000 24.6872 0.0000 0.0000
# 5 0.0000 0.0000 0.0000 0.0000 10.9877 0.0000
# 6 0.0000 0.0000 0.0000 0.0000 0.0000 22.1810
#
#
#
# Elastic Compliance Matrix: (Units=1/GPa)
#
#
# Indices 1 2 3 4 5 6 
#
# 1 0.006659 -0.002322 -0.000493 0.000000 0.000000 0.000000
# 2 -0.002322 0.013389 -0.003319 0.000000 0.000000 0.000000
# 3 -0.000493 -0.003319 0.009561 0.000000 0.000000 0.000000
# 4 0.000000 0.000000 0.000000 0.040507 0.000000 0.000000
# 5 0.000000 0.000000 0.000000 0.000000 0.091011 0.000000
# 6 0.000000 0.000000 0.000000 0.000000 0.000000 0.045084
#
#
# Mechanical properties :
#
#
# Convention : Reuss Voigt Hill
#
# Bulk Modulus (GPa) = 57.66641 59.99369 58.83005
# Shear Modulus (GPa) = 22.29574 30.43562 26.36568
#
# Velocity S-wave (km/s) = 3.37209 3.93985 3.66698
# Velocity P-wave (km/s) = 6.67620 7.16197 6.92335
#
# Compressibility (1/GPa) = 0.01734112
#
# Stress axis : x y z
#
# Youngs Moduli (GPa) = 150.17017 74.68952 104.59400
#
# Poissons Ratio (x) = 0.17343 0.05157
# Poissons Ratio (y) = 0.34870 0.34711
# Poissons Ratio (z) = 0.07405 0.24787
#
# Static dielectric constant tensor:
#      x y z
#    x 1.725940 0.000000 0.000000 
#    y 0.000000 1.740700 0.000000 
#    z 0.000000 0.000000 1.673970 
# 
# From -- ./inp_files/32290.got.cif
#   From: 2010.05.17/outbox.cif.g08.bks.cpg/sg74_17_cif.got.tgz:32290.got - 2010.06.03 17:57:02.
