data_PCOD9535381
_publ_section_title
;
Structure prediction by ZEFSAII (Michael W. Deem and Ramdas Pophale) SiO2 
 PCOD9535381
Probable space group: I M M A
;
_chemical_formula_sum "Si O2"
_cell_formula_units_Z 96
_cell_length_a 26.441156
_cell_length_b 7.972730
_cell_length_c 24.313098
_cell_angle_alpha 90.000000
_cell_angle_beta 90.000000
_cell_angle_gamma 90.000000
_cell_volume 5125.400369
_symmetry_space_group_name_H-M "I M M A"
_symmetry_group_IT_number 74
_symmetry_cell_setting 'orthorhombic'
loop_
_space_group_symop_operation_xyz
x,y,z
-x,1/2-y,z
x,-y,-z
-x,1/2+y,-z
-x,-y,-z
x,1/2+y,-z
-x,y,z
x,1/2-y,z
1/2+x,1/2+y,1/2+z
1/2-x,-y,1/2+z
1/2+x,1/2-y,1/2-z
1/2-x,y,1/2-z
1/2-x,1/2-y,1/2-z
1/2+x,y,1/2-z
1/2-x,1/2+y,1/2+z
1/2+x,-y,1/2+z
loop_
_atom_site_type_symbol
_atom_site_label
_atom_site_fract_x
_atom_site_fract_y
_atom_site_fract_z
Si Si1 0.309697 0.443279 0.244658
Si Si2 0.442035 0.955181 0.189099
Si Si3 0.845912 0.557735 0.369308
Si Si4 0.249447 0.949247 0.436662
Si Si5 0.157225 0.948851 0.861660
Si Si6 0.442306 0.047996 0.684192
O O1 0.328251 0.250000 0.236987
O O2 0.250000 0.432523 0.250000
O O3 0.323380 0.551221 0.192104
O O4 0.327689 0.519857 0.301981
O O5 0.500000 0.003046 0.177919
O O6 0.439815 0.750000 0.189150
O O7 0.401621 0.016108 0.143732
O O8 0.430064 0.007872 0.252484
O O9 0.853463 0.750000 0.387711
O O10 0.801595 0.479869 0.407129
O O11 0.245455 0.750000 0.432466
O O12 0.250982 0.000000 0.500000
O O13 0.301942 0.994943 0.406341
O O14 0.163049 0.750000 0.858541
O O15 0.097718 0.989536 0.861604
O O16 0.500000 0.993926 0.673233
O O17 0.441564 0.250000 0.685067
#
# Coordination Sequence:
#
# PCOD9535381 Si02
#       6
#    16  16  16  16  16  16
#     4  10  19  30  45  72 108 140 165 199 258 315
#     4   8  14  26  46  74 107 138 169 207 249 297
#     4  10  19  31  52  77 101 133 175 216 256 307
#     4  11  24  39  55  75  99 133 177 224 269 314
#     4  11  21  33  52  77 108 142 173 210 257 312
#     4   9  17  30  50  77 110 145 176 208 249 301
#
# _framework density 18.730243999999999
#
# number of rings (size 3 to 8) (size 9 to 14) (size 15 to 20)
#    0.000    2.167    3.333    2.000    0.000    2.000 
#    0.000    0.000    0.000    1.500    0.000    0.000 
#    0.000    0.000    0.000    0.000    0.000    0.167 
#
# Total GULP energy -267274.436594 kJ/mol
# GULP energy per Si atom -5568.217429 kJ/mol
# Density = 1.868761 g / cm^3
# Si number density = 18.730244 Si / 1000 Ang^3
#
#
#
# Elastic Constant Matrix: (Units=GPa)
#
#
# Indices 1 2 3 4 5 6 
#
# 1 167.2682 8.3941 72.4056 0.0000 0.0000 0.0000
# 2 8.3941 21.8317 3.5806 0.0000 0.0000 0.0000
# 3 72.4056 3.5806 98.1984 0.0000 0.0000 0.0000
# 4 0.0000 0.0000 0.0000 -9.6150 0.0000 0.0000
# 5 0.0000 0.0000 0.0000 0.0000 49.0385 0.0000
# 6 0.0000 0.0000 0.0000 0.0000 0.0000 12.1485
#
#
#
# Elastic Compliance Matrix: (Units=1/GPa)
#
#
# Indices 1 2 3 4 5 6 
#
# 1 0.008900 -0.002360 -0.006477 0.000000 0.000000 0.000000
# 2 -0.002360 0.046706 0.000037 0.000000 0.000000 0.000000
# 3 -0.006477 0.000037 0.014958 0.000000 0.000000 0.000000
# 4 0.000000 0.000000 0.000000 -0.104004 0.000000 0.000000
# 5 0.000000 0.000000 0.000000 0.000000 0.020392 0.000000
# 6 0.000000 0.000000 0.000000 0.000000 0.000000 0.082315
#
#
# Mechanical properties :
#
#
# Convention : Reuss Voigt Hill
#
# Bulk Modulus (GPa) = 18.88032 50.67323 34.77678
# Shear Modulus (GPa) = 47.83731 23.84226 35.83979
#
# Velocity S-wave (km/s) = 5.05921 3.57168 4.37907
# Velocity P-wave (km/s) = 6.65052 6.64245 6.64649
#
# Compressibility (1/GPa) = 0.05296520
#
# Stress axis : x y z
#
# Youngs Moduli (GPa) = 112.35499 21.41043 66.85598
#
# Poissons Ratio (x) = 0.05053 0.43300
# Poissons Ratio (y) = 0.26515 -0.00247
# Poissons Ratio (z) = 0.72767 -0.00079
#
# Static dielectric constant tensor:
#      x y z
#    x 1.752530 0.000000 0.000000 
#    y 0.000000 1.684520 0.000000 
#    z 0.000000 0.000000 1.935330 
# 
# From -- ./inp_files/49031.got.cif
#   From: 2010.05.17/outbox.cif.g08.bks.cpg/sg74_25_cif.got.tgz:49031.got - 2010.06.03 17:57:02.
