data_PCOD9535601
_publ_section_title
;
Structure prediction by ZEFSAII (Michael W. Deem and Ramdas Pophale) SiO2 
 PCOD9535601
Probable space group: I M M A
;
_chemical_formula_sum "Si O2"
_cell_formula_units_Z 104
_cell_length_a 13.116211
_cell_length_b 20.413401
_cell_length_c 22.783613
_cell_angle_alpha 90.000000
_cell_angle_beta 90.000000
_cell_angle_gamma 90.000000
_cell_volume 6100.232063
_symmetry_space_group_name_H-M "I M M A"
_symmetry_group_IT_number 74
_symmetry_cell_setting 'orthorhombic'
loop_
_space_group_symop_operation_xyz
x,y,z
-x,1/2-y,z
x,-y,-z
-x,1/2+y,-z
-x,-y,-z
x,1/2+y,-z
-x,y,z
x,1/2-y,z
1/2+x,1/2+y,1/2+z
1/2-x,-y,1/2+z
1/2+x,1/2-y,1/2-z
1/2-x,y,1/2-z
1/2-x,1/2-y,1/2-z
1/2+x,y,1/2-z
1/2-x,1/2+y,1/2+z
1/2+x,-y,1/2+z
loop_
_atom_site_type_symbol
_atom_site_label
_atom_site_fract_x
_atom_site_fract_y
_atom_site_fract_z
Si Si1 0.113533 0.677171 0.775413
Si Si2 0.125568 0.250000 0.031936
Si Si3 0.623379 0.889323 0.343342
Si Si4 0.285442 0.131745 0.391518
Si Si5 0.876944 0.250000 0.892279
Si Si6 0.617626 0.068606 0.174380
Si Si7 0.378364 0.499387 0.565790
Si Si8 0.750000 0.966491 0.250000
O O1 0.130023 0.750000 0.751438
O O2 0.188084 0.661668 0.828177
O O3 0.115925 0.623590 0.725234
O O4 0.000000 0.675686 0.802027
O O5 0.179203 0.186479 0.061752
O O6 0.000000 0.250000 0.040978
O O7 0.145218 0.250000 0.961985
O O8 0.500000 0.890410 0.338800
O O9 0.657324 0.816146 0.359932
O O10 0.672292 0.921029 0.285889
O O11 0.655028 0.937247 0.396605
O O12 0.171793 0.102224 0.382087
O O13 0.351862 0.067063 0.402903
O O14 0.000000 0.250000 0.889231
O O15 0.500000 0.048604 0.163738
O O16 0.687803 0.011834 0.203435
O O17 0.335591 0.500000 0.500000
O O18 0.500000 0.494317 0.561860
#
# Coordination Sequence:
#
# PCOD9535601 Si02
#       8
#    16   8  16  16   8  16  16   8
#     4  10  19  31  49  72 105 143 179 217 259 314
#     4  11  22  34  55  85 115 148 183 220 273 341
#     4  10  20  35  57  84 116 147 176 224 287 344
#     4  12  20  32  51  77 110 146 181 220 268 321
#     4   9  20  39  57  85 119 138 167 227 290 344
#     4  11  23  36  50  74 109 147 188 232 272 320
#     4  10  19  32  53  81 110 141 179 223 273 331
#     4  12  20  37  57  82 108 148 190 232 282 337
#
# _framework density 17.048532000000002
#
# number of rings (size 3 to 8) (size 9 to 14) (size 15 to 20)
#    0.000    1.385    3.846    2.769    1.077    5.846 
#    0.000    0.000    0.000    0.462    0.000    2.154 
#    0.000    0.000    0.000    0.000    0.000    0.000 
#
# Total GULP energy -289843.055372 kJ/mol
# GULP energy per Si atom -5573.904911 kJ/mol
# Density = 1.700973 g / cm^3
# Si number density = 17.048532 Si / 1000 Ang^3
#
#
#
# Elastic Constant Matrix: (Units=GPa)
#
#
# Indices 1 2 3 4 5 6 
#
# 1 70.6990 23.2977 23.3993 0.0000 0.0000 0.0000
# 2 23.2977 139.0595 37.4226 0.0000 0.0000 0.0000
# 3 23.3993 37.4226 54.5888 0.0000 0.0000 0.0000
# 4 0.0000 0.0000 0.0000 -6.8088 0.0000 0.0000
# 5 0.0000 0.0000 0.0000 0.0000 16.8344 0.0000
# 6 0.0000 0.0000 0.0000 0.0000 0.0000 15.9659
#
#
#
# Elastic Compliance Matrix: (Units=1/GPa)
#
#
# Indices 1 2 3 4 5 6 
#
# 1 0.016610 -0.001063 -0.006391 0.000000 0.000000 0.000000
# 2 -0.001063 0.008886 -0.005636 0.000000 0.000000 0.000000
# 3 -0.006391 -0.005636 0.024922 0.000000 0.000000 0.000000
# 4 0.000000 0.000000 0.000000 -0.146869 0.000000 0.000000
# 5 0.000000 0.000000 0.000000 0.000000 0.059402 0.000000
# 6 0.000000 0.000000 0.000000 0.000000 0.000000 0.062633
#
#
# Mechanical properties :
#
#
# Convention : Reuss Voigt Hill
#
# Bulk Modulus (GPa) = 41.25787 48.06519 44.66153
# Shear Modulus (GPa) = 83.55081 17.21350 50.38215
#
# Velocity S-wave (km/s) = 7.00814 3.18099 5.44209
# Velocity P-wave (km/s) = 9.47302 6.46111 8.10815
#
# Compressibility (1/GPa) = 0.02423780
#
# Stress axis : x y z
#
# Youngs Moduli (GPa) = 60.20463 112.53695 40.12507
#
# Poissons Ratio (x) = 0.11961 0.25645
# Poissons Ratio (y) = 0.06399 0.22615
# Poissons Ratio (z) = 0.38478 0.63427
#
# Static dielectric constant tensor:
#      x y z
#    x 1.622780 0.000000 0.000000 
#    y 0.000000 1.588100 0.000000 
#    z 0.000000 0.000000 1.579770 
# 
# From -- ./inp_files/52153.got.cif
#   From: 2010.05.17/outbox.cif.g08.bks.cpg/sg74_27_cif.got.tgz:52153.got - 2010.06.03 17:57:02.
