data_PCOD9535538
_publ_section_title
;
Structure prediction by ZEFSAII (Michael W. Deem and Ramdas Pophale) SiO2 
 PCOD9535538
Probable space group: I M M A
;
_chemical_formula_sum "Si O2"
_cell_formula_units_Z 72
_cell_length_a 34.645013
_cell_length_b 8.609489
_cell_length_c 14.892433
_cell_angle_alpha 90.000000
_cell_angle_beta 90.000000
_cell_angle_gamma 90.000000
_cell_volume 4442.053236
_symmetry_space_group_name_H-M "I M M A"
_symmetry_group_IT_number 74
_symmetry_cell_setting 'orthorhombic'
loop_
_space_group_symop_operation_xyz
x,y,z
-x,1/2-y,z
x,-y,-z
-x,1/2+y,-z
-x,-y,-z
x,1/2+y,-z
-x,y,z
x,1/2-y,z
1/2+x,1/2+y,1/2+z
1/2-x,-y,1/2+z
1/2+x,1/2-y,1/2-z
1/2-x,y,1/2-z
1/2-x,1/2-y,1/2-z
1/2+x,y,1/2-z
1/2-x,1/2+y,1/2+z
1/2+x,-y,1/2+z
loop_
_atom_site_type_symbol
_atom_site_label
_atom_site_fract_x
_atom_site_fract_y
_atom_site_fract_z
Si Si1 0.727360 0.063475 0.901529
Si Si2 0.500000 0.562910 0.101321
Si Si3 0.156111 0.437656 0.724746
Si Si4 0.187375 0.934616 0.901762
Si Si5 0.584678 0.437929 0.898414
O O1 0.729660 0.250000 0.904763
O O2 0.694620 0.018797 0.830708
O O3 0.769669 0.998438 0.879806
O O4 0.716795 0.000000 0.000000
O O5 0.500000 0.750000 0.100536
O O6 0.542039 0.514553 0.137435
O O7 0.500000 0.500000 0.000000
O O8 0.155510 0.250000 0.731848
O O9 0.159339 0.508805 0.823233
O O10 0.119060 0.487895 0.666945
O O11 0.188912 0.750000 0.905953
O O12 0.177254 0.000000 0.000000
O O13 0.585828 0.250000 0.903334
O O14 0.589621 0.500000 0.000000
#
# Coordination Sequence:
#
# PCOD9535538 Si02
#       5
#    16   8  16  16  16
#     4  10  19  31  47  66  92 123 153 187 226 268
#     4   8  14  26  44  66  93 126 155 178 213 260
#     4  10  20  32  46  67  94 122 152 189 229 266
#     4  11  22  35  50  65  85 116 154 194 233 273
#     4   9  17  29  46  69  98 127 154 184 218 262
#
# _framework density 16.208721000000001
#
# number of rings (size 3 to 8) (size 9 to 14) (size 15 to 20)
#    0.000    2.222    0.000    5.333    0.000    5.333 
#    0.000    0.000    0.000    0.000    0.000    0.778 
#    0.000    0.000    0.000    0.000    0.000    0.000 
#
# Total GULP energy -200785.126344 kJ/mol
# GULP energy per Si atom -5577.364621 kJ/mol
# Density = 1.617183 g / cm^3
# Si number density = 16.208721 Si / 1000 Ang^3
#
#
#
# Elastic Constant Matrix: (Units=GPa)
#
#
# Indices 1 2 3 4 5 6 
#
# 1 98.3706 29.4490 87.6054 0.0000 0.0000 0.0000
# 2 29.4490 36.1225 28.0368 0.0000 0.0000 0.0000
# 3 87.6054 28.0368 103.7745 0.0000 0.0000 0.0000
# 4 0.0000 0.0000 0.0000 26.0568 0.0000 0.0000
# 5 0.0000 0.0000 0.0000 0.0000 21.0346 0.0000
# 6 0.0000 0.0000 0.0000 0.0000 0.0000 16.3196
#
#
#
# Elastic Compliance Matrix: (Units=1/GPa)
#
#
# Indices 1 2 3 4 5 6 
#
# 1 0.043021 -0.008711 -0.033964 0.000000 0.000000 0.000000
# 2 -0.008711 0.036793 -0.002586 0.000000 0.000000 0.000000
# 3 -0.033964 -0.002586 0.039007 0.000000 0.000000 0.000000
# 4 0.000000 0.000000 0.000000 0.038378 0.000000 0.000000
# 5 0.000000 0.000000 0.000000 0.000000 0.047541 0.000000
# 6 0.000000 0.000000 0.000000 0.000000 0.000000 0.061276
#
#
# Mechanical properties :
#
#
# Convention : Reuss Voigt Hill
#
# Bulk Modulus (GPa) = 35.33909 58.71667 47.02788
# Shear Modulus (GPa) = 13.66225 18.89396 16.27811
#
# Velocity S-wave (km/s) = 2.90641 3.41789 3.17248
# Velocity P-wave (km/s) = 5.75438 7.20277 6.51893
#
# Compressibility (1/GPa) = 0.02829727
#
# Stress axis : x y z
#
# Youngs Moduli (GPa) = 23.24451 27.17916 25.63614
#
# Poissons Ratio (x) = 0.23676 0.87071
# Poissons Ratio (y) = 0.20249 0.06631
# Poissons Ratio (z) = 0.78948 0.07030
#
# Static dielectric constant tensor:
#      x y z
#    x 1.571260 0.000000 0.000000 
#    y 0.000000 1.547980 0.000000 
#    z 0.000000 0.000000 1.519210 
# 
# From -- ./inp_files/29430.got.cif
#   From: 2010.05.17/outbox.cif.g08.bks.cpg/sg74_15_cif.got.tgz:29430.got - 2010.06.03 17:57:02.
