data_PCOD9535268
_publ_section_title
;
Structure prediction by ZEFSAII (Michael W. Deem and Ramdas Pophale) SiO2 
 PCOD9535268
Probable space group: I M M A
;
_chemical_formula_sum "Si O2"
_cell_formula_units_Z 104
_cell_length_a 28.875115
_cell_length_b 7.526990
_cell_length_c 23.909143
_cell_angle_alpha 90.000000
_cell_angle_beta 90.000000
_cell_angle_gamma 90.000000
_cell_volume 5196.477739
_symmetry_space_group_name_H-M "I M M A"
_symmetry_group_IT_number 74
_symmetry_cell_setting 'orthorhombic'
loop_
_space_group_symop_operation_xyz
x,y,z
-x,1/2-y,z
x,-y,-z
-x,1/2+y,-z
-x,-y,-z
x,1/2+y,-z
-x,y,z
x,1/2-y,z
1/2+x,1/2+y,1/2+z
1/2-x,-y,1/2+z
1/2+x,1/2-y,1/2-z
1/2-x,y,1/2-z
1/2-x,1/2-y,1/2-z
1/2+x,y,1/2-z
1/2-x,1/2+y,1/2+z
1/2+x,-y,1/2+z
loop_
_atom_site_type_symbol
_atom_site_label
_atom_site_fract_x
_atom_site_fract_y
_atom_site_fract_z
Si Si1 0.947487 0.536814 0.065420
Si Si2 0.500000 0.037432 0.066365
Si Si3 0.303903 0.965616 0.260891
Si Si4 0.644792 0.032644 0.625476
Si Si5 0.900215 0.961808 0.565901
Si Si6 0.765838 0.962692 0.063502
Si Si7 0.814875 0.955386 0.359021
O O1 0.948957 0.750000 0.071384
O O2 0.906133 0.472094 0.105895
O O3 0.000000 0.469719 0.076479
O O4 0.936756 0.500000 0.000000
O O5 0.500000 0.250000 0.073892
O O6 0.549599 0.969836 0.086436
O O7 0.500000 0.000000 0.000000
O O8 0.303623 0.750000 0.266935
O O9 0.250000 0.016942 0.250000
O O10 0.332227 0.026617 0.315517
O O11 0.326664 0.024877 0.202404
O O12 0.643038 0.250000 0.626857
O O13 0.682657 0.977575 0.579017
O O14 0.899119 0.750000 0.572627
O O15 0.895670 0.000000 0.500000
O O16 0.858121 0.038087 0.600211
O O17 0.765671 0.750000 0.069101
O O18 0.728819 0.035698 0.108122
O O19 0.752431 0.000000 0.000000
O O20 0.802222 0.750000 0.348920
#
# Coordination Sequence:
#
# PCOD9535268 Si02
#       7
#    16   8  16  16  16  16  16
#     4   9  17  29  47  72  99 125 154 194 245 293
#     4   8  16  30  48  68  88 118 154 186 223 272
#     4   9  15  28  49  69  89 122 165 200 229 272
#     4   9  16  28  47  68  91 122 159 197 233 275
#     4  10  19  32  50  71  96 124 155 192 236 283
#     4  10  19  29  43  66  94 122 152 186 229 280
#     4  10  19  30  47  70  94 123 158 194 235 282
#
# _framework density 20.013556999999999
#
# number of rings (size 3 to 8) (size 9 to 14) (size 15 to 20)
#    0.000    2.615    1.538    1.385    0.000    2.462 
#    0.000    0.000    1.692    2.308    0.000    0.000 
#    0.000    0.000    0.000    0.000    0.000    0.000 
#
# Total GULP energy -289775.525854 kJ/mol
# GULP energy per Si atom -5572.606266 kJ/mol
# Density = 1.996800 g / cm^3
# Si number density = 20.013557 Si / 1000 Ang^3
#
#
#
# Elastic Constant Matrix: (Units=GPa)
#
#
# Indices 1 2 3 4 5 6 
#
# 1 150.2747 -0.3230 67.2365 0.0000 0.0000 0.0000
# 2 -0.3230 50.4773 -1.6390 0.0000 0.0000 0.0000
# 3 67.2365 -1.6390 118.1380 0.0000 0.0000 0.0000
# 4 0.0000 0.0000 0.0000 9.2223 0.0000 0.0000
# 5 0.0000 0.0000 0.0000 0.0000 20.2936 0.0000
# 6 0.0000 0.0000 0.0000 0.0000 0.0000 1.6077
#
#
#
# Elastic Compliance Matrix: (Units=1/GPa)
#
#
# Indices 1 2 3 4 5 6 
#
# 1 0.008929 -0.000108 -0.005083 0.000000 0.000000 0.000000
# 2 -0.000108 0.019821 0.000336 0.000000 0.000000 0.000000
# 3 -0.005083 0.000336 0.011362 0.000000 0.000000 0.000000
# 4 0.000000 0.000000 0.000000 0.108433 0.000000 0.000000
# 5 0.000000 0.000000 0.000000 0.000000 0.049277 0.000000
# 6 0.000000 0.000000 0.000000 0.000000 0.000000 0.622022
#
#
# Mechanical properties :
#
#
# Convention : Reuss Voigt Hill
#
# Bulk Modulus (GPa) = 32.89169 49.93768 41.41469
# Shear Modulus (GPa) = 5.95460 23.13239 14.54349
#
# Velocity S-wave (km/s) = 1.72677 3.40345 2.69863
# Velocity P-wave (km/s) = 4.52173 6.36009 5.51800
#
# Compressibility (1/GPa) = 0.03040282
#
# Stress axis : x y z
#
# Youngs Moduli (GPa) = 112.00061 50.45129 88.01046
#
# Poissons Ratio (x) = 0.00544 0.44736
# Poissons Ratio (y) = 0.01209 -0.02961
# Poissons Ratio (z) = 0.56930 -0.01697
#
# Static dielectric constant tensor:
#      x y z
#    x 1.736820 0.000000 0.000000 
#    y 0.000000 1.818360 0.000000 
#    z 0.000000 0.000000 1.701120 
# 
# From -- ./inp_files/57861.got.cif
#   From: 2010.05.17/outbox.cif.g08.bks.cpg/sg74_29_cif.got.tgz:57861.got - 2010.06.03 17:57:02.
