data_PCOD9535878
_publ_section_title
;
Structure prediction by ZEFSAII (Michael W. Deem and Ramdas Pophale) SiO2 
 PCOD9535878
Probable space group: I M M A
;
_chemical_formula_sum "Si O2"
_cell_formula_units_Z 96
_cell_length_a 29.519906
_cell_length_b 9.375011
_cell_length_c 19.800558
_cell_angle_alpha 90.000000
_cell_angle_beta 90.000000
_cell_angle_gamma 90.000000
_cell_volume 5479.793407
_symmetry_space_group_name_H-M "I M M A"
_symmetry_group_IT_number 74
_symmetry_cell_setting 'orthorhombic'
loop_
_space_group_symop_operation_xyz
x,y,z
-x,1/2-y,z
x,-y,-z
-x,1/2+y,-z
-x,-y,-z
x,1/2+y,-z
-x,y,z
x,1/2-y,z
1/2+x,1/2+y,1/2+z
1/2-x,-y,1/2+z
1/2+x,1/2-y,1/2-z
1/2-x,y,1/2-z
1/2-x,1/2-y,1/2-z
1/2+x,y,1/2-z
1/2-x,1/2+y,1/2+z
1/2+x,-y,1/2+z
loop_
_atom_site_type_symbol
_atom_site_label
_atom_site_fract_x
_atom_site_fract_y
_atom_site_fract_z
Si Si1 0.444625 0.913923 0.433829
Si Si2 0.335016 0.917340 0.068185
Si Si3 0.946101 0.082121 0.199741
Si Si4 0.625627 0.416231 0.193869
Si Si5 0.274160 0.917719 0.431441
Si Si6 0.208074 0.416565 0.202046
O O1 0.500000 0.915049 0.434575
O O2 0.429938 0.750000 0.436114
O O3 0.429584 0.000000 0.500000
O O4 0.430706 0.991393 0.364850
O O5 0.344849 0.750000 0.062517
O O6 0.280527 0.932934 0.076422
O O7 0.359779 0.987172 0.131736
O O8 0.347573 0.000000 0.000000
O O9 0.936614 0.250000 0.186928
O O10 0.920465 0.042290 0.268197
O O11 0.000000 0.065561 0.206572
O O12 0.623287 0.250000 0.172460
O O13 0.663806 0.425655 0.251879
O O14 0.284667 0.750000 0.436220
O O15 0.287116 0.000000 0.500000
O O16 0.294787 0.989827 0.364976
O O17 0.215737 0.250000 0.183266
O O18 0.250000 0.461043 0.250000
#
# Coordination Sequence:
#
# PCOD9535878 Si02
#       6
#    16  16  16  16  16  16
#     4   9  16  27  46  71  97 126 163 207 252 298
#     4  10  20  33  52  77 104 133 168 209 250 297
#     4   9  18  33  52  74 101 133 170 212 256 302
#     4  10  20  34  53  77 104 135 169 206 253 304
#     4  10  20  33  51  74 103 138 174 210 249 297
#     4  10  19  32  51  74 103 135 165 203 249 299
#
# _framework density 17.518909000000001
#
# number of rings (size 3 to 8) (size 9 to 14) (size 15 to 20)
#    0.000    2.333    1.667    1.500    0.000    5.000 
#    0.000    0.833    0.000    0.500    0.000    0.000 
#    0.000    0.000    0.000    0.000    0.000    0.000 
#
# Total GULP energy -267895.552072 kJ/mol
# GULP energy per Si atom -5581.157335 kJ/mol
# Density = 1.747903 g / cm^3
# Si number density = 17.518909 Si / 1000 Ang^3
#
#
#
# Elastic Constant Matrix: (Units=GPa)
#
#
# Indices 1 2 3 4 5 6 
#
# 1 13.8054 17.2878 14.9347 0.0000 0.0000 0.0000
# 2 17.2878 103.0922 82.3911 0.0000 0.0000 0.0000
# 3 14.9347 82.3911 128.3283 0.0000 0.0000 0.0000
# 4 0.0000 0.0000 0.0000 39.2274 0.0000 0.0000
# 5 0.0000 0.0000 0.0000 0.0000 19.9560 0.0000
# 6 0.0000 0.0000 0.0000 0.0000 0.0000 12.5632
#
#
#
# Elastic Compliance Matrix: (Units=1/GPa)
#
#
# Indices 1 2 3 4 5 6 
#
# 1 0.091858 -0.014090 -0.001644 0.000000 0.000000 0.000000
# 2 -0.014090 0.022084 -0.012539 0.000000 0.000000 0.000000
# 3 -0.001644 -0.012539 0.016034 0.000000 0.000000 0.000000
# 4 0.000000 0.000000 0.000000 0.025492 0.000000 0.000000
# 5 0.000000 0.000000 0.000000 0.000000 0.050110 0.000000
# 6 0.000000 0.000000 0.000000 0.000000 0.000000 0.079597
#
#
# Mechanical properties :
#
#
# Convention : Reuss Voigt Hill
#
# Bulk Modulus (GPa) = 13.61836 52.71701 33.16769
# Shear Modulus (GPa) = 13.65380 23.05682 18.35531
#
# Velocity S-wave (km/s) = 2.79476 3.63176 3.24040
# Velocity P-wave (km/s) = 4.26669 6.90963 5.74228
#
# Compressibility (1/GPa) = 0.07343030
#
# Stress axis : x y z
#
# Youngs Moduli (GPa) = 10.88637 45.28204 62.36689
#
# Poissons Ratio (x) = 0.63802 0.10253
# Poissons Ratio (y) = 0.15339 0.78200
# Poissons Ratio (z) = 0.01790 0.56778
#
# Static dielectric constant tensor:
#      x y z
#    x 1.617830 0.000000 0.000000 
#    y 0.000000 1.588990 0.000000 
#    z 0.000000 0.000000 1.561840 
# 
# From -- ./inp_files/49069.got.cif
#   From: 2010.05.17/outbox.cif.g08.bks.cpg/sg74_25_cif.got.tgz:49069.got - 2010.06.03 17:57:02.
