data_PCOD9535016
_publ_section_title
;
Structure prediction by ZEFSAII (Michael W. Deem and Ramdas Pophale) SiO2 
 PCOD9535016
Probable space group: I M M A
;
_chemical_formula_sum "Si O2"
_cell_formula_units_Z 116
_cell_length_a 25.604346
_cell_length_b 7.537888
_cell_length_c 24.113238
_cell_angle_alpha 90.000000
_cell_angle_beta 90.000000
_cell_angle_gamma 90.000000
_cell_volume 4653.919858
_symmetry_space_group_name_H-M "I M M A"
_symmetry_group_IT_number 74
_symmetry_cell_setting 'orthorhombic'
loop_
_space_group_symop_operation_xyz
x,y,z
-x,1/2-y,z
x,-y,-z
-x,1/2+y,-z
-x,-y,-z
x,1/2+y,-z
-x,y,z
x,1/2-y,z
1/2+x,1/2+y,1/2+z
1/2-x,-y,1/2+z
1/2+x,1/2-y,1/2-z
1/2-x,y,1/2-z
1/2-x,1/2-y,1/2-z
1/2+x,y,1/2-z
1/2-x,1/2+y,1/2+z
1/2+x,-y,1/2+z
loop_
_atom_site_type_symbol
_atom_site_label
_atom_site_fract_x
_atom_site_fract_y
_atom_site_fract_z
Si Si1 0.413253 0.455128 0.712843
Si Si2 0.943766 0.041178 0.934337
Si Si3 0.826981 0.458747 0.066232
Si Si4 0.000000 0.250000 0.177204
Si Si5 0.220729 0.036055 0.383916
Si Si6 0.560947 0.043716 0.165031
Si Si7 0.806873 0.460074 0.739122
Si Si8 0.378327 0.461512 0.060080
O O1 0.415643 0.250000 0.691616
O O2 0.453337 0.592689 0.685199
O O3 0.429700 0.446648 0.777589
O O4 0.353654 0.524757 0.721631
O O5 0.948850 0.250000 0.928442
O O6 0.000000 0.954678 0.917016
O O7 0.885789 0.998903 0.912868
O O8 0.940605 0.000000 0.000000
O O9 0.822486 0.250000 0.069459
O O10 0.778796 0.534173 0.102293
O O11 0.822701 0.500000 0.000000
O O12 0.223489 0.250000 0.381929
O O13 0.181529 0.979389 0.432771
O O14 0.191245 0.982016 0.327283
O O15 0.500000 0.046884 0.153461
O O16 0.577537 0.250000 0.174831
O O17 0.589209 0.967491 0.111573
O O18 0.805763 0.250000 0.750525
O O19 0.750000 0.539778 0.750000
O O20 0.378735 0.250000 0.065987
O O21 0.399923 0.500000 0.000000
#
# Coordination Sequence:
#
# PCOD9535016 Si02
#       8
#    16  16  16   4  16  16  16  16
#     4  11  21  36  61  92 124 161 201 250 308 366
#     4   9  16  26  42  66  96 131 173 219 270 323
#     4  10  19  30  47  75 108 144 188 230 272 329
#     4  12  22  36  62  94 130 156 204 250 308 354
#     4  10  21  36  55  78 109 149 191 234 287 348
#     4  10  18  33  54  77 110 153 200 252 298 343
#     4  10  23  41  62  92 121 147 188 246 304 361
#     4  10  21  34  50  72 110 153 199 245 291 344
#
# _framework density 24.925225999999999
#
# number of rings (size 3 to 8) (size 9 to 14) (size 15 to 20)
#    0.000    1.931    2.759    2.276    0.966    3.586 
#    0.000    0.000    0.000    0.000    1.793    0.000 
#    0.000    0.000    0.000    0.000    0.000    0.000 
#
# Total GULP energy -323446.755110 kJ/mol
# GULP energy per Si atom -5576.668192 kJ/mol
# Density = 2.486850 g / cm^3
# Si number density = 24.925226 Si / 1000 Ang^3
#
#
#
# Elastic Constant Matrix: (Units=GPa)
#
#
# Indices 1 2 3 4 5 6 
#
# 1 120.2575 30.2359 26.4469 0.0000 0.0000 0.0000
# 2 30.2359 102.5505 -9.1293 0.0000 0.0000 0.0000
# 3 26.4469 -9.1293 95.2784 0.0000 0.0000 0.0000
# 4 0.0000 0.0000 0.0000 -180.8272 0.0000 0.0000
# 5 0.0000 0.0000 0.0000 0.0000 53.4021 0.0000
# 6 0.0000 0.0000 0.0000 0.0000 0.0000 21.0827
#
#
#
# Elastic Compliance Matrix: (Units=1/GPa)
#
#
# Indices 1 2 3 4 5 6 
#
# 1 0.009770 -0.003149 -0.003014 0.000000 0.000000 0.000000
# 2 -0.003149 0.010850 0.001914 0.000000 0.000000 0.000000
# 3 -0.003014 0.001914 0.011515 0.000000 0.000000 0.000000
# 4 0.000000 0.000000 0.000000 -0.005530 0.000000 0.000000
# 5 0.000000 0.000000 0.000000 0.000000 0.018726 0.000000
# 6 0.000000 0.000000 0.000000 0.000000 0.000000 0.047432
#
#
# Mechanical properties :
#
#
# Convention : Reuss Voigt Hill
#
# Bulk Modulus (GPa) = 42.30503 45.91038 44.10771
# Shear Modulus (GPa) = 45.81259 -3.23296 21.28982
#
# Velocity S-wave (km/s) = 4.29184 -1.14012 2.92575
# Velocity P-wave (km/s) = 6.44744 4.08975 5.39887
#
# Compressibility (1/GPa) = 0.02363785
#
# Stress axis : x y z
#
# Youngs Moduli (GPa) = 102.35478 92.16538 86.84005
#
# Poissons Ratio (x) = 0.29021 0.26170
# Poissons Ratio (y) = 0.32230 -0.16618
# Poissons Ratio (z) = 0.30846 -0.17637
#
# Static dielectric constant tensor:
#      x y z
#    x 2.087820 0.000000 0.000000 
#    y 0.000000 1.940990 0.000000 
#    z 0.000000 0.000000 2.082350 
# 
# From -- ./inp_files/73788.got.cif
#   From: 2010.05.17/outbox.cif.g08.bks.cpg/sg74_37_cif.got.tgz:73788.got - 2010.06.03 17:57:02.
