data_PCOD9535228
_publ_section_title
;
Structure prediction by ZEFSAII (Michael W. Deem and Ramdas Pophale) SiO2 
 PCOD9535228
Probable space group: I M M A
;
_chemical_formula_sum "Si O2"
_cell_formula_units_Z 80
_cell_length_a 23.093014
_cell_length_b 10.185587
_cell_length_c 24.521147
_cell_angle_alpha 90.000000
_cell_angle_beta 90.000000
_cell_angle_gamma 90.000000
_cell_volume 5767.763739
_symmetry_space_group_name_H-M "I M M A"
_symmetry_group_IT_number 74
_symmetry_cell_setting 'orthorhombic'
loop_
_space_group_symop_operation_xyz
x,y,z
-x,1/2-y,z
x,-y,-z
-x,1/2+y,-z
-x,-y,-z
x,1/2+y,-z
-x,y,z
x,1/2-y,z
1/2+x,1/2+y,1/2+z
1/2-x,-y,1/2+z
1/2+x,1/2-y,1/2-z
1/2-x,y,1/2-z
1/2-x,1/2-y,1/2-z
1/2+x,y,1/2-z
1/2-x,1/2+y,1/2+z
1/2+x,-y,1/2+z
loop_
_atom_site_type_symbol
_atom_site_label
_atom_site_fract_x
_atom_site_fract_y
_atom_site_fract_z
Si Si1 0.658923 0.900685 0.780713
Si Si2 0.568577 0.250000 0.415690
Si Si3 0.068198 0.097692 0.760940
Si Si4 0.775938 0.901650 0.836886
Si Si5 0.618330 0.026164 0.620854
Si Si6 0.069688 0.750000 0.044981
O O1 0.640518 0.750000 0.790220
O O2 0.709474 0.935170 0.823685
O O3 0.690691 0.901996 0.721500
O O4 0.606284 0.001000 0.776110
O O5 0.500000 0.250000 0.407948
O O6 0.593752 0.380962 0.389286
O O7 0.580066 0.250000 0.480450
O O8 0.075945 0.250000 0.745616
O O9 0.091609 0.079950 0.822744
O O10 0.000000 0.066609 0.759704
O O11 0.778116 0.750000 0.856846
O O12 0.812791 0.002649 0.872912
O O13 0.597690 0.123055 0.573505
O O14 0.000000 0.750000 0.054205
#
# Coordination Sequence:
#
# PCOD9535228 Si02
#       6
#    16   8  16  16  16   8
#     4   8  15  27  43  60  79 102 131 167 201 236
#     4  11  22  32  46  59  74 106 145 178 215 257
#     4  10  19  29  40  59  87 111 134 168 206 242
#     4   8  14  28  44  60  78  98 131 172 204 237
#     4  11  19  32  45  60  77 106 141 176 213 246
#     4  11  22  34  42  57  84 106 133 182 225 247
#
# _framework density 13.870194
#
# number of rings (size 3 to 8) (size 9 to 14) (size 15 to 20)
#    0.000    2.400    2.000    3.600    1.400    2.000 
#    1.800    2.000    0.000    0.000    0.000    0.000 
#    0.000    0.000    0.000    0.000    0.000    6.000 
#
# Total GULP energy -222826.049070 kJ/mol
# GULP energy per Si atom -5570.651227 kJ/mol
# Density = 1.383863 g / cm^3
# Si number density = 13.870194 Si / 1000 Ang^3
#
#
#
# Elastic Constant Matrix: (Units=GPa)
#
#
# Indices 1 2 3 4 5 6 
#
# 1 87.6190 46.7708 18.2501 0.0000 0.0000 0.0000
# 2 46.7708 76.8422 9.9497 0.0000 0.0000 0.0000
# 3 18.2501 9.9497 15.7486 0.0000 0.0000 0.0000
# 4 0.0000 0.0000 0.0000 -19.5880 0.0000 0.0000
# 5 0.0000 0.0000 0.0000 0.0000 15.6545 0.0000
# 6 0.0000 0.0000 0.0000 0.0000 0.0000 26.7188
#
#
#
# Elastic Compliance Matrix: (Units=1/GPa)
#
#
# Indices 1 2 3 4 5 6 
#
# 1 0.020463 -0.010221 -0.017256 0.000000 0.000000 0.000000
# 2 -0.010221 0.019278 -0.000335 0.000000 0.000000 0.000000
# 3 -0.017256 -0.000335 0.083707 0.000000 0.000000 0.000000
# 4 0.000000 0.000000 0.000000 -0.051052 0.000000 0.000000
# 5 0.000000 0.000000 0.000000 0.000000 0.063879 0.000000
# 6 0.000000 0.000000 0.000000 0.000000 0.000000 0.037427
#
#
# Mechanical properties :
#
#
# Convention : Reuss Voigt Hill
#
# Bulk Modulus (GPa) = 14.74416 36.68344 25.71380
# Shear Modulus (GPa) = 19.84637 11.57299 15.70968
#
# Velocity S-wave (km/s) = 3.78678 2.89169 3.36910
# Velocity P-wave (km/s) = 5.45645 6.13631 5.80634
#
# Compressibility (1/GPa) = 0.06782344
#
# Stress axis : x y z
#
# Youngs Moduli (GPa) = 48.86833 51.87237 11.94645
#
# Poissons Ratio (x) = 0.53017 0.20615
# Poissons Ratio (y) = 0.49947 0.00401
# Poissons Ratio (z) = 0.84328 0.01740
#
# Static dielectric constant tensor:
#      x y z
#    x 1.466760 0.000000 0.000000 
#    y 0.000000 1.466520 0.000000 
#    z 0.000000 0.000000 1.440520 
# 
# From -- ./inp_files/54438.got.cif
#   From: 2010.05.17/outbox.cif.g08.bks.cpg/sg74_28_cif.got.tgz:54438.got - 2010.06.03 17:57:02.
