data_PCOD9535007
_publ_section_title
;
Structure prediction by ZEFSAII (Michael W. Deem and Ramdas Pophale) SiO2 
 PCOD9535007
Probable space group: I M M A
;
_chemical_formula_sum "Si O2"
_cell_formula_units_Z 80
_cell_length_a 19.218938
_cell_length_b 20.059949
_cell_length_c 12.685449
_cell_angle_alpha 90.000000
_cell_angle_beta 90.000000
_cell_angle_gamma 90.000000
_cell_volume 4890.632774
_symmetry_space_group_name_H-M "I M M A"
_symmetry_group_IT_number 74
_symmetry_cell_setting 'orthorhombic'
loop_
_space_group_symop_operation_xyz
x,y,z
-x,1/2-y,z
x,-y,-z
-x,1/2+y,-z
-x,-y,-z
x,1/2+y,-z
-x,y,z
x,1/2-y,z
1/2+x,1/2+y,1/2+z
1/2-x,-y,1/2+z
1/2+x,1/2-y,1/2-z
1/2-x,y,1/2-z
1/2-x,1/2-y,1/2-z
1/2+x,y,1/2-z
1/2-x,1/2+y,1/2+z
1/2+x,-y,1/2+z
loop_
_atom_site_type_symbol
_atom_site_label
_atom_site_fract_x
_atom_site_fract_y
_atom_site_fract_z
Si Si1 0.500000 0.325947 0.194418
Si Si2 0.351135 0.643361 0.743213
Si Si3 0.000000 0.978296 0.620943
Si Si4 0.353549 0.511070 0.224756
Si Si5 0.256869 0.323554 0.065606
Si Si6 0.224128 0.945389 0.084418
O O1 0.500000 0.250000 0.147310
O O2 0.430104 0.333504 0.262141
O O3 0.500000 0.396497 0.128392
O O4 0.341759 0.564107 0.734079
O O5 0.323417 0.661102 0.860351
O O6 0.304577 0.674610 0.652320
O O7 0.930928 0.007685 0.677413
O O8 0.000000 0.000000 0.500000
O O9 0.295659 0.527498 0.136847
O O10 0.333126 0.558495 0.322679
O O11 0.263605 0.250000 0.019985
O O12 0.241652 0.378226 0.977709
O O13 0.200172 0.000000 0.000000
#
# Coordination Sequence:
#
# PCOD9535007 Si02
#       6
#     8  16   8  16  16  16
#     4  10  20  32  49  77 110 134 159 211 268 317
#     4  10  18  33  52  77 108 132 171 222 267 315
#     4  10  22  36  56  78 109 133 174 214 258 305
#     4  10  20  34  54  80 100 139 176 216 254 308
#     4  11  20  31  52  79 105 138 173 218 266 312
#     4  11  18  34  56  74 105 137 178 210 261 310
#
# _framework density 16.357800999999998
#
# number of rings (size 3 to 8) (size 9 to 14) (size 15 to 20)
#    0.000    1.600    4.000    4.200    2.800    0.000 
#    0.000    3.500    0.000    1.200    0.000    0.000 
#    0.000    0.000    0.000    0.000    0.000    0.000 
#
# Total GULP energy -222863.027833 kJ/mol
# GULP energy per Si atom -5571.575696 kJ/mol
# Density = 1.632057 g / cm^3
# Si number density = 16.357801 Si / 1000 Ang^3
#
#
#
# Elastic Constant Matrix: (Units=GPa)
#
#
# Indices 1 2 3 4 5 6 
#
# 1 110.7270 16.3299 32.5842 0.0000 0.0000 0.0000
# 2 16.3299 83.9926 24.8611 0.0000 0.0000 0.0000
# 3 32.5842 24.8611 74.1004 0.0000 0.0000 0.0000
# 4 0.0000 0.0000 0.0000 15.5757 0.0000 0.0000
# 5 0.0000 0.0000 0.0000 0.0000 11.6337 0.0000
# 6 0.0000 0.0000 0.0000 0.0000 0.0000 1.5983
#
#
#
# Elastic Compliance Matrix: (Units=1/GPa)
#
#
# Indices 1 2 3 4 5 6 
#
# 1 0.010415 -0.000743 -0.004331 0.000000 0.000000 0.000000
# 2 -0.000743 0.013272 -0.004126 0.000000 0.000000 0.000000
# 3 -0.004331 -0.004126 0.016784 0.000000 0.000000 0.000000
# 4 0.000000 0.000000 0.000000 0.064203 0.000000 0.000000
# 5 0.000000 0.000000 0.000000 0.000000 0.085957 0.000000
# 6 0.000000 0.000000 0.000000 0.000000 0.000000 0.625676
#
#
# Mechanical properties :
#
#
# Convention : Reuss Voigt Hill
#
# Bulk Modulus (GPa) = 45.30769 46.26338 45.78554
# Shear Modulus (GPa) = 5.93780 18.76451 12.35116
#
# Velocity S-wave (km/s) = 1.90731 3.39060 2.75082
# Velocity P-wave (km/s) = 5.71038 6.60846 6.17577
#
# Compressibility (1/GPa) = 0.02207131
#
# Stress axis : x y z
#
# Youngs Moduli (GPa) = 96.01366 75.34931 59.58145
#
# Poissons Ratio (x) = 0.05599 0.25802
# Poissons Ratio (y) = 0.07135 0.24583
# Poissons Ratio (z) = 0.41579 0.31088
#
# Static dielectric constant tensor:
#      x y z
#    x 1.562160 0.000000 0.000000 
#    y 0.000000 1.574810 0.000000 
#    z 0.000000 0.000000 1.540760 
# 
# From -- ./inp_files/23605.got.cif
#   From: 2010.05.17/outbox.cif.g08.bks.cpg/sg74_12_cif.got.tgz:23605.got - 2010.06.03 17:57:02.
