data_PCOD9535666
_publ_section_title
;
Structure prediction by ZEFSAII (Michael W. Deem and Ramdas Pophale) SiO2 
 PCOD9535666
Probable space group: I M M A
;
_chemical_formula_sum "Si O2"
_cell_formula_units_Z 96
_cell_length_a 27.074214
_cell_length_b 17.770527
_cell_length_c 8.633311
_cell_angle_alpha 90.000000
_cell_angle_beta 90.000000
_cell_angle_gamma 90.000000
_cell_volume 4153.684928
_symmetry_space_group_name_H-M "I M M A"
_symmetry_group_IT_number 74
_symmetry_cell_setting 'orthorhombic'
loop_
_space_group_symop_operation_xyz
x,y,z
-x,1/2-y,z
x,-y,-z
-x,1/2+y,-z
-x,-y,-z
x,1/2+y,-z
-x,y,z
x,1/2-y,z
1/2+x,1/2+y,1/2+z
1/2-x,-y,1/2+z
1/2+x,1/2-y,1/2-z
1/2-x,y,1/2-z
1/2-x,1/2-y,1/2-z
1/2+x,y,1/2-z
1/2-x,1/2+y,1/2+z
1/2+x,-y,1/2+z
loop_
_atom_site_type_symbol
_atom_site_label
_atom_site_fract_x
_atom_site_fract_y
_atom_site_fract_z
Si Si1 0.193773 0.011650 0.684028
Si Si2 0.749288 0.329806 0.064713
Si Si3 0.946225 0.412859 0.062750
Si Si4 0.341728 0.417117 0.439058
Si Si5 0.852328 0.836046 0.382664
Si Si6 0.944560 0.837756 0.607638
O O1 0.250000 0.014315 0.750000
O O2 0.162153 0.088332 0.711632
O O3 0.196636 0.000000 0.500000
O O4 0.166435 0.938815 0.757573
O O5 0.770904 0.250000 0.016983
O O6 0.750000 0.332646 0.250000
O O7 0.789799 0.386348 0.006258
O O8 0.695296 0.332877 0.995833
O O9 0.893066 0.377377 0.018842
O O10 0.944272 0.396244 0.248338
O O11 0.000000 0.381920 0.011803
O O12 0.946138 0.500000 0.000000
O O13 0.345712 0.500000 0.500000
O O14 0.855697 0.750000 0.315467
O O15 0.902072 0.850030 0.481021
O O16 0.938086 0.750000 0.664110
O O17 0.000000 0.842187 0.539794
#
# Coordination Sequence:
#
# PCOD9535666 Si02
#       6
#    16  16  16  16  16  16
#     4  12  23  36  56  82 113 149 187 229 282 344
#     4  10  19  31  50  76 105 137 175 223 275 325
#     4   9  18  32  51  77 109 143 182 233 286 331
#     4  11  22  37  56  79 110 150 193 232 279 343
#     4  10  21  36  54  79 111 144 181 229 284 340
#     4   9  17  32  56  83 111 147 192 240 288 339
#
# _framework density 23.112009
#
# number of rings (size 3 to 8) (size 9 to 14) (size 15 to 20)
#    0.000    1.833    0.000    6.000    0.000    2.333 
#    0.000    1.667    0.000    4.000    0.000    0.000 
#    0.000    0.000    0.000    0.000    0.000    0.000 
#
# Total GULP energy -267222.572797 kJ/mol
# GULP energy per Si atom -5567.136933 kJ/mol
# Density = 2.305940 g / cm^3
# Si number density = 23.112009 Si / 1000 Ang^3
#
#
#
# Elastic Constant Matrix: (Units=GPa)
#
#
# Indices 1 2 3 4 5 6 
#
# 1 195.3271 30.5568 19.5200 0.0000 0.0000 0.0000
# 2 30.5568 88.3687 10.2725 0.0000 0.0000 0.0000
# 3 19.5200 10.2725 57.2660 0.0000 0.0000 0.0000
# 4 0.0000 0.0000 0.0000 21.1992 0.0000 0.0000
# 5 0.0000 0.0000 0.0000 0.0000 31.5071 0.0000
# 6 0.0000 0.0000 0.0000 0.0000 0.0000 22.6501
#
#
#
# Elastic Compliance Matrix: (Units=1/GPa)
#
#
# Indices 1 2 3 4 5 6 
#
# 1 0.005549 -0.001735 -0.001580 0.000000 0.000000 0.000000
# 2 -0.001735 0.012100 -0.001579 0.000000 0.000000 0.000000
# 3 -0.001580 -0.001579 0.018284 0.000000 0.000000 0.000000
# 4 0.000000 0.000000 0.000000 0.047172 0.000000 0.000000
# 5 0.000000 0.000000 0.000000 0.000000 0.031739 0.000000
# 6 0.000000 0.000000 0.000000 0.000000 0.000000 0.044150
#
#
# Mechanical properties :
#
#
# Convention : Reuss Voigt Hill
#
# Bulk Modulus (GPa) = 38.24924 51.29559 44.77242
# Shear Modulus (GPa) = 28.16951 33.77878 30.97415
#
# Velocity S-wave (km/s) = 3.49496 3.82714 3.66481
# Velocity P-wave (km/s) = 5.73339 6.46311 6.10916
#
# Compressibility (1/GPa) = 0.02614431
#
# Stress axis : x y z
#
# Youngs Moduli (GPa) = 180.21365 82.64632 54.69188
#
# Poissons Ratio (x) = 0.14340 0.08642
# Poissons Ratio (y) = 0.31268 0.08636
# Poissons Ratio (z) = 0.28478 0.13050
#
# Static dielectric constant tensor:
#      x y z
#    x 1.859890 0.000000 0.000000 
#    y 0.000000 1.962460 0.000000 
#    z 0.000000 0.000000 2.016930 
# 
# From -- ./inp_files/15132.got.cif
#   From: 2010.05.17/outbox.cif.g08.bks.cpg/sg74_8_cif.got.tgz:15132.got - 2010.06.03 17:57:02.
