data_PCOD9535964
_publ_section_title
;
Structure prediction by ZEFSAII (Michael W. Deem and Ramdas Pophale) SiO2 
 PCOD9535964
Probable space group: I M M A
;
_chemical_formula_sum "Si O2"
_cell_formula_units_Z 96
_cell_length_a 7.849813
_cell_length_b 29.726230
_cell_length_c 21.073702
_cell_angle_alpha 90.000000
_cell_angle_beta 90.000000
_cell_angle_gamma 90.000000
_cell_volume 4917.450299
_symmetry_space_group_name_H-M "I M M A"
_symmetry_group_IT_number 74
_symmetry_cell_setting 'orthorhombic'
loop_
_space_group_symop_operation_xyz
x,y,z
-x,1/2-y,z
x,-y,-z
-x,1/2+y,-z
-x,-y,-z
x,1/2+y,-z
-x,y,z
x,1/2-y,z
1/2+x,1/2+y,1/2+z
1/2-x,-y,1/2+z
1/2+x,1/2-y,1/2-z
1/2-x,y,1/2-z
1/2-x,1/2-y,1/2-z
1/2+x,y,1/2-z
1/2-x,1/2+y,1/2+z
1/2+x,-y,1/2+z
loop_
_atom_site_type_symbol
_atom_site_label
_atom_site_fract_x
_atom_site_fract_y
_atom_site_fract_z
Si Si1 0.297268 0.882531 0.676232
Si Si2 0.294627 0.059864 0.549955
Si Si3 0.294882 0.198857 0.816643
Si Si4 0.294140 0.467165 0.404225
Si Si5 0.794598 0.198484 0.417566
Si Si6 0.300936 0.161345 0.947494
O O1 0.500000 0.885275 0.672195
O O2 0.250000 0.879466 0.750000
O O3 0.228170 0.928545 0.643094
O O4 0.247041 0.838327 0.636117
O O5 0.500000 0.063673 0.556012
O O6 0.260073 0.047723 0.476501
O O7 0.213328 0.108036 0.558744
O O8 0.235353 0.019196 0.595703
O O9 0.500000 0.198958 0.819868
O O10 0.232172 0.250000 0.813326
O O11 0.250000 0.175735 0.750000
O O12 0.225269 0.179883 0.882340
O O13 0.500000 0.468804 0.397066
O O14 0.734946 0.250000 0.406286
O O15 0.729556 0.179863 0.485828
O O16 0.000000 0.200150 0.420254
O O17 0.500000 0.174470 0.948785
#
# Coordination Sequence:
#
# PCOD9535964 Si02
#       6
#    16  16  16  16  16  16
#     4  11  22  38  58  80 107 142 182 226 273 323
#     4   9  16  31  55  79 103 134 170 209 256 313
#     4   9  18  33  51  71 100 139 177 212 255 309
#     4   8  16  32  54  77 102 134 171 209 255 310
#     4  10  21  37  56  79 108 142 181 225 274 326
#     4  10  19  32  52  81 111 138 171 219 271 313
#
# _framework density 19.522311999999999
#
# number of rings (size 3 to 8) (size 9 to 14) (size 15 to 20)
#    0.000    2.500    1.667    2.000    0.000    3.333 
#    0.000    4.167    0.000    7.000    0.000    0.000 
#    0.000    0.000    0.000    0.000    0.000    0.000 
#
# Total GULP energy -267391.093745 kJ/mol
# GULP energy per Si atom -5570.647786 kJ/mol
# Density = 1.947788 g / cm^3
# Si number density = 19.522312 Si / 1000 Ang^3
#
#
#
# Elastic Constant Matrix: (Units=GPa)
#
#
# Indices 1 2 3 4 5 6 
#
# 1 23.9991 3.8455 11.2204 0.0000 0.0000 0.0000
# 2 3.8455 108.2454 78.6161 0.0000 0.0000 0.0000
# 3 11.2204 78.6161 155.4039 0.0000 0.0000 0.0000
# 4 0.0000 0.0000 0.0000 32.7363 0.0000 0.0000
# 5 0.0000 0.0000 0.0000 0.0000 13.1915 0.0000
# 6 0.0000 0.0000 0.0000 0.0000 0.0000 21.8311
#
#
#
# Elastic Compliance Matrix: (Units=1/GPa)
#
#
# Indices 1 2 3 4 5 6 
#
# 1 0.043215 0.001155 -0.003705 0.000000 0.000000 0.000000
# 2 0.001155 0.014635 -0.007487 0.000000 0.000000 0.000000
# 3 -0.003705 -0.007487 0.010490 0.000000 0.000000 0.000000
# 4 0.000000 0.000000 0.000000 0.030547 0.000000 0.000000
# 5 0.000000 0.000000 0.000000 0.000000 0.075807 0.000000
# 6 0.000000 0.000000 0.000000 0.000000 0.000000 0.045806
#
#
# Mechanical properties :
#
#
# Convention : Reuss Voigt Hill
#
# Bulk Modulus (GPa) = 20.71790 52.77915 36.74853
# Shear Modulus (GPa) = 19.48092 26.48288 22.98190
#
# Velocity S-wave (km/s) = 3.16235 3.68712 3.43477
# Velocity P-wave (km/s) = 4.89586 6.72462 5.88175
#
# Compressibility (1/GPa) = 0.04826744
#
# Stress axis : x y z
#
# Youngs Moduli (GPa) = 23.13998 68.33040 95.33047
#
# Poissons Ratio (x) = -0.07895 0.35317
# Poissons Ratio (y) = -0.02674 0.71373
# Poissons Ratio (z) = 0.08573 0.51158
#
# Static dielectric constant tensor:
#      x y z
#    x 1.712950 0.000000 0.000000 
#    y 0.000000 1.695230 0.000000 
#    z 0.000000 0.000000 1.728900 
# 
# From -- ./inp_files/49079.got.cif
#   From: 2010.05.17/outbox.cif.g08.bks.cpg/sg74_25_cif.got.tgz:49079.got - 2010.06.03 17:57:02.
