data_PCOD9535112
_publ_section_title
;
Structure prediction by ZEFSAII (Michael W. Deem and Ramdas Pophale) SiO2 
 PCOD9535112
Probable space group: I M M A
;
_chemical_formula_sum "Si O2"
_cell_formula_units_Z 96
_cell_length_a 15.517841
_cell_length_b 29.678241
_cell_length_c 10.478054
_cell_angle_alpha 90.000000
_cell_angle_beta 90.000000
_cell_angle_gamma 90.000000
_cell_volume 4825.586303
_symmetry_space_group_name_H-M "I M M A"
_symmetry_group_IT_number 74
_symmetry_cell_setting 'orthorhombic'
loop_
_space_group_symop_operation_xyz
x,y,z
-x,1/2-y,z
x,-y,-z
-x,1/2+y,-z
-x,-y,-z
x,1/2+y,-z
-x,y,z
x,1/2-y,z
1/2+x,1/2+y,1/2+z
1/2-x,-y,1/2+z
1/2+x,1/2-y,1/2-z
1/2-x,y,1/2-z
1/2-x,1/2-y,1/2-z
1/2+x,y,1/2-z
1/2-x,1/2+y,1/2+z
1/2+x,-y,1/2+z
loop_
_atom_site_type_symbol
_atom_site_label
_atom_site_fract_x
_atom_site_fract_y
_atom_site_fract_z
Si Si1 0.500000 0.462118 0.391562
Si Si2 0.895610 0.895872 0.267484
Si Si3 0.897337 0.299412 0.032065
Si Si4 0.653378 0.897806 0.531633
Si Si5 0.602768 0.202182 0.775972
Si Si6 0.327308 0.446762 0.000581
Si Si7 0.000000 0.462881 0.388803
O O1 0.500000 0.500000 0.500000
O O2 0.417670 0.429839 0.405135
O O3 0.500000 0.483529 0.251311
O O4 0.868909 0.899497 0.120325
O O5 0.865126 0.846544 0.319207
O O6 0.852577 0.932537 0.357158
O O7 0.000000 0.897904 0.274284
O O8 0.868108 0.250000 0.079558
O O9 0.854404 0.345905 0.075091
O O10 0.888293 0.298320 0.877654
O O11 0.000000 0.303170 0.056767
O O12 0.746632 0.918852 0.548591
O O13 0.500000 0.202755 0.801755
O O14 0.639865 0.250000 0.823588
O O15 0.308237 0.500000 0.000000
O O16 0.411765 0.436828 0.085584
O O17 0.000000 0.500000 0.500000
#
# Coordination Sequence:
#
# PCOD9535112 Si02
#       7
#     8  16  16  16  16  16   8
#     4  12  26  40  67  97 123 157 209 267 307 355
#     4  10  18  34  61  86 121 167 206 255 307 368
#     4   8  13  27  53  86 125 159 190 246 317 369
#     4  11  21  37  59  98 125 152 208 268 306 357
#     4   7  11  21  43  80 118 152 191 237 299 362
#     4  11  24  40  57  80 121 172 211 247 315 381
#     4  10  26  48  64  83 119 171 208 251 318 377
#
# _framework density 19.893954999999998
#
# number of rings (size 3 to 8) (size 9 to 14) (size 15 to 20)
#    0.000    2.333    2.500    3.000    4.667    0.667 
#    6.000    0.833    0.000    4.000    0.000    5.833 
#    0.000    0.000    0.000    0.000    0.000    0.000 
#
# Total GULP energy -267733.098821 kJ/mol
# GULP energy per Si atom -5577.772892 kJ/mol
# Density = 1.984868 g / cm^3
# Si number density = 19.893955 Si / 1000 Ang^3
#
#
#
# Elastic Constant Matrix: (Units=GPa)
#
#
# Indices 1 2 3 4 5 6 
#
# 1 120.7111 55.8073 8.0837 0.0002 0.0002 0.0000
# 2 55.8073 170.4970 25.5400 0.0000 0.0014 -0.0001
# 3 8.0837 25.5400 57.9444 0.0009 0.0041 -0.0002
# 4 0.0002 0.0000 0.0009 20.2966 -0.0003 0.0000
# 5 0.0002 0.0014 0.0041 -0.0003 319.3640 -0.0017
# 6 0.0000 -0.0001 -0.0002 0.0000 -0.0017 11.6256
#
#
#
# Elastic Compliance Matrix: (Units=1/GPa)
#
#
# Indices 1 2 3 4 5 6 
#
# 1 0.009762 -0.003203 0.000050 0.000000 0.000000 0.000000
# 2 -0.003203 0.007331 -0.002784 0.000000 0.000000 0.000000
# 3 0.000050 -0.002784 0.018478 -0.000001 0.000000 0.000000
# 4 0.000000 0.000000 -0.000001 0.049269 0.000000 0.000000
# 5 0.000000 0.000000 0.000000 0.000000 0.003131 0.000000
# 6 0.000000 0.000000 0.000000 0.000000 0.000000 0.086017
#
#
# Mechanical properties :
#
#
# Convention : Reuss Voigt Hill
#
# Bulk Modulus (GPa) = 42.20104 58.66829 50.43466
# Shear Modulus (GPa) = 25.80505 87.57200 56.68853
#
# Velocity S-wave (km/s) = 3.60548 6.64191 5.34389
# Velocity P-wave (km/s) = 6.21222 9.40077 7.96763
#
# Compressibility (1/GPa) = 0.02369610
#
# Stress axis : x y z
#
# Youngs Moduli (GPa) = 102.44275 136.41495 54.11782
#
# Poissons Ratio (x) = 0.43689 -0.00270
# Poissons Ratio (y) = 0.32809 0.15068
# Poissons Ratio (z) = -0.00510 0.37982
#
# Static dielectric constant tensor:
#      x y z
#    x 1.734070 0.000000 0.000000 
#    y 0.000000 1.762860 0.000000 
#    z 0.000000 0.000000 1.699590 
# 
# From -- ./inp_files/21059.got.cif
#   From: 2010.05.17/outbox.cif.g08.bks.cpg/sg74_11_cif.got.tgz:21059.got - 2010.06.03 17:57:02.
