data_PCOD9535158
_publ_section_title
;
Structure prediction by ZEFSAII (Michael W. Deem and Ramdas Pophale) SiO2 
 PCOD9535158
Probable space group: I M M A
;
_chemical_formula_sum "Si O2"
_cell_formula_units_Z 60
_cell_length_a 5.204388
_cell_length_b 20.211996
_cell_length_c 31.769685
_cell_angle_alpha 90.000000
_cell_angle_beta 90.000000
_cell_angle_gamma 90.000000
_cell_volume 3341.887141
_symmetry_space_group_name_H-M "I M M A"
_symmetry_group_IT_number 74
_symmetry_cell_setting 'orthorhombic'
loop_
_space_group_symop_operation_xyz
x,y,z
-x,1/2-y,z
x,-y,-z
-x,1/2+y,-z
-x,-y,-z
x,1/2+y,-z
-x,y,z
x,1/2-y,z
1/2+x,1/2+y,1/2+z
1/2-x,-y,1/2+z
1/2+x,1/2-y,1/2-z
1/2-x,y,1/2-z
1/2-x,1/2-y,1/2-z
1/2+x,y,1/2-z
1/2-x,1/2+y,1/2+z
1/2+x,-y,1/2+z
loop_
_atom_site_type_symbol
_atom_site_label
_atom_site_fract_x
_atom_site_fract_y
_atom_site_fract_z
Si Si1 0.000000 0.141772 0.412981
Si Si2 0.000000 0.250000 0.488177
Si Si3 0.000000 0.822962 0.124679
Si Si4 0.500000 0.651119 0.067784
Si Si5 0.500000 0.534546 0.348184
Si Si6 0.000000 0.926989 0.778842
Si Si7 0.500000 0.492392 0.905095
Si Si8 0.500000 0.172151 0.356828
O O1 0.749758 0.154906 0.384471
O O2 0.000000 0.192224 0.451498
O O3 0.000000 0.064532 0.425710
O O4 0.000000 0.192271 0.525172
O O5 0.248933 0.830217 0.094884
O O6 0.000000 0.750000 0.144161
O O7 0.000000 0.885983 0.155270
O O8 0.500000 0.571192 0.064285
O O9 0.500000 0.495603 0.304696
O O10 0.249907 0.514260 0.375267
O O11 0.750000 0.921796 0.750000
O O12 0.000000 0.870685 0.814590
O O13 0.500000 0.250000 0.347573
#
# Coordination Sequence:
#
# PCOD9535158 Si02
#       8
#     8   4   8   8   8   8   8   8
#     4  12  23  38  64  82 117 168 197 240 297 348
#     4  12  24  38  58  92 120 162 196 260 300 328
#     4  10  18  36  60  86 117 161 191 236 292 350
#     4  10  22  34  56  87 122 147 201 257 287 331
#     4  10  20  36  63  86 118 151 197 235 288 366
#     4  12  24  39  65  92 119 148 190 252 301 341
#     4  10  19  39  59  83 114 162 198 238 287 351
#     4  12  24  44  60  88 118 154 204 236 288 378
#
# _framework density 17.953928000000001
#
# number of rings (size 3 to 8) (size 9 to 14) (size 15 to 20)
#    0.000    1.067    5.333    1.600    0.000    3.200 
#    0.000    0.000    0.000    7.200    0.000    0.000 
#    0.000    0.000    0.000    0.000    0.000    0.000 
#
# Total GULP energy -167013.716873 kJ/mol
# GULP energy per Si atom -5567.123896 kJ/mol
# Density = 1.791306 g / cm^3
# Si number density = 17.953928 Si / 1000 Ang^3
#
#
#
# Elastic Constant Matrix: (Units=GPa)
#
#
# Indices 1 2 3 4 5 6 
#
# 1 151.3471 31.0875 48.6948 0.0000 0.0000 0.0000
# 2 31.0875 206.2206 70.0156 0.0000 0.0000 0.0000
# 3 48.6948 70.0156 114.1195 0.0000 0.0000 0.0000
# 4 0.0000 0.0000 0.0000 35.9358 0.0000 0.0000
# 5 0.0000 0.0000 0.0000 0.0000 -3.1350 0.0000
# 6 0.0000 0.0000 0.0000 0.0000 0.0000 20.7956
#
#
#
# Elastic Compliance Matrix: (Units=1/GPa)
#
#
# Indices 1 2 3 4 5 6 
#
# 1 0.007659 -0.000057 -0.003233 0.000000 0.000000 0.000000
# 2 -0.000057 0.006125 -0.003734 0.000000 0.000000 0.000000
# 3 -0.003233 -0.003734 0.012433 0.000000 0.000000 0.000000
# 4 0.000000 0.000000 0.000000 0.027827 0.000000 0.000000
# 5 0.000000 0.000000 0.000000 0.000000 -0.318977 0.000000
# 6 0.000000 0.000000 0.000000 0.000000 0.000000 0.048087
#
#
# Mechanical properties :
#
#
# Convention : Reuss Voigt Hill
#
# Bulk Modulus (GPa) = 82.17022 85.69811 83.93417
# Shear Modulus (GPa) = -25.15857 32.17857 3.51000
#
# Velocity S-wave (km/s) = -3.74744 4.23813 1.39973
# Velocity P-wave (km/s) = 5.20982 8.47260 7.03303
#
# Compressibility (1/GPa) = 0.01216986
#
# Stress axis : x y z
#
# Youngs Moduli (GPa) = 130.56001 163.25276 80.42935
#
# Poissons Ratio (x) = 0.00928 0.26006
# Poissons Ratio (y) = 0.00742 0.30031
# Poissons Ratio (z) = 0.42215 0.60957
#
# Static dielectric constant tensor:
#      x y z
#    x 1.617710 0.000000 0.000000 
#    y 0.000000 1.654760 0.000000 
#    z 0.000000 0.000000 1.547890 
# 
# From -- ./inp_files/62976.got.cif
#   From: 2010.05.17/outbox.cif.g08.bks.cpg/sg74_32_cif.got.tgz:62976.got - 2010.06.03 17:57:02.
