data_PCOD9535109
_publ_section_title
;
Structure prediction by ZEFSAII (Michael W. Deem and Ramdas Pophale) SiO2 
 PCOD9535109
Probable space group: I M M A
;
_chemical_formula_sum "Si O2"
_cell_formula_units_Z 104
_cell_length_a 21.020918
_cell_length_b 8.659931
_cell_length_c 30.406990
_cell_angle_alpha 90.000000
_cell_angle_beta 90.000000
_cell_angle_gamma 90.000000
_cell_volume 5535.279320
_symmetry_space_group_name_H-M "I M M A"
_symmetry_group_IT_number 74
_symmetry_cell_setting 'orthorhombic'
loop_
_space_group_symop_operation_xyz
x,y,z
-x,1/2-y,z
x,-y,-z
-x,1/2+y,-z
-x,-y,-z
x,1/2+y,-z
-x,y,z
x,1/2-y,z
1/2+x,1/2+y,1/2+z
1/2-x,-y,1/2+z
1/2+x,1/2-y,1/2-z
1/2-x,y,1/2-z
1/2-x,1/2-y,1/2-z
1/2+x,y,1/2-z
1/2-x,1/2+y,1/2+z
1/2+x,-y,1/2+z
loop_
_atom_site_type_symbol
_atom_site_label
_atom_site_fract_x
_atom_site_fract_y
_atom_site_fract_z
Si Si1 0.687377 0.563710 0.777624
Si Si2 0.423417 0.427171 0.454183
Si Si3 0.133430 0.433999 0.549493
Si Si4 0.427478 0.436295 0.721507
Si Si5 0.000000 0.434769 0.450281
Si Si6 0.861725 0.932805 0.130124
Si Si7 0.721750 0.066061 0.124136
O O1 0.686973 0.750000 0.775779
O O2 0.750000 0.511592 0.750000
O O3 0.623691 0.500945 0.755542
O O4 0.692781 0.518127 0.828646
O O5 0.400873 0.500000 0.500000
O O6 0.500000 0.426534 0.454835
O O7 0.401579 0.250000 0.449818
O O8 0.400284 0.527381 0.413541
O O9 0.143358 0.500000 0.500000
O O10 0.128544 0.250000 0.546282
O O11 0.066598 0.502134 0.567953
O O12 0.188355 0.483761 0.583054
O O13 0.500000 0.489669 0.728270
O O14 0.427352 0.250000 0.723974
O O15 0.402159 0.479153 0.672955
O O16 0.000000 0.500000 0.500000
O O17 0.000000 0.250000 0.450274
O O18 0.849026 0.750000 0.132940
O O19 0.795645 0.023016 0.127583
O O20 0.714109 0.250000 0.119082
#
# Coordination Sequence:
#
# PCOD9535109 Si02
#       7
#    16  16  16  16   8  16  16
#     4  10  21  40  64  89 119 158 200 246 299 356
#     4  10  21  37  57  82 114 153 195 241 293 346
#     4  11  22  39  62  90 122 157 200 245 299 355
#     4  10  22  39  61  90 122 156 197 247 298 353
#     4  10  18  34  60  88 118 156 198 240 294 350
#     4  11  22  37  59  86 117 154 197 243 295 353
#     4  11  23  40  61  87 120 155 198 245 296 355
#
# _framework density 18.788573
#
# number of rings (size 3 to 8) (size 9 to 14) (size 15 to 20)
#    0.000    1.538    1.538    4.846    0.000    4.615 
#    1.385    3.077    0.000    0.000    0.000    0.000 
#    0.000    0.000    0.000    0.000    0.000    0.000 
#
# Total GULP energy -290471.264180 kJ/mol
# GULP energy per Si atom -5585.985850 kJ/mol
# Density = 1.874581 g / cm^3
# Si number density = 18.788573 Si / 1000 Ang^3
#
#
#
# Elastic Constant Matrix: (Units=GPa)
#
#
# Indices 1 2 3 4 5 6 
#
# 1 113.1659 27.4825 47.9770 0.0000 0.0000 0.0000
# 2 27.4825 73.7713 33.9309 0.0000 0.0000 0.0000
# 3 47.9770 33.9309 111.6439 0.0000 0.0000 0.0000
# 4 0.0000 0.0000 0.0000 23.8150 0.0000 0.0000
# 5 0.0000 0.0000 0.0000 0.0000 32.5635 0.0000
# 6 0.0000 0.0000 0.0000 0.0000 0.0000 33.2206
#
#
#
# Elastic Compliance Matrix: (Units=1/GPa)
#
#
# Indices 1 2 3 4 5 6 
#
# 1 0.011120 -0.002261 -0.004092 0.000000 0.000000 0.000000
# 2 -0.002261 0.016218 -0.003957 0.000000 0.000000 0.000000
# 3 -0.004092 -0.003957 0.011918 0.000000 0.000000 0.000000
# 4 0.000000 0.000000 0.000000 0.041990 0.000000 0.000000
# 5 0.000000 0.000000 0.000000 0.000000 0.030709 0.000000
# 6 0.000000 0.000000 0.000000 0.000000 0.000000 0.030102
#
#
# Mechanical properties :
#
#
# Convention : Reuss Voigt Hill
#
# Bulk Modulus (GPa) = 53.65799 57.48465 55.57132
# Shear Modulus (GPa) = 29.60519 30.53255 30.06887
#
# Velocity S-wave (km/s) = 3.97382 4.03558 4.00482
# Velocity P-wave (km/s) = 7.04811 7.23716 7.14326
#
# Compressibility (1/GPa) = 0.01863655
#
# Stress axis : x y z
#
# Youngs Moduli (GPa) = 89.92575 61.66058 83.90593
#
# Poissons Ratio (x) = 0.13940 0.34331
# Poissons Ratio (y) = 0.20330 0.33205
# Poissons Ratio (z) = 0.36795 0.24402
#
# Static dielectric constant tensor:
#      x y z
#    x 1.650250 0.000000 0.000000 
#    y 0.000000 1.641640 0.000000 
#    z 0.000000 0.000000 1.678540 
# 
# From -- ./inp_files/68239.got.cif
#   From: 2010.05.17/outbox.cif.g08.bks.cpg/sg74_35_cif.got.tgz:68239.got - 2010.06.03 17:57:02.
