data_PCOD9535815
_publ_section_title
;
Structure prediction by ZEFSAII (Michael W. Deem and Ramdas Pophale) SiO2 
 PCOD9535815
Probable space group: I M M A
;
_chemical_formula_sum "Si O2"
_cell_formula_units_Z 68
_cell_length_a 23.103018
_cell_length_b 7.300708
_cell_length_c 17.478293
_cell_angle_alpha 90.000000
_cell_angle_beta 90.000000
_cell_angle_gamma 90.000000
_cell_volume 2948.035511
_symmetry_space_group_name_H-M "I M M A"
_symmetry_group_IT_number 74
_symmetry_cell_setting 'orthorhombic'
loop_
_space_group_symop_operation_xyz
x,y,z
-x,1/2-y,z
x,-y,-z
-x,1/2+y,-z
-x,-y,-z
x,1/2+y,-z
-x,y,z
x,1/2-y,z
1/2+x,1/2+y,1/2+z
1/2-x,-y,1/2+z
1/2+x,1/2-y,1/2-z
1/2-x,y,1/2-z
1/2-x,1/2-y,1/2-z
1/2+x,y,1/2-z
1/2-x,1/2+y,1/2+z
1/2+x,-y,1/2+z
loop_
_atom_site_type_symbol
_atom_site_label
_atom_site_fract_x
_atom_site_fract_y
_atom_site_fract_z
Si Si1 0.592310 0.472814 0.134131
Si Si2 0.437740 0.027020 0.305288
Si Si3 0.336309 0.967543 0.586916
Si Si4 0.500000 0.500000 0.000000
Si Si5 0.776334 0.027310 0.333315
O O1 0.590357 0.250000 0.128485
O O2 0.567474 0.524797 0.216928
O O3 0.659670 0.530946 0.140348
O O4 0.551145 0.534111 0.065342
O O5 0.500000 0.970593 0.336618
O O6 0.435945 0.250000 0.306400
O O7 0.383941 0.960184 0.354493
O O8 0.334064 0.750000 0.599323
O O9 0.272141 0.033439 0.606534
O O10 0.352754 0.000000 0.500000
O O11 0.780145 0.250000 0.329793
O O12 0.750000 0.972937 0.250000
#
# Coordination Sequence:
#
# PCOD9535815 Si02
#       5
#    16  16  16   4  16
#     4  10  19  32  49  74 105 134 175 225 266 315
#     4   9  16  30  52  75  98 130 173 221 266 310
#     4  10  20  33  53  80 109 137 175 226 274 320
#     4  12  22  28  48  78 106 140 166 208 286 338
#     4   9  16  30  53  77  98 130 179 229 269 308
#
# _framework density 23.066206999999999
#
# number of rings (size 3 to 8) (size 9 to 14) (size 15 to 20)
#    0.000    2.353    3.529    0.353    1.647    0.471 
#    0.000    0.000    0.000    3.529    0.000    0.000 
#    0.000    0.000    0.000    0.000    0.000    0.000 
#
# Total GULP energy -189345.055511 kJ/mol
# GULP energy per Si atom -5568.972221 kJ/mol
# Density = 2.301371 g / cm^3
# Si number density = 23.066207 Si / 1000 Ang^3
#
#
#
# Elastic Constant Matrix: (Units=GPa)
#
#
# Indices 1 2 3 4 5 6 
#
# 1 251.1104 8.7240 99.4270 0.0000 0.0000 0.0000
# 2 8.7240 91.8964 -4.8574 0.0000 0.0000 0.0000
# 3 99.4270 -4.8574 162.8259 0.0000 0.0000 0.0000
# 4 0.0000 0.0000 0.0000 -17.1166 0.0000 0.0000
# 5 0.0000 0.0000 0.0000 0.0000 42.2829 0.0000
# 6 0.0000 0.0000 0.0000 0.0000 0.0000 -23.6415
#
#
#
# Elastic Compliance Matrix: (Units=1/GPa)
#
#
# Indices 1 2 3 4 5 6 
#
# 1 0.005294 -0.000674 -0.003253 0.000000 0.000000 0.000000
# 2 -0.000674 0.010985 0.000740 0.000000 0.000000 0.000000
# 3 -0.003253 0.000740 0.008150 0.000000 0.000000 0.000000
# 4 0.000000 0.000000 0.000000 -0.058423 0.000000 0.000000
# 5 0.000000 0.000000 0.000000 0.000000 0.023650 0.000000
# 6 0.000000 0.000000 0.000000 0.000000 0.000000 -0.042298
#
#
# Mechanical properties :
#
#
# Convention : Reuss Voigt Hill
#
# Bulk Modulus (GPa) = 55.39153 79.15775 67.27464
# Shear Modulus (GPa) = -124.22320 27.14089 -48.54115
#
# Velocity S-wave (km/s) = -7.34656 3.43396 -4.59238
# Velocity P-wave (km/s) = 6.92072 7.07919 1.05321
#
# Compressibility (1/GPa) = 0.01805330
#
# Stress axis : x y z
#
# Youngs Moduli (GPa) = 188.90740 91.03372 122.70354
#
# Poissons Ratio (x) = 0.06140 0.39910
# Poissons Ratio (y) = 0.12741 -0.09075
# Poissons Ratio (z) = 0.61443 -0.06732
#
# Static dielectric constant tensor:
#      x y z
#    x 1.897950 0.000000 0.000000 
#    y 0.000000 1.949630 0.000000 
#    z 0.000000 0.000000 1.805080 
# 
# From -- ./inp_files/34940.got.cif
#   From: 2010.05.17/outbox.cif.g08.bks.cpg/sg74_18_cif.got.tgz:34940.got - 2010.06.03 17:57:02.
