data_PCOD9535064
_publ_section_title
;
Structure prediction by ZEFSAII (Michael W. Deem and Ramdas Pophale) SiO2 
 PCOD9535064
Probable space group: I M M A
;
_chemical_formula_sum "Si O2"
_cell_formula_units_Z 100
_cell_length_a 32.776687
_cell_length_b 7.497717
_cell_length_c 17.139137
_cell_angle_alpha 90.000000
_cell_angle_beta 90.000000
_cell_angle_gamma 90.000000
_cell_volume 4211.948459
_symmetry_space_group_name_H-M "I M M A"
_symmetry_group_IT_number 74
_symmetry_cell_setting 'orthorhombic'
loop_
_space_group_symop_operation_xyz
x,y,z
-x,1/2-y,z
x,-y,-z
-x,1/2+y,-z
-x,-y,-z
x,1/2+y,-z
-x,y,z
x,1/2-y,z
1/2+x,1/2+y,1/2+z
1/2-x,-y,1/2+z
1/2+x,1/2-y,1/2-z
1/2-x,y,1/2-z
1/2-x,1/2-y,1/2-z
1/2+x,y,1/2-z
1/2-x,1/2+y,1/2+z
1/2+x,-y,1/2+z
loop_
_atom_site_type_symbol
_atom_site_label
_atom_site_fract_x
_atom_site_fract_y
_atom_site_fract_z
Si Si1 0.244160 0.463166 0.414621
Si Si2 0.342930 0.466188 0.131889
Si Si3 0.000000 0.750000 0.564721
Si Si4 0.185842 0.467708 0.194544
Si Si5 0.434456 0.053806 0.890132
Si Si6 0.388092 0.537242 0.590378
Si Si7 0.046630 0.533224 0.786452
O O1 0.262598 0.500000 0.500000
O O2 0.242194 0.250000 0.406282
O O3 0.197684 0.528835 0.412439
O O4 0.270733 0.527407 0.340756
O O5 0.345790 0.250000 0.131029
O O6 0.332427 0.520294 0.221656
O O7 0.385872 0.532359 0.098299
O O8 0.035957 0.594788 0.575804
O O9 0.187815 0.250000 0.198259
O O10 0.153654 0.525927 0.128990
O O11 0.448242 0.250000 0.915612
O O12 0.439182 0.038474 0.796495
O O13 0.392051 0.500000 0.500000
O O14 0.387668 0.750000 0.599372
O O15 0.425145 0.471266 0.643299
O O16 0.048659 0.750000 0.780458
O O17 0.000000 0.483909 0.799434
#
# Coordination Sequence:
#
# PCOD9535064 Si02
#       7
#    16  16   4  16  16  16  16
#     4  10  21  36  59  87 121 165 208 255 315 381
#     4  10  19  37  60  86 122 161 210 263 316 368
#     4  12  22  40  60  90 138 160 198 264 304 380
#     4   9  17  33  58  82 111 160 214 257 310 368
#     4  12  22  35  61  93 123 161 206 254 314 373
#     4  10  20  32  49  71 107 153 201 254 309 362
#     4  10  18  34  53  72 107 153 197 253 312 359
#
# _framework density 23.741982
#
# number of rings (size 3 to 8) (size 9 to 14) (size 15 to 20)
#    0.000    1.760    4.000    1.200    0.000    3.520 
#    0.000    0.800    0.000    1.920    0.000    0.560 
#    0.000    0.000    0.000    0.000    0.000    0.000 
#
# Total GULP energy -279175.103087 kJ/mol
# GULP energy per Si atom -5583.502062 kJ/mol
# Density = 2.368794 g / cm^3
# Si number density = 23.741982 Si / 1000 Ang^3
#
#
#
# Elastic Constant Matrix: (Units=GPa)
#
#
# Indices 1 2 3 4 5 6 
#
# 1 143.1508 22.6275 24.6816 0.0000 0.0000 0.0000
# 2 22.6275 99.1905 5.5523 0.0000 0.0000 0.0000
# 3 24.6816 5.5523 127.6155 0.0000 0.0000 0.0000
# 4 0.0000 0.0000 0.0000 13.7334 0.0000 0.0000
# 5 0.0000 0.0000 0.0000 0.0000 133.1674 0.0000
# 6 0.0000 0.0000 0.0000 0.0000 0.0000 -176.1488
#
#
#
# Elastic Compliance Matrix: (Units=1/GPa)
#
#
# Indices 1 2 3 4 5 6 
#
# 1 0.007480 -0.001629 -0.001376 0.000000 0.000000 0.000000
# 2 -0.001629 0.010461 -0.000140 0.000000 0.000000 0.000000
# 3 -0.001376 -0.000140 0.008108 0.000000 0.000000 0.000000
# 4 0.000000 0.000000 0.000000 0.072815 0.000000 0.000000
# 5 0.000000 0.000000 0.000000 0.000000 0.007509 0.000000
# 6 0.000000 0.000000 0.000000 0.000000 0.000000 -0.005677
#
#
# Mechanical properties :
#
#
# Convention : Reuss Voigt Hill
#
# Bulk Modulus (GPa) = 50.60930 52.85328 51.73129
# Shear Modulus (GPa) = 44.02409 15.29011 29.65710
#
# Velocity S-wave (km/s) = 4.31080 2.54049 3.53815
# Velocity P-wave (km/s) = 6.79264 5.56015 6.20706
#
# Compressibility (1/GPa) = 0.01975921
#
# Stress axis : x y z
#
# Youngs Moduli (GPa) = 133.68227 95.59175 123.33148
#
# Poissons Ratio (x) = 0.15576 0.16969
# Poissons Ratio (y) = 0.21783 0.01727
# Poissons Ratio (z) = 0.18393 0.01338
#
# Static dielectric constant tensor:
#      x y z
#    x 1.892330 0.000000 0.000000 
#    y 0.000000 1.924330 0.000000 
#    z 0.000000 0.000000 1.908200 
# 
# From -- ./inp_files/55669.got.cif
#   From: 2010.05.17/outbox.cif.g08.bks.cpg/sg74_28_cif.got.tgz:55669.got - 2010.06.03 17:57:02.
