data_PCOD9535262
_publ_section_title
;
Structure prediction by ZEFSAII (Michael W. Deem and Ramdas Pophale) SiO2 
 PCOD9535262
Probable space group: I M M A
;
_chemical_formula_sum "Si O2"
_cell_formula_units_Z 80
_cell_length_a 8.475141
_cell_length_b 24.439102
_cell_length_c 25.191189
_cell_angle_alpha 90.000000
_cell_angle_beta 90.000000
_cell_angle_gamma 90.000000
_cell_volume 5217.720874
_symmetry_space_group_name_H-M "I M M A"
_symmetry_group_IT_number 74
_symmetry_cell_setting 'orthorhombic'
loop_
_space_group_symop_operation_xyz
x,y,z
-x,1/2-y,z
x,-y,-z
-x,1/2+y,-z
-x,-y,-z
x,1/2+y,-z
-x,y,z
x,1/2-y,z
1/2+x,1/2+y,1/2+z
1/2-x,-y,1/2+z
1/2+x,1/2-y,1/2-z
1/2-x,y,1/2-z
1/2-x,1/2-y,1/2-z
1/2+x,y,1/2-z
1/2-x,1/2+y,1/2+z
1/2+x,-y,1/2+z
loop_
_atom_site_type_symbol
_atom_site_label
_atom_site_fract_x
_atom_site_fract_y
_atom_site_fract_z
Si Si1 0.309777 0.477061 0.416924
Si Si2 0.190848 0.311674 0.914665
Si Si3 0.687944 0.508296 0.193083
Si Si4 0.192095 0.414332 0.981531
Si Si5 0.689264 0.635359 0.192582
O O1 0.500000 0.476674 0.414916
O O2 0.245658 0.474847 0.357697
O O3 0.261369 0.535207 0.443287
O O4 0.258320 0.430753 0.458979
O O5 0.244230 0.250000 0.926152
O O6 0.245239 0.330352 0.856418
O O7 0.000000 0.312221 0.915396
O O8 0.246867 0.357388 0.956670
O O9 0.500000 0.508783 0.194225
O O10 0.750000 0.488799 0.250000
O O11 0.742603 0.571774 0.186554
O O12 0.000000 0.413842 0.981777
O O13 0.500000 0.636719 0.191992
O O14 0.750000 0.654498 0.250000
#
# Coordination Sequence:
#
# PCOD9535262 Si02
#       5
#    16  16  16  16  16
#     4   9  15  27  47  64  84 113 141 174 210 256
#     4  10  19  31  47  64  84 111 146 185 216 249
#     4  10  19  29  43  65  89 114 143 177 216 256
#     4   8  15  27  44  65  85 110 143 173 213 257
#     4  10  20  32  45  60  82 113 148 186 221 254
#
# _framework density 15.332364
#
# number of rings (size 3 to 8) (size 9 to 14) (size 15 to 20)
#    0.000    2.600    2.000    2.400    0.000    2.400 
#    0.000    3.000    0.000    0.000    0.000    0.000 
#    0.000    0.800    0.000    1.400    0.000    2.000 
#
# Total GULP energy -222946.757589 kJ/mol
# GULP energy per Si atom -5573.668940 kJ/mol
# Density = 1.529747 g / cm^3
# Si number density = 15.332364 Si / 1000 Ang^3
#
#
#
# Elastic Constant Matrix: (Units=GPa)
#
#
# Indices 1 2 3 4 5 6 
#
# 1 10.3574 13.5719 20.8835 0.0000 0.0000 0.0000
# 2 13.5719 86.2964 74.2840 0.0000 0.0000 0.0000
# 3 20.8835 74.2840 149.2284 0.0000 0.0000 0.0000
# 4 0.0000 0.0000 0.0000 20.6541 0.0000 0.0000
# 5 0.0000 0.0000 0.0000 0.0000 23.3690 0.0000
# 6 0.0000 0.0000 0.0000 0.0000 0.0000 5.6841
#
#
#
# Elastic Compliance Matrix: (Units=1/GPa)
#
#
# Indices 1 2 3 4 5 6 
#
# 1 0.138307 -0.008907 -0.014921 0.000000 0.000000 0.000000
# 2 -0.008907 0.020850 -0.009132 0.000000 0.000000 0.000000
# 3 -0.014921 -0.009132 0.013335 0.000000 0.000000 0.000000
# 4 0.000000 0.000000 0.000000 0.048416 0.000000 0.000000
# 5 0.000000 0.000000 0.000000 0.000000 0.042792 0.000000
# 6 0.000000 0.000000 0.000000 0.000000 0.000000 0.175930
#
#
# Mechanical properties :
#
#
# Convention : Reuss Voigt Hill
#
# Bulk Modulus (GPa) = 9.38348 51.48454 30.43401
# Shear Modulus (GPa) = 9.24086 19.08430 14.16258
#
# Velocity S-wave (km/s) = 2.45766 3.53187 3.04255
# Velocity P-wave (km/s) = 3.76654 7.09112 5.67762
#
# Compressibility (1/GPa) = 0.10657033
#
# Stress axis : x y z
#
# Youngs Moduli (GPa) = 7.23029 47.96177 74.98957
#
# Poissons Ratio (x) = 0.42722 1.11893
# Poissons Ratio (y) = 0.06440 0.68483
# Poissons Ratio (z) = 0.10788 0.43800
#
# Static dielectric constant tensor:
#      x y z
#    x 1.523070 0.000000 0.000000 
#    y 0.000000 1.511330 0.000000 
#    z 0.000000 0.000000 1.509630 
# 
# From -- ./inp_files/39949.got.cif
#   From: 2010.05.17/outbox.cif.g08.bks.cpg/sg74_20_cif.got.tgz:39949.got - 2010.06.03 17:57:02.
