data_PCOD9535207
_publ_section_title
;
Structure prediction by ZEFSAII (Michael W. Deem and Ramdas Pophale) SiO2 
 PCOD9535207
Probable space group: I M M A
;
_chemical_formula_sum "Si O2"
_cell_formula_units_Z 80
_cell_length_a 7.535444
_cell_length_b 27.270079
_cell_length_c 29.270294
_cell_angle_alpha 90.000000
_cell_angle_beta 90.000000
_cell_angle_gamma 90.000000
_cell_volume 6014.815738
_symmetry_space_group_name_H-M "I M M A"
_symmetry_group_IT_number 74
_symmetry_cell_setting 'orthorhombic'
loop_
_space_group_symop_operation_xyz
x,y,z
-x,1/2-y,z
x,-y,-z
-x,1/2+y,-z
-x,-y,-z
x,1/2+y,-z
-x,y,z
x,1/2-y,z
1/2+x,1/2+y,1/2+z
1/2-x,-y,1/2+z
1/2+x,1/2-y,1/2-z
1/2-x,y,1/2-z
1/2-x,1/2-y,1/2-z
1/2+x,y,1/2-z
1/2-x,1/2+y,1/2+z
1/2+x,-y,1/2+z
loop_
_atom_site_type_symbol
_atom_site_label
_atom_site_fract_x
_atom_site_fract_y
_atom_site_fract_z
Si Si1 0.783976 0.250000 0.944264
Si Si2 0.212064 0.145421 0.802206
Si Si3 0.000000 0.013055 0.575024
Si Si4 0.291828 0.143865 0.524040
Si Si5 0.000000 0.420471 0.483024
Si Si6 0.282758 0.250000 0.661762
Si Si7 0.791378 0.578136 0.115274
O O1 0.730746 0.300276 0.968628
O O2 0.728252 0.250000 0.891278
O O3 0.000000 0.250000 0.943339
O O4 0.250000 0.132909 0.750000
O O5 0.278650 0.200109 0.814083
O O6 0.274182 0.105915 0.839338
O O7 0.000000 0.147174 0.808344
O O8 0.827936 0.031741 0.602328
O O9 0.000000 0.044466 0.527879
O O10 0.000000 0.956629 0.560019
O O11 0.500000 0.143100 0.511864
O O12 0.171695 0.113816 0.488937
O O13 0.275712 0.116860 0.573336
O O14 0.500000 0.250000 0.662623
O O15 0.000000 0.565854 0.119495
#
# Coordination Sequence:
#
# PCOD9535207 Si02
#       7
#     8  16   8  16   8   8  16
#     4   9  14  24  42  58  75 108 138 165 195 243
#     4  10  19  28  40  55  76 102 133 174 213 252
#     4   9  18  30  44  56  78  94 122 168 212 257
#     4   9  16  27  43  58  78 103 130 159 200 239
#     4   9  18  29  40  62  78  93 122 169 210 248
#     4   9  15  27  41  53  73 102 138 170 208 249
#     4   9  17  29  43  57  72 101 132 162 207 251
#
# _framework density 13.300492
#
# number of rings (size 3 to 8) (size 9 to 14) (size 15 to 20)
#    0.000    2.800    2.000    0.300    1.400    1.200 
#    0.000    4.000    2.200    0.000    0.000    0.000 
#    0.000    0.000    0.000    0.000    0.000    0.000 
#
# Total GULP energy -222927.329792 kJ/mol
# GULP energy per Si atom -5573.183245 kJ/mol
# Density = 1.327022 g / cm^3
# Si number density = 13.300492 Si / 1000 Ang^3
#
#
#
# Elastic Constant Matrix: (Units=GPa)
#
#
# Indices 1 2 3 4 5 6 
#
# 1 59.4135 40.3317 28.8201 0.0000 0.0000 0.0000
# 2 40.3317 85.7922 53.5427 0.0000 0.0000 0.0000
# 3 28.8201 53.5427 59.0067 0.0000 0.0000 0.0000
# 4 0.0000 0.0000 0.0000 11.3407 0.0000 0.0000
# 5 0.0000 0.0000 0.0000 0.0000 12.2925 0.0000
# 6 0.0000 0.0000 0.0000 0.0000 0.0000 11.8547
#
#
#
# Elastic Compliance Matrix: (Units=1/GPa)
#
#
# Indices 1 2 3 4 5 6 
#
# 1 0.025042 -0.009544 -0.003571 0.000000 0.000000 0.000000
# 2 -0.009544 0.030514 -0.023027 0.000000 0.000000 0.000000
# 3 -0.003571 -0.023027 0.039586 0.000000 0.000000 0.000000
# 4 0.000000 0.000000 0.000000 0.088178 0.000000 0.000000
# 5 0.000000 0.000000 0.000000 0.000000 0.081350 0.000000
# 6 0.000000 0.000000 0.000000 0.000000 0.000000 0.084355
#
#
# Mechanical properties :
#
#
# Convention : Reuss Voigt Hill
#
# Bulk Modulus (GPa) = 43.74745 49.95574 46.85159
# Shear Modulus (GPa) = 11.65700 12.53212 12.09456
#
# Velocity S-wave (km/s) = 2.96367 3.07291 3.01878
# Velocity P-wave (km/s) = 6.68387 7.08740 6.88859
#
# Compressibility (1/GPa) = 0.02285848
#
# Stress axis : x y z
#
# Youngs Moduli (GPa) = 39.93285 32.77218 25.26159
#
# Poissons Ratio (x) = 0.31277 0.09021
# Poissons Ratio (y) = 0.38112 0.58169
# Poissons Ratio (z) = 0.14260 0.75464
#
# Static dielectric constant tensor:
#      x y z
#    x 1.485320 0.000000 0.000000 
#    y 0.000000 1.426740 0.000000 
#    z 0.000000 0.000000 1.411200 
# 
# From -- ./inp_files/46545.got.cif
#   From: 2010.05.17/outbox.cif.g08.bks.cpg/sg74_24_cif.got.tgz:46545.got - 2010.06.03 17:57:02.
