data_PCOD9535737
_publ_section_title
;
Structure prediction by ZEFSAII (Michael W. Deem and Ramdas Pophale) SiO2 
 PCOD9535737
Probable space group: I M M A
;
_chemical_formula_sum "Si O2"
_cell_formula_units_Z 72
_cell_length_a 9.897433
_cell_length_b 15.937901
_cell_length_c 25.195458
_cell_angle_alpha 90.000000
_cell_angle_beta 90.000000
_cell_angle_gamma 90.000000
_cell_volume 3974.440070
_symmetry_space_group_name_H-M "I M M A"
_symmetry_group_IT_number 74
_symmetry_cell_setting 'orthorhombic'
loop_
_space_group_symop_operation_xyz
x,y,z
-x,1/2-y,z
x,-y,-z
-x,1/2+y,-z
-x,-y,-z
x,1/2+y,-z
-x,y,z
x,1/2-y,z
1/2+x,1/2+y,1/2+z
1/2-x,-y,1/2+z
1/2+x,1/2-y,1/2-z
1/2-x,y,1/2-z
1/2-x,1/2-y,1/2-z
1/2+x,y,1/2-z
1/2-x,1/2+y,1/2+z
1/2+x,-y,1/2+z
loop_
_atom_site_type_symbol
_atom_site_label
_atom_site_fract_x
_atom_site_fract_y
_atom_site_fract_z
Si Si1 0.844515 0.557662 0.403581
Si Si2 0.649508 0.601635 0.491546
Si Si3 0.847535 0.652748 0.293260
Si Si4 0.658949 0.395102 0.390069
Si Si5 0.661414 0.250000 0.304052
O O1 0.767703 0.610323 0.449101
O O2 0.843884 0.609203 0.349547
O O3 0.759540 0.473722 0.391008
O O4 0.000000 0.539119 0.418826
O O5 0.645196 0.500000 0.500000
O O6 0.500000 0.626748 0.472092
O O7 0.671680 0.640762 0.549734
O O8 0.809605 0.750000 0.300711
O O9 0.750000 0.613049 0.250000
O O10 0.000000 0.649452 0.272531
O O11 0.500000 0.420677 0.385606
O O12 0.687358 0.330113 0.342684
O O13 0.500000 0.250000 0.291434
O O14 0.750000 0.250000 0.250000
#
# Coordination Sequence:
#
# PCOD9535737 Si02
#       5
#    16  16  16  16   8
#     4  10  19  31  52  80 106 133 168 212 261 310
#     4   8  15  30  51  74 100 131 165 204 251 304
#     4   9  19  35  51  69  99 135 168 205 249 298
#     4   9  19  36  55  74 102 138 173 213 258 305
#     4  10  22  40  58  76 104 142 181 224 269 310
#
# _framework density 18.115760000000002
#
# number of rings (size 3 to 8) (size 9 to 14) (size 15 to 20)
#    0.000    2.889    0.000    2.000    0.000    7.556 
#    2.000    4.444    0.000    0.000    0.000    0.000 
#    0.000    0.000    0.000    0.000    0.000    0.000 
#
# Total GULP energy -200421.282693 kJ/mol
# GULP energy per Si atom -5567.257853 kJ/mol
# Density = 1.807453 g / cm^3
# Si number density = 18.115760 Si / 1000 Ang^3
#
#
#
# Elastic Constant Matrix: (Units=GPa)
#
#
# Indices 1 2 3 4 5 6 
#
# 1 121.0218 39.4865 82.9546 0.0000 0.0000 0.0000
# 2 39.4865 35.5813 32.1825 0.0000 0.0000 0.0000
# 3 82.9546 32.1825 122.9712 0.0000 0.0000 0.0000
# 4 0.0000 0.0000 0.0000 23.8148 0.0000 0.0000
# 5 0.0000 0.0000 0.0000 0.0000 40.7369 0.0000
# 6 0.0000 0.0000 0.0000 0.0000 0.0000 4.6814
#
#
#
# Elastic Compliance Matrix: (Units=1/GPa)
#
#
# Indices 1 2 3 4 5 6 
#
# 1 0.018717 -0.012251 -0.009420 0.000000 0.000000 0.000000
# 2 -0.012251 0.044839 -0.003470 0.000000 0.000000 0.000000
# 3 -0.009420 -0.003470 0.015395 0.000000 0.000000 0.000000
# 4 0.000000 0.000000 0.000000 0.041991 0.000000 0.000000
# 5 0.000000 0.000000 0.000000 0.000000 0.024548 0.000000
# 6 0.000000 0.000000 0.000000 0.000000 0.000000 0.213613
#
#
# Mechanical properties :
#
#
# Convention : Reuss Voigt Hill
#
# Bulk Modulus (GPa) = 34.88191 65.42461 50.15326
# Shear Modulus (GPa) = 11.93479 22.17664 17.05572
#
# Velocity S-wave (km/s) = 2.56951 3.50260 3.07169
# Velocity P-wave (km/s) = 5.30094 7.24919 6.35023
#
# Compressibility (1/GPa) = 0.02866816
#
# Stress axis : x y z
#
# Youngs Moduli (GPa) = 53.42622 22.30179 64.95657
#
# Poissons Ratio (x) = 0.27323 0.61190
# Poissons Ratio (y) = 0.65454 0.22541
# Poissons Ratio (z) = 0.50329 0.07739
#
# Static dielectric constant tensor:
#      x y z
#    x 1.642180 0.000000 0.000000 
#    y 0.000000 1.633330 0.000000 
#    z 0.000000 0.000000 1.630040 
# 
# From -- ./inp_files/48398.got.cif
#   From: 2010.05.17/outbox.cif.g08.bks.cpg/sg74_25_cif.got.tgz:48398.got - 2010.06.03 17:57:02.
