data_PCOD9535395
_publ_section_title
;
Structure prediction by ZEFSAII (Michael W. Deem and Ramdas Pophale) SiO2 
 PCOD9535395
Probable space group: I M M A
;
_chemical_formula_sum "Si O2"
_cell_formula_units_Z 64
_cell_length_a 13.787882
_cell_length_b 13.977665
_cell_length_c 16.833749
_cell_angle_alpha 90.000000
_cell_angle_beta 90.000000
_cell_angle_gamma 90.000000
_cell_volume 3244.240435
_symmetry_space_group_name_H-M "I M M A"
_symmetry_group_IT_number 74
_symmetry_cell_setting 'orthorhombic'
loop_
_space_group_symop_operation_xyz
x,y,z
-x,1/2-y,z
x,-y,-z
-x,1/2+y,-z
-x,-y,-z
x,1/2+y,-z
-x,y,z
x,1/2-y,z
1/2+x,1/2+y,1/2+z
1/2-x,-y,1/2+z
1/2+x,1/2-y,1/2-z
1/2-x,y,1/2-z
1/2-x,1/2-y,1/2-z
1/2+x,y,1/2-z
1/2-x,1/2+y,1/2+z
1/2+x,-y,1/2+z
loop_
_atom_site_type_symbol
_atom_site_label
_atom_site_fract_x
_atom_site_fract_y
_atom_site_fract_z
Si Si1 0.887865 0.133721 0.966167
Si Si2 0.206487 0.865203 0.869746
Si Si3 0.613618 0.049889 0.213133
Si Si4 0.617490 0.641107 0.291191
O O1 0.888430 0.250000 0.966544
O O2 0.847963 0.109360 0.878864
O O3 0.000000 0.103479 0.972506
O O4 0.830800 0.102630 0.044166
O O5 0.206488 0.750000 0.867587
O O6 0.313393 0.902871 0.848805
O O7 0.137207 0.901630 0.798551
O O8 0.500000 0.059478 0.194812
O O9 0.640076 0.938288 0.226129
O O10 0.500000 0.641755 0.297719
O O11 0.646655 0.750000 0.274037
#
# Coordination Sequence:
#
# PCOD9535395 Si02
#       4
#    16  16  16  16
#     4   8  14  27  48  72  98 126 154 191 241 289
#     4  10  20  31  43  66  99 131 164 196 231 282
#     4  10  19  30  46  69  96 126 159 194 238 289
#     4   8  15  29  49  73  98 121 150 195 249 296
#
# _framework density 19.727267999999999
#
# number of rings (size 3 to 8) (size 9 to 14) (size 15 to 20)
#    0.000    3.000    0.000    3.750    0.000    4.000 
#    0.000    6.250    0.000    0.000    0.000   19.250 
#    0.000   14.000    0.000    0.000    0.000    0.000 
#
# Total GULP energy -178635.944892 kJ/mol
# GULP energy per Si atom -5582.373278 kJ/mol
# Density = 1.968237 g / cm^3
# Si number density = 19.727268 Si / 1000 Ang^3
#
#
#
# Elastic Constant Matrix: (Units=GPa)
#
#
# Indices 1 2 3 4 5 6 
#
# 1 96.0822 6.0442 28.7975 0.0000 0.0000 0.0000
# 2 6.0442 102.2616 20.4485 0.0000 0.0000 0.0000
# 3 28.7975 20.4485 47.3203 0.0000 0.0000 0.0000
# 4 0.0000 0.0000 0.0000 27.0050 0.0000 0.0000
# 5 0.0000 0.0000 0.0000 0.0000 27.3081 0.0000
# 6 0.0000 0.0000 0.0000 0.0000 0.0000 14.4574
#
#
#
# Elastic Compliance Matrix: (Units=1/GPa)
#
#
# Indices 1 2 3 4 5 6 
#
# 1 0.012801 0.000877 -0.008169 0.000000 0.000000 0.000000
# 2 0.000877 0.010764 -0.005185 0.000000 0.000000 0.000000
# 3 -0.008169 -0.005185 0.028345 0.000000 0.000000 0.000000
# 4 0.000000 0.000000 0.000000 0.037030 0.000000 0.000000
# 5 0.000000 0.000000 0.000000 0.000000 0.036619 0.000000
# 6 0.000000 0.000000 0.000000 0.000000 0.000000 0.069169
#
#
# Mechanical properties :
#
#
# Convention : Reuss Voigt Hill
#
# Bulk Modulus (GPa) = 37.09899 39.58271 38.34085
# Shear Modulus (GPa) = 21.86583 26.44569 24.15576
#
# Velocity S-wave (km/s) = 3.33289 3.66535 3.50306
# Velocity P-wave (km/s) = 5.80152 6.16616 5.98662
#
# Compressibility (1/GPa) = 0.02695491
#
# Stress axis : x y z
#
# Youngs Moduli (GPa) = 78.11870 92.90380 35.28004
#
# Poissons Ratio (x) = -0.08147 0.28821
# Poissons Ratio (y) = -0.06850 0.18293
# Poissons Ratio (z) = 0.63817 0.48171
#
# Static dielectric constant tensor:
#      x y z
#    x 1.686880 0.000000 0.000000 
#    y 0.000000 1.750130 0.000000 
#    z 0.000000 0.000000 1.681760 
# 
# From -- ./inp_files/31697.got.cif
#   From: 2010.05.17/outbox.cif.g08.bks.cpg/sg74_16_cif.got.tgz:31697.got - 2010.06.03 17:57:02.
