data_PCOD9535487
_publ_section_title
;
Structure prediction by ZEFSAII (Michael W. Deem and Ramdas Pophale) SiO2 
 PCOD9535487
Probable space group: I M M A
;
_chemical_formula_sum "Si O2"
_cell_formula_units_Z 104
_cell_length_a 27.222288
_cell_length_b 9.243565
_cell_length_c 22.328533
_cell_angle_alpha 90.000000
_cell_angle_beta 90.000000
_cell_angle_gamma 90.000000
_cell_volume 5618.550832
_symmetry_space_group_name_H-M "I M M A"
_symmetry_group_IT_number 74
_symmetry_cell_setting 'orthorhombic'
loop_
_space_group_symop_operation_xyz
x,y,z
-x,1/2-y,z
x,-y,-z
-x,1/2+y,-z
-x,-y,-z
x,1/2+y,-z
-x,y,z
x,1/2-y,z
1/2+x,1/2+y,1/2+z
1/2-x,-y,1/2+z
1/2+x,1/2-y,1/2-z
1/2-x,y,1/2-z
1/2-x,1/2-y,1/2-z
1/2+x,y,1/2-z
1/2-x,1/2+y,1/2+z
1/2+x,-y,1/2+z
loop_
_atom_site_type_symbol
_atom_site_label
_atom_site_fract_x
_atom_site_fract_y
_atom_site_fract_z
Si Si1 0.941244 0.913039 0.268601
Si Si2 0.657540 0.418785 0.058872
Si Si3 0.500000 0.075343 0.435438
Si Si4 0.055973 0.081862 0.388391
Si Si5 0.799851 0.077403 0.674039
Si Si6 0.408512 0.576982 0.650790
Si Si7 0.815951 0.577754 0.189166
O O1 0.921399 0.750000 0.261856
O O2 0.000000 0.904177 0.266717
O O3 0.929807 0.980773 0.332812
O O4 0.926358 0.015739 0.214509
O O5 0.670092 0.250000 0.056703
O O6 0.598312 0.431797 0.062945
O O7 0.677714 0.489817 0.119404
O O8 0.675751 0.500000 0.000000
O O9 0.500000 0.250000 0.441982
O O10 0.549382 0.036421 0.397666
O O11 0.500000 0.000000 0.500000
O O12 0.056483 0.250000 0.368083
O O13 0.000000 0.048639 0.407442
O O14 0.807056 0.250000 0.666118
O O15 0.821219 0.039234 0.739913
O O16 0.741215 0.050212 0.675392
O O17 0.404991 0.750000 0.651186
O O18 0.354427 0.506003 0.647295
O O19 0.823711 0.750000 0.183298
#
# Coordination Sequence:
#
# PCOD9535487 Si02
#       7
#    16  16   8  16  16  16  16
#     4  10  19  30  49  79 110 143 181 220 265 319
#     4  11  23  37  55  78 106 147 193 231 273 326
#     4  10  24  42  58  78 110 152 193 232 281 336
#     4   9  19  35  53  76 109 145 182 228 278 324
#     4   9  19  38  60  84 117 148 180 229 284 335
#     4  11  21  35  55  82 114 147 182 226 279 335
#     4   9  19  36  61  90 115 143 179 226 285 340
#
# _framework density 18.510111999999999
#
# number of rings (size 3 to 8) (size 9 to 14) (size 15 to 20)
#    0.000    2.154    0.769    3.231    0.000    7.077 
#    0.000    2.308    0.000    1.846    0.000    0.000 
#    0.000    0.000    0.000    0.000    0.000    0.000 
#
# Total GULP energy -290104.639682 kJ/mol
# GULP energy per Si atom -5578.935379 kJ/mol
# Density = 1.846798 g / cm^3
# Si number density = 18.510112 Si / 1000 Ang^3
#
#
#
# Elastic Constant Matrix: (Units=GPa)
#
#
# Indices 1 2 3 4 5 6 
#
# 1 102.1366 54.6258 52.8505 0.0000 0.0000 0.0000
# 2 54.6258 71.0992 59.9495 0.0000 0.0000 0.0000
# 3 52.8505 59.9495 82.9197 0.0000 0.0000 0.0000
# 4 0.0000 0.0000 0.0000 27.0753 0.0000 0.0000
# 5 0.0000 0.0000 0.0000 0.0000 16.6700 0.0000
# 6 0.0000 0.0000 0.0000 0.0000 0.0000 30.9795
#
#
#
# Elastic Compliance Matrix: (Units=1/GPa)
#
#
# Indices 1 2 3 4 5 6 
#
# 1 0.017023 -0.010068 -0.003571 0.000000 0.000000 0.000000
# 2 -0.010068 0.041982 -0.023935 0.000000 0.000000 0.000000
# 3 -0.003571 -0.023935 0.031641 0.000000 0.000000 0.000000
# 4 0.000000 0.000000 0.000000 0.036934 0.000000 0.000000
# 5 0.000000 0.000000 0.000000 0.000000 0.059988 0.000000
# 6 0.000000 0.000000 0.000000 0.000000 0.000000 0.032279
#
#
# Mechanical properties :
#
#
# Convention : Reuss Voigt Hill
#
# Bulk Modulus (GPa) = 64.52731 65.66745 65.09738
# Shear Modulus (GPa) = 16.65772 20.86029 18.75901
#
# Velocity S-wave (km/s) = 3.00313 3.36068 3.18692
# Velocity P-wave (km/s) = 6.85283 7.11424 6.98476
#
# Compressibility (1/GPa) = 0.01549731
#
# Stress axis : x y z
#
# Youngs Moduli (GPa) = 58.74274 23.81996 31.60486
#
# Poissons Ratio (x) = 0.23982 0.11287
# Poissons Ratio (y) = 0.59142 0.75646
# Poissons Ratio (z) = 0.20979 0.57013
#
# Static dielectric constant tensor:
#      x y z
#    x 1.698170 0.000000 0.000000 
#    y 0.000000 1.621810 0.000000 
#    z 0.000000 0.000000 1.596530 
# 
# From -- ./inp_files/55240.got.cif
#   From: 2010.05.17/outbox.cif.g08.bks.cpg/sg74_28_cif.got.tgz:55240.got - 2010.06.03 17:57:02.
