data_PCOD9535904
_publ_section_title
;
Structure prediction by ZEFSAII (Michael W. Deem and Ramdas Pophale) SiO2 
 PCOD9535904
Probable space group: I M M A
;
_chemical_formula_sum "Si O2"
_cell_formula_units_Z 104
_cell_length_a 19.579526
_cell_length_b 7.935956
_cell_length_c 32.018338
_cell_angle_alpha 90.000000
_cell_angle_beta 90.000000
_cell_angle_gamma 90.000000
_cell_volume 4975.081619
_symmetry_space_group_name_H-M "I M M A"
_symmetry_group_IT_number 74
_symmetry_cell_setting 'orthorhombic'
loop_
_space_group_symop_operation_xyz
x,y,z
-x,1/2-y,z
x,-y,-z
-x,1/2+y,-z
-x,-y,-z
x,1/2+y,-z
-x,y,z
x,1/2-y,z
1/2+x,1/2+y,1/2+z
1/2-x,-y,1/2+z
1/2+x,1/2-y,1/2-z
1/2-x,y,1/2-z
1/2-x,1/2-y,1/2-z
1/2+x,y,1/2-z
1/2-x,1/2+y,1/2+z
1/2+x,-y,1/2+z
loop_
_atom_site_type_symbol
_atom_site_label
_atom_site_fract_x
_atom_site_fract_y
_atom_site_fract_z
Si Si1 0.578813 0.552653 0.440054
Si Si2 0.816759 0.052428 0.228536
Si Si3 0.920269 0.049151 0.702300
Si Si4 0.689361 0.000000 0.500000
Si Si5 0.423059 0.455217 0.893722
Si Si6 0.778783 0.057963 0.580103
Si Si7 0.657482 0.054172 0.363342
O O1 0.500000 0.509479 0.446526
O O2 0.589934 0.750000 0.451972
O O3 0.631406 0.439529 0.466562
O O4 0.601831 0.536074 0.392276
O O5 0.801823 0.250000 0.220363
O O6 0.750000 0.974903 0.250000
O O7 0.835341 0.981821 0.183157
O O8 0.875692 0.037524 0.262592
O O9 0.907595 0.250000 0.704314
O O10 0.907458 0.996060 0.654367
O O11 0.000000 0.020133 0.710172
O O12 0.742563 0.064971 0.534913
O O13 0.500000 0.515255 0.904709
O O14 0.426837 0.250000 0.895005
O O15 0.356693 0.506763 0.920313
O O16 0.780755 0.250000 0.595964
O O17 0.729420 0.961358 0.612030
O O18 0.637732 0.250000 0.361090
#
# Coordination Sequence:
#
# PCOD9535904 Si02
#       7
#    16  16  16   8  16  16  16
#     4  10  22  40  60  80 103 135 175 216 259 310
#     4  10  21  35  50  73 107 144 179 214 256 308
#     4   9  18  32  52  78 103 131 173 220 260 300
#     4  10  19  32  51  80 106 126 160 204 251 302
#     4   8  15  31  55  80 104 132 171 217 259 300
#     4  10  20  35  56  79 103 135 173 211 256 310
#     4  10  21  35  52  76 106 140 176 215 261 307
#
# _framework density 20.904181000000001
#
# number of rings (size 3 to 8) (size 9 to 14) (size 15 to 20)
#    0.000    2.462    0.000    3.923    0.000    7.692 
#    0.000    3.462    0.000    1.385    0.000    0.000 
#    0.000    0.000    0.000    0.000    0.000    0.000 
#
# Total GULP energy -289485.887232 kJ/mol
# GULP energy per Si atom -5567.036293 kJ/mol
# Density = 2.085660 g / cm^3
# Si number density = 20.904181 Si / 1000 Ang^3
#
#
#
# Elastic Constant Matrix: (Units=GPa)
#
#
# Indices 1 2 3 4 5 6 
#
# 1 123.8163 14.3633 73.8979 0.0000 0.0000 0.0000
# 2 14.3633 28.0941 14.3831 0.0000 0.0000 0.0000
# 3 73.8979 14.3831 101.6761 0.0000 0.0000 0.0000
# 4 0.0000 0.0000 0.0000 16.2553 0.0000 0.0000
# 5 0.0000 0.0000 0.0000 0.0000 25.4781 0.0000
# 6 0.0000 0.0000 0.0000 0.0000 0.0000 16.5511
#
#
#
# Elastic Compliance Matrix: (Units=1/GPa)
#
#
# Indices 1 2 3 4 5 6 
#
# 1 0.014384 -0.002158 -0.010149 0.000000 0.000000 0.000000
# 2 -0.002158 0.038698 -0.003906 0.000000 0.000000 0.000000
# 3 -0.010149 -0.003906 0.017764 0.000000 0.000000 0.000000
# 4 0.000000 0.000000 0.000000 0.061519 0.000000 0.000000
# 5 0.000000 0.000000 0.000000 0.000000 0.039249 0.000000
# 6 0.000000 0.000000 0.000000 0.000000 0.000000 0.060419
#
#
# Mechanical properties :
#
#
# Convention : Reuss Voigt Hill
#
# Bulk Modulus (GPa) = 26.02808 50.98611 38.50709
# Shear Modulus (GPa) = 18.03330 21.71971 19.87651
#
# Velocity S-wave (km/s) = 2.94030 3.22687 3.08691
# Velocity P-wave (km/s) = 4.89952 6.19087 5.58266
#
# Compressibility (1/GPa) = 0.03842005
#
# Stress axis : x y z
#
# Youngs Moduli (GPa) = 69.52098 25.84142 56.29368
#
# Poissons Ratio (x) = 0.05577 0.57133
# Poissons Ratio (y) = 0.15003 0.21987
# Poissons Ratio (z) = 0.70557 0.10093
#
# Static dielectric constant tensor:
#      x y z
#    x 1.761680 0.000000 0.000000 
#    y 0.000000 1.883250 0.000000 
#    z 0.000000 0.000000 1.757060 
# 
# From -- ./inp_files/73372.got.cif
#   From: 2010.05.17/outbox.cif.g08.bks.cpg/sg74_37_cif.got.tgz:73372.got - 2010.06.03 17:57:02.
