data_PCOD9535693
_publ_section_title
;
Structure prediction by ZEFSAII (Michael W. Deem and Ramdas Pophale) SiO2 
 PCOD9535693
Probable space group: I M M A
;
_chemical_formula_sum "Si O2"
_cell_formula_units_Z 104
_cell_length_a 8.177629
_cell_length_b 27.448573
_cell_length_c 23.578981
_cell_angle_alpha 90.000000
_cell_angle_beta 90.000000
_cell_angle_gamma 90.000000
_cell_volume 5292.638205
_symmetry_space_group_name_H-M "I M M A"
_symmetry_group_IT_number 74
_symmetry_cell_setting 'orthorhombic'
loop_
_space_group_symop_operation_xyz
x,y,z
-x,1/2-y,z
x,-y,-z
-x,1/2+y,-z
-x,-y,-z
x,1/2+y,-z
-x,y,z
x,1/2-y,z
1/2+x,1/2+y,1/2+z
1/2-x,-y,1/2+z
1/2+x,1/2-y,1/2-z
1/2-x,y,1/2-z
1/2-x,1/2-y,1/2-z
1/2+x,y,1/2-z
1/2-x,1/2+y,1/2+z
1/2+x,-y,1/2+z
loop_
_atom_site_type_symbol
_atom_site_label
_atom_site_fract_x
_atom_site_fract_y
_atom_site_fract_z
Si Si1 0.806344 0.347683 0.375579
Si Si2 0.200322 0.193540 0.496176
Si Si3 0.193780 0.947802 0.858974
Si Si4 0.695383 0.250000 0.314659
Si Si5 0.194825 0.948189 0.313650
Si Si6 0.689849 0.119486 0.914426
Si Si7 0.187510 0.556393 0.985871
O O1 0.746858 0.337744 0.440818
O O2 0.730692 0.392747 0.340148
O O3 0.766490 0.297626 0.344552
O O4 0.000000 0.355465 0.377917
O O5 0.250020 0.250000 0.490949
O O6 0.256821 0.168327 0.555039
O O7 0.000000 0.192605 0.495943
O O8 0.260277 0.943454 0.923082
O O9 0.000000 0.954842 0.862258
O O10 0.259856 0.995798 0.828608
O O11 0.500000 0.250000 0.319456
O O12 0.750000 0.250000 0.250000
O O13 0.250000 0.937063 0.250000
O O14 0.262129 0.909373 0.360245
O O15 0.000000 0.945532 0.316468
O O16 0.500000 0.129319 0.901274
O O17 0.705858 0.081946 0.966564
O O18 0.000000 0.576095 0.986705
O O19 0.174818 0.500000 0.000000
#
# Coordination Sequence:
#
# PCOD9535693 Si02
#       7
#    16  16  16   8  16  16  16
#     4  11  21  37  61  89 119 154 194 240 292 342
#     4   9  17  32  57  88 118 146 182 233 291 346
#     4  11  22  36  56  85 119 154 190 232 285 341
#     4  12  26  44  62  82 112 154 205 248 287 340
#     4  11  24  40  58  81 112 153 199 243 289 348
#     4  10  20  34  57  86 112 146 192 237 287 348
#     4  10  19  31  50  80 115 148 178 219 278 337
#
# _framework density 19.649937000000001
#
# number of rings (size 3 to 8) (size 9 to 14) (size 15 to 20)
#    0.000    1.538    3.846    2.077    0.000    2.154 
#    0.000    3.077    0.000    0.462    0.000    0.000 
#    0.000    0.000    0.000    0.000    0.000    0.154 
#
# Total GULP energy -289929.748070 kJ/mol
# GULP energy per Si atom -5575.572078 kJ/mol
# Density = 1.960521 g / cm^3
# Si number density = 19.649937 Si / 1000 Ang^3
#
#
#
# Elastic Constant Matrix: (Units=GPa)
#
#
# Indices 1 2 3 4 5 6 
#
# 1 29.8251 5.5197 7.2802 0.0000 0.0000 0.0000
# 2 5.5197 84.9366 30.9746 0.0000 0.0000 0.0000
# 3 7.2802 30.9746 105.2002 0.0000 0.0000 0.0000
# 4 0.0000 0.0000 0.0000 7.6209 0.0000 0.0000
# 5 0.0000 0.0000 0.0000 0.0000 6.5660 0.0000
# 6 0.0000 0.0000 0.0000 0.0000 0.0000 16.2318
#
#
#
# Elastic Compliance Matrix: (Units=1/GPa)
#
#
# Indices 1 2 3 4 5 6 
#
# 1 0.034281 -0.001527 -0.001923 0.000000 0.000000 0.000000
# 2 -0.001527 0.013258 -0.003798 0.000000 0.000000 0.000000
# 3 -0.001923 -0.003798 0.010757 0.000000 0.000000 0.000000
# 4 0.000000 0.000000 0.000000 0.131218 0.000000 0.000000
# 5 0.000000 0.000000 0.000000 0.000000 0.152300 0.000000
# 6 0.000000 0.000000 0.000000 0.000000 0.000000 0.061608
#
#
# Mechanical properties :
#
#
# Convention : Reuss Voigt Hill
#
# Bulk Modulus (GPa) = 22.83066 34.16789 28.49927
# Shear Modulus (GPa) = 11.56027 17.82957 14.69492
#
# Velocity S-wave (km/s) = 2.42814 3.01551 2.73762
# Velocity P-wave (km/s) = 4.41646 5.43603 4.95255
#
# Compressibility (1/GPa) = 0.04380075
#
# Stress axis : x y z
#
# Youngs Moduli (GPa) = 29.17096 75.42788 92.96292
#
# Poissons Ratio (x) = 0.11514 0.17875
# Poissons Ratio (y) = 0.04453 0.35306
# Poissons Ratio (z) = 0.05609 0.28647
#
# Static dielectric constant tensor:
#      x y z
#    x 1.713460 0.000000 0.000000 
#    y 0.000000 1.785410 0.000000 
#    z 0.000000 0.000000 1.720080 
# 
# From -- ./inp_files/57578.got.cif
#   From: 2010.05.17/outbox.cif.g08.bks.cpg/sg74_29_cif.got.tgz:57578.got - 2010.06.03 17:57:02.
