data_PCOD9535389
_publ_section_title
;
Structure prediction by ZEFSAII (Michael W. Deem and Ramdas Pophale) SiO2 
 PCOD9535389
Probable space group: I M M A
;
_chemical_formula_sum "Si O2"
_cell_formula_units_Z 104
_cell_length_a 7.322572
_cell_length_b 24.888578
_cell_length_c 25.857705
_cell_angle_alpha 90.000000
_cell_angle_beta 90.000000
_cell_angle_gamma 90.000000
_cell_volume 4712.525477
_symmetry_space_group_name_H-M "I M M A"
_symmetry_group_IT_number 74
_symmetry_cell_setting 'orthorhombic'
loop_
_space_group_symop_operation_xyz
x,y,z
-x,1/2-y,z
x,-y,-z
-x,1/2+y,-z
-x,-y,-z
x,1/2+y,-z
-x,y,z
x,1/2-y,z
1/2+x,1/2+y,1/2+z
1/2-x,-y,1/2+z
1/2+x,1/2-y,1/2-z
1/2-x,y,1/2-z
1/2-x,1/2-y,1/2-z
1/2+x,y,1/2-z
1/2-x,1/2+y,1/2+z
1/2+x,-y,1/2+z
loop_
_atom_site_type_symbol
_atom_site_label
_atom_site_fract_x
_atom_site_fract_y
_atom_site_fract_z
Si Si1 0.281902 0.632850 0.311030
Si Si2 0.723048 0.441714 0.598781
Si Si3 0.777614 0.750000 0.975528
Si Si4 0.222489 0.132410 0.996527
Si Si5 0.222890 0.564395 0.903199
Si Si6 0.717409 0.363107 0.309832
Si Si7 0.282651 0.250000 0.688187
Si Si8 0.277134 0.750000 0.645359
O O1 0.500000 0.635115 0.317227
O O2 0.250000 0.625515 0.250000
O O3 0.217034 0.584973 0.347345
O O4 0.211610 0.691754 0.328843
O O5 0.500000 0.442960 0.598186
O O6 0.780162 0.402389 0.552573
O O7 0.783165 0.502934 0.591784
O O8 0.718109 0.694346 0.001521
O O9 0.725001 0.750000 0.914964
O O10 0.000000 0.750000 0.976377
O O11 0.277714 0.101599 0.048765
O O12 0.000000 0.133166 0.996027
O O13 0.283820 0.592157 0.850000
O O14 0.000000 0.563578 0.903602
O O15 0.500000 0.361095 0.316926
O O16 0.750000 0.374677 0.250000
O O17 0.785743 0.304118 0.326333
O O18 0.500000 0.250000 0.678273
O O19 0.250000 0.250000 0.750000
O O20 0.000000 0.750000 0.853769
#
# Coordination Sequence:
#
# PCOD9535389 Si02
#       8
#    16  16   8  16  16  16   8   8
#     4   9  17  29  44  63  88 115 143 177 218 262
#     4   9  17  26  39  61  87 115 147 184 223 263
#     4   9  14  22  39  62  89 120 146 177 229 280
#     4   9  15  24  39  60  86 115 147 181 222 271
#     4   9  16  27  41  58  85 119 149 180 222 268
#     4  10  19  30  46  67  92 122 155 189 223 266
#     4   8  14  25  41  58  79 108 138 167 205 250
#     4   9  15  27  43  62  91 122 150 182 227 274
#
# _framework density 22.068846000000001
#
# number of rings (size 3 to 8) (size 9 to 14) (size 15 to 20)
#    0.000    2.923    1.538    0.692    0.000    3.077 
#    0.000    3.077    0.000    0.000    0.000    1.077 
#    0.000    2.462    0.000    0.000    0.000    0.000 
#
# Total GULP energy -290346.619266 kJ/mol
# GULP energy per Si atom -5583.588832 kJ/mol
# Density = 2.201862 g / cm^3
# Si number density = 22.068846 Si / 1000 Ang^3
#
#
#
# Elastic Constant Matrix: (Units=GPa)
#
#
# Indices 1 2 3 4 5 6 
#
# 1 87.2919 6.5730 -2.5361 0.0000 0.0000 0.0000
# 2 6.5730 234.4399 111.3822 0.0000 0.0000 0.0000
# 3 -2.5361 111.3822 137.1395 0.0000 0.0000 0.0000
# 4 0.0000 0.0000 0.0000 22.8618 0.0000 0.0000
# 5 0.0000 0.0000 0.0000 0.0000 7.8768 0.0000
# 6 0.0000 0.0000 0.0000 0.0000 0.0000 -12.1189
#
#
#
# Elastic Compliance Matrix: (Units=1/GPa)
#
#
# Indices 1 2 3 4 5 6 
#
# 1 0.011530 -0.000691 0.000775 0.000000 0.000000 0.000000
# 2 -0.000691 0.006987 -0.005687 0.000000 0.000000 0.000000
# 3 0.000775 -0.005687 0.011925 0.000000 0.000000 0.000000
# 4 0.000000 0.000000 0.000000 0.043741 0.000000 0.000000
# 5 0.000000 0.000000 0.000000 0.000000 0.126954 0.000000
# 6 0.000000 0.000000 0.000000 0.000000 0.000000 -0.082516
#
#
# Mechanical properties :
#
#
# Convention : Reuss Voigt Hill
#
# Bulk Modulus (GPa) = 51.98964 76.63438 64.31201
# Shear Modulus (GPa) = 36.69931 26.62077 31.66004
#
# Velocity S-wave (km/s) = 4.08235 3.47689 3.79172
# Velocity P-wave (km/s) = 6.76977 7.13575 6.95517
#
# Compressibility (1/GPa) = 0.01923460
#
# Stress axis : x y z
#
# Youngs Moduli (GPa) = 86.72737 143.12323 83.85435
#
# Poissons Ratio (x) = 0.09895 -0.06496
# Poissons Ratio (y) = 0.05996 0.47692
# Poissons Ratio (z) = -0.06719 0.81401
#
# Static dielectric constant tensor:
#      x y z
#    x 1.891390 0.000000 0.000000 
#    y 0.000000 1.788340 0.000000 
#    z 0.000000 0.000000 1.757080 
# 
# From -- ./inp_files/64579.got.cif
#   From: 2010.05.17/outbox.cif.g08.bks.cpg/sg74_33_cif.got.tgz:64579.got - 2010.06.03 17:57:02.
