data_PCOD9535871
_publ_section_title
;
Structure prediction by ZEFSAII (Michael W. Deem and Ramdas Pophale) SiO2 
 PCOD9535871
Probable space group: I M M A
;
_chemical_formula_sum "Si O2"
_cell_formula_units_Z 88
_cell_length_a 7.621127
_cell_length_b 32.284699
_cell_length_c 18.020256
_cell_angle_alpha 90.000000
_cell_angle_beta 90.000000
_cell_angle_gamma 90.000000
_cell_volume 4433.808146
_symmetry_space_group_name_H-M "I M M A"
_symmetry_group_IT_number 74
_symmetry_cell_setting 'orthorhombic'
loop_
_space_group_symop_operation_xyz
x,y,z
-x,1/2-y,z
x,-y,-z
-x,1/2+y,-z
-x,-y,-z
x,1/2+y,-z
-x,y,z
x,1/2-y,z
1/2+x,1/2+y,1/2+z
1/2-x,-y,1/2+z
1/2+x,1/2-y,1/2-z
1/2-x,y,1/2-z
1/2-x,1/2-y,1/2-z
1/2+x,y,1/2-z
1/2-x,1/2+y,1/2+z
1/2+x,-y,1/2+z
loop_
_atom_site_type_symbol
_atom_site_label
_atom_site_fract_x
_atom_site_fract_y
_atom_site_fract_z
Si Si1 0.708092 0.420430 0.167790
Si Si2 0.794400 0.454297 0.008569
Si Si3 0.713188 0.663835 0.898111
Si Si4 0.295260 0.869813 0.441459
Si Si5 0.788959 0.796477 0.162684
Si Si6 0.710382 0.250000 0.163705
O O1 0.500000 0.422148 0.158638
O O2 0.750000 0.436042 0.250000
O O3 0.784464 0.442803 0.095580
O O4 0.765593 0.372573 0.158454
O O5 0.000000 0.456796 0.988156
O O6 0.715668 0.500000 0.000000
O O7 0.720314 0.415947 0.959308
O O8 0.500000 0.664172 0.901657
O O9 0.778240 0.708197 0.872776
O O10 0.782398 0.651996 0.978647
O O11 0.500000 0.875635 0.421522
O O12 0.220386 0.836306 0.383091
O O13 0.725132 0.750000 0.140009
O O14 0.750000 0.801039 0.250000
O O15 0.000000 0.795923 0.152963
O O16 0.500000 0.250000 0.154525
O O17 0.750000 0.250000 0.250000
#
# Coordination Sequence:
#
# PCOD9535871 Si02
#       6
#    16  16  16  16  16   8
#     4  10  19  32  51  73  98 128 165 204 243 290
#     4   9  18  34  54  74  99 130 162 201 251 301
#     4   9  19  32  46  68  97 128 162 200 238 281
#     4   9  18  32  51  73  96 125 162 200 240 291
#     4   9  18  32  49  71  98 127 161 200 243 292
#     4  10  20  32  44  64  95 128 161 196 235 276
#
# _framework density 19.847498000000002
#
# number of rings (size 3 to 8) (size 9 to 14) (size 15 to 20)
#    0.000    2.727    0.000    1.091    1.273    2.545 
#    0.000    0.909    0.000    2.182    0.000    0.000 
#    0.000    0.000    0.000    0.000    0.000    0.000 
#
# Total GULP energy -245169.896645 kJ/mol
# GULP energy per Si atom -5572.043106 kJ/mol
# Density = 1.980232 g / cm^3
# Si number density = 19.847498 Si / 1000 Ang^3
#
#
#
# Elastic Constant Matrix: (Units=GPa)
#
#
# Indices 1 2 3 4 5 6 
#
# 1 40.6818 8.4984 -8.2323 0.0000 0.0000 0.0000
# 2 8.4984 196.4711 69.1792 0.0000 0.0000 0.0000
# 3 -8.2323 69.1792 75.3291 0.0000 0.0000 0.0000
# 4 0.0000 0.0000 0.0000 17.2000 0.0000 0.0000
# 5 0.0000 0.0000 0.0000 0.0000 22.4096 0.0000
# 6 0.0000 0.0000 0.0000 0.0000 0.0000 4.5386
#
#
#
# Elastic Compliance Matrix: (Units=1/GPa)
#
#
# Indices 1 2 3 4 5 6 
#
# 1 0.026425 -0.003192 0.005819 0.000000 0.000000 0.000000
# 2 -0.003192 0.007908 -0.007611 0.000000 0.000000 0.000000
# 3 0.005819 -0.007611 0.020901 0.000000 0.000000 0.000000
# 4 0.000000 0.000000 0.000000 0.058140 0.000000 0.000000
# 5 0.000000 0.000000 0.000000 0.000000 0.044624 0.000000
# 6 0.000000 0.000000 0.000000 0.000000 0.000000 0.220332
#
#
# Mechanical properties :
#
#
# Convention : Reuss Voigt Hill
#
# Bulk Modulus (GPa) = 22.09144 50.15252 36.12198
# Shear Modulus (GPa) = 12.39508 25.03208 18.71358
#
# Velocity S-wave (km/s) = 2.50174 3.55522 3.07395
# Velocity P-wave (km/s) = 4.41585 6.49435 5.55321
#
# Compressibility (1/GPa) = 0.04526639
#
# Stress axis : x y z
#
# Youngs Moduli (GPa) = 37.84232 126.45758 47.84531
#
# Poissons Ratio (x) = 0.40366 -0.27843
# Poissons Ratio (y) = 0.12080 0.36415
# Poissons Ratio (z) = -0.22022 0.96247
#
# Static dielectric constant tensor:
#      x y z
#    x 1.727540 0.000000 0.000000 
#    y 0.000000 1.752620 0.000000 
#    z 0.000000 0.000000 1.653790 
# 
# From -- ./inp_files/40110.got.cif
#   From: 2010.05.17/outbox.cif.g08.bks.cpg/sg74_21_cif.got.tgz:40110.got - 2010.06.03 17:57:02.
