data_PCOD9535460
_publ_section_title
;
Structure prediction by ZEFSAII (Michael W. Deem and Ramdas Pophale) SiO2 
 PCOD9535460
Probable space group: I M M A
;
_chemical_formula_sum "Si O2"
_cell_formula_units_Z 104
_cell_length_a 25.579933
_cell_length_b 7.439585
_cell_length_c 25.463348
_cell_angle_alpha 90.000000
_cell_angle_beta 90.000000
_cell_angle_gamma 90.000000
_cell_volume 4845.779164
_symmetry_space_group_name_H-M "I M M A"
_symmetry_group_IT_number 74
_symmetry_cell_setting 'orthorhombic'
loop_
_space_group_symop_operation_xyz
x,y,z
-x,1/2-y,z
x,-y,-z
-x,1/2+y,-z
-x,-y,-z
x,1/2+y,-z
-x,y,z
x,1/2-y,z
1/2+x,1/2+y,1/2+z
1/2-x,-y,1/2+z
1/2+x,1/2-y,1/2-z
1/2-x,y,1/2-z
1/2-x,1/2-y,1/2-z
1/2+x,y,1/2-z
1/2-x,1/2+y,1/2+z
1/2+x,-y,1/2+z
loop_
_atom_site_type_symbol
_atom_site_label
_atom_site_fract_x
_atom_site_fract_y
_atom_site_fract_z
Si Si1 0.559993 0.465076 0.440488
Si Si2 0.940582 0.968925 0.724560
Si Si3 0.230979 0.458415 0.190032
Si Si4 0.113439 0.530652 0.832639
Si Si5 0.111328 0.463918 0.561317
Si Si6 0.838813 0.546374 0.660631
Si Si7 0.500000 0.536229 0.062365
O O1 0.579732 0.500000 0.500000
O O2 0.500000 0.533411 0.437719
O O3 0.557772 0.250000 0.435357
O O4 0.593073 0.528795 0.389998
O O5 0.941775 0.750000 0.721341
O O6 0.924784 0.019179 0.784368
O O7 0.891028 0.029925 0.688734
O O8 0.000000 0.029758 0.711127
O O9 0.227563 0.250000 0.171859
O O10 0.250000 0.458962 0.250000
O O11 0.172742 0.530536 0.180643
O O12 0.282554 0.544786 0.165316
O O13 0.113765 0.750000 0.832317
O O14 0.116894 0.500000 0.500000
O O15 0.112744 0.250000 0.568632
O O16 0.151977 0.552636 0.598939
O O17 0.054851 0.535514 0.580964
O O18 0.834475 0.750000 0.682759
O O19 0.500000 0.750000 0.070054
O O20 0.500000 0.500000 0.000000
#
# Coordination Sequence:
#
# PCOD9535460 Si02
#       7
#    16  16  16  16  16  16   8
#     4   9  17  29  47  72 100 130 162 199 245 295
#     4   9  16  25  41  71 104 127 154 200 251 294
#     4   9  15  27  46  70  98 128 164 202 238 282
#     4   9  15  26  46  70  98 129 164 205 244 285
#     4  10  20  35  52  70  95 126 161 199 241 288
#     4  10  19  30  48  74 100 127 161 200 244 291
#     4   8  16  30  48  68  88 118 156 192 229 276
#
# _framework density 21.461977999999998
#
# number of rings (size 3 to 8) (size 9 to 14) (size 15 to 20)
#    0.000    2.769    1.538    0.923    1.077    2.462 
#    0.000    0.769    0.000    4.154    0.000    0.000 
#    0.000    0.000    0.000    0.000    0.000    0.000 
#
# Total GULP energy -289665.475189 kJ/mol
# GULP energy per Si atom -5570.489907 kJ/mol
# Density = 2.141313 g / cm^3
# Si number density = 21.461978 Si / 1000 Ang^3
#
#
#
# Elastic Constant Matrix: (Units=GPa)
#
#
# Indices 1 2 3 4 5 6 
#
# 1 136.4210 6.8341 44.0993 0.0000 0.0000 0.0000
# 2 6.8341 73.1858 -1.0496 0.0000 0.0000 0.0000
# 3 44.0993 -1.0496 97.6519 0.0000 0.0000 0.0000
# 4 0.0000 0.0000 0.0000 5.2871 0.0000 0.0000
# 5 0.0000 0.0000 0.0000 0.0000 40.8411 0.0000
# 6 0.0000 0.0000 0.0000 0.0000 0.0000 -10.4377
#
#
#
# Elastic Compliance Matrix: (Units=1/GPa)
#
#
# Indices 1 2 3 4 5 6 
#
# 1 0.008637 -0.000863 -0.003910 0.000000 0.000000 0.000000
# 2 -0.000863 0.013752 0.000537 0.000000 0.000000 0.000000
# 3 -0.003910 0.000537 0.012012 0.000000 0.000000 0.000000
# 4 0.000000 0.000000 0.000000 0.189140 0.000000 0.000000
# 5 0.000000 0.000000 0.000000 0.000000 0.024485 0.000000
# 6 0.000000 0.000000 0.000000 0.000000 0.000000 -0.095807
#
#
# Mechanical properties :
#
#
# Convention : Reuss Voigt Hill
#
# Bulk Modulus (GPa) = 38.56372 45.22517 41.89444
# Shear Modulus (GPa) = 29.52747 24.29643 26.91195
#
# Velocity S-wave (km/s) = 3.71321 3.36827 3.54494
# Velocity P-wave (km/s) = 6.03252 6.02038 6.02645
#
# Compressibility (1/GPa) = 0.02593111
#
# Stress axis : x y z
#
# Youngs Moduli (GPa) = 115.77605 72.71615 83.25065
#
# Poissons Ratio (x) = 0.06273 0.32550
# Poissons Ratio (y) = 0.09987 -0.04474
# Poissons Ratio (z) = 0.45267 -0.03908
#
# Static dielectric constant tensor:
#      x y z
#    x 1.846980 0.000000 0.000000 
#    y 0.000000 1.839580 0.000000 
#    z 0.000000 0.000000 1.762750 
# 
# From -- ./inp_files/62357.got.cif
#   From: 2010.05.17/outbox.cif.g08.bks.cpg/sg74_32_cif.got.tgz:62357.got - 2010.06.03 17:57:02.
