data_PCOD9535068
_publ_section_title
;
Structure prediction by ZEFSAII (Michael W. Deem and Ramdas Pophale) SiO2 
 PCOD9535068
Probable space group: I M M A
;
_chemical_formula_sum "Si O2"
_cell_formula_units_Z 80
_cell_length_a 11.592527
_cell_length_b 14.600308
_cell_length_c 20.069836
_cell_angle_alpha 90.000000
_cell_angle_beta 90.000000
_cell_angle_gamma 90.000000
_cell_volume 3396.909349
_symmetry_space_group_name_H-M "I M M A"
_symmetry_group_IT_number 74
_symmetry_cell_setting 'orthorhombic'
loop_
_space_group_symop_operation_xyz
x,y,z
-x,1/2-y,z
x,-y,-z
-x,1/2+y,-z
-x,-y,-z
x,1/2+y,-z
-x,y,z
x,1/2-y,z
1/2+x,1/2+y,1/2+z
1/2-x,-y,1/2+z
1/2+x,1/2-y,1/2-z
1/2-x,y,1/2-z
1/2-x,1/2-y,1/2-z
1/2+x,y,1/2-z
1/2-x,1/2+y,1/2+z
1/2+x,-y,1/2+z
loop_
_atom_site_type_symbol
_atom_site_label
_atom_site_fract_x
_atom_site_fract_y
_atom_site_fract_z
Si Si1 0.232938 0.137889 0.174609
Si Si2 0.756280 0.360422 0.921717
Si Si3 0.000000 0.093834 0.959991
Si Si4 0.000000 0.146259 0.107633
Si Si5 0.631806 0.861580 0.210981
Si Si6 0.627429 0.638187 0.948475
O O1 0.232842 0.250000 0.175497
O O2 0.250000 0.107294 0.250000
O O3 0.334036 0.109872 0.124749
O O4 0.115711 0.105216 0.138939
O O5 0.760988 0.250000 0.920940
O O6 0.665350 0.386041 0.865081
O O7 0.887167 0.392997 0.915688
O O8 0.714649 0.391060 0.994384
O O9 0.000000 0.154729 0.027564
O O10 0.000000 0.000000 0.000000
O O11 0.000000 0.250000 0.133524
O O12 0.500000 0.893112 0.227973
O O13 0.627864 0.750000 0.216572
O O14 0.750000 0.889177 0.250000
O O15 0.500000 0.607401 0.964846
O O16 0.628402 0.750000 0.949334
#
# Coordination Sequence:
#
# PCOD9535068 Si02
#       6
#    16  16   8   8  16  16
#     4   9  17  26  42  72 106 134 164 211 263 314
#     4  10  19  34  56  80 109 145 184 225 284 344
#     4  12  24  36  54  80 108 143 192 246 287 326
#     4  10  18  34  54  76 106 137 175 218 270 329
#     4   9  18  31  52  88 126 150 179 232 292 348
#     4   9  16  26  44  72 104 134 168 212 263 323
#
# _framework density 23.550820999999999
#
# number of rings (size 3 to 8) (size 9 to 14) (size 15 to 20)
#    0.000    2.400    2.000    1.500    2.800    2.400 
#    0.000    0.000    0.000    3.600    0.000    0.000 
#    0.000    0.000    0.000    0.000    0.000    0.000 
#
# Total GULP energy -223289.447378 kJ/mol
# GULP energy per Si atom -5582.236184 kJ/mol
# Density = 2.349722 g / cm^3
# Si number density = 23.550821 Si / 1000 Ang^3
#
#
#
# Elastic Constant Matrix: (Units=GPa)
#
#
# Indices 1 2 3 4 5 6 
#
# 1 174.2901 10.4040 36.8538 0.0000 0.0000 0.0000
# 2 10.4040 70.5734 6.7827 0.0000 0.0000 0.0000
# 3 36.8538 6.7827 85.4419 0.0000 0.0000 0.0000
# 4 0.0000 0.0000 0.0000 -4.3213 0.0000 0.0000
# 5 0.0000 0.0000 0.0000 0.0000 35.2023 0.0000
# 6 0.0000 0.0000 0.0000 0.0000 0.0000 -39.1029
#
#
#
# Elastic Compliance Matrix: (Units=1/GPa)
#
#
# Indices 1 2 3 4 5 6 
#
# 1 0.006345 -0.000678 -0.002683 0.000000 0.000000 0.000000
# 2 -0.000678 0.014351 -0.000847 0.000000 0.000000 0.000000
# 3 -0.002683 -0.000847 0.012928 0.000000 0.000000 0.000000
# 4 0.000000 0.000000 0.000000 -0.231410 0.000000 0.000000
# 5 0.000000 0.000000 0.000000 0.000000 0.028407 0.000000
# 6 0.000000 0.000000 0.000000 0.000000 0.000000 -0.025574
#
#
# Mechanical properties :
#
#
# Convention : Reuss Voigt Hill
#
# Bulk Modulus (GPa) = 39.66787 48.70960 44.18873
# Shear Modulus (GPa) = -28.06889 16.77328 -5.64780
#
# Velocity S-wave (km/s) = -3.45605 2.67163 -1.55027
# Velocity P-wave (km/s) = 0.97690 5.49950 3.94961
#
# Compressibility (1/GPa) = 0.02520932
#
# Stress axis : x y z
#
# Youngs Moduli (GPa) = 157.59534 69.68184 77.34884
#
# Poissons Ratio (x) = 0.04721 0.20754
# Poissons Ratio (y) = 0.10678 0.06551
# Poissons Ratio (z) = 0.42286 0.05902
#
# Static dielectric constant tensor:
#      x y z
#    x 1.919880 0.000000 0.000000 
#    y 0.000000 1.670620 0.000000 
#    z 0.000000 0.000000 1.864600 
# 
# From -- ./inp_files/50443.got.cif
#   From: 2010.05.17/outbox.cif.g08.bks.cpg/sg74_26_cif.got.tgz:50443.got - 2010.06.03 17:57:02.
