data_PCOD9535626
_publ_section_title
;
Structure prediction by ZEFSAII (Michael W. Deem and Ramdas Pophale) SiO2 
 PCOD9535626
Probable space group: I M M A
;
_chemical_formula_sum "Si O2"
_cell_formula_units_Z 104
_cell_length_a 8.858667
_cell_length_b 22.475535
_cell_length_c 30.686551
_cell_angle_alpha 90.000000
_cell_angle_beta 90.000000
_cell_angle_gamma 90.000000
_cell_volume 6109.792962
_symmetry_space_group_name_H-M "I M M A"
_symmetry_group_IT_number 74
_symmetry_cell_setting 'orthorhombic'
loop_
_space_group_symop_operation_xyz
x,y,z
-x,1/2-y,z
x,-y,-z
-x,1/2+y,-z
-x,-y,-z
x,1/2+y,-z
-x,y,z
x,1/2-y,z
1/2+x,1/2+y,1/2+z
1/2-x,-y,1/2+z
1/2+x,1/2-y,1/2-z
1/2-x,y,1/2-z
1/2-x,1/2-y,1/2-z
1/2+x,y,1/2-z
1/2-x,1/2+y,1/2+z
1/2+x,-y,1/2+z
loop_
_atom_site_type_symbol
_atom_site_label
_atom_site_fract_x
_atom_site_fract_y
_atom_site_fract_z
Si Si1 0.820591 0.640052 0.148154
Si Si2 0.320554 0.602654 0.796715
Si Si3 0.823838 0.821761 0.439901
Si Si4 0.817445 0.180588 0.126602
Si Si5 0.174404 0.822278 0.970274
Si Si6 0.319782 0.462207 0.796978
Si Si7 0.181335 0.750000 0.298392
O O1 0.774386 0.649305 0.098055
O O2 0.758317 0.578337 0.166962
O O3 0.740407 0.692401 0.175661
O O4 0.000000 0.644327 0.153534
O O5 0.500000 0.611000 0.794979
O O6 0.250000 0.619094 0.750000
O O7 0.250847 0.641061 0.835418
O O8 0.290539 0.532337 0.803778
O O9 0.804593 0.750000 0.436941
O O10 0.771558 0.840501 0.488136
O O11 0.000000 0.834765 0.432936
O O12 0.774003 0.250000 0.131889
O O13 0.771645 0.159712 0.077907
O O14 0.000000 0.178166 0.127804
O O15 0.174534 0.750000 0.969284
O O16 0.000000 0.840774 0.976154
O O17 0.500000 0.452514 0.796462
O O18 0.250000 0.445800 0.750000
O O19 0.250000 0.750000 0.250000
O O20 0.000000 0.750000 0.296815
#
# Coordination Sequence:
#
# PCOD9535626 Si02
#       7
#    16  16  16  16  16  16   8
#     4  12  23  35  53  76 102 136 175 217 265 314
#     4  10  21  36  56  79 105 139 176 216 258 307
#     4  10  19  31  49  74 105 138 172 215 263 309
#     4   9  18  33  54  81 112 143 173 210 258 309
#     4   8  15  29  49  73 103 138 173 209 252 308
#     4  10  21  38  56  75 100 133 176 219 261 311
#     4  12  24  38  52  72 104 138 172 216 269 318
#
# _framework density 17.021853
#
# number of rings (size 3 to 8) (size 9 to 14) (size 15 to 20)
#    0.000    2.000    0.769    4.846    0.000    3.692 
#    0.000    1.538    0.000    0.923    0.000    6.462 
#    0.000    0.000    0.000    0.000    0.000    0.000 
#
# Total GULP energy -290265.067698 kJ/mol
# GULP energy per Si atom -5582.020533 kJ/mol
# Density = 1.698311 g / cm^3
# Si number density = 17.021853 Si / 1000 Ang^3
#
#
#
# Elastic Constant Matrix: (Units=GPa)
#
#
# Indices 1 2 3 4 5 6 
#
# 1 94.9767 40.4166 64.0306 0.0000 0.0000 0.0000
# 2 40.4166 42.7120 54.8923 0.0000 0.0000 0.0000
# 3 64.0306 54.8923 150.6711 0.0000 0.0000 0.0000
# 4 0.0000 0.0000 0.0000 -5.6993 0.0000 0.0000
# 5 0.0000 0.0000 0.0000 0.0000 34.8710 0.0000
# 6 0.0000 0.0000 0.0000 0.0000 0.0000 23.5590
#
#
#
# Elastic Compliance Matrix: (Units=1/GPa)
#
#
# Indices 1 2 3 4 5 6 
#
# 1 0.018212 -0.013702 -0.002748 0.000000 0.000000 0.000000
# 2 -0.013702 0.054335 -0.013972 0.000000 0.000000 0.000000
# 3 -0.002748 -0.013972 0.012895 0.000000 0.000000 0.000000
# 4 0.000000 0.000000 0.000000 -0.175461 0.000000 0.000000
# 5 0.000000 0.000000 0.000000 0.000000 0.028677 0.000000
# 6 0.000000 0.000000 0.000000 0.000000 0.000000 0.042447
#
#
# Mechanical properties :
#
#
# Convention : Reuss Voigt Hill
#
# Bulk Modulus (GPa) = 40.65351 67.44875 54.05113
# Shear Modulus (GPa) = 99.70132 19.14748 59.42440
#
# Velocity S-wave (km/s) = 7.66157 3.35756 5.91493
# Velocity P-wave (km/s) = 10.10946 7.39877 8.85841
#
# Compressibility (1/GPa) = 0.02459812
#
# Stress axis : x y z
#
# Youngs Moduli (GPa) = 54.90828 18.40418 77.54932
#
# Poissons Ratio (x) = 0.25218 0.21308
# Poissons Ratio (y) = 0.75237 1.08355
# Poissons Ratio (z) = 0.15087 0.25715
#
# Static dielectric constant tensor:
#      x y z
#    x 1.568370 0.000000 0.000000 
#    y 0.000000 1.558090 0.000000 
#    z 0.000000 0.000000 1.570940 
# 
# From -- ./inp_files/70541.got.cif
#   From: 2010.05.17/outbox.cif.g08.bks.cpg/sg74_36_cif.got.tgz:70541.got - 2010.06.03 17:57:02.
