data_PCOD9535334
_publ_section_title
;
Structure prediction by ZEFSAII (Michael W. Deem and Ramdas Pophale) SiO2 
 PCOD9535334
Probable space group: I M M A
;
_chemical_formula_sum "Si O2"
_cell_formula_units_Z 96
_cell_length_a 8.952600
_cell_length_b 29.145419
_cell_length_c 27.216636
_cell_angle_alpha 90.000000
_cell_angle_beta 90.000000
_cell_angle_gamma 90.000000
_cell_volume 7101.562752
_symmetry_space_group_name_H-M "I M M A"
_symmetry_group_IT_number 74
_symmetry_cell_setting 'orthorhombic'
loop_
_space_group_symop_operation_xyz
x,y,z
-x,1/2-y,z
x,-y,-z
-x,1/2+y,-z
-x,-y,-z
x,1/2+y,-z
-x,y,z
x,1/2-y,z
1/2+x,1/2+y,1/2+z
1/2-x,-y,1/2+z
1/2+x,1/2-y,1/2-z
1/2-x,y,1/2-z
1/2-x,1/2-y,1/2-z
1/2+x,y,1/2-z
1/2-x,1/2+y,1/2+z
1/2+x,-y,1/2+z
loop_
_atom_site_type_symbol
_atom_site_label
_atom_site_fract_x
_atom_site_fract_y
_atom_site_fract_z
Si Si1 0.821571 0.302579 0.348393
Si Si2 0.678359 0.390224 0.300829
Si Si3 0.677176 0.609680 0.991564
Si Si4 0.179700 0.556053 0.899938
Si Si5 0.327781 0.532565 0.451467
Si Si6 0.823015 0.197253 0.043532
O O1 0.791559 0.250000 0.332704
O O2 0.745792 0.340615 0.314626
O O3 0.754680 0.307789 0.403197
O O4 0.000000 0.309259 0.349858
O O5 0.500000 0.386833 0.296376
O O6 0.750000 0.406109 0.250000
O O7 0.712896 0.423660 0.346615
O O8 0.500000 0.613174 0.989719
O O9 0.737955 0.585747 0.941538
O O10 0.752285 0.659563 0.991975
O O11 0.729188 0.576356 0.035527
O O12 0.218568 0.502602 0.908611
O O13 0.000000 0.560023 0.908433
O O14 0.323573 0.500000 0.500000
O O15 0.500000 0.546625 0.444444
O O16 0.800944 0.250000 0.027755
O O17 0.000000 0.189037 0.049263
#
# Coordination Sequence:
#
# PCOD9535334 Si02
#       6
#    16  16  16  16  16  16
#     4  10  20  33  47  62  78  98 130 173 218 257
#     4  11  22  34  48  62  79 104 136 171 213 255
#     4  11  19  26  42  65  86 105 129 164 204 242
#     4   9  18  32  46  59  78 106 134 165 203 247
#     4   8  15  28  44  60  80 104 131 160 196 241
#     4  10  19  30  44  60  80 109 140 167 201 245
#
# _framework density 13.518152000000001
#
# number of rings (size 3 to 8) (size 9 to 14) (size 15 to 20)
#    0.000    2.167    1.667    4.000    0.000    6.000 
#    0.000    0.000    0.000    0.000    0.000    0.000 
#    0.000    0.000    0.000    0.000    0.000    0.833 
#
# Total GULP energy -267658.597132 kJ/mol
# GULP energy per Si atom -5576.220774 kJ/mol
# Density = 1.348738 g / cm^3
# Si number density = 13.518152 Si / 1000 Ang^3
#
#
#
# Elastic Constant Matrix: (Units=GPa)
#
#
# Indices 1 2 3 4 5 6 
#
# 1 64.9539 46.3738 32.2697 0.0000 0.0000 0.0000
# 2 46.3738 77.9934 45.8229 0.0000 0.0000 0.0000
# 3 32.2697 45.8229 51.3908 0.0000 0.0000 0.0000
# 4 0.0000 0.0000 0.0000 17.7268 0.0000 0.0000
# 5 0.0000 0.0000 0.0000 0.0000 15.2130 0.0000
# 6 0.0000 0.0000 0.0000 0.0000 0.0000 15.2944
#
#
#
# Elastic Compliance Matrix: (Units=1/GPa)
#
#
# Indices 1 2 3 4 5 6 
#
# 1 0.027511 -0.013039 -0.005649 0.000000 0.000000 0.000000
# 2 -0.013039 0.033108 -0.021334 0.000000 0.000000 0.000000
# 3 -0.005649 -0.021334 0.042028 0.000000 0.000000 0.000000
# 4 0.000000 0.000000 0.000000 0.056412 0.000000 0.000000
# 5 0.000000 0.000000 0.000000 0.000000 0.065733 0.000000
# 6 0.000000 0.000000 0.000000 0.000000 0.000000 0.065383
#
#
# Mechanical properties :
#
#
# Convention : Reuss Voigt Hill
#
# Bulk Modulus (GPa) = 44.23863 49.25232 46.74548
# Shear Modulus (GPa) = 13.23614 14.30496 13.77055
#
# Velocity S-wave (km/s) = 3.13251 3.25653 3.19513
# Velocity P-wave (km/s) = 6.77347 7.11711 6.94742
#
# Compressibility (1/GPa) = 0.02260468
#
# Stress axis : x y z
#
# Youngs Moduli (GPa) = 36.34911 30.20380 23.79363
#
# Poissons Ratio (x) = 0.39382 0.13440
# Poissons Ratio (y) = 0.47395 0.50761
# Poissons Ratio (z) = 0.20533 0.64436
#
# Static dielectric constant tensor:
#      x y z
#    x 1.448570 0.000000 0.000000 
#    y 0.000000 1.466270 0.000000 
#    z 0.000000 0.000000 1.427330 
# 
# From -- ./inp_files/64905.got.cif
#   From: 2010.05.17/outbox.cif.g08.bks.cpg/sg74_33_cif.got.tgz:64905.got - 2010.06.03 17:57:02.
