data_PCOD9535127
_publ_section_title
;
Structure prediction by ZEFSAII (Michael W. Deem and Ramdas Pophale) SiO2 
 PCOD9535127
Probable space group: I M M A
;
_chemical_formula_sum "Si O2"
_cell_formula_units_Z 96
_cell_length_a 17.122134
_cell_length_b 19.846239
_cell_length_c 14.986811
_cell_angle_alpha 90.000000
_cell_angle_beta 90.000000
_cell_angle_gamma 90.000000
_cell_volume 5092.667700
_symmetry_space_group_name_H-M "I M M A"
_symmetry_group_IT_number 74
_symmetry_cell_setting 'orthorhombic'
loop_
_space_group_symop_operation_xyz
x,y,z
-x,1/2-y,z
x,-y,-z
-x,1/2+y,-z
-x,-y,-z
x,1/2+y,-z
-x,y,z
x,1/2-y,z
1/2+x,1/2+y,1/2+z
1/2-x,-y,1/2+z
1/2+x,1/2-y,1/2-z
1/2-x,y,1/2-z
1/2-x,1/2-y,1/2-z
1/2+x,y,1/2-z
1/2-x,1/2+y,1/2+z
1/2+x,-y,1/2+z
loop_
_atom_site_type_symbol
_atom_site_label
_atom_site_fract_x
_atom_site_fract_y
_atom_site_fract_z
Si Si1 0.620479 0.000000 0.000000
Si Si2 0.093690 0.250000 0.227879
Si Si3 0.334538 0.250000 0.076324
Si Si4 0.168621 0.892909 0.806142
Si Si5 0.411012 0.750000 0.104107
Si Si6 0.248012 0.613945 0.519995
Si Si7 0.087039 0.014518 0.702202
Si Si8 0.797470 0.634318 0.330527
O O1 0.675028 0.935943 0.983167
O O2 0.579592 0.006581 0.905086
O O3 0.126325 0.250000 0.328367
O O4 0.127781 0.180230 0.188957
O O5 0.000000 0.250000 0.224168
O O6 0.281238 0.315079 0.059203
O O7 0.402157 0.250000 0.002415
O O8 0.250000 0.888282 0.750000
O O9 0.190188 0.913364 0.908073
O O10 0.115465 0.947199 0.753528
O O11 0.500000 0.750000 0.132837
O O12 0.364409 0.815473 0.136166
O O13 0.261391 0.621901 0.413932
O O14 0.000000 0.034580 0.734747
O O15 0.157731 0.068471 0.707079
O O16 0.750000 0.665466 0.250000
#
# Coordination Sequence:
#
# PCOD9535127 Si02
#       8
#     8   8   8  16   8  16  16  16
#     4  10  19  34  54  84 113 150 188 234 293 340
#     4  12  23  34  56  85 122 158 188 229 283 347
#     4  10  18  35  53  87 119 150 180 225 287 354
#     4  12  21  37  57  83 118 157 194 228 280 348
#     4  10  20  36  60  87 120 145 180 242 306 355
#     4  10  21  34  59  84 111 149 194 234 283 335
#     4  11  22  35  55  84 120 152 189 240 294 345
#     4  10  22  39  61  85 111 150 199 243 291 343
#
# _framework density 18.850631
#
# number of rings (size 3 to 8) (size 9 to 14) (size 15 to 20)
#    0.000    1.333    3.333    3.000    2.333    0.000 
#    0.000    5.000    0.000    6.000    0.000    0.000 
#    0.000    0.000    0.000    0.000    0.000    0.000 
#
# Total GULP energy -267560.721565 kJ/mol
# GULP energy per Si atom -5574.181699 kJ/mol
# Density = 1.880773 g / cm^3
# Si number density = 18.850631 Si / 1000 Ang^3
#
#
#
# Elastic Constant Matrix: (Units=GPa)
#
#
# Indices 1 2 3 4 5 6 
#
# 1 59.3872 9.3017 43.4575 0.0000 0.0000 0.0000
# 2 9.3017 85.7647 14.9899 0.0000 0.0000 0.0000
# 3 43.4575 14.9899 104.1504 0.0000 0.0000 0.0000
# 4 0.0000 0.0000 0.0000 0.5079 0.0000 0.0000
# 5 0.0000 0.0000 0.0000 0.0000 -20.4650 0.0000
# 6 0.0000 0.0000 0.0000 0.0000 0.0000 33.7360
#
#
#
# Elastic Compliance Matrix: (Units=1/GPa)
#
#
# Indices 1 2 3 4 5 6 
#
# 1 0.024305 -0.000886 -0.010014 0.000000 0.000000 0.000000
# 2 -0.000886 0.011993 -0.001356 0.000000 0.000000 0.000000
# 3 -0.010014 -0.001356 0.013975 0.000000 0.000000 0.000000
# 4 0.000000 0.000000 0.000000 1.968968 0.000000 0.000000
# 5 0.000000 0.000000 0.000000 0.000000 -0.048864 0.000000
# 6 0.000000 0.000000 0.000000 0.000000 0.000000 0.029642
#
#
# Mechanical properties :
#
#
# Convention : Reuss Voigt Hill
#
# Bulk Modulus (GPa) = 38.81876 42.75560 40.78718
# Shear Modulus (GPa) = 2.45928 14.85932 8.65930
#
# Velocity S-wave (km/s) = 1.14344 2.81065 2.14560
# Velocity P-wave (km/s) = 4.73083 5.76745 5.27467
#
# Compressibility (1/GPa) = 0.02576074
#
# Stress axis : x y z
#
# Youngs Moduli (GPa) = 41.14321 83.38221 71.55543
#
# Poissons Ratio (x) = 0.07386 0.71656
# Poissons Ratio (y) = 0.03644 0.09706
# Poissons Ratio (z) = 0.41201 0.11311
#
# Static dielectric constant tensor:
#      x y z
#    x 1.648780 0.000000 0.000000 
#    y 0.000000 1.676850 0.000000 
#    z 0.000000 0.000000 1.694730 
# 
# From -- ./inp_files/32487.got.cif
#   From: 2010.05.17/outbox.cif.g08.bks.cpg/sg74_17_cif.got.tgz:32487.got - 2010.06.03 17:57:02.
