data_PCOD9535805
_publ_section_title
;
Structure prediction by ZEFSAII (Michael W. Deem and Ramdas Pophale) SiO2 
 PCOD9535805
Probable space group: I M M A
;
_chemical_formula_sum "Si O2"
_cell_formula_units_Z 88
_cell_length_a 8.576713
_cell_length_b 19.144754
_cell_length_c 29.537899
_cell_angle_alpha 90.000000
_cell_angle_beta 90.000000
_cell_angle_gamma 90.000000
_cell_volume 4850.095265
_symmetry_space_group_name_H-M "I M M A"
_symmetry_group_IT_number 74
_symmetry_cell_setting 'orthorhombic'
loop_
_space_group_symop_operation_xyz
x,y,z
-x,1/2-y,z
x,-y,-z
-x,1/2+y,-z
-x,-y,-z
x,1/2+y,-z
-x,y,z
x,1/2-y,z
1/2+x,1/2+y,1/2+z
1/2-x,-y,1/2+z
1/2+x,1/2-y,1/2-z
1/2-x,y,1/2-z
1/2-x,1/2-y,1/2-z
1/2+x,y,1/2-z
1/2-x,1/2+y,1/2+z
1/2+x,-y,1/2+z
loop_
_atom_site_type_symbol
_atom_site_label
_atom_site_fract_x
_atom_site_fract_y
_atom_site_fract_z
Si Si1 0.318115 0.040048 0.547792
Si Si2 0.187149 0.670517 0.995613
Si Si3 0.311661 0.750000 0.301571
Si Si4 0.188161 0.671142 0.605529
Si Si5 0.183818 0.024923 0.363609
Si Si6 0.186502 0.596837 0.198941
O O1 0.500000 0.041344 0.562777
O O2 0.262976 0.117210 0.534311
O O3 0.218345 0.003777 0.586134
O O4 0.312844 0.000000 0.500000
O O5 0.220588 0.750000 0.008071
O O6 0.260246 0.657701 0.946320
O O7 0.000000 0.661761 0.990544
O O8 0.500000 0.750000 0.301437
O O9 0.250000 0.750000 0.250000
O O10 0.263024 0.673685 0.320384
O O11 0.242175 0.750000 0.617590
O O12 0.242516 0.605492 0.635667
O O13 0.000000 0.671380 0.606700
O O14 0.258851 0.969298 0.329836
O O15 0.000000 0.026276 0.354833
O O16 0.250000 0.591762 0.250000
O O17 0.000000 0.596677 0.200286
#
# Coordination Sequence:
#
# PCOD9535805 Si02
#       6
#    16  16   8  16  16  16
#     4  10  19  32  49  71 102 137 173 215 261 306
#     4   9  17  30  48  68  93 131 176 217 256 301
#     4   8  16  32  56  82 104 134 168 204 248 298
#     4   9  18  32  50  72  99 133 173 216 258 304
#     4  11  22  34  52  78 106 137 174 213 260 311
#     4  10  20  37  60  83 108 135 169 210 254 303
#
# _framework density 18.143975000000001
#
# number of rings (size 3 to 8) (size 9 to 14) (size 15 to 20)
#    0.000    2.364    1.818    1.091    0.000    2.545 
#    1.636    0.000    0.000    0.545    0.000    0.000 
#    0.000    0.000    0.000    0.000    0.000    0.000 
#
# Total GULP energy -245155.538810 kJ/mol
# GULP energy per Si atom -5571.716791 kJ/mol
# Density = 1.810268 g / cm^3
# Si number density = 18.143975 Si / 1000 Ang^3
#
#
#
# Elastic Constant Matrix: (Units=GPa)
#
#
# Indices 1 2 3 4 5 6 
#
# 1 16.6810 27.5177 8.9252 0.0000 0.0000 0.0000
# 2 27.5177 182.4621 49.7987 0.0000 0.0000 0.0000
# 3 8.9252 49.7987 38.4591 0.0000 0.0000 0.0000
# 4 0.0000 0.0000 0.0000 27.7472 0.0000 0.0000
# 5 0.0000 0.0000 0.0000 0.0000 24.5788 0.0000
# 6 0.0000 0.0000 0.0000 0.0000 0.0000 22.0437
#
#
#
# Elastic Compliance Matrix: (Units=1/GPa)
#
#
# Indices 1 2 3 4 5 6 
#
# 1 0.080318 -0.010866 -0.004570 0.000000 0.000000 0.000000
# 2 -0.010866 0.009946 -0.010357 0.000000 0.000000 0.000000
# 3 -0.004570 -0.010357 0.040473 0.000000 0.000000 0.000000
# 4 0.000000 0.000000 0.000000 0.036040 0.000000 0.000000
# 5 0.000000 0.000000 0.000000 0.000000 0.040685 0.000000
# 6 0.000000 0.000000 0.000000 0.000000 0.000000 0.045364
#
#
# Mechanical properties :
#
#
# Convention : Reuss Voigt Hill
#
# Bulk Modulus (GPa) = 12.63395 45.56505 29.09950
# Shear Modulus (GPa) = 15.11505 24.96462 20.03984
#
# Velocity S-wave (km/s) = 2.88941 3.71336 3.32699
# Velocity P-wave (km/s) = 4.25557 6.59947 5.55261
#
# Compressibility (1/GPa) = 0.07915179
#
# Stress axis : x y z
#
# Youngs Moduli (GPa) = 12.45047 100.54323 24.70790
#
# Poissons Ratio (x) = 1.09248 0.11291
# Poissons Ratio (y) = 0.13528 0.25590
# Poissons Ratio (z) = 0.05690 1.04132
#
# Static dielectric constant tensor:
#      x y z
#    x 1.625010 0.000000 0.000000 
#    y 0.000000 1.714780 0.000000 
#    z 0.000000 0.000000 1.549440 
# 
# From -- ./inp_files/70226.got.cif
#   From: 2010.05.17/outbox.cif.g08.bks.cpg/sg74_36_cif.got.tgz:70226.got - 2010.06.03 17:57:02.
