data_PCOD9535801
_publ_section_title
;
Structure prediction by ZEFSAII (Michael W. Deem and Ramdas Pophale) SiO2 
 PCOD9535801
Probable space group: I M M A
;
_chemical_formula_sum "Si O2"
_cell_formula_units_Z 88
_cell_length_a 25.177582
_cell_length_b 9.513906
_cell_length_c 24.413720
_cell_angle_alpha 90.000000
_cell_angle_beta 90.000000
_cell_angle_gamma 90.000000
_cell_volume 5847.992872
_symmetry_space_group_name_H-M "I M M A"
_symmetry_group_IT_number 74
_symmetry_cell_setting 'orthorhombic'
loop_
_space_group_symop_operation_xyz
x,y,z
-x,1/2-y,z
x,-y,-z
-x,1/2+y,-z
-x,-y,-z
x,1/2+y,-z
-x,y,z
x,1/2-y,z
1/2+x,1/2+y,1/2+z
1/2-x,-y,1/2+z
1/2+x,1/2-y,1/2-z
1/2-x,y,1/2-z
1/2-x,1/2-y,1/2-z
1/2+x,y,1/2-z
1/2-x,1/2+y,1/2+z
1/2+x,-y,1/2+z
loop_
_atom_site_type_symbol
_atom_site_label
_atom_site_fract_x
_atom_site_fract_y
_atom_site_fract_z
Si Si1 0.241653 0.081715 0.659292
Si Si2 0.500000 0.586581 0.055098
Si Si3 0.162567 0.417079 0.758144
Si Si4 0.938223 0.588691 0.737100
Si Si5 0.796285 0.415110 0.442815
Si Si6 0.913960 0.094269 0.391837
O O1 0.238080 0.250000 0.648713
O O2 0.193576 0.044962 0.701527
O O3 0.295497 0.054854 0.693322
O O4 0.238026 0.993215 0.603861
O O5 0.500000 0.750000 0.046019
O O6 0.448663 0.533727 0.087094
O O7 0.500000 0.500000 0.000000
O O8 0.153864 0.250000 0.755862
O O9 0.106888 0.495173 0.765019
O O10 0.936043 0.750000 0.756713
O O11 0.920451 0.591036 0.673411
O O12 0.000000 0.541910 0.740728
O O13 0.794797 0.500000 0.500000
O O14 0.782416 0.250000 0.450284
O O15 0.855591 0.418516 0.416962
O O16 0.934316 0.250000 0.409273
#
# Coordination Sequence:
#
# PCOD9535801 Si02
#       6
#    16   8  16  16  16  16
#     4   9  18  33  51  72  98 125 157 202 247 291
#     4  12  24  34  46  60  78 114 162 208 249 286
#     4   9  18  32  51  73  97 125 159 200 246 293
#     4  10  19  32  49  69  97 128 160 203 245 283
#     4  11  22  34  50  70  94 127 163 202 245 290
#     4  10  20  35  48  63  90 122 160 203 243 281
#
# _framework density 15.047898
#
# number of rings (size 3 to 8) (size 9 to 14) (size 15 to 20)
#    0.000    2.000    2.727    3.000    0.000    4.727 
#    0.000    1.818    0.000    0.000    0.000    0.000 
#    0.000    0.727    0.000    2.364    0.000    3.455 
#
# Total GULP energy -245203.754460 kJ/mol
# GULP energy per Si atom -5572.812601 kJ/mol
# Density = 1.501365 g / cm^3
# Si number density = 15.047898 Si / 1000 Ang^3
#
#
#
# Elastic Constant Matrix: (Units=GPa)
#
#
# Indices 1 2 3 4 5 6 
#
# 1 99.6062 54.9035 39.9713 0.0000 0.0000 0.0000
# 2 54.9035 93.8072 43.9108 0.0000 0.0000 0.0000
# 3 39.9713 43.9108 60.3253 0.0000 0.0000 0.0000
# 4 0.0000 0.0000 0.0000 24.8287 0.0000 0.0000
# 5 0.0000 0.0000 0.0000 0.0000 20.9026 0.0000
# 6 0.0000 0.0000 0.0000 0.0000 0.0000 23.7841
#
#
#
# Elastic Compliance Matrix: (Units=1/GPa)
#
#
# Indices 1 2 3 4 5 6 
#
# 1 0.016038 -0.006693 -0.005755 0.000000 0.000000 0.000000
# 2 -0.006693 0.018963 -0.009368 0.000000 0.000000 0.000000
# 3 -0.005755 -0.009368 0.027209 0.000000 0.000000 0.000000
# 4 0.000000 0.000000 0.000000 0.040276 0.000000 0.000000
# 5 0.000000 0.000000 0.000000 0.000000 0.047841 0.000000
# 6 0.000000 0.000000 0.000000 0.000000 0.000000 0.042045
#
#
# Mechanical properties :
#
#
# Convention : Reuss Voigt Hill
#
# Bulk Modulus (GPa) = 53.82816 59.03444 56.43130
# Shear Modulus (GPa) = 20.64438 21.56662 21.10550
#
# Velocity S-wave (km/s) = 3.70795 3.78987 3.74913
# Velocity P-wave (km/s) = 7.36076 7.64637 7.50492
#
# Compressibility (1/GPa) = 0.01857764
#
# Stress axis : x y z
#
# Youngs Moduli (GPa) = 62.35123 52.73537 36.75228
#
# Poissons Ratio (x) = 0.35295 0.21151
# Poissons Ratio (y) = 0.41731 0.34430
# Poissons Ratio (z) = 0.35884 0.49404
#
# Static dielectric constant tensor:
#      x y z
#    x 1.503030 0.000000 0.000000 
#    y 0.000000 1.520000 0.000000 
#    z 0.000000 0.000000 1.503940 
# 
# From -- ./inp_files/54526.got.cif
#   From: 2010.05.17/outbox.cif.g08.bks.cpg/sg74_28_cif.got.tgz:54526.got - 2010.06.03 17:57:02.
