data_PCOD9535486
_publ_section_title
;
Structure prediction by ZEFSAII (Michael W. Deem and Ramdas Pophale) SiO2 
 PCOD9535486
Probable space group: I M M A
;
_chemical_formula_sum "Si O2"
_cell_formula_units_Z 88
_cell_length_a 10.552933
_cell_length_b 21.509068
_cell_length_c 23.361015
_cell_angle_alpha 90.000000
_cell_angle_beta 90.000000
_cell_angle_gamma 90.000000
_cell_volume 5302.570870
_symmetry_space_group_name_H-M "I M M A"
_symmetry_group_IT_number 74
_symmetry_cell_setting 'orthorhombic'
loop_
_space_group_symop_operation_xyz
x,y,z
-x,1/2-y,z
x,-y,-z
-x,1/2+y,-z
-x,-y,-z
x,1/2+y,-z
-x,y,z
x,1/2-y,z
1/2+x,1/2+y,1/2+z
1/2-x,-y,1/2+z
1/2+x,1/2-y,1/2-z
1/2-x,y,1/2-z
1/2-x,1/2-y,1/2-z
1/2+x,y,1/2-z
1/2-x,1/2+y,1/2+z
1/2+x,-y,1/2+z
loop_
_atom_site_type_symbol
_atom_site_label
_atom_site_fract_x
_atom_site_fract_y
_atom_site_fract_z
Si Si1 0.851821 0.250000 0.301316
Si Si2 0.144515 0.585240 0.097354
Si Si3 0.643304 0.821877 0.296759
Si Si4 0.643715 0.508905 0.931001
Si Si5 0.645049 0.845238 0.903590
Si Si6 0.356187 0.181565 0.495497
O O1 0.750000 0.250000 0.250000
O O2 0.835497 0.189461 0.342844
O O3 0.000000 0.250000 0.281850
O O4 0.155558 0.631173 0.150922
O O5 0.248656 0.532090 0.098033
O O6 0.000000 0.560803 0.095441
O O7 0.164433 0.627596 0.041241
O O8 0.500000 0.828166 0.273196
O O9 0.656939 0.750000 0.315873
O O10 0.750000 0.834124 0.250000
O O11 0.500000 0.487543 0.918288
O O12 0.653830 0.579925 0.909111
O O13 0.659800 0.500000 0.000000
O O14 0.500000 0.829282 0.921061
O O15 0.751151 0.821401 0.946904
O O16 0.500000 0.174664 0.472548
O O17 0.350101 0.250000 0.523408
#
# Coordination Sequence:
#
# PCOD9535486 Si02
#       6
#     8  16  16  16  16  16
#     4  10  22  40  62  82 106 140 181 230 277 322
#     4  10  20  33  51  77 110 144 178 216 262 315
#     4   9  18  34  54  75 103 139 179 222 264 307
#     4  10  20  34  53  78 110 146 178 212 263 325
#     4  10  20  36  56  79 106 137 174 220 272 321
#     4  10  19  30  49  79 110 139 173 216 264 316
#
# _framework density 16.595723
#
# number of rings (size 3 to 8) (size 9 to 14) (size 15 to 20)
#    0.000    2.182    2.727    0.545    0.000    4.727 
#    0.000    0.909    0.000    7.636    0.000    0.000 
#    0.000    0.000    0.000    0.000    0.000    0.000 
#
# Total GULP energy -245125.855558 kJ/mol
# GULP energy per Si atom -5571.042172 kJ/mol
# Density = 1.655795 g / cm^3
# Si number density = 16.595723 Si / 1000 Ang^3
#
#
#
# Elastic Constant Matrix: (Units=GPa)
#
#
# Indices 1 2 3 4 5 6 
#
# 1 136.7641 74.4414 69.8527 0.0000 0.0000 0.0000
# 2 74.4414 90.4780 35.0566 0.0000 0.0000 0.0000
# 3 69.8527 35.0566 68.5337 0.0000 0.0000 0.0000
# 4 0.0000 0.0000 0.0000 0.3184 0.0000 0.0000
# 5 0.0000 0.0000 0.0000 0.0000 28.7858 0.0000
# 6 0.0000 0.0000 0.0000 0.0000 0.0000 40.3520
#
#
#
# Elastic Compliance Matrix: (Units=1/GPa)
#
#
# Indices 1 2 3 4 5 6 
#
# 1 0.022266 -0.011881 -0.016617 0.000000 0.000000 0.000000
# 2 -0.011881 0.020124 0.001816 0.000000 0.000000 0.000000
# 3 -0.016617 0.001816 0.030599 0.000000 0.000000 0.000000
# 4 0.000000 0.000000 0.000000 3.140546 0.000000 0.000000
# 5 0.000000 0.000000 0.000000 0.000000 0.034739 0.000000
# 6 0.000000 0.000000 0.000000 0.000000 0.000000 0.024782
#
#
# Mechanical properties :
#
#
# Convention : Reuss Voigt Hill
#
# Bulk Modulus (GPa) = 50.95599 72.71970 61.83785
# Shear Modulus (GPa) = 1.50017 21.65293 11.57655
#
# Velocity S-wave (km/s) = 0.95179 3.61602 2.64401
# Velocity P-wave (km/s) = 5.65498 7.83247 6.83105
#
# Compressibility (1/GPa) = 0.01962478
#
# Stress axis : x y z
#
# Youngs Moduli (GPa) = 44.91155 49.69170 32.68034
#
# Poissons Ratio (x) = 0.59039 0.54305
# Poissons Ratio (y) = 0.53360 -0.05934
# Poissons Ratio (z) = 0.74630 -0.09023
#
# Static dielectric constant tensor:
#      x y z
#    x 1.561300 0.000000 0.000000 
#    y 0.000000 1.580270 0.000000 
#    z 0.000000 0.000000 1.526480 
# 
# From -- ./inp_files/48715.got.cif
#   From: 2010.05.17/outbox.cif.g08.bks.cpg/sg74_25_cif.got.tgz:48715.got - 2010.06.03 17:57:02.
