data_PCOD9535569
_publ_section_title
;
Structure prediction by ZEFSAII (Michael W. Deem and Ramdas Pophale) SiO2 
 PCOD9535569
Probable space group: I M M A
;
_chemical_formula_sum "Si O2"
_cell_formula_units_Z 104
_cell_length_a 7.963652
_cell_length_b 26.919990
_cell_length_c 24.218500
_cell_angle_alpha 90.000000
_cell_angle_beta 90.000000
_cell_angle_gamma 90.000000
_cell_volume 5191.996716
_symmetry_space_group_name_H-M "I M M A"
_symmetry_group_IT_number 74
_symmetry_cell_setting 'orthorhombic'
loop_
_space_group_symop_operation_xyz
x,y,z
-x,1/2-y,z
x,-y,-z
-x,1/2+y,-z
-x,-y,-z
x,1/2+y,-z
-x,y,z
x,1/2-y,z
1/2+x,1/2+y,1/2+z
1/2-x,-y,1/2+z
1/2+x,1/2-y,1/2-z
1/2-x,y,1/2-z
1/2-x,1/2-y,1/2-z
1/2+x,y,1/2-z
1/2-x,1/2+y,1/2+z
1/2+x,-y,1/2+z
loop_
_atom_site_type_symbol
_atom_site_label
_atom_site_fract_x
_atom_site_fract_y
_atom_site_fract_z
Si Si1 0.299462 0.352964 0.144645
Si Si2 0.200904 0.546471 0.690939
Si Si3 0.296623 0.750000 0.813573
Si Si4 0.804581 0.497405 0.920786
Si Si5 0.297739 0.900140 0.529956
Si Si6 0.199877 0.306970 0.686758
Si Si7 0.202462 0.384548 0.909959
O O1 0.500000 0.350690 0.150341
O O2 0.242010 0.396268 0.185837
O O3 0.228511 0.299664 0.158689
O O4 0.260583 0.370630 0.083227
O O5 0.250000 0.525537 0.750000
O O6 0.289395 0.520572 0.639888
O O7 0.000000 0.543345 0.683289
O O8 0.500000 0.750000 0.818356
O O9 0.250000 0.750000 0.750000
O O10 0.738271 0.542085 0.960890
O O11 0.733512 0.441993 0.911004
O O12 0.000000 0.490418 0.936051
O O13 0.500000 0.902932 0.530845
O O14 0.249611 0.872136 0.473470
O O15 0.265569 0.250000 0.676514
O O16 0.250000 0.320931 0.750000
O O17 0.245441 0.347159 0.639079
O O18 0.000000 0.304158 0.686321
O O19 0.000000 0.386025 0.906208
#
# Coordination Sequence:
#
# PCOD9535569 Si02
#       7
#    16  16   8  16  16  16  16
#     4   9  19  34  50  71 101 137 176 220 268 314
#     4  10  19  31  48  71 100 136 177 219 266 317
#     4  10  20  34  52  74 100 134 177 224 269 312
#     4   9  18  33  53  77 108 143 178 217 264 315
#     4   9  18  34  55  79 108 142 179 218 261 312
#     4  10  22  41  63  85 110 142 179 222 274 328
#     4  10  20  35  58  86 111 140 177 218 263 316
#
# _framework density 20.030829000000001
#
# number of rings (size 3 to 8) (size 9 to 14) (size 15 to 20)
#    0.000    2.462    0.000    1.846    0.000    5.846 
#    1.385    0.000    0.000    4.615    0.000    0.000 
#    0.000    0.000    0.000    0.000    0.000    0.000 
#
# Total GULP energy -289592.959401 kJ/mol
# GULP energy per Si atom -5569.095373 kJ/mol
# Density = 1.998524 g / cm^3
# Si number density = 20.030829 Si / 1000 Ang^3
#
#
#
# Elastic Constant Matrix: (Units=GPa)
#
#
# Indices 1 2 3 4 5 6 
#
# 1 13.1742 -0.9496 -13.7340 0.0000 0.0000 0.0000
# 2 -0.9496 109.3260 56.2059 0.0000 0.0000 0.0000
# 3 -13.7340 56.2059 116.6623 0.0000 0.0000 0.0000
# 4 0.0000 0.0000 0.0000 27.5679 0.0000 0.0000
# 5 0.0000 0.0000 0.0000 0.0000 23.4483 0.0000
# 6 0.0000 0.0000 0.0000 0.0000 0.0000 18.4155
#
#
#
# Elastic Compliance Matrix: (Units=1/GPa)
#
#
# Indices 1 2 3 4 5 6 
#
# 1 0.089551 -0.006170 0.013515 0.000000 0.000000 0.000000
# 2 -0.006170 0.012584 -0.006789 0.000000 0.000000 0.000000
# 3 0.013515 -0.006789 0.013434 0.000000 0.000000 0.000000
# 4 0.000000 0.000000 0.000000 0.036274 0.000000 0.000000
# 5 0.000000 0.000000 0.000000 0.000000 0.042647 0.000000
# 6 0.000000 0.000000 0.000000 0.000000 0.000000 0.054302
#
#
# Mechanical properties :
#
#
# Convention : Reuss Voigt Hill
#
# Bulk Modulus (GPa) = 8.57048 35.80076 22.18562
# Shear Modulus (GPa) = 17.44755 27.06236 22.25495
#
# Velocity S-wave (km/s) = 2.95453 3.67963 3.33684
# Velocity P-wave (km/s) = 3.99086 5.99704 5.09370
#
# Compressibility (1/GPa) = 0.11667961
#
# Stress axis : x y z
#
# Youngs Moduli (GPa) = 11.16684 79.46803 74.43996
#
# Poissons Ratio (x) = 0.49035 -1.00607
# Poissons Ratio (y) = 0.06890 0.50537
# Poissons Ratio (z) = -0.15092 0.53951
#
# Static dielectric constant tensor:
#      x y z
#    x 1.736080 0.000000 0.000000 
#    y 0.000000 1.756870 0.000000 
#    z 0.000000 0.000000 1.703110 
# 
# From -- ./inp_files/57615.got.cif
#   From: 2010.05.17/outbox.cif.g08.bks.cpg/sg74_29_cif.got.tgz:57615.got - 2010.06.03 17:57:02.
