data_PCOD9535714
_publ_section_title
;
Structure prediction by ZEFSAII (Michael W. Deem and Ramdas Pophale) SiO2 
 PCOD9535714
Probable space group: I M M A
;
_chemical_formula_sum "Si O2"
_cell_formula_units_Z 80
_cell_length_a 8.888646
_cell_length_b 26.225126
_cell_length_c 20.071326
_cell_angle_alpha 90.000000
_cell_angle_beta 90.000000
_cell_angle_gamma 90.000000
_cell_volume 4678.743735
_symmetry_space_group_name_H-M "I M M A"
_symmetry_group_IT_number 74
_symmetry_cell_setting 'orthorhombic'
loop_
_space_group_symop_operation_xyz
x,y,z
-x,1/2-y,z
x,-y,-z
-x,1/2+y,-z
-x,-y,-z
x,1/2+y,-z
-x,y,z
x,1/2-y,z
1/2+x,1/2+y,1/2+z
1/2-x,-y,1/2+z
1/2+x,1/2-y,1/2-z
1/2-x,y,1/2-z
1/2-x,1/2-y,1/2-z
1/2+x,y,1/2-z
1/2-x,1/2+y,1/2+z
1/2+x,-y,1/2+z
loop_
_atom_site_type_symbol
_atom_site_label
_atom_site_fract_x
_atom_site_fract_y
_atom_site_fract_z
Si Si1 0.679687 0.392199 0.929812
Si Si2 0.818823 0.691457 0.321710
Si Si3 0.818753 0.109733 0.076641
Si Si4 0.320250 0.690497 0.822674
Si Si5 0.827258 0.996580 0.080819
O O1 0.500000 0.390565 0.938138
O O2 0.726988 0.348099 0.878678
O O3 0.728255 0.447675 0.902369
O O4 0.756278 0.384921 0.001719
O O5 0.775551 0.750000 0.337632
O O6 0.750000 0.678498 0.250000
O O7 0.000000 0.689691 0.316792
O O8 0.752350 0.153051 0.123667
O O9 0.000000 0.111443 0.074907
O O10 0.775941 0.052829 0.102548
O O11 0.500000 0.683535 0.820395
O O12 0.290076 0.750000 0.839109
O O13 0.250000 0.680679 0.750000
O O14 0.000000 0.988178 0.101994
O O15 0.827817 0.000000 0.000000
#
# Coordination Sequence:
#
# PCOD9535714 Si02
#       5
#    16  16  16  16  16
#     4  10  19  31  51  78 104 132 168 211 257 303
#     4   9  19  35  52  71  98 131 166 205 250 299
#     4  10  20  34  53  77 104 135 171 209 249 297
#     4  10  21  37  56  77 103 135 169 208 255 304
#     4   8  16  31  49  71 101 134 166 205 252 298
#
# _framework density 17.098606
#
# number of rings (size 3 to 8) (size 9 to 14) (size 15 to 20)
#    0.000    2.600    0.000    3.000    0.000    8.000 
#    0.000    3.000    0.000    2.400    0.000    0.000 
#    0.000    0.000    0.000    0.000    0.000    0.000 
#
# Total GULP energy -223007.436946 kJ/mol
# GULP energy per Si atom -5575.185924 kJ/mol
# Density = 1.705969 g / cm^3
# Si number density = 17.098606 Si / 1000 Ang^3
#
#
#
# Elastic Constant Matrix: (Units=GPa)
#
#
# Indices 1 2 3 4 5 6 
#
# 1 55.8436 63.8176 45.8461 0.0000 0.0000 0.0000
# 2 63.8176 152.5569 98.6482 0.0000 0.0000 0.0000
# 3 45.8461 98.6482 90.0725 0.0000 0.0000 0.0000
# 4 0.0000 0.0000 0.0000 -25.8500 0.0000 0.0000
# 5 0.0000 0.0000 0.0000 0.0000 27.9880 0.0000
# 6 0.0000 0.0000 0.0000 0.0000 0.0000 30.6156
#
#
#
# Elastic Compliance Matrix: (Units=1/GPa)
#
#
# Indices 1 2 3 4 5 6 
#
# 1 0.035274 -0.010782 -0.006146 0.000000 0.000000 0.000000
# 2 -0.010782 0.025759 -0.022724 0.000000 0.000000 0.000000
# 3 -0.006146 -0.022724 0.039118 0.000000 0.000000 0.000000
# 4 0.000000 0.000000 0.000000 -0.038685 0.000000 0.000000
# 5 0.000000 0.000000 0.000000 0.000000 0.035730 0.000000
# 6 0.000000 0.000000 0.000000 0.000000 0.000000 0.032663
#
#
# Mechanical properties :
#
#
# Convention : Reuss Voigt Hill
#
# Bulk Modulus (GPa) = 47.96650 79.45522 63.71086
# Shear Modulus (GPa) = 23.13629 12.56146 17.84888
#
# Velocity S-wave (km/s) = 3.68245 2.71338 3.23442
# Velocity P-wave (km/s) = 6.79665 7.50908 7.16173
#
# Compressibility (1/GPa) = 0.02084788
#
# Stress axis : x y z
#
# Youngs Moduli (GPa) = 28.34951 38.82144 25.56386
#
# Poissons Ratio (x) = 0.41855 0.15712
# Poissons Ratio (y) = 0.30565 0.58091
# Poissons Ratio (z) = 0.17424 0.88217
#
# Static dielectric constant tensor:
#      x y z
#    x 1.574080 0.000000 0.000000 
#    y 0.000000 1.598190 0.000000 
#    z 0.000000 0.000000 1.540880 
# 
# From -- ./inp_files/39750.got.cif
#   From: 2010.05.17/outbox.cif.g08.bks.cpg/sg74_20_cif.got.tgz:39750.got - 2010.06.03 17:57:02.
