data_PCOD9535793
_publ_section_title
;
Structure prediction by ZEFSAII (Michael W. Deem and Ramdas Pophale) SiO2 
 PCOD9535793
Probable space group: I M M A
;
_chemical_formula_sum "Si O2"
_cell_formula_units_Z 64
_cell_length_a 11.827039
_cell_length_b 20.240809
_cell_length_c 12.987577
_cell_angle_alpha 90.000000
_cell_angle_beta 90.000000
_cell_angle_gamma 90.000000
_cell_volume 3109.080959
_symmetry_space_group_name_H-M "I M M A"
_symmetry_group_IT_number 74
_symmetry_cell_setting 'orthorhombic'
loop_
_space_group_symop_operation_xyz
x,y,z
-x,1/2-y,z
x,-y,-z
-x,1/2+y,-z
-x,-y,-z
x,1/2+y,-z
-x,y,z
x,1/2-y,z
1/2+x,1/2+y,1/2+z
1/2-x,-y,1/2+z
1/2+x,1/2-y,1/2-z
1/2-x,y,1/2-z
1/2-x,1/2-y,1/2-z
1/2+x,y,1/2-z
1/2-x,1/2+y,1/2+z
1/2+x,-y,1/2+z
loop_
_atom_site_type_symbol
_atom_site_label
_atom_site_fract_x
_atom_site_fract_y
_atom_site_fract_z
Si Si1 0.840309 0.326120 0.906530
Si Si2 0.620606 0.377985 0.821691
Si Si3 0.624966 0.435717 0.426079
Si Si4 0.129790 0.975587 0.618734
O O1 0.867910 0.250000 0.921481
O O2 0.707703 0.338471 0.890482
O O3 0.880704 0.350749 0.794202
O O4 0.876964 0.372670 0.998824
O O5 0.500000 0.370179 0.871372
O O6 0.643026 0.456219 0.817719
O O7 0.626400 0.500000 0.500000
O O8 0.500000 0.437998 0.372042
O O9 0.749256 0.437042 0.371065
O O10 0.000000 0.949089 0.637141
O O11 0.128196 0.000000 0.500000
#
# Coordination Sequence:
#
# PCOD9535793 Si02
#       4
#    16  16  16  16
#     4  11  22  33  47  74 108 139 170 206 252 306
#     4  10  19  32  48  68  99 137 172 207 248 299
#     4  10  19  33  50  68  94 132 174 210 244 291
#     4   9  16  31  51  67  89 128 175 214 243 281
#
# _framework density 20.584861
#
# number of rings (size 3 to 8) (size 9 to 14) (size 15 to 20)
#    0.000    2.000    5.000    2.250    0.000    3.500 
#    0.000    0.000    0.000    0.000    0.000    0.000 
#    0.000    4.000    0.000    8.750    2.000    1.000 
#
# Total GULP energy -178171.333269 kJ/mol
# GULP energy per Si atom -5567.854165 kJ/mol
# Density = 2.053801 g / cm^3
# Si number density = 20.584861 Si / 1000 Ang^3
#
#
#
# Elastic Constant Matrix: (Units=GPa)
#
#
# Indices 1 2 3 4 5 6 
#
# 1 234.3992 42.2454 28.2395 0.0000 0.0285 0.0000
# 2 42.2454 119.1668 29.2646 0.0003 -0.0930 0.0000
# 3 28.2395 29.2646 53.9137 0.0003 -0.0596 0.0001
# 4 0.0000 0.0003 0.0003 33.2201 -0.0802 0.0001
# 5 0.0285 -0.0930 -0.0596 -0.080220508.8032 -0.0217
# 6 0.0000 0.0000 0.0001 0.0001 -0.0217 8.3549
#
#
#
# Elastic Compliance Matrix: (Units=1/GPa)
#
#
# Indices 1 2 3 4 5 6 
#
# 1 0.004704 -0.001226 -0.001798 0.000000 0.000000 0.000000
# 2 -0.001226 0.010002 -0.004787 0.000000 0.000000 0.000000
# 3 -0.001798 -0.004787 0.022088 0.000000 0.000000 0.000000
# 4 0.000000 0.000000 0.000000 0.030102 0.000000 0.000000
# 5 0.000000 0.000000 0.000000 0.000000 0.000049 0.000000
# 6 0.000000 0.000000 0.000000 0.000000 0.000000 0.119690
#
#
# Mechanical properties :
#
#
# Convention : Reuss Voigt Hill
#
# Bulk Modulus (GPa) = 47.23285 67.44208 57.33747
# Shear Modulus (GPa) = 23.88748 4130.59100 2077.23924
#
# Velocity S-wave (km/s) = 3.41022 44.84386 31.80096
# Velocity P-wave (km/s) = 6.20495 52.09731 37.09873
#
# Compressibility (1/GPa) = 0.02117171
#
# Stress axis : x y z
#
# Youngs Moduli (GPa) = 212.59269 99.98265 45.27245
#
# Poissons Ratio (x) = 0.12257 0.08142
# Poissons Ratio (y) = 0.26062 0.21671
# Poissons Ratio (z) = 0.38233 0.47860
#
# Static dielectric constant tensor:
#      x y z
#    x 1.988690 0.000000 0.000000 
#    y 0.000000 1.697470 0.000000 
#    z 0.000000 0.000000 1.724710 
# 
# From -- ./inp_files/40685.got.cif
#   From: 2010.05.17/outbox.cif.g08.bks.cpg/sg74_21_cif.got.tgz:40685.got - 2010.06.03 17:57:02.
