data_PCOD9535448
_publ_section_title
;
Structure prediction by ZEFSAII (Michael W. Deem and Ramdas Pophale) SiO2 
 PCOD9535448
Probable space group: I M M A
;
_chemical_formula_sum "Si O2"
_cell_formula_units_Z 88
_cell_length_a 18.130086
_cell_length_b 7.385280
_cell_length_c 30.238880
_cell_angle_alpha 90.000000
_cell_angle_beta 90.000000
_cell_angle_gamma 90.000000
_cell_volume 4048.857866
_symmetry_space_group_name_H-M "I M M A"
_symmetry_group_IT_number 74
_symmetry_cell_setting 'orthorhombic'
loop_
_space_group_symop_operation_xyz
x,y,z
-x,1/2-y,z
x,-y,-z
-x,1/2+y,-z
-x,-y,-z
x,1/2+y,-z
-x,y,z
x,1/2-y,z
1/2+x,1/2+y,1/2+z
1/2-x,-y,1/2+z
1/2+x,1/2-y,1/2-z
1/2-x,y,1/2-z
1/2-x,1/2-y,1/2-z
1/2+x,y,1/2-z
1/2-x,1/2+y,1/2+z
1/2+x,-y,1/2+z
loop_
_atom_site_type_symbol
_atom_site_label
_atom_site_fract_x
_atom_site_fract_y
_atom_site_fract_z
Si Si1 0.585901 0.028435 0.193005
Si Si2 0.137867 0.528558 0.887454
Si Si3 0.419819 0.035404 0.948031
Si Si4 0.000000 0.533313 0.947206
Si Si5 0.585800 0.031252 0.291474
Si Si6 0.300964 0.045683 0.119715
O O1 0.500000 0.972598 0.185449
O O2 0.584334 0.250000 0.191337
O O3 0.610004 0.973344 0.242582
O O4 0.645929 0.963858 0.157474
O O5 0.134967 0.750000 0.889558
O O6 0.073829 0.467283 0.921375
O O7 0.121831 0.470953 0.836959
O O8 0.222114 0.468490 0.894632
O O9 0.500000 0.969461 0.931892
O O10 0.416584 0.250000 0.940722
O O11 0.353093 0.948589 0.922602
O O12 0.416211 0.000000 0.000000
O O13 0.000000 0.750000 0.942194
O O14 0.000000 0.500000 0.000000
O O15 0.500000 0.984066 0.294460
O O16 0.591245 0.250000 0.291431
O O17 0.284546 0.250000 0.135669
#
# Coordination Sequence:
#
# PCOD9535448 Si02
#       6
#    16  16  16   8  16  16
#     4   8  14  23  39  67 103 137 165 199 246 292
#     4   9  17  29  47  70  98 133 169 207 255 304
#     4  10  21  37  56  75  96 129 168 202 242 296
#     4  10  20  36  54  72  94 126 170 218 263 310
#     4   8  12  22  41  65  97 135 170 206 247 293
#     4  10  19  30  47  76 109 134 161 204 253 302
#
# _framework density 21.734525000000001
#
# number of rings (size 3 to 8) (size 9 to 14) (size 15 to 20)
#    0.000    2.909    0.909    2.182    0.000    3.273 
#    0.000    6.364    0.000    0.000    0.000    3.818 
#    0.000    0.000    0.000    0.000    0.000    0.000 
#
# Total GULP energy -245311.808006 kJ/mol
# GULP energy per Si atom -5575.268364 kJ/mol
# Density = 2.168506 g / cm^3
# Si number density = 21.734525 Si / 1000 Ang^3
#
#
#
# Elastic Constant Matrix: (Units=GPa)
#
#
# Indices 1 2 3 4 5 6 
#
# 1 194.5449 9.4923 114.2757 0.0000 0.0000 0.0000
# 2 9.4923 76.9177 -2.3710 0.0000 0.0000 0.0000
# 3 114.2757 -2.3710 133.9705 0.0000 0.0000 0.0000
# 4 0.0000 0.0000 0.0000 -6.5093 0.0000 0.0000
# 5 0.0000 0.0000 0.0000 0.0000 11.7748 0.0000
# 6 0.0000 0.0000 0.0000 0.0000 0.0000 9.9364
#
#
#
# Elastic Compliance Matrix: (Units=1/GPa)
#
#
# Indices 1 2 3 4 5 6 
#
# 1 0.010488 -0.001571 -0.008974 0.000000 0.000000 0.000000
# 2 -0.001571 0.013243 0.001574 0.000000 0.000000 0.000000
# 3 -0.008974 0.001574 0.015147 0.000000 0.000000 0.000000
# 4 0.000000 0.000000 0.000000 -0.153627 0.000000 0.000000
# 5 0.000000 0.000000 0.000000 0.000000 0.084927 0.000000
# 6 0.000000 0.000000 0.000000 0.000000 0.000000 0.100640
#
#
# Mechanical properties :
#
#
# Convention : Reuss Voigt Hill
#
# Bulk Modulus (GPa) = 47.76199 72.02522 59.89361
# Shear Modulus (GPa) = 52.22493 21.97613 37.10053
#
# Velocity S-wave (km/s) = 4.90721 3.18325 4.13605
# Velocity P-wave (km/s) = 7.35734 6.83530 7.10112
#
# Compressibility (1/GPa) = 0.02093715
#
# Stress axis : x y z
#
# Youngs Moduli (GPa) = 95.34403 75.50980 66.01896
#
# Poissons Ratio (x) = 0.11862 0.59247
# Poissons Ratio (y) = 0.14978 -0.10394
# Poissons Ratio (z) = 0.85564 -0.11888
#
# Static dielectric constant tensor:
#      x y z
#    x 1.776770 0.000000 0.000000 
#    y 0.000000 1.915900 0.000000 
#    z 0.000000 0.000000 1.779820 
# 
# From -- ./inp_files/72978.got.cif
#   From: 2010.05.17/outbox.cif.g08.bks.cpg/sg74_37_cif.got.tgz:72978.got - 2010.06.03 17:57:02.
