data_PCOD9535827
_publ_section_title
;
Structure prediction by ZEFSAII (Michael W. Deem and Ramdas Pophale) SiO2 
 PCOD9535827
Probable space group: I M M A
;
_chemical_formula_sum "Si O2"
_cell_formula_units_Z 80
_cell_length_a 8.825451
_cell_length_b 18.474972
_cell_length_c 28.216805
_cell_angle_alpha 90.000000
_cell_angle_beta 90.000000
_cell_angle_gamma 90.000000
_cell_volume 4600.748930
_symmetry_space_group_name_H-M "I M M A"
_symmetry_group_IT_number 74
_symmetry_cell_setting 'orthorhombic'
loop_
_space_group_symop_operation_xyz
x,y,z
-x,1/2-y,z
x,-y,-z
-x,1/2+y,-z
-x,-y,-z
x,1/2+y,-z
-x,y,z
x,1/2-y,z
1/2+x,1/2+y,1/2+z
1/2-x,-y,1/2+z
1/2+x,1/2-y,1/2-z
1/2-x,y,1/2-z
1/2-x,1/2-y,1/2-z
1/2+x,y,1/2-z
1/2-x,1/2+y,1/2+z
1/2+x,-y,1/2+z
loop_
_atom_site_type_symbol
_atom_site_label
_atom_site_fract_x
_atom_site_fract_y
_atom_site_fract_z
Si Si1 0.318207 0.488168 0.697386
Si Si2 0.821244 0.552862 0.608676
Si Si3 0.328502 0.558649 0.457428
Si Si4 0.817471 0.827352 0.197086
Si Si5 0.683154 0.833914 0.535346
O O1 0.500000 0.492298 0.699736
O O2 0.250000 0.496681 0.750000
O O3 0.254480 0.545323 0.660004
O O4 0.274304 0.406905 0.679005
O O5 0.777308 0.479336 0.580531
O O6 0.754789 0.618036 0.576971
O O7 0.000000 0.560037 0.612676
O O8 0.338533 0.500000 0.500000
O O9 0.500000 0.568404 0.438157
O O10 0.275727 0.630667 0.484437
O O11 0.772066 0.750000 0.174013
O O12 0.750000 0.825744 0.250000
O O13 0.000000 0.827383 0.199575
O O14 0.500000 0.840535 0.538541
O O15 0.724472 0.750000 0.538410
#
# Coordination Sequence:
#
# PCOD9535827 Si02
#       5
#    16  16  16  16  16
#     4  10  19  32  50  71  98 133 175 219 258 299
#     4  11  21  32  49  74 104 137 171 206 248 299
#     4   8  15  30  51  73  97 126 160 198 243 295
#     4   8  14  25  42  63  85 112 149 194 242 287
#     4   9  18  34  56  79 102 130 165 206 254 306
#
# _framework density 17.388473999999999
#
# number of rings (size 3 to 8) (size 9 to 14) (size 15 to 20)
#    0.000    2.800    0.000    3.600    0.000    4.800 
#    0.000    1.000    0.000    6.600    0.000    0.000 
#    0.000    0.000    0.000    0.000    0.000    0.000 
#
# Total GULP energy -222675.105828 kJ/mol
# GULP energy per Si atom -5566.877646 kJ/mol
# Density = 1.734890 g / cm^3
# Si number density = 17.388474 Si / 1000 Ang^3
#
#
#
# Elastic Constant Matrix: (Units=GPa)
#
#
# Indices 1 2 3 4 5 6 
#
# 1 49.8892 34.6132 32.5109 0.0000 0.0000 0.0000
# 2 34.6132 113.2186 46.4972 0.0000 0.0000 0.0000
# 3 32.5109 46.4972 65.6520 0.0000 0.0000 0.0000
# 4 0.0000 0.0000 0.0000 27.5823 0.0000 0.0000
# 5 0.0000 0.0000 0.0000 0.0000 22.4806 0.0000
# 6 0.0000 0.0000 0.0000 0.0000 0.0000 3.8554
#
#
#
# Elastic Compliance Matrix: (Units=1/GPa)
#
#
# Indices 1 2 3 4 5 6 
#
# 1 0.031136 -0.004494 -0.012236 0.000000 0.000000 0.000000
# 2 -0.004494 0.013104 -0.007055 0.000000 0.000000 0.000000
# 3 -0.012236 -0.007055 0.026288 0.000000 0.000000 0.000000
# 4 0.000000 0.000000 0.000000 0.036255 0.000000 0.000000
# 5 0.000000 0.000000 0.000000 0.000000 0.044483 0.000000
# 6 0.000000 0.000000 0.000000 0.000000 0.000000 0.259374
#
#
# Mechanical properties :
#
#
# Convention : Reuss Voigt Hill
#
# Bulk Modulus (GPa) = 43.55837 50.66694 47.11265
# Shear Modulus (GPa) = 10.73279 18.45956 14.59617
#
# Velocity S-wave (km/s) = 2.48712 3.26175 2.90041
# Velocity P-wave (km/s) = 5.77514 6.58687 6.19431
#
# Compressibility (1/GPa) = 0.02295770
#
# Stress axis : x y z
#
# Youngs Moduli (GPa) = 32.11732 76.31367 38.04036
#
# Poissons Ratio (x) = 0.34294 0.46546
# Poissons Ratio (y) = 0.14433 0.26839
# Poissons Ratio (z) = 0.39298 0.53842
#
# Static dielectric constant tensor:
#      x y z
#    x 1.580260 0.000000 0.000000 
#    y 0.000000 1.633660 0.000000 
#    z 0.000000 0.000000 1.597870 
# 
# From -- ./inp_files/63943.got.cif
#   From: 2010.05.17/outbox.cif.g08.bks.cpg/sg74_32_cif.got.tgz:63943.got - 2010.06.03 17:57:02.
