data_PCOD9535552
_publ_section_title
;
Structure prediction by ZEFSAII (Michael W. Deem and Ramdas Pophale) SiO2 
 PCOD9535552
Probable space group: I M M A
;
_chemical_formula_sum "Si O2"
_cell_formula_units_Z 112
_cell_length_a 18.149144
_cell_length_b 18.311056
_cell_length_c 19.502131
_cell_angle_alpha 90.000000
_cell_angle_beta 90.000000
_cell_angle_gamma 90.000000
_cell_volume 6481.143042
_symmetry_space_group_name_H-M "I M M A"
_symmetry_group_IT_number 74
_symmetry_cell_setting 'orthorhombic'
loop_
_space_group_symop_operation_xyz
x,y,z
-x,1/2-y,z
x,-y,-z
-x,1/2+y,-z
-x,-y,-z
x,1/2+y,-z
-x,y,z
x,1/2-y,z
1/2+x,1/2+y,1/2+z
1/2-x,-y,1/2+z
1/2+x,1/2-y,1/2-z
1/2-x,y,1/2-z
1/2-x,1/2-y,1/2-z
1/2+x,y,1/2-z
1/2-x,1/2+y,1/2+z
1/2+x,-y,1/2+z
loop_
_atom_site_type_symbol
_atom_site_label
_atom_site_fract_x
_atom_site_fract_y
_atom_site_fract_z
Si Si1 0.155521 0.032651 0.188876
Si Si2 0.327426 0.667278 0.497828
Si Si3 0.916655 0.449318 0.932290
Si Si4 0.173597 0.977671 0.654383
Si Si5 0.416732 0.429641 0.950095
Si Si6 0.084318 0.334078 0.136903
Si Si7 0.335078 0.162861 0.059569
O O1 0.145282 0.013800 0.268032
O O2 0.238044 0.017993 0.162183
O O3 0.138523 0.118197 0.181923
O O4 0.100481 0.994453 0.135845
O O5 0.326414 0.750000 0.472456
O O6 0.354427 0.611682 0.440975
O O7 0.387137 0.661098 0.558980
O O8 0.248340 0.652065 0.531609
O O9 0.000000 0.420055 0.930853
O O10 0.910361 0.500000 0.000000
O O11 0.155089 0.898112 0.619848
O O12 0.139098 0.041901 0.608129
O O13 0.500000 0.415763 0.924888
O O14 0.419978 0.500000 0.000000
O O15 0.387104 0.363307 0.996837
O O16 0.087369 0.250000 0.157213
O O17 0.000000 0.359210 0.141423
O O18 0.344128 0.250000 0.076280
#
# Coordination Sequence:
#
# PCOD9535552 Si02
#       7
#    16  16  16  16  16  16  16
#     4  11  21  33  51  78 109 146 187 221 259 312
#     4  10  19  32  52  77 106 140 177 219 266 311
#     4  11  20  31  50  75 105 142 185 228 261 304
#     4  10  21  35  54  77 109 147 178 218 270 323
#     4   9  19  36  56  77 102 136 177 226 279 322
#     4  10  19  31  47  71 107 145 176 210 257 309
#     4  10  19  34  58  84 107 137 178 222 265 320
#
# _framework density 17.280902000000001
#
# number of rings (size 3 to 8) (size 9 to 14) (size 15 to 20)
#    0.000    1.857    2.857    1.714    0.000    4.000 
#    0.000    1.429    0.000    0.857    0.000    6.000 
#    0.000    0.000    0.000    0.000    0.000    0.000 
#
# Total GULP energy -312086.888123 kJ/mol
# GULP energy per Si atom -5572.980145 kJ/mol
# Density = 1.724157 g / cm^3
# Si number density = 17.280902 Si / 1000 Ang^3
#
#
#
# Elastic Constant Matrix: (Units=GPa)
#
#
# Indices 1 2 3 4 5 6 
#
# 1 67.2482 7.5902 27.4405 0.0000 0.0000 0.0000
# 2 7.5902 36.4896 22.2437 0.0000 0.0000 0.0000
# 3 27.4405 22.2437 78.8027 0.0000 0.0000 0.0000
# 4 0.0000 0.0000 0.0000 14.2136 0.0000 0.0000
# 5 0.0000 0.0000 0.0000 0.0000 8.7600 0.0000
# 6 0.0000 0.0000 0.0000 0.0000 0.0000 20.8728
#
#
#
# Elastic Compliance Matrix: (Units=1/GPa)
#
#
# Indices 1 2 3 4 5 6 
#
# 1 0.017333 0.000089 -0.006061 0.000000 0.000000 0.000000
# 2 0.000089 0.033101 -0.009375 0.000000 0.000000 0.000000
# 3 -0.006061 -0.009375 0.017447 0.000000 0.000000 0.000000
# 4 0.000000 0.000000 0.000000 0.070355 0.000000 0.000000
# 5 0.000000 0.000000 0.000000 0.000000 0.114155 0.000000
# 6 0.000000 0.000000 0.000000 0.000000 0.000000 0.047909
#
#
# Mechanical properties :
#
#
# Convention : Reuss Voigt Hill
#
# Bulk Modulus (GPa) = 26.89004 33.00993 29.94998
# Shear Modulus (GPa) = 14.56074 17.12036 15.84055
#
# Velocity S-wave (km/s) = 2.90589 3.15097 3.03091
# Velocity P-wave (km/s) = 5.18201 5.69048 5.44219
#
# Compressibility (1/GPa) = 0.03718849
#
# Stress axis : x y z
#
# Youngs Moduli (GPa) = 57.69213 30.21042 57.31767
#
# Poissons Ratio (x) = -0.00269 0.34740
# Poissons Ratio (y) = -0.00515 0.53733
# Poissons Ratio (z) = 0.34967 0.28321
#
# Static dielectric constant tensor:
#      x y z
#    x 1.602820 0.000000 0.000000 
#    y 0.000000 1.614330 0.000000 
#    z 0.000000 0.000000 1.586050 
# 
# From -- ./inp_files/53261.got.cif
#   From: 2010.05.17/outbox.cif.g08.bks.cpg/sg74_27_cif.got.tgz:53261.got - 2010.06.03 17:57:02.
