data_PCOD9535248
_publ_section_title
;
Structure prediction by ZEFSAII (Michael W. Deem and Ramdas Pophale) SiO2 
 PCOD9535248
Probable space group: I M M A
;
_chemical_formula_sum "Si O2"
_cell_formula_units_Z 104
_cell_length_a 25.121915
_cell_length_b 8.759732
_cell_length_c 33.930807
_cell_angle_alpha 90.000000
_cell_angle_beta 90.000000
_cell_angle_gamma 90.000000
_cell_volume 7466.855555
_symmetry_space_group_name_H-M "I M M A"
_symmetry_group_IT_number 74
_symmetry_cell_setting 'orthorhombic'
loop_
_space_group_symop_operation_xyz
x,y,z
-x,1/2-y,z
x,-y,-z
-x,1/2+y,-z
-x,-y,-z
x,1/2+y,-z
-x,y,z
x,1/2-y,z
1/2+x,1/2+y,1/2+z
1/2-x,-y,1/2+z
1/2+x,1/2-y,1/2-z
1/2-x,y,1/2-z
1/2-x,1/2-y,1/2-z
1/2+x,y,1/2-z
1/2-x,1/2+y,1/2+z
1/2+x,-y,1/2+z
loop_
_atom_site_type_symbol
_atom_site_label
_atom_site_fract_x
_atom_site_fract_y
_atom_site_fract_z
Si Si1 0.271354 0.066340 0.312614
Si Si2 0.662362 0.930412 0.381326
Si Si3 0.560160 0.931610 0.660745
Si Si4 0.500000 0.933757 0.544038
Si Si5 0.881817 0.933073 0.956127
Si Si6 0.833996 0.566359 0.732723
Si Si7 0.059210 0.430695 0.752142
O O1 0.274069 0.250000 0.316251
O O2 0.211897 0.025611 0.298532
O O3 0.310153 0.024829 0.275921
O O4 0.291727 0.991463 0.352489
O O5 0.665205 0.750000 0.384762
O O6 0.607323 0.980064 0.360286
O O7 0.659814 0.005037 0.424478
O O8 0.500000 0.965434 0.646288
O O9 0.568909 0.750000 0.656283
O O10 0.561477 0.977758 0.706660
O O11 0.500000 0.750000 0.543676
O O12 0.558440 0.978640 0.559236
O O13 0.500000 0.000000 0.500000
O O14 0.879823 0.750000 0.957935
O O15 0.875225 0.000000 0.000000
O O16 0.840002 0.750000 0.732305
O O17 0.890589 0.487182 0.727284
O O18 0.064125 0.250000 0.760323
O O19 0.000000 0.456889 0.735095
#
# Coordination Sequence:
#
# PCOD9535248 Si02
#       7
#    16  16  16   8  16  16  16
#     4   9  18  32  47  64  83 109 143 179 215 253
#     4  12  23  32  45  66  86 107 138 175 218 265
#     4  10  20  32  44  57  78 109 142 177 218 258
#     4   8  16  30  48  64  78 100 132 166 210 260
#     4  10  20  35  50  64  82 107 137 173 215 261
#     4   9  17  30  48  64  83 111 144 177 213 254
#     4  10  19  29  42  63  89 112 138 174 215 258
#
# _framework density 13.92822
#
# number of rings (size 3 to 8) (size 9 to 14) (size 15 to 20)
#    0.000    2.154    1.538    3.692    1.077    3.077 
#    0.000    1.538    0.000    0.000    0.000    0.000 
#    0.000    0.000    0.000    0.000    0.000    0.769 
#
# Total GULP energy -289987.076184 kJ/mol
# GULP energy per Si atom -5576.674542 kJ/mol
# Density = 1.389652 g / cm^3
# Si number density = 13.928220 Si / 1000 Ang^3
#
#
#
# Elastic Constant Matrix: (Units=GPa)
#
#
# Indices 1 2 3 4 5 6 
#
# 1 87.7189 31.5389 42.3090 0.0000 0.0000 0.0000
# 2 31.5389 44.2630 29.8967 0.0000 0.0000 0.0000
# 3 42.3090 29.8967 73.0101 0.0000 0.0000 0.0000
# 4 0.0000 0.0000 0.0000 17.9995 0.0000 0.0000
# 5 0.0000 0.0000 0.0000 0.0000 23.8372 0.0000
# 6 0.0000 0.0000 0.0000 0.0000 0.0000 19.0371
#
#
#
# Elastic Compliance Matrix: (Units=1/GPa)
#
#
# Indices 1 2 3 4 5 6 
#
# 1 0.017577 -0.007803 -0.006991 0.000000 0.000000 0.000000
# 2 -0.007803 0.034693 -0.009685 0.000000 0.000000 0.000000
# 3 -0.006991 -0.009685 0.021714 0.000000 0.000000 0.000000
# 4 0.000000 0.000000 0.000000 0.055557 0.000000 0.000000
# 5 0.000000 0.000000 0.000000 0.000000 0.041951 0.000000
# 6 0.000000 0.000000 0.000000 0.000000 0.000000 0.052529
#
#
# Mechanical properties :
#
#
# Convention : Reuss Voigt Hill
#
# Bulk Modulus (GPa) = 39.95580 45.83123 42.89351
# Shear Modulus (GPa) = 17.77327 18.92458 18.34893
#
# Velocity S-wave (km/s) = 3.57608 3.69008 3.63353
# Velocity P-wave (km/s) = 6.76759 7.15069 6.96178
#
# Compressibility (1/GPa) = 0.02502766
#
# Stress axis : x y z
#
# Youngs Moduli (GPa) = 56.89145 28.82395 46.05368
#
# Poissons Ratio (x) = 0.22490 0.32196
# Poissons Ratio (y) = 0.44390 0.44603
# Poissons Ratio (z) = 0.39772 0.27916
#
# Static dielectric constant tensor:
#      x y z
#    x 1.476450 0.000000 0.000000 
#    y 0.000000 1.462960 0.000000 
#    z 0.000000 0.000000 1.452900 
# 
# From -- ./inp_files/73650.got.cif
#   From: 2010.05.17/outbox.cif.g08.bks.cpg/sg74_37_cif.got.tgz:73650.got - 2010.06.03 17:57:02.
