data_PCOD9535333
_publ_section_title
;
Structure prediction by ZEFSAII (Michael W. Deem and Ramdas Pophale) SiO2 
 PCOD9535333
Probable space group: I M M A
;
_chemical_formula_sum "Si O2"
_cell_formula_units_Z 120
_cell_length_a 14.469383
_cell_length_b 14.541423
_cell_length_c 24.011094
_cell_angle_alpha 90.000000
_cell_angle_beta 90.000000
_cell_angle_gamma 90.000000
_cell_volume 5052.064288
_symmetry_space_group_name_H-M "I M M A"
_symmetry_group_IT_number 74
_symmetry_cell_setting 'orthorhombic'
loop_
_space_group_symop_operation_xyz
x,y,z
-x,1/2-y,z
x,-y,-z
-x,1/2+y,-z
-x,-y,-z
x,1/2+y,-z
-x,y,z
x,1/2-y,z
1/2+x,1/2+y,1/2+z
1/2-x,-y,1/2+z
1/2+x,1/2-y,1/2-z
1/2-x,y,1/2-z
1/2-x,1/2-y,1/2-z
1/2+x,y,1/2-z
1/2-x,1/2+y,1/2+z
1/2+x,-y,1/2+z
loop_
_atom_site_type_symbol
_atom_site_label
_atom_site_fract_x
_atom_site_fract_y
_atom_site_fract_z
Si Si1 0.361511 0.449097 0.257617
Si Si2 0.359717 0.854182 0.631542
Si Si3 0.706540 0.642877 0.386810
Si Si4 0.096893 0.948595 0.387554
Si Si5 0.344933 0.500000 0.000000
Si Si6 0.858497 0.351794 0.766508
Si Si7 0.311689 0.639920 0.513776
Si Si8 0.137276 0.850255 0.650334
O O1 0.250000 0.455357 0.250000
O O2 0.390106 0.421984 0.319755
O O3 0.395162 0.551882 0.242345
O O4 0.385650 0.367941 0.215299
O O5 0.392565 0.750000 0.640566
O O6 0.377165 0.879908 0.566903
O O7 0.248049 0.851679 0.640569
O O8 0.731840 0.750000 0.390612
O O9 0.802214 0.590908 0.372526
O O10 0.640167 0.634896 0.333699
O O11 0.667159 0.618151 0.448384
O O12 0.000000 0.906146 0.367916
O O13 0.099354 0.945704 0.454265
O O14 0.098218 0.057015 0.375343
O O15 0.277193 0.422790 0.025371
O O16 0.895830 0.250000 0.752523
O O17 0.750000 0.347290 0.750000
O O18 0.294756 0.750000 0.516887
O O19 0.105293 0.750000 0.631577
#
# Coordination Sequence:
#
# PCOD9535333 Si02
#       8
#    16  16  16  16   8  16  16  16
#     4   9  16  25  41  62  81  99 128 162 206 258
#     4   9  15  25  41  59  77 101 132 166 207 256
#     4   9  18  31  44  59  81 108 139 177 216 255
#     4  11  21  31  43  58  75 104 146 187 225 261
#     4  10  19  30  44  54  76 104 138 186 227 256
#     4   9  16  26  42  61  81 103 132 166 204 252
#     4   9  17  27  41  58  78 106 137 170 212 258
#     4  10  19  31  43  58  81 104 130 173 221 262
#
# _framework density 23.752666000000001
#
# number of rings (size 3 to 8) (size 9 to 14) (size 15 to 20)
#    0.000    2.533    1.333    3.000    1.867    2.133 
#    0.000    0.000    0.000    2.400    0.000    0.000 
#    0.000    0.000    0.000    0.000    0.000   10.667 
#
# Total GULP energy -334338.661750 kJ/mol
# GULP energy per Si atom -5572.311029 kJ/mol
# Density = 2.369860 g / cm^3
# Si number density = 23.752666 Si / 1000 Ang^3
#
#
#
# Elastic Constant Matrix: (Units=GPa)
#
#
# Indices 1 2 3 4 5 6 
#
# 1 54.4707 0.8831 -7.2252 0.0000 0.0000 0.0000
# 2 0.8831 106.8379 12.5486 0.0000 0.0000 0.0000
# 3 -7.2252 12.5486 119.8973 0.0000 0.0000 0.0000
# 4 0.0000 0.0000 0.0000 35.3677 0.0000 0.0000
# 5 0.0000 0.0000 0.0000 0.0000 -19.4034 0.0000
# 6 0.0000 0.0000 0.0000 0.0000 0.0000 -25.1280
#
#
#
# Elastic Compliance Matrix: (Units=1/GPa)
#
#
# Indices 1 2 3 4 5 6 
#
# 1 0.018515 -0.000288 0.001146 0.000000 0.000000 0.000000
# 2 -0.000288 0.009481 -0.001010 0.000000 0.000000 0.000000
# 3 0.001146 -0.001010 0.008515 0.000000 0.000000 0.000000
# 4 0.000000 0.000000 0.000000 0.028274 0.000000 0.000000
# 5 0.000000 0.000000 0.000000 0.000000 -0.051537 0.000000
# 6 0.000000 0.000000 0.000000 0.000000 0.000000 -0.039796
#
#
# Mechanical properties :
#
#
# Convention : Reuss Voigt Hill
#
# Bulk Modulus (GPa) = 27.61781 32.62430 30.12106
# Shear Modulus (GPa) = -352.71840 16.50055 -168.10893
#
# Velocity S-wave (km/s) = -12.19913 2.63854 -8.42190
# Velocity P-wave (km/s) = 13.66647 4.80077 9.04779
#
# Compressibility (1/GPa) = 0.03620852
#
# Stress axis : x y z
#
# Youngs Moduli (GPa) = 54.00982 105.47480 117.43716
#
# Poissons Ratio (x) = 0.03034 -0.13457
# Poissons Ratio (y) = 0.01553 0.11857
# Poissons Ratio (z) = -0.06189 0.10649
#
# Static dielectric constant tensor:
#      x y z
#    x 1.951290 0.000000 0.000000 
#    y 0.000000 1.875520 0.000000 
#    z 0.000000 0.000000 2.029700 
# 
# From -- ./inp_files/61733.got.cif
#   From: 2010.05.17/outbox.cif.g08.bks.cpg/sg74_31_cif.got.tgz:61733.got - 2010.06.03 17:57:02.
