data_PCOD9535570
_publ_section_title
;
Structure prediction by ZEFSAII (Michael W. Deem and Ramdas Pophale) SiO2 
 PCOD9535570
Probable space group: I M M A
;
_chemical_formula_sum "Si O2"
_cell_formula_units_Z 80
_cell_length_a 19.075537
_cell_length_b 8.896519
_cell_length_c 27.424381
_cell_angle_alpha 90.000000
_cell_angle_beta 90.000000
_cell_angle_gamma 90.000000
_cell_volume 4654.078639
_symmetry_space_group_name_H-M "I M M A"
_symmetry_group_IT_number 74
_symmetry_cell_setting 'orthorhombic'
loop_
_space_group_symop_operation_xyz
x,y,z
-x,1/2-y,z
x,-y,-z
-x,1/2+y,-z
-x,-y,-z
x,1/2+y,-z
-x,y,z
x,1/2-y,z
1/2+x,1/2+y,1/2+z
1/2-x,-y,1/2+z
1/2+x,1/2-y,1/2-z
1/2-x,y,1/2-z
1/2-x,1/2-y,1/2-z
1/2+x,y,1/2-z
1/2-x,1/2+y,1/2+z
1/2+x,-y,1/2+z
loop_
_atom_site_type_symbol
_atom_site_label
_atom_site_fract_x
_atom_site_fract_y
_atom_site_fract_z
Si Si1 0.580354 0.570735 0.553660
Si Si2 0.151872 0.430047 0.449211
Si Si3 0.420438 0.069070 0.152626
Si Si4 0.713858 0.429287 0.598777
Si Si5 0.211982 0.069982 0.700857
O O1 0.589296 0.500000 0.500000
O O2 0.500000 0.541135 0.569053
O O3 0.590286 0.750000 0.550970
O O4 0.638189 0.497130 0.587959
O O5 0.127049 0.500000 0.500000
O O6 0.154961 0.250000 0.452961
O O7 0.103918 0.470418 0.402526
O O8 0.228676 0.495311 0.436601
O O9 0.500000 0.018900 0.161470
O O10 0.418187 0.250000 0.155854
O O11 0.363146 0.002071 0.189226
O O12 0.713915 0.250000 0.591251
O O13 0.739884 0.461216 0.653633
O O14 0.203135 0.250000 0.704104
O O15 0.250000 0.017134 0.750000
#
# Coordination Sequence:
#
# PCOD9535570 Si02
#       5
#    16  16  16  16  16
#     4  10  20  33  49  70  98 131 165 201 243 292
#     4  10  19  31  48  71 101 134 167 202 239 284
#     4   9  19  35  53  75 103 133 165 202 244 290
#     4  10  19  32  51  72  96 127 164 205 246 292
#     4   9  19  36  56  77  99 126 164 207 249 293
#
# _framework density 17.189223999999999
#
# number of rings (size 3 to 8) (size 9 to 14) (size 15 to 20)
#    0.000    2.400    0.000    2.400    0.000    4.000 
#    0.000    1.000    0.000    6.000    0.000    0.000 
#    0.000    0.000    0.000    0.000    0.000    0.000 
#
# Total GULP energy -223190.892167 kJ/mol
# GULP energy per Si atom -5579.772304 kJ/mol
# Density = 1.715010 g / cm^3
# Si number density = 17.189224 Si / 1000 Ang^3
#
#
#
# Elastic Constant Matrix: (Units=GPa)
#
#
# Indices 1 2 3 4 5 6 
#
# 1 156.4689 51.2747 67.6901 0.0000 0.0000 0.0000
# 2 51.2747 42.9298 34.3270 0.0000 0.0000 0.0000
# 3 67.6901 34.3270 94.6739 0.0000 0.0000 0.0000
# 4 0.0000 0.0000 0.0000 22.3106 0.0000 0.0000
# 5 0.0000 0.0000 0.0000 0.0000 11.8299 0.0000
# 6 0.0000 0.0000 0.0000 0.0000 0.0000 24.1104
#
#
#
# Elastic Compliance Matrix: (Units=1/GPa)
#
#
# Indices 1 2 3 4 5 6 
#
# 1 0.011816 -0.010362 -0.004691 0.000000 0.000000 0.000000
# 2 -0.010362 0.041891 -0.007780 0.000000 0.000000 0.000000
# 3 -0.004691 -0.007780 0.016738 0.000000 0.000000 0.000000
# 4 0.000000 0.000000 0.000000 0.044822 0.000000 0.000000
# 5 0.000000 0.000000 0.000000 0.000000 0.084531 0.000000
# 6 0.000000 0.000000 0.000000 0.000000 0.000000 0.041476
#
#
# Mechanical properties :
#
#
# Convention : Reuss Voigt Hill
#
# Bulk Modulus (GPa) = 40.35849 66.73958 53.54903
# Shear Modulus (GPa) = 16.93765 21.03557 18.98661
#
# Velocity S-wave (km/s) = 3.14246 3.50203 3.32711
# Velocity P-wave (km/s) = 6.05777 7.43391 6.78084
#
# Compressibility (1/GPa) = 0.02477793
#
# Stress axis : x y z
#
# Youngs Moduli (GPa) = 84.63039 23.87146 59.74485
#
# Poissons Ratio (x) = 0.24735 0.28028
# Poissons Ratio (y) = 0.87692 0.46484
# Poissons Ratio (z) = 0.39703 0.18573
#
# Static dielectric constant tensor:
#      x y z
#    x 1.575900 0.000000 0.000000 
#    y 0.000000 1.573780 0.000000 
#    z 0.000000 0.000000 1.572940 
# 
# From -- ./inp_files/63909.got.cif
#   From: 2010.05.17/outbox.cif.g08.bks.cpg/sg74_32_cif.got.tgz:63909.got - 2010.06.03 17:57:02.
