data_PCOD9535122
_publ_section_title
;
Structure prediction by ZEFSAII (Michael W. Deem and Ramdas Pophale) SiO2 
 PCOD9535122
Probable space group: I M M A
;
_chemical_formula_sum "Si O2"
_cell_formula_units_Z 40
_cell_length_a 10.418146
_cell_length_b 12.466317
_cell_length_c 11.833997
_cell_angle_alpha 90.000000
_cell_angle_beta 90.000000
_cell_angle_gamma 90.000000
_cell_volume 1536.951136
_symmetry_space_group_name_H-M "I M M A"
_symmetry_group_IT_number 74
_symmetry_cell_setting 'orthorhombic'
loop_
_space_group_symop_operation_xyz
x,y,z
-x,1/2-y,z
x,-y,-z
-x,1/2+y,-z
-x,-y,-z
x,1/2+y,-z
-x,y,z
x,1/2-y,z
1/2+x,1/2+y,1/2+z
1/2-x,-y,1/2+z
1/2+x,1/2-y,1/2-z
1/2-x,y,1/2-z
1/2-x,1/2-y,1/2-z
1/2+x,y,1/2-z
1/2-x,1/2+y,1/2+z
1/2+x,-y,1/2+z
loop_
_atom_site_type_symbol
_atom_site_label
_atom_site_fract_x
_atom_site_fract_y
_atom_site_fract_z
Si Si1 0.857223 0.596810 0.838372
Si Si2 0.500000 0.874269 0.047939
Si Si3 0.208410 0.135600 0.900460
O O1 0.750000 0.631050 0.750000
O O2 0.823190 0.631498 0.965544
O O3 0.000000 0.630460 0.806768
O O4 0.853101 0.467896 0.845838
O O5 0.500000 0.750000 0.990744
O O6 0.362321 0.872616 0.107985
O O7 0.500000 0.000000 0.000000
O O8 0.163308 0.250000 0.856569
#
# Coordination Sequence:
#
# PCOD9535122 Si02
#       3
#    16   8  16
#     4  11  25  40  65  95 129 170 216 280 336 404
#     4  10  18  34  68 100 128 170 220 278 336 398
#     4  10  22  42  67  91 129 175 222 272 333 402
#
# _framework density 26.025552000000001
#
# number of rings (size 3 to 8) (size 9 to 14) (size 15 to 20)
#    0.000    1.600    4.000    2.400    5.600    4.800 
#    0.000    0.000    0.000    0.000    0.000    0.000 
#    0.000    0.000    0.000    0.000    0.000    0.000 
#
# Total GULP energy -111832.612622 kJ/mol
# GULP energy per Si atom -5591.630631 kJ/mol
# Density = 2.596632 g / cm^3
# Si number density = 26.025552 Si / 1000 Ang^3
#
#
#
# Elastic Constant Matrix: (Units=GPa)
#
#
# Indices 1 2 3 4 5 6 
#
# 1 227.0227 20.8103 51.9561 0.0000 0.0000 0.0000
# 2 20.8103 274.0468 24.9074 0.0000 0.0000 0.0000
# 3 51.9561 24.9074 133.4010 0.0000 0.0000 0.0000
# 4 0.0000 0.0000 0.0000 -1.0932 0.0000 0.0000
# 5 0.0000 0.0000 0.0000 0.0000 6.1133 0.0000
# 6 0.0000 0.0000 0.0000 0.0000 0.0000 -31.8411
#
#
#
# Elastic Compliance Matrix: (Units=1/GPa)
#
#
# Indices 1 2 3 4 5 6 
#
# 1 0.004847 -0.000200 -0.001850 0.000000 0.000000 0.000000
# 2 -0.000200 0.003720 -0.000617 0.000000 0.000000 0.000000
# 3 -0.001850 -0.000617 0.008332 0.000000 0.000000 0.000000
# 4 0.000000 0.000000 0.000000 -0.914709 0.000000 0.000000
# 5 0.000000 0.000000 0.000000 0.000000 0.163577 0.000000
# 6 0.000000 0.000000 0.000000 0.000000 0.000000 -0.031406
#
#
# Mechanical properties :
#
#
# Convention : Reuss Voigt Hill
#
# Bulk Modulus (GPa) = 86.46797 92.20201 89.33499
# Shear Modulus (GPa) = -6.60982 30.42226 11.90622
#
# Velocity S-wave (km/s) = -1.59539 3.42268 2.14120
# Velocity P-wave (km/s) = 5.46834 7.15011 6.36501
#
# Compressibility (1/GPa) = 0.01156498
#
# Stress axis : x y z
#
# Youngs Moduli (GPa) = 206.32912 268.79949 120.01926
#
# Poissons Ratio (x) = 0.05372 0.22207
# Poissons Ratio (y) = 0.04124 0.07402
# Poissons Ratio (z) = 0.38177 0.16579
#
# Static dielectric constant tensor:
#      x y z
#    x 1.942870 0.000000 0.000000 
#    y 0.000000 2.082300 0.000000 
#    z 0.000000 0.000000 2.052530 
# 
# From -- ./inp_files/17976.got.cif
#   From: 2010.05.17/outbox.cif.g08.bks.cpg/sg74_9_cif.got.tgz:17976.got - 2010.06.03 17:57:02.
