data_PCOD9535734
_publ_section_title
;
Structure prediction by ZEFSAII (Michael W. Deem and Ramdas Pophale) SiO2 
 PCOD9535734
Probable space group: I M M A
;
_chemical_formula_sum "Si O2"
_cell_formula_units_Z 80
_cell_length_a 9.362318
_cell_length_b 20.750520
_cell_length_c 23.368907
_cell_angle_alpha 90.000000
_cell_angle_beta 90.000000
_cell_angle_gamma 90.000000
_cell_volume 4539.946896
_symmetry_space_group_name_H-M "I M M A"
_symmetry_group_IT_number 74
_symmetry_cell_setting 'orthorhombic'
loop_
_space_group_symop_operation_xyz
x,y,z
-x,1/2-y,z
x,-y,-z
-x,1/2+y,-z
-x,-y,-z
x,1/2+y,-z
-x,y,z
x,1/2-y,z
1/2+x,1/2+y,1/2+z
1/2-x,-y,1/2+z
1/2+x,1/2-y,1/2-z
1/2-x,y,1/2-z
1/2-x,1/2-y,1/2-z
1/2+x,y,1/2-z
1/2-x,1/2+y,1/2+z
1/2+x,-y,1/2+z
loop_
_atom_site_type_symbol
_atom_site_label
_atom_site_fract_x
_atom_site_fract_y
_atom_site_fract_z
Si Si1 0.250000 0.032029 0.250000
Si Si2 0.825890 0.250000 0.312246
Si Si3 0.667635 0.820036 0.310038
Si Si4 0.349309 0.932853 0.159348
Si Si5 0.332104 0.876480 0.644372
Si Si6 0.164340 0.465582 0.441644
O O1 0.318995 0.077628 0.298789
O O2 0.342429 0.981952 0.212770
O O3 0.750000 0.250000 0.250000
O O4 0.764863 0.313886 0.343072
O O5 0.000000 0.250000 0.308207
O O6 0.500000 0.824361 0.299995
O O7 0.697830 0.750000 0.337103
O O8 0.750000 0.822075 0.250000
O O9 0.722933 0.882147 0.342591
O O10 0.500000 0.896706 0.162246
O O11 0.344731 0.977482 0.104445
O O12 0.500000 0.861146 0.636859
O O13 0.266008 0.913527 0.589350
O O14 0.213371 0.500000 0.500000
O O15 0.000000 0.441035 0.450051
#
# Coordination Sequence:
#
# PCOD9535734 Si02
#       6
#     8   8  16  16  16  16
#     4  10  20  31  51  80 118 144 176 218 280 332
#     4  12  24  38  58  86 124 160 194 233 286 353
#     4  10  20  32  47  70 102 137 170 207 256 313
#     4  10  19  31  52  79 106 138 176 219 268 324
#     4  11  22  36  58  86 118 152 191 233 283 343
#     4   9  20  39  60  82 111 145 188 236 284 333
#
# _framework density 17.62135
#
# number of rings (size 3 to 8) (size 9 to 14) (size 15 to 20)
#    0.000    1.800    2.000    2.700    0.000    6.400 
#    0.000    0.000    2.200    0.000    0.000    0.000 
#    0.000    0.000    0.000    0.000    0.000    0.000 
#
# Total GULP energy -222799.791688 kJ/mol
# GULP energy per Si atom -5569.994792 kJ/mol
# Density = 1.758124 g / cm^3
# Si number density = 17.621350 Si / 1000 Ang^3
#
#
#
# Elastic Constant Matrix: (Units=GPa)
#
#
# Indices 1 2 3 4 5 6 
#
# 1 134.5478 61.2269 34.0000 0.0000 0.0000 0.0000
# 2 61.2269 100.3697 31.6114 0.0000 0.0000 0.0000
# 3 34.0000 31.6114 101.5203 0.0000 0.0000 0.0000
# 4 0.0000 0.0000 0.0000 17.3869 0.0000 0.0000
# 5 0.0000 0.0000 0.0000 0.0000 7.6293 0.0000
# 6 0.0000 0.0000 0.0000 0.0000 0.0000 4.5427
#
#
#
# Elastic Compliance Matrix: (Units=1/GPa)
#
#
# Indices 1 2 3 4 5 6 
#
# 1 0.010545 -0.005899 -0.001695 0.000000 0.000000 0.000000
# 2 -0.005899 0.014346 -0.002492 0.000000 0.000000 0.000000
# 3 -0.001695 -0.002492 0.011194 0.000000 0.000000 0.000000
# 4 0.000000 0.000000 0.000000 0.057515 0.000000 0.000000
# 5 0.000000 0.000000 0.000000 0.000000 0.131074 0.000000
# 6 0.000000 0.000000 0.000000 0.000000 0.000000 0.220134
#
#
# Mechanical properties :
#
#
# Convention : Reuss Voigt Hill
#
# Bulk Modulus (GPa) = 62.83589 65.56830 64.20209
# Shear Modulus (GPa) = 10.63190 19.88506 15.25848
#
# Velocity S-wave (km/s) = 2.45899 3.36291 2.94583
# Velocity P-wave (km/s) = 6.61805 7.23666 6.93425
#
# Compressibility (1/GPa) = 0.01591447
#
# Stress axis : x y z
#
# Youngs Moduli (GPa) = 94.83324 69.70494 89.33608
#
# Poissons Ratio (x) = 0.41117 0.15141
# Poissons Ratio (y) = 0.55939 0.22259
# Poissons Ratio (z) = 0.16072 0.17368
#
# Static dielectric constant tensor:
#      x y z
#    x 1.622450 0.000000 0.000000 
#    y 0.000000 1.617950 0.000000 
#    z 0.000000 0.000000 1.590760 
# 
# From -- ./inp_files/56892.got.cif
#   From: 2010.05.17/outbox.cif.g08.bks.cpg/sg74_29_cif.got.tgz:56892.got - 2010.06.03 17:57:02.
