data_PCOD9535402
_publ_section_title
;
Structure prediction by ZEFSAII (Michael W. Deem and Ramdas Pophale) SiO2 
 PCOD9535402
Probable space group: I M M A
;
_chemical_formula_sum "Si O2"
_cell_formula_units_Z 116
_cell_length_a 7.677439
_cell_length_b 27.888423
_cell_length_c 28.331318
_cell_angle_alpha 90.000000
_cell_angle_beta 90.000000
_cell_angle_gamma 90.000000
_cell_volume 6066.065708
_symmetry_space_group_name_H-M "I M M A"
_symmetry_group_IT_number 74
_symmetry_cell_setting 'orthorhombic'
loop_
_space_group_symop_operation_xyz
x,y,z
-x,1/2-y,z
x,-y,-z
-x,1/2+y,-z
-x,-y,-z
x,1/2+y,-z
-x,y,z
x,1/2-y,z
1/2+x,1/2+y,1/2+z
1/2-x,-y,1/2+z
1/2+x,1/2-y,1/2-z
1/2-x,y,1/2-z
1/2-x,1/2-y,1/2-z
1/2+x,y,1/2-z
1/2-x,1/2+y,1/2+z
1/2+x,-y,1/2+z
loop_
_atom_site_type_symbol
_atom_site_label
_atom_site_fract_x
_atom_site_fract_y
_atom_site_fract_z
Si Si1 0.209465 0.434796 0.195171
Si Si2 0.793024 0.172800 0.173189
Si Si3 0.293881 0.562940 0.954927
Si Si4 0.704732 0.198393 0.535378
Si Si5 0.750000 0.750000 0.750000
Si Si6 0.199502 0.488839 0.878726
Si Si7 0.708444 0.670433 0.931397
Si Si8 0.211593 0.593211 0.059455
O O1 0.250000 0.442170 0.250000
O O2 0.271740 0.381828 0.179735
O O3 0.278892 0.477593 0.161998
O O4 0.000000 0.433703 0.188894
O O5 0.710546 0.208309 0.210505
O O6 0.766320 0.188660 0.119321
O O7 0.000000 0.174878 0.183420
O O8 0.500000 0.556828 0.947403
O O9 0.200728 0.522003 0.925499
O O10 0.237673 0.614578 0.934661
O O11 0.260985 0.566855 0.010601
O O12 0.500000 0.198801 0.547104
O O13 0.780080 0.250000 0.550138
O O14 0.720456 0.194553 0.478592
O O15 0.776372 0.148113 0.555494
O O16 0.276235 0.438496 0.896622
O O17 0.000000 0.479030 0.864550
O O18 0.500000 0.672833 0.934230
O O19 0.000000 0.594213 0.060839
#
# Coordination Sequence:
#
# PCOD9535402 Si02
#       8
#    16  16  16  16   4  16  16  16
#     4  10  21  37  55  72  91 120 157 199 246 297
#     4  11  23  39  55  69  89 120 160 206 254 299
#     4  10  19  30  46  71 100 129 158 194 238 284
#     4   9  18  33  51  70  95 128 162 194 231 278
#     4  12  26  40  52  70  86 112 160 218 260 288
#     4  10  19  32  50  71  95 125 157 193 240 291
#     4  10  21  34  50  71  95 124 161 202 242 287
#     4   9  18  31  48  70  97 127 159 193 232 284
#
# _framework density 19.122772999999999
#
# number of rings (size 3 to 8) (size 9 to 14) (size 15 to 20)
#    0.000    2.069    2.069    1.448    0.966    5.793 
#    0.000    0.000    0.000    0.000    0.000    0.000 
#    0.000    0.552    0.000    0.414    0.000    0.828 
#
# Total GULP energy -323242.429661 kJ/mol
# GULP energy per Si atom -5573.145339 kJ/mol
# Density = 1.907925 g / cm^3
# Si number density = 19.122773 Si / 1000 Ang^3
#
#
#
# Elastic Constant Matrix: (Units=GPa)
#
#
# Indices 1 2 3 4 5 6 
#
# 1 38.0918 1.6070 -3.4794 0.0000 0.0000 0.0000
# 2 1.6070 129.2920 65.1779 0.0000 0.0000 0.0000
# 3 -3.4794 65.1779 75.7885 0.0000 0.0000 0.0000
# 4 0.0000 0.0000 0.0000 191.4055 0.0000 0.0000
# 5 0.0000 0.0000 0.0000 0.0000 9.2965 0.0000
# 6 0.0000 0.0000 0.0000 0.0000 0.0000 90.5216
#
#
#
# Elastic Compliance Matrix: (Units=1/GPa)
#
#
# Indices 1 2 3 4 5 6 
#
# 1 0.026565 -0.001668 0.002654 0.000000 0.000000 0.000000
# 2 -0.001668 0.013759 -0.011909 0.000000 0.000000 0.000000
# 3 0.002654 -0.011909 0.023558 0.000000 0.000000 0.000000
# 4 0.000000 0.000000 0.000000 0.005225 0.000000 0.000000
# 5 0.000000 0.000000 0.000000 0.000000 0.107567 0.000000
# 6 0.000000 0.000000 0.000000 0.000000 0.000000 0.011047
#
#
# Mechanical properties :
#
#
# Convention : Reuss Voigt Hill
#
# Bulk Modulus (GPa) = 23.78906 41.08704 32.43805
# Shear Modulus (GPa) = 22.36347 70.23585 46.29966
#
# Velocity S-wave (km/s) = 3.42346 6.06701 4.92589
# Velocity P-wave (km/s) = 5.30037 8.40302 7.02512
#
# Compressibility (1/GPa) = 0.04203613
#
# Stress axis : x y z
#
# Youngs Moduli (GPa) = 37.64321 72.68151 42.44809
#
# Poissons Ratio (x) = 0.12125 -0.11267
# Poissons Ratio (y) = 0.06280 0.50551
# Poissons Ratio (z) = -0.09992 0.86556
#
# Static dielectric constant tensor:
#      x y z
#    x 1.733090 0.000000 0.000000 
#    y 0.000000 -0.278730 0.000000 
#    z 0.000000 0.000000 1.637650 
# 
# From -- ./inp_files/65127.got.cif
#   From: 2010.05.17/outbox.cif.g08.bks.cpg/sg74_33_cif.got.tgz:65127.got - 2010.06.03 17:57:02.
