data_PCOD9535145
_publ_section_title
;
Structure prediction by ZEFSAII (Michael W. Deem and Ramdas Pophale) SiO2 
 PCOD9535145
Probable space group: I M M A
;
_chemical_formula_sum "Si O2"
_cell_formula_units_Z 76
_cell_length_a 29.415187
_cell_length_b 13.814851
_cell_length_c 10.285062
_cell_angle_alpha 90.000000
_cell_angle_beta 90.000000
_cell_angle_gamma 90.000000
_cell_volume 4179.503881
_symmetry_space_group_name_H-M "I M M A"
_symmetry_group_IT_number 74
_symmetry_cell_setting 'orthorhombic'
loop_
_space_group_symop_operation_xyz
x,y,z
-x,1/2-y,z
x,-y,-z
-x,1/2+y,-z
-x,-y,-z
x,1/2+y,-z
-x,y,z
x,1/2-y,z
1/2+x,1/2+y,1/2+z
1/2-x,-y,1/2+z
1/2+x,1/2-y,1/2-z
1/2-x,y,1/2-z
1/2-x,1/2-y,1/2-z
1/2+x,y,1/2-z
1/2-x,1/2+y,1/2+z
1/2+x,-y,1/2+z
loop_
_atom_site_type_symbol
_atom_site_label
_atom_site_fract_x
_atom_site_fract_y
_atom_site_fract_z
Si Si1 0.744235 0.750000 0.937984
Si Si2 0.716794 0.541295 0.857746
Si Si3 0.120558 0.451740 0.632264
Si Si4 0.500000 0.250000 0.582408
Si Si5 0.082017 0.093152 0.909859
Si Si6 0.842052 0.250000 0.946609
Si Si7 0.830756 0.750000 0.358204
O O1 0.798199 0.750000 0.961388
O O2 0.717968 0.750000 0.075394
O O3 0.726170 0.654669 0.867617
O O4 0.750000 0.497649 0.750000
O O5 0.664737 0.515418 0.829955
O O6 0.727623 0.500000 0.000000
O O7 0.101229 0.500000 0.500000
O O8 0.089812 0.438877 0.759399
O O9 0.141218 0.345574 0.601353
O O10 0.539852 0.334373 0.583546
O O11 0.126153 0.154939 0.957293
O O12 0.076098 0.000000 0.000000
O O13 0.826463 0.250000 0.796471
#
# Coordination Sequence:
#
# PCOD9535145 Si02
#       7
#     8  16  16   4  16   8   8
#     4  12  21  35  50  80 127 169 205 258 293 316
#     4  11  25  36  53  80 121 174 213 257 292 342
#     4  10  21  38  59  87 120 162 208 247 306 348
#     4  10  22  48  68 100 116 150 188 248 342 380
#     4  10  22  41  69  91 119 153 193 258 306 387
#     4   9  23  32  56  89 117 158 216 238 290 353
#     4  10  18  36  51  77 117 171 207 248 284 337
#
# _framework density 18.183976000000001
#
# number of rings (size 3 to 8) (size 9 to 14) (size 15 to 20)
#    0.000    1.684    4.211    1.579    8.842    0.000 
#    0.000    2.632    0.000    1.263    0.000    0.000 
#    0.000    0.000    0.000    0.000    0.000    0.000 
#
# Total GULP energy -211542.197046 kJ/mol
# GULP energy per Si atom -5566.899922 kJ/mol
# Density = 1.814259 g / cm^3
# Si number density = 18.183976 Si / 1000 Ang^3
#
#
#
# Elastic Constant Matrix: (Units=GPa)
#
#
# Indices 1 2 3 4 5 6 
#
# 1 99.7222 60.3158 45.5714 0.0000 0.0000 0.0000
# 2 60.3158 150.0013 51.3279 0.0000 0.0000 0.0000
# 3 45.5714 51.3279 59.4702 0.0000 0.0000 0.0000
# 4 0.0000 0.0000 0.0000 -11.6636 0.0000 0.0000
# 5 0.0000 0.0000 0.0000 0.0000 0.9259 0.0000
# 6 0.0000 0.0000 0.0000 0.0000 0.0000 797.7020
#
#
#
# Elastic Compliance Matrix: (Units=1/GPa)
#
#
# Indices 1 2 3 4 5 6 
#
# 1 0.016492 -0.003274 -0.009812 0.000000 0.000000 0.000000
# 2 -0.003274 0.010111 -0.006217 0.000000 0.000000 0.000000
# 3 -0.009812 -0.006217 0.029700 0.000000 0.000000 0.000000
# 4 0.000000 0.000000 0.000000 -0.085737 0.000000 0.000000
# 5 0.000000 0.000000 0.000000 0.000000 1.080050 0.000000
# 6 0.000000 0.000000 0.000000 0.000000 0.000000 0.001254
#
#
# Mechanical properties :
#
#
# Convention : Reuss Voigt Hill
#
# Bulk Modulus (GPa) = 56.51012 69.29155 62.90083
# Shear Modulus (GPa) = 4.56048 167.52475 86.04262
#
# Velocity S-wave (km/s) = 1.58537 9.60873 6.88626
# Velocity P-wave (km/s) = 5.87329 12.70008 9.89413
#
# Compressibility (1/GPa) = 0.01769595
#
# Stress axis : x y z
#
# Youngs Moduli (GPa) = 60.63549 98.90602 33.66985
#
# Poissons Ratio (x) = 0.32382 0.33037
# Poissons Ratio (y) = 0.19852 0.20934
# Poissons Ratio (z) = 0.59495 0.61495
#
# Static dielectric constant tensor:
#      x y z
#    x 1.594130 0.000000 0.000000 
#    y 0.000000 1.631090 0.000000 
#    z 0.000000 0.000000 1.661330 
# 
# From -- ./inp_files/26953.got.cif
#   From: 2010.05.17/outbox.cif.g08.bks.cpg/sg74_14_cif.got.tgz:26953.got - 2010.06.03 17:57:02.
