data_PCOD9535562
_publ_section_title
;
Structure prediction by ZEFSAII (Michael W. Deem and Ramdas Pophale) SiO2 
 PCOD9535562
Probable space group: I M M A
;
_chemical_formula_sum "Si O2"
_cell_formula_units_Z 80
_cell_length_a 19.358386
_cell_length_b 15.268744
_cell_length_c 17.169973
_cell_angle_alpha 90.000000
_cell_angle_beta 90.000000
_cell_angle_gamma 90.000000
_cell_volume 5075.070402
_symmetry_space_group_name_H-M "I M M A"
_symmetry_group_IT_number 74
_symmetry_cell_setting 'orthorhombic'
loop_
_space_group_symop_operation_xyz
x,y,z
-x,1/2-y,z
x,-y,-z
-x,1/2+y,-z
-x,-y,-z
x,1/2+y,-z
-x,y,z
x,1/2-y,z
1/2+x,1/2+y,1/2+z
1/2-x,-y,1/2+z
1/2+x,1/2-y,1/2-z
1/2-x,y,1/2-z
1/2-x,1/2-y,1/2-z
1/2+x,y,1/2-z
1/2-x,1/2+y,1/2+z
1/2+x,-y,1/2+z
loop_
_atom_site_type_symbol
_atom_site_label
_atom_site_fract_x
_atom_site_fract_y
_atom_site_fract_z
Si Si1 0.500000 0.646354 0.358626
Si Si2 0.149772 0.352701 0.620945
Si Si3 0.864065 0.073364 0.937456
Si Si4 0.749291 0.493319 0.163584
Si Si5 0.000000 0.355774 0.680936
Si Si6 0.264575 0.349553 0.031575
O O1 0.500000 0.750000 0.351751
O O2 0.431188 0.619657 0.404523
O O3 0.500000 0.610464 0.269918
O O4 0.160010 0.250000 0.644850
O O5 0.198818 0.422429 0.663644
O O6 0.070899 0.378527 0.637330
O O7 0.173815 0.357880 0.531137
O O8 0.823042 0.028586 0.866175
O O9 0.805775 0.131065 0.982229
O O10 0.884769 0.000000 0.000000
O O11 0.750000 0.455621 0.250000
O O12 0.728522 0.421933 0.098566
O O13 0.000000 0.250000 0.684049
O O14 0.262580 0.250000 0.060994
#
# Coordination Sequence:
#
# PCOD9535562 Si02
#       6
#     8  16  16  16   8  16
#     4  11  19  27  43  68  95 119 147 181 226 278
#     4   9  17  31  49  68  94 123 151 184 226 276
#     4   9  18  31  46  65  90 120 153 187 225 271
#     4  10  19  31  48  70  94 120 153 192 231 269
#     4   9  18  29  44  70  96 117 144 185 230 270
#     4   9  18  33  50  67  90 122 158 191 225 269
#
# _framework density 15.763328
#
# number of rings (size 3 to 8) (size 9 to 14) (size 15 to 20)
#    0.000    2.600    0.000    3.900    0.000    1.600 
#    0.000    2.000    0.000    0.000    0.000    0.000 
#    0.000    9.600    0.000    0.000    0.000    0.000 
#
# Total GULP energy -222750.187766 kJ/mol
# GULP energy per Si atom -5568.754694 kJ/mol
# Density = 1.572745 g / cm^3
# Si number density = 15.763328 Si / 1000 Ang^3
#
#
#
# Elastic Constant Matrix: (Units=GPa)
#
#
# Indices 1 2 3 4 5 6 
#
# 1 115.4202 38.5390 59.2141 0.0000 0.0000 0.0000
# 2 38.5390 63.2419 34.4376 0.0000 0.0000 0.0000
# 3 59.2141 34.4376 90.3581 0.0000 0.0000 0.0000
# 4 0.0000 0.0000 0.0000 19.0234 0.0000 0.0000
# 5 0.0000 0.0000 0.0000 0.0000 29.9069 0.0000
# 6 0.0000 0.0000 0.0000 0.0000 0.0000 21.1905
#
#
#
# Elastic Compliance Matrix: (Units=1/GPa)
#
#
# Indices 1 2 3 4 5 6 
#
# 1 0.013981 -0.004455 -0.007464 0.000000 0.000000 0.000000
# 2 -0.004455 0.021373 -0.005226 0.000000 0.000000 0.000000
# 3 -0.007464 -0.005226 0.017950 0.000000 0.000000 0.000000
# 4 0.000000 0.000000 0.000000 0.052567 0.000000 0.000000
# 5 0.000000 0.000000 0.000000 0.000000 0.033437 0.000000
# 6 0.000000 0.000000 0.000000 0.000000 0.000000 0.047191
#
#
# Mechanical properties :
#
#
# Convention : Reuss Voigt Hill
#
# Bulk Modulus (GPa) = 52.59467 59.26684 55.93075
# Shear Modulus (GPa) = 22.01402 23.14613 22.58008
#
# Velocity S-wave (km/s) = 3.74108 3.83607 3.78887
# Velocity P-wave (km/s) = 7.21793 7.56968 7.39590
#
# Compressibility (1/GPa) = 0.01901333
#
# Stress axis : x y z
#
# Youngs Moduli (GPa) = 71.52600 46.78765 55.70966
#
# Poissons Ratio (x) = 0.20846 0.41582
# Poissons Ratio (y) = 0.31868 0.29114
# Poissons Ratio (z) = 0.53387 0.24452
#
# Static dielectric constant tensor:
#      x y z
#    x 1.515160 0.000000 0.000000 
#    y 0.000000 1.529960 0.000000 
#    z 0.000000 0.000000 1.524650 
# 
# From -- ./inp_files/34028.got.cif
#   From: 2010.05.17/outbox.cif.g08.bks.cpg/sg74_18_cif.got.tgz:34028.got - 2010.06.03 17:57:02.
