data_PCOD9535249
_publ_section_title
;
Structure prediction by ZEFSAII (Michael W. Deem and Ramdas Pophale) SiO2 
 PCOD9535249
Probable space group: I M M A
;
_chemical_formula_sum "Si O2"
_cell_formula_units_Z 64
_cell_length_a 15.092693
_cell_length_b 22.950461
_cell_length_c 7.253296
_cell_angle_alpha 90.000000
_cell_angle_beta 90.000000
_cell_angle_gamma 90.000000
_cell_volume 2512.427583
_symmetry_space_group_name_H-M "I M M A"
_symmetry_group_IT_number 74
_symmetry_cell_setting 'orthorhombic'
loop_
_space_group_symop_operation_xyz
x,y,z
-x,1/2-y,z
x,-y,-z
-x,1/2+y,-z
-x,-y,-z
x,1/2+y,-z
-x,y,z
x,1/2-y,z
1/2+x,1/2+y,1/2+z
1/2-x,-y,1/2+z
1/2+x,1/2-y,1/2-z
1/2-x,y,1/2-z
1/2-x,1/2-y,1/2-z
1/2+x,y,1/2-z
1/2-x,1/2+y,1/2+z
1/2+x,-y,1/2+z
loop_
_atom_site_type_symbol
_atom_site_label
_atom_site_fract_x
_atom_site_fract_y
_atom_site_fract_z
Si Si1 0.856762 0.500677 0.220047
Si Si2 0.600623 0.750000 0.718723
Si Si3 0.147970 0.250000 0.803167
Si Si4 0.356588 0.625982 0.290444
Si Si5 0.355356 0.375297 0.270634
O O1 0.750000 0.501126 0.250000
O O2 0.889538 0.563981 0.285083
O O3 0.889443 0.438479 0.295699
O O4 0.871793 0.500000 0.000000
O O5 0.500000 0.750000 0.657389
O O6 0.653500 0.750000 0.526569
O O7 0.616890 0.812807 0.810687
O O8 0.250000 0.250000 0.750000
O O9 0.107817 0.310763 0.734522
O O10 0.250000 0.626456 0.250000
O O11 0.373726 0.625432 0.510359
O O12 0.250000 0.376930 0.250000
#
# Coordination Sequence:
#
# PCOD9535249 Si02
#       5
#    16   8   8  16  16
#     4   8  13  21  35  56  84 106 132 174 213 243
#     4  10  19  29  42  63  91 116 140 178 225 261
#     4   8  14  25  42  61  80 108 144 172 200 249
#     4   8  13  22  38  62  86 106 134 176 215 246
#     4   9  16  26  41  61  82 110 146 177 206 251
#
# _framework density 25.473369999999999
#
# number of rings (size 3 to 8) (size 9 to 14) (size 15 to 20)
#    0.000    3.500    0.000    0.375    0.000    0.000 
#    0.000    0.000    0.000   18.750    0.000   56.000 
#    0.000   90.000    0.000    0.000    0.000   12.500 
#
# Total GULP energy -178257.795442 kJ/mol
# GULP energy per Si atom -5570.556108 kJ/mol
# Density = 2.541539 g / cm^3
# Si number density = 25.473370 Si / 1000 Ang^3
#
#
#
# Elastic Constant Matrix: (Units=GPa)
#
#
# Indices 1 2 3 4 5 6 
#
# 1 53.4380 14.1798 -10.2853 0.0000 0.0000 0.0001
# 2 14.1798 413.4378 20.7768 0.0000 0.0000 0.0000
# 3 -10.2853 20.7768 111.6983 -0.0003 -0.0002 0.0006
# 4 0.0000 0.0000 -0.0003 -18.2486 -0.0001 0.0001
# 5 0.0000 0.0000 -0.0002 -0.0001 -16.6159 0.0001
# 6 0.0001 0.0000 0.0006 0.0001 0.0001 -68.1899
#
#
#
# Elastic Compliance Matrix: (Units=1/GPa)
#
#
# Indices 1 2 3 4 5 6 
#
# 1 0.019283 -0.000758 0.001917 0.000000 0.000000 0.000000
# 2 -0.000758 0.002471 -0.000529 0.000000 0.000000 0.000000
# 3 0.001917 -0.000529 0.009228 0.000000 0.000000 0.000000
# 4 0.000000 0.000000 0.000000 -0.054799 0.000000 0.000000
# 5 0.000000 0.000000 0.000000 0.000000 -0.060183 0.000000
# 6 0.000000 0.000000 0.000000 0.000000 0.000000 -0.014665
#
#
# Mechanical properties :
#
#
# Convention : Reuss Voigt Hill
#
# Bulk Modulus (GPa) = 31.01637 69.76852 50.39244
# Shear Modulus (GPa) = -56.06851 16.31598 -19.87626
#
# Velocity S-wave (km/s) = -4.69664 2.53358 -2.79637
# Velocity P-wave (km/s) = 4.14835 6.00058 3.06579
#
# Compressibility (1/GPa) = 0.03224104
#
# Stress axis : x y z
#
# Youngs Moduli (GPa) = 51.85859 404.63930 108.36999
#
# Poissons Ratio (x) = 0.30659 -0.20770
# Poissons Ratio (y) = 0.03929 0.05738
# Poissons Ratio (z) = -0.09939 0.21424
#
# Static dielectric constant tensor:
#      x y z
#    x 1.912250 0.000000 0.000000 
#    y 0.000000 2.150490 0.000000 
#    z 0.000000 0.000000 1.708850 
# 
# From -- ./inp_files/8845.got.cif
#   From: 2010.05.17/outbox.cif.g08.bks.cpg/sg74_5_cif.got.tgz:8845.got - 2010.06.03 17:57:02.
