data_PCOD9535546
_publ_section_title
;
Structure prediction by ZEFSAII (Michael W. Deem and Ramdas Pophale) SiO2 
 PCOD9535546
Probable space group: I M M A
;
_chemical_formula_sum "Si O2"
_cell_formula_units_Z 96
_cell_length_a 10.056252
_cell_length_b 20.714400
_cell_length_c 30.129193
_cell_angle_alpha 90.000000
_cell_angle_beta 90.000000
_cell_angle_gamma 90.000000
_cell_volume 6276.188887
_symmetry_space_group_name_H-M "I M M A"
_symmetry_group_IT_number 74
_symmetry_cell_setting 'orthorhombic'
loop_
_space_group_symop_operation_xyz
x,y,z
-x,1/2-y,z
x,-y,-z
-x,1/2+y,-z
-x,-y,-z
x,1/2+y,-z
-x,y,z
x,1/2-y,z
1/2+x,1/2+y,1/2+z
1/2-x,-y,1/2+z
1/2+x,1/2-y,1/2-z
1/2-x,y,1/2-z
1/2-x,1/2-y,1/2-z
1/2+x,y,1/2-z
1/2-x,1/2+y,1/2+z
1/2+x,-y,1/2+z
loop_
_atom_site_type_symbol
_atom_site_label
_atom_site_fract_x
_atom_site_fract_y
_atom_site_fract_z
Si Si1 0.844119 0.059552 0.465854
Si Si2 0.652799 0.648699 0.289059
Si Si3 0.155009 0.822888 0.470277
Si Si4 0.843871 0.643559 0.110148
Si Si5 0.344225 0.487657 0.388919
Si Si6 0.651960 0.008548 0.288244
O O1 0.809010 0.124091 0.492978
O O2 0.750575 0.045938 0.424197
O O3 0.000000 0.062658 0.453036
O O4 0.829143 0.000000 0.500000
O O5 0.500000 0.668766 0.281537
O O6 0.750000 0.671004 0.250000
O O7 0.690727 0.665690 0.339702
O O8 0.653982 0.570062 0.288351
O O9 0.164484 0.750000 0.487635
O O10 0.248482 0.829260 0.427486
O O11 0.000000 0.835064 0.457887
O O12 0.831294 0.565555 0.107832
O O13 0.000000 0.659162 0.102931
O O14 0.500000 0.472784 0.396748
O O15 0.311203 0.470572 0.337977
O O16 0.500000 0.027728 0.279510
O O17 0.750000 0.031170 0.250000
#
# Coordination Sequence:
#
# PCOD9535546 Si02
#       6
#    16  16  16  16  16  16
#     4  10  19  31  47  68  90 115 152 190 222 266
#     4   8  14  24  38  59  85 112 143 181 222 262
#     4  10  21  35  48  64  89 118 148 187 231 269
#     4   9  17  29  45  65  89 116 149 187 225 266
#     4   9  17  28  44  67  93 120 150 185 224 264
#     4   8  14  24  37  58  89 120 147 175 214 262
#
# _framework density 15.295907
#
# number of rings (size 3 to 8) (size 9 to 14) (size 15 to 20)
#    0.000    3.000    1.667    2.000    0.000    2.667 
#    0.000    3.333    0.000    0.500    0.000    0.000 
#    0.000    0.667    0.000    1.500    0.000    2.333 
#
# Total GULP energy -267424.294814 kJ/mol
# GULP energy per Si atom -5571.339475 kJ/mol
# Density = 1.526109 g / cm^3
# Si number density = 15.295907 Si / 1000 Ang^3
#
#
#
# Elastic Constant Matrix: (Units=GPa)
#
#
# Indices 1 2 3 4 5 6 
#
# 1 76.2679 36.5215 89.4592 0.0000 0.0000 0.0000
# 2 36.5215 53.2726 47.3302 0.0000 0.0000 0.0000
# 3 89.4592 47.3302 131.5932 0.0000 0.0000 0.0000
# 4 0.0000 0.0000 0.0000 2.5585 0.0000 0.0000
# 5 0.0000 0.0000 0.0000 0.0000 37.6943 0.0000
# 6 0.0000 0.0000 0.0000 0.0000 0.0000 9.5649
#
#
#
# Elastic Compliance Matrix: (Units=1/GPa)
#
#
# Indices 1 2 3 4 5 6 
#
# 1 0.066974 -0.008029 -0.042642 0.000000 0.000000 0.000000
# 2 -0.008029 0.028549 -0.004810 0.000000 0.000000 0.000000
# 3 -0.042642 -0.004810 0.038318 0.000000 0.000000 0.000000
# 4 0.000000 0.000000 0.000000 0.390857 0.000000 0.000000
# 5 0.000000 0.000000 0.000000 0.000000 0.026529 0.000000
# 6 0.000000 0.000000 0.000000 0.000000 0.000000 0.104549
#
#
# Mechanical properties :
#
#
# Convention : Reuss Voigt Hill
#
# Bulk Modulus (GPa) = 43.70863 67.52837 55.61850
# Shear Modulus (GPa) = 6.45689 15.81838 11.13764
#
# Velocity S-wave (km/s) = 2.05681 3.21932 2.70134
# Velocity P-wave (km/s) = 5.85475 7.61988 6.79487
#
# Compressibility (1/GPa) = 0.02287878
#
# Stress axis : x y z
#
# Youngs Moduli (GPa) = 14.93113 35.02715 26.09732
#
# Poissons Ratio (x) = 0.28123 1.11285
# Poissons Ratio (y) = 0.11988 0.12553
# Poissons Ratio (z) = 0.63670 0.16848
#
# Static dielectric constant tensor:
#      x y z
#    x 1.507010 0.000000 0.000000 
#    y 0.000000 1.508390 0.000000 
#    z 0.000000 0.000000 1.493670 
# 
# From -- ./inp_files/58858.got.cif
#   From: 2010.05.17/outbox.cif.g08.bks.cpg/sg74_30_cif.got.tgz:58858.got - 2010.06.03 17:57:02.
