data_PCOD9535181
_publ_section_title
;
Structure prediction by ZEFSAII (Michael W. Deem and Ramdas Pophale) SiO2 
 PCOD9535181
Probable space group: I M M A
;
_chemical_formula_sum "Si O2"
_cell_formula_units_Z 68
_cell_length_a 14.964075
_cell_length_b 26.763639
_cell_length_c 8.361494
_cell_angle_alpha 90.000000
_cell_angle_beta 90.000000
_cell_angle_gamma 90.000000
_cell_volume 3348.720663
_symmetry_space_group_name_H-M "I M M A"
_symmetry_group_IT_number 74
_symmetry_cell_setting 'orthorhombic'
loop_
_space_group_symop_operation_xyz
x,y,z
-x,1/2-y,z
x,-y,-z
-x,1/2+y,-z
-x,-y,-z
x,1/2+y,-z
-x,y,z
x,1/2-y,z
1/2+x,1/2+y,1/2+z
1/2-x,-y,1/2+z
1/2+x,1/2-y,1/2-z
1/2-x,y,1/2-z
1/2-x,1/2-y,1/2-z
1/2+x,y,1/2-z
1/2-x,1/2+y,1/2+z
1/2+x,-y,1/2+z
loop_
_atom_site_type_symbol
_atom_site_label
_atom_site_fract_x
_atom_site_fract_y
_atom_site_fract_z
Si Si1 0.000000 0.250000 0.180800
Si Si2 0.333165 0.146009 0.867917
Si Si3 0.603340 0.750000 0.994475
Si Si4 0.000000 0.395482 0.804334
Si Si5 0.500000 0.491683 0.304332
Si Si6 0.500000 0.858156 0.642762
Si Si7 0.350077 0.584870 0.816985
O O1 0.916132 0.250000 0.304026
O O2 0.000000 0.198700 0.087279
O O3 0.250000 0.145364 0.750000
O O4 0.346977 0.199875 0.950714
O O5 0.416094 0.134485 0.756214
O O6 0.335497 0.101942 0.000360
O O7 0.500000 0.750000 0.059315
O O8 0.000000 0.451794 0.740674
O O9 0.000000 0.395045 0.994806
O O10 0.500000 0.500000 0.500000
O O11 0.413063 0.462169 0.233781
O O12 0.588735 0.870384 0.743621
O O13 0.250000 0.579661 0.750000
#
# Coordination Sequence:
#
# PCOD9535181 Si02
#       7
#     4  16   8   8   8   8  16
#     4  10  18  38  70 100 130 186 234 282 336 416
#     4  12  25  41  69 101 141 182 227 283 343 412
#     4  10  19  42  66  95 136 185 226 278 335 408
#     4  12  24  45  65  98 133 174 228 287 352 421
#     4  11  25  45  73  95 134 178 227 295 349 413
#     4  11  21  41  70  97 136 180 229 286 346 406
#     4  11  23  45  69  98 134 179 228 285 343 412
#
# _framework density 20.306263000000001
#
# number of rings (size 3 to 8) (size 9 to 14) (size 15 to 20)
#    0.353    0.471    5.882    3.176    0.000    3.765 
#    0.000    4.706    0.000    0.000    0.000    0.000 
#    0.000    0.000    0.000    0.000    0.000    0.000 
#
# Total GULP energy -189563.428077 kJ/mol
# GULP energy per Si atom -5575.394943 kJ/mol
# Density = 2.026004 g / cm^3
# Si number density = 20.306263 Si / 1000 Ang^3
#
#
#
# Elastic Constant Matrix: (Units=GPa)
#
#
# Indices 1 2 3 4 5 6 
#
# 1 170.1920 33.2835 43.8821 0.0006 -0.0014 0.0010
# 2 33.2835 133.9229 19.9768 0.0009 -0.0014 0.0011
# 3 43.8821 19.9768 94.1605 0.0043 -0.0045 0.0056
# 4 0.0006 0.0009 0.0043 34.7522 -0.0008 0.0011
# 5 -0.0014 -0.0014 -0.0045 -0.0008 43.1130 -0.0010
# 6 0.0010 0.0011 0.0056 0.0011 -0.0010 -3.2176
#
#
#
# Elastic Compliance Matrix: (Units=1/GPa)
#
#
# Indices 1 2 3 4 5 6 
#
# 1 0.006882 -0.001272 -0.002937 0.000000 0.000000 -0.000004
# 2 -0.001272 0.007946 -0.001093 0.000000 0.000000 0.000000
# 3 -0.002937 -0.001093 0.012221 -0.000001 0.000001 0.000020
# 4 0.000000 0.000000 -0.000001 0.028775 0.000001 0.000010
# 5 0.000000 0.000000 0.000001 0.000001 0.023195 -0.000007
# 6 -0.000004 0.000000 0.000020 0.000010 -0.000007 -0.310793
#
#
# Mechanical properties :
#
#
# Convention : Reuss Voigt Hill
#
# Bulk Modulus (GPa) = 60.81202 65.84002 63.32602
# Shear Modulus (GPa) = -23.18170 35.00507 5.91169
#
# Velocity S-wave (km/s) = -3.38243 4.15644 1.70809
# Velocity P-wave (km/s) = 3.84162 7.45175 5.92818
#
# Compressibility (1/GPa) = 0.01644412
#
# Stress axis : x y z
#
# Youngs Moduli (GPa) = 145.30964 125.84653 81.82686
#
# Poissons Ratio (x) = 0.16010 0.24035
# Poissons Ratio (y) = 0.18486 0.08943
# Poissons Ratio (z) = 0.42682 0.13754
#
# Static dielectric constant tensor:
#      x y z
#    x 1.918320 0.000000 0.000010 
#    y 0.000000 1.733790 0.000000 
#    z 0.000010 0.000000 1.786740 
# 
# From -- ./inp_files/9094.got.cif
#   From: 2010.05.17/outbox.cif.g08.bks.cpg/sg74_5_cif.got.tgz:9094.got - 2010.06.03 17:57:02.
