data_PCOD9535057
_publ_section_title
;
Structure prediction by ZEFSAII (Michael W. Deem and Ramdas Pophale) SiO2 
 PCOD9535057
Probable space group: I M M A
;
_chemical_formula_sum "Si O2"
_cell_formula_units_Z 80
_cell_length_a 14.649733
_cell_length_b 23.655968
_cell_length_c 9.967709
_cell_angle_alpha 90.000000
_cell_angle_beta 90.000000
_cell_angle_gamma 90.000000
_cell_volume 3454.345588
_symmetry_space_group_name_H-M "I M M A"
_symmetry_group_IT_number 74
_symmetry_cell_setting 'orthorhombic'
loop_
_space_group_symop_operation_xyz
x,y,z
-x,1/2-y,z
x,-y,-z
-x,1/2+y,-z
-x,-y,-z
x,1/2+y,-z
-x,y,z
x,1/2-y,z
1/2+x,1/2+y,1/2+z
1/2-x,-y,1/2+z
1/2+x,1/2-y,1/2-z
1/2-x,y,1/2-z
1/2-x,1/2-y,1/2-z
1/2+x,y,1/2-z
1/2-x,1/2+y,1/2+z
1/2+x,-y,1/2+z
loop_
_atom_site_type_symbol
_atom_site_label
_atom_site_fract_x
_atom_site_fract_y
_atom_site_fract_z
Si Si1 0.142707 0.873103 0.220254
Si Si2 0.608764 0.439840 0.453980
Si Si3 0.611761 0.750000 0.632371
Si Si4 0.888720 0.864065 0.714880
Si Si5 0.649758 0.750000 0.317111
Si Si6 0.895051 0.437518 0.520002
O O1 0.250000 0.871741 0.250000
O O2 0.125430 0.895429 0.071813
O O3 0.106574 0.809153 0.229683
O O4 0.104609 0.917293 0.327430
O O5 0.646260 0.500000 0.500000
O O6 0.500000 0.446246 0.437840
O O7 0.640910 0.414123 0.314771
O O8 0.500000 0.750000 0.617795
O O9 0.639943 0.805136 0.718157
O O10 0.650523 0.750000 0.480323
O O11 0.856344 0.885770 0.569434
O O12 0.000000 0.859335 0.713067
O O13 0.750000 0.750000 0.250000
O O14 0.854190 0.500000 0.500000
O O15 0.000000 0.443072 0.473593
#
# Coordination Sequence:
#
# PCOD9535057 Si02
#       6
#    16  16   8  16   8  16
#     4  11  23  38  58  83 119 159 202 244 290 350
#     4  10  19  34  58  84 109 146 196 245 297 357
#     4  10  18  33  60  89 117 151 202 258 298 348
#     4   9  18  32  54  83 112 144 186 241 299 347
#     4  10  22  39  58  80 124 163 198 246 296 349
#     4  10  21  39  61  87 120 153 189 244 309 361
#
# _framework density 23.159234999999999
#
# number of rings (size 3 to 8) (size 9 to 14) (size 15 to 20)
#    0.000    2.000    2.000    1.800    0.000    5.600 
#    0.000    2.000    0.000    2.400    0.000    0.000 
#    0.000    0.000    0.000    0.000    0.000    0.000 
#
# Total GULP energy -223400.567429 kJ/mol
# GULP energy per Si atom -5585.014186 kJ/mol
# Density = 2.310652 g / cm^3
# Si number density = 23.159235 Si / 1000 Ang^3
#
#
#
# Elastic Constant Matrix: (Units=GPa)
#
#
# Indices 1 2 3 4 5 6 
#
# 1 70.8491 6.3006 -3.8541 0.0000 0.0000 0.0000
# 2 6.3006 123.1376 -8.4344 0.0001 0.0001 0.0000
# 3 -3.8541 -8.4344 70.3476 0.0000 0.0002 0.0000
# 4 0.0000 0.0001 0.0000 39.4910 0.0001 0.0000
# 5 0.0000 0.0001 0.0002 0.0001 57.9273 0.0001
# 6 0.0000 0.0000 0.0000 0.0000 0.0001 -10.2389
#
#
#
# Elastic Compliance Matrix: (Units=1/GPa)
#
#
# Indices 1 2 3 4 5 6 
#
# 1 0.014213 -0.000679 0.000697 0.000000 0.000000 0.000000
# 2 -0.000679 0.008221 0.000948 0.000000 0.000000 0.000000
# 3 0.000697 0.000948 0.014367 0.000000 0.000000 0.000000
# 4 0.000000 0.000000 0.000000 0.025322 0.000000 0.000000
# 5 0.000000 0.000000 0.000000 0.000000 0.017263 0.000000
# 6 0.000000 0.000000 0.000000 0.000000 0.000000 -0.097667
#
#
# Mechanical properties :
#
#
# Convention : Reuss Voigt Hill
#
# Bulk Modulus (GPa) = 25.81786 28.03984 26.92885
# Shear Modulus (GPa) = -684.72639 35.45735 -324.63452
#
# Velocity S-wave (km/s) = -17.21343 3.91708 -11.85240
# Velocity P-wave (km/s) = 19.59330 5.70891 13.25341
#
# Compressibility (1/GPa) = 0.03873288
#
# Stress axis : x y z
#
# Youngs Moduli (GPa) = 70.35883 121.64382 69.60381
#
# Poissons Ratio (x) = 0.08265 -0.04853
# Poissons Ratio (y) = 0.04781 -0.06601
# Poissons Ratio (z) = -0.04905 -0.11537
#
# Static dielectric constant tensor:
#      x y z
#    x 1.906320 0.000000 0.000000 
#    y 0.000000 1.923610 0.000000 
#    z 0.000000 0.000000 1.786960 
# 
# From -- ./inp_files/10987.got.cif
#   From: 2010.05.17/outbox.cif.g08.bks.cpg/sg74_6_cif.got.tgz:10987.got - 2010.06.03 17:57:02.
