data_PCOD9535900
_publ_section_title
;
Structure prediction by ZEFSAII (Michael W. Deem and Ramdas Pophale) SiO2 
 PCOD9535900
Probable space group: I M M A
;
_chemical_formula_sum "Si O2"
_cell_formula_units_Z 96
_cell_length_a 8.579332
_cell_length_b 32.673768
_cell_length_c 19.017143
_cell_angle_alpha 90.000000
_cell_angle_beta 90.000000
_cell_angle_gamma 90.000000
_cell_volume 5330.868474
_symmetry_space_group_name_H-M "I M M A"
_symmetry_group_IT_number 74
_symmetry_cell_setting 'orthorhombic'
loop_
_space_group_symop_operation_xyz
x,y,z
-x,1/2-y,z
x,-y,-z
-x,1/2+y,-z
-x,-y,-z
x,1/2+y,-z
-x,y,z
x,1/2-y,z
1/2+x,1/2+y,1/2+z
1/2-x,-y,1/2+z
1/2+x,1/2-y,1/2-z
1/2-x,y,1/2-z
1/2-x,1/2-y,1/2-z
1/2+x,y,1/2-z
1/2-x,1/2+y,1/2+z
1/2+x,-y,1/2+z
loop_
_atom_site_type_symbol
_atom_site_label
_atom_site_fract_x
_atom_site_fract_y
_atom_site_fract_z
Si Si1 0.813868 0.955581 0.919193
Si Si2 0.185871 0.457001 0.577273
Si Si3 0.187058 0.794734 0.830102
Si Si4 0.811978 0.793851 0.170013
Si Si5 0.687992 0.383386 0.670180
Si Si6 0.814118 0.619868 0.670258
O O1 0.749705 0.918040 0.874039
O O2 0.000000 0.956394 0.916609
O O3 0.747465 0.999401 0.894454
O O4 0.757978 0.951355 0.999739
O O5 0.239939 0.419836 0.625626
O O6 0.000000 0.458563 0.571693
O O7 0.227455 0.750000 0.861576
O O8 0.250000 0.793740 0.750000
O O9 0.257172 0.836404 0.860751
O O10 0.000000 0.798131 0.828677
O O11 0.761855 0.750000 0.137844
O O12 0.750000 0.793721 0.250000
O O13 0.766061 0.838225 0.140520
O O14 0.000000 0.793821 0.171886
O O15 0.500000 0.386429 0.670201
O O16 0.750000 0.385677 0.750000
O O17 0.750000 0.617012 0.750000
O O18 0.000000 0.619346 0.672254
#
# Coordination Sequence:
#
# PCOD9535900 Si02
#       6
#    16  16  16  16  16  16
#     4  11  22  39  59  78 101 133 172 212 258 312
#     4  11  22  38  57  78 103 134 172 211 256 312
#     4   9  16  27  45  71 103 138 174 211 253 302
#     4   8  14  25  43  68  99 133 168 206 248 295
#     4  10  19  32  51  78 108 138 173 214 259 303
#     4  11  21  34  53  80 110 139 173 215 261 306
#
# _framework density 18.008322
#
# number of rings (size 3 to 8) (size 9 to 14) (size 15 to 20)
#    0.000    2.000    0.000    7.500    0.000    2.333 
#    0.000    3.333    0.000    1.000    0.000    2.333 
#    0.000    0.000    0.000    0.000    0.000    0.000 
#
# Total GULP energy -267624.411917 kJ/mol
# GULP energy per Si atom -5575.508582 kJ/mol
# Density = 1.796733 g / cm^3
# Si number density = 18.008322 Si / 1000 Ang^3
#
#
#
# Elastic Constant Matrix: (Units=GPa)
#
#
# Indices 1 2 3 4 5 6 
#
# 1 116.8206 61.5847 17.0005 0.0000 0.0000 0.0000
# 2 61.5847 225.0290 55.9903 0.0000 0.0000 0.0000
# 3 17.0005 55.9903 27.0952 0.0001 0.0000 0.0000
# 4 0.0000 0.0000 0.0001 -16.8496 0.0000 0.0000
# 5 0.0000 0.0000 0.0000 0.0000 23.3687 0.0000
# 6 0.0000 0.0000 0.0000 0.0000 0.0000 28.9958
#
#
#
# Elastic Compliance Matrix: (Units=1/GPa)
#
#
# Indices 1 2 3 4 5 6 
#
# 1 0.010025 -0.002426 -0.001277 0.000000 0.000000 0.000000
# 2 -0.002426 0.009734 -0.018592 0.000000 0.000000 0.000000
# 3 -0.001277 -0.018592 0.076127 0.000001 0.000000 0.000000
# 4 0.000000 0.000000 0.000001 -0.059349 0.000000 0.000000
# 5 0.000000 0.000000 0.000000 0.000000 0.042792 0.000000
# 6 0.000000 0.000000 0.000000 0.000000 0.000000 0.034488
#
#
# Mechanical properties :
#
#
# Convention : Reuss Voigt Hill
#
# Bulk Modulus (GPa) = 19.49484 70.89952 45.19718
# Shear Modulus (GPa) = 28.48913 22.72759 25.60836
#
# Velocity S-wave (km/s) = 3.98175 3.55640 3.77507
# Velocity P-wave (km/s) = 5.65580 7.50466 6.64485
#
# Compressibility (1/GPa) = 0.05129562
#
# Stress axis : x y z
#
# Youngs Moduli (GPa) = 99.75269 102.73647 13.13593
#
# Poissons Ratio (x) = 0.24921 0.01678
# Poissons Ratio (y) = 0.24197 0.24422
# Poissons Ratio (z) = 0.12742 1.91006
#
# Static dielectric constant tensor:
#      x y z
#    x 1.598750 0.000000 0.000000 
#    y 0.000000 1.677710 0.000000 
#    z 0.000000 0.000000 1.579430 
# 
# From -- ./inp_files/49115.got.cif
#   From: 2010.05.17/outbox.cif.g08.bks.cpg/sg74_25_cif.got.tgz:49115.got - 2010.06.03 17:57:02.
