data_PCOD9535429
_publ_section_title
;
Structure prediction by ZEFSAII (Michael W. Deem and Ramdas Pophale) SiO2 
 PCOD9535429
Probable space group: I M M A
;
_chemical_formula_sum "Si O2"
_cell_formula_units_Z 80
_cell_length_a 8.599034
_cell_length_b 28.337002
_cell_length_c 18.487556
_cell_angle_alpha 90.000000
_cell_angle_beta 90.000000
_cell_angle_gamma 90.000000
_cell_volume 4504.878368
_symmetry_space_group_name_H-M "I M M A"
_symmetry_group_IT_number 74
_symmetry_cell_setting 'orthorhombic'
loop_
_space_group_symop_operation_xyz
x,y,z
-x,1/2-y,z
x,-y,-z
-x,1/2+y,-z
-x,-y,-z
x,1/2+y,-z
-x,y,z
x,1/2-y,z
1/2+x,1/2+y,1/2+z
1/2-x,-y,1/2+z
1/2+x,1/2-y,1/2-z
1/2-x,y,1/2-z
1/2-x,1/2-y,1/2-z
1/2+x,y,1/2-z
1/2-x,1/2+y,1/2+z
1/2+x,-y,1/2+z
loop_
_atom_site_type_symbol
_atom_site_label
_atom_site_fract_x
_atom_site_fract_y
_atom_site_fract_z
Si Si1 0.313303 0.063455 0.385442
Si Si2 0.313489 0.960055 0.329446
Si Si3 0.312881 0.097639 0.963260
Si Si4 0.314085 0.839593 0.825994
Si Si5 0.189093 0.301542 0.480860
O O1 0.500000 0.066388 0.385643
O O2 0.251838 0.069509 0.467188
O O3 0.245639 0.107273 0.340407
O O4 0.266351 0.013302 0.352247
O O5 0.500000 0.958080 0.329384
O O6 0.250000 0.949474 0.250000
O O7 0.248562 0.924929 0.389989
O O8 0.500000 0.095828 0.965384
O O9 0.262343 0.152196 0.974782
O O10 0.500000 0.840130 0.823529
O O11 0.250000 0.821727 0.750000
O O12 0.265895 0.810477 0.897189
O O13 0.243690 0.250000 0.505283
O O14 0.000000 0.301289 0.482552
#
# Coordination Sequence:
#
# PCOD9535429 Si02
#       5
#    16  16  16  16  16
#     4  10  20  34  52  74 103 139 174 206 242 289
#     4  11  23  36  52  75 104 136 169 207 250 296
#     4  10  20  34  55  79 103 133 167 206 250 297
#     4  10  19  30  47  72 103 138 172 209 250 292
#     4   8  16  32  52  73  97 128 167 208 252 301
#
# _framework density 17.758527000000001
#
# number of rings (size 3 to 8) (size 9 to 14) (size 15 to 20)
#    0.000    2.200    0.000    4.800    0.000    7.600 
#    0.000    0.000    0.000   21.600    0.000    0.000 
#    0.000    0.000    0.000    0.000    0.000    0.000 
#
# Total GULP energy -223305.594495 kJ/mol
# GULP energy per Si atom -5582.639862 kJ/mol
# Density = 1.771811 g / cm^3
# Si number density = 17.758527 Si / 1000 Ang^3
#
#
#
# Elastic Constant Matrix: (Units=GPa)
#
#
# Indices 1 2 3 4 5 6 
#
# 1 34.4945 4.9503 6.0163 0.0002 0.0000 0.0000
# 2 4.9503 53.3682 6.5092 0.0005 0.0000 0.0000
# 3 6.0163 6.5092 63.2306 0.0013 0.0000 0.0000
# 4 0.0002 0.0005 0.0013 -71.3856 0.0000 0.0000
# 5 0.0000 0.0000 0.0000 0.0000 31.6665 0.0000
# 6 0.0000 0.0000 0.0000 0.0000 0.0000 6.2787
#
#
#
# Elastic Compliance Matrix: (Units=1/GPa)
#
#
# Indices 1 2 3 4 5 6 
#
# 1 0.029792 -0.002448 -0.002583 0.000000 0.000000 0.000000
# 2 -0.002448 0.019177 -0.001741 0.000000 0.000000 0.000000
# 3 -0.002583 -0.001741 0.016240 0.000000 0.000000 0.000000
# 4 0.000000 0.000000 0.000000 -0.014008 0.000000 0.000000
# 5 0.000000 0.000000 0.000000 0.000000 0.031579 0.000000
# 6 0.000000 0.000000 0.000000 0.000000 0.000000 0.159268
#
#
# Mechanical properties :
#
#
# Convention : Reuss Voigt Hill
#
# Bulk Modulus (GPa) = 19.35555 20.67166 20.01360
# Shear Modulus (GPa) = 18.32748 2.21977 10.27362
#
# Velocity S-wave (km/s) = 3.21602 1.11923 2.40785
# Velocity P-wave (km/s) = 4.97125 3.65184 4.36172
#
# Compressibility (1/GPa) = 0.05166476
#
# Stress axis : x y z
#
# Youngs Moduli (GPa) = 33.56615 52.14514 61.57595
#
# Poissons Ratio (x) = 0.12767 0.15903
# Poissons Ratio (y) = 0.08218 0.10722
# Poissons Ratio (z) = 0.08669 0.09080
#
# Static dielectric constant tensor:
#      x y z
#    x 1.601220 0.000000 0.000000 
#    y 0.000000 1.616800 0.000000 
#    z 0.000000 0.000000 1.586980 
# 
# From -- ./inp_files/39689.got.cif
#   From: 2010.05.17/outbox.cif.g08.bks.cpg/sg74_20_cif.got.tgz:39689.got - 2010.06.03 17:57:02.
