data_PCOD9535002
_publ_section_title
;
Structure prediction by ZEFSAII (Michael W. Deem and Ramdas Pophale) SiO2 
 PCOD9535002
Probable space group: I M M A
;
_chemical_formula_sum "Si O2"
_cell_formula_units_Z 68
_cell_length_a 12.181701
_cell_length_b 14.457720
_cell_length_c 21.238014
_cell_angle_alpha 90.000000
_cell_angle_beta 90.000000
_cell_angle_gamma 90.000000
_cell_volume 3740.431002
_symmetry_space_group_name_H-M "I M M A"
_symmetry_group_IT_number 74
_symmetry_cell_setting 'orthorhombic'
loop_
_space_group_symop_operation_xyz
x,y,z
-x,1/2-y,z
x,-y,-z
-x,1/2+y,-z
-x,-y,-z
x,1/2+y,-z
-x,y,z
x,1/2-y,z
1/2+x,1/2+y,1/2+z
1/2-x,-y,1/2+z
1/2+x,1/2-y,1/2-z
1/2-x,y,1/2-z
1/2-x,1/2-y,1/2-z
1/2+x,y,1/2-z
1/2-x,1/2+y,1/2+z
1/2+x,-y,1/2+z
loop_
_atom_site_type_symbol
_atom_site_label
_atom_site_fract_x
_atom_site_fract_y
_atom_site_fract_z
Si Si1 0.874910 0.750000 0.625604
Si Si2 0.127089 0.546408 0.634899
Si Si3 0.000000 0.575941 0.283218
Si Si4 0.304917 0.064977 0.555099
Si Si5 0.000000 0.361250 0.860092
Si Si6 0.000000 0.250000 0.622857
Si Si7 0.686849 0.250000 0.982083
O O1 0.828846 0.849903 0.645488
O O2 0.870975 0.750000 0.549688
O O3 0.000000 0.750000 0.649100
O O4 0.205372 0.490149 0.588616
O O5 0.000000 0.553931 0.608643
O O6 0.104397 0.487922 0.698235
O O7 0.000000 0.612443 0.213174
O O8 0.000000 0.660458 0.332630
O O9 0.394280 0.095428 0.605926
O O10 0.258289 0.157951 0.523979
O O11 0.350986 0.000000 0.500000
O O12 0.000000 0.250000 0.867023
O O13 0.103577 0.250000 0.576453
#
# Coordination Sequence:
#
# PCOD9535002 Si02
#       7
#     8  16   8  16   8   4   8
#     4  10  18  32  62  94 132 157 187 243 321 390
#     4   9  20  37  61  96 122 157 195 250 317 363
#     4  10  22  39  60  89 132 157 205 243 305 372
#     4  12  24  40  62  89 125 159 207 255 303 360
#     4  12  27  45  60  83 120 178 215 246 290 358
#     4  12  20  32  54 104 128 156 188 246 320 384
#     4  12  20  32  61  95 128 156 193 252 317 370
#
# _framework density 18.179722999999999
#
# number of rings (size 3 to 8) (size 9 to 14) (size 15 to 20)
#    0.706    0.471    7.059    0.353    0.000    1.412 
#    0.000    2.353    0.000    7.059    0.000    0.000 
#    0.000    0.000    0.000    0.000    0.000    0.000 
#
# Total GULP energy -189524.796713 kJ/mol
# GULP energy per Si atom -5574.258727 kJ/mol
# Density = 1.813835 g / cm^3
# Si number density = 18.179723 Si / 1000 Ang^3
#
#
#
# Elastic Constant Matrix: (Units=GPa)
#
#
# Indices 1 2 3 4 5 6 
#
# 1 44.0515 28.3245 21.4822 0.0000 0.0000 0.0000
# 2 28.3245 166.2811 45.4133 0.0000 0.0000 0.0000
# 3 21.4822 45.4133 96.2933 0.0000 0.0000 0.0000
# 4 0.0000 0.0000 0.0000 27.4254 0.0000 0.0000
# 5 0.0000 0.0000 0.0000 0.0000 13.0486 0.0000
# 6 0.0000 0.0000 0.0000 0.0000 0.0000 6.0279
#
#
#
# Elastic Compliance Matrix: (Units=1/GPa)
#
#
# Indices 1 2 3 4 5 6 
#
# 1 0.027046 -0.003397 -0.004432 0.000000 0.000000 0.000000
# 2 -0.003397 0.007330 -0.002699 0.000000 0.000000 0.000000
# 3 -0.004432 -0.002699 0.012647 0.000000 0.000000 0.000000
# 4 0.000000 0.000000 0.000000 0.036463 0.000000 0.000000
# 5 0.000000 0.000000 0.000000 0.000000 0.076636 0.000000
# 6 0.000000 0.000000 0.000000 0.000000 0.000000 0.165895
#
#
# Mechanical properties :
#
#
# Convention : Reuss Voigt Hill
#
# Bulk Modulus (GPa) = 38.51014 55.22953 46.86984
# Shear Modulus (GPa) = 14.05575 23.39411 18.72493
#
# Velocity S-wave (km/s) = 2.78358 3.59113 3.21283
# Velocity P-wave (km/s) = 5.61784 6.90222 6.29288
#
# Compressibility (1/GPa) = 0.02596719
#
# Stress axis : x y z
#
# Youngs Moduli (GPa) = 36.97414 136.43253 79.07314
#
# Poissons Ratio (x) = 0.46342 0.35044
# Poissons Ratio (y) = 0.12559 0.21342
# Poissons Ratio (z) = 0.16386 0.36823
#
# Static dielectric constant tensor:
#      x y z
#    x 1.631480 0.000000 0.000000 
#    y 0.000000 1.650900 0.000000 
#    z 0.000000 0.000000 1.589520 
# 
# From -- ./inp_files/50260.got.cif
#   From: 2010.05.17/outbox.cif.g08.bks.cpg/sg74_26_cif.got.tgz:50260.got - 2010.06.03 17:57:02.
