data_PCOD9535123
_publ_section_title
;
Structure prediction by ZEFSAII (Michael W. Deem and Ramdas Pophale) SiO2 
 PCOD9535123
Probable space group: I M M A
;
_chemical_formula_sum "Si O2"
_cell_formula_units_Z 64
_cell_length_a 22.930359
_cell_length_b 14.229049
_cell_length_c 8.493288
_cell_angle_alpha 90.000000
_cell_angle_beta 90.000000
_cell_angle_gamma 90.000000
_cell_volume 2771.166243
_symmetry_space_group_name_H-M "I M M A"
_symmetry_group_IT_number 74
_symmetry_cell_setting 'orthorhombic'
loop_
_space_group_symop_operation_xyz
x,y,z
-x,1/2-y,z
x,-y,-z
-x,1/2+y,-z
-x,-y,-z
x,1/2+y,-z
-x,y,z
x,1/2-y,z
1/2+x,1/2+y,1/2+z
1/2-x,-y,1/2+z
1/2+x,1/2-y,1/2-z
1/2-x,y,1/2-z
1/2-x,1/2-y,1/2-z
1/2+x,y,1/2-z
1/2-x,1/2+y,1/2+z
1/2+x,-y,1/2+z
loop_
_atom_site_type_symbol
_atom_site_label
_atom_site_fract_x
_atom_site_fract_y
_atom_site_fract_z
Si Si1 0.311700 0.750000 0.839787
Si Si2 0.500000 0.889337 0.038761
Si Si3 0.114891 0.076631 0.378171
Si Si4 0.500000 0.144614 0.586901
Si Si5 0.181438 0.250000 0.721789
Si Si6 0.119691 0.931439 0.118281
O O1 0.250000 0.750000 0.750000
O O2 0.343143 0.847750 0.799128
O O3 0.319350 0.750000 0.031343
O O4 0.500000 0.859209 0.220369
O O5 0.438236 0.865379 0.957747
O O6 0.500000 0.000000 0.000000
O O7 0.143053 0.000000 0.500000
O O8 0.094968 0.001401 0.250450
O O9 0.500000 0.250000 0.532980
O O10 0.438720 0.103735 0.533167
O O11 0.250000 0.250000 0.750000
O O12 0.152141 0.157193 0.801626
O O13 0.154900 0.000000 0.000000
#
# Coordination Sequence:
#
# PCOD9535123 Si02
#       6
#     8   8  16   8   8  16
#     4  12  28  47  73 106 146 187 255 319 367 439
#     4  10  18  34  71 104 138 182 240 296 361 454
#     4  11  22  44  72 107 141 187 250 305 369 445
#     4  12  21  40  74 105 148 193 243 303 382 451
#     4  12  28  51  71 100 144 201 251 303 376 450
#     4  12  26  45  75 107 150 195 244 306 380 457
#
# _framework density 23.094968999999999
#
# number of rings (size 3 to 8) (size 9 to 14) (size 15 to 20)
#    0.000    0.500    8.750    0.375    5.250    1.000 
#    0.000    0.000    0.000    0.000    0.000    0.000 
#    0.000    0.000    0.000    0.000    0.000    0.000 
#
# Total GULP energy -178359.584123 kJ/mol
# GULP energy per Si atom -5573.737004 kJ/mol
# Density = 2.304240 g / cm^3
# Si number density = 23.094969 Si / 1000 Ang^3
#
#
#
# Elastic Constant Matrix: (Units=GPa)
#
#
# Indices 1 2 3 4 5 6 
#
# 1 136.0298 65.8795 12.4662 0.0000 0.0000 0.0000
# 2 65.8795 169.4832 37.7317 0.0000 0.0000 0.0000
# 3 12.4662 37.7317 64.0012 0.0000 0.0000 0.0000
# 4 0.0000 0.0000 0.0000 37.3064 0.0000 0.0000
# 5 0.0000 0.0000 0.0000 0.0000 33.6791 0.0000
# 6 0.0000 0.0000 0.0000 0.0000 0.0000 33.8944
#
#
#
# Elastic Compliance Matrix: (Units=1/GPa)
#
#
# Indices 1 2 3 4 5 6 
#
# 1 0.009063 -0.003603 0.000359 0.000000 0.000000 0.000000
# 2 -0.003603 0.008224 -0.004147 0.000000 0.000000 0.000000
# 3 0.000359 -0.004147 0.017999 0.000000 0.000000 0.000000
# 4 0.000000 0.000000 0.000000 0.026805 0.000000 0.000000
# 5 0.000000 0.000000 0.000000 0.000000 0.029692 0.000000
# 6 0.000000 0.000000 0.000000 0.000000 0.000000 0.029503
#
#
# Mechanical properties :
#
#
# Convention : Reuss Voigt Hill
#
# Bulk Modulus (GPa) = 48.76823 66.85211 57.81017
# Shear Modulus (GPa) = 34.98860 37.87177 36.43018
#
# Velocity S-wave (km/s) = 3.89651 4.05387 3.97597
# Velocity P-wave (km/s) = 6.43474 7.13592 6.79438
#
# Compressibility (1/GPa) = 0.02050515
#
# Stress axis : x y z
#
# Youngs Moduli (GPa) = 110.33480 121.59692 55.55720
#
# Poissons Ratio (x) = 0.43809 -0.01993
# Poissons Ratio (y) = 0.39752 0.23037
# Poissons Ratio (z) = -0.03958 0.50422
#
# Static dielectric constant tensor:
#      x y z
#    x 1.924900 0.000000 0.000000 
#    y 0.000000 1.903430 0.000000 
#    z 0.000000 0.000000 2.004750 
# 
# From -- ./inp_files/13351.got.cif
#   From: 2010.05.17/outbox.cif.g08.bks.cpg/sg74_7_cif.got.tgz:13351.got - 2010.06.03 17:57:02.
