data_PCOD9535743
_publ_section_title
;
Structure prediction by ZEFSAII (Michael W. Deem and Ramdas Pophale) SiO2 
 PCOD9535743
Probable space group: I M M A
;
_chemical_formula_sum "Si O2"
_cell_formula_units_Z 104
_cell_length_a 8.702896
_cell_length_b 33.475571
_cell_length_c 20.567405
_cell_angle_alpha 90.000000
_cell_angle_beta 90.000000
_cell_angle_gamma 90.000000
_cell_volume 5991.992862
_symmetry_space_group_name_H-M "I M M A"
_symmetry_group_IT_number 74
_symmetry_cell_setting 'orthorhombic'
loop_
_space_group_symop_operation_xyz
x,y,z
-x,1/2-y,z
x,-y,-z
-x,1/2+y,-z
-x,-y,-z
x,1/2+y,-z
-x,y,z
x,1/2-y,z
1/2+x,1/2+y,1/2+z
1/2-x,-y,1/2+z
1/2+x,1/2-y,1/2-z
1/2-x,y,1/2-z
1/2-x,1/2-y,1/2-z
1/2+x,y,1/2-z
1/2-x,1/2+y,1/2+z
1/2+x,-y,1/2+z
loop_
_atom_site_type_symbol
_atom_site_label
_atom_site_fract_x
_atom_site_fract_y
_atom_site_fract_z
Si Si1 0.316855 0.250000 0.321981
Si Si2 0.315166 0.050945 0.678558
Si Si3 0.683628 0.902162 0.950853
Si Si4 0.315152 0.986161 0.571411
Si Si5 0.815628 0.186506 0.419518
Si Si6 0.184594 0.122345 0.597654
Si Si7 0.684348 0.794697 0.438191
O O1 0.500000 0.250000 0.320693
O O2 0.250000 0.250000 0.250000
O O3 0.255834 0.288052 0.361994
O O4 0.500000 0.051568 0.680196
O O5 0.250000 0.043322 0.750000
O O6 0.254079 0.093062 0.651139
O O7 0.264234 0.016690 0.627370
O O8 0.500000 0.907464 0.950399
O O9 0.760772 0.940880 0.920643
O O10 0.719456 0.860575 0.915300
O O11 0.730309 0.895268 0.026402
O O12 0.500000 0.987085 0.570530
O O13 0.259406 0.000000 0.500000
O O14 0.748078 0.201266 0.488315
O O15 0.000000 0.191425 0.421162
O O16 0.245331 0.167714 0.599968
O O17 0.000000 0.122539 0.600768
O O18 0.500000 0.798316 0.439465
O O19 0.723721 0.750000 0.414171
#
# Coordination Sequence:
#
# PCOD9535743 Si02
#       7
#     8  16  16  16  16  16  16
#     4  12  24  38  56  78 104 146 191 232 283 340
#     4  11  23  39  58  82 114 150 189 232 282 342
#     4   9  19  33  54  83 111 141 179 228 281 330
#     4  10  20  35  56  83 112 146 187 235 284 332
#     4  10  20  35  53  78 110 143 182 230 281 333
#     4  10  20  34  54  82 113 148 186 227 281 332
#     4  10  19  31  52  83 115 145 181 226 278 330
#
# _framework density 17.356496
#
# number of rings (size 3 to 8) (size 9 to 14) (size 15 to 20)
#    0.000    1.846    2.308    3.462    0.000    5.538 
#    0.000    0.769    0.000    2.308    0.000    0.000 
#    0.000    0.000    0.000    0.000    0.000    0.000 
#
# Total GULP energy -290271.998881 kJ/mol
# GULP energy per Si atom -5582.153825 kJ/mol
# Density = 1.731699 g / cm^3
# Si number density = 17.356496 Si / 1000 Ang^3
#
#
#
# Elastic Constant Matrix: (Units=GPa)
#
#
# Indices 1 2 3 4 5 6 
#
# 1 58.5903 47.0718 36.4018 0.0000 0.0000 0.0000
# 2 47.0718 155.6980 69.3777 0.0000 0.0000 0.0000
# 3 36.4018 69.3777 104.7587 0.0001 0.0000 0.0000
# 4 0.0000 0.0000 0.0001 23.6730 0.0000 0.0000
# 5 0.0000 0.0000 0.0000 0.0000 25.9131 0.0000
# 6 0.0000 0.0000 0.0000 0.0000 0.0000 48.7274
#
#
#
# Elastic Compliance Matrix: (Units=1/GPa)
#
#
# Indices 1 2 3 4 5 6 
#
# 1 0.024309 -0.005086 -0.005079 0.000000 0.000000 0.000000
# 2 -0.005086 0.010176 -0.004972 0.000000 0.000000 0.000000
# 3 -0.005079 -0.004972 0.014603 0.000000 0.000000 0.000000
# 4 0.000000 0.000000 0.000000 0.042242 0.000000 0.000000
# 5 0.000000 0.000000 0.000000 0.000000 0.038590 0.000000
# 6 0.000000 0.000000 0.000000 0.000000 0.000000 0.020522
#
#
# Mechanical properties :
#
#
# Convention : Reuss Voigt Hill
#
# Bulk Modulus (GPa) = 53.14909 69.41662 61.28286
# Shear Modulus (GPa) = 26.73971 30.74242 28.74107
#
# Velocity S-wave (km/s) = 3.92933 4.21317 4.07372
# Velocity P-wave (km/s) = 7.16063 7.98431 7.58366
#
# Compressibility (1/GPa) = 0.01881500
#
# Stress axis : x y z
#
# Youngs Moduli (GPa) = 41.13639 98.27289 68.47945
#
# Poissons Ratio (x) = 0.49986 0.34777
# Poissons Ratio (y) = 0.20924 0.34045
# Poissons Ratio (z) = 0.20891 0.48857
#
# Static dielectric constant tensor:
#      x y z
#    x 1.583480 0.000000 0.000000 
#    y 0.000000 1.600380 0.000000 
#    z 0.000000 0.000000 1.569390 
# 
# From -- ./inp_files/49637.got.cif
#   From: 2010.05.17/outbox.cif.g08.bks.cpg/sg74_25_cif.got.tgz:49637.got - 2010.06.03 17:57:02.
