data_PCOD9535065
_publ_section_title
;
Structure prediction by ZEFSAII (Michael W. Deem and Ramdas Pophale) SiO2 
 PCOD9535065
Probable space group: I M M A
;
_chemical_formula_sum "Si O2"
_cell_formula_units_Z 80
_cell_length_a 16.747336
_cell_length_b 16.287194
_cell_length_c 16.190476
_cell_angle_alpha 90.000000
_cell_angle_beta 90.000000
_cell_angle_gamma 90.000000
_cell_volume 4416.229355
_symmetry_space_group_name_H-M "I M M A"
_symmetry_group_IT_number 74
_symmetry_cell_setting 'orthorhombic'
loop_
_space_group_symop_operation_xyz
x,y,z
-x,1/2-y,z
x,-y,-z
-x,1/2+y,-z
-x,-y,-z
x,1/2+y,-z
-x,y,z
x,1/2-y,z
1/2+x,1/2+y,1/2+z
1/2-x,-y,1/2+z
1/2+x,1/2-y,1/2-z
1/2-x,y,1/2-z
1/2-x,1/2-y,1/2-z
1/2+x,y,1/2-z
1/2-x,1/2+y,1/2+z
1/2+x,-y,1/2+z
loop_
_atom_site_type_symbol
_atom_site_label
_atom_site_fract_x
_atom_site_fract_y
_atom_site_fract_z
Si Si1 0.841368 0.051049 0.425297
Si Si2 0.200804 0.156431 0.001056
Si Si3 0.655923 0.846081 0.772209
Si Si4 0.092067 0.937900 0.877414
Si Si5 0.717075 0.073525 0.660328
O O1 0.784350 0.120687 0.465213
O O2 0.878051 0.098770 0.347334
O O3 0.883175 0.000000 0.500000
O O4 0.783401 0.983988 0.383323
O O5 0.189026 0.250000 0.027293
O O6 0.201401 0.147156 0.902637
O O7 0.135297 0.095734 0.040504
O O8 0.653839 0.750000 0.792435
O O9 0.750000 0.866727 0.750000
O O10 0.606755 0.867312 0.690609
O O11 0.000000 0.954465 0.891215
O O12 0.138732 0.016214 0.840392
O O13 0.750000 0.095316 0.750000
#
# Coordination Sequence:
#
# PCOD9535065 Si02
#       5
#    16  16  16  16  16
#     4   9  16  29  50  71  95 128 163 211 257 300
#     4  10  20  31  48  77 106 131 166 213 262 305
#     4  11  18  29  51  75 101 132 171 217 265 309
#     4  11  21  34  51  76 111 143 169 205 262 327
#     4  10  18  34  53  72  99 137 179 215 249 302
#
# _framework density 18.115000999999999
#
# number of rings (size 3 to 8) (size 9 to 14) (size 15 to 20)
#    0.000    1.800    6.000    3.000    0.000    3.600 
#    0.000    0.000    0.000    0.600    0.000    0.000 
#    0.000    0.000    0.000    0.000    0.000    0.000 
#
# Total GULP energy -222857.655551 kJ/mol
# GULP energy per Si atom -5571.441389 kJ/mol
# Density = 1.807377 g / cm^3
# Si number density = 18.115001 Si / 1000 Ang^3
#
#
#
# Elastic Constant Matrix: (Units=GPa)
#
#
# Indices 1 2 3 4 5 6 
#
# 1 27.7922 -1.8022 17.8670 0.0000 0.0000 0.0000
# 2 -1.8022 38.8554 23.5991 0.0000 0.0000 0.0000
# 3 17.8670 23.5991 117.8142 0.0000 0.0000 0.0000
# 4 0.0000 0.0000 0.0000 31.5849 0.0000 0.0000
# 5 0.0000 0.0000 0.0000 0.0000 7.4381 0.0000
# 6 0.0000 0.0000 0.0000 0.0000 0.0000 2.4372
#
#
#
# Elastic Compliance Matrix: (Units=1/GPa)
#
#
# Indices 1 2 3 4 5 6 
#
# 1 0.041264 0.006506 -0.007561 0.000000 0.000000 0.000000
# 2 0.006506 0.030327 -0.007061 0.000000 0.000000 0.000000
# 3 -0.007561 -0.007061 0.011049 0.000000 0.000000 0.000000
# 4 0.000000 0.000000 0.000000 0.031661 0.000000 0.000000
# 5 0.000000 0.000000 0.000000 0.000000 0.134442 0.000000
# 6 0.000000 0.000000 0.000000 0.000000 0.000000 0.410306
#
#
# Mechanical properties :
#
#
# Convention : Reuss Voigt Hill
#
# Bulk Modulus (GPa) = 15.05854 29.30995 22.18424
# Shear Modulus (GPa) = 7.16931 17.94524 12.55727
#
# Velocity S-wave (km/s) = 1.99155 3.15084 2.63572
# Velocity P-wave (km/s) = 3.69041 5.42698 4.64065
#
# Compressibility (1/GPa) = 0.06640748
#
# Stress axis : x y z
#
# Youngs Moduli (GPa) = 24.23417 32.97387 90.50541
#
# Poissons Ratio (x) = -0.21453 0.68432
# Poissons Ratio (y) = -0.15767 0.63910
# Poissons Ratio (z) = 0.18324 0.23284
#
# Static dielectric constant tensor:
#      x y z
#    x 1.631470 0.000000 0.000000 
#    y 0.000000 1.624030 0.000000 
#    z 0.000000 0.000000 1.692270 
# 
# From -- ./inp_files/33960.got.cif
#   From: 2010.05.17/outbox.cif.g08.bks.cpg/sg74_17_cif.got.tgz:33960.got - 2010.06.03 17:57:02.
