data_PCOD9535782
_publ_section_title
;
Structure prediction by ZEFSAII (Michael W. Deem and Ramdas Pophale) SiO2 
 PCOD9535782
Probable space group: I M M A
;
_chemical_formula_sum "Si O2"
_cell_formula_units_Z 112
_cell_length_a 13.968250
_cell_length_b 28.713142
_cell_length_c 15.396059
_cell_angle_alpha 90.000000
_cell_angle_beta 90.000000
_cell_angle_gamma 90.000000
_cell_volume 6174.933498
_symmetry_space_group_name_H-M "I M M A"
_symmetry_group_IT_number 74
_symmetry_cell_setting 'orthorhombic'
loop_
_space_group_symop_operation_xyz
x,y,z
-x,1/2-y,z
x,-y,-z
-x,1/2+y,-z
-x,-y,-z
x,1/2+y,-z
-x,y,z
x,1/2-y,z
1/2+x,1/2+y,1/2+z
1/2-x,-y,1/2+z
1/2+x,1/2-y,1/2-z
1/2-x,y,1/2-z
1/2-x,1/2-y,1/2-z
1/2+x,y,1/2-z
1/2-x,1/2+y,1/2+z
1/2+x,-y,1/2+z
loop_
_atom_site_type_symbol
_atom_site_label
_atom_site_fract_x
_atom_site_fract_y
_atom_site_fract_z
Si Si1 0.384326 0.479423 0.269765
Si Si2 0.114199 0.462285 0.424595
Si Si3 0.614334 0.958457 0.428677
Si Si4 0.141570 0.301507 0.284539
Si Si5 0.249736 0.381852 0.491618
Si Si6 0.606779 0.380455 0.345529
Si Si7 0.111547 0.804161 0.508015
O O1 0.500000 0.478584 0.269651
O O2 0.355290 0.481605 0.169607
O O3 0.358248 0.520294 0.335358
O O4 0.355671 0.429892 0.310734
O O5 0.130921 0.500000 0.500000
O O6 0.172665 0.416269 0.447365
O O7 0.000000 0.452526 0.421740
O O8 0.500000 0.947678 0.429492
O O9 0.681154 0.914878 0.451595
O O10 0.627925 0.000000 0.500000
O O11 0.103325 0.250000 0.262503
O O12 0.250000 0.301275 0.250000
O O13 0.099560 0.344913 0.233489
O O14 0.128087 0.307244 0.387482
O O15 0.320666 0.362316 0.417644
O O16 0.187471 0.340211 0.532236
O O17 0.500000 0.387932 0.382201
O O18 0.127261 0.750000 0.484059
O O19 0.000000 0.815704 0.490572
#
# Coordination Sequence:
#
# PCOD9535782 Si02
#       7
#    16  16  16  16  16  16  16
#     4   9  19  35  53  71 100 140 182 223 265 319
#     4  10  22  37  51  75 108 140 176 221 272 323
#     4  10  19  35  54  76 104 138 182 228 271 317
#     4  10  19  32  47  69  98 133 181 234 276 318
#     4  12  21  33  51  77 103 137 181 233 268 316
#     4  11  21  31  48  72  97 134 181 224 266 312
#     4  10  21  36  52  69  98 142 186 226 274 333
#
# _framework density 18.137847000000001
#
# number of rings (size 3 to 8) (size 9 to 14) (size 15 to 20)
#    0.000    1.714    2.857    2.571    0.000    2.000 
#    0.000    0.000    0.000    1.286    0.000    0.000 
#    0.000    2.286    0.000    7.429    0.000    5.143 
#
# Total GULP energy -312616.756687 kJ/mol
# GULP energy per Si atom -5582.442084 kJ/mol
# Density = 1.809656 g / cm^3
# Si number density = 18.137847 Si / 1000 Ang^3
#
#
#
# Elastic Constant Matrix: (Units=GPa)
#
#
# Indices 1 2 3 4 5 6 
#
# 1 120.6214 48.1991 15.5595 0.0000 0.0000 0.0000
# 2 48.1991 99.1574 25.9567 0.0001 0.0000 0.0001
# 3 15.5595 25.9567 44.0514 0.0001 0.0000 -0.0010
# 4 0.0000 0.0001 0.0001 23.7499 0.0000 -0.0001
# 5 0.0000 0.0000 0.0000 0.0000 8.5265 0.0000
# 6 0.0000 0.0001 -0.0010 -0.0001 0.0000 438.8197
#
#
#
# Elastic Compliance Matrix: (Units=1/GPa)
#
#
# Indices 1 2 3 4 5 6 
#
# 1 0.010314 -0.004800 -0.000815 0.000000 0.000000 0.000000
# 2 -0.004800 0.014158 -0.006647 0.000000 0.000000 0.000000
# 3 -0.000815 -0.006647 0.026905 0.000000 0.000000 0.000000
# 4 0.000000 0.000000 0.000000 0.042105 0.000000 0.000000
# 5 0.000000 0.000000 0.000000 0.000000 0.117282 0.000000
# 6 0.000000 0.000000 0.000000 0.000000 0.000000 0.002279
#
#
# Mechanical properties :
#
#
# Convention : Reuss Voigt Hill
#
# Bulk Modulus (GPa) = 37.23894 49.25121 43.24508
# Shear Modulus (GPa) = 20.28254 105.82688 63.05471
#
# Velocity S-wave (km/s) = 3.34764 7.64673 5.90251
# Velocity P-wave (km/s) = 5.95969 10.25554 8.38732
#
# Compressibility (1/GPa) = 0.02685361
#
# Stress axis : x y z
#
# Youngs Moduli (GPa) = 96.96006 70.63014 37.16753
#
# Poissons Ratio (x) = 0.33903 0.03027
# Poissons Ratio (y) = 0.46541 0.24706
# Poissons Ratio (z) = 0.07897 0.46949
#
# Static dielectric constant tensor:
#      x y z
#    x 1.694990 0.000000 0.000000 
#    y 0.000000 1.632070 0.000000 
#    z 0.000000 0.000000 1.613370 
# 
# From -- ./inp_files/33125.got.cif
#   From: 2010.05.17/outbox.cif.g08.bks.cpg/sg74_17_cif.got.tgz:33125.got - 2010.06.03 17:57:02.
