data_PCOD9535336
_publ_section_title
;
Structure prediction by ZEFSAII (Michael W. Deem and Ramdas Pophale) SiO2 
 PCOD9535336
Probable space group: I M M A
;
_chemical_formula_sum "Si O2"
_cell_formula_units_Z 96
_cell_length_a 21.385802
_cell_length_b 7.318863
_cell_length_c 28.466097
_cell_angle_alpha 90.000000
_cell_angle_beta 90.000000
_cell_angle_gamma 90.000000
_cell_volume 4455.506528
_symmetry_space_group_name_H-M "I M M A"
_symmetry_group_IT_number 74
_symmetry_cell_setting 'orthorhombic'
loop_
_space_group_symop_operation_xyz
x,y,z
-x,1/2-y,z
x,-y,-z
-x,1/2+y,-z
-x,-y,-z
x,1/2+y,-z
-x,y,z
x,1/2-y,z
1/2+x,1/2+y,1/2+z
1/2-x,-y,1/2+z
1/2+x,1/2-y,1/2-z
1/2-x,y,1/2-z
1/2-x,1/2-y,1/2-z
1/2+x,y,1/2-z
1/2-x,1/2+y,1/2+z
1/2+x,-y,1/2+z
loop_
_atom_site_type_symbol
_atom_site_label
_atom_site_fract_x
_atom_site_fract_y
_atom_site_fract_z
Si Si1 0.429618 0.472217 0.215537
Si Si2 0.070167 0.467886 0.054674
Si Si3 0.806954 0.532272 0.555057
Si Si4 0.429889 0.472498 0.106896
Si Si5 0.187708 0.473714 0.114489
Si Si6 0.312440 0.472914 0.277233
O O1 0.500000 0.529424 0.228841
O O2 0.429307 0.250000 0.216195
O O3 0.418526 0.524931 0.161253
O O4 0.374541 0.532991 0.249710
O O5 0.067441 0.250000 0.061222
O O6 0.124952 0.535647 0.088140
O O7 0.000000 0.539604 0.063335
O O8 0.085580 0.500000 0.000000
O O9 0.798339 0.500000 0.500000
O O10 0.808130 0.750000 0.561885
O O11 0.873536 0.463383 0.574191
O O12 0.748645 0.464883 0.585747
O O13 0.500000 0.531493 0.093426
O O14 0.430446 0.250000 0.105987
O O15 0.187773 0.250000 0.113851
O O16 0.188979 0.529728 0.168638
O O17 0.312907 0.250000 0.276948
O O18 0.250000 0.529837 0.250000
#
# Coordination Sequence:
#
# PCOD9535336 Si02
#       6
#    16  16  16  16  16  16
#     4   8  13  21  34  53  78 107 134 159 194 243
#     4   9  17  29  44  61  83 111 140 170 205 244
#     4  10  19  30  44  61  83 111 141 173 207 243
#     4   8  14  25  40  58  82 111 138 165 203 248
#     4   9  17  27  39  57  82 111 139 168 206 247
#     4   9  15  22  34  53  78 107 135 162 196 242
#
# _framework density 21.546372999999999
#
# number of rings (size 3 to 8) (size 9 to 14) (size 15 to 20)
#    0.000    3.167    0.000    2.500    0.000    5.000 
#    0.000    3.333    0.000    0.000    0.000    0.000 
#    0.000   12.000    0.000    3.000    0.000    1.333 
#
# Total GULP energy -268055.634060 kJ/mol
# GULP energy per Si atom -5584.492376 kJ/mol
# Density = 2.149733 g / cm^3
# Si number density = 21.546373 Si / 1000 Ang^3
#
#
#
# Elastic Constant Matrix: (Units=GPa)
#
#
# Indices 1 2 3 4 5 6 
#
# 1 110.6663 4.8926 56.8340 0.0000 0.0000 0.0000
# 2 4.8926 86.4177 -2.5181 0.0000 0.0000 0.0000
# 3 56.8340 -2.5181 84.6941 0.0000 0.0000 0.0000
# 4 0.0000 0.0000 0.0000 7.8522 0.0000 0.0000
# 5 0.0000 0.0000 0.0000 0.0000 58.9858 0.0000
# 6 0.0000 0.0000 0.0000 0.0000 0.0000 -19.2613
#
#
#
# Elastic Compliance Matrix: (Units=1/GPa)
#
#
# Indices 1 2 3 4 5 6 
#
# 1 0.013884 -0.001058 -0.009348 0.000000 0.000000 0.000000
# 2 -0.001058 0.011662 0.001057 0.000000 0.000000 0.000000
# 3 -0.009348 0.001057 0.018112 0.000000 0.000000 0.000000
# 4 0.000000 0.000000 0.000000 0.127353 0.000000 0.000000
# 5 0.000000 0.000000 0.000000 0.000000 0.016953 0.000000
# 6 0.000000 0.000000 0.000000 0.000000 0.000000 -0.051918
#
#
# Mechanical properties :
#
#
# Convention : Reuss Voigt Hill
#
# Bulk Modulus (GPa) = 40.06617 44.46612 42.26614
# Shear Modulus (GPa) = 30.66247 24.35331 27.50789
#
# Velocity S-wave (km/s) = 3.77648 3.36560 3.57695
# Velocity P-wave (km/s) = 6.13608 5.98208 6.05957
#
# Compressibility (1/GPa) = 0.02495871
#
# Stress axis : x y z
#
# Youngs Moduli (GPa) = 72.02603 85.74549 55.21275
#
# Poissons Ratio (x) = 0.09076 0.51614
# Poissons Ratio (y) = 0.07623 -0.05836
# Poissons Ratio (z) = 0.67332 -0.09063
#
# Static dielectric constant tensor:
#      x y z
#    x 1.760630 0.000000 0.000000 
#    y 0.000000 1.900250 0.000000 
#    z 0.000000 0.000000 1.713650 
# 
# From -- ./inp_files/50763.got.cif
#   From: 2010.05.17/outbox.cif.g08.bks.cpg/sg74_26_cif.got.tgz:50763.got - 2010.06.03 17:57:02.
