data_PCOD9535376
_publ_section_title
;
Structure prediction by ZEFSAII (Michael W. Deem and Ramdas Pophale) SiO2 
 PCOD9535376
Probable space group: I M M A
;
_chemical_formula_sum "Si O2"
_cell_formula_units_Z 104
_cell_length_a 23.121231
_cell_length_b 8.760175
_cell_length_c 30.889280
_cell_angle_alpha 90.000000
_cell_angle_beta 90.000000
_cell_angle_gamma 90.000000
_cell_volume 6256.501027
_symmetry_space_group_name_H-M "I M M A"
_symmetry_group_IT_number 74
_symmetry_cell_setting 'orthorhombic'
loop_
_space_group_symop_operation_xyz
x,y,z
-x,1/2-y,z
x,-y,-z
-x,1/2+y,-z
-x,-y,-z
x,1/2+y,-z
-x,y,z
x,1/2-y,z
1/2+x,1/2+y,1/2+z
1/2-x,-y,1/2+z
1/2+x,1/2-y,1/2-z
1/2-x,y,1/2-z
1/2-x,1/2-y,1/2-z
1/2+x,y,1/2-z
1/2-x,1/2+y,1/2+z
1/2+x,-y,1/2+z
loop_
_atom_site_type_symbol
_atom_site_label
_atom_site_fract_x
_atom_site_fract_y
_atom_site_fract_z
Si Si1 0.429734 0.573491 0.219292
Si Si2 0.500000 0.067365 0.451621
Si Si3 0.848869 0.434574 0.547016
Si Si4 0.607100 0.567305 0.397708
Si Si5 0.068767 0.430580 0.190505
Si Si6 0.283773 0.433622 0.546800
Si Si7 0.433266 0.563527 0.123781
O O1 0.500000 0.572214 0.218062
O O2 0.411738 0.750000 0.224212
O O3 0.411931 0.480823 0.261600
O O4 0.412333 0.515329 0.171697
O O5 0.500000 0.250000 0.453398
O O6 0.500000 0.000000 0.500000
O O7 0.443893 0.009553 0.425530
O O8 0.864591 0.500000 0.500000
O O9 0.850871 0.250000 0.545017
O O10 0.782328 0.480590 0.556324
O O11 0.891965 0.485331 0.584896
O O12 0.601005 0.750000 0.401035
O O13 0.600300 0.516978 0.348185
O O14 0.668674 0.521372 0.418032
O O15 0.075396 0.250000 0.185069
O O16 0.000000 0.466376 0.186945
O O17 0.299908 0.500000 0.500000
O O18 0.284261 0.250000 0.543909
O O19 0.500000 0.515759 0.117295
O O20 0.433409 0.750000 0.124832
#
# Coordination Sequence:
#
# PCOD9535376 Si02
#       7
#    16   8  16  16  16  16  16
#     4   8  14  26  45  67  91 122 158 192 229 277
#     4  12  24  36  48  68  96 124 154 194 247 294
#     4   9  17  31  49  70  98 127 159 197 233 276
#     4  11  21  33  49  68  91 122 160 199 239 285
#     4  10  19  30  45  68  96 122 151 192 243 290
#     4   9  19  33  49  68  89 121 162 199 234 276
#     4   8  14  26  47  74 100 127 158 192 234 279
#
# _framework density 16.622710999999999
#
# number of rings (size 3 to 8) (size 9 to 14) (size 15 to 20)
#    0.000    2.615    0.769    3.000    0.000    3.385 
#    0.000    0.769    0.000    1.846    0.000    6.462 
#    0.000    0.000    0.000    0.000    0.000    0.000 
#
# Total GULP energy -289848.313911 kJ/mol
# GULP energy per Si atom -5574.006037 kJ/mol
# Density = 1.658488 g / cm^3
# Si number density = 16.622711 Si / 1000 Ang^3
#
#
#
# Elastic Constant Matrix: (Units=GPa)
#
#
# Indices 1 2 3 4 5 6 
#
# 1 66.8393 25.6702 77.2243 0.0000 0.0000 0.0000
# 2 25.6702 28.5823 39.8186 0.0000 0.0000 0.0000
# 3 77.2243 39.8186 164.6954 0.0000 0.0000 0.0000
# 4 0.0000 0.0000 0.0000 26.9307 0.0000 0.0000
# 5 0.0000 0.0000 0.0000 0.0000 14.0993 0.0000
# 6 0.0000 0.0000 0.0000 0.0000 0.0000 9.2200
#
#
#
# Elastic Compliance Matrix: (Units=1/GPa)
#
#
# Indices 1 2 3 4 5 6 
#
# 1 0.035657 -0.013167 -0.013536 0.000000 0.000000 0.000000
# 2 -0.013167 0.057618 -0.007756 0.000000 0.000000 0.000000
# 3 -0.013536 -0.007756 0.014294 0.000000 0.000000 0.000000
# 4 0.000000 0.000000 0.000000 0.037132 0.000000 0.000000
# 5 0.000000 0.000000 0.000000 0.000000 0.070926 0.000000
# 6 0.000000 0.000000 0.000000 0.000000 0.000000 0.108460
#
#
# Mechanical properties :
#
#
# Convention : Reuss Voigt Hill
#
# Bulk Modulus (GPa) = 25.87312 60.61593 43.24453
# Shear Modulus (GPa) = 12.31863 17.87692 15.09777
#
# Velocity S-wave (km/s) = 2.72522 3.28297 3.01701
# Velocity P-wave (km/s) = 5.04986 7.13550 6.18128
#
# Compressibility (1/GPa) = 0.03865014
#
# Stress axis : x y z
#
# Youngs Moduli (GPa) = 28.04473 17.35573 69.95945
#
# Poissons Ratio (x) = 0.22853 0.94697
# Poissons Ratio (y) = 0.36927 0.54263
# Poissons Ratio (z) = 0.37961 0.13462
#
# Static dielectric constant tensor:
#      x y z
#    x 1.550870 0.000000 0.000000 
#    y 0.000000 1.561730 0.000000 
#    z 0.000000 0.000000 1.558680 
# 
# From -- ./inp_files/73356.got.cif
#   From: 2010.05.17/outbox.cif.g08.bks.cpg/sg74_37_cif.got.tgz:73356.got - 2010.06.03 17:57:02.
