data_PCOD9535576
_publ_section_title
;
Structure prediction by ZEFSAII (Michael W. Deem and Ramdas Pophale) SiO2 
 PCOD9535576
Probable space group: I M M A
;
_chemical_formula_sum "Si O2"
_cell_formula_units_Z 100
_cell_length_a 9.174169
_cell_length_b 23.401535
_cell_length_c 23.394466
_cell_angle_alpha 90.000000
_cell_angle_beta 90.000000
_cell_angle_gamma 90.000000
_cell_volume 5022.549412
_symmetry_space_group_name_H-M "I M M A"
_symmetry_group_IT_number 74
_symmetry_cell_setting 'orthorhombic'
loop_
_space_group_symop_operation_xyz
x,y,z
-x,1/2-y,z
x,-y,-z
-x,1/2+y,-z
-x,-y,-z
x,1/2+y,-z
-x,y,z
x,1/2-y,z
1/2+x,1/2+y,1/2+z
1/2-x,-y,1/2+z
1/2+x,1/2-y,1/2-z
1/2-x,y,1/2-z
1/2-x,1/2-y,1/2-z
1/2+x,y,1/2-z
1/2-x,1/2+y,1/2+z
1/2+x,-y,1/2+z
loop_
_atom_site_type_symbol
_atom_site_label
_atom_site_fract_x
_atom_site_fract_y
_atom_site_fract_z
Si Si1 0.326846 0.528270 0.128280
Si Si2 0.171137 0.085757 0.513973
Si Si3 0.672488 0.406558 0.188897
Si Si4 0.668372 0.368829 0.692689
Si Si5 0.659858 0.135848 0.410768
Si Si6 0.500000 0.750000 0.558656
Si Si7 0.833974 0.184218 0.925727
O O1 0.500000 0.540667 0.131792
O O2 0.289719 0.537320 0.060961
O O3 0.302546 0.466865 0.156253
O O4 0.239897 0.574749 0.165059
O O5 0.263730 0.095180 0.457081
O O6 0.211102 0.144133 0.548025
O O7 0.000000 0.080753 0.500233
O O8 0.500000 0.398556 0.195507
O O9 0.750000 0.406754 0.250000
O O10 0.742900 0.361018 0.145757
O O11 0.500000 0.380372 0.705641
O O12 0.750000 0.352205 0.750000
O O13 0.676133 0.322203 0.642496
O O14 0.500000 0.111892 0.395028
O O15 0.624489 0.198372 0.436294
O O16 0.825638 0.250000 0.942729
O O17 0.000000 0.163989 0.941375
#
# Coordination Sequence:
#
# PCOD9535576 Si02
#       7
#    16  16  16  16  16   4  16
#     4   9  20  37  57  86 123 160 194 236 298 354
#     4  10  20  35  57  89 124 156 195 245 297 356
#     4  11  23  41  66  93 123 160 203 254 303 368
#     4  10  19  31  48  71 104 145 195 243 292 355
#     4  10  22  42  65  89 120 161 200 248 303 364
#     4   8  24  44  68  86 126 160 204 250 318 362
#     4   9  19  33  49  70 101 146 195 244 297 353
#
# _framework density 19.910208000000001
#
# number of rings (size 3 to 8) (size 9 to 14) (size 15 to 20)
#    0.480    1.760    0.000    2.400    1.120    5.120 
#    0.000    4.800    0.000    0.000    0.000    0.000 
#    0.000    0.000    0.000    0.000    0.000    0.000 
#
# Total GULP energy -278475.334490 kJ/mol
# GULP energy per Si atom -5569.506690 kJ/mol
# Density = 1.986489 g / cm^3
# Si number density = 19.910208 Si / 1000 Ang^3
#
#
#
# Elastic Constant Matrix: (Units=GPa)
#
#
# Indices 1 2 3 4 5 6 
#
# 1 74.0444 27.3462 57.5471 0.0000 0.0000 0.0000
# 2 27.3462 58.1154 18.9672 0.0000 0.0000 0.0000
# 3 57.5471 18.9672 133.0909 0.0000 0.0000 0.0000
# 4 0.0000 0.0000 0.0000 14.9986 0.0000 0.0000
# 5 0.0000 0.0000 0.0000 0.0000 39.5844 0.0000
# 6 0.0000 0.0000 0.0000 0.0000 0.0000 17.8115
#
#
#
# Elastic Compliance Matrix: (Units=1/GPa)
#
#
# Indices 1 2 3 4 5 6 
#
# 1 0.023503 -0.008120 -0.009005 0.000000 0.000000 0.000000
# 2 -0.008120 0.020852 0.000539 0.000000 0.000000 0.000000
# 3 -0.009005 0.000539 0.011331 0.000000 0.000000 0.000000
# 4 0.000000 0.000000 0.000000 0.066673 0.000000 0.000000
# 5 0.000000 0.000000 0.000000 0.000000 0.025262 0.000000
# 6 0.000000 0.000000 0.000000 0.000000 0.000000 0.056143
#
#
# Mechanical properties :
#
#
# Convention : Reuss Voigt Hill
#
# Bulk Modulus (GPa) = 44.41773 52.55240 48.48507
# Shear Modulus (GPa) = 20.45473 25.23824 22.84649
#
# Velocity S-wave (km/s) = 3.20871 3.56420 3.39112
# Velocity P-wave (km/s) = 6.00709 6.58711 6.30378
#
# Compressibility (1/GPa) = 0.02251353
#
# Stress axis : x y z
#
# Youngs Moduli (GPa) = 42.54701 47.95675 88.25655
#
# Poissons Ratio (x) = 0.38943 0.79478
# Poissons Ratio (y) = 0.34550 -0.04761
# Poissons Ratio (z) = 0.38315 -0.02587
#
# Static dielectric constant tensor:
#      x y z
#    x 1.686850 0.000000 0.000000 
#    y 0.000000 1.698790 0.000000 
#    z 0.000000 0.000000 1.745790 
# 
# From -- ./inp_files/49353.got.cif
#   From: 2010.05.17/outbox.cif.g08.bks.cpg/sg74_25_cif.got.tgz:49353.got - 2010.06.03 17:57:02.
