data_PCOD9535420
_publ_section_title
;
Structure prediction by ZEFSAII (Michael W. Deem and Ramdas Pophale) SiO2 
 PCOD9535420
Probable space group: I M M A
;
_chemical_formula_sum "Si O2"
_cell_formula_units_Z 96
_cell_length_a 9.524641
_cell_length_b 21.939035
_cell_length_c 21.283456
_cell_angle_alpha 90.000000
_cell_angle_beta 90.000000
_cell_angle_gamma 90.000000
_cell_volume 4447.421449
_symmetry_space_group_name_H-M "I M M A"
_symmetry_group_IT_number 74
_symmetry_cell_setting 'orthorhombic'
loop_
_space_group_symop_operation_xyz
x,y,z
-x,1/2-y,z
x,-y,-z
-x,1/2+y,-z
-x,-y,-z
x,1/2+y,-z
-x,y,z
x,1/2-y,z
1/2+x,1/2+y,1/2+z
1/2-x,-y,1/2+z
1/2+x,1/2-y,1/2-z
1/2-x,y,1/2-z
1/2-x,1/2-y,1/2-z
1/2+x,y,1/2-z
1/2-x,1/2+y,1/2+z
1/2+x,-y,1/2+z
loop_
_atom_site_type_symbol
_atom_site_label
_atom_site_fract_x
_atom_site_fract_y
_atom_site_fract_z
Si Si1 0.841572 0.348568 0.570607
Si Si2 0.160789 0.323504 0.050930
Si Si3 0.838420 0.655901 0.188739
Si Si4 0.841174 0.506840 0.428469
Si Si5 0.839333 0.507105 0.188934
Si Si6 0.663252 0.675988 0.690734
O O1 0.765291 0.341427 0.504101
O O2 0.743167 0.323877 0.626162
O O3 0.853258 0.420816 0.582337
O O4 0.000000 0.323683 0.570799
O O5 0.154882 0.250000 0.051231
O O6 0.208285 0.342811 0.120675
O O7 0.000000 0.345271 0.039948
O O8 0.750000 0.673950 0.250000
O O9 0.842309 0.581494 0.188122
O O10 0.000000 0.676255 0.190591
O O11 0.789724 0.500000 0.500000
O O12 0.737215 0.485084 0.374325
O O13 0.000000 0.480631 0.424643
O O14 0.750000 0.489956 0.250000
O O15 0.000000 0.486450 0.192419
O O16 0.500000 0.660667 0.697712
O O17 0.672412 0.750000 0.691440
O O18 0.750000 0.653012 0.750000
#
# Coordination Sequence:
#
# PCOD9535420 Si02
#       6
#    16  16  16  16  16  16
#     4  10  19  30  47  71  95 121 155 192 230 273
#     4   9  18  32  48  67  94 126 155 186 229 277
#     4   9  16  27  44  66  92 120 151 189 230 271
#     4   9  18  32  48  67  94 125 154 189 233 276
#     4   9  16  26  43  67  92 118 151 191 231 271
#     4   8  14  25  42  64  88 114 146 184 224 264
#
# _framework density 21.585540999999999
#
# number of rings (size 3 to 8) (size 9 to 14) (size 15 to 20)
#    0.000    3.000    0.000    2.500    0.000    6.000 
#    0.000    1.667    0.000    1.500    0.000    2.333 
#    0.000    0.000    0.000    0.000    0.000    0.000 
#
# Total GULP energy -267981.619708 kJ/mol
# GULP energy per Si atom -5582.950411 kJ/mol
# Density = 2.153641 g / cm^3
# Si number density = 21.585541 Si / 1000 Ang^3
#
#
#
# Elastic Constant Matrix: (Units=GPa)
#
#
# Indices 1 2 3 4 5 6 
#
# 1 190.0271 5.4609 156.9284 0.0000 0.0000 0.0000
# 2 5.4609 64.5111 -4.6879 0.0000 0.0000 0.0000
# 3 156.9284 -4.6879 233.6085 0.0000 0.0000 0.0000
# 4 0.0000 0.0000 0.0000 13.5333 0.0000 0.0000
# 5 0.0000 0.0000 0.0000 0.0000 35.9844 0.0000
# 6 0.0000 0.0000 0.0000 0.0000 0.0000 -9.0006
#
#
#
# Elastic Compliance Matrix: (Units=1/GPa)
#
#
# Indices 1 2 3 4 5 6 
#
# 1 0.011982 -0.001602 -0.008081 0.000000 0.000000 0.000000
# 2 -0.001602 0.015738 0.001392 0.000000 0.000000 0.000000
# 3 -0.008081 0.001392 0.009737 0.000000 0.000000 0.000000
# 4 0.000000 0.000000 0.000000 0.073892 0.000000 0.000000
# 5 0.000000 0.000000 0.000000 0.000000 0.027790 0.000000
# 6 0.000000 0.000000 0.000000 0.000000 0.000000 -0.111104
#
#
# Mechanical properties :
#
#
# Convention : Reuss Voigt Hill
#
# Bulk Modulus (GPa) = 47.90409 89.28330 68.59370
# Shear Modulus (GPa) = 96.94519 30.13310 63.53914
#
# Velocity S-wave (km/s) = 6.70892 3.74034 5.43138
# Velocity P-wave (km/s) = 9.06938 7.75280 8.43681
#
# Compressibility (1/GPa) = 0.02087504
#
# Stress axis : x y z
#
# Youngs Moduli (GPa) = 83.45830 63.54084 102.69910
#
# Poissons Ratio (x) = 0.10176 0.82993
# Poissons Ratio (y) = 0.13366 -0.14292
# Poissons Ratio (z) = 0.67444 -0.08843
#
# Static dielectric constant tensor:
#      x y z
#    x 1.750430 0.000000 0.000000 
#    y 0.000000 1.858110 0.000000 
#    z 0.000000 0.000000 1.752490 
# 
# From -- ./inp_files/49071.got.cif
#   From: 2010.05.17/outbox.cif.g08.bks.cpg/sg74_25_cif.got.tgz:49071.got - 2010.06.03 17:57:02.
