data_PCOD9535819
_publ_section_title
;
Structure prediction by ZEFSAII (Michael W. Deem and Ramdas Pophale) SiO2 
 PCOD9535819
Probable space group: I M M A
;
_chemical_formula_sum "Si O2"
_cell_formula_units_Z 104
_cell_length_a 23.838824
_cell_length_b 8.302201
_cell_length_c 29.123739
_cell_angle_alpha 90.000000
_cell_angle_beta 90.000000
_cell_angle_gamma 90.000000
_cell_volume 5764.016313
_symmetry_space_group_name_H-M "I M M A"
_symmetry_group_IT_number 74
_symmetry_cell_setting 'orthorhombic'
loop_
_space_group_symop_operation_xyz
x,y,z
-x,1/2-y,z
x,-y,-z
-x,1/2+y,-z
-x,-y,-z
x,1/2+y,-z
-x,y,z
x,1/2-y,z
1/2+x,1/2+y,1/2+z
1/2-x,-y,1/2+z
1/2+x,1/2-y,1/2-z
1/2-x,y,1/2-z
1/2-x,1/2-y,1/2-z
1/2+x,y,1/2-z
1/2-x,1/2+y,1/2+z
1/2+x,-y,1/2+z
loop_
_atom_site_type_symbol
_atom_site_label
_atom_site_fract_x
_atom_site_fract_y
_atom_site_fract_z
Si Si1 0.939746 0.055615 0.552185
Si Si2 0.276444 0.944560 0.448011
Si Si3 0.000000 0.941571 0.946064
Si Si4 0.323907 0.555307 0.696254
Si Si5 0.333005 0.555835 0.106339
Si Si6 0.693598 0.443405 0.201857
Si Si7 0.386805 0.443132 0.605543
O O1 0.938218 0.250000 0.553146
O O2 0.885691 0.993641 0.578074
O O3 0.000000 0.003610 0.571663
O O4 0.937247 0.000000 0.500000
O O5 0.276545 0.750000 0.447118
O O6 0.224873 0.002465 0.416604
O O7 0.335426 0.999969 0.426883
O O8 0.269281 0.000000 0.500000
O O9 0.000000 0.750000 0.948403
O O10 0.055160 0.995260 0.916889
O O11 0.000000 0.000000 0.000000
O O12 0.325761 0.750000 0.693250
O O13 0.332934 0.505669 0.749494
O O14 0.258242 0.503098 0.691868
O O15 0.365952 0.491499 0.657064
O O16 0.331706 0.750000 0.104408
O O17 0.339590 0.503056 0.158354
O O18 0.696306 0.250000 0.203628
O O19 0.389461 0.250000 0.604590
#
# Coordination Sequence:
#
# PCOD9535819 Si02
#       7
#    16  16   8  16  16  16  16
#     4   9  18  32  50  71  99 137 178 217 256 308
#     4  10  21  33  48  75 108 139 172 218 270 326
#     4  12  26  44  64  86 114 152 194 238 287 342
#     4   9  18  34  55  81 110 142 179 223 273 328
#     4  10  19  32  49  75 107 138 176 222 273 322
#     4   9  18  32  53  81 111 141 179 221 270 329
#     4  11  22  38  59  84 112 145 188 232 280 338
#
# _framework density 18.042974000000001
#
# number of rings (size 3 to 8) (size 9 to 14) (size 15 to 20)
#    0.000    2.154    1.538    3.000    0.000    4.308 
#    0.000    1.538    1.692    0.000    0.000    0.000 
#    0.000    0.000    0.000    0.000    0.000    0.000 
#
# Total GULP energy -289756.206160 kJ/mol
# GULP energy per Si atom -5572.234734 kJ/mol
# Density = 1.800191 g / cm^3
# Si number density = 18.042974 Si / 1000 Ang^3
#
#
#
# Elastic Constant Matrix: (Units=GPa)
#
#
# Indices 1 2 3 4 5 6 
#
# 1 112.6273 28.9781 75.0321 0.0000 0.0000 0.0000
# 2 28.9781 25.7892 19.7469 0.0000 0.0000 0.0000
# 3 75.0321 19.7469 149.3263 0.0000 0.0000 0.0000
# 4 0.0000 0.0000 0.0000 30.9639 0.0000 0.0000
# 5 0.0000 0.0000 0.0000 0.0000 13.4467 0.0000
# 6 0.0000 0.0000 0.0000 0.0000 0.0000 14.7008
#
#
#
# Elastic Compliance Matrix: (Units=1/GPa)
#
#
# Indices 1 2 3 4 5 6 
#
# 1 0.016875 -0.013874 -0.006645 0.000000 0.000000 0.000000
# 2 -0.013874 0.054551 -0.000243 0.000000 0.000000 0.000000
# 3 -0.006645 -0.000243 0.010068 0.000000 0.000000 0.000000
# 4 0.000000 0.000000 0.000000 0.032296 0.000000 0.000000
# 5 0.000000 0.000000 0.000000 0.000000 0.074367 0.000000
# 6 0.000000 0.000000 0.000000 0.000000 0.000000 0.068023
#
#
# Mechanical properties :
#
#
# Convention : Reuss Voigt Hill
#
# Bulk Modulus (GPa) = 25.01776 59.47300 42.24538
# Shear Modulus (GPa) = 16.07581 22.75468 19.41524
#
# Velocity S-wave (km/s) = 2.98816 3.55510 3.28389
# Velocity P-wave (km/s) = 5.07949 7.06294 6.15168
#
# Compressibility (1/GPa) = 0.03997161
#
# Stress axis : x y z
#
# Youngs Moduli (GPa) = 59.25899 18.33141 99.32940
#
# Poissons Ratio (x) = 0.25433 0.66000
# Poissons Ratio (y) = 0.82216 0.02409
# Poissons Ratio (z) = 0.39375 0.00445
#
# Static dielectric constant tensor:
#      x y z
#    x 1.632630 0.000000 0.000000 
#    y 0.000000 1.625050 0.000000 
#    z 0.000000 0.000000 1.593860 
# 
# From -- ./inp_files/68224.got.cif
#   From: 2010.05.17/outbox.cif.g08.bks.cpg/sg74_35_cif.got.tgz:68224.got - 2010.06.03 17:57:02.
