data_PCOD9535146
_publ_section_title
;
Structure prediction by ZEFSAII (Michael W. Deem and Ramdas Pophale) SiO2 
 PCOD9535146
Probable space group: I M M A
;
_chemical_formula_sum "Si O2"
_cell_formula_units_Z 68
_cell_length_a 23.691054
_cell_length_b 25.445620
_cell_length_c 4.952639
_cell_angle_alpha 90.000000
_cell_angle_beta 90.000000
_cell_angle_gamma 90.000000
_cell_volume 2985.616987
_symmetry_space_group_name_H-M "I M M A"
_symmetry_group_IT_number 74
_symmetry_cell_setting 'orthorhombic'
loop_
_space_group_symop_operation_xyz
x,y,z
-x,1/2-y,z
x,-y,-z
-x,1/2+y,-z
-x,-y,-z
x,1/2+y,-z
-x,y,z
x,1/2-y,z
1/2+x,1/2+y,1/2+z
1/2-x,-y,1/2+z
1/2+x,1/2-y,1/2-z
1/2-x,y,1/2-z
1/2-x,1/2-y,1/2-z
1/2+x,y,1/2-z
1/2-x,1/2+y,1/2+z
1/2+x,-y,1/2+z
loop_
_atom_site_type_symbol
_atom_site_label
_atom_site_fract_x
_atom_site_fract_y
_atom_site_fract_z
Si Si1 0.098089 0.308113 0.943558
Si Si2 0.639128 0.443074 0.962497
Si Si3 0.171865 0.170662 0.437693
Si Si4 0.937068 0.578335 0.957164
Si Si5 0.750000 0.250000 0.750000
O O1 0.073860 0.250000 0.978853
O O2 0.153022 0.312978 0.138021
O O3 0.062261 0.358239 0.026434
O O4 0.119292 0.314922 0.637215
O O5 0.677050 0.392272 0.031307
O O6 0.610953 0.438366 0.669087
O O7 0.666453 0.500000 0.000000
O O8 0.586054 0.438872 0.167761
O O9 0.222126 0.204320 0.554377
O O10 0.000000 0.559274 0.015694
#
# Coordination Sequence:
#
# PCOD9535146 Si02
#       5
#    16  16  16  16   4
#     4  10  18  36  51  77 118 146 177 223 284 337
#     4  10  21  38  55  76 115 152 183 229 283 332
#     4  10  22  33  57  85 107 142 182 228 285 334
#     4  10  21  33  54  84 108 147 198 231 267 322
#     4  12  20  38  64  90 110 134 188 244 272 346
#
# _framework density 22.775860000000002
#
# number of rings (size 3 to 8) (size 9 to 14) (size 15 to 20)
#    0.000    1.882    2.353    1.412    0.000    5.176 
#    0.000    0.000    0.000   16.941    0.000    0.000 
#    0.000    0.000    0.000    0.000    0.000    0.000 
#
# Total GULP energy -189479.525071 kJ/mol
# GULP energy per Si atom -5572.927208 kJ/mol
# Density = 2.272402 g / cm^3
# Si number density = 22.775860 Si / 1000 Ang^3
#
#
#
# Elastic Constant Matrix: (Units=GPa)
#
#
# Indices 1 2 3 4 5 6 
#
# 1 41.2023 14.9735 -3.8350 0.0000 0.0000 0.0000
# 2 14.9735 235.2141 -7.0867 0.0000 0.0000 0.0000
# 3 -3.8350 -7.0867 69.0971 0.0000 0.0000 0.0000
# 4 0.0000 0.0000 0.0000 20.5103 0.0000 0.0000
# 5 0.0000 0.0000 0.0000 0.0000 9.1384 0.0000
# 6 0.0000 0.0000 0.0000 0.0000 0.0000 -0.7078
#
#
#
# Elastic Compliance Matrix: (Units=1/GPa)
#
#
# Indices 1 2 3 4 5 6 
#
# 1 0.024948 -0.001551 0.001226 0.000000 0.000000 0.000000
# 2 -0.001551 0.004361 0.000361 0.000000 0.000000 0.000000
# 3 0.001226 0.000361 0.014577 0.000000 0.000000 0.000000
# 4 0.000000 0.000000 0.000000 0.048756 0.000000 0.000000
# 5 0.000000 0.000000 0.000000 0.000000 0.109429 0.000000
# 6 0.000000 0.000000 0.000000 0.000000 0.000000 -1.412804
#
#
# Mechanical properties :
#
#
# Convention : Reuss Voigt Hill
#
# Bulk Modulus (GPa) = 22.74906 39.29077 31.01992
# Shear Modulus (GPa) = -4.18008 28.55228 12.18610
#
# Velocity S-wave (km/s) = -1.35621 3.54449 2.31561
# Velocity P-wave (km/s) = 2.74910 5.83436 4.56055
#
# Compressibility (1/GPa) = 0.04395786
#
# Stress axis : x y z
#
# Youngs Moduli (GPa) = 40.08284 229.30106 68.59909
#
# Poissons Ratio (x) = 0.35570 -0.08407
# Poissons Ratio (y) = 0.06218 -0.02478
# Poissons Ratio (z) = -0.04912 -0.08282
#
# Static dielectric constant tensor:
#      x y z
#    x 1.833660 0.000000 0.000000 
#    y 0.000000 1.896920 0.000000 
#    z 0.000000 0.000000 1.797010 
# 
# From -- ./inp_files/4377.got.cif
#   From: 2010.05.17/outbox.cif.g08.bks.cpg/sg74_3_cif.got.tgz:4377.got - 2010.06.03 17:57:02.
