data_PCOD9535292
_publ_section_title
;
Structure prediction by ZEFSAII (Michael W. Deem and Ramdas Pophale) SiO2 
 PCOD9535292
Probable space group: I M M A
;
_chemical_formula_sum "Si O2"
_cell_formula_units_Z 96
_cell_length_a 19.879356
_cell_length_b 19.177511
_cell_length_c 15.399471
_cell_angle_alpha 90.000000
_cell_angle_beta 90.000000
_cell_angle_gamma 90.000000
_cell_volume 5870.841479
_symmetry_space_group_name_H-M "I M M A"
_symmetry_group_IT_number 74
_symmetry_cell_setting 'orthorhombic'
loop_
_space_group_symop_operation_xyz
x,y,z
-x,1/2-y,z
x,-y,-z
-x,1/2+y,-z
-x,-y,-z
x,1/2+y,-z
-x,y,z
x,1/2-y,z
1/2+x,1/2+y,1/2+z
1/2-x,-y,1/2+z
1/2+x,1/2-y,1/2-z
1/2-x,y,1/2-z
1/2-x,1/2-y,1/2-z
1/2+x,y,1/2-z
1/2-x,1/2+y,1/2+z
1/2+x,-y,1/2+z
loop_
_atom_site_type_symbol
_atom_site_label
_atom_site_fract_x
_atom_site_fract_y
_atom_site_fract_z
Si Si1 0.182733 0.167840 0.307627
Si Si2 0.341551 0.831196 0.334575
Si Si3 0.821117 0.669497 0.357111
Si Si4 0.141485 0.919009 0.000646
Si Si5 0.696359 0.580306 0.980871
Si Si6 0.421007 0.331111 0.345350
O O1 0.315592 0.250000 0.164557
O O2 0.250000 0.155958 0.250000
O O3 0.179188 0.115742 0.388920
O O4 0.120803 0.156968 0.242379
O O5 0.361772 0.750000 0.345350
O O6 0.260256 0.832744 0.346081
O O7 0.352702 0.853385 0.234763
O O8 0.372176 0.880590 0.407873
O O9 0.839348 0.750000 0.370577
O O10 0.835886 0.624435 0.441085
O O11 0.222196 0.915102 0.986744
O O12 0.106294 0.878646 0.922511
O O13 0.122178 0.000000 0.000000
O O14 0.678861 0.500000 0.000000
O O15 0.500000 0.341679 0.332001
O O16 0.409443 0.250000 0.369708
#
# Coordination Sequence:
#
# PCOD9535292 Si02
#       6
#    16  16  16  16  16  16
#     4  10  19  33  54  76 100 135 174 215 260 307
#     4   8  14  25  41  61  88 123 159 194 234 282
#     4   8  14  25  40  60  88 124 161 195 234 287
#     4  10  19  29  45  71 102 134 163 197 251 308
#     4  10  19  29  44  74 105 131 160 203 258 307
#     4  10  21  36  53  74 100 134 178 221 258 304
#
# _framework density 16.352
#
# number of rings (size 3 to 8) (size 9 to 14) (size 15 to 20)
#    0.000    2.667    1.667    2.000    0.000    3.000 
#    3.000    0.000    0.000    0.500    0.000    1.167 
#    0.000    4.000    0.000    0.000    0.000    0.000 
#
# Total GULP energy -267378.024157 kJ/mol
# GULP energy per Si atom -5570.375503 kJ/mol
# Density = 1.631478 g / cm^3
# Si number density = 16.352000 Si / 1000 Ang^3
#
#
#
# Elastic Constant Matrix: (Units=GPa)
#
#
# Indices 1 2 3 4 5 6 
#
# 1 27.6701 40.8911 35.1555 0.0000 0.0000 0.0000
# 2 40.8911 120.6261 117.3542 0.0000 0.0000 0.0000
# 3 35.1555 117.3542 162.9618 0.0000 0.0000 0.0000
# 4 0.0000 0.0000 0.0000 10.5079 0.0000 0.0000
# 5 0.0000 0.0000 0.0000 0.0000 12.8417 0.0000
# 6 0.0000 0.0000 0.0000 0.0000 0.0000 10.1869
#
#
#
# Elastic Compliance Matrix: (Units=1/GPa)
#
#
# Indices 1 2 3 4 5 6 
#
# 1 0.074796 -0.032255 0.007092 0.000000 0.000000 0.000000
# 2 -0.032255 0.041599 -0.022998 0.000000 0.000000 0.000000
# 3 0.007092 -0.022998 0.021168 0.000000 0.000000 0.000000
# 4 0.000000 0.000000 0.000000 0.095166 0.000000 0.000000
# 5 0.000000 0.000000 0.000000 0.000000 0.077871 0.000000
# 6 0.000000 0.000000 0.000000 0.000000 0.000000 0.098165
#
#
# Mechanical properties :
#
#
# Convention : Reuss Voigt Hill
#
# Bulk Modulus (GPa) = 24.24778 77.56217 50.90498
# Shear Modulus (GPa) = 9.63699 14.56446 12.10073
#
# Velocity S-wave (km/s) = 2.43028 2.98767 2.72327
# Velocity P-wave (km/s) = 4.76821 7.70956 6.40988
#
# Compressibility (1/GPa) = 0.04124088
#
# Stress axis : x y z
#
# Youngs Moduli (GPa) = 13.36969 24.03927 47.24080
#
# Poissons Ratio (x) = 0.77539 -0.33505
# Poissons Ratio (y) = 0.43124 1.08645
# Poissons Ratio (z) = -0.09482 0.55286
#
# Static dielectric constant tensor:
#      x y z
#    x 1.524910 0.000000 0.000000 
#    y 0.000000 1.553600 0.000000 
#    z 0.000000 0.000000 1.547230 
# 
# From -- ./inp_files/35294.got.cif
#   From: 2010.05.17/outbox.cif.g08.bks.cpg/sg74_18_cif.got.tgz:35294.got - 2010.06.03 17:57:02.
