data_PCOD9535931
_publ_section_title
;
Structure prediction by ZEFSAII (Michael W. Deem and Ramdas Pophale) SiO2 
 PCOD9535931
Probable space group: I M M A
;
_chemical_formula_sum "Si O2"
_cell_formula_units_Z 104
_cell_length_a 19.944346
_cell_length_b 9.927812
_cell_length_c 29.333557
_cell_angle_alpha 90.000000
_cell_angle_beta 90.000000
_cell_angle_gamma 90.000000
_cell_volume 5808.153335
_symmetry_space_group_name_H-M "I M M A"
_symmetry_group_IT_number 74
_symmetry_cell_setting 'orthorhombic'
loop_
_space_group_symop_operation_xyz
x,y,z
-x,1/2-y,z
x,-y,-z
-x,1/2+y,-z
-x,-y,-z
x,1/2+y,-z
-x,y,z
x,1/2-y,z
1/2+x,1/2+y,1/2+z
1/2-x,-y,1/2+z
1/2+x,1/2-y,1/2-z
1/2-x,y,1/2-z
1/2-x,1/2-y,1/2-z
1/2+x,y,1/2-z
1/2-x,1/2+y,1/2+z
1/2+x,-y,1/2+z
loop_
_atom_site_type_symbol
_atom_site_label
_atom_site_fract_x
_atom_site_fract_y
_atom_site_fract_z
Si Si1 0.291226 0.404044 0.455396
Si Si2 0.421361 0.905722 0.290448
Si Si3 0.858639 0.028897 0.446248
Si Si4 0.666202 0.897469 0.142028
Si Si5 0.500000 0.893183 0.960126
Si Si6 0.579277 0.090430 0.202816
Si Si7 0.678404 0.405999 0.626099
O O1 0.295678 0.500000 0.500000
O O2 0.314624 0.250000 0.462588
O O3 0.212125 0.395988 0.441938
O O4 0.326245 0.486012 0.414477
O O5 0.500000 0.916157 0.302531
O O6 0.409551 0.750000 0.275343
O O7 0.374949 0.929735 0.334130
O O8 0.408208 0.011969 0.250332
O O9 0.930107 0.094005 0.433587
O O10 0.862918 0.000000 0.500000
O O11 0.849680 0.905110 0.411977
O O12 0.647047 0.750000 0.159845
O O13 0.746101 0.915184 0.146180
O O14 0.625665 0.015307 0.166326
O O15 0.500000 0.750000 0.983897
O O16 0.500000 0.000000 0.000000
O O17 0.500000 0.073195 0.191987
O O18 0.592731 0.250000 0.205826
O O19 0.671180 0.250000 0.609708
#
# Coordination Sequence:
#
# PCOD9535931 Si02
#       7
#    16  16  16  16   8  16  16
#     4  10  19  32  52  76 106 143 180 216 259 309
#     4   9  18  36  62  85 105 135 172 210 258 322
#     4   9  20  34  49  71  98 133 175 223 265 305
#     4  10  21  36  54  76 104 140 179 219 263 314
#     4  10  20  32  46  64  90 124 166 216 262 300
#     4  10  22  38  54  76 107 141 176 219 267 312
#     4   9  19  35  55  82 111 136 172 219 264 310
#
# _framework density 17.905863
#
# number of rings (size 3 to 8) (size 9 to 14) (size 15 to 20)
#    0.000    2.462    0.000    1.385    1.077   11.385 
#    0.000    3.077    0.000    0.462    0.000    0.000 
#    0.000    0.000    0.000    0.000    0.000    0.000 
#
# Total GULP energy -289541.450794 kJ/mol
# GULP energy per Si atom -5568.104823 kJ/mol
# Density = 1.786511 g / cm^3
# Si number density = 17.905863 Si / 1000 Ang^3
#
#
#
# Elastic Constant Matrix: (Units=GPa)
#
#
# Indices 1 2 3 4 5 6 
#
# 1 51.0111 42.9680 51.9618 0.0000 0.0000 0.0000
# 2 42.9680 154.8597 66.6421 0.0000 0.0000 0.0000
# 3 51.9618 66.6421 88.8918 0.0000 0.0000 0.0000
# 4 0.0000 0.0000 0.0000 26.9046 0.0000 0.0000
# 5 0.0000 0.0000 0.0000 0.0000 21.2917 0.0000
# 6 0.0000 0.0000 0.0000 0.0000 0.0000 14.0728
#
#
#
# Elastic Compliance Matrix: (Units=1/GPa)
#
#
# Indices 1 2 3 4 5 6 
#
# 1 0.048820 -0.001867 -0.027138 0.000000 0.000000 0.000000
# 2 -0.001867 0.009604 -0.006109 0.000000 0.000000 0.000000
# 3 -0.027138 -0.006109 0.031693 0.000000 0.000000 0.000000
# 4 0.000000 0.000000 0.000000 0.037168 0.000000 0.000000
# 5 0.000000 0.000000 0.000000 0.000000 0.046967 0.000000
# 6 0.000000 0.000000 0.000000 0.000000 0.000000 0.071059
#
#
# Mechanical properties :
#
#
# Convention : Reuss Voigt Hill
#
# Bulk Modulus (GPa) = 50.27835 68.65628 59.46732
# Shear Modulus (GPa) = 15.51975 21.33319 18.42647
#
# Velocity S-wave (km/s) = 2.94724 3.45542 3.21140
# Velocity P-wave (km/s) = 6.30253 7.37198 6.85813
#
# Compressibility (1/GPa) = 0.01988928
#
# Stress axis : x y z
#
# Youngs Moduli (GPa) = 20.48327 104.11810 31.55266
#
# Poissons Ratio (x) = 0.19442 0.85628
# Poissons Ratio (y) = 0.03825 0.19275
# Poissons Ratio (z) = 0.55588 0.63605
#
# Static dielectric constant tensor:
#      x y z
#    x 1.616370 0.000000 0.000000 
#    y 0.000000 1.635270 0.000000 
#    z 0.000000 0.000000 1.621670 
# 
# From -- ./inp_files/73415.got.cif
#   From: 2010.05.17/outbox.cif.g08.bks.cpg/sg74_37_cif.got.tgz:73415.got - 2010.06.03 17:57:02.
