data_PCOD9535949
_publ_section_title
;
Structure prediction by ZEFSAII (Michael W. Deem and Ramdas Pophale) SiO2 
 PCOD9535949
Probable space group: I M M A
;
_chemical_formula_sum "Si O2"
_cell_formula_units_Z 104
_cell_length_a 9.332302
_cell_length_b 31.524781
_cell_length_c 20.721010
_cell_angle_alpha 90.000000
_cell_angle_beta 90.000000
_cell_angle_gamma 90.000000
_cell_volume 6096.095796
_symmetry_space_group_name_H-M "I M M A"
_symmetry_group_IT_number 74
_symmetry_cell_setting 'orthorhombic'
loop_
_space_group_symop_operation_xyz
x,y,z
-x,1/2-y,z
x,-y,-z
-x,1/2+y,-z
-x,-y,-z
x,1/2+y,-z
-x,y,z
x,1/2-y,z
1/2+x,1/2+y,1/2+z
1/2-x,-y,1/2+z
1/2+x,1/2-y,1/2-z
1/2-x,y,1/2-z
1/2-x,1/2-y,1/2-z
1/2+x,y,1/2-z
1/2-x,1/2+y,1/2+z
1/2+x,-y,1/2+z
loop_
_atom_site_type_symbol
_atom_site_label
_atom_site_fract_x
_atom_site_fract_y
_atom_site_fract_z
Si Si1 0.827604 0.969204 0.438191
Si Si2 0.664799 0.616481 0.471680
Si Si3 0.662566 0.299921 0.972142
Si Si4 0.662476 0.750000 0.685770
Si Si5 0.341557 0.892178 0.627865
Si Si6 0.655990 0.681670 0.875188
Si Si7 0.331251 0.012581 0.318450
O O1 0.764863 0.922285 0.449863
O O2 0.000000 0.968507 0.431443
O O3 0.794465 0.000000 0.500000
O O4 0.750734 0.986714 0.374193
O O5 0.500000 0.612338 0.449206
O O6 0.730801 0.662236 0.451200
O O7 0.659990 0.611399 0.549829
O O8 0.500000 0.304513 0.945429
O O9 0.705168 0.250000 0.964018
O O10 0.649347 0.309928 0.048537
O O11 0.500000 0.750000 0.699806
O O12 0.750000 0.750000 0.750000
O O13 0.712971 0.709747 0.646689
O O14 0.500000 0.876050 0.648481
O O15 0.202591 0.864956 0.646092
O O16 0.328052 0.939053 0.655604
O O17 0.500000 0.693560 0.848537
O O18 0.500000 0.000566 0.312913
O O19 0.250000 0.009078 0.250000
#
# Coordination Sequence:
#
# PCOD9535949 Si02
#       7
#    16  16  16   8  16  16  16
#     4  11  22  36  57  82 109 144 186 229 276 329
#     4  10  19  32  52  79 107 139 181 224 269 320
#     4   9  17  31  50  73 103 135 167 209 263 318
#     4  12  24  36  48  60  80 112 158 210 261 316
#     4   9  19  34  51  73 101 135 173 216 266 317
#     4  10  19  33  50  68  91 122 162 210 262 313
#     4  11  23  39  57  79 110 143 181 226 275 326
#
# _framework density 17.060099999999998
#
# number of rings (size 3 to 8) (size 9 to 14) (size 15 to 20)
#    0.000    1.846    2.308    2.538    0.000    4.000 
#    0.000    1.538    0.000    0.000    0.000    0.000 
#    0.000    0.615    0.000    2.308    0.000    3.538 
#
# Total GULP energy -289569.064628 kJ/mol
# GULP energy per Si atom -5568.635858 kJ/mol
# Density = 1.702127 g / cm^3
# Si number density = 17.060100 Si / 1000 Ang^3
#
#
#
# Elastic Constant Matrix: (Units=GPa)
#
#
# Indices 1 2 3 4 5 6 
#
# 1 135.9115 65.7691 37.4856 0.0000 0.0000 0.0000
# 2 65.7691 102.9400 22.4432 0.0000 0.0000 0.0000
# 3 37.4856 22.4432 43.8666 0.0000 0.0000 0.0000
# 4 0.0000 0.0000 0.0000 16.4773 0.0000 0.0000
# 5 0.0000 0.0000 0.0000 0.0000 22.8829 0.0000
# 6 0.0000 0.0000 0.0000 0.0000 0.0000 31.2480
#
#
#
# Elastic Compliance Matrix: (Units=1/GPa)
#
#
# Indices 1 2 3 4 5 6 
#
# 1 0.012477 -0.006356 -0.007410 0.000000 0.000000 0.000000
# 2 -0.006356 0.014172 -0.001819 0.000000 0.000000 0.000000
# 3 -0.007410 -0.001819 0.030060 0.000000 0.000000 0.000000
# 4 0.000000 0.000000 0.000000 0.060689 0.000000 0.000000
# 5 0.000000 0.000000 0.000000 0.000000 0.043701 0.000000
# 6 0.000000 0.000000 0.000000 0.000000 0.000000 0.032002
#
#
# Mechanical properties :
#
#
# Convention : Reuss Voigt Hill
#
# Bulk Modulus (GPa) = 39.15814 59.34599 49.25206
# Shear Modulus (GPa) = 21.47900 24.58965 23.03433
#
# Velocity S-wave (km/s) = 3.55212 3.80064 3.67848
# Velocity P-wave (km/s) = 6.31080 7.35675 6.85376
#
# Compressibility (1/GPa) = 0.02553748
#
# Stress axis : x y z
#
# Youngs Moduli (GPa) = 80.14439 70.56120 33.26732
#
# Poissons Ratio (x) = 0.44851 0.24652
# Poissons Ratio (y) = 0.50942 0.06052
# Poissons Ratio (z) = 0.59390 0.12836
#
# Static dielectric constant tensor:
#      x y z
#    x 1.587920 0.000000 0.000000 
#    y 0.000000 1.668250 0.000000 
#    z 0.000000 0.000000 2.667590 
# 
# From -- ./inp_files/49605.got.cif
#   From: 2010.05.17/outbox.cif.g08.bks.cpg/sg74_25_cif.got.tgz:49605.got - 2010.06.03 17:57:02.
