data_PCOD9535733
_publ_section_title
;
Structure prediction by ZEFSAII (Michael W. Deem and Ramdas Pophale) SiO2 
 PCOD9535733
Probable space group: I M M A
;
_chemical_formula_sum "Si O2"
_cell_formula_units_Z 112
_cell_length_a 7.504631
_cell_length_b 27.534804
_cell_length_c 24.121338
_cell_angle_alpha 90.000000
_cell_angle_beta 90.000000
_cell_angle_gamma 90.000000
_cell_volume 4984.398156
_symmetry_space_group_name_H-M "I M M A"
_symmetry_group_IT_number 74
_symmetry_cell_setting 'orthorhombic'
loop_
_space_group_symop_operation_xyz
x,y,z
-x,1/2-y,z
x,-y,-z
-x,1/2+y,-z
-x,-y,-z
x,1/2+y,-z
-x,y,z
x,1/2-y,z
1/2+x,1/2+y,1/2+z
1/2-x,-y,1/2+z
1/2+x,1/2-y,1/2-z
1/2-x,y,1/2-z
1/2-x,1/2-y,1/2-z
1/2+x,y,1/2-z
1/2-x,1/2+y,1/2+z
1/2+x,-y,1/2+z
loop_
_atom_site_type_symbol
_atom_site_label
_atom_site_fract_x
_atom_site_fract_y
_atom_site_fract_z
Si Si1 0.298985 0.692579 0.011838
Si Si2 0.786377 0.407402 0.124288
Si Si3 0.783099 0.556615 0.995843
Si Si4 0.786878 0.804621 0.606922
Si Si5 0.286984 0.001753 0.685924
Si Si6 0.298900 0.304123 0.635736
Si Si7 0.281414 0.093978 0.616059
O O1 0.500000 0.673233 0.019049
O O2 0.318527 0.750000 0.003325
O O3 0.194679 0.689608 0.068859
O O4 0.212203 0.679005 0.953536
O O5 0.744865 0.352447 0.142858
O O6 0.719824 0.449718 0.164725
O O7 0.000000 0.410427 0.122015
O O8 0.719402 0.421348 0.062383
O O9 0.730913 0.586080 0.051326
O O10 0.000000 0.557064 0.995338
O O11 0.730103 0.500000 0.000000
O O12 0.724412 0.750000 0.622296
O O13 0.000000 0.801285 0.600009
O O14 0.500000 0.001415 0.678229
O O15 0.250000 0.009624 0.750000
O O16 0.221308 0.046165 0.648454
O O17 0.500000 0.302544 0.658084
O O18 0.219018 0.250000 0.646362
O O19 0.216777 0.356933 0.647500
O O20 0.500000 0.096085 0.617266
#
# Coordination Sequence:
#
# PCOD9535733 Si02
#       7
#    16  16  16  16  16  16  16
#     4   8  14  25  39  58  92 136 169 189 221 279
#     4  10  19  31  52  79 101 126 165 209 248 289
#     4   9  14  24  44  72 103 131 159 196 246 297
#     4   9  18  31  46  67 100 139 168 192 236 296
#     4  10  21  37  55  74  96 126 165 205 248 296
#     4   9  16  25  41  68  97 124 160 206 248 285
#     4   9  16  28  47  71 100 131 161 196 243 297
#
# _framework density 22.470115
#
# number of rings (size 3 to 8) (size 9 to 14) (size 15 to 20)
#    0.000    2.857    1.429    1.714    0.000    2.571 
#    0.000    2.143    0.000    2.143    0.000    0.000 
#    0.000    0.000    0.000    0.000    0.000    0.000 
#
# Total GULP energy -311920.623677 kJ/mol
# GULP energy per Si atom -5570.011137 kJ/mol
# Density = 2.241897 g / cm^3
# Si number density = 22.470115 Si / 1000 Ang^3
#
#
#
# Elastic Constant Matrix: (Units=GPa)
#
#
# Indices 1 2 3 4 5 6 
#
# 1 65.7486 10.1895 1.1576 0.0000 0.0000 -0.0001
# 2 10.1895 131.8505 -6.6793 0.0000 0.0000 -0.0001
# 3 1.1576 -6.6793 29.6461 0.0000 0.0000 -0.0005
# 4 0.0000 0.0000 0.0000 -0.7641 0.0000 -0.0004
# 5 0.0000 0.0000 0.0000 0.0000 10.7361 0.0000
# 6 -0.0001 -0.0001 -0.0005 -0.0004 0.0000 -798.9099
#
#
#
# Elastic Compliance Matrix: (Units=1/GPa)
#
#
# Indices 1 2 3 4 5 6 
#
# 1 0.015416 -0.001236 -0.000880 0.000000 0.000000 0.000000
# 2 -0.001236 0.007771 0.001799 0.000000 0.000000 0.000000
# 3 -0.000880 0.001799 0.034171 0.000000 0.000000 0.000000
# 4 0.000000 0.000000 0.000000 -1.308688 0.000000 0.000001
# 5 0.000000 0.000000 0.000000 0.000000 0.093144 0.000000
# 6 0.000000 0.000000 0.000000 0.000001 0.000000 -0.001252
#
#
# Mechanical properties :
#
#
# Convention : Reuss Voigt Hill
#
# Bulk Modulus (GPa) = 17.62932 26.28678 21.95805
# Shear Modulus (GPa) = -4.38637 -142.94909 -73.66773
#
# Velocity S-wave (km/s) = -1.39869 -7.98471 -5.73201
# Velocity P-wave (km/s) = 2.29222 8.56057 5.83220
#
# Compressibility (1/GPa) = 0.05672369
#
# Stress axis : x y z
#
# Youngs Moduli (GPa) = 64.86559 128.68354 29.26463
#
# Poissons Ratio (x) = 0.15905 0.02577
# Poissons Ratio (y) = 0.08017 -0.05265
# Poissons Ratio (z) = 0.05711 -0.23151
#
# Static dielectric constant tensor:
#      x y z
#    x 1.833310 0.000000 0.000000 
#    y 0.000000 1.932490 0.000000 
#    z 0.000000 0.000000 1.813470 
# 
# From -- ./inp_files/50992.got.cif
#   From: 2010.05.17/outbox.cif.g08.bks.cpg/sg74_26_cif.got.tgz:50992.got - 2010.06.03 17:57:02.
