data_PCOD9535509
_publ_section_title
;
Structure prediction by ZEFSAII (Michael W. Deem and Ramdas Pophale) SiO2 
 PCOD9535509
Probable space group: I M M A
;
_chemical_formula_sum "Si O2"
_cell_formula_units_Z 56
_cell_length_a 19.679121
_cell_length_b 5.435222
_cell_length_c 32.833068
_cell_angle_alpha 90.000000
_cell_angle_beta 90.000000
_cell_angle_gamma 90.000000
_cell_volume 3511.837804
_symmetry_space_group_name_H-M "I M M A"
_symmetry_group_IT_number 74
_symmetry_cell_setting 'orthorhombic'
loop_
_space_group_symop_operation_xyz
x,y,z
-x,1/2-y,z
x,-y,-z
-x,1/2+y,-z
-x,-y,-z
x,1/2+y,-z
-x,y,z
x,1/2-y,z
1/2+x,1/2+y,1/2+z
1/2-x,-y,1/2+z
1/2+x,1/2-y,1/2-z
1/2-x,y,1/2-z
1/2-x,1/2-y,1/2-z
1/2+x,y,1/2-z
1/2-x,1/2+y,1/2+z
1/2+x,-y,1/2+z
loop_
_atom_site_type_symbol
_atom_site_label
_atom_site_fract_x
_atom_site_fract_y
_atom_site_fract_z
Si Si1 0.077490 0.250000 0.572292
Si Si2 0.813223 0.250000 0.498209
Si Si3 0.223244 0.750000 0.203009
Si Si4 0.924016 0.750000 0.232471
Si Si5 0.924523 0.750000 0.714004
Si Si6 0.785192 0.250000 0.333744
Si Si7 0.631588 0.250000 0.092409
O O1 0.130343 0.250000 0.534261
O O2 0.091652 0.495343 0.598396
O O3 0.000000 0.250000 0.557421
O O4 0.772235 0.500000 0.500000
O O5 0.851874 0.250000 0.455495
O O6 0.250000 0.750000 0.250000
O O7 0.141570 0.750000 0.203904
O O8 0.249873 0.499328 0.182069
O O9 0.919090 0.499925 0.259279
O O10 0.000000 0.750000 0.213979
O O11 0.861863 0.750000 0.683691
O O12 0.000000 0.750000 0.695250
O O13 0.799190 0.250000 0.381870
#
# Coordination Sequence:
#
# PCOD9535509 Si02
#       7
#     8   8   8   8   8   8   8
#     4  10  19  32  49  66  89 128 176 208 233 280
#     4   8  16  29  45  62  84 117 161 199 237 271
#     4  12  21  35  56  71  89 123 163 197 236 302
#     4  10  20  34  51  70  88 111 151 199 237 275
#     4  10  19  31  45  65  92 119 148 192 240 280
#     4  12  22  34  49  71  96 123 160 197 250 298
#     4  10  21  32  43  66  94 120 154 207 252 279
#
# _framework density 15.946068
#
# number of rings (size 3 to 8) (size 9 to 14) (size 15 to 20)
#    0.000    1.714    2.857    2.571    0.000    6.286 
#    0.000    1.429    0.000    0.000    0.000    0.000 
#    0.000    0.000    0.000    0.000    0.000  128.571 
#
# Total GULP energy -155913.470967 kJ/mol
# GULP energy per Si atom -5568.338249 kJ/mol
# Density = 1.590977 g / cm^3
# Si number density = 15.946068 Si / 1000 Ang^3
#
#
#
# Elastic Constant Matrix: (Units=GPa)
#
#
# Indices 1 2 3 4 5 6 
#
# 1 88.6153 24.9491 15.3217 0.0000 0.0000 0.0000
# 2 24.9491 171.7680 27.9741 0.0000 0.0000 0.0000
# 3 15.3217 27.9741 17.7113 0.0000 0.0000 0.0000
# 4 0.0000 0.0000 0.0000 8.6686 0.0000 0.0000
# 5 0.0000 0.0000 0.0000 0.0000 10.6160 0.0000
# 6 0.0000 0.0000 0.0000 0.0000 0.0000 29.9633
#
#
#
# Elastic Compliance Matrix: (Units=1/GPa)
#
#
# Indices 1 2 3 4 5 6 
#
# 1 0.013270 -0.000078 -0.011357 0.000000 0.000000 0.000000
# 2 -0.000078 0.007838 -0.012313 0.000000 0.000000 0.000000
# 3 -0.011357 -0.012313 0.085733 0.000000 0.000000 0.000000
# 4 0.000000 0.000000 0.000000 0.115359 0.000000 0.000000
# 5 0.000000 0.000000 0.000000 0.000000 0.094198 0.000000
# 6 0.000000 0.000000 0.000000 0.000000 0.000000 0.033374
#
#
# Mechanical properties :
#
#
# Convention : Reuss Voigt Hill
#
# Bulk Modulus (GPa) = 16.85015 46.06494 31.45754
# Shear Modulus (GPa) = 11.98897 23.83956 17.91426
#
# Velocity S-wave (km/s) = 2.74495 3.87073 3.35539
# Velocity P-wave (km/s) = 4.54272 6.99482 5.89761
#
# Compressibility (1/GPa) = 0.05934667
#
# Stress axis : x y z
#
# Youngs Moduli (GPa) = 75.35644 127.57704 11.66410
#
# Poissons Ratio (x) = 0.00994 0.13247
# Poissons Ratio (y) = 0.00587 0.14362
# Poissons Ratio (z) = 0.85580 1.57084
#
# Static dielectric constant tensor:
#      x y z
#    x 1.507360 0.000000 0.000000 
#    y 0.000000 1.635350 0.000000 
#    z 0.000000 0.000000 1.574560 
# 
# From -- ./inp_files/72809.got.cif
#   From: 2010.05.17/outbox.cif.g08.bks.cpg/sg74_37_cif.got.tgz:72809.got - 2010.06.03 17:57:02.
