data_PCOD9535739
_publ_section_title
;
Structure prediction by ZEFSAII (Michael W. Deem and Ramdas Pophale) SiO2 
 PCOD9535739
Probable space group: I M M A
;
_chemical_formula_sum "Si O2"
_cell_formula_units_Z 72
_cell_length_a 28.106782
_cell_length_b 8.030697
_cell_length_c 15.262036
_cell_angle_alpha 90.000000
_cell_angle_beta 90.000000
_cell_angle_gamma 90.000000
_cell_volume 3444.901741
_symmetry_space_group_name_H-M "I M M A"
_symmetry_group_IT_number 74
_symmetry_cell_setting 'orthorhombic'
loop_
_space_group_symop_operation_xyz
x,y,z
-x,1/2-y,z
x,-y,-z
-x,1/2+y,-z
-x,-y,-z
x,1/2+y,-z
-x,y,z
x,1/2-y,z
1/2+x,1/2+y,1/2+z
1/2-x,-y,1/2+z
1/2+x,1/2-y,1/2-z
1/2-x,y,1/2-z
1/2-x,1/2-y,1/2-z
1/2+x,y,1/2-z
1/2-x,1/2+y,1/2+z
1/2+x,-y,1/2+z
loop_
_atom_site_type_symbol
_atom_site_label
_atom_site_fract_x
_atom_site_fract_y
_atom_site_fract_z
Si Si1 0.000000 0.553702 0.602236
Si Si2 0.668695 0.050036 0.908486
Si Si3 0.627138 0.450968 0.598576
Si Si4 0.910939 0.549258 0.278611
Si Si5 0.767274 0.452793 0.847966
O O1 0.000000 0.500000 0.500000
O O2 0.954523 0.497810 0.659313
O O3 0.000000 0.750000 0.600054
O O4 0.670494 0.250000 0.903445
O O5 0.637059 0.991537 0.827612
O O6 0.722623 0.986102 0.904613
O O7 0.645660 0.000000 0.000000
O O8 0.614268 0.500000 0.500000
O O9 0.628192 0.250000 0.601169
O O10 0.592507 0.508032 0.677652
O O11 0.680914 0.511614 0.621839
O O12 0.910169 0.750000 0.276369
O O13 0.769514 0.250000 0.851302
O O14 0.750000 0.494509 0.750000
#
# Coordination Sequence:
#
# PCOD9535739 Si02
#       5
#     8  16  16  16  16
#     4  12  26  44  67  92 117 146 181 232 294 352
#     4  10  19  31  52  80 111 148 189 230 276 332
#     4  10  20  35  58  85 117 158 199 240 287 338
#     4  10  21  39  61  85 114 151 193 237 287 345
#     4   9  15  29  52  78 111 154 197 231 273 332
#
# _framework density 20.900449999999999
#
# number of rings (size 3 to 8) (size 9 to 14) (size 15 to 20)
#    0.000    2.000    2.222    2.333    0.000    3.556 
#    0.000    0.556    0.000    1.333    0.000    0.000 
#    0.000    0.000    0.000    0.000    0.000    0.000 
#
# Total GULP energy -200804.657421 kJ/mol
# GULP energy per Si atom -5577.907151 kJ/mol
# Density = 2.085288 g / cm^3
# Si number density = 20.900450 Si / 1000 Ang^3
#
#
#
# Elastic Constant Matrix: (Units=GPa)
#
#
# Indices 1 2 3 4 5 6 
#
# 1 97.8731 14.8473 72.8525 0.0000 0.0000 0.0000
# 2 14.8473 18.5347 19.7805 0.0000 0.0000 0.0000
# 3 72.8525 19.7805 217.9753 0.0000 0.0000 0.0000
# 4 0.0000 0.0000 0.0000 26.8825 0.0000 0.0000
# 5 0.0000 0.0000 0.0000 0.0000 30.6064 0.0000
# 6 0.0000 0.0000 0.0000 0.0000 0.0000 5.3350
#
#
#
# Elastic Compliance Matrix: (Units=1/GPa)
#
#
# Indices 1 2 3 4 5 6 
#
# 1 0.014394 -0.007082 -0.004168 0.000000 0.000000 0.000000
# 2 -0.007082 0.063223 -0.003370 0.000000 0.000000 0.000000
# 3 -0.004168 -0.003370 0.006287 0.000000 0.000000 0.000000
# 4 0.000000 0.000000 0.000000 0.037199 0.000000 0.000000
# 5 0.000000 0.000000 0.000000 0.000000 0.032673 0.000000
# 6 0.000000 0.000000 0.000000 0.000000 0.000000 0.187440
#
#
# Mechanical properties :
#
#
# Convention : Reuss Voigt Hill
#
# Bulk Modulus (GPa) = 18.29405 61.03820 39.66612
# Shear Modulus (GPa) = 12.86412 27.69164 20.27788
#
# Velocity S-wave (km/s) = 2.48361 3.64391 3.11820
# Velocity P-wave (km/s) = 4.12266 6.85359 5.65544
#
# Compressibility (1/GPa) = 0.05466259
#
# Stress axis : x y z
#
# Youngs Moduli (GPa) = 69.47172 15.81702 159.06750
#
# Poissons Ratio (x) = 0.11202 0.66303
# Poissons Ratio (y) = 0.49202 0.53609
# Poissons Ratio (z) = 0.28958 0.05331
#
# Static dielectric constant tensor:
#      x y z
#    x 1.814350 0.000000 0.000000 
#    y 0.000000 1.747530 0.000000 
#    z 0.000000 0.000000 1.846700 
# 
# From -- ./inp_files/29145.got.cif
#   From: 2010.05.17/outbox.cif.g08.bks.cpg/sg74_15_cif.got.tgz:29145.got - 2010.06.03 17:57:02.
