data_PCOD9535610
_publ_section_title
;
Structure prediction by ZEFSAII (Michael W. Deem and Ramdas Pophale) SiO2 
 PCOD9535610
Probable space group: I M M A
;
_chemical_formula_sum "Si O2"
_cell_formula_units_Z 72
_cell_length_a 8.409364
_cell_length_b 16.768756
_cell_length_c 28.259831
_cell_angle_alpha 90.000000
_cell_angle_beta 90.000000
_cell_angle_gamma 90.000000
_cell_volume 3985.048002
_symmetry_space_group_name_H-M "I M M A"
_symmetry_group_IT_number 74
_symmetry_cell_setting 'orthorhombic'
loop_
_space_group_symop_operation_xyz
x,y,z
-x,1/2-y,z
x,-y,-z
-x,1/2+y,-z
-x,-y,-z
x,1/2+y,-z
-x,y,z
x,1/2-y,z
1/2+x,1/2+y,1/2+z
1/2-x,-y,1/2+z
1/2+x,1/2-y,1/2-z
1/2-x,y,1/2-z
1/2-x,1/2-y,1/2-z
1/2+x,y,1/2-z
1/2-x,1/2+y,1/2+z
1/2+x,-y,1/2+z
loop_
_atom_site_type_symbol
_atom_site_label
_atom_site_fract_x
_atom_site_fract_y
_atom_site_fract_z
Si Si1 0.309867 0.567230 0.197605
Si Si2 0.809929 0.911922 0.857036
Si Si3 0.806507 0.162144 0.607938
Si Si4 0.192452 0.003623 0.554292
Si Si5 0.307143 0.750000 0.695429
O O1 0.500000 0.561332 0.197272
O O2 0.250000 0.581012 0.250000
O O3 0.243363 0.484717 0.176528
O O4 0.263258 0.637008 0.161232
O O5 0.748285 0.935009 0.909438
O O6 0.754669 0.829074 0.833334
O O7 0.000000 0.909671 0.858984
O O8 0.748353 0.250000 0.595227
O O9 0.000000 0.163456 0.605448
O O10 0.753773 0.088613 0.575613
O O11 0.000000 0.001950 0.554967
O O12 0.245278 0.000000 0.500000
O O13 0.500000 0.750000 0.696607
O O14 0.250000 0.750000 0.750000
#
# Coordination Sequence:
#
# PCOD9535610 Si02
#       5
#    16  16  16  16   8
#     4  10  19  31  49  73 100 132 169 207 249 300
#     4  10  20  35  53  74 102 136 174 213 257 306
#     4   8  15  29  48  69  97 131 164 202 245 291
#     4   9  18  34  54  77 103 131 169 213 257 307
#     4  10  22  36  52  76 106 140 176 218 261 314
#
# _framework density 18.067537000000002
#
# number of rings (size 3 to 8) (size 9 to 14) (size 15 to 20)
#    0.000    2.667    0.000    3.333    0.000    4.444 
#    2.000    0.000    0.000   16.000    0.000    0.000 
#    0.000    0.000    0.000    0.000    0.000    0.000 
#
# Total GULP energy -200669.547679 kJ/mol
# GULP energy per Si atom -5574.154102 kJ/mol
# Density = 1.802641 g / cm^3
# Si number density = 18.067537 Si / 1000 Ang^3
#
#
#
# Elastic Constant Matrix: (Units=GPa)
#
#
# Indices 1 2 3 4 5 6 
#
# 1 19.4292 17.4488 22.4451 0.0000 0.0000 0.0000
# 2 17.4488 128.1676 70.5311 0.0000 0.0000 0.0000
# 3 22.4451 70.5311 173.9448 0.0000 0.0000 0.0000
# 4 0.0000 0.0000 0.0000 13.9356 0.0000 0.0000
# 5 0.0000 0.0000 0.0000 0.0000 27.5184 0.0000
# 6 0.0000 0.0000 0.0000 0.0000 0.0000 17.7795
#
#
#
# Elastic Compliance Matrix: (Units=1/GPa)
#
#
# Indices 1 2 3 4 5 6 
#
# 1 0.063159 -0.005295 -0.006003 0.000000 0.000000 0.000000
# 2 -0.005295 0.010487 -0.003569 0.000000 0.000000 0.000000
# 3 -0.006003 -0.003569 0.007971 0.000000 0.000000 0.000000
# 4 0.000000 0.000000 0.000000 0.071759 0.000000 0.000000
# 5 0.000000 0.000000 0.000000 0.000000 0.036339 0.000000
# 6 0.000000 0.000000 0.000000 0.000000 0.000000 0.056245
#
#
# Mechanical properties :
#
#
# Convention : Reuss Voigt Hill
#
# Bulk Modulus (GPa) = 19.27421 60.26574 39.76997
# Shear Modulus (GPa) = 17.06557 25.92113 21.49335
#
# Velocity S-wave (km/s) = 3.07668 3.79183 3.45282
# Velocity P-wave (km/s) = 4.82828 7.25250 6.16081
#
# Compressibility (1/GPa) = 0.05188281
#
# Stress axis : x y z
#
# Youngs Moduli (GPa) = 15.83313 95.35370 125.45940
#
# Poissons Ratio (x) = 0.50492 0.75309
# Poissons Ratio (y) = 0.08384 0.44778
# Poissons Ratio (z) = 0.09504 0.34033
#
# Static dielectric constant tensor:
#      x y z
#    x 1.625870 0.000000 0.000000 
#    y 0.000000 1.618170 0.000000 
#    z 0.000000 0.000000 1.606570 
# 
# From -- ./inp_files/63596.got.cif
#   From: 2010.05.17/outbox.cif.g08.bks.cpg/sg74_32_cif.got.tgz:63596.got - 2010.06.03 17:57:02.
