data_PCOD9535182
_publ_section_title
;
Structure prediction by ZEFSAII (Michael W. Deem and Ramdas Pophale) SiO2 
 PCOD9535182
Probable space group: I M M A
;
_chemical_formula_sum "Si O2"
_cell_formula_units_Z 64
_cell_length_a 14.247433
_cell_length_b 18.719914
_cell_length_c 12.225103
_cell_angle_alpha 90.000000
_cell_angle_beta 90.000000
_cell_angle_gamma 90.000000
_cell_volume 3260.566029
_symmetry_space_group_name_H-M "I M M A"
_symmetry_group_IT_number 74
_symmetry_cell_setting 'orthorhombic'
loop_
_space_group_symop_operation_xyz
x,y,z
-x,1/2-y,z
x,-y,-z
-x,1/2+y,-z
-x,-y,-z
x,1/2+y,-z
-x,y,z
x,1/2-y,z
1/2+x,1/2+y,1/2+z
1/2-x,-y,1/2+z
1/2+x,1/2-y,1/2-z
1/2-x,y,1/2-z
1/2-x,1/2-y,1/2-z
1/2+x,y,1/2-z
1/2-x,1/2+y,1/2+z
1/2+x,-y,1/2+z
loop_
_atom_site_type_symbol
_atom_site_label
_atom_site_fract_x
_atom_site_fract_y
_atom_site_fract_z
Si Si1 0.720788 0.405186 0.083700
Si Si2 0.892183 0.750000 0.049730
Si Si3 0.814401 0.604514 0.145183
Si Si4 0.729371 0.250000 0.122833
Si Si5 0.392228 0.457909 0.276724
O O1 0.681709 0.324464 0.091320
O O2 0.648681 0.453067 0.153284
O O3 0.819297 0.411199 0.151255
O O4 0.750526 0.418270 0.959080
O O5 0.867086 0.677391 0.114373
O O6 0.000000 0.750000 0.019778
O O7 0.825631 0.750000 0.944905
O O8 0.750000 0.617679 0.250000
O O9 0.880067 0.537767 0.175993
O O10 0.750000 0.250000 0.250000
O O11 0.500000 0.435262 0.283470
#
# Coordination Sequence:
#
# PCOD9535182 Si02
#       5
#    16   8  16   8  16
#     4  10  22  40  60  88 125 157 209 256 311 365
#     4  10  23  39  62  95 120 154 214 259 296 364
#     4  11  22  40  64  85 125 170 202 250 309 364
#     4  10  18  39  60  83 118 160 191 251 317 364
#     4  11  22  37  62  91 121 159 204 257 308 364
#
# _framework density 19.628492999999999
#
# number of rings (size 3 to 8) (size 9 to 14) (size 15 to 20)
#    0.000    1.500    5.000    1.875    0.000    6.000 
#    0.000    4.375    0.000    0.000    0.000    0.000 
#    0.000    0.000    0.000    0.000    0.000    0.000 
#
# Total GULP energy -178556.645462 kJ/mol
# GULP energy per Si atom -5579.895171 kJ/mol
# Density = 1.958382 g / cm^3
# Si number density = 19.628493 Si / 1000 Ang^3
#
#
#
# Elastic Constant Matrix: (Units=GPa)
#
#
# Indices 1 2 3 4 5 6 
#
# 1 48.9111 10.6321 22.4706 0.0000 0.0000 0.0000
# 2 10.6321 120.5747 21.1496 0.0000 0.0000 0.0000
# 3 22.4706 21.1496 117.2582 0.0000 0.0000 0.0000
# 4 0.0000 0.0000 0.0000 33.0882 0.0000 0.0000
# 5 0.0000 0.0000 0.0000 0.0000 6.9804 0.0000
# 6 0.0000 0.0000 0.0000 0.0000 0.0000 17.9478
#
#
#
# Elastic Compliance Matrix: (Units=1/GPa)
#
#
# Indices 1 2 3 4 5 6 
#
# 1 0.022607 -0.001274 -0.004102 0.000000 0.000000 0.000000
# 2 -0.001274 0.008636 -0.001314 0.000000 0.000000 0.000000
# 3 -0.004102 -0.001314 0.009551 0.000000 0.000000 0.000000
# 4 0.000000 0.000000 0.000000 0.030222 0.000000 0.000000
# 5 0.000000 0.000000 0.000000 0.000000 0.143259 0.000000
# 6 0.000000 0.000000 0.000000 0.000000 0.000000 0.055717
#
#
# Mechanical properties :
#
#
# Convention : Reuss Voigt Hill
#
# Bulk Modulus (GPa) = 36.47682 43.91653 40.19667
# Shear Modulus (GPa) = 17.09339 27.10272 22.09805
#
# Velocity S-wave (km/s) = 2.95421 3.71992 3.35896
# Velocity P-wave (km/s) = 5.50095 6.39319 5.96378
#
# Compressibility (1/GPa) = 0.02741467
#
# Stress axis : x y z
#
# Youngs Moduli (GPa) = 44.23431 115.78962 104.69788
#
# Poissons Ratio (x) = 0.14750 0.42952
# Poissons Ratio (y) = 0.05635 0.13753
# Poissons Ratio (z) = 0.18147 0.15210
#
# Static dielectric constant tensor:
#      x y z
#    x 1.651010 0.000000 0.000000 
#    y 0.000000 1.784920 0.000000 
#    z 0.000000 0.000000 1.692580 
# 
# From -- ./inp_files/19988.got.cif
#   From: 2010.05.17/outbox.cif.g08.bks.cpg/sg74_10_cif.got.tgz:19988.got - 2010.06.03 17:57:02.
