data_PCOD9535578
_publ_section_title
;
Structure prediction by ZEFSAII (Michael W. Deem and Ramdas Pophale) SiO2 
 PCOD9535578
Probable space group: I M M A
;
_chemical_formula_sum "Si O2"
_cell_formula_units_Z 80
_cell_length_a 8.791280
_cell_length_b 25.897709
_cell_length_c 20.992746
_cell_angle_alpha 90.000000
_cell_angle_beta 90.000000
_cell_angle_gamma 90.000000
_cell_volume 4779.502687
_symmetry_space_group_name_H-M "I M M A"
_symmetry_group_IT_number 74
_symmetry_cell_setting 'orthorhombic'
loop_
_space_group_symop_operation_xyz
x,y,z
-x,1/2-y,z
x,-y,-z
-x,1/2+y,-z
-x,-y,-z
x,1/2+y,-z
-x,y,z
x,1/2-y,z
1/2+x,1/2+y,1/2+z
1/2-x,-y,1/2+z
1/2+x,1/2-y,1/2-z
1/2-x,y,1/2-z
1/2-x,1/2-y,1/2-z
1/2+x,y,1/2-z
1/2-x,1/2+y,1/2+z
1/2+x,-y,1/2+z
loop_
_atom_site_type_symbol
_atom_site_label
_atom_site_fract_x
_atom_site_fract_y
_atom_site_fract_z
Si Si1 0.682299 0.358089 0.131255
Si Si2 0.185125 0.861210 0.010843
Si Si3 0.323562 0.250000 0.517462
Si Si4 0.675793 0.750000 0.637910
Si Si5 0.181585 0.531454 0.683227
Si Si6 0.817224 0.029925 0.934864
O O1 0.500000 0.355065 0.128177
O O2 0.745853 0.303670 0.157054
O O3 0.727648 0.408836 0.170515
O O4 0.747679 0.366630 0.060013
O O5 0.240151 0.805605 0.036873
O O6 0.224416 0.910355 0.053490
O O7 0.000000 0.859718 0.004694
O O8 0.500000 0.250000 0.537106
O O9 0.318904 0.250000 0.439949
O O10 0.500000 0.750000 0.657112
O O11 0.250000 0.513908 0.750000
O O12 0.240119 0.497075 0.624858
O O13 0.000000 0.529657 0.685373
O O14 0.000000 0.026466 0.927491
O O15 0.777035 0.000000 0.000000
#
# Coordination Sequence:
#
# PCOD9535578 Si02
#       6
#    16  16   8   8  16  16
#     4  10  19  31  48  72 100 130 168 216 259 299
#     4   9  16  28  48  74 102 136 170 206 251 303
#     4   7  12  23  41  68  99 126 161 199 239 291
#     4   9  17  29  48  70  95 132 171 209 252 303
#     4  11  24  38  53  73 102 138 175 217 264 313
#     4  10  19  32  53  78 105 136 173 214 257 310
#
# _framework density 16.738143000000001
#
# number of rings (size 3 to 8) (size 9 to 14) (size 15 to 20)
#    0.000    2.400    2.000    2.700    0.000    3.600 
#    0.000    0.500    0.000    0.000    0.000    0.700 
#    0.000    0.000    0.000    0.000    0.000    0.000 
#
# Total GULP energy -223000.191775 kJ/mol
# GULP energy per Si atom -5575.004794 kJ/mol
# Density = 1.670005 g / cm^3
# Si number density = 16.738143 Si / 1000 Ang^3
#
#
#
# Elastic Constant Matrix: (Units=GPa)
#
#
# Indices 1 2 3 4 5 6 
#
# 1 28.6653 30.1808 25.0406 0.0000 0.0000 0.0000
# 2 30.1808 134.9352 52.6801 0.0000 0.0000 0.0000
# 3 25.0406 52.6801 83.4409 0.0001 0.0000 0.0000
# 4 0.0000 0.0000 0.0001 11.6395 0.0000 0.0000
# 5 0.0000 0.0000 0.0000 0.0000 18.6607 0.0000
# 6 0.0000 0.0000 0.0000 0.0000 0.0000 24.1615
#
#
#
# Elastic Compliance Matrix: (Units=1/GPa)
#
#
# Indices 1 2 3 4 5 6 
#
# 1 0.052303 -0.007393 -0.011029 0.000000 0.000000 0.000000
# 2 -0.007393 0.010880 -0.004651 0.000000 0.000000 0.000000
# 3 -0.011029 -0.004651 0.018230 0.000000 0.000000 0.000000
# 4 0.000000 0.000000 0.000000 0.085914 0.000000 0.000000
# 5 0.000000 0.000000 0.000000 0.000000 0.053588 0.000000
# 6 0.000000 0.000000 0.000000 0.000000 0.000000 0.041388
#
#
# Mechanical properties :
#
#
# Convention : Reuss Voigt Hill
#
# Bulk Modulus (GPa) = 28.35310 51.42714 39.89012
# Shear Modulus (GPa) = 15.61496 20.16834 17.89165
#
# Velocity S-wave (km/s) = 3.05765 3.47498 3.27297
# Velocity P-wave (km/s) = 5.42601 6.84776 6.17792
#
# Compressibility (1/GPa) = 0.03526951
#
# Stress axis : x y z
#
# Youngs Moduli (GPa) = 19.11921 91.91069 54.85351
#
# Poissons Ratio (x) = 0.67948 0.60497
# Poissons Ratio (y) = 0.14135 0.25510
# Poissons Ratio (z) = 0.21086 0.42743
#
# Static dielectric constant tensor:
#      x y z
#    x 1.561550 0.000000 0.000000 
#    y 0.000000 1.612290 0.000000 
#    z 0.000000 0.000000 1.527100 
# 
# From -- ./inp_files/39783.got.cif
#   From: 2010.05.17/outbox.cif.g08.bks.cpg/sg74_20_cif.got.tgz:39783.got - 2010.06.03 17:57:02.
