data_PCOD9535602
_publ_section_title
;
Structure prediction by ZEFSAII (Michael W. Deem and Ramdas Pophale) SiO2 
 PCOD9535602
Probable space group: I M M A
;
_chemical_formula_sum "Si O2"
_cell_formula_units_Z 88
_cell_length_a 7.378206
_cell_length_b 28.305210
_cell_length_c 19.794658
_cell_angle_alpha 90.000000
_cell_angle_beta 90.000000
_cell_angle_gamma 90.000000
_cell_volume 4133.949439
_symmetry_space_group_name_H-M "I M M A"
_symmetry_group_IT_number 74
_symmetry_cell_setting 'orthorhombic'
loop_
_space_group_symop_operation_xyz
x,y,z
-x,1/2-y,z
x,-y,-z
-x,1/2+y,-z
-x,-y,-z
x,1/2+y,-z
-x,y,z
x,1/2-y,z
1/2+x,1/2+y,1/2+z
1/2-x,-y,1/2+z
1/2+x,1/2-y,1/2-z
1/2-x,y,1/2-z
1/2-x,1/2-y,1/2-z
1/2+x,y,1/2-z
1/2-x,1/2+y,1/2+z
1/2+x,-y,1/2+z
loop_
_atom_site_type_symbol
_atom_site_label
_atom_site_fract_x
_atom_site_fract_y
_atom_site_fract_z
Si Si1 0.779328 0.523301 0.928898
Si Si2 0.278375 0.869271 0.554227
Si Si3 0.716356 0.303564 0.324865
Si Si4 0.778371 0.153418 0.901364
Si Si5 0.283480 0.750000 0.330278
Si Si6 0.716133 0.442628 0.670718
O O1 0.719409 0.577425 0.929525
O O2 0.716119 0.488641 0.869448
O O3 0.000000 0.524504 0.926493
O O4 0.728899 0.500000 0.000000
O O5 0.500000 0.869456 0.553841
O O6 0.215923 0.834803 0.613560
O O7 0.224031 0.852420 0.479524
O O8 0.500000 0.300879 0.332607
O O9 0.788318 0.250000 0.326516
O O10 0.750000 0.323463 0.250000
O O11 0.716859 0.201889 0.865940
O O12 0.717391 0.106712 0.860969
O O13 0.000000 0.153852 0.900106
O O14 0.500000 0.750000 0.339169
O O15 0.250000 0.750000 0.250000
O O16 0.500000 0.442031 0.660334
O O17 0.750000 0.444997 0.750000
#
# Coordination Sequence:
#
# PCOD9535602 Si02
#       6
#    16  16  16  16   8  16
#     4   9  15  27  46  69  94 119 152 193 232 266
#     4   9  16  27  47  73  95 117 155 202 234 264
#     4   9  18  31  48  70  96 124 152 188 234 279
#     4   9  17  29  47  72  96 120 156 198 233 266
#     4  10  20  32  48  70  97 126 154 192 235 276
#     4  10  19  31  49  72  96 124 155 189 231 278
#
# _framework density 21.287147999999998
#
# number of rings (size 3 to 8) (size 9 to 14) (size 15 to 20)
#    0.000    2.727    1.818    0.545    1.273    0.727 
#    0.000    0.000    0.000    2.727    0.000    0.000 
#    0.000    0.000    0.000    0.000    0.000    0.000 
#
# Total GULP energy -245718.242433 kJ/mol
# GULP energy per Si atom -5584.505510 kJ/mol
# Density = 2.123870 g / cm^3
# Si number density = 21.287148 Si / 1000 Ang^3
#
#
#
# Elastic Constant Matrix: (Units=GPa)
#
#
# Indices 1 2 3 4 5 6 
#
# 1 74.9445 7.3529 -2.5787 0.0000 0.0000 0.0000
# 2 7.3529 191.9946 147.1035 0.0000 0.0000 0.0000
# 3 -2.5787 147.1035 240.0979 0.0000 0.0000 0.0000
# 4 0.0000 0.0000 0.0000 38.4575 0.0000 0.0000
# 5 0.0000 0.0000 0.0000 0.0000 17.9242 0.0000
# 6 0.0000 0.0000 0.0000 0.0000 0.0000 -13.1070
#
#
#
# Elastic Compliance Matrix: (Units=1/GPa)
#
#
# Indices 1 2 3 4 5 6 
#
# 1 0.013489 -0.001183 0.000870 0.000000 0.000000 0.000000
# 2 -0.001183 0.009920 -0.006091 0.000000 0.000000 0.000000
# 3 0.000870 -0.006091 0.007906 0.000000 0.000000 0.000000
# 4 0.000000 0.000000 0.000000 0.026003 0.000000 0.000000
# 5 0.000000 0.000000 0.000000 0.000000 0.055791 0.000000
# 6 0.000000 0.000000 0.000000 0.000000 0.000000 -0.076295
#
#
# Mechanical properties :
#
#
# Convention : Reuss Voigt Hill
#
# Bulk Modulus (GPa) = 54.03204 90.08806 72.06005
# Shear Modulus (GPa) = 89.61999 32.33222 60.97610
#
# Velocity S-wave (km/s) = 6.49553 3.90148 5.35787
# Velocity P-wave (km/s) = 9.03844 7.91882 8.49709
#
# Compressibility (1/GPa) = 0.01850754
#
# Stress axis : x y z
#
# Youngs Moduli (GPa) = 74.13346 100.80196 126.48611
#
# Poissons Ratio (x) = 0.11924 -0.10999
# Poissons Ratio (y) = 0.08769 0.77040
# Poissons Ratio (z) = -0.06447 0.61396
#
# Static dielectric constant tensor:
#      x y z
#    x 1.831440 0.000000 0.000000 
#    y 0.000000 1.752230 0.000000 
#    z 0.000000 0.000000 1.715600 
# 
# From -- ./inp_files/30964.got.cif
#   From: 2010.05.17/outbox.cif.g08.bks.cpg/sg74_16_cif.got.tgz:30964.got - 2010.06.03 17:57:02.
