data_PCOD9535454
_publ_section_title
;
Structure prediction by ZEFSAII (Michael W. Deem and Ramdas Pophale) SiO2 
 PCOD9535454
Probable space group: I M M A
;
_chemical_formula_sum "Si O2"
_cell_formula_units_Z 116
_cell_length_a 8.040980
_cell_length_b 26.904175
_cell_length_c 27.535169
_cell_angle_alpha 90.000000
_cell_angle_beta 90.000000
_cell_angle_gamma 90.000000
_cell_volume 5956.846478
_symmetry_space_group_name_H-M "I M M A"
_symmetry_group_IT_number 74
_symmetry_cell_setting 'orthorhombic'
loop_
_space_group_symop_operation_xyz
x,y,z
-x,1/2-y,z
x,-y,-z
-x,1/2+y,-z
-x,-y,-z
x,1/2+y,-z
-x,y,z
x,1/2-y,z
1/2+x,1/2+y,1/2+z
1/2-x,-y,1/2+z
1/2+x,1/2-y,1/2-z
1/2-x,y,1/2-z
1/2-x,1/2-y,1/2-z
1/2+x,y,1/2-z
1/2-x,1/2+y,1/2+z
1/2+x,-y,1/2+z
loop_
_atom_site_type_symbol
_atom_site_label
_atom_site_fract_x
_atom_site_fract_y
_atom_site_fract_z
Si Si1 0.307873 0.324711 0.815509
Si Si2 0.191551 0.806648 0.078523
Si Si3 0.697577 0.456297 0.197450
Si Si4 0.301335 0.434768 0.833140
Si Si5 0.697430 0.072601 0.405811
Si Si6 0.694069 0.963157 0.435830
Si Si7 0.500000 0.750000 0.292091
Si Si8 0.311859 0.120890 0.001632
O O1 0.500000 0.310185 0.801402
O O2 0.299890 0.319901 0.874438
O O3 0.277587 0.383055 0.805763
O O4 0.152840 0.292571 0.796369
O O5 0.230186 0.750000 0.064488
O O6 0.000000 0.807974 0.095512
O O7 0.208803 0.842280 0.032471
O O8 0.500000 0.457194 0.195165
O O9 0.750000 0.437367 0.250000
O O10 0.757249 0.513895 0.191571
O O11 0.760120 0.425745 0.150968
O O12 0.500000 0.438847 0.841935
O O13 0.212862 0.433521 0.885369
O O14 0.500000 0.072064 0.410944
O O15 0.765122 0.113973 0.442269
O O16 0.758805 0.018178 0.423791
O O17 0.500000 0.965692 0.449458
O O18 0.788109 0.933069 0.476918
O O19 0.500000 0.137392 0.997177
#
# Coordination Sequence:
#
# PCOD9535454 Si02
#       8
#    16  16  16  16  16  16   4  16
#     4  11  20  33  49  71 103 134 175 225 267 316
#     4  11  21  35  50  70  99 139 185 225 263 307
#     4  10  20  37  57  80 106 131 165 210 264 321
#     4   9  19  32  49  73 102 132 167 213 263 312
#     4  10  21  36  51  73 100 136 174 213 256 309
#     4  10  19  30  48  69  98 135 174 211 251 304
#     4  12  22  32  48  74  98 138 180 220 278 308
#     4  12  23  32  47  71 103 142 177 214 260 306
#
# _framework density 19.473390999999999
#
# number of rings (size 3 to 8) (size 9 to 14) (size 15 to 20)
#    0.000    1.517    2.759    3.517    0.966    4.690 
#    0.000    0.000    0.000    0.000    0.000    0.483 
#    0.000    0.552    0.000    2.069    0.000    3.172 
#
# Total GULP energy -323544.552150 kJ/mol
# GULP energy per Si atom -5578.354347 kJ/mol
# Density = 1.942907 g / cm^3
# Si number density = 19.473391 Si / 1000 Ang^3
#
#
#
# Elastic Constant Matrix: (Units=GPa)
#
#
# Indices 1 2 3 4 5 6 
#
# 1 76.5634 17.1118 20.2961 0.0000 0.0000 0.0000
# 2 17.1118 36.1104 30.2726 0.0000 0.0000 0.0000
# 3 20.2961 30.2726 112.3423 0.0000 0.0000 0.0000
# 4 0.0000 0.0000 0.0000 -14.3720 0.0000 0.0000
# 5 0.0000 0.0000 0.0000 0.0000 28.9112 0.0000
# 6 0.0000 0.0000 0.0000 0.0000 0.0000 13.8440
#
#
#
# Elastic Compliance Matrix: (Units=1/GPa)
#
#
# Indices 1 2 3 4 5 6 
#
# 1 0.014696 -0.006121 -0.001006 0.000000 0.000000 0.000000
# 2 -0.006121 0.038324 -0.009221 0.000000 0.000000 0.000000
# 3 -0.001006 -0.009221 0.011568 0.000000 0.000000 0.000000
# 4 0.000000 0.000000 0.000000 -0.069580 0.000000 0.000000
# 5 0.000000 0.000000 0.000000 0.000000 0.034589 0.000000
# 6 0.000000 0.000000 0.000000 0.000000 0.000000 0.072234
#
#
# Mechanical properties :
#
#
# Convention : Reuss Voigt Hill
#
# Bulk Modulus (GPa) = 31.35580 40.04190 35.69885
# Shear Modulus (GPa) = 34.44568 16.16566 25.30567
#
# Velocity S-wave (km/s) = 4.21034 2.88434 3.60877
# Velocity P-wave (km/s) = 6.30657 5.63024 5.97798
#
# Compressibility (1/GPa) = 0.03189203
#
# Stress axis : x y z
#
# Youngs Moduli (GPa) = 68.04741 26.09340 86.44642
#
# Poissons Ratio (x) = 0.15971 0.08693
# Poissons Ratio (y) = 0.41651 0.79714
# Poissons Ratio (z) = 0.06843 0.24061
#
# Static dielectric constant tensor:
#      x y z
#    x 1.679870 0.000000 0.000000 
#    y 0.000000 1.696790 0.000000 
#    z 0.000000 0.000000 1.693480 
# 
# From -- ./inp_files/65316.got.cif
#   From: 2010.05.17/outbox.cif.g08.bks.cpg/sg74_33_cif.got.tgz:65316.got - 2010.06.03 17:57:02.
