data_PCOD9535135
_publ_section_title
;
Structure prediction by ZEFSAII (Michael W. Deem and Ramdas Pophale) SiO2 
 PCOD9535135
Probable space group: I M M A
;
_chemical_formula_sum "Si O2"
_cell_formula_units_Z 72
_cell_length_a 8.228462
_cell_length_b 14.975516
_cell_length_c 30.400768
_cell_angle_alpha 90.000000
_cell_angle_beta 90.000000
_cell_angle_gamma 90.000000
_cell_volume 3746.148753
_symmetry_space_group_name_H-M "I M M A"
_symmetry_group_IT_number 74
_symmetry_cell_setting 'orthorhombic'
loop_
_space_group_symop_operation_xyz
x,y,z
-x,1/2-y,z
x,-y,-z
-x,1/2+y,-z
-x,-y,-z
x,1/2+y,-z
-x,y,z
x,1/2-y,z
1/2+x,1/2+y,1/2+z
1/2-x,-y,1/2+z
1/2+x,1/2-y,1/2-z
1/2-x,y,1/2-z
1/2-x,1/2-y,1/2-z
1/2+x,y,1/2-z
1/2-x,1/2+y,1/2+z
1/2+x,-y,1/2+z
loop_
_atom_site_type_symbol
_atom_site_label
_atom_site_fract_x
_atom_site_fract_y
_atom_site_fract_z
Si Si1 0.193748 0.434597 0.622637
Si Si2 0.801527 0.557567 0.542619
Si Si3 0.304996 0.054903 0.300599
Si Si4 0.189603 0.250000 0.916040
Si Si5 0.693848 0.750000 0.984256
Si Si6 0.195818 0.250000 0.199068
O O1 0.252504 0.505723 0.585988
O O2 0.237766 0.475981 0.669509
O O3 0.266077 0.338585 0.611009
O O4 0.000000 0.426790 0.618702
O O5 0.754388 0.500000 0.500000
O O6 0.741492 0.658492 0.536624
O O7 0.000000 0.559811 0.543218
O O8 0.500000 0.053164 0.301919
O O9 0.250000 0.047421 0.250000
O O10 0.248358 0.153250 0.318307
O O11 0.278763 0.250000 0.963248
O O12 0.000000 0.250000 0.925888
O O13 0.500000 0.750000 0.977324
O O14 0.250000 0.250000 0.250000
O O15 0.000000 0.250000 0.197137
#
# Coordination Sequence:
#
# PCOD9535135 Si02
#       6
#    16  16  16   8   8   8
#     4  11  22  38  60  85 113 151 196 242 292 345
#     4   9  17  31  55  84 110 144 188 233 277 330
#     4  10  20  37  59  87 120 156 195 239 287 341
#     4  12  24  38  56  82 112 150 194 239 293 353
#     4  10  18  35  59  82 114 153 194 237 282 341
#     4   8  16  31  54  80 112 151 185 222 275 332
#
# _framework density 19.219738
#
# number of rings (size 3 to 8) (size 9 to 14) (size 15 to 20)
#    0.000    2.000    2.222    2.333    0.000    1.778 
#    0.000    5.000    0.000    0.000    0.000    0.000 
#    0.000    0.000    0.000    0.000    0.000    0.000 
#
# Total GULP energy -200910.197643 kJ/mol
# GULP energy per Si atom -5580.838823 kJ/mol
# Density = 1.917599 g / cm^3
# Si number density = 19.219738 Si / 1000 Ang^3
#
#
#
# Elastic Constant Matrix: (Units=GPa)
#
#
# Indices 1 2 3 4 5 6 
#
# 1 13.8500 6.1695 -9.2322 0.0000 0.0000 0.0000
# 2 6.1695 182.4211 54.6356 0.0000 0.0000 0.0000
# 3 -9.2322 54.6356 70.0772 0.0000 0.0000 0.0000
# 4 0.0000 0.0000 0.0000 1.9437 0.0000 0.0000
# 5 0.0000 0.0000 0.0000 0.0000 14.7092 0.0000
# 6 0.0000 0.0000 0.0000 0.0000 0.0000 12.5906
#
#
#
# Elastic Compliance Matrix: (Units=1/GPa)
#
#
# Indices 1 2 3 4 5 6 
#
# 1 0.088061 -0.008419 0.018165 0.000000 0.000000 0.000000
# 2 -0.008419 0.007957 -0.007312 0.000000 0.000000 0.000000
# 3 0.018165 -0.007312 0.022364 0.000000 0.000000 0.000000
# 4 0.000000 0.000000 0.000000 0.514479 0.000000 0.000000
# 5 0.000000 0.000000 0.000000 0.000000 0.067984 0.000000
# 6 0.000000 0.000000 0.000000 0.000000 0.000000 0.079424
#
#
# Mechanical properties :
#
#
# Convention : Reuss Voigt Hill
#
# Bulk Modulus (GPa) = 8.11361 41.05489 24.58425
# Shear Modulus (GPa) = 6.12381 20.16708 13.14545
#
# Velocity S-wave (km/s) = 1.78693 3.24279 2.61809
# Velocity P-wave (km/s) = 2.91345 5.95215 4.68595
#
# Compressibility (1/GPa) = 0.12324967
#
# Stress axis : x y z
#
# Youngs Moduli (GPa) = 11.35576 125.68102 44.71417
#
# Poissons Ratio (x) = 1.05807 -0.81224
# Poissons Ratio (y) = 0.09560 0.32697
# Poissons Ratio (z) = -0.20628 0.91904
#
# Static dielectric constant tensor:
#      x y z
#    x 1.666770 0.000000 0.000000 
#    y 0.000000 1.688690 0.000000 
#    z 0.000000 0.000000 1.636330 
# 
# From -- ./inp_files/66771.got.cif
#   From: 2010.05.17/outbox.cif.g08.bks.cpg/sg74_34_cif.got.tgz:66771.got - 2010.06.03 17:57:02.
