data_PCOD9535980
_publ_section_title
;
Structure prediction by ZEFSAII (Michael W. Deem and Ramdas Pophale) SiO2 
 PCOD9535980
Probable space group: I M M A
;
_chemical_formula_sum "Si O2"
_cell_formula_units_Z 96
_cell_length_a 28.404534
_cell_length_b 8.264852
_cell_length_c 21.272925
_cell_angle_alpha 90.000000
_cell_angle_beta 90.000000
_cell_angle_gamma 90.000000
_cell_volume 4994.016336
_symmetry_space_group_name_H-M "I M M A"
_symmetry_group_IT_number 74
_symmetry_cell_setting 'orthorhombic'
loop_
_space_group_symop_operation_xyz
x,y,z
-x,1/2-y,z
x,-y,-z
-x,1/2+y,-z
-x,-y,-z
x,1/2+y,-z
-x,y,z
x,1/2-y,z
1/2+x,1/2+y,1/2+z
1/2-x,-y,1/2+z
1/2+x,1/2-y,1/2-z
1/2-x,y,1/2-z
1/2-x,1/2-y,1/2-z
1/2+x,y,1/2-z
1/2-x,1/2+y,1/2+z
1/2+x,-y,1/2+z
loop_
_atom_site_type_symbol
_atom_site_label
_atom_site_fract_x
_atom_site_fract_y
_atom_site_fract_z
Si Si1 0.276028 0.943441 0.430571
Si Si2 0.054166 0.947928 0.813506
Si Si3 0.781063 0.445647 0.690587
Si Si4 0.388386 0.945601 0.809532
Si Si5 0.945681 0.945238 0.569106
Si Si6 0.616762 0.556374 0.569413
O O1 0.275652 0.750000 0.430295
O O2 0.242885 0.002833 0.374299
O O3 0.261427 0.000000 0.500000
O O4 0.329763 0.998703 0.419851
O O5 0.054082 0.750000 0.813656
O O6 0.081472 0.999800 0.750750
O O7 0.082529 0.001391 0.875290
O O8 0.000000 0.000520 0.813625
O O9 0.780217 0.250000 0.690437
O O10 0.750000 0.500913 0.750000
O O11 0.834693 0.500322 0.695557
O O12 0.389419 0.750000 0.809931
O O13 0.412913 0.002529 0.874040
O O14 0.945920 0.750000 0.570194
O O15 0.000000 0.999566 0.577996
O O16 0.930010 0.000000 0.500000
O O17 0.602115 0.500000 0.500000
O O18 0.617098 0.750000 0.569877
#
# Coordination Sequence:
#
# PCOD9535980 Si02
#       6
#    16  16  16  16  16  16
#     4  10  20  35  55  76 102 136 170 208 253 302
#     4   9  18  33  53  77 104 134 170 211 253 297
#     4  10  22  38  54  74 103 137 169 207 258 308
#     4  10  20  34  55  79 101 131 172 215 253 294
#     4   9  18  33  53  77 105 136 169 206 250 300
#     4  10  19  32  53  78 104 135 169 208 252 299
#
# _framework density 19.223004
#
# number of rings (size 3 to 8) (size 9 to 14) (size 15 to 20)
#    0.000    2.333    0.000    3.500    0.000    5.333 
#    0.000    4.167    0.000    5.000    0.000    0.000 
#    0.000    0.000    0.000    0.000    0.000    0.000 
#
# Total GULP energy -268004.373419 kJ/mol
# GULP energy per Si atom -5583.424446 kJ/mol
# Density = 1.917925 g / cm^3
# Si number density = 19.223004 Si / 1000 Ang^3
#
#
#
# Elastic Constant Matrix: (Units=GPa)
#
#
# Indices 1 2 3 4 5 6 
#
# 1 111.2341 8.1322 90.0137 0.0000 0.0000 0.0000
# 2 8.1322 17.2519 15.7942 0.0000 0.0000 0.0000
# 3 90.0137 15.7942 150.2571 0.0000 0.0000 0.0000
# 4 0.0000 0.0000 0.0000 23.1602 0.0000 0.0000
# 5 0.0000 0.0000 0.0000 0.0000 44.2325 0.0000
# 6 0.0000 0.0000 0.0000 0.0000 0.0000 8.2560
#
#
#
# Elastic Compliance Matrix: (Units=1/GPa)
#
#
# Indices 1 2 3 4 5 6 
#
# 1 0.017484 0.001491 -0.010630 0.000000 0.000000 0.000000
# 2 0.001491 0.064264 -0.007648 0.000000 0.000000 0.000000
# 3 -0.010630 -0.007648 0.013828 0.000000 0.000000 0.000000
# 4 0.000000 0.000000 0.000000 0.043177 0.000000 0.000000
# 5 0.000000 0.000000 0.000000 0.000000 0.022608 0.000000
# 6 0.000000 0.000000 0.000000 0.000000 0.000000 0.121125
#
#
# Mechanical properties :
#
#
# Convention : Reuss Voigt Hill
#
# Bulk Modulus (GPa) = 16.12920 56.29149 36.21034
# Shear Modulus (GPa) = 14.84882 26.11660 20.48271
#
# Velocity S-wave (km/s) = 2.78231 3.68993 3.26779
# Velocity P-wave (km/s) = 4.32787 6.89211 5.75463
#
# Compressibility (1/GPa) = 0.06199937
#
# Stress axis : x y z
#
# Youngs Moduli (GPa) = 57.19668 15.56083 72.31945
#
# Poissons Ratio (x) = -0.02320 0.76879
# Poissons Ratio (y) = -0.08527 0.55311
# Poissons Ratio (z) = 0.60803 0.11901
#
# Static dielectric constant tensor:
#      x y z
#    x 1.632340 0.000000 0.000000 
#    y 0.000000 1.678160 0.000000 
#    z 0.000000 0.000000 1.669500 
# 
# From -- ./inp_files/49074.got.cif
#   From: 2010.05.17/outbox.cif.g08.bks.cpg/sg74_25_cif.got.tgz:49074.got - 2010.06.03 17:57:02.
