data_PCOD9535658
_publ_section_title
;
Structure prediction by ZEFSAII (Michael W. Deem and Ramdas Pophale) SiO2 
 PCOD9535658
Probable space group: I M M A
;
_chemical_formula_sum "Si O2"
_cell_formula_units_Z 96
_cell_length_a 8.859333
_cell_length_b 23.101123
_cell_length_c 27.256035
_cell_angle_alpha 90.000000
_cell_angle_beta 90.000000
_cell_angle_gamma 90.000000
_cell_volume 5578.234878
_symmetry_space_group_name_H-M "I M M A"
_symmetry_group_IT_number 74
_symmetry_cell_setting 'orthorhombic'
loop_
_space_group_symop_operation_xyz
x,y,z
-x,1/2-y,z
x,-y,-z
-x,1/2+y,-z
-x,-y,-z
x,1/2+y,-z
-x,y,z
x,1/2-y,z
1/2+x,1/2+y,1/2+z
1/2-x,-y,1/2+z
1/2+x,1/2-y,1/2-z
1/2-x,y,1/2-z
1/2-x,1/2-y,1/2-z
1/2+x,y,1/2-z
1/2-x,1/2+y,1/2+z
1/2+x,-y,1/2+z
loop_
_atom_site_type_symbol
_atom_site_label
_atom_site_fract_x
_atom_site_fract_y
_atom_site_fract_z
Si Si1 0.823033 0.819493 0.464425
Si Si2 0.166404 0.488027 0.056354
Si Si3 0.671420 0.604700 0.381662
Si Si4 0.319712 0.317041 0.430663
Si Si5 0.681836 0.477924 0.804075
Si Si6 0.325581 0.585780 0.871266
O O1 0.808113 0.750000 0.461185
O O2 0.751708 0.847769 0.415718
O O3 0.744145 0.837041 0.516008
O O4 0.000000 0.834477 0.467128
O O5 0.162421 0.549090 0.083096
O O6 0.299335 0.451189 0.079341
O O7 0.000000 0.459853 0.064559
O O8 0.185866 0.500000 0.000000
O O9 0.500000 0.622218 0.368543
O O10 0.758556 0.577286 0.335186
O O11 0.500000 0.318762 0.433105
O O12 0.271609 0.250000 0.424501
O O13 0.262205 0.355904 0.385310
O O14 0.500000 0.476989 0.803618
O O15 0.750000 0.476266 0.750000
O O16 0.728422 0.539132 0.830352
O O17 0.500000 0.598646 0.862170
#
# Coordination Sequence:
#
# PCOD9535658 Si02
#       6
#    16  16  16  16  16  16
#     4  10  20  33  50  74 106 142 176 210 247 290
#     4   9  17  28  43  66  97 130 162 197 239 291
#     4  10  19  31  50  75 102 133 168 207 251 300
#     4  10  20  33  50  73 103 140 177 209 244 293
#     4  10  21  37  56  78 102 129 165 210 261 312
#     4  10  20  32  49  73  99 128 163 206 253 300
#
# _framework density 17.209744000000001
#
# number of rings (size 3 to 8) (size 9 to 14) (size 15 to 20)
#    0.000    2.167    0.000    3.500    0.000    6.333 
#    0.000    0.000    0.000    1.000    0.000    0.000 
#    0.000    0.000    0.000    0.000    0.000    0.000 
#
# Total GULP energy -267413.656629 kJ/mol
# GULP energy per Si atom -5571.117846 kJ/mol
# Density = 1.717057 g / cm^3
# Si number density = 17.209744 Si / 1000 Ang^3
#
#
#
# Elastic Constant Matrix: (Units=GPa)
#
#
# Indices 1 2 3 4 5 6 
#
# 1 62.2253 12.0927 22.3617 0.0000 0.0000 0.0000
# 2 12.0927 33.2300 3.5102 0.0000 0.0000 0.0000
# 3 22.3617 3.5102 69.6431 0.0000 0.0000 0.0000
# 4 0.0000 0.0000 0.0000 25.4910 0.0000 0.0000
# 5 0.0000 0.0000 0.0000 0.0000 22.1001 0.0000
# 6 0.0000 0.0000 0.0000 0.0000 0.0000 22.9686
#
#
#
# Elastic Compliance Matrix: (Units=1/GPa)
#
#
# Indices 1 2 3 4 5 6 
#
# 1 0.019453 -0.006454 -0.005921 0.000000 0.000000 0.000000
# 2 -0.006454 0.032395 0.000439 0.000000 0.000000 0.000000
# 3 -0.005921 0.000439 0.016238 0.000000 0.000000 0.000000
# 4 0.000000 0.000000 0.000000 0.039230 0.000000 0.000000
# 5 0.000000 0.000000 0.000000 0.000000 0.045249 0.000000
# 6 0.000000 0.000000 0.000000 0.000000 0.000000 0.043538
#
#
# Mechanical properties :
#
#
# Convention : Reuss Voigt Hill
#
# Bulk Modulus (GPa) = 22.61628 26.78086 24.69857
# Shear Modulus (GPa) = 21.30285 22.58750 21.94518
#
# Velocity S-wave (km/s) = 3.52211 3.62675 3.57481
# Velocity P-wave (km/s) = 5.45073 5.75613 5.60551
#
# Compressibility (1/GPa) = 0.04421594
#
# Stress axis : x y z
#
# Youngs Moduli (GPa) = 51.40723 30.86856 61.58440
#
# Poissons Ratio (x) = 0.19921 0.36463
# Poissons Ratio (y) = 0.33176 -0.02706
# Poissons Ratio (z) = 0.30437 -0.01356
#
# Static dielectric constant tensor:
#      x y z
#    x 1.625500 0.000000 0.000000 
#    y 0.000000 1.670480 0.000000 
#    z 0.000000 0.000000 1.587850 
# 
# From -- ./inp_files/64313.got.cif
#   From: 2010.05.17/outbox.cif.g08.bks.cpg/sg74_33_cif.got.tgz:64313.got - 2010.06.03 17:57:02.
