data_PCOD9535083
_publ_section_title
;
Structure prediction by ZEFSAII (Michael W. Deem and Ramdas Pophale) SiO2 
 PCOD9535083
Probable space group: I M M A
;
_chemical_formula_sum "Si O2"
_cell_formula_units_Z 104
_cell_length_a 9.828920
_cell_length_b 22.384853
_cell_length_c 25.838753
_cell_angle_alpha 90.000000
_cell_angle_beta 90.000000
_cell_angle_gamma 90.000000
_cell_volume 5685.014771
_symmetry_space_group_name_H-M "I M M A"
_symmetry_group_IT_number 74
_symmetry_cell_setting 'orthorhombic'
loop_
_space_group_symop_operation_xyz
x,y,z
-x,1/2-y,z
x,-y,-z
-x,1/2+y,-z
-x,-y,-z
x,1/2+y,-z
-x,y,z
x,1/2-y,z
1/2+x,1/2+y,1/2+z
1/2-x,-y,1/2+z
1/2+x,1/2-y,1/2-z
1/2-x,y,1/2-z
1/2-x,1/2-y,1/2-z
1/2+x,y,1/2-z
1/2-x,1/2+y,1/2+z
1/2+x,-y,1/2+z
loop_
_atom_site_type_symbol
_atom_site_label
_atom_site_fract_x
_atom_site_fract_y
_atom_site_fract_z
Si Si1 0.158310 0.318474 0.570838
Si Si2 0.765111 0.500000 0.500000
Si Si3 0.352077 0.875531 0.961333
Si Si4 0.339689 0.430904 0.600510
Si Si5 0.340150 0.986682 0.697916
Si Si6 0.342571 0.134619 0.369699
Si Si7 0.649928 0.318819 0.208025
O O1 0.198682 0.250000 0.582179
O O2 0.160742 0.330242 0.508999
O O3 0.252196 0.370734 0.593676
O O4 0.000000 0.326400 0.586716
O O5 0.850974 0.442690 0.483183
O O6 0.685884 0.524915 0.449018
O O7 0.500000 0.865073 0.935223
O O8 0.218655 0.873616 0.926193
O O9 0.500000 0.417471 0.601116
O O10 0.304178 0.463373 0.654680
O O11 0.500000 0.993002 0.711794
O O12 0.250000 0.988153 0.750000
O O13 0.328986 0.925669 0.664250
O O14 0.500000 0.153085 0.368589
O O15 0.235930 0.179327 0.343812
O O16 0.500000 0.346695 0.205547
O O17 0.631717 0.250000 0.223126
O O18 0.750000 0.347207 0.250000
#
# Coordination Sequence:
#
# PCOD9535083 Si02
#       7
#    16   8  16  16  16  16  16
#     4   9  20  38  57  81 114 149 186 230 282 341
#     4  10  18  34  56  82 114 146 182 228 280 334
#     4  10  20  33  53  80 111 147 185 224 271 330
#     4  10  20  35  58  85 114 148 187 232 284 340
#     4  10  22  38  54  81 115 149 187 233 283 336
#     4  11  22  36  53  78 111 147 187 231 281 332
#     4  10  21  37  55  74  98 134 182 233 281 327
#
# _framework density 18.293707999999999
#
# number of rings (size 3 to 8) (size 9 to 14) (size 15 to 20)
#    0.000    2.000    1.538    1.846    0.000    8.000 
#    0.000    1.538    0.000    0.462    0.000    0.000 
#    0.000    0.000    0.000    0.000    0.000    0.000 
#
# Total GULP energy -289657.198191 kJ/mol
# GULP energy per Si atom -5570.330734 kJ/mol
# Density = 1.825207 g / cm^3
# Si number density = 18.293708 Si / 1000 Ang^3
#
#
#
# Elastic Constant Matrix: (Units=GPa)
#
#
# Indices 1 2 3 4 5 6 
#
# 1 132.7486 35.0151 48.2629 0.0000 0.0000 0.0000
# 2 35.0151 80.3484 16.6245 0.0000 0.0000 0.0000
# 3 48.2629 16.6245 69.1512 0.0000 0.0000 0.0000
# 4 0.0000 0.0000 0.0000 20.0431 0.0000 0.0000
# 5 0.0000 0.0000 0.0000 0.0000 26.4914 0.0000
# 6 0.0000 0.0000 0.0000 0.0000 0.0000 4.7515
#
#
#
# Elastic Compliance Matrix: (Units=1/GPa)
#
#
# Indices 1 2 3 4 5 6 
#
# 1 0.010883 -0.003337 -0.006793 0.000000 0.000000 0.000000
# 2 -0.003337 0.014121 -0.001066 0.000000 0.000000 0.000000
# 3 -0.006793 -0.001066 0.019459 0.000000 0.000000 0.000000
# 4 0.000000 0.000000 0.000000 0.049892 0.000000 0.000000
# 5 0.000000 0.000000 0.000000 0.000000 0.037748 0.000000
# 6 0.000000 0.000000 0.000000 0.000000 0.000000 0.210459
#
#
# Mechanical properties :
#
#
# Convention : Reuss Voigt Hill
#
# Bulk Modulus (GPa) = 45.31045 53.56148 49.43596
# Shear Modulus (GPa) = 13.42966 22.41359 17.92163
#
# Velocity S-wave (km/s) = 2.71239 3.50409 3.13335
# Velocity P-wave (km/s) = 5.88486 6.76120 6.33819
#
# Compressibility (1/GPa) = 0.02206997
#
# Stress axis : x y z
#
# Youngs Moduli (GPa) = 91.88524 70.81862 51.39120
#
# Poissons Ratio (x) = 0.23633 0.34912
# Poissons Ratio (y) = 0.30664 0.05476
# Poissons Ratio (z) = 0.62421 0.07546
#
# Static dielectric constant tensor:
#      x y z
#    x 1.691780 0.000000 0.000000 
#    y 0.000000 1.652890 0.000000 
#    z 0.000000 0.000000 1.685320 
# 
# From -- ./inp_files/70802.got.cif
#   From: 2010.05.17/outbox.cif.g08.bks.cpg/sg74_36_cif.got.tgz:70802.got - 2010.06.03 17:57:02.
