data_PCOD9535426
_publ_section_title
;
Structure prediction by ZEFSAII (Michael W. Deem and Ramdas Pophale) SiO2 
 PCOD9535426
Probable space group: I M M A
;
_chemical_formula_sum "Si O2"
_cell_formula_units_Z 104
_cell_length_a 22.848197
_cell_length_b 8.942921
_cell_length_c 30.727441
_cell_angle_alpha 90.000000
_cell_angle_beta 90.000000
_cell_angle_gamma 90.000000
_cell_volume 6278.526367
_symmetry_space_group_name_H-M "I M M A"
_symmetry_group_IT_number 74
_symmetry_cell_setting 'orthorhombic'
loop_
_space_group_symop_operation_xyz
x,y,z
-x,1/2-y,z
x,-y,-z
-x,1/2+y,-z
-x,-y,-z
x,1/2+y,-z
-x,y,z
x,1/2-y,z
1/2+x,1/2+y,1/2+z
1/2-x,-y,1/2+z
1/2+x,1/2-y,1/2-z
1/2-x,y,1/2-z
1/2-x,1/2-y,1/2-z
1/2+x,y,1/2-z
1/2-x,1/2+y,1/2+z
1/2+x,-y,1/2+z
loop_
_atom_site_type_symbol
_atom_site_label
_atom_site_fract_x
_atom_site_fract_y
_atom_site_fract_z
Si Si1 0.000000 0.430176 0.547743
Si Si2 0.931106 0.928412 0.694071
Si Si3 0.388835 0.429247 0.893254
Si Si4 0.432019 0.929479 0.625688
Si Si5 0.347010 0.569850 0.546374
Si Si6 0.571096 0.422582 0.715824
Si Si7 0.279752 0.570263 0.046248
O O1 0.000000 0.500000 0.500000
O O2 0.057404 0.474027 0.575240
O O3 0.000000 0.250000 0.543672
O O4 0.927713 0.750000 0.695115
O O5 0.000000 0.970484 0.688568
O O6 0.896766 0.993203 0.653060
O O7 0.910408 0.993988 0.740230
O O8 0.392661 0.250000 0.887313
O O9 0.328300 0.463182 0.917569
O O10 0.500000 0.973328 0.618634
O O11 0.430679 0.750000 0.630668
O O12 0.392237 0.968976 0.584533
O O13 0.410388 0.002107 0.670638
O O14 0.364983 0.500000 0.500000
O O15 0.343271 0.750000 0.542717
O O16 0.283125 0.501885 0.556364
O O17 0.500000 0.429568 0.715575
O O18 0.588644 0.250000 0.717282
O O19 0.274385 0.750000 0.041914
O O20 0.298549 0.500000 0.000000
#
# Coordination Sequence:
#
# PCOD9535426 Si02
#       7
#     8  16  16  16  16  16  16
#     4  10  20  32  46  66  96 128 160 204 255 302
#     4  10  19  30  47  72 100 131 166 205 249 297
#     4  10  20  33  49  69  96 130 166 209 255 297
#     4   9  18  33  52  76 105 133 163 199 242 292
#     4  10  20  34  53  75 101 134 167 203 244 287
#     4   9  17  29  48  73 101 133 164 198 242 294
#     4  10  20  34  52  72  95 129 171 210 248 293
#
# _framework density 16.564397
#
# number of rings (size 3 to 8) (size 9 to 14) (size 15 to 20)
#    0.000    2.308    0.769    3.231    0.000    5.846 
#    0.000    0.000    0.000    0.923    0.000    6.462 
#    0.000    0.000    0.000    0.000    0.000    0.000 
#
# Total GULP energy -290067.654035 kJ/mol
# GULP energy per Si atom -5578.224116 kJ/mol
# Density = 1.652670 g / cm^3
# Si number density = 16.564397 Si / 1000 Ang^3
#
#
#
# Elastic Constant Matrix: (Units=GPa)
#
#
# Indices 1 2 3 4 5 6 
#
# 1 60.6582 40.8322 84.1399 0.0000 0.0000 0.0000
# 2 40.8322 55.9026 72.3031 0.0000 0.0000 0.0000
# 3 84.1399 72.3031 188.6879 0.0000 0.0000 0.0000
# 4 0.0000 0.0000 0.0000 36.2553 0.0000 0.0000
# 5 0.0000 0.0000 0.0000 0.0000 17.7528 0.0000
# 6 0.0000 0.0000 0.0000 0.0000 0.0000 18.5756
#
#
#
# Elastic Compliance Matrix: (Units=1/GPa)
#
#
# Indices 1 2 3 4 5 6 
#
# 1 0.048730 -0.014847 -0.016041 0.000000 0.000000 0.000000
# 2 -0.014847 0.039988 -0.008703 0.000000 0.000000 0.000000
# 3 -0.016041 -0.008703 0.015787 0.000000 0.000000 0.000000
# 4 0.000000 0.000000 0.000000 0.027582 0.000000 0.000000
# 5 0.000000 0.000000 0.000000 0.000000 0.056329 0.000000
# 6 0.000000 0.000000 0.000000 0.000000 0.000000 0.053834
#
#
# Mechanical properties :
#
#
# Convention : Reuss Voigt Hill
#
# Bulk Modulus (GPa) = 39.48535 77.75546 58.62041
# Shear Modulus (GPa) = 15.15733 21.71497 18.43615
#
# Velocity S-wave (km/s) = 3.02827 3.62462 3.33978
# Velocity P-wave (km/s) = 6.00970 8.03495 7.09496
#
# Compressibility (1/GPa) = 0.02532585
#
# Stress axis : x y z
#
# Youngs Moduli (GPa) = 20.52113 25.00738 63.34156
#
# Poissons Ratio (x) = 0.37127 1.01605
# Poissons Ratio (y) = 0.30467 0.55124
# Poissons Ratio (z) = 0.32918 0.21763
#
# Static dielectric constant tensor:
#      x y z
#    x 1.545610 0.000000 0.000000 
#    y 0.000000 1.556580 0.000000 
#    z 0.000000 0.000000 1.538390 
# 
# From -- ./inp_files/73384.got.cif
#   From: 2010.05.17/outbox.cif.g08.bks.cpg/sg74_37_cif.got.tgz:73384.got - 2010.06.03 17:57:02.
