data_PCOD9535615
_publ_section_title
;
Structure prediction by ZEFSAII (Michael W. Deem and Ramdas Pophale) SiO2 
 PCOD9535615
Probable space group: I M M A
;
_chemical_formula_sum "Si O2"
_cell_formula_units_Z 96
_cell_length_a 14.320256
_cell_length_b 14.495006
_cell_length_c 24.826486
_cell_angle_alpha 90.000000
_cell_angle_beta 90.000000
_cell_angle_gamma 90.000000
_cell_volume 5153.288234
_symmetry_space_group_name_H-M "I M M A"
_symmetry_group_IT_number 74
_symmetry_cell_setting 'orthorhombic'
loop_
_space_group_symop_operation_xyz
x,y,z
-x,1/2-y,z
x,-y,-z
-x,1/2+y,-z
-x,-y,-z
x,1/2+y,-z
-x,y,z
x,1/2-y,z
1/2+x,1/2+y,1/2+z
1/2-x,-y,1/2+z
1/2+x,1/2-y,1/2-z
1/2-x,y,1/2-z
1/2-x,1/2-y,1/2-z
1/2+x,y,1/2-z
1/2-x,1/2+y,1/2+z
1/2+x,-y,1/2+z
loop_
_atom_site_type_symbol
_atom_site_label
_atom_site_fract_x
_atom_site_fract_y
_atom_site_fract_z
Si Si1 0.603850 0.142022 0.273376
Si Si2 0.611695 0.015570 0.437560
Si Si3 0.264668 0.858165 0.626336
Si Si4 0.886169 0.856769 0.146993
Si Si5 0.107537 0.976368 0.664419
Si Si6 0.113818 0.644831 0.269537
O O1 0.500000 0.126368 0.297678
O O2 0.610277 0.250000 0.258434
O O3 0.683359 0.123434 0.316627
O O4 0.609029 0.081733 0.220172
O O5 0.500000 0.024113 0.432548
O O6 0.641890 0.931397 0.397883
O O7 0.633699 0.000000 0.500000
O O8 0.662332 0.107425 0.417598
O O9 0.243984 0.750000 0.623114
O O10 0.173512 0.921416 0.624438
O O11 0.857606 0.750000 0.136842
O O12 0.858140 0.882213 0.208519
O O13 0.000000 0.856429 0.146979
O O14 0.000000 0.982121 0.646425
O O15 0.143412 0.076060 0.683473
O O16 0.142722 0.750000 0.278535
O O17 0.000000 0.641676 0.269628
#
# Coordination Sequence:
#
# PCOD9535615 Si02
#       6
#    16  16  16  16  16  16
#     4   9  17  29  46  70 101 137 174 208 246 297
#     4  10  21  36  54  75  98 127 166 213 265 315
#     4  11  22  34  50  74 104 136 171 211 254 302
#     4   8  14  27  48  72  98 129 164 203 249 301
#     4  10  19  31  49  73 104 140 173 206 245 295
#     4   8  14  26  46  71  98 130 166 201 240 289
#
# _framework density 18.628882999999998
#
# number of rings (size 3 to 8) (size 9 to 14) (size 15 to 20)
#    0.000    2.667    0.000    3.500    0.000    6.667 
#    0.000    2.500    0.000    4.500    0.000    0.000 
#    0.000    0.000    0.000    0.000    0.000    0.000 
#
# Total GULP energy -267940.306189 kJ/mol
# GULP energy per Si atom -5582.089712 kJ/mol
# Density = 1.858648 g / cm^3
# Si number density = 18.628883 Si / 1000 Ang^3
#
#
#
# Elastic Constant Matrix: (Units=GPa)
#
#
# Indices 1 2 3 4 5 6 
#
# 1 46.8432 21.7694 0.5669 0.0000 0.0000 0.0000
# 2 21.7694 67.4348 21.9878 0.0000 0.0000 0.0000
# 3 0.5669 21.9878 36.7441 0.0000 0.0000 0.0000
# 4 0.0000 0.0000 0.0000 6.8695 0.0000 0.0000
# 5 0.0000 0.0000 0.0000 0.0000 13.5143 0.0000
# 6 0.0000 0.0000 0.0000 0.0000 0.0000 17.1594
#
#
#
# Elastic Compliance Matrix: (Units=1/GPa)
#
#
# Indices 1 2 3 4 5 6 
#
# 1 0.026060 -0.010289 0.005755 0.000000 0.000000 0.000000
# 2 -0.010289 0.022486 -0.013297 0.000000 0.000000 0.000000
# 3 0.005755 -0.013297 0.035084 0.000000 0.000000 0.000000
# 4 0.000000 0.000000 0.000000 0.145570 0.000000 0.000000
# 5 0.000000 0.000000 0.000000 0.000000 0.073996 0.000000
# 6 0.000000 0.000000 0.000000 0.000000 0.000000 0.058277
#
#
# Mechanical properties :
#
#
# Convention : Reuss Voigt Hill
#
# Bulk Modulus (GPa) = 20.84762 26.63002 23.73882
# Shear Modulus (GPa) = 12.10289 14.62184 13.36236
#
# Velocity S-wave (km/s) = 2.55166 2.80465 2.68114
# Velocity P-wave (km/s) = 4.46056 4.98138 4.72814
#
# Compressibility (1/GPa) = 0.04796711
#
# Stress axis : x y z
#
# Youngs Moduli (GPa) = 38.37322 44.47139 28.50342
#
# Poissons Ratio (x) = 0.45757 -0.16404
# Poissons Ratio (y) = 0.39483 0.37901
# Poissons Ratio (z) = -0.22084 0.59134
#
# Static dielectric constant tensor:
#      x y z
#    x 1.714970 0.000000 0.000000 
#    y 0.000000 1.679220 0.000000 
#    z 0.000000 0.000000 1.604010 
# 
# From -- ./inp_files/51842.got.cif
#   From: 2010.05.17/outbox.cif.g08.bks.cpg/sg74_26_cif.got.tgz:51842.got - 2010.06.03 17:57:02.
