data_PCOD9535565
_publ_section_title
;
Structure prediction by ZEFSAII (Michael W. Deem and Ramdas Pophale) SiO2 
 PCOD9535565
Probable space group: I M M A
;
_chemical_formula_sum "Si O2"
_cell_formula_units_Z 96
_cell_length_a 9.505593
_cell_length_b 23.904280
_cell_length_c 24.461836
_cell_angle_alpha 90.000000
_cell_angle_beta 90.000000
_cell_angle_gamma 90.000000
_cell_volume 5558.324947
_symmetry_space_group_name_H-M "I M M A"
_symmetry_group_IT_number 74
_symmetry_cell_setting 'orthorhombic'
loop_
_space_group_symop_operation_xyz
x,y,z
-x,1/2-y,z
x,-y,-z
-x,1/2+y,-z
-x,-y,-z
x,1/2+y,-z
-x,y,z
x,1/2-y,z
1/2+x,1/2+y,1/2+z
1/2-x,-y,1/2+z
1/2+x,1/2-y,1/2-z
1/2-x,y,1/2-z
1/2-x,1/2-y,1/2-z
1/2+x,y,1/2-z
1/2-x,1/2+y,1/2+z
1/2+x,-y,1/2+z
loop_
_atom_site_type_symbol
_atom_site_label
_atom_site_fract_x
_atom_site_fract_y
_atom_site_fract_z
Si Si1 0.336426 0.815299 0.887298
Si Si2 0.331683 0.613873 0.399189
Si Si3 0.832491 0.523450 0.193366
Si Si4 0.166882 0.814617 0.482016
Si Si5 0.843439 0.683525 0.201423
Si Si6 0.332762 0.391799 0.306006
O O1 0.500000 0.829488 0.875370
O O2 0.315453 0.750000 0.872975
O O3 0.232674 0.854298 0.853621
O O4 0.316574 0.820073 0.952590
O O5 0.500000 0.611046 0.410131
O O6 0.294395 0.560605 0.360353
O O7 0.248460 0.634662 0.452332
O O8 0.298404 0.664513 0.357642
O O9 0.750000 0.536312 0.250000
O O10 0.809438 0.457724 0.182032
O O11 0.000000 0.531406 0.202427
O O12 0.212046 0.750000 0.467786
O O13 0.000000 0.818200 0.469533
O O14 0.845117 0.750000 0.204082
O O15 0.750000 0.661727 0.250000
O O16 0.000000 0.661900 0.209586
O O17 0.500000 0.382796 0.299753
O O18 0.250000 0.378924 0.250000
#
# Coordination Sequence:
#
# PCOD9535565 Si02
#       6
#    16  16  16  16  16  16
#     4   9  19  37  58  79 105 134 165 206 253 301
#     4  10  19  31  48  70  97 131 172 213 252 298
#     4   9  19  34  51  74 104 137 173 214 257 299
#     4   9  19  35  53  74 101 133 170 213 259 304
#     4   9  17  27  39  59  87 118 155 202 252 296
#     4  10  20  35  56  81 108 137 168 203 248 303
#
# _framework density 17.27139
#
# number of rings (size 3 to 8) (size 9 to 14) (size 15 to 20)
#    0.000    2.667    0.000    2.500    0.000    4.333 
#    0.000    4.167    0.000    5.000    0.000    0.000 
#    0.000    0.000    0.000    0.000    0.000    0.000 
#
# Total GULP energy -267229.345924 kJ/mol
# GULP energy per Si atom -5567.278040 kJ/mol
# Density = 1.723208 g / cm^3
# Si number density = 17.271390 Si / 1000 Ang^3
#
#
#
# Elastic Constant Matrix: (Units=GPa)
#
#
# Indices 1 2 3 4 5 6 
#
# 1 60.6379 54.4626 52.0187 0.0000 0.0000 0.0000
# 2 54.4626 85.9562 51.1722 0.0000 0.0000 0.0000
# 3 52.0187 51.1722 69.6915 0.0000 0.0000 0.0000
# 4 0.0000 0.0000 0.0000 34.0695 0.0000 0.0000
# 5 0.0000 0.0000 0.0000 0.0000 34.8804 0.0000
# 6 0.0000 0.0000 0.0000 0.0000 0.0000 23.5922
#
#
#
# Elastic Compliance Matrix: (Units=1/GPa)
#
#
# Indices 1 2 3 4 5 6 
#
# 1 0.061195 -0.020575 -0.030569 0.000000 0.000000 0.000000
# 2 -0.020575 0.027586 -0.004898 0.000000 0.000000 0.000000
# 3 -0.030569 -0.004898 0.040763 0.000000 0.000000 0.000000
# 4 0.000000 0.000000 0.000000 0.029352 0.000000 0.000000
# 5 0.000000 0.000000 0.000000 0.000000 0.028669 0.000000
# 6 0.000000 0.000000 0.000000 0.000000 0.000000 0.042387
#
#
# Mechanical properties :
#
#
# Convention : Reuss Voigt Hill
#
# Bulk Modulus (GPa) = 57.27633 59.06583 58.17108
# Shear Modulus (GPa) = 14.37369 22.41724 18.39547
#
# Velocity S-wave (km/s) = 2.88796 3.60660 3.26710
# Velocity P-wave (km/s) = 6.65995 7.18445 6.92717
#
# Compressibility (1/GPa) = 0.01745922
#
# Stress axis : x y z
#
# Youngs Moduli (GPa) = 16.34118 36.24967 24.53200
#
# Poissons Ratio (x) = 0.74583 0.74993
# Poissons Ratio (y) = 0.33622 0.12017
# Poissons Ratio (z) = 0.49954 0.17757
#
# Static dielectric constant tensor:
#      x y z
#    x 1.582710 0.000000 0.000000 
#    y 0.000000 1.604480 0.000000 
#    z 0.000000 0.000000 1.551600 
# 
# From -- ./inp_files/57233.got.cif
#   From: 2010.05.17/outbox.cif.g08.bks.cpg/sg74_29_cif.got.tgz:57233.got - 2010.06.03 17:57:02.
