data_PCOD9535187
_publ_section_title
;
Structure prediction by ZEFSAII (Michael W. Deem and Ramdas Pophale) SiO2 
 PCOD9535187
Probable space group: I M M A
;
_chemical_formula_sum "Si O2"
_cell_formula_units_Z 92
_cell_length_a 11.726660
_cell_length_b 23.100821
_cell_length_c 17.263025
_cell_angle_alpha 90.000000
_cell_angle_beta 90.000000
_cell_angle_gamma 90.000000
_cell_volume 4676.475333
_symmetry_space_group_name_H-M "I M M A"
_symmetry_group_IT_number 74
_symmetry_cell_setting 'orthorhombic'
loop_
_space_group_symop_operation_xyz
x,y,z
-x,1/2-y,z
x,-y,-z
-x,1/2+y,-z
-x,-y,-z
x,1/2+y,-z
-x,y,z
x,1/2-y,z
1/2+x,1/2+y,1/2+z
1/2-x,-y,1/2+z
1/2+x,1/2-y,1/2-z
1/2-x,y,1/2-z
1/2-x,1/2-y,1/2-z
1/2+x,y,1/2-z
1/2-x,1/2+y,1/2+z
1/2+x,-y,1/2+z
loop_
_atom_site_type_symbol
_atom_site_label
_atom_site_fract_x
_atom_site_fract_y
_atom_site_fract_z
Si Si1 0.500000 0.371766 0.477172
Si Si2 0.238863 0.497542 0.161023
Si Si3 0.263182 0.250000 0.342474
Si Si4 0.130406 0.907123 0.435296
Si Si5 0.630255 0.319284 0.794156
Si Si6 0.000000 0.750000 0.931791
Si Si7 0.747050 0.876458 0.594508
Si Si8 0.000000 0.471516 0.914377
O O1 0.500000 0.303831 0.488486
O O2 0.387438 0.382108 0.426055
O O3 0.500000 0.404981 0.558312
O O4 0.250000 0.515017 0.250000
O O5 0.315368 0.537020 0.105373
O O6 0.271535 0.430127 0.151122
O O7 0.111103 0.510021 0.131863
O O8 0.250000 0.250000 0.250000
O O9 0.392044 0.250000 0.375118
O O10 0.219968 0.312572 0.374367
O O11 0.136518 0.854880 0.373739
O O12 0.193540 0.889332 0.513135
O O13 0.000000 0.919300 0.453667
O O14 0.500000 0.332613 0.761519
O O15 0.632350 0.250000 0.805896
O O16 0.750000 0.333665 0.750000
O O17 0.000000 0.500000 0.000000
#
# Coordination Sequence:
#
# PCOD9535187 Si02
#       8
#     8  16   8  16  16   4  16   8
#     4  10  18  40  68  92 120 163 219 274 310 372
#     4  12  25  40  65  97 131 167 213 273 330 385
#     4  10  22  42  66  96 130 164 209 269 327 388
#     4  11  24  41  61  90 130 171 211 260 318 394
#     4   9  19  39  64  89 127 170 216 272 331 386
#     4   8  20  36  68  96 126 158 210 274 318 372
#     4  11  22  42  66  93 127 168 217 262 322 389
#     4  12  20  42  70  94 124 174 223 268 320 396
#
# _framework density 19.672936
#
# number of rings (size 3 to 8) (size 9 to 14) (size 15 to 20)
#    0.000    1.391    3.478    1.565    2.435    1.391 
#    4.696    0.000    0.000    0.000    0.000    0.000 
#    0.000    0.000    0.000    0.000    0.000    0.000 
#
# Total GULP energy -256579.929527 kJ/mol
# GULP energy per Si atom -5577.824555 kJ/mol
# Density = 1.962816 g / cm^3
# Si number density = 19.672936 Si / 1000 Ang^3
#
#
#
# Elastic Constant Matrix: (Units=GPa)
#
#
# Indices 1 2 3 4 5 6 
#
# 1 118.3750 32.3170 51.3476 0.0000 0.0000 0.0000
# 2 32.3170 137.2242 66.0135 0.0000 0.0000 0.0000
# 3 51.3476 66.0135 114.5834 0.0000 0.0000 0.0000
# 4 0.0000 0.0000 0.0000 30.1083 0.0000 0.0000
# 5 0.0000 0.0000 0.0000 0.0000 -8.0238 0.0000
# 6 0.0000 0.0000 0.0000 0.0000 0.0000 16.3997
#
#
#
# Elastic Compliance Matrix: (Units=1/GPa)
#
#
# Indices 1 2 3 4 5 6 
#
# 1 0.010494 -0.000289 -0.004536 0.000000 0.000000 0.000000
# 2 -0.000289 0.010089 -0.005683 0.000000 0.000000 0.000000
# 3 -0.004536 -0.005683 0.014034 0.000000 0.000000 0.000000
# 4 0.000000 0.000000 0.000000 0.033213 0.000000 0.000000
# 5 0.000000 0.000000 0.000000 0.000000 -0.124629 0.000000
# 6 0.000000 0.000000 0.000000 0.000000 0.000000 0.060977
#
#
# Mechanical properties :
#
#
# Convention : Reuss Voigt Hill
#
# Bulk Modulus (GPa) = 73.52428 74.39320 73.95874
# Shear Modulus (GPa) = 168.18023 22.39712 95.28867
#
# Velocity S-wave (km/s) = 9.25601 3.37779 6.96718
# Velocity P-wave (km/s) = 12.31609 7.28764 10.11918
#
# Compressibility (1/GPa) = 0.01360095
#
# Stress axis : x y z
#
# Youngs Moduli (GPa) = 95.28946 99.11423 71.25520
#
# Poissons Ratio (x) = 0.02868 0.32322
# Poissons Ratio (y) = 0.02757 0.40494
# Poissons Ratio (z) = 0.43224 0.56327
#
# Static dielectric constant tensor:
#      x y z
#    x 1.697550 0.000000 0.000000 
#    y 0.000000 1.762740 0.000000 
#    z 0.000000 0.000000 1.624130 
# 
# From -- ./inp_files/41352.got.cif
#   From: 2010.05.17/outbox.cif.g08.bks.cpg/sg74_21_cif.got.tgz:41352.got - 2010.06.03 17:57:02.
