data_PCOD9535400
_publ_section_title
;
Structure prediction by ZEFSAII (Michael W. Deem and Ramdas Pophale) SiO2 
 PCOD9535400
Probable space group: I M M A
;
_chemical_formula_sum "Si O2"
_cell_formula_units_Z 112
_cell_length_a 14.482112
_cell_length_b 15.369468
_cell_length_c 30.476278
_cell_angle_alpha 90.000000
_cell_angle_beta 90.000000
_cell_angle_gamma 90.000000
_cell_volume 6783.481788
_symmetry_space_group_name_H-M "I M M A"
_symmetry_group_IT_number 74
_symmetry_cell_setting 'orthorhombic'
loop_
_space_group_symop_operation_xyz
x,y,z
-x,1/2-y,z
x,-y,-z
-x,1/2+y,-z
-x,-y,-z
x,1/2+y,-z
-x,y,z
x,1/2-y,z
1/2+x,1/2+y,1/2+z
1/2-x,-y,1/2+z
1/2+x,1/2-y,1/2-z
1/2-x,y,1/2-z
1/2-x,1/2-y,1/2-z
1/2+x,y,1/2-z
1/2-x,1/2+y,1/2+z
1/2+x,-y,1/2+z
loop_
_atom_site_type_symbol
_atom_site_label
_atom_site_fract_x
_atom_site_fract_y
_atom_site_fract_z
Si Si1 0.893187 0.355196 0.471064
Si Si2 0.389848 0.350647 0.601770
Si Si3 0.234913 0.147900 0.198090
Si Si4 0.394591 0.355104 0.128790
Si Si5 0.891157 0.155608 0.070602
Si Si6 0.390162 0.524095 0.646710
Si Si7 0.211061 0.598047 0.012572
O O1 0.888316 0.250000 0.472535
O O2 0.867589 0.382726 0.420897
O O3 0.820654 0.391487 0.505962
O O4 0.000000 0.379719 0.478542
O O5 0.500000 0.361125 0.591573
O O6 0.375366 0.250000 0.614358
O O7 0.366661 0.423337 0.638265
O O8 0.330179 0.372959 0.558758
O O9 0.211824 0.250000 0.188857
O O10 0.250000 0.142477 0.250000
O O11 0.323119 0.124232 0.167404
O O12 0.158200 0.078155 0.184655
O O13 0.500000 0.384944 0.137139
O O14 0.397559 0.250000 0.127038
O O15 0.876374 0.250000 0.092326
O O16 0.864530 0.077872 0.102661
O O17 0.000000 0.147193 0.060905
O O18 0.835153 0.153535 0.026023
O O19 0.500000 0.530369 0.651695
O O20 0.184546 0.500000 0.000000
#
# Coordination Sequence:
#
# PCOD9535400 Si02
#       7
#    16  16  16  16  16  16  16
#     4   9  18  32  48  65  89 126 171 213 248 286
#     4  10  21  36  52  71  99 135 173 211 250 295
#     4  10  20  32  50  78 108 133 157 192 244 307
#     4   8  15  29  48  67  91 127 166 198 232 283
#     4  10  19  30  46  69  99 134 168 201 241 294
#     4  10  20  34  51  73 102 133 168 204 244 298
#     4  12  21  29  46  70  99 133 169 214 256 295
#
# _framework density 16.510694999999998
#
# number of rings (size 3 to 8) (size 9 to 14) (size 15 to 20)
#    0.000    2.143    1.429    3.857    0.000    4.571 
#    0.000    1.429    0.000    0.429    0.000    0.000 
#    0.000    0.000    0.000    0.000    0.000    0.000 
#
# Total GULP energy -312161.035395 kJ/mol
# GULP energy per Si atom -5574.304203 kJ/mol
# Density = 1.647312 g / cm^3
# Si number density = 16.510695 Si / 1000 Ang^3
#
#
#
# Elastic Constant Matrix: (Units=GPa)
#
#
# Indices 1 2 3 4 5 6 
#
# 1 52.9627 37.1508 38.6563 0.0000 0.0000 0.0000
# 2 37.1508 102.0551 30.1090 0.0000 0.0000 0.0000
# 3 38.6563 30.1090 62.7269 0.0000 0.0000 0.0000
# 4 0.0000 0.0000 0.0000 16.4853 0.0000 0.0000
# 5 0.0000 0.0000 0.0000 0.0000 14.3879 0.0000
# 6 0.0000 0.0000 0.0000 0.0000 0.0000 15.4886
#
#
#
# Elastic Compliance Matrix: (Units=1/GPa)
#
#
# Indices 1 2 3 4 5 6 
#
# 1 0.039694 -0.008426 -0.020417 0.000000 0.000000 0.000000
# 2 -0.008426 0.013204 -0.001145 0.000000 0.000000 0.000000
# 3 -0.020417 -0.001145 0.029074 0.000000 0.000000 0.000000
# 4 0.000000 0.000000 0.000000 0.060660 0.000000 0.000000
# 5 0.000000 0.000000 0.000000 0.000000 0.069503 0.000000
# 6 0.000000 0.000000 0.000000 0.000000 0.000000 0.064563
#
#
# Mechanical properties :
#
#
# Convention : Reuss Voigt Hill
#
# Bulk Modulus (GPa) = 45.46531 47.73079 46.59805
# Shear Modulus (GPa) = 14.53461 16.72762 15.63111
#
# Velocity S-wave (km/s) = 2.97023 3.18644 3.08023
# Velocity P-wave (km/s) = 6.27373 6.51994 6.39802
#
# Compressibility (1/GPa) = 0.02199479
#
# Stress axis : x y z
#
# Youngs Moduli (GPa) = 25.19292 75.73598 34.39467
#
# Poissons Ratio (x) = 0.63814 0.70225
# Poissons Ratio (y) = 0.21227 0.03939
# Poissons Ratio (z) = 0.51437 0.08674
#
# Static dielectric constant tensor:
#      x y z
#    x 1.597450 0.000000 0.000000 
#    y 0.000000 1.580980 0.000000 
#    z 0.000000 0.000000 1.537320 
# 
# From -- ./inp_files/67151.got.cif
#   From: 2010.05.17/outbox.cif.g08.bks.cpg/sg74_34_cif.got.tgz:67151.got - 2010.06.03 17:57:02.
