data_PCOD9535470
_publ_section_title
;
Structure prediction by ZEFSAII (Michael W. Deem and Ramdas Pophale) SiO2 
 PCOD9535470
Probable space group: I M M A
;
_chemical_formula_sum "Si O2"
_cell_formula_units_Z 96
_cell_length_a 13.771695
_cell_length_b 15.919015
_cell_length_c 20.466419
_cell_angle_alpha 90.000000
_cell_angle_beta 90.000000
_cell_angle_gamma 90.000000
_cell_volume 4486.890272
_symmetry_space_group_name_H-M "I M M A"
_symmetry_group_IT_number 74
_symmetry_cell_setting 'orthorhombic'
loop_
_space_group_symop_operation_xyz
x,y,z
-x,1/2-y,z
x,-y,-z
-x,1/2+y,-z
-x,-y,-z
x,1/2+y,-z
-x,y,z
x,1/2-y,z
1/2+x,1/2+y,1/2+z
1/2-x,-y,1/2+z
1/2+x,1/2-y,1/2-z
1/2-x,y,1/2-z
1/2-x,1/2-y,1/2-z
1/2+x,y,1/2-z
1/2-x,1/2+y,1/2+z
1/2+x,-y,1/2+z
loop_
_atom_site_type_symbol
_atom_site_label
_atom_site_fract_x
_atom_site_fract_y
_atom_site_fract_z
Si Si1 0.887557 0.848866 0.952095
Si Si2 0.381832 0.154744 0.843985
Si Si3 0.699755 0.404494 0.983049
Si Si4 0.111447 0.015729 0.292675
Si Si5 0.340829 0.156959 0.300363
Si Si6 0.383670 0.341110 0.112118
O O1 0.887661 0.750000 0.968749
O O2 0.842670 0.853903 0.878742
O O3 0.000000 0.877641 0.951698
O O4 0.814201 0.893506 0.001967
O O5 0.500000 0.157164 0.850006
O O6 0.351415 0.250000 0.827517
O O7 0.335267 0.125412 0.912599
O O8 0.351699 0.079357 0.794612
O O9 0.671966 0.500000 0.000000
O O10 0.645687 0.349173 0.037503
O O11 0.113782 0.070920 0.227481
O O12 0.153730 0.077791 0.348375
O O13 0.000000 0.006723 0.311468
O O14 0.388714 0.250000 0.291493
O O15 0.250000 0.161746 0.250000
O O16 0.500000 0.340257 0.118738
O O17 0.347884 0.250000 0.136904
#
# Coordination Sequence:
#
# PCOD9535470 Si02
#       6
#    16  16  16  16  16  16
#     4  10  22  39  57  81 114 152 194 237 287 344
#     4  10  21  36  55  83 120 157 193 235 285 344
#     4  12  22  34  55  78 110 155 196 241 283 336
#     4  10  19  32  52  81 114 149 184 223 281 348
#     4  10  20  34  57  86 117 148 181 229 291 355
#     4  10  19  30  48  78 115 148 181 224 280 347
#
# _framework density 21.395665000000001
#
# number of rings (size 3 to 8) (size 9 to 14) (size 15 to 20)
#    0.000    1.667    1.667    4.000    0.000    5.333 
#    0.000    0.000    0.000    0.500    0.000    0.000 
#    0.000    0.000    0.000    0.000    0.000    0.000 
#
# Total GULP energy -267440.922622 kJ/mol
# GULP energy per Si atom -5571.685888 kJ/mol
# Density = 2.134697 g / cm^3
# Si number density = 21.395665 Si / 1000 Ang^3
#
#
#
# Elastic Constant Matrix: (Units=GPa)
#
#
# Indices 1 2 3 4 5 6 
#
# 1 62.6198 22.7111 1.1072 0.0000 0.0000 0.0000
# 2 22.7111 184.0550 28.4389 0.0000 0.0000 0.0000
# 3 1.1072 28.4389 37.2854 0.0000 0.0000 0.0000
# 4 0.0000 0.0000 0.0000 12.7886 0.0000 0.0000
# 5 0.0000 0.0000 0.0000 0.0000 18.6084 0.0000
# 6 0.0000 0.0000 0.0000 0.0000 0.0000 21.8213
#
#
#
# Elastic Compliance Matrix: (Units=1/GPa)
#
#
# Indices 1 2 3 4 5 6 
#
# 1 0.016767 -0.002258 0.001224 0.000000 0.000000 0.000000
# 2 -0.002258 0.006463 -0.004863 0.000000 0.000000 0.000000
# 3 0.001224 -0.004863 0.030493 0.000000 0.000000 0.000000
# 4 0.000000 0.000000 0.000000 0.078194 0.000000 0.000000
# 5 0.000000 0.000000 0.000000 0.000000 0.053739 0.000000
# 6 0.000000 0.000000 0.000000 0.000000 0.000000 0.045827
#
#
# Mechanical properties :
#
#
# Convention : Reuss Voigt Hill
#
# Bulk Modulus (GPa) = 23.84927 43.16383 33.50655
# Shear Modulus (GPa) = 19.43618 26.09053 22.76335
#
# Velocity S-wave (km/s) = 3.01726 3.49582 3.26532
# Velocity P-wave (km/s) = 4.82799 6.04254 5.46908
#
# Compressibility (1/GPa) = 0.04193000
#
# Stress axis : x y z
#
# Youngs Moduli (GPa) = 59.64204 154.72391 32.79473
#
# Poissons Ratio (x) = 0.34938 -0.04015
# Poissons Ratio (y) = 0.13468 0.15947
# Poissons Ratio (z) = -0.07303 0.75236
#
# Static dielectric constant tensor:
#      x y z
#    x 1.883170 0.000000 0.000000 
#    y 0.000000 1.838400 0.000000 
#    z 0.000000 0.000000 1.745640 
# 
# From -- ./inp_files/51893.got.cif
#   From: 2010.05.17/outbox.cif.g08.bks.cpg/sg74_26_cif.got.tgz:51893.got - 2010.06.03 17:57:02.
