data_PCOD9535874
_publ_section_title
;
Structure prediction by ZEFSAII (Michael W. Deem and Ramdas Pophale) SiO2 
 PCOD9535874
Probable space group: I M M A
;
_chemical_formula_sum "Si O2"
_cell_formula_units_Z 80
_cell_length_a 26.440606
_cell_length_b 7.588585
_cell_length_c 20.770619
_cell_angle_alpha 90.000000
_cell_angle_beta 90.000000
_cell_angle_gamma 90.000000
_cell_volume 4167.557947
_symmetry_space_group_name_H-M "I M M A"
_symmetry_group_IT_number 74
_symmetry_cell_setting 'orthorhombic'
loop_
_space_group_symop_operation_xyz
x,y,z
-x,1/2-y,z
x,-y,-z
-x,1/2+y,-z
-x,-y,-z
x,1/2+y,-z
-x,y,z
x,1/2-y,z
1/2+x,1/2+y,1/2+z
1/2-x,-y,1/2+z
1/2+x,1/2-y,1/2-z
1/2-x,y,1/2-z
1/2-x,1/2-y,1/2-z
1/2+x,y,1/2-z
1/2-x,1/2+y,1/2+z
1/2+x,-y,1/2+z
loop_
_atom_site_type_symbol
_atom_site_label
_atom_site_fract_x
_atom_site_fract_y
_atom_site_fract_z
Si Si1 0.781375 0.458501 0.571262
Si Si2 0.500000 0.034276 0.250598
Si Si3 0.214706 0.458855 0.193278
Si Si4 0.609426 0.536952 0.111348
Si Si5 0.608567 0.039955 0.263982
Si Si6 0.500000 0.453737 0.900684
O O1 0.763009 0.500000 0.500000
O O2 0.785121 0.250000 0.579128
O O3 0.743488 0.521143 0.626332
O O4 0.838723 0.529828 0.579780
O O5 0.500000 0.250000 0.245958
O O6 0.552557 0.974995 0.281933
O O7 0.500000 0.963233 0.177432
O O8 0.210116 0.250000 0.205664
O O9 0.250000 0.533598 0.250000
O O10 0.157921 0.531621 0.200041
O O11 0.607288 0.750000 0.106396
O O12 0.613857 0.492243 0.187234
O O13 0.555539 0.469158 0.083394
O O14 0.607108 0.250000 0.273922
O O15 0.500000 0.250000 0.921953
#
# Coordination Sequence:
#
# PCOD9535874 Si02
#       6
#    16   8  16  16  16   8
#     4  11  23  36  50  69  96 130 166 205 246 290
#     4   8  14  24  40  67  98 123 153 189 231 279
#     4  10  19  32  51  74 100 129 161 198 242 289
#     4   9  17  29  46  67  92 124 161 200 239 280
#     4   9  16  27  46  71  98 127 156 193 236 281
#     4   8  14  26  43  63  89 121 157 197 238 275
#
# _framework density 19.195895
#
# number of rings (size 3 to 8) (size 9 to 14) (size 15 to 20)
#    0.000    2.600    2.000    0.600    0.000    2.000 
#    0.000    0.500    0.000    0.000    0.000    0.700 
#    0.000    0.000    0.000    0.000    0.000    0.000 
#
# Total GULP energy -222934.626892 kJ/mol
# GULP energy per Si atom -5573.365672 kJ/mol
# Density = 1.915220 g / cm^3
# Si number density = 19.195895 Si / 1000 Ang^3
#
#
#
# Elastic Constant Matrix: (Units=GPa)
#
#
# Indices 1 2 3 4 5 6 
#
# 1 181.1334 10.2837 72.0021 0.0000 0.0000 0.0000
# 2 10.2837 37.6034 -22.9558 0.0000 0.0000 0.0000
# 3 72.0021 -22.9558 66.3988 0.0000 0.0000 0.0000
# 4 0.0000 0.0000 0.0000 11.0651 0.0000 0.0000
# 5 0.0000 0.0000 0.0000 0.0000 9.6528 0.0000
# 6 0.0000 0.0000 0.0000 0.0000 0.0000 4.2169
#
#
#
# Elastic Compliance Matrix: (Units=1/GPa)
#
#
# Indices 1 2 3 4 5 6 
#
# 1 0.016301 -0.019329 -0.024359 0.000000 0.000000 0.000000
# 2 -0.019329 0.056626 0.040537 0.000000 0.000000 0.000000
# 3 -0.024359 0.040537 0.055490 0.000000 0.000000 0.000000
# 4 0.000000 0.000000 0.000000 0.090374 0.000000 0.000000
# 5 0.000000 0.000000 0.000000 0.000000 0.103597 0.000000
# 6 0.000000 0.000000 0.000000 0.000000 0.000000 0.237140
#
#
# Mechanical properties :
#
#
# Convention : Reuss Voigt Hill
#
# Bulk Modulus (GPa) = 8.18903 44.86620 26.52762
# Shear Modulus (GPa) = 8.24355 20.04067 14.14211
#
# Velocity S-wave (km/s) = 2.07455 3.23462 2.71721
# Velocity P-wave (km/s) = 3.16443 6.11342 4.86762
#
# Compressibility (1/GPa) = 0.12211461
#
# Stress axis : x y z
#
# Youngs Moduli (GPa) = 61.34536 17.65982 18.02130
#
# Poissons Ratio (x) = 0.34134 0.43898
# Poissons Ratio (y) = 1.18572 -0.73052
# Poissons Ratio (z) = 1.49432 -0.71587
#
# Static dielectric constant tensor:
#      x y z
#    x 1.771250 0.000000 0.000000 
#    y 0.000000 1.773890 0.000000 
#    z 0.000000 0.000000 1.604360 
# 
# From -- ./inp_files/39775.got.cif
#   From: 2010.05.17/outbox.cif.g08.bks.cpg/sg74_20_cif.got.tgz:39775.got - 2010.06.03 17:57:02.
