data_PCOD9535167
_publ_section_title
;
Structure prediction by ZEFSAII (Michael W. Deem and Ramdas Pophale) SiO2 
 PCOD9535167
Probable space group: I M M A
;
_chemical_formula_sum "Si O2"
_cell_formula_units_Z 52
_cell_length_a 8.166816
_cell_length_b 11.215094
_cell_length_c 26.030773
_cell_angle_alpha 90.000000
_cell_angle_beta 90.000000
_cell_angle_gamma 90.000000
_cell_volume 2384.200386
_symmetry_space_group_name_H-M "I M M A"
_symmetry_group_IT_number 74
_symmetry_cell_setting 'orthorhombic'
loop_
_space_group_symop_operation_xyz
x,y,z
-x,1/2-y,z
x,-y,-z
-x,1/2+y,-z
-x,-y,-z
x,1/2+y,-z
-x,y,z
x,1/2-y,z
1/2+x,1/2+y,1/2+z
1/2-x,-y,1/2+z
1/2+x,1/2-y,1/2-z
1/2-x,y,1/2-z
1/2-x,1/2-y,1/2-z
1/2+x,y,1/2-z
1/2-x,1/2+y,1/2+z
1/2+x,-y,1/2+z
loop_
_atom_site_type_symbol
_atom_site_label
_atom_site_fract_x
_atom_site_fract_y
_atom_site_fract_z
Si Si1 0.197133 0.480719 0.308425
Si Si2 0.810721 0.250000 0.368822
Si Si3 0.322193 0.110870 0.603112
Si Si4 0.000000 0.433811 0.541149
Si Si5 0.000000 0.250000 0.467967
O O1 0.250000 0.465454 0.250000
O O2 0.257413 0.368800 0.343190
O O3 0.281542 0.590466 0.337118
O O4 0.000000 0.492207 0.311563
O O5 0.838305 0.250000 0.430135
O O6 0.000000 0.250000 0.350201
O O7 0.500000 0.057954 0.589905
O O8 0.330021 0.250000 0.592285
O O9 0.167231 0.062786 0.571908
O O10 0.000000 0.250000 0.531297
O O11 0.000000 0.411949 0.478776
#
# Coordination Sequence:
#
# PCOD9535167 Si02
#       5
#    16   8  16   8   4
#     4  11  21  38  64  94 131 177 219 272 337 393
#     4   8  19  37  59  96 128 164 224 268 324 409
#     4  11  24  43  64  95 135 171 223 279 320 396
#     4  12  22  40  70  94 128 176 214 276 337 382
#     4  10  18  36  64  94 116 174 216 246 346 380
#
# _framework density 21.810248000000001
#
# number of rings (size 3 to 8) (size 9 to 14) (size 15 to 20)
#    0.462    0.923    3.077    3.231    0.000    1.231 
#    0.000    2.308    0.000    1.846    0.000    0.000 
#    0.000    0.000    0.000    0.000    0.000    0.000 
#
# Total GULP energy -144738.302782 kJ/mol
# GULP energy per Si atom -5566.857799 kJ/mol
# Density = 2.176061 g / cm^3
# Si number density = 21.810248 Si / 1000 Ang^3
#
#
#
# Elastic Constant Matrix: (Units=GPa)
#
#
# Indices 1 2 3 4 5 6 
#
# 1 146.4880 42.4639 58.0563 0.0000 0.0000 0.0000
# 2 42.4639 48.7791 34.6839 0.0000 0.0000 0.0000
# 3 58.0563 34.6839 135.6757 0.0000 0.0000 0.0000
# 4 0.0000 0.0000 0.0000 43.0362 0.0000 0.0000
# 5 0.0000 0.0000 0.0000 0.0000 28.3918 0.0000
# 6 0.0000 0.0000 0.0000 0.0000 0.0000 2.4815
#
#
#
# Elastic Compliance Matrix: (Units=1/GPa)
#
#
# Indices 1 2 3 4 5 6 
#
# 1 0.009753 -0.006750 -0.002448 0.000000 0.000000 0.000000
# 2 -0.006750 0.029726 -0.004711 0.000000 0.000000 0.000000
# 3 -0.002448 -0.004711 0.009622 0.000000 0.000000 0.000000
# 4 0.000000 0.000000 0.000000 0.023236 0.000000 0.000000
# 5 0.000000 0.000000 0.000000 0.000000 0.035221 0.000000
# 6 0.000000 0.000000 0.000000 0.000000 0.000000 0.402977
#
#
# Mechanical properties :
#
#
# Convention : Reuss Voigt Hill
#
# Bulk Modulus (GPa) = 46.98291 66.81679 56.89985
# Shear Modulus (GPa) = 9.16676 27.83114 18.49895
#
# Velocity S-wave (km/s) = 2.05234 3.57607 2.91551
# Velocity P-wave (km/s) = 5.21580 6.91036 6.12199
#
# Compressibility (1/GPa) = 0.02128434
#
# Stress axis : x y z
#
# Youngs Moduli (GPa) = 102.52858 33.64024 103.92566
#
# Poissons Ratio (x) = 0.22707 0.25440
# Poissons Ratio (y) = 0.69208 0.48957
# Poissons Ratio (z) = 0.25098 0.15847
#
# Static dielectric constant tensor:
#      x y z
#    x 1.748870 0.000000 0.000000 
#    y 0.000000 1.337890 0.000000 
#    z 0.000000 0.000000 1.739000 
# 
# From -- ./inp_files/69613.got.cif
#   From: 2010.05.17/outbox.cif.g08.bks.cpg/sg74_35_cif.got.tgz:69613.got - 2010.06.03 17:57:02.
