data_PCOD9535717
_publ_section_title
;
Structure prediction by ZEFSAII (Michael W. Deem and Ramdas Pophale) SiO2 
 PCOD9535717
Probable space group: I M M A
;
_chemical_formula_sum "Si O2"
_cell_formula_units_Z 112
_cell_length_a 23.774812
_cell_length_b 17.466400
_cell_length_c 14.425507
_cell_angle_alpha 90.000000
_cell_angle_beta 90.000000
_cell_angle_gamma 90.000000
_cell_volume 5990.341465
_symmetry_space_group_name_H-M "I M M A"
_symmetry_group_IT_number 74
_symmetry_cell_setting 'orthorhombic'
loop_
_space_group_symop_operation_xyz
x,y,z
-x,1/2-y,z
x,-y,-z
-x,1/2+y,-z
-x,-y,-z
x,1/2+y,-z
-x,y,z
x,1/2-y,z
1/2+x,1/2+y,1/2+z
1/2-x,-y,1/2+z
1/2+x,1/2-y,1/2-z
1/2-x,y,1/2-z
1/2-x,1/2-y,1/2-z
1/2+x,y,1/2-z
1/2-x,1/2+y,1/2+z
1/2+x,-y,1/2+z
loop_
_atom_site_type_symbol
_atom_site_label
_atom_site_fract_x
_atom_site_fract_y
_atom_site_fract_z
Si Si1 0.565330 0.832996 0.079134
Si Si2 0.355215 0.540104 0.084946
Si Si3 0.150056 0.838142 0.045635
Si Si4 0.062324 0.630926 0.202694
Si Si5 0.735796 0.661110 0.141489
Si Si6 0.434819 0.342340 0.386512
Si Si7 0.064203 0.037299 0.272585
O O1 0.500000 0.835807 0.055363
O O2 0.588016 0.750000 0.051341
O O3 0.568904 0.840867 0.191368
O O4 0.596467 0.906238 0.040581
O O5 0.386882 0.517579 0.845726
O O6 0.324765 0.500000 0.000000
O O7 0.314476 0.601348 0.131554
O O8 0.160279 0.750000 0.020215
O O9 0.110255 0.840333 0.135734
O O10 0.210942 0.866744 0.079639
O O11 0.111595 0.869749 0.961732
O O12 0.064360 0.538804 0.208179
O O13 0.000000 0.654681 0.170971
O O14 0.722211 0.750000 0.116116
O O15 0.750000 0.662641 0.250000
O O16 0.500000 0.357535 0.416402
O O17 0.430228 0.250000 0.375192
O O18 0.426573 0.388532 0.290863
O O19 0.000000 0.040451 0.312328
#
# Coordination Sequence:
#
# PCOD9535717 Si02
#       7
#    16  16  16  16  16  16  16
#     4   9  17  30  51  77 104 136 171 211 268 331
#     4  11  22  37  54  79 109 140 178 229 276 324
#     4  10  19  31  51  78 107 143 183 223 269 320
#     4   9  16  27  47  79 113 138 166 211 273 332
#     4  10  21  39  59  78 106 144 187 230 277 329
#     4   9  18  34  55  80 112 148 186 224 268 332
#     4   9  19  35  54  78 110 146 178 219 279 335
#
# _framework density 18.696764000000002
#
# number of rings (size 3 to 8) (size 9 to 14) (size 15 to 20)
#    0.000    2.429    0.000    4.286    0.000    4.286 
#    5.143    3.571    0.000    1.714    0.000    3.000 
#    0.000    0.000    0.000    0.000    0.000    0.000 
#
# Total GULP energy -311893.005261 kJ/mol
# GULP energy per Si atom -5569.517951 kJ/mol
# Density = 1.865421 g / cm^3
# Si number density = 18.696764 Si / 1000 Ang^3
#
#
#
# Elastic Constant Matrix: (Units=GPa)
#
#
# Indices 1 2 3 4 5 6 
#
# 1 103.9389 15.9751 41.8360 0.0000 0.0000 0.0000
# 2 15.9751 43.5247 27.0899 0.0000 0.0000 0.0000
# 3 41.8360 27.0899 50.0602 0.0000 0.0000 0.0000
# 4 0.0000 0.0000 0.0000 15.7824 0.0000 0.0000
# 5 0.0000 0.0000 0.0000 0.0000 22.8542 0.0000
# 6 0.0000 0.0000 0.0000 0.0000 0.0000 20.6101
#
#
#
# Elastic Compliance Matrix: (Units=1/GPa)
#
#
# Indices 1 2 3 4 5 6 
#
# 1 0.014829 0.003424 -0.014245 0.000000 0.000000 0.000000
# 2 0.003424 0.035434 -0.022036 0.000000 0.000000 0.000000
# 3 -0.014245 -0.022036 0.043806 0.000000 0.000000 0.000000
# 4 0.000000 0.000000 0.000000 0.063362 0.000000 0.000000
# 5 0.000000 0.000000 0.000000 0.000000 0.043756 0.000000
# 6 0.000000 0.000000 0.000000 0.000000 0.000000 0.048520
#
#
# Mechanical properties :
#
#
# Convention : Reuss Voigt Hill
#
# Bulk Modulus (GPa) = 35.26974 40.81397 38.04185
# Shear Modulus (GPa) = 15.39065 19.35752 17.37409
#
# Velocity S-wave (km/s) = 2.87221 3.22116 3.05168
# Velocity P-wave (km/s) = 5.46850 5.97590 5.72782
#
# Compressibility (1/GPa) = 0.02835292
#
# Stress axis : x y z
#
# Youngs Moduli (GPa) = 67.43737 28.22123 22.82810
#
# Poissons Ratio (x) = -0.09662 0.32519
# Poissons Ratio (y) = -0.23088 0.50305
# Poissons Ratio (z) = 0.96065 0.62189
#
# Static dielectric constant tensor:
#      x y z
#    x 1.685640 0.000000 0.000000 
#    y 0.000000 1.698670 0.000000 
#    z 0.000000 0.000000 1.641100 
# 
# From -- ./inp_files/25388.got.cif
#   From: 2010.05.17/outbox.cif.g08.bks.cpg/sg74_13_cif.got.tgz:25388.got - 2010.06.03 17:57:02.
