data_PCOD9535611
_publ_section_title
;
Structure prediction by ZEFSAII (Michael W. Deem and Ramdas Pophale) SiO2 
 PCOD9535611
Probable space group: I M M A
;
_chemical_formula_sum "Si O2"
_cell_formula_units_Z 72
_cell_length_a 33.464319
_cell_length_b 8.683186
_cell_length_c 13.725883
_cell_angle_alpha 90.000000
_cell_angle_beta 90.000000
_cell_angle_gamma 90.000000
_cell_volume 3988.424618
_symmetry_space_group_name_H-M "I M M A"
_symmetry_group_IT_number 74
_symmetry_cell_setting 'orthorhombic'
loop_
_space_group_symop_operation_xyz
x,y,z
-x,1/2-y,z
x,-y,-z
-x,1/2+y,-z
-x,-y,-z
x,1/2+y,-z
-x,y,z
x,1/2-y,z
1/2+x,1/2+y,1/2+z
1/2-x,-y,1/2+z
1/2+x,1/2-y,1/2-z
1/2-x,y,1/2-z
1/2-x,1/2-y,1/2-z
1/2+x,y,1/2-z
1/2-x,1/2+y,1/2+z
1/2+x,-y,1/2+z
loop_
_atom_site_type_symbol
_atom_site_label
_atom_site_fract_x
_atom_site_fract_y
_atom_site_fract_z
Si Si1 0.848873 0.075156 0.404760
Si Si2 0.500000 0.936603 0.110614
Si Si3 0.868563 0.935831 0.893268
Si Si4 0.292046 0.427103 0.281267
Si Si5 0.418007 0.432796 0.786103
O O1 0.861894 0.250000 0.423467
O O2 0.817795 0.078033 0.317060
O O3 0.830558 0.000000 0.500000
O O4 0.886231 0.975230 0.369676
O O5 0.500000 0.750000 0.103831
O O6 0.539123 0.983469 0.172478
O O7 0.500000 0.000000 0.000000
O O8 0.867823 0.750000 0.893134
O O9 0.824069 0.991717 0.858903
O O10 0.900589 0.989144 0.811857
O O11 0.877641 0.000000 0.000000
O O12 0.283124 0.250000 0.312820
O O13 0.250000 0.501575 0.250000
O O14 0.419024 0.250000 0.769889
#
# Coordination Sequence:
#
# PCOD9535611 Si02
#       5
#    16   8  16  16  16
#     4  10  19  31  49  73 101 134 169 204 250 304
#     4  10  22  36  55  82 109 138 169 208 258 314
#     4  10  20  35  56  79 104 139 179 217 261 309
#     4   8  16  31  49  71 101 134 170 213 256 301
#     4  10  20  36  55  77 105 134 170 213 257 307
#
# _framework density 18.052240000000001
#
# number of rings (size 3 to 8) (size 9 to 14) (size 15 to 20)
#    0.000    2.444    0.000    4.000    0.000    4.444 
#    0.000    0.556    0.000   22.667    0.000    0.000 
#    0.000    0.000    0.000    0.000    0.000    0.000 
#
# Total GULP energy -200531.857987 kJ/mol
# GULP energy per Si atom -5570.329389 kJ/mol
# Density = 1.801115 g / cm^3
# Si number density = 18.052240 Si / 1000 Ang^3
#
#
#
# Elastic Constant Matrix: (Units=GPa)
#
#
# Indices 1 2 3 4 5 6 
#
# 1 117.5288 23.1907 25.2486 0.0000 0.0000 0.0000
# 2 23.1907 40.9480 28.5301 0.0000 0.0000 0.0000
# 3 25.2486 28.5301 94.3189 0.0000 0.0000 0.0000
# 4 0.0000 0.0000 0.0000 30.4081 0.0000 0.0000
# 5 0.0000 0.0000 0.0000 0.0000 9.9137 0.0000
# 6 0.0000 0.0000 0.0000 0.0000 0.0000 17.4255
#
#
#
# Elastic Compliance Matrix: (Units=1/GPa)
#
#
# Indices 1 2 3 4 5 6 
#
# 1 0.009682 -0.004660 -0.001182 0.000000 0.000000 0.000000
# 2 -0.004660 0.033185 -0.008791 0.000000 0.000000 0.000000
# 3 -0.001182 -0.008791 0.013578 0.000000 0.000000 0.000000
# 4 0.000000 0.000000 0.000000 0.032886 0.000000 0.000000
# 5 0.000000 0.000000 0.000000 0.000000 0.100870 0.000000
# 6 0.000000 0.000000 0.000000 0.000000 0.000000 0.057387
#
#
# Mechanical properties :
#
#
# Convention : Reuss Voigt Hill
#
# Bulk Modulus (GPa) = 36.79215 45.19273 40.99244
# Shear Modulus (GPa) = 17.48785 23.27123 20.37954
#
# Velocity S-wave (km/s) = 3.11583 3.59431 3.36359
# Velocity P-wave (km/s) = 5.77665 6.50493 6.15158
#
# Compressibility (1/GPa) = 0.02717971
#
# Stress axis : x y z
#
# Youngs Moduli (GPa) = 103.28468 30.13416 73.64919
#
# Poissons Ratio (x) = 0.14041 0.08708
# Poissons Ratio (y) = 0.48126 0.64742
# Poissons Ratio (z) = 0.12212 0.26490
#
# Static dielectric constant tensor:
#      x y z
#    x 1.635430 0.000000 0.000000 
#    y 0.000000 1.627500 0.000000 
#    z 0.000000 0.000000 1.604770 
# 
# From -- ./inp_files/29425.got.cif
#   From: 2010.05.17/outbox.cif.g08.bks.cpg/sg74_15_cif.got.tgz:29425.got - 2010.06.03 17:57:02.
