data_PCOD9535186
_publ_section_title
;
Structure prediction by ZEFSAII (Michael W. Deem and Ramdas Pophale) SiO2 
 PCOD9535186
Probable space group: I M M A
;
_chemical_formula_sum "Si O2"
_cell_formula_units_Z 76
_cell_length_a 14.827703
_cell_length_b 24.275546
_cell_length_c 11.711971
_cell_angle_alpha 90.000000
_cell_angle_beta 90.000000
_cell_angle_gamma 90.000000
_cell_volume 4215.730828
_symmetry_space_group_name_H-M "I M M A"
_symmetry_group_IT_number 74
_symmetry_cell_setting 'orthorhombic'
loop_
_space_group_symop_operation_xyz
x,y,z
-x,1/2-y,z
x,-y,-z
-x,1/2+y,-z
-x,-y,-z
x,1/2+y,-z
-x,y,z
x,1/2-y,z
1/2+x,1/2+y,1/2+z
1/2-x,-y,1/2+z
1/2+x,1/2-y,1/2-z
1/2-x,y,1/2-z
1/2-x,1/2-y,1/2-z
1/2+x,y,1/2-z
1/2-x,1/2+y,1/2+z
1/2+x,-y,1/2+z
loop_
_atom_site_type_symbol
_atom_site_label
_atom_site_fract_x
_atom_site_fract_y
_atom_site_fract_z
Si Si1 0.000000 0.250000 0.750912
Si Si2 0.397653 0.750000 0.477521
Si Si3 0.105867 0.369915 0.024204
Si Si4 0.000000 0.628196 0.334386
Si Si5 0.857976 0.558850 0.760368
Si Si6 0.500000 0.440134 0.060999
Si Si7 0.652343 0.434340 0.692890
O O1 0.000000 0.306117 0.680345
O O2 0.083881 0.250000 0.840998
O O3 0.500000 0.750000 0.528300
O O4 0.356273 0.692075 0.514212
O O5 0.112174 0.395611 0.148816
O O6 0.000000 0.367443 0.989320
O O7 0.153654 0.409554 0.933595
O O8 0.085643 0.602516 0.268667
O O9 0.000000 0.605648 0.462746
O O10 0.750000 0.562393 0.750000
O O11 0.912527 0.564563 0.642549
O O12 0.880023 0.497580 0.806801
O O13 0.500000 0.500000 0.000000
O O14 0.750000 0.433455 0.750000
#
# Coordination Sequence:
#
# PCOD9535186 Si02
#       7
#     4   8  16   8  16   8  16
#     4  10  18  40  62  88 120 154 194 258 304 354
#     4   8  16  34  62  88 114 150 194 257 301 346
#     4  11  20  38  63  90 118 154 209 248 298 358
#     4  12  22  41  61  86 126 155 201 241 310 370
#     4  11  25  39  59  92 125 163 204 249 299 367
#     4  12  24  40  62  84 126 172 198 244 312 359
#     4  11  22  36  62  93 123 156 191 256 307 358
#
# _framework density 18.027716000000002
#
# number of rings (size 3 to 8) (size 9 to 14) (size 15 to 20)
#    0.316    0.842    6.316    0.632    2.947    0.842 
#    0.000    3.684    0.000    0.000    0.000    0.000 
#    0.000    0.000    0.000    0.000    0.000    0.000 
#
# Total GULP energy -212081.989305 kJ/mol
# GULP energy per Si atom -5581.104982 kJ/mol
# Density = 1.798668 g / cm^3
# Si number density = 18.027716 Si / 1000 Ang^3
#
#
#
# Elastic Constant Matrix: (Units=GPa)
#
#
# Indices 1 2 3 4 5 6 
#
# 1 63.4209 12.8832 22.5724 0.0001 0.0000 0.0000
# 2 12.8832 165.1492 72.3576 0.0002 0.0000 0.0000
# 3 22.5724 72.3576 129.7007 0.0007 -0.0001 0.0000
# 4 0.0001 0.0002 0.0007 31.3663 0.0000 -0.0002
# 5 0.0000 0.0000 -0.0001 0.0000 19.1194 0.0001
# 6 0.0000 0.0000 0.0000 -0.0002 0.0001 28.1290
#
#
#
# Elastic Compliance Matrix: (Units=1/GPa)
#
#
# Indices 1 2 3 4 5 6 
#
# 1 0.016809 -0.000039 -0.002904 0.000000 0.000000 0.000000
# 2 -0.000039 0.008014 -0.004464 0.000000 0.000000 0.000000
# 3 -0.002904 -0.004464 0.010706 0.000000 0.000000 0.000000
# 4 0.000000 0.000000 0.000000 0.031881 0.000000 0.000000
# 5 0.000000 0.000000 0.000000 0.000000 0.052303 0.000000
# 6 0.000000 0.000000 0.000000 0.000000 0.000000 0.035551
#
#
# Mechanical properties :
#
#
# Convention : Reuss Voigt Hill
#
# Bulk Modulus (GPa) = 48.27321 63.76634 56.01978
# Shear Modulus (GPa) = 28.25139 32.42009 30.33574
#
# Velocity S-wave (km/s) = 3.96297 4.24529 4.10656
# Velocity P-wave (km/s) = 6.91198 7.71220 7.32303
#
# Compressibility (1/GPa) = 0.02071542
#
# Stress axis : x y z
#
# Youngs Moduli (GPa) = 59.49179 124.78079 93.40725
#
# Poissons Ratio (x) = 0.00488 0.27121
# Poissons Ratio (y) = 0.00233 0.41698
# Poissons Ratio (z) = 0.17274 0.55703
#
# Static dielectric constant tensor:
#      x y z
#    x 1.633050 0.000000 0.000000 
#    y 0.000000 1.627860 0.000000 
#    z 0.000000 0.000000 1.599930 
# 
# From -- ./inp_files/20599.got.cif
#   From: 2010.05.17/outbox.cif.g08.bks.cpg/sg74_11_cif.got.tgz:20599.got - 2010.06.03 17:57:02.
