data_PCOD9535440
_publ_section_title
;
Structure prediction by ZEFSAII (Michael W. Deem and Ramdas Pophale) SiO2 
 PCOD9535440
Probable space group: I M M A
;
_chemical_formula_sum "Si O2"
_cell_formula_units_Z 96
_cell_length_a 7.451698
_cell_length_b 34.207399
_cell_length_c 15.583897
_cell_angle_alpha 90.000000
_cell_angle_beta 90.000000
_cell_angle_gamma 90.000000
_cell_volume 3972.385318
_symmetry_space_group_name_H-M "I M M A"
_symmetry_group_IT_number 74
_symmetry_cell_setting 'orthorhombic'
loop_
_space_group_symop_operation_xyz
x,y,z
-x,1/2-y,z
x,-y,-z
-x,1/2+y,-z
-x,-y,-z
x,1/2+y,-z
-x,y,z
x,1/2-y,z
1/2+x,1/2+y,1/2+z
1/2-x,-y,1/2+z
1/2+x,1/2-y,1/2-z
1/2-x,y,1/2-z
1/2-x,1/2-y,1/2-z
1/2+x,y,1/2-z
1/2-x,1/2+y,1/2+z
1/2+x,-y,1/2+z
loop_
_atom_site_type_symbol
_atom_site_label
_atom_site_fract_x
_atom_site_fract_y
_atom_site_fract_z
Si Si1 0.790900 0.872321 0.922283
Si Si2 0.718023 0.707811 0.093647
Si Si3 0.714496 0.040239 0.850846
Si Si4 0.291142 0.291784 0.388711
Si Si5 0.212785 0.043408 0.351242
Si Si6 0.700409 0.125229 0.885645
O O1 0.723334 0.835339 0.865837
O O2 0.782097 0.915646 0.885536
O O3 0.000000 0.864325 0.940956
O O4 0.688543 0.872353 0.011707
O O5 0.500000 0.706246 0.094233
O O6 0.773921 0.750000 0.130193
O O7 0.782209 0.667493 0.137307
O O8 0.775620 0.708169 0.993229
O O9 0.500000 0.041537 0.869228
O O10 0.750000 0.036931 0.750000
O O11 0.789472 0.083048 0.872402
O O12 0.781040 0.998491 0.887196
O O13 0.500000 0.290485 0.363974
O O14 0.210005 0.250000 0.360289
O O15 0.250000 0.043663 0.250000
O O16 0.000000 0.043664 0.365852
O O17 0.500000 0.123309 0.846513
#
# Coordination Sequence:
#
# PCOD9535440 Si02
#       6
#    16  16  16  16  16  16
#     4  10  19  30  47  73  99 122 151 187 228 270
#     4   8  13  22  39  63  89 117 149 184 221 263
#     4   9  19  34  51  68  88 120 158 193 231 276
#     4   8  14  25  41  62  90 121 149 179 217 262
#     4  10  20  35  52  68  89 119 155 192 231 276
#     4   9  17  30  47  69  96 123 153 190 231 271
#
# _framework density 24.166839
#
# number of rings (size 3 to 8) (size 9 to 14) (size 15 to 20)
#    0.000    3.000    0.000    1.000    0.000    2.667 
#    0.000    3.333    0.000    1.000    0.000    0.000 
#    0.000    0.000    0.000    0.000    0.000    0.000 
#
# Total GULP energy -267217.049773 kJ/mol
# GULP energy per Si atom -5567.021870 kJ/mol
# Density = 2.411183 g / cm^3
# Si number density = 24.166839 Si / 1000 Ang^3
#
#
#
# Elastic Constant Matrix: (Units=GPa)
#
#
# Indices 1 2 3 4 5 6 
#
# 1 91.4300 12.8453 -9.5392 0.0000 0.0000 0.0000
# 2 12.8453 336.0517 22.1196 -0.0001 0.0000 0.0000
# 3 -9.5392 22.1196 18.5904 -0.0001 0.0000 0.0000
# 4 0.0000 -0.0001 -0.0001 71.0356 0.0000 0.0000
# 5 0.0000 0.0000 0.0000 0.0000 3.1190 0.0000
# 6 0.0000 0.0000 0.0000 0.0000 0.0000 -53.7282
#
#
#
# Elastic Compliance Matrix: (Units=1/GPa)
#
#
# Indices 1 2 3 4 5 6 
#
# 1 0.011814 -0.000923 0.007160 0.000000 0.000000 0.000000
# 2 -0.000923 0.003301 -0.004401 0.000000 0.000000 0.000000
# 3 0.007160 -0.004401 0.062702 0.000000 0.000000 0.000000
# 4 0.000000 0.000000 0.000000 0.014077 0.000000 0.000000
# 5 0.000000 0.000000 0.000000 0.000000 0.320617 0.000000
# 6 0.000000 0.000000 0.000000 0.000000 0.000000 -0.018612
#
#
# Mechanical properties :
#
#
# Convention : Reuss Voigt Hill
#
# Bulk Modulus (GPa) = 12.27158 55.21371 33.74265
# Shear Modulus (GPa) = 11.97924 32.12839 22.05381
#
# Velocity S-wave (km/s) = 2.22882 3.65011 3.02415
# Velocity P-wave (km/s) = 3.42234 6.37659 5.11729
#
# Compressibility (1/GPa) = 0.08148910
#
# Stress axis : x y z
#
# Youngs Moduli (GPa) = 84.64518 302.96798 15.94858
#
# Poissons Ratio (x) = 0.27960 -0.11419
# Poissons Ratio (y) = 0.07812 0.07019
# Poissons Ratio (z) = -0.60607 1.33331
#
# Static dielectric constant tensor:
#      x y z
#    x 2.142340 0.000000 0.000000 
#    y 0.000000 2.102940 0.000000 
#    z 0.000000 0.000000 1.873810 
# 
# From -- ./inp_files/49042.got.cif
#   From: 2010.05.17/outbox.cif.g08.bks.cpg/sg74_25_cif.got.tgz:49042.got - 2010.06.03 17:57:02.
