data_PCOD9535633
_publ_section_title
;
Structure prediction by ZEFSAII (Michael W. Deem and Ramdas Pophale) SiO2 
 PCOD9535633
Probable space group: I M M A
;
_chemical_formula_sum "Si O2"
_cell_formula_units_Z 72
_cell_length_a 9.243468
_cell_length_b 28.401961
_cell_length_c 14.536281
_cell_angle_alpha 90.000000
_cell_angle_beta 90.000000
_cell_angle_gamma 90.000000
_cell_volume 3816.247902
_symmetry_space_group_name_H-M "I M M A"
_symmetry_group_IT_number 74
_symmetry_cell_setting 'orthorhombic'
loop_
_space_group_symop_operation_xyz
x,y,z
-x,1/2-y,z
x,-y,-z
-x,1/2+y,-z
-x,-y,-z
x,1/2+y,-z
-x,y,z
x,1/2-y,z
1/2+x,1/2+y,1/2+z
1/2-x,-y,1/2+z
1/2+x,1/2-y,1/2-z
1/2-x,y,1/2-z
1/2-x,1/2-y,1/2-z
1/2+x,y,1/2-z
1/2-x,1/2+y,1/2+z
1/2+x,-y,1/2+z
loop_
_atom_site_type_symbol
_atom_site_label
_atom_site_fract_x
_atom_site_fract_y
_atom_site_fract_z
Si Si1 0.664682 0.937443 0.094514
Si Si2 0.673528 0.845619 0.452064
Si Si3 0.674523 0.750000 0.348233
Si Si4 0.666655 0.040744 0.124090
Si Si5 0.171706 0.634212 0.839315
O O1 0.500000 0.927798 0.124183
O O2 0.759419 0.890689 0.099801
O O3 0.712194 0.986690 0.140132
O O4 0.660749 0.950012 0.985769
O O5 0.500000 0.850208 0.450299
O O6 0.714970 0.796991 0.404047
O O7 0.716236 0.846068 0.560311
O O8 0.500000 0.750000 0.337952
O O9 0.750000 0.750000 0.250000
O O10 0.500000 0.047540 0.157105
O O11 0.778416 0.079671 0.157556
O O12 0.250000 0.655587 0.750000
O O13 0.000000 0.638373 0.830032
#
# Coordination Sequence:
#
# PCOD9535633 Si02
#       5
#    16  16   8  16  16
#     4   8  14  26  47  73 101 133 171 212 252 294
#     4   9  19  35  55  77 104 137 172 213 264 314
#     4  10  22  42  63  82 102 126 163 214 269 322
#     4   8  14  26  44  69 102 139 174 209 247 290
#     4  10  19  31  49  75 107 144 179 212 250 299
#
# _framework density 18.866699000000001
#
# number of rings (size 3 to 8) (size 9 to 14) (size 15 to 20)
#    0.000    3.111    0.000    2.000    0.000    2.667 
#    0.000    6.111    0.000    2.667    0.000    0.000 
#    0.000    0.000    0.000    0.000    0.000    0.000 
#
# Total GULP energy -200526.012190 kJ/mol
# GULP energy per Si atom -5570.167005 kJ/mol
# Density = 1.882376 g / cm^3
# Si number density = 18.866699 Si / 1000 Ang^3
#
#
#
# Elastic Constant Matrix: (Units=GPa)
#
#
# Indices 1 2 3 4 5 6 
#
# 1 34.8433 38.5885 32.5505 0.0000 0.0000 0.0000
# 2 38.5885 138.5311 53.4972 0.0000 0.0000 0.0000
# 3 32.5505 53.4972 91.8121 0.0003 0.0000 -0.0001
# 4 0.0000 0.0000 0.0003 8.0394 0.0000 0.0000
# 5 0.0000 0.0000 0.0000 0.0000 25.3412 0.0000
# 6 0.0000 0.0000 -0.0001 0.0000 0.0000 24.5633
#
#
#
# Elastic Compliance Matrix: (Units=1/GPa)
#
#
# Indices 1 2 3 4 5 6 
#
# 1 0.050718 -0.009270 -0.012580 0.000000 0.000000 0.000000
# 2 -0.009270 0.011009 -0.003128 0.000000 0.000000 0.000000
# 3 -0.012580 -0.003128 0.017175 -0.000001 0.000000 0.000000
# 4 0.000000 0.000000 -0.000001 0.124388 0.000000 0.000000
# 5 0.000000 0.000000 0.000000 0.000000 0.039461 0.000000
# 6 0.000000 0.000000 0.000000 0.000000 0.000000 0.040711
#
#
# Mechanical properties :
#
#
# Convention : Reuss Voigt Hill
#
# Bulk Modulus (GPa) = 34.54746 57.16211 45.85478
# Shear Modulus (GPa) = 14.57443 20.95879 17.76661
#
# Velocity S-wave (km/s) = 2.78240 3.33661 3.07203
# Velocity P-wave (km/s) = 5.35475 6.72366 6.07787
#
# Compressibility (1/GPa) = 0.02894569
#
# Stress axis : x y z
#
# Youngs Moduli (GPa) = 19.71678 90.83702 58.22556
#
# Poissons Ratio (x) = 0.84203 0.73248
# Poissons Ratio (y) = 0.18277 0.18214
# Poissons Ratio (z) = 0.24804 0.28415
#
# Static dielectric constant tensor:
#      x y z
#    x 1.642990 0.000000 0.000000 
#    y 0.000000 1.645430 0.000000 
#    z 0.000000 0.000000 1.715000 
# 
# From -- ./inp_files/29163.got.cif
#   From: 2010.05.17/outbox.cif.g08.bks.cpg/sg74_15_cif.got.tgz:29163.got - 2010.06.03 17:57:02.
