data_PCOD9535349
_publ_section_title
;
Structure prediction by ZEFSAII (Michael W. Deem and Ramdas Pophale) SiO2 
 PCOD9535349
Probable space group: I M M A
;
_chemical_formula_sum "Si O2"
_cell_formula_units_Z 128
_cell_length_a 19.462228
_cell_length_b 19.932849
_cell_length_c 20.837028
_cell_angle_alpha 90.000000
_cell_angle_beta 90.000000
_cell_angle_gamma 90.000000
_cell_volume 8083.467715
_symmetry_space_group_name_H-M "I M M A"
_symmetry_group_IT_number 74
_symmetry_cell_setting 'orthorhombic'
loop_
_space_group_symop_operation_xyz
x,y,z
-x,1/2-y,z
x,-y,-z
-x,1/2+y,-z
-x,-y,-z
x,1/2+y,-z
-x,y,z
x,1/2-y,z
1/2+x,1/2+y,1/2+z
1/2-x,-y,1/2+z
1/2+x,1/2-y,1/2-z
1/2-x,y,1/2-z
1/2-x,1/2-y,1/2-z
1/2+x,y,1/2-z
1/2-x,1/2+y,1/2+z
1/2+x,-y,1/2+z
loop_
_atom_site_type_symbol
_atom_site_label
_atom_site_fract_x
_atom_site_fract_y
_atom_site_fract_z
Si Si1 0.299142 0.468710 0.186634
Si Si2 0.920846 0.458597 0.751254
Si Si3 0.630906 0.325219 0.407853
Si Si4 0.076361 0.471047 0.110937
Si Si5 0.178189 0.824550 0.055071
Si Si6 0.219078 0.030315 0.932982
Si Si7 0.581397 0.825206 0.322358
Si Si8 0.729186 0.677140 0.824831
O O1 0.250000 0.470328 0.250000
O O2 0.367632 0.509198 0.202531
O O3 0.257978 0.500663 0.127892
O O4 0.313479 0.390946 0.169469
O O5 0.919495 0.503558 0.815843
O O6 0.897872 0.384662 0.774747
O O7 0.000000 0.455408 0.728969
O O8 0.602559 0.250000 0.394588
O O9 0.587304 0.390908 0.391343
O O10 0.647205 0.328818 0.483634
O O11 0.702088 0.330657 0.367835
O O12 0.139137 0.507460 0.074935
O O13 0.000000 0.488388 0.086552
O O14 0.209710 0.750000 0.061295
O O15 0.224633 0.889541 0.064735
O O16 0.120394 0.830211 0.110126
O O17 0.244107 0.000000 0.000000
O O18 0.500000 0.833427 0.333634
O O19 0.593496 0.750000 0.296883
O O20 0.698037 0.750000 0.841367
O O21 0.750000 0.680002 0.750000
#
# Coordination Sequence:
#
# PCOD9535349 Si02
#       8
#    16  16  16  16  16  16  16  16
#     4  11  18  32  55  73  95 131 168 206 245 297
#     4  10  20  34  52  75  99 126 165 210 253 293
#     4  10  19  32  44  64  98 134 167 203 240 288
#     4  11  20  31  47  69  99 133 163 203 244 285
#     4  10  19  30  44  64  99 133 163 203 242 284
#     4  12  21  34  50  74 100 129 171 209 249 297
#     4   9  17  30  47  67  94 129 164 196 237 294
#     4   9  16  27  46  67  89 119 162 206 243 284
#
# _framework density 15.834789000000001
#
# number of rings (size 3 to 8) (size 9 to 14) (size 15 to 20)
#    0.000    1.750    5.000    0.750    0.000    1.000 
#    0.000    1.875    0.000    3.750    0.000    0.000 
#    0.000    0.000    0.000    0.000    0.000    0.125 
#
# Total GULP energy -356639.756445 kJ/mol
# GULP energy per Si atom -5572.496194 kJ/mol
# Density = 1.579875 g / cm^3
# Si number density = 15.834789 Si / 1000 Ang^3
#
#
#
# Elastic Constant Matrix: (Units=GPa)
#
#
# Indices 1 2 3 4 5 6 
#
# 1 50.2952 32.5914 36.1647 0.0000 0.0000 0.0000
# 2 32.5914 158.8187 42.9060 0.0000 0.0000 0.0000
# 3 36.1647 42.9060 62.8137 0.0000 0.0000 0.0000
# 4 0.0000 0.0000 0.0000 21.5222 0.0000 0.0000
# 5 0.0000 0.0000 0.0000 0.0000 12.0032 0.0000
# 6 0.0000 0.0000 0.0000 0.0000 0.0000 6.7568
#
#
#
# Elastic Compliance Matrix: (Units=1/GPa)
#
#
# Indices 1 2 3 4 5 6 
#
# 1 0.034491 -0.002101 -0.018423 0.000000 0.000000 0.000000
# 2 -0.002101 0.007849 -0.004152 0.000000 0.000000 0.000000
# 3 -0.018423 -0.004152 0.029363 0.000000 0.000000 0.000000
# 4 0.000000 0.000000 0.000000 0.046464 0.000000 0.000000
# 5 0.000000 0.000000 0.000000 0.000000 0.083311 0.000000
# 6 0.000000 0.000000 0.000000 0.000000 0.000000 0.148000
#
#
# Mechanical properties :
#
#
# Convention : Reuss Voigt Hill
#
# Bulk Modulus (GPa) = 44.73939 55.02798 49.88368
# Shear Modulus (GPa) = 12.30676 18.74079 15.52378
#
# Velocity S-wave (km/s) = 2.79085 3.44397 3.13447
# Velocity P-wave (km/s) = 6.22096 7.11627 6.68362
#
# Compressibility (1/GPa) = 0.02235167
#
# Stress axis : x y z
#
# Youngs Moduli (GPa) = 28.99312 127.39968 34.05629
#
# Poissons Ratio (x) = 0.26765 0.62742
# Poissons Ratio (y) = 0.06091 0.14140
# Poissons Ratio (z) = 0.53414 0.52897
#
# Static dielectric constant tensor:
#      x y z
#    x 1.509140 0.000000 0.000000 
#    y 0.000000 1.589680 0.000000 
#    z 0.000000 0.000000 1.508280 
# 
# From -- ./inp_files/53440.got.cif
#   From: 2010.05.17/outbox.cif.g08.bks.cpg/sg74_27_cif.got.tgz:53440.got - 2010.06.03 17:57:02.
