data_PCOD9535738
_publ_section_title
;
Structure prediction by ZEFSAII (Michael W. Deem and Ramdas Pophale) SiO2 
 PCOD9535738
Probable space group: I M M A
;
_chemical_formula_sum "Si O2"
_cell_formula_units_Z 104
_cell_length_a 8.864310
_cell_length_b 32.040194
_cell_length_c 21.353020
_cell_angle_alpha 90.000000
_cell_angle_beta 90.000000
_cell_angle_gamma 90.000000
_cell_volume 6064.561151
_symmetry_space_group_name_H-M "I M M A"
_symmetry_group_IT_number 74
_symmetry_cell_setting 'orthorhombic'
loop_
_space_group_symop_operation_xyz
x,y,z
-x,1/2-y,z
x,-y,-z
-x,1/2+y,-z
-x,-y,-z
x,1/2+y,-z
-x,y,z
x,1/2-y,z
1/2+x,1/2+y,1/2+z
1/2-x,-y,1/2+z
1/2+x,1/2-y,1/2-z
1/2-x,y,1/2-z
1/2-x,1/2-y,1/2-z
1/2+x,y,1/2-z
1/2-x,1/2+y,1/2+z
1/2+x,-y,1/2+z
loop_
_atom_site_type_symbol
_atom_site_label
_atom_site_fract_x
_atom_site_fract_y
_atom_site_fract_z
Si Si1 0.681785 0.386515 0.070238
Si Si2 0.179542 0.250000 0.683343
Si Si3 0.679258 0.037698 0.682883
Si Si4 0.676893 0.314373 0.918623
Si Si5 0.820298 0.796821 0.950229
Si Si6 0.180258 0.438727 0.183396
Si Si7 0.823708 0.588361 0.430868
O O1 0.500000 0.385281 0.069438
O O2 0.744850 0.413390 0.127157
O O3 0.741400 0.338799 0.075612
O O4 0.729541 0.407871 0.003587
O O5 0.250000 0.250000 0.750000
O O6 0.223120 0.209985 0.642835
O O7 0.000000 0.250000 0.689043
O O8 0.500000 0.043473 0.686786
O O9 0.750000 0.051281 0.750000
O O10 0.740413 0.060644 0.620821
O O11 0.711322 0.988213 0.676183
O O12 0.500000 0.304779 0.933030
O O13 0.776154 0.299593 0.976658
O O14 0.687034 0.363588 0.909562
O O15 0.774474 0.750000 0.927768
O O16 0.000000 0.800409 0.941970
O O17 0.250000 0.425706 0.250000
O O18 0.000000 0.432778 0.183515
O O19 0.000000 0.575856 0.431982
#
# Coordination Sequence:
#
# PCOD9535738 Si02
#       7
#    16   8  16  16  16  16  16
#     4  10  21  36  56  83 112 144 180 219 269 321
#     4  10  20  32  46  64  92 130 175 222 267 318
#     4  10  21  36  55  77 104 143 184 224 272 323
#     4   9  18  33  50  68  95 134 174 217 268 317
#     4  10  19  31  52  80 107 136 172 215 260 310
#     4  10  21  38  59  82 109 141 179 220 265 323
#     4   9  19  34  52  77 107 138 179 226 272 320
#
# _framework density 17.148809
#
# number of rings (size 3 to 8) (size 9 to 14) (size 15 to 20)
#    0.000    2.308    0.769    2.769    0.000    7.692 
#    0.000    4.615    0.000    0.462    0.000    0.000 
#    0.000    0.000    0.000    0.000    0.000    0.000 
#
# Total GULP energy -289825.526517 kJ/mol
# GULP energy per Si atom -5573.567818 kJ/mol
# Density = 1.710978 g / cm^3
# Si number density = 17.148809 Si / 1000 Ang^3
#
#
#
# Elastic Constant Matrix: (Units=GPa)
#
#
# Indices 1 2 3 4 5 6 
#
# 1 51.0686 47.1317 47.9094 0.0000 0.0000 0.0000
# 2 47.1317 80.7541 75.0229 0.0000 0.0000 0.0000
# 3 47.9094 75.0229 137.4068 0.0000 0.0000 0.0000
# 4 0.0000 0.0000 0.0000 42.4773 0.0000 0.0000
# 5 0.0000 0.0000 0.0000 0.0000 32.1549 0.0000
# 6 0.0000 0.0000 0.0000 0.0000 0.0000 26.5417
#
#
#
# Elastic Compliance Matrix: (Units=1/GPa)
#
#
# Indices 1 2 3 4 5 6 
#
# 1 0.042901 -0.022612 -0.002612 0.000000 0.000000 0.000000
# 2 -0.022612 0.037049 -0.012344 0.000000 0.000000 0.000000
# 3 -0.002612 -0.012344 0.014928 0.000000 0.000000 0.000000
# 4 0.000000 0.000000 0.000000 0.023542 0.000000 0.000000
# 5 0.000000 0.000000 0.000000 0.000000 0.031099 0.000000
# 6 0.000000 0.000000 0.000000 0.000000 0.000000 0.037677
#
#
# Mechanical properties :
#
#
# Convention : Reuss Voigt Hill
#
# Bulk Modulus (GPa) = 50.65584 67.70641 59.18112
# Shear Modulus (GPa) = 18.59332 26.84582 22.71957
#
# Velocity S-wave (km/s) = 3.29634 3.96089 3.64380
# Velocity P-wave (km/s) = 6.64010 7.77725 7.23106
#
# Compressibility (1/GPa) = 0.01974106
#
# Stress axis : x y z
#
# Youngs Moduli (GPa) = 23.30941 26.99139 66.98697
#
# Poissons Ratio (x) = 0.61033 0.17498
# Poissons Ratio (y) = 0.52708 0.82690
# Poissons Ratio (z) = 0.06089 0.33319
#
# Static dielectric constant tensor:
#      x y z
#    x 1.583520 0.000000 0.000000 
#    y 0.000000 1.592810 0.000000 
#    z 0.000000 0.000000 1.559410 
# 
# From -- ./inp_files/49238.got.cif
#   From: 2010.05.17/outbox.cif.g08.bks.cpg/sg74_25_cif.got.tgz:49238.got - 2010.06.03 17:57:02.
