data_PCOD9535905
_publ_section_title
;
Structure prediction by ZEFSAII (Michael W. Deem and Ramdas Pophale) SiO2 
 PCOD9535905
Probable space group: I M M A
;
_chemical_formula_sum "Si O2"
_cell_formula_units_Z 96
_cell_length_a 8.205089
_cell_length_b 27.812340
_cell_length_c 21.997806
_cell_angle_alpha 90.000000
_cell_angle_beta 90.000000
_cell_angle_gamma 90.000000
_cell_volume 5019.959273
_symmetry_space_group_name_H-M "I M M A"
_symmetry_group_IT_number 74
_symmetry_cell_setting 'orthorhombic'
loop_
_space_group_symop_operation_xyz
x,y,z
-x,1/2-y,z
x,-y,-z
-x,1/2+y,-z
-x,-y,-z
x,1/2+y,-z
-x,y,z
x,1/2-y,z
1/2+x,1/2+y,1/2+z
1/2-x,-y,1/2+z
1/2+x,1/2-y,1/2-z
1/2-x,y,1/2-z
1/2-x,1/2-y,1/2-z
1/2+x,y,1/2-z
1/2-x,1/2+y,1/2+z
1/2+x,-y,1/2+z
loop_
_atom_site_type_symbol
_atom_site_label
_atom_site_fract_x
_atom_site_fract_y
_atom_site_fract_z
Si Si1 0.688939 0.302985 0.139780
Si Si2 0.694592 0.805016 0.319537
Si Si3 0.811614 0.304595 0.006894
Si Si4 0.182668 0.399130 0.189700
Si Si5 0.818282 0.878693 0.416576
Si Si6 0.500000 0.050672 0.413142
Si Si7 0.500000 0.061800 0.555814
O O1 0.500000 0.302177 0.120907
O O2 0.724747 0.250000 0.167340
O O3 0.797020 0.308122 0.079316
O O4 0.717749 0.350727 0.178039
O O5 0.500000 0.812621 0.324564
O O6 0.728173 0.750000 0.339141
O O7 0.750000 0.809139 0.250000
O O8 0.788412 0.843184 0.360136
O O9 0.763966 0.250000 0.990662
O O10 0.000000 0.311505 0.987802
O O11 0.702605 0.344096 0.974888
O O12 0.250000 0.425016 0.250000
O O13 0.000000 0.382892 0.204572
O O14 0.152580 0.430679 0.128446
O O15 0.666546 0.914910 0.419554
O O16 0.000000 0.899826 0.414960
O O17 0.500000 0.070000 0.482247
O O18 0.500000 0.993791 0.424190
#
# Coordination Sequence:
#
# PCOD9535905 Si02
#       7
#    16  16  16  16  16   8   8
#     4  10  20  33  53  89 131 168 206 252 301 361
#     4  10  20  36  57  86 128 175 220 265 313 382
#     4  10  19  32  51  82 127 172 211 256 309 371
#     4  10  21  39  64  91 120 160 210 247 306 375
#     4  12  23  36  62  92 125 166 214 262 331 388
#     4   9  24  44  73  91 123 166 202 267 345 374
#     4  11  22  48  69  95 131 153 210 285 331 397
#
# _framework density 19.123661999999999
#
# number of rings (size 3 to 8) (size 9 to 14) (size 15 to 20)
#    0.500    1.167    1.667    3.500    0.000    5.333 
#    0.000    5.000    0.000    0.000    0.000    0.000 
#    0.000    0.000    0.000    0.000    0.000    0.000 
#
# Total GULP energy -267641.711127 kJ/mol
# GULP energy per Si atom -5575.868982 kJ/mol
# Density = 1.908014 g / cm^3
# Si number density = 19.123662 Si / 1000 Ang^3
#
#
#
# Elastic Constant Matrix: (Units=GPa)
#
#
# Indices 1 2 3 4 5 6 
#
# 1 101.1321 32.8280 17.3237 0.0000 0.0000 0.0000
# 2 32.8280 81.8336 33.6218 0.0000 0.0000 0.0000
# 3 17.3237 33.6218 88.5547 0.0000 0.0000 0.0000
# 4 0.0000 0.0000 0.0000 22.9887 0.0000 0.0000
# 5 0.0000 0.0000 0.0000 0.0000 30.7649 0.0000
# 6 0.0000 0.0000 0.0000 0.0000 0.0000 19.0101
#
#
#
# Elastic Compliance Matrix: (Units=1/GPa)
#
#
# Indices 1 2 3 4 5 6 
#
# 1 0.011394 -0.004330 -0.000585 0.000000 0.000000 0.000000
# 2 -0.004330 0.016124 -0.005275 0.000000 0.000000 0.000000
# 3 -0.000585 -0.005275 0.013410 0.000000 0.000000 0.000000
# 4 0.000000 0.000000 0.000000 0.043500 0.000000 0.000000
# 5 0.000000 0.000000 0.000000 0.000000 0.032505 0.000000
# 6 0.000000 0.000000 0.000000 0.000000 0.000000 0.052604
#
#
# Mechanical properties :
#
#
# Convention : Reuss Voigt Hill
#
# Bulk Modulus (GPa) = 48.66738 48.78526 48.72632
# Shear Modulus (GPa) = 25.41102 27.06918 26.24010
#
# Velocity S-wave (km/s) = 3.64919 3.76637 3.70824
# Velocity P-wave (km/s) = 6.57719 6.66932 6.62342
#
# Compressibility (1/GPa) = 0.02054765
#
# Stress axis : x y z
#
# Youngs Moduli (GPa) = 87.76605 62.01827 74.57372
#
# Poissons Ratio (x) = 0.26857 0.04361
# Poissons Ratio (y) = 0.38007 0.39336
# Poissons Ratio (z) = 0.05133 0.32713
#
# Static dielectric constant tensor:
#      x y z
#    x 1.695000 0.000000 0.000000 
#    y 0.000000 1.653750 0.000000 
#    z 0.000000 0.000000 1.706120 
# 
# From -- ./inp_files/57540.got.cif
#   From: 2010.05.17/outbox.cif.g08.bks.cpg/sg74_29_cif.got.tgz:57540.got - 2010.06.03 17:57:02.
