data_PCOD9535590
_publ_section_title
;
Structure prediction by ZEFSAII (Michael W. Deem and Ramdas Pophale) SiO2 
 PCOD9535590
Probable space group: I M M A
;
_chemical_formula_sum "Si O2"
_cell_formula_units_Z 116
_cell_length_a 25.090068
_cell_length_b 7.610281
_cell_length_c 24.159645
_cell_angle_alpha 90.000000
_cell_angle_beta 90.000000
_cell_angle_gamma 90.000000
_cell_volume 4613.102237
_symmetry_space_group_name_H-M "I M M A"
_symmetry_group_IT_number 74
_symmetry_cell_setting 'orthorhombic'
loop_
_space_group_symop_operation_xyz
x,y,z
-x,1/2-y,z
x,-y,-z
-x,1/2+y,-z
-x,-y,-z
x,1/2+y,-z
-x,y,z
x,1/2-y,z
1/2+x,1/2+y,1/2+z
1/2-x,-y,1/2+z
1/2+x,1/2-y,1/2-z
1/2-x,y,1/2-z
1/2-x,1/2-y,1/2-z
1/2+x,y,1/2-z
1/2-x,1/2+y,1/2+z
1/2+x,-y,1/2+z
loop_
_atom_site_type_symbol
_atom_site_label
_atom_site_fract_x
_atom_site_fract_y
_atom_site_fract_z
Si Si1 0.413792 0.451589 0.709608
Si Si2 0.941426 0.962282 0.934249
Si Si3 0.824574 0.458658 0.065869
Si Si4 0.000000 0.250000 0.176690
Si Si5 0.210670 0.957204 0.387660
Si Si6 0.562102 0.046502 0.168129
Si Si7 0.809213 0.463818 0.735657
Si Si8 0.389405 0.446389 0.060215
O O1 0.417862 0.250000 0.688906
O O2 0.452877 0.594114 0.682441
O O3 0.429641 0.447566 0.774724
O O4 0.352646 0.515910 0.718555
O O5 0.944656 0.750000 0.926568
O O6 0.883152 0.026180 0.914361
O O7 0.000000 0.032386 0.917281
O O8 0.938981 0.000000 0.000000
O O9 0.827471 0.250000 0.069901
O O10 0.773169 0.516713 0.100562
O O11 0.817721 0.500000 0.000000
O O12 0.201658 0.750000 0.390297
O O13 0.187621 0.021756 0.328496
O O14 0.174394 0.044557 0.434512
O O15 0.500000 0.053302 0.156412
O O16 0.579455 0.250000 0.179390
O O17 0.588799 0.960076 0.114614
O O18 0.811289 0.250000 0.735497
O O19 0.750000 0.519298 0.750000
O O20 0.408877 0.250000 0.067768
O O21 0.406768 0.500000 0.000000
#
# Coordination Sequence:
#
# PCOD9535590 Si02
#       8
#    16  16  16   4  16  16  16  16
#     4  11  20  35  62  90 121 162 197 246 309 360
#     4   8  14  25  42  65  93 127 164 209 256 300
#     4  10  19  31  48  74 107 140 182 223 265 326
#     4  12  22  36  58  94 134 148 204 250 296 358
#     4  11  21  35  56  77 106 141 182 231 286 342
#     4  10  19  35  55  79 113 149 193 250 295 341
#     4   9  20  39  63  91 116 144 189 244 299 360
#     4  11  23  36  53  74 111 154 198 243 292 342
#
# _framework density 25.145771
#
# number of rings (size 3 to 8) (size 9 to 14) (size 15 to 20)
#    0.000    1.931    2.759    1.862    0.000    1.379 
#    1.241    0.345    0.000    0.000    1.793    0.000 
#    0.000    0.000    0.000    0.000    0.000    0.000 
#
# Total GULP energy -323546.608734 kJ/mol
# GULP energy per Si atom -5578.389806 kJ/mol
# Density = 2.508854 g / cm^3
# Si number density = 25.145771 Si / 1000 Ang^3
#
#
#
# Elastic Constant Matrix: (Units=GPa)
#
#
# Indices 1 2 3 4 5 6 
#
# 1 122.6563 21.0288 5.7533 0.0000 0.0000 0.0000
# 2 21.0288 114.5302 18.5359 0.0000 0.0000 0.0000
# 3 5.7533 18.5359 84.8330 0.0000 0.0000 0.0000
# 4 0.0000 0.0000 0.0000 -6.8089 0.0000 0.0000
# 5 0.0000 0.0000 0.0000 0.0000 74.9580 0.0000
# 6 0.0000 0.0000 0.0000 0.0000 0.0000 12.7215
#
#
#
# Elastic Compliance Matrix: (Units=1/GPa)
#
#
# Indices 1 2 3 4 5 6 
#
# 1 0.008423 -0.001507 -0.000242 0.000000 0.000000 0.000000
# 2 -0.001507 0.009321 -0.001934 0.000000 0.000000 0.000000
# 3 -0.000242 -0.001934 0.012227 0.000000 0.000000 0.000000
# 4 0.000000 0.000000 0.000000 -0.146867 0.000000 0.000000
# 5 0.000000 0.000000 0.000000 0.000000 0.013341 0.000000
# 6 0.000000 0.000000 0.000000 0.000000 0.000000 0.078607
#
#
# Mechanical properties :
#
#
# Convention : Reuss Voigt Hill
#
# Bulk Modulus (GPa) = 44.24099 45.85059 45.04579
# Shear Modulus (GPa) = -497.68489 34.62089 -231.53200
#
# Velocity S-wave (km/s) = -14.08366 3.71456 -9.60603
# Velocity P-wave (km/s) = 15.71096 6.05564 10.25093
#
# Compressibility (1/GPa) = 0.02260347
#
# Stress axis : x y z
#
# Youngs Moduli (GPa) = 118.72776 107.28283 81.78664
#
# Poissons Ratio (x) = 0.16171 0.01978
# Poissons Ratio (y) = 0.17896 0.15821
# Poissons Ratio (z) = 0.02872 0.20753
#
# Static dielectric constant tensor:
#      x y z
#    x 2.090150 0.000000 0.000000 
#    y 0.000000 1.929820 0.000000 
#    z 0.000000 0.000000 2.166750 
# 
# From -- ./inp_files/73787.got.cif
#   From: 2010.05.17/outbox.cif.g08.bks.cpg/sg74_37_cif.got.tgz:73787.got - 2010.06.03 17:57:02.
