data_PCOD9535642
_publ_section_title
;
Structure prediction by ZEFSAII (Michael W. Deem and Ramdas Pophale) SiO2 
 PCOD9535642
Probable space group: I M M A
;
_chemical_formula_sum "Si O2"
_cell_formula_units_Z 112
_cell_length_a 27.349479
_cell_length_b 14.849320
_cell_length_c 14.841441
_cell_angle_alpha 90.000000
_cell_angle_beta 90.000000
_cell_angle_gamma 90.000000
_cell_volume 6027.423317
_symmetry_space_group_name_H-M "I M M A"
_symmetry_group_IT_number 74
_symmetry_cell_setting 'orthorhombic'
loop_
_space_group_symop_operation_xyz
x,y,z
-x,1/2-y,z
x,-y,-z
-x,1/2+y,-z
-x,-y,-z
x,1/2+y,-z
-x,y,z
x,1/2-y,z
1/2+x,1/2+y,1/2+z
1/2-x,-y,1/2+z
1/2+x,1/2-y,1/2-z
1/2-x,y,1/2-z
1/2-x,1/2-y,1/2-z
1/2+x,y,1/2-z
1/2-x,1/2+y,1/2+z
1/2+x,-y,1/2+z
loop_
_atom_site_type_symbol
_atom_site_label
_atom_site_fract_x
_atom_site_fract_y
_atom_site_fract_z
Si Si1 0.601845 0.444533 0.700091
Si Si2 0.302282 0.956822 0.196046
Si Si3 0.710823 0.846212 0.830419
Si Si4 0.500000 0.356927 0.485814
Si Si5 0.262809 0.848242 0.037568
Si Si6 0.500000 0.359701 0.691198
Si Si7 0.093540 0.645955 0.862705
Si Si8 0.842683 0.398552 0.975359
O O1 0.650108 0.416136 0.756246
O O2 0.550708 0.400092 0.729578
O O3 0.597867 0.554205 0.695531
O O4 0.615311 0.408489 0.599382
O O5 0.250000 0.948156 0.250000
O O6 0.291549 0.919258 0.097096
O O7 0.315861 0.061731 0.188337
O O8 0.683917 0.750000 0.829561
O O9 0.750000 0.841683 0.750000
O O10 0.734079 0.857360 0.929588
O O11 0.500000 0.250000 0.499984
O O12 0.500000 0.394208 0.586511
O O13 0.452912 0.375862 0.425904
O O14 0.282522 0.750000 0.061148
O O15 0.205716 0.852968 0.061637
O O16 0.500000 0.250000 0.696257
O O17 0.088648 0.750000 0.827004
O O18 0.138618 0.645823 0.932932
O O19 0.827375 0.500000 0.000000
#
# Coordination Sequence:
#
# PCOD9535642 Si02
#       8
#    16  16  16   8  16   8  16  16
#     4  11  23  36  55  79 110 156 198 239 291 340
#     4  11  22  38  54  81 119 154 195 235 279 336
#     4   9  20  36  58  84 112 147 187 234 291 352
#     4   9  17  31  51  74 103 147 196 240 286 336
#     4  11  22  36  55  79 114 157 194 234 283 340
#     4  11  23  39  56  76 110 153 201 249 290 339
#     4  10  20  32  51  79 111 149 197 245 289 341
#     4  10  19  31  49  77 112 152 195 235 280 337
#
# _framework density 18.581738000000001
#
# number of rings (size 3 to 8) (size 9 to 14) (size 15 to 20)
#    0.000    1.714    2.857    2.143    6.000    2.571 
#    0.000    0.000    0.000    0.000    0.000    2.000 
#    0.000    2.286    0.000    0.000    0.000    0.571 
#
# Total GULP energy -311926.655212 kJ/mol
# GULP energy per Si atom -5570.118843 kJ/mol
# Density = 1.853945 g / cm^3
# Si number density = 18.581738 Si / 1000 Ang^3
#
#
#
# Elastic Constant Matrix: (Units=GPa)
#
#
# Indices 1 2 3 4 5 6 
#
# 1 110.9072 35.0707 31.2524 0.0000 0.0000 0.0000
# 2 35.0707 88.1861 29.8900 0.0000 0.0000 0.0000
# 3 31.2524 29.8900 60.8003 0.0000 0.0000 0.0000
# 4 0.0000 0.0000 0.0000 16.8985 0.0000 0.0000
# 5 0.0000 0.0000 0.0000 0.0000 -28.3318 0.0000
# 6 0.0000 0.0000 0.0000 0.0000 0.0000 6.1118
#
#
#
# Elastic Compliance Matrix: (Units=1/GPa)
#
#
# Indices 1 2 3 4 5 6 
#
# 1 0.011166 -0.002994 -0.004268 0.000000 0.000000 0.000000
# 2 -0.002994 0.014410 -0.005545 0.000000 0.000000 0.000000
# 3 -0.004268 -0.005545 0.021367 0.000000 0.000000 0.000000
# 4 0.000000 0.000000 0.000000 0.059177 0.000000 0.000000
# 5 0.000000 0.000000 0.000000 0.000000 -0.035296 0.000000
# 6 0.000000 0.000000 0.000000 0.000000 0.000000 0.163619
#
#
# Mechanical properties :
#
#
# Convention : Reuss Voigt Hill
#
# Bulk Modulus (GPa) = 46.88387 50.25776 48.57081
# Shear Modulus (GPa) = 18.71502 9.84771 14.28137
#
# Velocity S-wave (km/s) = 3.17704 2.30460 2.77532
# Velocity P-wave (km/s) = 6.22447 5.84698 6.03868
#
# Compressibility (1/GPa) = 0.02132930
#
# Stress axis : x y z
#
# Youngs Moduli (GPa) = 89.55866 69.39716 46.80151
#
# Poissons Ratio (x) = 0.20778 0.19973
# Poissons Ratio (y) = 0.26815 0.25951
# Poissons Ratio (z) = 0.38219 0.38481
#
# Static dielectric constant tensor:
#      x y z
#    x 1.662930 0.000000 0.000000 
#    y 0.000000 1.715920 0.000000 
#    z 0.000000 0.000000 1.651390 
# 
# From -- ./inp_files/37443.got.cif
#   From: 2010.05.17/outbox.cif.g08.bks.cpg/sg74_19_cif.got.tgz:37443.got - 2010.06.03 17:57:02.
