data_PCOD9535104
_publ_section_title
;
Structure prediction by ZEFSAII (Michael W. Deem and Ramdas Pophale) SiO2 
 PCOD9535104
Probable space group: I M M A
;
_chemical_formula_sum "Si O2"
_cell_formula_units_Z 68
_cell_length_a 17.530819
_cell_length_b 8.782454
_cell_length_c 19.747631
_cell_angle_alpha 90.000000
_cell_angle_beta 90.000000
_cell_angle_gamma 90.000000
_cell_volume 3040.416586
_symmetry_space_group_name_H-M "I M M A"
_symmetry_group_IT_number 74
_symmetry_cell_setting 'orthorhombic'
loop_
_space_group_symop_operation_xyz
x,y,z
-x,1/2-y,z
x,-y,-z
-x,1/2+y,-z
-x,-y,-z
x,1/2+y,-z
-x,y,z
x,1/2-y,z
1/2+x,1/2+y,1/2+z
1/2-x,-y,1/2+z
1/2+x,1/2-y,1/2-z
1/2-x,y,1/2-z
1/2-x,1/2-y,1/2-z
1/2+x,y,1/2-z
1/2-x,1/2+y,1/2+z
1/2+x,-y,1/2+z
loop_
_atom_site_type_symbol
_atom_site_label
_atom_site_fract_x
_atom_site_fract_y
_atom_site_fract_z
Si Si1 0.310948 0.250000 0.092930
Si Si2 0.359878 0.916578 0.294979
Si Si3 0.582778 0.250000 0.966566
Si Si4 0.164795 0.750000 0.837408
Si Si5 0.000000 0.750000 0.902611
Si Si6 0.500000 0.916250 0.400750
Si Si7 0.585119 0.998369 0.149894
O O1 0.220370 0.250000 0.097538
O O2 0.346801 0.389152 0.133749
O O3 0.348676 0.250000 0.019087
O O4 0.318961 0.750000 0.302908
O O5 0.425798 0.916348 0.351978
O O6 0.321128 0.084492 0.302351
O O7 0.397567 0.918480 0.220783
O O8 0.500000 0.250000 0.003000
O O9 0.584340 0.390518 0.915500
O O10 0.075979 0.750000 0.856597
O O11 0.000000 0.582052 0.936161
O O12 0.500000 0.750000 0.435728
O O13 0.500000 0.066806 0.155406
#
# Coordination Sequence:
#
# PCOD9535104 Si02
#       7
#     8  16   8   8   4   8  16
#     4  12  25  39  53  85 133 175 210 265 313 376
#     4  10  18  34  59  87 121 159 207 262 315 377
#     4  10  22  41  65  92 123 170 230 266 304 375
#     4  10  23  39  58  92 128 172 210 253 325 398
#     4   8  16  34  56  80 112 154 208 246 294 376
#     4   8  14  24  50  80 109 147 187 239 300 358
#     4  11  21  36  63  92 122 166 218 262 316 382
#
# _framework density 22.365355999999998
#
# number of rings (size 3 to 8) (size 9 to 14) (size 15 to 20)
#    0.000    1.882    2.353    2.471    0.000    3.765 
#    2.118    1.176    0.000    0.000    0.000    3.294 
#    0.000    0.000    0.000    0.000    0.000    0.000 
#
# Total GULP energy -189456.789972 kJ/mol
# GULP energy per Si atom -5572.258529 kJ/mol
# Density = 2.231445 g / cm^3
# Si number density = 22.365356 Si / 1000 Ang^3
#
#
#
# Elastic Constant Matrix: (Units=GPa)
#
#
# Indices 1 2 3 4 5 6 
#
# 1 103.4367 23.0174 29.2281 0.0000 0.0000 0.0000
# 2 23.0174 209.2629 42.0599 0.0000 0.0000 0.0000
# 3 29.2281 42.0599 90.9329 0.0000 0.0000 0.0000
# 4 0.0000 0.0000 0.0000 32.9886 0.0000 0.0000
# 5 0.0000 0.0000 0.0000 0.0000 43.4781 0.0000
# 6 0.0000 0.0000 0.0000 0.0000 0.0000 -214.3196
#
#
#
# Elastic Compliance Matrix: (Units=1/GPa)
#
#
# Indices 1 2 3 4 5 6 
#
# 1 0.010688 -0.000535 -0.003188 0.000000 0.000000 0.000000
# 2 -0.000535 0.005295 -0.002277 0.000000 0.000000 0.000000
# 3 -0.003188 -0.002277 0.013075 0.000000 0.000000 0.000000
# 4 0.000000 0.000000 0.000000 0.030314 0.000000 0.000000
# 5 0.000000 0.000000 0.000000 0.000000 0.023000 0.000000
# 6 0.000000 0.000000 0.000000 0.000000 0.000000 -0.004666
#
#
# Mechanical properties :
#
#
# Convention : Reuss Voigt Hill
#
# Bulk Modulus (GPa) = 58.62402 65.80483 62.21443
# Shear Modulus (GPa) = 52.41551 -6.94878 22.73337
#
# Velocity S-wave (km/s) = 4.84633 -1.76456 3.19165
# Velocity P-wave (km/s) = 7.58846 5.03338 6.43893
#
# Compressibility (1/GPa) = 0.01705785
#
# Stress axis : x y z
#
# Youngs Moduli (GPa) = 93.56678 188.84928 76.48105
#
# Poissons Ratio (x) = 0.10100 0.24381
# Poissons Ratio (y) = 0.05004 0.17417
# Poissons Ratio (z) = 0.29828 0.43007
#
# Static dielectric constant tensor:
#      x y z
#    x 1.785970 0.000000 0.000000 
#    y 0.000000 1.865770 0.000000 
#    z 0.000000 0.000000 1.766940 
# 
# From -- ./inp_files/52655.got.cif
#   From: 2010.05.17/outbox.cif.g08.bks.cpg/sg74_27_cif.got.tgz:52655.got - 2010.06.03 17:57:02.
