data_PCOD9535436
_publ_section_title
;
Structure prediction by ZEFSAII (Michael W. Deem and Ramdas Pophale) SiO2 
 PCOD9535436
Probable space group: I M M A
;
_chemical_formula_sum "Si O2"
_cell_formula_units_Z 88
_cell_length_a 9.562532
_cell_length_b 21.908675
_cell_length_c 23.778507
_cell_angle_alpha 90.000000
_cell_angle_beta 90.000000
_cell_angle_gamma 90.000000
_cell_volume 4981.654422
_symmetry_space_group_name_H-M "I M M A"
_symmetry_group_IT_number 74
_symmetry_cell_setting 'orthorhombic'
loop_
_space_group_symop_operation_xyz
x,y,z
-x,1/2-y,z
x,-y,-z
-x,1/2+y,-z
-x,-y,-z
x,1/2+y,-z
-x,y,z
x,1/2-y,z
1/2+x,1/2+y,1/2+z
1/2-x,-y,1/2+z
1/2+x,1/2-y,1/2-z
1/2-x,y,1/2-z
1/2-x,1/2-y,1/2-z
1/2+x,y,1/2-z
1/2-x,1/2+y,1/2+z
1/2+x,-y,1/2+z
loop_
_atom_site_type_symbol
_atom_site_label
_atom_site_fract_x
_atom_site_fract_y
_atom_site_fract_z
Si Si1 0.843257 0.677020 0.697896
Si Si2 0.834613 0.001509 0.805639
Si Si3 0.669668 0.623136 0.369572
Si Si4 0.329393 0.750000 0.309884
Si Si5 0.163768 0.611407 0.888774
Si Si6 0.169075 0.068935 0.988181
O O1 0.850985 0.750000 0.701467
O O2 0.750000 0.655317 0.750000
O O3 0.764483 0.658221 0.641778
O O4 0.000000 0.651902 0.701070
O O5 0.750000 0.985378 0.750000
O O6 0.790580 0.068199 0.827767
O O7 0.000000 0.002657 0.793176
O O8 0.815651 0.952967 0.856164
O O9 0.500000 0.623627 0.371953
O O10 0.709730 0.689056 0.345146
O O11 0.719590 0.602776 0.431848
O O12 0.500000 0.750000 0.301977
O O13 0.250000 0.750000 0.250000
O O14 0.000000 0.627792 0.881570
O O15 0.194532 0.605127 0.954420
O O16 0.000000 0.063615 0.982006
O O17 0.221213 0.000000 0.000000
#
# Coordination Sequence:
#
# PCOD9535436 Si02
#       6
#    16  16  16   8  16  16
#     4  10  21  37  55  74 102 138 172 210 258 311
#     4  10  19  30  47  73 103 133 165 208 261 311
#     4   9  17  31  50  74 104 135 173 219 263 305
#     4  10  20  34  54  78 106 140 179 224 267 312
#     4  10  19  31  52  79 104 133 170 213 263 315
#     4   9  15  29  52  76 104 136 170 213 262 310
#
# _framework density 17.664814
#
# number of rings (size 3 to 8) (size 9 to 14) (size 15 to 20)
#    0.000    2.364    1.818    1.636    0.000    3.273 
#    1.636    0.000    0.000    2.727    0.000    0.000 
#    0.000    0.000    0.000    0.000    0.000    0.000 
#
# Total GULP energy -245278.497388 kJ/mol
# GULP energy per Si atom -5574.511304 kJ/mol
# Density = 1.762461 g / cm^3
# Si number density = 17.664814 Si / 1000 Ang^3
#
#
#
# Elastic Constant Matrix: (Units=GPa)
#
#
# Indices 1 2 3 4 5 6 
#
# 1 44.7914 24.6547 45.6563 0.0000 0.0000 0.0000
# 2 24.6547 72.8728 52.3240 0.0000 0.0000 0.0000
# 3 45.6563 52.3240 132.7304 0.0000 0.0000 0.0000
# 4 0.0000 0.0000 0.0000 18.5759 0.0000 0.0000
# 5 0.0000 0.0000 0.0000 0.0000 21.4958 0.0000
# 6 0.0000 0.0000 0.0000 0.0000 0.0000 12.5710
#
#
#
# Elastic Compliance Matrix: (Units=1/GPa)
#
#
# Indices 1 2 3 4 5 6 
#
# 1 0.035413 -0.004512 -0.010403 0.000000 0.000000 0.000000
# 2 -0.004512 0.019715 -0.006220 0.000000 0.000000 0.000000
# 3 -0.010403 -0.006220 0.013564 0.000000 0.000000 0.000000
# 4 0.000000 0.000000 0.000000 0.053833 0.000000 0.000000
# 5 0.000000 0.000000 0.000000 0.000000 0.046521 0.000000
# 6 0.000000 0.000000 0.000000 0.000000 0.000000 0.079548
#
#
# Mechanical properties :
#
#
# Convention : Reuss Voigt Hill
#
# Bulk Modulus (GPa) = 37.84530 55.07383 46.45956
# Shear Modulus (GPa) = 16.68500 19.04584 17.86542
#
# Velocity S-wave (km/s) = 3.07666 3.28713 3.18363
# Velocity P-wave (km/s) = 5.83881 6.75661 6.31441
#
# Compressibility (1/GPa) = 0.02642336
#
# Stress axis : x y z
#
# Youngs Moduli (GPa) = 28.23859 50.72273 73.72296
#
# Poissons Ratio (x) = 0.22885 0.76690
# Poissons Ratio (y) = 0.12741 0.45855
# Poissons Ratio (z) = 0.29375 0.31549
#
# Static dielectric constant tensor:
#      x y z
#    x 1.585870 0.000000 0.000000 
#    y 0.000000 1.629700 0.000000 
#    z 0.000000 0.000000 1.610990 
# 
# From -- ./inp_files/48694.got.cif
#   From: 2010.05.17/outbox.cif.g08.bks.cpg/sg74_25_cif.got.tgz:48694.got - 2010.06.03 17:57:02.
