data_PCOD9535142
_publ_section_title
;
Structure prediction by ZEFSAII (Michael W. Deem and Ramdas Pophale) SiO2 
 PCOD9535142
Probable space group: I M M A
;
_chemical_formula_sum "Si O2"
_cell_formula_units_Z 84
_cell_length_a 24.192816
_cell_length_b 21.205890
_cell_length_c 7.952449
_cell_angle_alpha 90.000000
_cell_angle_beta 90.000000
_cell_angle_gamma 90.000000
_cell_volume 4079.846460
_symmetry_space_group_name_H-M "I M M A"
_symmetry_group_IT_number 74
_symmetry_cell_setting 'orthorhombic'
loop_
_space_group_symop_operation_xyz
x,y,z
-x,1/2-y,z
x,-y,-z
-x,1/2+y,-z
-x,-y,-z
x,1/2+y,-z
-x,y,z
x,1/2-y,z
1/2+x,1/2+y,1/2+z
1/2-x,-y,1/2+z
1/2+x,1/2-y,1/2-z
1/2-x,y,1/2-z
1/2-x,1/2-y,1/2-z
1/2+x,y,1/2-z
1/2-x,1/2+y,1/2+z
1/2+x,-y,1/2+z
loop_
_atom_site_type_symbol
_atom_site_label
_atom_site_fract_x
_atom_site_fract_y
_atom_site_fract_z
Si Si1 0.500000 0.433514 0.603743
Si Si2 0.185236 0.250000 0.320524
Si Si3 0.887144 0.884538 0.182551
Si Si4 0.875750 0.381309 0.221822
Si Si5 0.000000 0.124077 0.243831
Si Si6 0.312769 0.995926 0.297532
Si Si7 0.616922 0.750000 0.141231
Si Si8 0.000000 0.250000 0.444110
O O1 0.500000 0.500000 0.500000
O O2 0.445458 0.420353 0.708853
O O3 0.500000 0.380935 0.457429
O O4 0.250000 0.250000 0.250000
O O5 0.152267 0.185965 0.265877
O O6 0.171065 0.250000 0.520375
O O7 0.842347 0.931882 0.257532
O O8 0.883675 0.814715 0.254638
O O9 0.879757 0.881104 0.981051
O O10 0.937706 0.397873 0.289328
O O11 0.838378 0.440033 0.274545
O O12 0.000000 0.191961 0.320811
O O13 0.250000 0.992848 0.250000
O O14 0.319424 0.000000 0.500000
O O15 0.557352 0.750000 0.046346
#
# Coordination Sequence:
#
# PCOD9535142 Si02
#       8
#     8   8  16  16   8  16   8   4
#     4  10  19  37  68 100 128 164 216 258 312 401
#     4  12  25  40  60  86 124 173 220 268 319 387
#     4  10  22  39  64  94 126 164 208 271 328 372
#     4  10  20  40  65  92 119 164 218 253 316 398
#     4  10  18  35  65  88 121 159 204 254 303 379
#     4  10  22  40  63  90 124 163 209 264 318 384
#     4  12  25  40  60  92 135 163 213 277 328 379
#     4  12  22  40  58  92 136 164 202 254 332 374
#
# _framework density 20.589010999999999
#
# number of rings (size 3 to 8) (size 9 to 14) (size 15 to 20)
#    0.000    1.524    1.905    4.571    0.000    6.857 
#    0.000    1.429    0.000    2.286    0.000    0.000 
#    0.000    0.000    0.000    0.000    0.000    0.000 
#
# Total GULP energy -234031.895390 kJ/mol
# GULP energy per Si atom -5572.187985 kJ/mol
# Density = 2.054215 g / cm^3
# Si number density = 20.589011 Si / 1000 Ang^3
#
#
#
# Elastic Constant Matrix: (Units=GPa)
#
#
# Indices 1 2 3 4 5 6 
#
# 1 192.9018 100.1961 15.7413 0.0000 0.0000 0.0000
# 2 100.1961 185.7009 35.1581 0.0000 0.0000 0.0000
# 3 15.7413 35.1581 30.5148 0.0000 0.0000 0.0000
# 4 0.0000 0.0000 0.0000 9.6062 0.0000 0.0000
# 5 0.0000 0.0000 0.0000 0.0000 30.7577 0.0000
# 6 0.0000 0.0000 0.0000 0.0000 0.0000 30.8012
#
#
#
# Elastic Compliance Matrix: (Units=1/GPa)
#
#
# Indices 1 2 3 4 5 6 
#
# 1 0.007225 -0.004084 0.000978 0.000000 0.000000 0.000000
# 2 -0.004084 0.009195 -0.008488 0.000000 0.000000 0.000000
# 3 0.000978 -0.008488 0.042046 0.000000 0.000000 0.000000
# 4 0.000000 0.000000 0.000000 0.104099 0.000000 0.000000
# 5 0.000000 0.000000 0.000000 0.000000 0.032512 0.000000
# 6 0.000000 0.000000 0.000000 0.000000 0.000000 0.032466
#
#
# Mechanical properties :
#
#
# Convention : Reuss Voigt Hill
#
# Bulk Modulus (GPa) = 28.34535 79.03427 53.68981
# Shear Modulus (GPa) = 19.04819 31.43448 25.24134
#
# Velocity S-wave (km/s) = 3.04495 3.91162 3.50517
# Velocity P-wave (km/s) = 5.11463 7.67274 6.52037
#
# Compressibility (1/GPa) = 0.03527916
#
# Stress axis : x y z
#
# Youngs Moduli (GPa) = 138.40348 108.75118 23.78334
#
# Poissons Ratio (x) = 0.44409 -0.02325
# Poissons Ratio (y) = 0.56518 0.20187
# Poissons Ratio (z) = -0.13532 0.92308
#
# Static dielectric constant tensor:
#      x y z
#    x 1.840090 0.000000 0.000000 
#    y 0.000000 1.708400 0.000000 
#    z 0.000000 0.000000 1.765630 
# 
# From -- ./inp_files/13714.got.cif
#   From: 2010.05.17/outbox.cif.g08.bks.cpg/sg74_7_cif.got.tgz:13714.got - 2010.06.03 17:57:02.
