data_PCOD9535034
_publ_section_title
;
Structure prediction by ZEFSAII (Michael W. Deem and Ramdas Pophale) SiO2 
 PCOD9535034
Probable space group: I M M A
;
_chemical_formula_sum "Si O2"
_cell_formula_units_Z 84
_cell_length_a 11.601275
_cell_length_b 12.046414
_cell_length_c 30.633387
_cell_angle_alpha 90.000000
_cell_angle_beta 90.000000
_cell_angle_gamma 90.000000
_cell_volume 4281.131063
_symmetry_space_group_name_H-M "I M M A"
_symmetry_group_IT_number 74
_symmetry_cell_setting 'orthorhombic'
loop_
_space_group_symop_operation_xyz
x,y,z
-x,1/2-y,z
x,-y,-z
-x,1/2+y,-z
-x,-y,-z
x,1/2+y,-z
-x,y,z
x,1/2-y,z
1/2+x,1/2+y,1/2+z
1/2-x,-y,1/2+z
1/2+x,1/2-y,1/2-z
1/2-x,y,1/2-z
1/2-x,1/2-y,1/2-z
1/2+x,y,1/2-z
1/2-x,1/2+y,1/2+z
1/2+x,-y,1/2+z
loop_
_atom_site_type_symbol
_atom_site_label
_atom_site_fract_x
_atom_site_fract_y
_atom_site_fract_z
Si Si1 0.500000 0.883341 0.566143
Si Si2 0.863829 0.474990 0.638119
Si Si3 0.364334 0.750000 0.433692
Si Si4 0.000000 0.508064 0.838249
Si Si5 0.776773 0.121375 0.199001
Si Si6 0.268637 0.513999 0.453779
Si Si7 0.500000 0.250000 0.675896
Si Si8 0.239270 0.750000 0.163159
O O1 0.500000 0.750000 0.563732
O O2 0.500000 0.929587 0.615613
O O3 0.618445 0.934515 0.547021
O O4 0.827143 0.574456 0.669990
O O5 0.803254 0.496652 0.591076
O O6 0.814271 0.361778 0.660335
O O7 0.000000 0.465382 0.632639
O O8 0.500000 0.750000 0.438513
O O9 0.313845 0.639281 0.453441
O O10 0.328071 0.750000 0.383165
O O11 0.886859 0.547374 0.813091
O O12 0.000000 0.375592 0.844052
O O13 0.800897 0.250000 0.188366
O O14 0.750000 0.113088 0.250000
O O15 0.204781 0.500000 0.500000
O O16 0.630714 0.250000 0.696765
#
# Coordination Sequence:
#
# PCOD9535034 Si02
#       8
#     8  16   8   8  16  16   4   8
#     4  12  23  37  64  98 137 165 210 279 346 393
#     4  11  24  43  65  91 129 174 225 271 322 390
#     4  10  18  33  57  86 122 156 202 262 325 392
#     4  12  22  43  69 104 135 173 218 278 341 394
#     4  11  25  44  69  99 134 177 222 273 332 397
#     4  11  24  38  60  92 125 170 215 271 334 400
#     4  12  18  36  72 102 130 166 210 264 344 402
#     4  10  19  38  65  94 126 160 209 264 330 383
#
# _framework density 19.620982999999999
#
# number of rings (size 3 to 8) (size 9 to 14) (size 15 to 20)
#    0.000    0.952    5.238    2.571    2.667    0.762 
#    0.000    1.905    0.000    0.000    0.000    0.000 
#    0.000    0.000    0.000    0.000    0.000    0.000 
#
# Total GULP energy -234435.199297 kJ/mol
# GULP energy per Si atom -5581.790459 kJ/mol
# Density = 1.957632 g / cm^3
# Si number density = 19.620983 Si / 1000 Ang^3
#
#
#
# Elastic Constant Matrix: (Units=GPa)
#
#
# Indices 1 2 3 4 5 6 
#
# 1 122.3516 37.5929 22.4958 0.0000 0.0000 0.0000
# 2 37.5929 157.7852 36.8535 0.0000 0.0000 0.0000
# 3 22.4958 36.8535 63.7231 0.0000 0.0000 0.0000
# 4 0.0000 0.0000 0.0000 25.8306 0.0000 0.0000
# 5 0.0000 0.0000 0.0000 0.0000 18.7971 0.0000
# 6 0.0000 0.0000 0.0000 0.0000 0.0000 16.0638
#
#
#
# Elastic Compliance Matrix: (Units=1/GPa)
#
#
# Indices 1 2 3 4 5 6 
#
# 1 0.009092 -0.001638 -0.002263 0.000000 0.000000 0.000000
# 2 -0.001638 0.007623 -0.003830 0.000000 0.000000 0.000000
# 3 -0.002263 -0.003830 0.018707 0.000000 0.000000 0.000000
# 4 0.000000 0.000000 0.000000 0.038714 0.000000 0.000000
# 5 0.000000 0.000000 0.000000 0.000000 0.053200 0.000000
# 6 0.000000 0.000000 0.000000 0.000000 0.000000 0.062252
#
#
# Mechanical properties :
#
#
# Convention : Reuss Voigt Hill
#
# Bulk Modulus (GPa) = 50.09909 59.74936 54.92423
# Shear Modulus (GPa) = 23.61812 28.59948 26.10880
#
# Velocity S-wave (km/s) = 3.47323 3.82199 3.65177
# Velocity P-wave (km/s) = 6.45548 7.07069 6.77008
#
# Compressibility (1/GPa) = 0.01996044
#
# Stress axis : x y z
#
# Youngs Moduli (GPa) = 109.98190 131.18951 53.45644
#
# Poissons Ratio (x) = 0.21487 0.12095
# Poissons Ratio (y) = 0.18013 0.20475
# Poissons Ratio (z) = 0.24885 0.50249
#
# Static dielectric constant tensor:
#      x y z
#    x 1.704260 0.000000 0.000000 
#    y 0.000000 1.660120 0.000000 
#    z 0.000000 0.000000 1.785580 
# 
# From -- ./inp_files/71661.got.cif
#   From: 2010.05.17/outbox.cif.g08.bks.cpg/sg74_36_cif.got.tgz:71661.got - 2010.06.03 17:57:02.
