data_PCOD9535808
_publ_section_title
;
Structure prediction by ZEFSAII (Michael W. Deem and Ramdas Pophale) SiO2 
 PCOD9535808
Probable space group: I M M A
;
_chemical_formula_sum "Si O2"
_cell_formula_units_Z 104
_cell_length_a 25.627346
_cell_length_b 8.339704
_cell_length_c 27.141236
_cell_angle_alpha 90.000000
_cell_angle_beta 90.000000
_cell_angle_gamma 90.000000
_cell_volume 5800.746549
_symmetry_space_group_name_H-M "I M M A"
_symmetry_group_IT_number 74
_symmetry_cell_setting 'orthorhombic'
loop_
_space_group_symop_operation_xyz
x,y,z
-x,1/2-y,z
x,-y,-z
-x,1/2+y,-z
-x,-y,-z
x,1/2+y,-z
-x,y,z
x,1/2-y,z
1/2+x,1/2+y,1/2+z
1/2-x,-y,1/2+z
1/2+x,1/2-y,1/2-z
1/2-x,y,1/2-z
1/2-x,1/2-y,1/2-z
1/2+x,y,1/2-z
1/2-x,1/2+y,1/2+z
1/2+x,-y,1/2+z
loop_
_atom_site_type_symbol
_atom_site_label
_atom_site_fract_x
_atom_site_fract_y
_atom_site_fract_z
Si Si1 0.800236 0.427871 0.215846
Si Si2 0.295359 0.440311 0.444366
Si Si3 0.866772 0.566743 0.297468
Si Si4 0.000000 0.057791 0.056398
Si Si5 0.725781 0.941391 0.135104
Si Si6 0.440023 0.946410 0.280908
Si Si7 0.602568 0.557775 0.385983
O O1 0.824490 0.250000 0.210977
O O2 0.750000 0.406951 0.250000
O O3 0.832527 0.555863 0.247297
O O4 0.774535 0.491614 0.166409
O O5 0.301159 0.500000 0.500000
O O6 0.291745 0.250000 0.443034
O O7 0.242704 0.511095 0.419552
O O8 0.346869 0.491590 0.413865
O O9 0.877531 0.750000 0.311678
O O10 0.828636 0.497362 0.340020
O O11 0.918936 0.495231 0.272624
O O12 0.000000 0.250000 0.057966
O O13 0.051183 0.992094 0.083876
O O14 0.000000 0.000000 0.000000
O O15 0.724830 0.750000 0.140381
O O16 0.500000 0.993371 0.288698
O O17 0.438397 0.750000 0.279784
O O18 0.406833 0.997167 0.329261
O O19 0.606851 0.750000 0.385028
#
# Coordination Sequence:
#
# PCOD9535808 Si02
#       7
#    16  16  16   8  16  16  16
#     4   9  16  26  42  66  95 126 161 201 245 295
#     4  12  25  40  56  76 101 132 169 216 266 317
#     4   9  17  29  49  73  99 132 170 208 251 305
#     4  12  24  38  54  72  96 130 180 234 277 316
#     4  10  19  32  49  72 100 131 166 206 252 310
#     4   9  17  31  52  77 103 135 174 215 255 297
#     4  11  21  37  57  77 101 135 176 221 267 310
#
# _framework density 17.928726000000001
#
# number of rings (size 3 to 8) (size 9 to 14) (size 15 to 20)
#    0.000    1.846    0.769    4.846    0.000    3.692 
#    0.000    0.769    0.000    0.000    0.000    0.000 
#    0.000    0.615    0.000    1.077    0.000    1.538 
#
# Total GULP energy -289649.550264 kJ/mol
# GULP energy per Si atom -5570.183659 kJ/mol
# Density = 1.788792 g / cm^3
# Si number density = 17.928726 Si / 1000 Ang^3
#
#
#
# Elastic Constant Matrix: (Units=GPa)
#
#
# Indices 1 2 3 4 5 6 
#
# 1 58.3333 -2.0349 66.8670 0.0000 0.0000 0.0000
# 2 -2.0349 44.6959 8.6031 0.0000 0.0000 0.0000
# 3 66.8670 8.6031 100.2826 0.0000 0.0000 0.0000
# 4 0.0000 0.0000 0.0000 6.1173 0.0000 0.0000
# 5 0.0000 0.0000 0.0000 0.0000 24.2483 0.0000
# 6 0.0000 0.0000 0.0000 0.0000 0.0000 -3.7292
#
#
#
# Elastic Compliance Matrix: (Units=1/GPa)
#
#
# Indices 1 2 3 4 5 6 
#
# 1 0.080819 0.014288 -0.055114 0.000000 0.000000 0.000000
# 2 0.014288 0.025275 -0.011695 0.000000 0.000000 0.000000
# 3 -0.055114 -0.011695 0.047725 0.000000 0.000000 0.000000
# 4 0.000000 0.000000 0.000000 0.163470 0.000000 0.000000
# 5 0.000000 0.000000 0.000000 0.000000 0.041240 0.000000
# 6 0.000000 0.000000 0.000000 0.000000 0.000000 -0.268152
#
#
# Mechanical properties :
#
#
# Convention : Reuss Voigt Hill
#
# Bulk Modulus (GPa) = 20.50243 38.90912 29.70578
# Shear Modulus (GPa) = 23.62070 13.98571 18.80321
#
# Velocity S-wave (km/s) = 3.63365 2.79601 3.24199
# Velocity P-wave (km/s) = 5.39118 5.67211 5.53343
#
# Compressibility (1/GPa) = 0.04877471
#
# Stress axis : x y z
#
# Youngs Moduli (GPa) = 12.37340 39.56472 20.95354
#
# Poissons Ratio (x) = -0.56530 1.15484
# Poissons Ratio (y) = -0.17679 0.24506
# Poissons Ratio (z) = 0.68195 0.46272
#
# Static dielectric constant tensor:
#      x y z
#    x 1.629090 0.000000 0.000000 
#    y 0.000000 1.656010 0.000000 
#    z 0.000000 0.000000 1.636940 
# 
# From -- ./inp_files/55225.got.cif
#   From: 2010.05.17/outbox.cif.g08.bks.cpg/sg74_28_cif.got.tgz:55225.got - 2010.06.03 17:57:02.
