data_PCOD9535105
_publ_section_title
;
Structure prediction by ZEFSAII (Michael W. Deem and Ramdas Pophale) SiO2 
 PCOD9535105
Probable space group: I M M A
;
_chemical_formula_sum "Si O2"
_cell_formula_units_Z 64
_cell_length_a 22.184761
_cell_length_b 16.833977
_cell_length_c 8.592851
_cell_angle_alpha 90.000000
_cell_angle_beta 90.000000
_cell_angle_gamma 90.000000
_cell_volume 3209.066856
_symmetry_space_group_name_H-M "I M M A"
_symmetry_group_IT_number 74
_symmetry_cell_setting 'orthorhombic'
loop_
_space_group_symop_operation_xyz
x,y,z
-x,1/2-y,z
x,-y,-z
-x,1/2+y,-z
-x,-y,-z
x,1/2+y,-z
-x,y,z
x,1/2-y,z
1/2+x,1/2+y,1/2+z
1/2-x,-y,1/2+z
1/2+x,1/2-y,1/2-z
1/2-x,y,1/2-z
1/2-x,1/2-y,1/2-z
1/2+x,y,1/2-z
1/2-x,1/2+y,1/2+z
1/2+x,-y,1/2+z
loop_
_atom_site_type_symbol
_atom_site_label
_atom_site_fract_x
_atom_site_fract_y
_atom_site_fract_z
Si Si1 0.876572 0.091012 0.052418
Si Si2 0.000000 0.589817 0.072512
Si Si3 0.749038 0.341994 0.060553
Si Si4 0.119349 0.845755 0.599167
Si Si5 0.000000 0.909769 0.441200
O O1 0.810599 0.120295 0.001198
O O2 0.882197 0.108202 0.236428
O O3 0.937377 0.128980 0.981937
O O4 0.877998 0.000000 0.000000
O O5 0.000000 0.586705 0.256521
O O6 0.000000 0.500000 0.000000
O O7 0.752314 0.250000 0.019242
O O8 0.750000 0.348217 0.250000
O O9 0.682154 0.370773 0.015567
O O10 0.122804 0.750000 0.627895
O O11 0.059813 0.866798 0.504552
O O12 0.000000 0.000000 0.500000
#
# Coordination Sequence:
#
# PCOD9535105 Si02
#       5
#    16   8  16  16   8
#     4  10  18  34  59  88 120 155 200 248 301 358
#     4  10  22  38  53  81 119 150 186 238 300 354
#     4   8  16  33  57  83 113 152 198 246 297 359
#     4  10  21  40  63  87 121 165 205 245 303 367
#     4  12  23  38  61  87 118 152 201 258 298 350
#
# _framework density 19.943493
#
# number of rings (size 3 to 8) (size 9 to 14) (size 15 to 20)
#    0.000    2.250    0.000    6.375    0.000    1.000 
#    0.000   13.125    0.000    3.000    0.000    0.000 
#    0.000    0.000    0.000    0.000    0.000    0.000 
#
# Total GULP energy -178334.889068 kJ/mol
# GULP energy per Si atom -5572.965283 kJ/mol
# Density = 1.989810 g / cm^3
# Si number density = 19.943493 Si / 1000 Ang^3
#
#
#
# Elastic Constant Matrix: (Units=GPa)
#
#
# Indices 1 2 3 4 5 6 
#
# 1 262.2017 46.2686 60.5522 0.0000 0.0000 0.0000
# 2 46.2686 54.6344 22.8949 0.0000 0.0000 0.0000
# 3 60.5522 22.8949 76.0219 0.0000 0.0000 0.0000
# 4 0.0000 0.0000 0.0000 23.8263 0.0000 0.0000
# 5 0.0000 0.0000 0.0000 0.0000 15.7532 0.0000
# 6 0.0000 0.0000 0.0000 0.0000 0.0000 25.4741
#
#
#
# Elastic Compliance Matrix: (Units=1/GPa)
#
#
# Indices 1 2 3 4 5 6 
#
# 1 0.005063 -0.002973 -0.003137 0.000000 0.000000 0.000000
# 2 -0.002973 0.022693 -0.004466 0.000000 0.000000 0.000000
# 3 -0.003137 -0.004466 0.016998 0.000000 0.000000 0.000000
# 4 0.000000 0.000000 0.000000 0.041970 0.000000 0.000000
# 5 0.000000 0.000000 0.000000 0.000000 0.063479 0.000000
# 6 0.000000 0.000000 0.000000 0.000000 0.000000 0.039256
#
#
# Mechanical properties :
#
#
# Convention : Reuss Voigt Hill
#
# Bulk Modulus (GPa) = 42.37143 72.47659 57.42401
# Shear Modulus (GPa) = 22.88544 30.55352 26.71948
#
# Velocity S-wave (km/s) = 3.39117 3.91833 3.66424
# Velocity P-wave (km/s) = 6.05188 7.54261 6.83799
#
# Compressibility (1/GPa) = 0.02360081
#
# Stress axis : x y z
#
# Youngs Moduli (GPa) = 197.51047 44.06672 58.83006
#
# Poissons Ratio (x) = 0.13101 0.18457
# Poissons Ratio (y) = 0.58720 0.26275
# Poissons Ratio (z) = 0.61967 0.19681
#
# Static dielectric constant tensor:
#      x y z
#    x 1.792830 0.000000 0.000000 
#    y 0.000000 1.693160 0.000000 
#    z 0.000000 0.000000 1.807090 
# 
# From -- ./inp_files/11861.got.cif
#   From: 2010.05.17/outbox.cif.g08.bks.cpg/sg74_6_cif.got.tgz:11861.got - 2010.06.03 17:57:02.
