data_PCOD9535653
_publ_section_title
;
Structure prediction by ZEFSAII (Michael W. Deem and Ramdas Pophale) SiO2 
 PCOD9535653
Probable space group: I M M A
;
_chemical_formula_sum "Si O2"
_cell_formula_units_Z 112
_cell_length_a 24.934557
_cell_length_b 15.166286
_cell_length_c 15.938341
_cell_angle_alpha 90.000000
_cell_angle_beta 90.000000
_cell_angle_gamma 90.000000
_cell_volume 6027.316711
_symmetry_space_group_name_H-M "I M M A"
_symmetry_group_IT_number 74
_symmetry_cell_setting 'orthorhombic'
loop_
_space_group_symop_operation_xyz
x,y,z
-x,1/2-y,z
x,-y,-z
-x,1/2+y,-z
-x,-y,-z
x,1/2+y,-z
-x,y,z
x,1/2-y,z
1/2+x,1/2+y,1/2+z
1/2-x,-y,1/2+z
1/2+x,1/2-y,1/2-z
1/2-x,y,1/2-z
1/2-x,1/2-y,1/2-z
1/2+x,y,1/2-z
1/2-x,1/2+y,1/2+z
1/2+x,-y,1/2+z
loop_
_atom_site_type_symbol
_atom_site_label
_atom_site_fract_x
_atom_site_fract_y
_atom_site_fract_z
Si Si1 0.615805 0.483290 0.304973
Si Si2 0.290594 0.000302 0.812222
Si Si3 0.062700 0.349942 0.325447
Si Si4 0.939984 0.410977 0.944266
Si Si5 0.157479 0.148989 0.052441
Si Si6 0.257755 0.149868 0.932760
Si Si7 0.853363 0.591616 0.543153
O O1 0.658995 0.528401 0.244166
O O2 0.581611 0.418682 0.245239
O O3 0.580520 0.554251 0.354584
O O4 0.645542 0.421230 0.374088
O O5 0.250000 0.952799 0.750000
O O6 0.260933 0.080923 0.857250
O O7 0.312762 0.936680 0.883129
O O8 0.071091 0.250000 0.294322
O O9 0.097751 0.362592 0.409600
O O10 0.000000 0.362107 0.342900
O O11 0.000000 0.372346 0.941453
O O12 0.943254 0.500000 0.000000
O O13 0.893769 0.355461 0.989916
O O14 0.163575 0.250000 0.083123
O O15 0.210435 0.125557 0.998292
O O16 0.247671 0.250000 0.905959
O O17 0.315900 0.143129 0.977991
O O18 0.871222 0.500000 0.500000
#
# Coordination Sequence:
#
# PCOD9535653 Si02
#       7
#    16  16  16  16  16  16  16
#     4  10  19  33  51  73 102 133 167 205 250 301
#     4  10  19  31  50  74  99 129 163 203 249 299
#     4  10  20  33  51  76 103 130 163 207 256 300
#     4   9  18  32  50  72 100 136 174 208 244 294
#     4  10  20  33  52  77 103 134 169 207 251 297
#     4  10  20  34  51  72 100 131 166 208 250 296
#     4   9  19  34  52  73  97 130 168 205 248 298
#
# _framework density 18.582066000000001
#
# number of rings (size 3 to 8) (size 9 to 14) (size 15 to 20)
#    0.000    2.286    0.000    3.000    0.000    5.429 
#    0.000    0.714    0.000    6.857    0.000    0.000 
#    0.000    0.000    0.000    0.000    0.000    0.000 
#
# Total GULP energy -312303.229440 kJ/mol
# GULP energy per Si atom -5576.843383 kJ/mol
# Density = 1.853977 g / cm^3
# Si number density = 18.582066 Si / 1000 Ang^3
#
#
#
# Elastic Constant Matrix: (Units=GPa)
#
#
# Indices 1 2 3 4 5 6 
#
# 1 80.6746 17.8877 18.9457 0.0000 0.0000 0.0000
# 2 17.8877 42.0853 11.1186 0.0000 0.0000 0.0000
# 3 18.9457 11.1186 55.6622 0.0000 0.0000 0.0000
# 4 0.0000 0.0000 0.0000 13.4604 0.0000 0.0000
# 5 0.0000 0.0000 0.0000 0.0000 23.7288 0.0000
# 6 0.0000 0.0000 0.0000 0.0000 0.0000 9.6869
#
#
#
# Elastic Compliance Matrix: (Units=1/GPa)
#
#
# Indices 1 2 3 4 5 6 
#
# 1 0.014443 -0.005110 -0.003895 0.000000 0.000000 0.000000
# 2 -0.005110 0.026893 -0.003633 0.000000 0.000000 0.000000
# 3 -0.003895 -0.003633 0.020017 0.000000 0.000000 0.000000
# 4 0.000000 0.000000 0.000000 0.074292 0.000000 0.000000
# 5 0.000000 0.000000 0.000000 0.000000 0.042143 0.000000
# 6 0.000000 0.000000 0.000000 0.000000 0.000000 0.103232
#
#
# Mechanical properties :
#
#
# Convention : Reuss Voigt Hill
#
# Bulk Modulus (GPa) = 27.71811 30.48067 29.09939
# Shear Modulus (GPa) = 15.70741 18.07324 16.89032
#
# Velocity S-wave (km/s) = 2.91056 3.12206 3.01816
# Velocity P-wave (km/s) = 5.12290 5.42543 5.27633
#
# Compressibility (1/GPa) = 0.03607750
#
# Stress axis : x y z
#
# Youngs Moduli (GPa) = 69.23661 37.18461 49.95752
#
# Poissons Ratio (x) = 0.19000 0.19460
# Poissons Ratio (y) = 0.35378 0.18148
# Poissons Ratio (z) = 0.26970 0.13508
#
# Static dielectric constant tensor:
#      x y z
#    x 1.665660 0.000000 0.000000 
#    y 0.000000 1.640190 0.000000 
#    z 0.000000 0.000000 1.644770 
# 
# From -- ./inp_files/32886.got.cif
#   From: 2010.05.17/outbox.cif.g08.bks.cpg/sg74_17_cif.got.tgz:32886.got - 2010.06.03 17:57:02.
