data_PCOD9535185
_publ_section_title
;
Structure prediction by ZEFSAII (Michael W. Deem and Ramdas Pophale) SiO2 
 PCOD9535185
Probable space group: I M M A
;
_chemical_formula_sum "Si O2"
_cell_formula_units_Z 56
_cell_length_a 24.310533
_cell_length_b 11.489727
_cell_length_c 8.413130
_cell_angle_alpha 90.000000
_cell_angle_beta 90.000000
_cell_angle_gamma 90.000000
_cell_volume 2349.967144
_symmetry_space_group_name_H-M "I M M A"
_symmetry_group_IT_number 74
_symmetry_cell_setting 'orthorhombic'
loop_
_space_group_symop_operation_xyz
x,y,z
-x,1/2-y,z
x,-y,-z
-x,1/2+y,-z
-x,-y,-z
x,1/2+y,-z
-x,y,z
x,1/2-y,z
1/2+x,1/2+y,1/2+z
1/2-x,-y,1/2+z
1/2+x,1/2-y,1/2-z
1/2-x,y,1/2-z
1/2-x,1/2-y,1/2-z
1/2+x,y,1/2-z
1/2-x,1/2+y,1/2+z
1/2+x,-y,1/2+z
loop_
_atom_site_type_symbol
_atom_site_label
_atom_site_fract_x
_atom_site_fract_y
_atom_site_fract_z
Si Si1 0.600963 0.250000 0.237651
Si Si2 0.500000 0.750000 0.999877
Si Si3 0.500000 0.944836 0.259225
Si Si4 0.500000 0.750000 0.522099
Si Si5 0.120248 0.010931 0.188756
Si Si6 0.795915 0.115167 0.612002
O O1 0.557470 0.250000 0.094530
O O2 0.557742 0.250000 0.385548
O O3 0.638856 0.363326 0.250121
O O4 0.500000 0.864820 0.105899
O O5 0.500000 0.861306 0.410552
O O6 0.444315 0.014880 0.270786
O O7 0.147480 0.909749 0.291757
O O8 0.129122 0.000000 0.000000
O O9 0.795423 0.250000 0.549901
O O10 0.750000 0.109423 0.750000
O O11 0.788007 0.000000 0.500000
#
# Coordination Sequence:
#
# PCOD9535185 Si02
#       6
#     8   4   8   4  16  16
#     4  11  24  40  63 104 142 196 254 295 367 429
#     4  10  26  38  62  94 148 194 246 306 358 436
#     4  11  23  39  63  98 146 197 242 295 373 427
#     4  10  18  40  60  90 144 202 250 294 342 448
#     4  12  26  43  72 104 148 197 247 304 363 441
#     4  11  29  55  81 111 147 191 243 304 370 435
#
# _framework density 23.830119
#
# number of rings (size 3 to 8) (size 9 to 14) (size 15 to 20)
#    0.000    0.857    2.857    3.000   12.000    1.714 
#    0.000    0.000    0.000    0.000    0.000    0.000 
#    0.000    0.000    0.000    0.000    0.000    0.000 
#
# Total GULP energy -156611.501959 kJ/mol
# GULP energy per Si atom -5593.267927 kJ/mol
# Density = 2.377588 g / cm^3
# Si number density = 23.830119 Si / 1000 Ang^3
#
#
#
# Elastic Constant Matrix: (Units=GPa)
#
#
# Indices 1 2 3 4 5 6 
#
# 1 64.0439 22.1989 9.3220 0.0000 0.0000 0.0000
# 2 22.1989 207.7268 71.2269 0.0000 0.0000 0.0000
# 3 9.3220 71.2269 113.6028 0.0000 0.0000 0.0000
# 4 0.0000 0.0000 0.0000 38.6235 0.0000 0.0000
# 5 0.0000 0.0000 0.0000 0.0000 18.3663 0.0000
# 6 0.0000 0.0000 0.0000 0.0000 0.0000 29.6736
#
#
#
# Elastic Compliance Matrix: (Units=1/GPa)
#
#
# Indices 1 2 3 4 5 6 
#
# 1 0.016224 -0.001627 -0.000311 0.000000 0.000000 0.000000
# 2 -0.001627 0.006296 -0.003814 0.000000 0.000000 0.000000
# 3 -0.000311 -0.003814 0.011219 0.000000 0.000000 0.000000
# 4 0.000000 0.000000 0.000000 0.025891 0.000000 0.000000
# 5 0.000000 0.000000 0.000000 0.000000 0.054448 0.000000
# 6 0.000000 0.000000 0.000000 0.000000 0.000000 0.033700
#
#
# Mechanical properties :
#
#
# Convention : Reuss Voigt Hill
#
# Bulk Modulus (GPa) = 44.97493 65.65209 55.31351
# Shear Modulus (GPa) = 29.99541 36.17440 33.08490
#
# Velocity S-wave (km/s) = 3.55169 3.90039 3.73012
# Velocity P-wave (km/s) = 5.97775 6.92055 6.46635
#
# Compressibility (1/GPa) = 0.02223461
#
# Stress axis : x y z
#
# Youngs Moduli (GPa) = 61.63877 158.84219 89.13256
#
# Poissons Ratio (x) = 0.25845 0.02773
# Poissons Ratio (y) = 0.10029 0.33992
# Poissons Ratio (z) = 0.01918 0.60577
#
# Static dielectric constant tensor:
#      x y z
#    x 1.790920 0.000000 0.000000 
#    y 0.000000 1.955830 0.000000 
#    z 0.000000 0.000000 1.938560 
# 
# From -- ./inp_files/14517.got.cif
#   From: 2010.05.17/outbox.cif.g08.bks.cpg/sg74_8_cif.got.tgz:14517.got - 2010.06.03 17:57:02.
