data_PCOD9535084
_publ_section_title
;
Structure prediction by ZEFSAII (Michael W. Deem and Ramdas Pophale) SiO2 
 PCOD9535084
Probable space group: I M M A
;
_chemical_formula_sum "Si O2"
_cell_formula_units_Z 96
_cell_length_a 7.828485
_cell_length_b 20.971307
_cell_length_c 29.663857
_cell_angle_alpha 90.000000
_cell_angle_beta 90.000000
_cell_angle_gamma 90.000000
_cell_volume 4870.021075
_symmetry_space_group_name_H-M "I M M A"
_symmetry_group_IT_number 74
_symmetry_cell_setting 'orthorhombic'
loop_
_space_group_symop_operation_xyz
x,y,z
-x,1/2-y,z
x,-y,-z
-x,1/2+y,-z
-x,-y,-z
x,1/2+y,-z
-x,y,z
x,1/2-y,z
1/2+x,1/2+y,1/2+z
1/2-x,-y,1/2+z
1/2+x,1/2-y,1/2-z
1/2-x,y,1/2-z
1/2-x,1/2-y,1/2-z
1/2+x,y,1/2-z
1/2-x,1/2+y,1/2+z
1/2+x,-y,1/2+z
loop_
_atom_site_type_symbol
_atom_site_label
_atom_site_fract_x
_atom_site_fract_y
_atom_site_fract_z
Si Si1 0.205674 0.914211 0.301837
Si Si2 0.294420 0.682300 0.802350
Si Si3 0.293466 0.950267 0.840161
Si Si4 0.290833 0.175926 0.884548
Si Si5 0.195981 0.965483 0.942572
Si Si6 0.693716 0.899046 0.027466
O O1 0.250000 0.898776 0.250000
O O2 0.265103 0.864894 0.340739
O O3 0.000000 0.914627 0.304466
O O4 0.267784 0.985268 0.315483
O O5 0.500000 0.681183 0.807538
O O6 0.233019 0.750000 0.822422
O O7 0.250000 0.683737 0.750000
O O8 0.226052 0.615701 0.820271
O O9 0.500000 0.951135 0.836771
O O10 0.243278 0.949262 0.892122
O O11 0.500000 0.173228 0.885113
O O12 0.241206 0.250000 0.881582
O O13 0.233071 0.143700 0.931801
O O14 0.000000 0.986066 0.945599
O O15 0.304020 0.028218 0.954558
O O16 0.222180 0.908732 0.978539
O O17 0.500000 0.877513 0.019866
#
# Coordination Sequence:
#
# PCOD9535084 Si02
#       6
#    16  16  16  16  16  16
#     4  10  20  34  52  77 106 138 178 224 267 311
#     4   9  18  32  51  74 102 136 175 216 259 314
#     4  10  19  34  53  76 105 141 179 214 260 314
#     4   9  18  34  56  79 105 140 182 222 261 312
#     4  11  21  32  52  81 109 132 167 216 264 308
#     4  10  18  34  57  78 103 137 174 209 257 312
#
# _framework density 19.712439
#
# number of rings (size 3 to 8) (size 9 to 14) (size 15 to 20)
#    0.000    2.167    1.667    3.500    0.000    1.667 
#    0.000    0.833    0.000    9.000    0.000    0.000 
#    0.000    0.000    0.000    0.000    0.000    0.000 
#
# Total GULP energy -267545.799402 kJ/mol
# GULP energy per Si atom -5573.870821 kJ/mol
# Density = 1.966757 g / cm^3
# Si number density = 19.712439 Si / 1000 Ang^3
#
#
#
# Elastic Constant Matrix: (Units=GPa)
#
#
# Indices 1 2 3 4 5 6 
#
# 1 25.7444 2.1330 -16.0333 0.0000 0.0000 0.0000
# 2 2.1330 134.2785 54.5421 0.0000 0.0000 0.0000
# 3 -16.0333 54.5421 88.3552 0.0000 0.0000 0.0000
# 4 0.0000 0.0000 0.0000 26.2321 0.0000 0.0000
# 5 0.0000 0.0000 0.0000 0.0000 19.5367 0.0000
# 6 0.0000 0.0000 0.0000 0.0000 0.0000 -5.1545
#
#
#
# Elastic Compliance Matrix: (Units=1/GPa)
#
#
# Indices 1 2 3 4 5 6 
#
# 1 0.046737 -0.005589 0.011931 0.000000 0.000000 0.000000
# 2 -0.005589 0.010608 -0.007562 0.000000 0.000000 0.000000
# 3 0.011931 -0.007562 0.018151 0.000000 0.000000 0.000000
# 4 0.000000 0.000000 0.000000 0.038121 0.000000 0.000000
# 5 0.000000 0.000000 0.000000 0.000000 0.051186 0.000000
# 6 0.000000 0.000000 0.000000 0.000000 0.000000 -0.194006
#
#
# Mechanical properties :
#
#
# Convention : Reuss Voigt Hill
#
# Bulk Modulus (GPa) = 13.68818 36.62908 25.15863
# Shear Modulus (GPa) = -2073.19756 21.97195 -1025.61280
#
# Velocity S-wave (km/s) = -32.46542 3.34222 -22.83455
# Velocity P-wave (km/s) = 37.39491 5.78930 26.12339
#
# Compressibility (1/GPa) = 0.07305576
#
# Stress axis : x y z
#
# Youngs Moduli (GPa) = 21.39642 94.27122 55.09270
#
# Poissons Ratio (x) = 0.52684 -0.65731
# Poissons Ratio (y) = 0.11958 0.41663
# Poissons Ratio (z) = -0.25528 0.71291
#
# Static dielectric constant tensor:
#      x y z
#    x 1.718960 0.000000 0.000000 
#    y 0.000000 -0.008930 0.000000 
#    z 0.000000 0.000000 1.702260 
# 
# From -- ./inp_files/64329.got.cif
#   From: 2010.05.17/outbox.cif.g08.bks.cpg/sg74_33_cif.got.tgz:64329.got - 2010.06.03 17:57:02.
