data_PCOD9535942
_publ_section_title
;
Structure prediction by ZEFSAII (Michael W. Deem and Ramdas Pophale) SiO2 
 PCOD9535942
Probable space group: I M M A
;
_chemical_formula_sum "Si O2"
_cell_formula_units_Z 120
_cell_length_a 25.096724
_cell_length_b 9.334616
_cell_length_c 28.427416
_cell_angle_alpha 90.000000
_cell_angle_beta 90.000000
_cell_angle_gamma 90.000000
_cell_volume 6659.641891
_symmetry_space_group_name_H-M "I M M A"
_symmetry_group_IT_number 74
_symmetry_cell_setting 'orthorhombic'
loop_
_space_group_symop_operation_xyz
x,y,z
-x,1/2-y,z
x,-y,-z
-x,1/2+y,-z
-x,-y,-z
x,1/2+y,-z
-x,y,z
x,1/2-y,z
1/2+x,1/2+y,1/2+z
1/2-x,-y,1/2+z
1/2+x,1/2-y,1/2-z
1/2-x,y,1/2-z
1/2-x,1/2-y,1/2-z
1/2+x,y,1/2-z
1/2-x,1/2+y,1/2+z
1/2+x,-y,1/2+z
loop_
_atom_site_type_symbol
_atom_site_label
_atom_site_fract_x
_atom_site_fract_y
_atom_site_fract_z
Si Si1 0.436040 0.586330 0.138868
Si Si2 0.500000 0.077242 0.549819
Si Si3 0.134180 0.078789 0.295097
Si Si4 0.220678 0.578197 0.049635
Si Si5 0.609270 0.579157 0.398327
Si Si6 0.767502 0.580725 0.636178
Si Si7 0.844378 0.919523 0.812405
Si Si8 0.934907 0.585562 0.546308
O O1 0.500000 0.587814 0.137879
O O2 0.417186 0.750000 0.136171
O O3 0.415559 0.508158 0.185236
O O4 0.418024 0.496044 0.093364
O O5 0.500000 0.250000 0.543749
O O6 0.446202 0.037738 0.577607
O O7 0.500000 0.000000 0.500000
O O8 0.124686 0.250000 0.296396
O O9 0.181754 0.047681 0.331701
O O10 0.149191 0.038949 0.241908
O O11 0.226277 0.750000 0.045528
O O12 0.160500 0.546154 0.068685
O O13 0.259422 0.513866 0.089719
O O14 0.228754 0.500000 0.000000
O O15 0.609143 0.750000 0.391466
O O16 0.618310 0.503075 0.348600
O O17 0.769002 0.750000 0.623552
O O18 0.715598 0.557767 0.668955
O O19 0.855216 0.750000 0.815842
O O20 0.917691 0.500000 0.500000
O O21 0.916926 0.750000 0.545996
O O22 0.000000 0.587181 0.545819
#
# Coordination Sequence:
#
# PCOD9535942 Si02
#       8
#    16   8  16  16  16  16  16  16
#     4  10  21  36  52  73 103 138 175 211 252 307
#     4  10  20  34  52  76 108 146 186 228 269 312
#     4  10  20  35  56  80 104 134 172 217 266 314
#     4  10  19  32  52  78 108 142 178 216 264 319
#     4   9  19  34  51  75 107 143 182 223 266 316
#     4   9  18  34  56  80 106 134 168 213 265 318
#     4   9  18  34  56  80 104 133 172 217 265 317
#     4   9  16  28  49  74  98 126 161 203 248 294
#
# _framework density 18.018986999999999
#
# number of rings (size 3 to 8) (size 9 to 14) (size 15 to 20)
#    0.000    2.533    0.000    2.000    0.000    6.133 
#    1.200    0.667    0.000    7.200    0.000    0.000 
#    0.000    0.000    0.000    0.000    0.000    0.000 
#
# Total GULP energy -334772.931239 kJ/mol
# GULP energy per Si atom -5579.548854 kJ/mol
# Density = 1.797797 g / cm^3
# Si number density = 18.018987 Si / 1000 Ang^3
#
#
#
# Elastic Constant Matrix: (Units=GPa)
#
#
# Indices 1 2 3 4 5 6 
#
# 1 31.1857 26.2412 29.8952 0.0000 0.0000 0.0000
# 2 26.2412 71.1552 73.9632 0.0000 0.0000 0.0000
# 3 29.8952 73.9632 154.2211 0.0000 0.0000 0.0000
# 4 0.0000 0.0000 0.0000 34.5334 0.0000 0.0000
# 5 0.0000 0.0000 0.0000 0.0000 16.3380 0.0000
# 6 0.0000 0.0000 0.0000 0.0000 0.0000 18.9577
#
#
#
# Elastic Compliance Matrix: (Units=1/GPa)
#
#
# Indices 1 2 3 4 5 6 
#
# 1 0.046686 -0.015574 -0.001581 0.000000 0.000000 0.000000
# 2 -0.015574 0.033220 -0.012913 0.000000 0.000000 0.000000
# 3 -0.001581 -0.012913 0.012984 0.000000 0.000000 0.000000
# 4 0.000000 0.000000 0.000000 0.028957 0.000000 0.000000
# 5 0.000000 0.000000 0.000000 0.000000 0.061207 0.000000
# 6 0.000000 0.000000 0.000000 0.000000 0.000000 0.052749
#
#
# Mechanical properties :
#
#
# Convention : Reuss Voigt Hill
#
# Bulk Modulus (GPa) = 30.53078 57.41792 43.97435
# Shear Modulus (GPa) = 16.29423 22.39665 19.34544
#
# Velocity S-wave (km/s) = 3.01039 3.52937 3.28016
# Velocity P-wave (km/s) = 5.39108 6.96728 6.22923
#
# Compressibility (1/GPa) = 0.03275384
#
# Stress axis : x y z
#
# Youngs Moduli (GPa) = 21.41967 30.10235 77.02026
#
# Poissons Ratio (x) = 0.46882 0.12174
# Poissons Ratio (y) = 0.33359 0.99457
# Poissons Ratio (z) = 0.03386 0.38871
#
# Static dielectric constant tensor:
#      x y z
#    x 1.628230 0.000000 0.000000 
#    y 0.000000 1.603960 0.000000 
#    z 0.000000 0.000000 1.587490 
# 
# From -- ./inp_files/69020.got.cif
#   From: 2010.05.17/outbox.cif.g08.bks.cpg/sg74_35_cif.got.tgz:69020.got - 2010.06.03 17:57:02.
