data_PCOD9535700
_publ_section_title
;
Structure prediction by ZEFSAII (Michael W. Deem and Ramdas Pophale) SiO2 
 PCOD9535700
Probable space group: I M M A
;
_chemical_formula_sum "Si O2"
_cell_formula_units_Z 96
_cell_length_a 31.549775
_cell_length_b 15.661095
_cell_length_c 11.362299
_cell_angle_alpha 90.000000
_cell_angle_beta 90.000000
_cell_angle_gamma 90.000000
_cell_volume 5614.157652
_symmetry_space_group_name_H-M "I M M A"
_symmetry_group_IT_number 74
_symmetry_cell_setting 'orthorhombic'
loop_
_space_group_symop_operation_xyz
x,y,z
-x,1/2-y,z
x,-y,-z
-x,1/2+y,-z
-x,-y,-z
x,1/2+y,-z
-x,y,z
x,1/2-y,z
1/2+x,1/2+y,1/2+z
1/2-x,-y,1/2+z
1/2+x,1/2-y,1/2-z
1/2-x,y,1/2-z
1/2-x,1/2-y,1/2-z
1/2+x,y,1/2-z
1/2-x,1/2+y,1/2+z
1/2+x,-y,1/2+z
loop_
_atom_site_type_symbol
_atom_site_label
_atom_site_fract_x
_atom_site_fract_y
_atom_site_fract_z
Si Si1 0.290547 0.347758 0.819469
Si Si2 0.953458 0.250000 0.365625
Si Si3 0.746546 0.906424 0.945448
Si Si4 0.615354 0.899852 0.132837
Si Si5 0.892882 0.596806 0.646050
Si Si6 0.190025 0.351155 0.232449
Si Si7 0.450263 0.250000 0.850361
O O1 0.295694 0.250000 0.778905
O O2 0.250000 0.386515 0.750000
O O3 0.337210 0.389463 0.813631
O O4 0.274753 0.349726 0.953899
O O5 0.930424 0.337341 0.332399
O O6 0.954417 0.250000 0.507916
O O7 0.000000 0.250000 0.316305
O O8 0.791275 0.874854 0.894525
O O9 0.716151 0.901234 0.832692
O O10 0.749086 0.000000 0.000000
O O11 0.580054 0.831938 0.176208
O O12 0.599187 0.995967 0.152885
O O13 0.621095 0.887386 0.990863
O O14 0.857363 0.622893 0.739350
O O15 0.196238 0.250000 0.250976
O O16 0.500000 0.250000 0.806812
#
# Coordination Sequence:
#
# PCOD9535700 Si02
#       7
#    16   8  16  16  16  16   8
#     4  11  22  34  49  70 104 146 180 217 261 308
#     4   9  18  32  50  75 102 130 165 220 278 327
#     4  11  23  33  49  74 103 138 186 226 258 305
#     4  10  19  32  48  73 105 138 181 218 263 323
#     4  10  19  31  51  73 102 138 173 219 264 318
#     4  11  21  36  55  74 102 146 192 224 262 320
#     4   9  18  32  51  70  99 139 176 217 267 329
#
# _framework density 17.099627999999999
#
# number of rings (size 3 to 8) (size 9 to 14) (size 15 to 20)
#    0.000    1.667    3.333    3.000    4.667    0.667 
#    0.000    3.333    0.000    0.000    0.000    0.000 
#    0.000    3.333    0.000    0.000    0.000    0.000 
#
# Total GULP energy -267401.442191 kJ/mol
# GULP energy per Si atom -5570.863379 kJ/mol
# Density = 1.706071 g / cm^3
# Si number density = 17.099628 Si / 1000 Ang^3
#
#
#
# Elastic Constant Matrix: (Units=GPa)
#
#
# Indices 1 2 3 4 5 6 
#
# 1 143.1090 73.1314 21.1023 0.0000 0.0000 0.0000
# 2 73.1314 130.5946 20.3775 0.0000 0.0000 0.0000
# 3 21.1023 20.3775 24.7138 0.0000 0.0000 0.0000
# 4 0.0000 0.0000 0.0000 61.7842 0.0000 0.0000
# 5 0.0000 0.0000 0.0000 0.0000 19.1122 0.0000
# 6 0.0000 0.0000 0.0000 0.0000 0.0000 16.3287
#
#
#
# Elastic Compliance Matrix: (Units=1/GPa)
#
#
# Indices 1 2 3 4 5 6 
#
# 1 0.010225 -0.005008 -0.004602 0.000000 0.000000 0.000000
# 2 -0.005008 0.011241 -0.004992 0.000000 0.000000 0.000000
# 3 -0.004602 -0.004992 0.048509 0.000000 0.000000 0.000000
# 4 0.000000 0.000000 0.000000 0.016185 0.000000 0.000000
# 5 0.000000 0.000000 0.000000 0.000000 0.052323 0.000000
# 6 0.000000 0.000000 0.000000 0.000000 0.000000 0.061242
#
#
# Mechanical properties :
#
#
# Convention : Reuss Voigt Hill
#
# Bulk Modulus (GPa) = 24.52735 58.62663 41.57699
# Shear Modulus (GPa) = 20.61693 31.69877 26.15785
#
# Velocity S-wave (km/s) = 3.47608 4.31021 3.91542
# Velocity P-wave (km/s) = 5.52139 7.68963 6.69388
#
# Compressibility (1/GPa) = 0.04077081
#
# Stress axis : x y z
#
# Youngs Moduli (GPa) = 97.79492 88.96232 20.61482
#
# Poissons Ratio (x) = 0.44553 0.09487
# Poissons Ratio (y) = 0.48977 0.10291
# Poissons Ratio (z) = 0.45004 0.44411
#
# Static dielectric constant tensor:
#      x y z
#    x 1.613500 0.000000 0.000000 
#    y 0.000000 1.619970 0.000000 
#    z 0.000000 0.000000 1.569130 
# 
# From -- ./inp_files/27144.got.cif
#   From: 2010.05.17/outbox.cif.g08.bks.cpg/sg74_14_cif.got.tgz:27144.got - 2010.06.03 17:57:02.
