data_PCOD9535836
_publ_section_title
;
Structure prediction by ZEFSAII (Michael W. Deem and Ramdas Pophale) SiO2 
 PCOD9535836
Probable space group: I M M A
;
_chemical_formula_sum "Si O2"
_cell_formula_units_Z 128
_cell_length_a 23.187113
_cell_length_b 18.196859
_cell_length_c 18.358742
_cell_angle_alpha 90.000000
_cell_angle_beta 90.000000
_cell_angle_gamma 90.000000
_cell_volume 7746.152220
_symmetry_space_group_name_H-M "I M M A"
_symmetry_group_IT_number 74
_symmetry_cell_setting 'orthorhombic'
loop_
_space_group_symop_operation_xyz
x,y,z
-x,1/2-y,z
x,-y,-z
-x,1/2+y,-z
-x,-y,-z
x,1/2+y,-z
-x,y,z
x,1/2-y,z
1/2+x,1/2+y,1/2+z
1/2-x,-y,1/2+z
1/2+x,1/2-y,1/2-z
1/2-x,y,1/2-z
1/2-x,1/2-y,1/2-z
1/2+x,y,1/2-z
1/2-x,1/2+y,1/2+z
1/2+x,-y,1/2+z
loop_
_atom_site_type_symbol
_atom_site_label
_atom_site_fract_x
_atom_site_fract_y
_atom_site_fract_z
Si Si1 0.069497 0.585651 0.493269
Si Si2 0.067608 0.914649 0.765748
Si Si3 0.128908 0.338083 0.370806
Si Si4 0.930987 0.162361 0.946187
Si Si5 0.070173 0.666027 0.345697
Si Si6 0.878315 0.661433 0.899460
Si Si7 0.429888 0.918208 0.298398
Si Si8 0.756643 0.338878 0.166385
O O1 0.084670 0.500000 0.500000
O O2 0.097204 0.631982 0.558111
O O3 0.087345 0.617699 0.415038
O O4 0.000000 0.591427 0.498744
O O5 0.102314 0.877059 0.700290
O O6 0.078051 0.869180 0.839256
O O7 0.000000 0.916014 0.746176
O O8 0.086914 0.997961 0.782493
O O9 0.122211 0.250000 0.363675
O O10 0.196933 0.355521 0.373711
O O11 0.922426 0.250000 0.933125
O O12 0.912273 0.115894 0.875715
O O13 0.000000 0.151991 0.957289
O O14 0.897543 0.140130 0.019423
O O15 0.089123 0.750000 0.353976
O O16 0.089355 0.631556 0.269404
O O17 0.000000 0.666027 0.344537
O O18 0.879652 0.750000 0.897265
O O19 0.814665 0.636024 0.873847
O O20 0.500000 0.916943 0.299245
O O21 0.761176 0.250000 0.170217
O O22 0.750000 0.364987 0.250000
#
# Coordination Sequence:
#
# PCOD9535836 Si02
#       8
#    16  16  16  16  16  16  16  16
#     4  10  20  33  49  73 108 139 160 197 256 312
#     4  11  21  30  45  72 106 137 159 194 253 312
#     4  11  21  33  53  76 100 132 172 214 250 296
#     4   9  17  30  50  75 102 132 168 210 250 294
#     4   9  16  28  47  68  93 128 169 205 236 285
#     4  10  19  32  50  72  98 131 170 208 248 296
#     4   9  18  31  46  69 100 134 168 199 244 302
#     4   9  17  33  53  71  93 129 172 211 250 291
#
# _framework density 16.524332999999999
#
# number of rings (size 3 to 8) (size 9 to 14) (size 15 to 20)
#    0.000    2.250    1.250    2.625    0.000    6.750 
#    0.000    1.875    2.750    0.000    0.000    0.000 
#    0.000    5.000    0.000    0.000    0.000    0.000 
#
# Total GULP energy -356832.906900 kJ/mol
# GULP energy per Si atom -5575.514170 kJ/mol
# Density = 1.648672 g / cm^3
# Si number density = 16.524333 Si / 1000 Ang^3
#
#
#
# Elastic Constant Matrix: (Units=GPa)
#
#
# Indices 1 2 3 4 5 6 
#
# 1 43.1872 26.3541 25.3843 0.0000 0.0000 0.0000
# 2 26.3541 65.9446 52.6474 0.0000 0.0000 0.0000
# 3 25.3843 52.6474 134.2083 0.0000 0.0000 0.0000
# 4 0.0000 0.0000 0.0000 13.0451 0.0000 0.0000
# 5 0.0000 0.0000 0.0000 0.0000 9.9194 0.0000
# 6 0.0000 0.0000 0.0000 0.0000 0.0000 5.8257
#
#
#
# Elastic Compliance Matrix: (Units=1/GPa)
#
#
# Indices 1 2 3 4 5 6 
#
# 1 0.030816 -0.011156 -0.001452 0.000000 0.000000 0.000000
# 2 -0.011156 0.026118 -0.008135 0.000000 0.000000 0.000000
# 3 -0.001452 -0.008135 0.010917 0.000000 0.000000 0.000000
# 4 0.000000 0.000000 0.000000 0.076657 0.000000 0.000000
# 5 0.000000 0.000000 0.000000 0.000000 0.100813 0.000000
# 6 0.000000 0.000000 0.000000 0.000000 0.000000 0.171653
#
#
# Mechanical properties :
#
#
# Convention : Reuss Voigt Hill
#
# Bulk Modulus (GPa) = 37.93091 50.23460 44.08276
# Shear Modulus (GPa) = 10.70094 15.02167 12.86130
#
# Velocity S-wave (km/s) = 2.54753 3.01834 2.79287
# Velocity P-wave (km/s) = 5.62651 6.52790 6.09390
#
# Compressibility (1/GPa) = 0.02636372
#
# Stress axis : x y z
#
# Youngs Moduli (GPa) = 32.45028 38.28846 91.59887
#
# Poissons Ratio (x) = 0.42714 0.13304
# Poissons Ratio (y) = 0.36201 0.74519
# Poissons Ratio (z) = 0.04713 0.31149
#
# Static dielectric constant tensor:
#      x y z
#    x 1.545830 0.000000 0.000000 
#    y 0.000000 1.554500 0.000000 
#    z 0.000000 0.000000 1.548020 
# 
# From -- ./inp_files/46316.got.cif
#   From: 2010.05.17/outbox.cif.g08.bks.cpg/sg74_24_cif.got.tgz:46316.got - 2010.06.03 17:57:02.
