data_PCOD9535614
_publ_section_title
;
Structure prediction by ZEFSAII (Michael W. Deem and Ramdas Pophale) SiO2 
 PCOD9535614
Probable space group: I M M A
;
_chemical_formula_sum "Si O2"
_cell_formula_units_Z 80
_cell_length_a 28.089905
_cell_length_b 8.095648
_cell_length_c 18.635191
_cell_angle_alpha 90.000000
_cell_angle_beta 90.000000
_cell_angle_gamma 90.000000
_cell_volume 4237.753932
_symmetry_space_group_name_H-M "I M M A"
_symmetry_group_IT_number 74
_symmetry_cell_setting 'orthorhombic'
loop_
_space_group_symop_operation_xyz
x,y,z
-x,1/2-y,z
x,-y,-z
-x,1/2+y,-z
-x,-y,-z
x,1/2+y,-z
-x,y,z
x,1/2-y,z
1/2+x,1/2+y,1/2+z
1/2-x,-y,1/2+z
1/2+x,1/2-y,1/2-z
1/2-x,y,1/2-z
1/2-x,1/2-y,1/2-z
1/2+x,y,1/2-z
1/2-x,1/2+y,1/2+z
1/2+x,-y,1/2+z
loop_
_atom_site_type_symbol
_atom_site_label
_atom_site_fract_x
_atom_site_fract_y
_atom_site_fract_z
Si Si1 0.790854 0.949488 0.420953
Si Si2 0.551815 0.054260 0.268260
Si Si3 0.584075 0.552497 0.422370
Si Si4 0.153660 0.552742 0.282014
Si Si5 0.187367 0.451512 0.872573
O O1 0.790231 0.750000 0.418504
O O2 0.823875 0.010739 0.355741
O O3 0.736739 0.008584 0.406389
O O4 0.806647 0.000000 0.500000
O O5 0.500000 0.989629 0.245198
O O6 0.552874 0.250000 0.257277
O O7 0.557898 0.019485 0.353128
O O8 0.597930 0.981289 0.229292
O O9 0.565777 0.500000 0.500000
O O10 0.582275 0.750000 0.416468
O O11 0.639459 0.498068 0.413993
O O12 0.160100 0.750000 0.282209
O O13 0.180477 0.492597 0.209959
O O14 0.188083 0.250000 0.872399
#
# Coordination Sequence:
#
# PCOD9535614 Si02
#       5
#    16  16  16  16  16
#     4  10  19  31  49  74 104 134 163 197 239 288
#     4  10  21  36  53  72  94 123 161 207 256 300
#     4  10  19  31  49  73 103 137 169 202 238 280
#     4   9  18  33  53  74  97 129 166 203 242 287
#     4   8  15  29  49  72  99 133 169 199 231 277
#
# _framework density 18.877924
#
# number of rings (size 3 to 8) (size 9 to 14) (size 15 to 20)
#    0.000    2.600    0.000    3.600    0.000    5.200 
#    0.000    4.000    0.000    6.600    0.000    0.000 
#    0.000    0.000    0.000    0.000    0.000    0.000 
#
# Total GULP energy -223170.088823 kJ/mol
# GULP energy per Si atom -5579.252221 kJ/mol
# Density = 1.883496 g / cm^3
# Si number density = 18.877924 Si / 1000 Ang^3
#
#
#
# Elastic Constant Matrix: (Units=GPa)
#
#
# Indices 1 2 3 4 5 6 
#
# 1 57.8217 -10.9143 25.1308 0.0000 0.0000 0.0000
# 2 -10.9143 7.7582 -2.7722 0.0000 0.0000 0.0000
# 3 25.1308 -2.7722 86.7759 0.0000 0.0000 0.0000
# 4 0.0000 0.0000 0.0000 23.2314 0.0000 0.0000
# 5 0.0000 0.0000 0.0000 0.0000 1.8964 0.0000
# 6 0.0000 0.0000 0.0000 0.0000 0.0000 -2.3111
#
#
#
# Elastic Compliance Matrix: (Units=1/GPa)
#
#
# Indices 1 2 3 4 5 6 
#
# 1 0.026872 0.035428 -0.006651 0.000000 0.000000 0.000000
# 2 0.035428 0.177092 -0.004603 0.000000 0.000000 0.000000
# 3 -0.006651 -0.004603 0.013303 0.000000 0.000000 0.000000
# 4 0.000000 0.000000 0.000000 0.043045 0.000000 0.000000
# 5 0.000000 0.000000 0.000000 0.000000 0.527322 0.000000
# 6 0.000000 0.000000 0.000000 0.000000 0.000000 -0.432701
#
#
# Mechanical properties :
#
#
# Convention : Reuss Voigt Hill
#
# Bulk Modulus (GPa) = 3.76483 19.47158 11.61820
# Shear Modulus (GPa) = 12.65430 13.95745 13.30587
#
# Velocity S-wave (km/s) = 2.59187 2.72205 2.65776
# Velocity P-wave (km/s) = 3.30993 4.49625 3.94791
#
# Compressibility (1/GPa) = 0.26561659
#
# Stress axis : x y z
#
# Youngs Moduli (GPa) = 37.21285 5.64679 75.17126
#
# Poissons Ratio (x) = -0.20005 0.49993
# Poissons Ratio (y) = -1.31838 0.34599
# Poissons Ratio (z) = 0.24749 0.02599
#
# Static dielectric constant tensor:
#      x y z
#    x 1.675150 0.000000 0.000000 
#    y 0.000000 1.671600 0.000000 
#    z 0.000000 0.000000 1.643350 
# 
# From -- ./inp_files/39723.got.cif
#   From: 2010.05.17/outbox.cif.g08.bks.cpg/sg74_20_cif.got.tgz:39723.got - 2010.06.03 17:57:02.
