data_PCOD9535289
_publ_section_title
;
Structure prediction by ZEFSAII (Michael W. Deem and Ramdas Pophale) SiO2 
 PCOD9535289
Probable space group: I M M A
;
_chemical_formula_sum "Si O2"
_cell_formula_units_Z 112
_cell_length_a 26.851574
_cell_length_b 14.622498
_cell_length_c 15.319301
_cell_angle_alpha 90.000000
_cell_angle_beta 90.000000
_cell_angle_gamma 90.000000
_cell_volume 6014.925721
_symmetry_space_group_name_H-M "I M M A"
_symmetry_group_IT_number 74
_symmetry_cell_setting 'orthorhombic'
loop_
_space_group_symop_operation_xyz
x,y,z
-x,1/2-y,z
x,-y,-z
-x,1/2+y,-z
-x,-y,-z
x,1/2+y,-z
-x,y,z
x,1/2-y,z
1/2+x,1/2+y,1/2+z
1/2-x,-y,1/2+z
1/2+x,1/2-y,1/2-z
1/2-x,y,1/2-z
1/2-x,1/2-y,1/2-z
1/2+x,y,1/2-z
1/2-x,1/2+y,1/2+z
1/2+x,-y,1/2+z
loop_
_atom_site_type_symbol
_atom_site_label
_atom_site_fract_x
_atom_site_fract_y
_atom_site_fract_z
Si Si1 0.559879 0.647425 0.151820
Si Si2 0.710236 0.909708 0.547744
Si Si3 0.940707 0.044778 0.284785
Si Si4 0.354562 0.644297 0.703427
Si Si5 0.211685 0.005111 0.317866
Si Si6 0.803945 0.353203 0.550693
Si Si7 0.598962 0.856829 0.955887
O O1 0.500000 0.648808 0.152804
O O2 0.577423 0.750000 0.175573
O O3 0.574483 0.562293 0.212607
O O4 0.575608 0.628821 0.051624
O O5 0.668463 0.861888 0.606143
O O6 0.751551 0.941851 0.617427
O O7 0.746274 0.858745 0.479042
O O8 0.689875 0.000000 0.500000
O O9 0.909699 0.103631 0.215127
O O10 0.925193 0.084227 0.379928
O O11 0.000000 0.052406 0.273848
O O12 0.351795 0.750000 0.732251
O O13 0.322363 0.577078 0.766133
O O14 0.250000 0.958939 0.250000
O O15 0.185826 0.927069 0.374701
O O16 0.815347 0.250000 0.578124
O O17 0.842287 0.374169 0.471629
O O18 0.592156 0.750000 0.933569
#
# Coordination Sequence:
#
# PCOD9535289 Si02
#       7
#    16  16  16  16  16  16  16
#     4   9  18  32  49  69  97 138 180 210 242 292
#     4   9  19  35  53  74 101 131 168 212 254 302
#     4  11  22  34  50  74 104 134 167 214 265 308
#     4  11  22  35  54  77 104 139 174 209 253 305
#     4   9  19  33  50  76 106 134 167 211 256 299
#     4  10  19  32  52  75 102 139 178 213 251 298
#     4  10  19  29  44  70 105 143 179 212 246 292
#
# _framework density 18.620345
#
# number of rings (size 3 to 8) (size 9 to 14) (size 15 to 20)
#    0.000    2.143    0.000    3.429    0.000    9.714 
#    0.000    0.000    0.000    4.714    0.000    0.000 
#    0.000    0.000    0.000    0.000    0.000    0.000 
#
# Total GULP energy -312284.648872 kJ/mol
# GULP energy per Si atom -5576.511587 kJ/mol
# Density = 1.857796 g / cm^3
# Si number density = 18.620345 Si / 1000 Ang^3
#
#
#
# Elastic Constant Matrix: (Units=GPa)
#
#
# Indices 1 2 3 4 5 6 
#
# 1 78.2524 51.0917 27.8930 0.0000 0.0000 0.0000
# 2 51.0917 111.8190 32.3683 0.0000 0.0000 0.0000
# 3 27.8930 32.3683 35.6305 0.0000 0.0000 0.0000
# 4 0.0000 0.0000 0.0000 15.8483 0.0000 0.0000
# 5 0.0000 0.0000 0.0000 0.0000 26.9237 0.0000
# 6 0.0000 0.0000 0.0000 0.0000 0.0000 22.0991
#
#
#
# Elastic Compliance Matrix: (Units=1/GPa)
#
#
# Indices 1 2 3 4 5 6 
#
# 1 0.020674 -0.006460 -0.010316 0.000000 0.000000 0.000000
# 2 -0.006460 0.014152 -0.007799 0.000000 0.000000 0.000000
# 3 -0.010316 -0.007799 0.043227 0.000000 0.000000 0.000000
# 4 0.000000 0.000000 0.000000 0.063098 0.000000 0.000000
# 5 0.000000 0.000000 0.000000 0.000000 0.037142 0.000000
# 6 0.000000 0.000000 0.000000 0.000000 0.000000 0.045251
#
#
# Mechanical properties :
#
#
# Convention : Reuss Voigt Hill
#
# Bulk Modulus (GPa) = 34.59899 49.82308 42.21103
# Shear Modulus (GPa) = 17.70980 20.59748 19.15364
#
# Velocity S-wave (km/s) = 3.08734 3.32954 3.21072
# Velocity P-wave (km/s) = 5.59736 6.44954 6.03850
#
# Compressibility (1/GPa) = 0.02890258
#
# Stress axis : x y z
#
# Youngs Moduli (GPa) = 48.36967 70.65900 23.13375
#
# Poissons Ratio (x) = 0.45647 0.23864
# Poissons Ratio (y) = 0.31248 0.18043
# Poissons Ratio (z) = 0.49897 0.55110
#
# Static dielectric constant tensor:
#      x y z
#    x 1.690910 0.000000 0.000000 
#    y 0.000000 1.679980 0.000000 
#    z 0.000000 0.000000 1.657640 
# 
# From -- ./inp_files/37378.got.cif
#   From: 2010.05.17/outbox.cif.g08.bks.cpg/sg74_19_cif.got.tgz:37378.got - 2010.06.03 17:57:02.
