data_PCOD9535133
_publ_section_title
;
Structure prediction by ZEFSAII (Michael W. Deem and Ramdas Pophale) SiO2 
 PCOD9535133
Probable space group: I M M A
;
_chemical_formula_sum "Si O2"
_cell_formula_units_Z 52
_cell_length_a 27.483636
_cell_length_b 14.442840
_cell_length_c 5.274514
_cell_angle_alpha 90.000000
_cell_angle_beta 90.000000
_cell_angle_gamma 90.000000
_cell_volume 2093.674856
_symmetry_space_group_name_H-M "I M M A"
_symmetry_group_IT_number 74
_symmetry_cell_setting 'orthorhombic'
loop_
_space_group_symop_operation_xyz
x,y,z
-x,1/2-y,z
x,-y,-z
-x,1/2+y,-z
-x,-y,-z
x,1/2+y,-z
-x,y,z
x,1/2-y,z
1/2+x,1/2+y,1/2+z
1/2-x,-y,1/2+z
1/2+x,1/2-y,1/2-z
1/2-x,y,1/2-z
1/2-x,1/2-y,1/2-z
1/2+x,y,1/2-z
1/2-x,1/2+y,1/2+z
1/2+x,-y,1/2+z
loop_
_atom_site_type_symbol
_atom_site_label
_atom_site_fract_x
_atom_site_fract_y
_atom_site_fract_z
Si Si1 0.698682 0.065384 0.296125
Si Si2 0.885421 0.361468 0.518730
Si Si3 0.750000 0.250000 0.250000
Si Si4 0.555449 0.137920 0.487657
O O1 0.750000 0.014880 0.250000
O O2 0.665510 0.092437 0.056747
O O3 0.716899 0.167192 0.384734
O O4 0.672996 0.000000 0.500000
O O5 0.877758 0.250000 0.526881
O O6 0.911332 0.391171 0.776470
O O7 0.920842 0.383087 0.282712
O O8 0.500000 0.105493 0.509383
O O9 0.554064 0.250000 0.502096
#
# Coordination Sequence:
#
# PCOD9535133 Si02
#       4
#    16  16   4  16
#     4  10  21  39  63  93 133 174 222 274 339 404
#     4  10  18  35  58  88 127 171 216 275 335 395
#     4   8  20  44  62  90 142 170 224 286 332 408
#     4   9  18  31  56  89 123 166 222 273 329 398
#
# _framework density 24.836713
#
# number of rings (size 3 to 8) (size 9 to 14) (size 15 to 20)
#    0.923    1.538    1.538    0.923    0.000    6.154 
#    0.000    0.769    0.000    5.538    0.000    0.000 
#    0.000    0.000    0.000    0.000    0.000    0.000 
#
# Total GULP energy -144750.245828 kJ/mol
# GULP energy per Si atom -5567.317147 kJ/mol
# Density = 2.478018 g / cm^3
# Si number density = 24.836713 Si / 1000 Ang^3
#
#
#
# Elastic Constant Matrix: (Units=GPa)
#
#
# Indices 1 2 3 4 5 6 
#
# 1 156.7082 10.7137 40.2524 0.0000 0.0000 0.0000
# 2 10.7137 142.0439 19.6493 0.0000 0.0000 0.0000
# 3 40.2524 19.6493 113.9532 0.0000 0.0000 0.0000
# 4 0.0000 0.0000 0.0000 25.5802 0.0000 0.0000
# 5 0.0000 0.0000 0.0000 0.0000 25.9490 0.0000
# 6 0.0000 0.0000 0.0000 0.0000 0.0000 70.1521
#
#
#
# Elastic Compliance Matrix: (Units=1/GPa)
#
#
# Indices 1 2 3 4 5 6 
#
# 1 0.007023 -0.000191 -0.002448 0.000000 0.000000 0.000000
# 2 -0.000191 0.007217 -0.001177 0.000000 0.000000 0.000000
# 3 -0.002448 -0.001177 0.009843 0.000000 0.000000 0.000000
# 4 0.000000 0.000000 0.000000 0.039093 0.000000 0.000000
# 5 0.000000 0.000000 0.000000 0.000000 0.038537 0.000000
# 6 0.000000 0.000000 0.000000 0.000000 0.000000 0.014255
#
#
# Mechanical properties :
#
#
# Convention : Reuss Voigt Hill
#
# Bulk Modulus (GPa) = 60.78416 61.54844 61.16630
# Shear Modulus (GPa) = 38.73446 47.14225 42.93835
#
# Velocity S-wave (km/s) = 3.95342 4.36143 4.16243
# Velocity P-wave (km/s) = 6.73543 7.08504 6.91244
#
# Compressibility (1/GPa) = 0.01645165
#
# Stress axis : x y z
#
# Youngs Moduli (GPa) = 142.38692 138.55584 101.59337
#
# Poissons Ratio (x) = 0.02648 0.24869
# Poissons Ratio (y) = 0.02721 0.11958
# Poissons Ratio (z) = 0.34854 0.16308
#
# Static dielectric constant tensor:
#      x y z
#    x 2.013580 0.000000 0.000000 
#    y 0.000000 1.914770 0.000000 
#    z 0.000000 0.000000 2.111260 
# 
# From -- ./inp_files/4822.got.cif
#   From: 2010.05.17/outbox.cif.g08.bks.cpg/sg74_3_cif.got.tgz:4822.got - 2010.06.03 17:57:02.
