data_PCOD9535997
_publ_section_title
;
Structure prediction by ZEFSAII (Michael W. Deem and Ramdas Pophale) SiO2 
 PCOD9535997
Probable space group: I M M A
;
_chemical_formula_sum "Si O2"
_cell_formula_units_Z 108
_cell_length_a 23.798580
_cell_length_b 12.412227
_cell_length_c 22.266272
_cell_angle_alpha 90.000000
_cell_angle_beta 90.000000
_cell_angle_gamma 90.000000
_cell_volume 6577.309285
_symmetry_space_group_name_H-M "I M M A"
_symmetry_group_IT_number 74
_symmetry_cell_setting 'orthorhombic'
loop_
_space_group_symop_operation_xyz
x,y,z
-x,1/2-y,z
x,-y,-z
-x,1/2+y,-z
-x,-y,-z
x,1/2+y,-z
-x,y,z
x,1/2-y,z
1/2+x,1/2+y,1/2+z
1/2-x,-y,1/2+z
1/2+x,1/2-y,1/2-z
1/2-x,y,1/2-z
1/2-x,1/2-y,1/2-z
1/2+x,y,1/2-z
1/2-x,1/2+y,1/2+z
1/2+x,-y,1/2+z
loop_
_atom_site_type_symbol
_atom_site_label
_atom_site_fract_x
_atom_site_fract_y
_atom_site_fract_z
Si Si1 0.700799 0.500000 0.500000
Si Si2 0.233121 0.445478 0.680509
Si Si3 0.894434 0.124436 0.665014
Si Si4 0.436994 0.119303 0.702740
Si Si5 0.413174 0.948758 0.935802
Si Si6 0.157892 0.125309 0.888961
Si Si7 0.000000 0.750000 0.580029
Si Si8 0.285971 0.623159 0.915882
O O1 0.664469 0.558954 0.449659
O O2 0.741511 0.583323 0.534494
O O3 0.250000 0.455294 0.750000
O O4 0.173014 0.387795 0.672273
O O5 0.283102 0.383809 0.646438
O O6 0.226996 0.558696 0.645533
O O7 0.907930 0.250000 0.652399
O O8 0.920492 0.091895 0.729163
O O9 0.915902 0.043445 0.614013
O O10 0.500000 0.082605 0.688898
O O11 0.436163 0.250000 0.700856
O O12 0.390538 0.082269 0.655294
O O13 0.451355 0.846105 0.921377
O O14 0.348157 0.911050 0.936747
O O15 0.428174 0.000000 0.000000
O O16 0.146555 0.250000 0.902346
O O17 0.282901 0.750000 0.907591
#
# Coordination Sequence:
#
# PCOD9535997 Si02
#       8
#     8  16  16  16  16  16   4  16
#     4  10  20  34  55  81 102 142 178 228 280 338
#     4  10  19  32  53  85 114 141 179 223 281 336
#     4  10  21  35  58  85 112 145 182 234 288 337
#     4   9  18  33  52  79 111 141 171 219 277 333
#     4  11  24  41  56  77 106 149 192 239 278 327
#     4  10  19  32  53  80 111 140 176 221 276 333
#     4  12  26  44  58  72 106 150 202 244 272 328
#     4  10  20  36  54  75 109 145 180 224 278 339
#
# _framework density 16.420088
#
# number of rings (size 3 to 8) (size 9 to 14) (size 15 to 20)
#    0.000    1.926    2.963    1.111    2.074    0.889 
#    0.000    0.370    0.000    0.000    0.000    0.000 
#    0.000    0.000    0.000    0.000    0.000    0.000 
#
# Total GULP energy -300743.680895 kJ/mol
# GULP energy per Si atom -5569.327424 kJ/mol
# Density = 1.638271 g / cm^3
# Si number density = 16.420088 Si / 1000 Ang^3
#
#
#
# Elastic Constant Matrix: (Units=GPa)
#
#
# Indices 1 2 3 4 5 6 
#
# 1 92.2030 31.0097 46.2911 0.0000 0.0000 0.0000
# 2 31.0097 110.2004 56.2820 0.0000 0.0000 0.0000
# 3 46.2911 56.2820 123.6572 0.0000 0.0000 0.0000
# 4 0.0000 0.0000 0.0000 14.5342 0.0000 0.0000
# 5 0.0000 0.0000 0.0000 0.0000 -2.3164 0.0000
# 6 0.0000 0.0000 0.0000 0.0000 0.0000 -15.3233
#
#
#
# Elastic Compliance Matrix: (Units=1/GPa)
#
#
# Indices 1 2 3 4 5 6 
#
# 1 0.013567 -0.001594 -0.004353 0.000000 0.000000 0.000000
# 2 -0.001594 0.012010 -0.004869 0.000000 0.000000 0.000000
# 3 -0.004353 -0.004869 0.011933 0.000000 0.000000 0.000000
# 4 0.000000 0.000000 0.000000 0.068803 0.000000 0.000000
# 5 0.000000 0.000000 0.000000 0.000000 -0.431703 0.000000
# 6 0.000000 0.000000 0.000000 0.000000 0.000000 -0.065260
#
#
# Mechanical properties :
#
#
# Convention : Reuss Voigt Hill
#
# Bulk Modulus (GPa) = 62.98829 65.91403 64.45116
# Shear Modulus (GPa) = -13.74672 12.21077 -0.76797
#
# Velocity S-wave (km/s) = -2.89656 2.72995 -0.68463
# Velocity P-wave (km/s) = 5.22083 7.08282 6.22187
#
# Compressibility (1/GPa) = 0.01587597
#
# Stress axis : x y z
#
# Youngs Moduli (GPa) = 73.70572 83.26425 83.80273
#
# Poissons Ratio (x) = 0.13276 0.36482
# Poissons Ratio (y) = 0.11752 0.40807
# Poissons Ratio (z) = 0.32086 0.40544
#
# Static dielectric constant tensor:
#      x y z
#    x 1.556810 0.000000 0.000000 
#    y 0.000000 1.531180 0.000000 
#    z 0.000000 0.000000 1.541930 
# 
# From -- ./inp_files/54743.got.cif
#   From: 2010.05.17/outbox.cif.g08.bks.cpg/sg74_28_cif.got.tgz:54743.got - 2010.06.03 17:57:02.
