data_PCOD9535887
_publ_section_title
;
Structure prediction by ZEFSAII (Michael W. Deem and Ramdas Pophale) SiO2 
 PCOD9535887
Probable space group: I M M A
;
_chemical_formula_sum "Si O2"
_cell_formula_units_Z 96
_cell_length_a 18.966944
_cell_length_b 8.979890
_cell_length_c 32.956960
_cell_angle_alpha 90.000000
_cell_angle_beta 90.000000
_cell_angle_gamma 90.000000
_cell_volume 5613.264716
_symmetry_space_group_name_H-M "I M M A"
_symmetry_group_IT_number 74
_symmetry_cell_setting 'orthorhombic'
loop_
_space_group_symop_operation_xyz
x,y,z
-x,1/2-y,z
x,-y,-z
-x,1/2+y,-z
-x,-y,-z
x,1/2+y,-z
-x,y,z
x,1/2-y,z
1/2+x,1/2+y,1/2+z
1/2-x,-y,1/2+z
1/2+x,1/2-y,1/2-z
1/2-x,y,1/2-z
1/2-x,1/2-y,1/2-z
1/2+x,y,1/2-z
1/2-x,1/2+y,1/2+z
1/2+x,-y,1/2+z
loop_
_atom_site_type_symbol
_atom_site_label
_atom_site_fract_x
_atom_site_fract_y
_atom_site_fract_z
Si Si1 0.417399 0.572572 0.831651
Si Si2 0.287664 0.072761 0.542218
Si Si3 0.208881 0.928205 0.374973
Si Si4 0.840438 0.427461 0.168395
Si Si5 0.416370 0.926683 0.255516
Si Si6 0.580967 0.072255 0.415765
O O1 0.500000 0.543348 0.839884
O O2 0.406825 0.750000 0.830406
O O3 0.365979 0.497842 0.864013
O O4 0.400842 0.502424 0.787650
O O5 0.290919 0.250000 0.538178
O O6 0.235750 0.036136 0.579634
O O7 0.265940 0.000000 0.500000
O O8 0.364145 0.010920 0.555418
O O9 0.207927 0.750000 0.370366
O O10 0.266966 0.998679 0.344858
O O11 0.832248 0.250000 0.173104
O O12 0.871901 0.499515 0.208698
O O13 0.893543 0.454220 0.130508
O O14 0.500000 0.949072 0.263590
O O15 0.403229 0.750000 0.253323
O O16 0.500000 0.026493 0.421180
O O17 0.586184 0.250000 0.422860
#
# Coordination Sequence:
#
# PCOD9535887 Si02
#       6
#    16  16  16  16  16  16
#     4  10  21  37  57  80 104 132 168 209 255 308
#     4  10  21  36  55  78 103 133 168 208 254 305
#     4  10  21  37  56  79 105 133 168 209 257 310
#     4  10  19  32  51  75 105 141 181 221 258 298
#     4  10  20  33  50  74 106 143 180 218 258 299
#     4   9  18  32  50  73 103 140 179 217 256 297
#
# _framework density 17.102347000000002
#
# number of rings (size 3 to 8) (size 9 to 14) (size 15 to 20)
#    0.000    2.167    0.000    3.000    0.000    6.667 
#    0.000    3.333    0.000    0.500    0.000    0.000 
#    0.000    0.000    0.000    0.000    0.000    0.000 
#
# Total GULP energy -268037.051172 kJ/mol
# GULP energy per Si atom -5584.105233 kJ/mol
# Density = 1.706342 g / cm^3
# Si number density = 17.102347 Si / 1000 Ang^3
#
#
#
# Elastic Constant Matrix: (Units=GPa)
#
#
# Indices 1 2 3 4 5 6 
#
# 1 88.1274 63.9338 78.9761 0.0000 0.0000 0.0000
# 2 63.9338 79.6316 65.1008 0.0000 0.0000 0.0000
# 3 78.9761 65.1008 103.1850 0.0000 0.0000 0.0000
# 4 0.0000 0.0000 0.0000 31.6263 0.0000 0.0000
# 5 0.0000 0.0000 0.0000 0.0000 7.9270 0.0000
# 6 0.0000 0.0000 0.0000 0.0000 0.0000 30.5805
#
#
#
# Elastic Compliance Matrix: (Units=1/GPa)
#
#
# Indices 1 2 3 4 5 6 
#
# 1 0.044406 -0.016246 -0.023738 0.000000 0.000000 0.000000
# 2 -0.016246 0.031878 -0.007678 0.000000 0.000000 0.000000
# 3 -0.023738 -0.007678 0.032704 0.000000 0.000000 0.000000
# 4 0.000000 0.000000 0.000000 0.031619 0.000000 0.000000
# 5 0.000000 0.000000 0.000000 0.000000 0.126151 0.000000
# 6 0.000000 0.000000 0.000000 0.000000 0.000000 0.032701
#
#
# Mechanical properties :
#
#
# Convention : Reuss Voigt Hill
#
# Bulk Modulus (GPa) = 73.18152 76.32948 74.75550
# Shear Modulus (GPa) = 12.52075 18.22233 15.37154
#
# Velocity S-wave (km/s) = 2.70868 3.26772 3.00125
# Velocity P-wave (km/s) = 7.25712 7.67888 7.47098
#
# Compressibility (1/GPa) = 0.01366465
#
# Stress axis : x y z
#
# Youngs Moduli (GPa) = 22.51938 31.36951 30.57726
#
# Poissons Ratio (x) = 0.50963 0.72584
# Poissons Ratio (y) = 0.36585 0.23477
# Poissons Ratio (z) = 0.53456 0.24085
#
# Static dielectric constant tensor:
#      x y z
#    x 1.565470 0.000000 0.000000 
#    y 0.000000 1.564230 0.000000 
#    z 0.000000 0.000000 1.557970 
# 
# From -- ./inp_files/68161.got.cif
#   From: 2010.05.17/outbox.cif.g08.bks.cpg/sg74_35_cif.got.tgz:68161.got - 2010.06.03 17:57:02.
