data_PCOD9535225
_publ_section_title
;
Structure prediction by ZEFSAII (Michael W. Deem and Ramdas Pophale) SiO2 
 PCOD9535225
Probable space group: I M M A
;
_chemical_formula_sum "Si O2"
_cell_formula_units_Z 88
_cell_length_a 25.609025
_cell_length_b 9.150504
_cell_length_c 28.512746
_cell_angle_alpha 90.000000
_cell_angle_beta 90.000000
_cell_angle_gamma 90.000000
_cell_volume 6681.548183
_symmetry_space_group_name_H-M "I M M A"
_symmetry_group_IT_number 74
_symmetry_cell_setting 'orthorhombic'
loop_
_space_group_symop_operation_xyz
x,y,z
-x,1/2-y,z
x,-y,-z
-x,1/2+y,-z
-x,-y,-z
x,1/2+y,-z
-x,y,z
x,1/2-y,z
1/2+x,1/2+y,1/2+z
1/2-x,-y,1/2+z
1/2+x,1/2-y,1/2-z
1/2-x,y,1/2-z
1/2-x,1/2-y,1/2-z
1/2+x,y,1/2-z
1/2-x,1/2+y,1/2+z
1/2+x,-y,1/2+z
loop_
_atom_site_type_symbol
_atom_site_label
_atom_site_fract_x
_atom_site_fract_y
_atom_site_fract_z
Si Si1 0.807809 0.582443 0.725991
Si Si2 0.391349 0.425414 0.399423
Si Si3 0.735981 0.416896 0.857909
Si Si4 0.000000 0.924344 0.949704
Si Si5 0.292901 0.926653 0.450205
Si Si6 0.351699 0.082164 0.689137
O O1 0.824787 0.750000 0.725086
O O2 0.750000 0.578872 0.750000
O O3 0.799934 0.517849 0.674182
O O4 0.844487 0.487067 0.759680
O O5 0.383424 0.250000 0.400337
O O6 0.447625 0.460716 0.421137
O O7 0.346574 0.504597 0.430087
O O8 0.385372 0.485924 0.346686
O O9 0.716945 0.250000 0.856412
O O10 0.748418 0.459710 0.911324
O O11 0.793435 0.417439 0.833656
O O12 0.000000 0.750000 0.956832
O O13 0.000000 0.000000 0.000000
O O14 0.297826 0.750000 0.453256
O O15 0.282008 0.000000 0.500000
O O16 0.369368 0.250000 0.690786
#
# Coordination Sequence:
#
# PCOD9535225 Si02
#       6
#    16  16  16   8  16  16
#     4   9  15  22  35  54  72  90 111 135 166 205
#     4  10  19  31  43  55  70  88 115 150 188 227
#     4   8  15  25  35  49  70  92 113 139 171 207
#     4  10  22  34  44  56  70  90 116 152 193 230
#     4  10  19  29  40  54  71  93 120 150 184 217
#     4   9  16  26  39  54  71  90 110 136 174 215
#
# _framework density 13.170601
#
# number of rings (size 3 to 8) (size 9 to 14) (size 15 to 20)
#    0.000    2.727    0.000    3.818    0.000   10.182 
#    0.000    0.000    0.000    0.000    0.000    0.000 
#    0.000    0.000    0.000    0.000    0.000    0.000 
#
# Total GULP energy -245029.393448 kJ/mol
# GULP energy per Si atom -5568.849851 kJ/mol
# Density = 1.314062 g / cm^3
# Si number density = 13.170601 Si / 1000 Ang^3
#
#
#
# Elastic Constant Matrix: (Units=GPa)
#
#
# Indices 1 2 3 4 5 6 
#
# 1 22.6087 23.3963 35.5266 0.0000 0.0000 0.0000
# 2 23.3963 76.5502 61.2955 0.0000 0.0000 0.0000
# 3 35.5266 61.2955 117.8241 0.0000 0.0000 0.0000
# 4 0.0000 0.0000 0.0000 26.7723 0.0000 0.0000
# 5 0.0000 0.0000 0.0000 0.0000 15.8404 0.0000
# 6 0.0000 0.0000 0.0000 0.0000 0.0000 11.6701
#
#
#
# Elastic Compliance Matrix: (Units=1/GPa)
#
#
# Indices 1 2 3 4 5 6 
#
# 1 0.088060 -0.009690 -0.021511 0.000000 0.000000 0.000000
# 2 -0.009690 0.023456 -0.009281 0.000000 0.000000 0.000000
# 3 -0.021511 -0.009281 0.019802 0.000000 0.000000 0.000000
# 4 0.000000 0.000000 0.000000 0.037352 0.000000 0.000000
# 5 0.000000 0.000000 0.000000 0.000000 0.063130 0.000000
# 6 0.000000 0.000000 0.000000 0.000000 0.000000 0.085689
#
#
# Mechanical properties :
#
#
# Convention : Reuss Voigt Hill
#
# Bulk Modulus (GPa) = 19.85936 50.82442 35.34189
# Shear Modulus (GPa) = 12.04132 17.30752 14.67442
#
# Velocity S-wave (km/s) = 3.02695 3.62899 3.34155
# Velocity P-wave (km/s) = 5.22761 7.49883 6.46376
#
# Compressibility (1/GPa) = 0.05035408
#
# Stress axis : x y z
#
# Youngs Moduli (GPa) = 11.35594 42.63250 50.50102
#
# Poissons Ratio (x) = 0.41309 1.08634
# Poissons Ratio (y) = 0.11003 0.46870
# Poissons Ratio (z) = 0.24428 0.39567
#
# Static dielectric constant tensor:
#      x y z
#    x 1.398580 0.000000 0.000000 
#    y 0.000000 1.443140 0.000000 
#    z 0.000000 0.000000 1.442520 
# 
# From -- ./inp_files/57756.got.cif
#   From: 2010.05.17/outbox.cif.g08.bks.cpg/sg74_29_cif.got.tgz:57756.got - 2010.06.03 17:57:02.
