data_PCOD9535025
_publ_section_title
;
Structure prediction by ZEFSAII (Michael W. Deem and Ramdas Pophale) SiO2 
 PCOD9535025
Probable space group: I M M A
;
_chemical_formula_sum "Si O2"
_cell_formula_units_Z 80
_cell_length_a 17.318237
_cell_length_b 14.534249
_cell_length_c 16.654593
_cell_angle_alpha 90.000000
_cell_angle_beta 90.000000
_cell_angle_gamma 90.000000
_cell_volume 4192.087113
_symmetry_space_group_name_H-M "I M M A"
_symmetry_group_IT_number 74
_symmetry_cell_setting 'orthorhombic'
loop_
_space_group_symop_operation_xyz
x,y,z
-x,1/2-y,z
x,-y,-z
-x,1/2+y,-z
-x,-y,-z
x,1/2+y,-z
-x,y,z
x,1/2-y,z
1/2+x,1/2+y,1/2+z
1/2-x,-y,1/2+z
1/2+x,1/2-y,1/2-z
1/2-x,y,1/2-z
1/2-x,1/2-y,1/2-z
1/2+x,y,1/2-z
1/2-x,1/2+y,1/2+z
1/2+x,-y,1/2+z
loop_
_atom_site_type_symbol
_atom_site_label
_atom_site_fract_x
_atom_site_fract_y
_atom_site_fract_z
Si Si1 0.853842 0.643367 0.032965
Si Si2 0.409095 0.250000 0.942153
Si Si3 0.410951 0.541135 0.614251
Si Si4 0.817774 0.415661 0.557933
Si Si5 0.842224 0.750000 0.261615
Si Si6 0.657958 0.451709 0.760717
O O1 0.877535 0.750000 0.043254
O O2 0.860720 0.611690 0.939413
O O3 0.901153 0.560908 0.075106
O O4 0.766216 0.632085 0.065524
O O5 0.500000 0.250000 0.934022
O O6 0.376381 0.157503 0.980184
O O7 0.368081 0.250000 0.854438
O O8 0.500000 0.568834 0.610337
O O9 0.382534 0.526838 0.705406
O O10 0.805292 0.500000 0.500000
O O11 0.851236 0.450202 0.643229
O O12 0.750000 0.750000 0.250000
O O13 0.868730 0.650589 0.231091
O O14 0.750000 0.459162 0.750000
#
# Coordination Sequence:
#
# PCOD9535025 Si02
#       6
#    16   8  16  16   8  16
#     4  11  21  38  64  88 120 164 205 248 305 369
#     4  10  22  36  54  88 121 146 194 253 297 352
#     4  11  24  38  57  93 128 155 204 260 308 366
#     4  11  20  37  66  87 116 161 206 248 303 372
#     4   8  18  30  56  82 112 154 186 236 301 364
#     4  10  18  33  56  83 122 155 197 245 302 369
#
# _framework density 19.083572
#
# number of rings (size 3 to 8) (size 9 to 14) (size 15 to 20)
#    0.000    1.600    5.000    1.200    1.400    5.200 
#    0.000    0.000    2.200    1.800    0.000    0.000 
#    0.000    0.000    0.000    0.000    0.000    0.000 
#
# Total GULP energy -222915.017153 kJ/mol
# GULP energy per Si atom -5572.875429 kJ/mol
# Density = 1.904014 g / cm^3
# Si number density = 19.083572 Si / 1000 Ang^3
#
#
#
# Elastic Constant Matrix: (Units=GPa)
#
#
# Indices 1 2 3 4 5 6 
#
# 1 71.6398 3.8624 2.9781 0.0000 0.0000 0.0000
# 2 3.8624 58.9536 11.3653 0.0000 0.0000 0.0000
# 3 2.9781 11.3653 62.2420 0.0000 0.0000 0.0000
# 4 0.0000 0.0000 0.0000 19.8027 0.0000 0.0000
# 5 0.0000 0.0000 0.0000 0.0000 20.0994 0.0000
# 6 0.0000 0.0000 0.0000 0.0000 0.0000 16.6771
#
#
#
# Elastic Compliance Matrix: (Units=1/GPa)
#
#
# Indices 1 2 3 4 5 6 
#
# 1 0.014025 -0.000818 -0.000522 0.000000 0.000000 0.000000
# 2 -0.000818 0.017629 -0.003180 0.000000 0.000000 0.000000
# 3 -0.000522 -0.003180 0.016672 0.000000 0.000000 0.000000
# 4 0.000000 0.000000 0.000000 0.050498 0.000000 0.000000
# 5 0.000000 0.000000 0.000000 0.000000 0.049753 0.000000
# 6 0.000000 0.000000 0.000000 0.000000 0.000000 0.059962
#
#
# Mechanical properties :
#
#
# Convention : Reuss Voigt Hill
#
# Bulk Modulus (GPa) = 25.45436 25.47189 25.46313
# Shear Modulus (GPa) = 21.67563 22.95782 22.31673
#
# Velocity S-wave (km/s) = 3.37386 3.47221 3.42339
# Velocity P-wave (km/s) = 5.34271 5.42693 5.38498
#
# Compressibility (1/GPa) = 0.03928600
#
# Stress axis : x y z
#
# Youngs Moduli (GPa) = 71.30367 56.72432 59.98104
#
# Poissons Ratio (x) = 0.04642 0.03129
# Poissons Ratio (y) = 0.05834 0.19073
# Poissons Ratio (z) = 0.03719 0.18038
#
# Static dielectric constant tensor:
#      x y z
#    x 1.652360 0.000000 0.000000 
#    y 0.000000 1.698590 0.000000 
#    z 0.000000 0.000000 1.739460 
# 
# From -- ./inp_files/43881.got.cif
#   From: 2010.05.17/outbox.cif.g08.bks.cpg/sg74_22_cif.got.tgz:43881.got - 2010.06.03 17:57:02.
