data_PCOD9535106
_publ_section_title
;
Structure prediction by ZEFSAII (Michael W. Deem and Ramdas Pophale) SiO2 
 PCOD9535106
Probable space group: I M M A
;
_chemical_formula_sum "Si O2"
_cell_formula_units_Z 104
_cell_length_a 22.214389
_cell_length_b 7.746380
_cell_length_c 25.139050
_cell_angle_alpha 90.000000
_cell_angle_beta 90.000000
_cell_angle_gamma 90.000000
_cell_volume 4325.955343
_symmetry_space_group_name_H-M "I M M A"
_symmetry_group_IT_number 74
_symmetry_cell_setting 'orthorhombic'
loop_
_space_group_symop_operation_xyz
x,y,z
-x,1/2-y,z
x,-y,-z
-x,1/2+y,-z
-x,-y,-z
x,1/2+y,-z
-x,y,z
x,1/2-y,z
1/2+x,1/2+y,1/2+z
1/2-x,-y,1/2+z
1/2+x,1/2-y,1/2-z
1/2-x,y,1/2-z
1/2-x,1/2-y,1/2-z
1/2+x,y,1/2-z
1/2-x,1/2+y,1/2+z
1/2+x,-y,1/2+z
loop_
_atom_site_type_symbol
_atom_site_label
_atom_site_fract_x
_atom_site_fract_y
_atom_site_fract_z
Si Si1 0.633613 0.444514 0.590258
Si Si2 0.500000 0.457429 0.562275
Si Si3 0.000000 0.041718 0.758527
Si Si4 0.301572 0.942839 0.205667
Si Si5 0.763124 0.538132 0.410482
Si Si6 0.125019 0.061537 0.201199
Si Si7 0.000000 0.538852 0.364569
Si Si8 0.394167 0.543361 0.058115
O O1 0.629792 0.250000 0.568143
O O2 0.566405 0.521760 0.582206
O O3 0.697218 0.523449 0.570191
O O4 0.644995 0.436456 0.654058
O O5 0.500000 0.250000 0.573312
O O6 0.500000 0.500000 0.500000
O O7 0.000000 0.250000 0.759714
O O8 0.000000 0.986791 0.696897
O O9 0.944145 0.971245 0.790388
O O10 0.325722 0.750000 0.194535
O O11 0.250000 0.930801 0.250000
O O12 0.276119 0.013058 0.150978
O O13 0.350510 0.042681 0.239140
O O14 0.760200 0.750000 0.412115
O O15 0.824972 0.479818 0.438307
O O16 0.140441 0.250000 0.180899
O O17 0.939993 0.481407 0.396250
O O18 0.000000 0.750000 0.365366
O O19 0.391278 0.750000 0.063512
O O20 0.418762 0.500000 0.000000
#
# Coordination Sequence:
#
# PCOD9535106 Si02
#       8
#    16   8   8  16  16  16   8  16
#     4  10  20  39  61  83 109 154 204 240 275 348
#     4  10  23  40  63  85 108 140 187 244 304 355
#     4  11  22  39  62  83 109 154 205 242 275 343
#     4  10  18  34  60  83 108 154 204 235 268 336
#     4   9  18  34  58  84 112 146 198 247 277 322
#     4  12  24  36  54  88 128 156 182 237 303 349
#     4   9  19  37  61  82 106 142 195 244 284 332
#     4  10  20  36  57  83 111 144 184 238 294 345
#
# _framework density 24.040934
#
# number of rings (size 3 to 8) (size 9 to 14) (size 15 to 20)
#    0.000    1.846    1.538    3.231    0.000    4.615 
#    0.000    4.615    0.000    0.000    0.000    0.000 
#    0.000    0.000    0.000    0.000    0.000    0.000 
#
# Total GULP energy -290118.637129 kJ/mol
# GULP energy per Si atom -5579.204560 kJ/mol
# Density = 2.398622 g / cm^3
# Si number density = 24.040934 Si / 1000 Ang^3
#
#
#
# Elastic Constant Matrix: (Units=GPa)
#
#
# Indices 1 2 3 4 5 6 
#
# 1 153.2287 3.4438 7.5079 0.0000 0.0000 0.0000
# 2 3.4438 49.1970 -13.0585 0.0000 0.0000 0.0000
# 3 7.5079 -13.0585 82.6647 0.0000 0.0000 0.0000
# 4 0.0000 0.0000 0.0000 12.2053 0.0000 0.0000
# 5 0.0000 0.0000 0.0000 0.0000 19.8166 0.0000
# 6 0.0000 0.0000 0.0000 0.0000 0.0000 6.8569
#
#
#
# Elastic Compliance Matrix: (Units=1/GPa)
#
#
# Indices 1 2 3 4 5 6 
#
# 1 0.006575 -0.000646 -0.000699 0.000000 0.000000 0.000000
# 2 -0.000646 0.021279 0.003420 0.000000 0.000000 0.000000
# 3 -0.000699 0.003420 0.012701 0.000000 0.000000 0.000000
# 4 0.000000 0.000000 0.000000 0.081932 0.000000 0.000000
# 5 0.000000 0.000000 0.000000 0.000000 0.050463 0.000000
# 6 0.000000 0.000000 0.000000 0.000000 0.000000 0.145838
#
#
# Mechanical properties :
#
#
# Convention : Reuss Voigt Hill
#
# Bulk Modulus (GPa) = 22.36857 31.20853 26.78855
# Shear Modulus (GPa) = 15.17268 26.92224 21.04746
#
# Velocity S-wave (km/s) = 2.51493 3.35005 2.96207
# Velocity P-wave (km/s) = 4.21399 5.28898 4.78179
#
# Compressibility (1/GPa) = 0.04470558
#
# Stress axis : x y z
#
# Youngs Moduli (GPa) = 152.09202 46.99364 78.73493
#
# Poissons Ratio (x) = 0.03035 0.05505
# Poissons Ratio (y) = 0.09823 -0.26929
# Poissons Ratio (z) = 0.10634 -0.16073
#
# Static dielectric constant tensor:
#      x y z
#    x 2.073570 0.000000 0.000000 
#    y 0.000000 1.941360 0.000000 
#    z 0.000000 0.000000 1.922150 
# 
# From -- ./inp_files/68312.got.cif
#   From: 2010.05.17/outbox.cif.g08.bks.cpg/sg74_35_cif.got.tgz:68312.got - 2010.06.03 17:57:02.
