data_PCOD9535408
_publ_section_title
;
Structure prediction by ZEFSAII (Michael W. Deem and Ramdas Pophale) SiO2 
 PCOD9535408
Probable space group: I M M A
;
_chemical_formula_sum "Si O2"
_cell_formula_units_Z 104
_cell_length_a 24.157664
_cell_length_b 8.751535
_cell_length_c 25.094114
_cell_angle_alpha 90.000000
_cell_angle_beta 90.000000
_cell_angle_gamma 90.000000
_cell_volume 5305.313316
_symmetry_space_group_name_H-M "I M M A"
_symmetry_group_IT_number 74
_symmetry_cell_setting 'orthorhombic'
loop_
_space_group_symop_operation_xyz
x,y,z
-x,1/2-y,z
x,-y,-z
-x,1/2+y,-z
-x,-y,-z
x,1/2+y,-z
-x,y,z
x,1/2-y,z
1/2+x,1/2+y,1/2+z
1/2-x,-y,1/2+z
1/2+x,1/2-y,1/2-z
1/2-x,y,1/2-z
1/2-x,1/2-y,1/2-z
1/2+x,y,1/2-z
1/2-x,1/2+y,1/2+z
1/2+x,-y,1/2+z
loop_
_atom_site_type_symbol
_atom_site_label
_atom_site_fract_x
_atom_site_fract_y
_atom_site_fract_z
Si Si1 0.500000 0.065509 0.941044
Si Si2 0.266751 0.921116 0.310569
Si Si3 0.775742 0.572727 0.591699
Si Si4 0.846729 0.432665 0.055661
Si Si5 0.381957 0.432813 0.329650
Si Si6 0.562224 0.433119 0.220504
Si Si7 0.887804 0.432367 0.618410
O O1 0.500000 0.250000 0.942608
O O2 0.444173 0.017013 0.910785
O O3 0.500000 0.000000 0.000000
O O4 0.255849 0.750000 0.332261
O O5 0.250000 0.924466 0.250000
O O6 0.235900 0.046280 0.345711
O O7 0.330490 0.964131 0.313166
O O8 0.781510 0.750000 0.578070
O O9 0.717457 0.514431 0.566437
O O10 0.834341 0.489825 0.585504
O O11 0.843819 0.250000 0.051582
O O12 0.885546 0.466705 0.106962
O O13 0.866151 0.500000 0.000000
O O14 0.369134 0.250000 0.326696
O O15 0.426464 0.461716 0.283371
O O16 0.500000 0.487315 0.207636
O O17 0.564646 0.250000 0.213231
O O18 0.605516 0.506313 0.179088
O O19 0.885615 0.250000 0.620779
#
# Coordination Sequence:
#
# PCOD9535408 Si02
#       7
#     8  16  16  16  16  16  16
#     4  10  24  42  58  76 104 144 187 232 277 320
#     4  10  19  30  46  73 105 137 171 209 260 320
#     4  10  21  35  52  76 104 137 176 218 263 317
#     4   9  19  35  54  76 106 141 178 222 272 325
#     4   9  19  34  51  76 108 140 178 223 271 326
#     4  10  20  35  58  84 109 144 187 228 274 330
#     4  11  22  38  56  80 112 144 180 228 281 323
#
# _framework density 19.602989999999998
#
# number of rings (size 3 to 8) (size 9 to 14) (size 15 to 20)
#    0.000    2.154    0.769    3.231    0.000    9.231 
#    0.000    3.077    0.000    0.462    0.000    0.000 
#    0.000    0.000    0.000    0.000    0.000    0.308 
#
# Total GULP energy -289702.425003 kJ/mol
# GULP energy per Si atom -5571.200481 kJ/mol
# Density = 1.955837 g / cm^3
# Si number density = 19.602990 Si / 1000 Ang^3
#
#
#
# Elastic Constant Matrix: (Units=GPa)
#
#
# Indices 1 2 3 4 5 6 
#
# 1 27.7260 -1.8787 -2.8294 0.0000 0.0000 0.0000
# 2 -1.8787 6.6162 11.7544 0.0000 0.0000 0.0000
# 3 -2.8294 11.7544 97.4248 0.0000 0.0000 0.0000
# 4 0.0000 0.0000 0.0000 28.0721 0.0000 0.0000
# 5 0.0000 0.0000 0.0000 0.0000 18.5491 0.0000
# 6 0.0000 0.0000 0.0000 0.0000 0.0000 14.9036
#
#
#
# Elastic Compliance Matrix: (Units=1/GPa)
#
#
# Indices 1 2 3 4 5 6 
#
# 1 0.036779 0.010878 -0.000244 0.000000 0.000000 0.000000
# 2 0.010878 0.195600 -0.023283 0.000000 0.000000 0.000000
# 3 -0.000244 -0.023283 0.013066 0.000000 0.000000 0.000000
# 4 0.000000 0.000000 0.000000 0.035623 0.000000 0.000000
# 5 0.000000 0.000000 0.000000 0.000000 0.053911 0.000000
# 6 0.000000 0.000000 0.000000 0.000000 0.000000 0.067098
#
#
# Mechanical properties :
#
#
# Convention : Reuss Voigt Hill
#
# Bulk Modulus (GPa) = 4.54246 16.20661 10.37453
# Shear Modulus (GPa) = 9.98485 20.61967 15.30226
#
# Velocity S-wave (km/s) = 2.25933 3.24676 2.79697
# Velocity P-wave (km/s) = 3.02132 4.72659 3.96668
#
# Compressibility (1/GPa) = 0.22014520
#
# Stress axis : x y z
#
# Youngs Moduli (GPa) = 27.18913 5.11248 76.53215
#
# Poissons Ratio (x) = -0.05561 0.01869
# Poissons Ratio (y) = -0.29575 1.78193
# Poissons Ratio (z) = 0.00664 0.11904
#
# Static dielectric constant tensor:
#      x y z
#    x 1.715610 0.000000 0.000000 
#    y 0.000000 1.676940 0.000000 
#    z 0.000000 0.000000 1.731250 
# 
# From -- ./inp_files/62330.got.cif
#   From: 2010.05.17/outbox.cif.g08.bks.cpg/sg74_32_cif.got.tgz:62330.got - 2010.06.03 17:57:02.
