data_PCOD9535497
_publ_section_title
;
Structure prediction by ZEFSAII (Michael W. Deem and Ramdas Pophale) SiO2 
 PCOD9535497
Probable space group: I M M A
;
_chemical_formula_sum "Si O2"
_cell_formula_units_Z 88
_cell_length_a 26.422482
_cell_length_b 15.329170
_cell_length_c 10.309734
_cell_angle_alpha 90.000000
_cell_angle_beta 90.000000
_cell_angle_gamma 90.000000
_cell_volume 4175.800207
_symmetry_space_group_name_H-M "I M M A"
_symmetry_group_IT_number 74
_symmetry_cell_setting 'orthorhombic'
loop_
_space_group_symop_operation_xyz
x,y,z
-x,1/2-y,z
x,-y,-z
-x,1/2+y,-z
-x,-y,-z
x,1/2+y,-z
-x,y,z
x,1/2-y,z
1/2+x,1/2+y,1/2+z
1/2-x,-y,1/2+z
1/2+x,1/2-y,1/2-z
1/2-x,y,1/2-z
1/2-x,1/2-y,1/2-z
1/2+x,y,1/2-z
1/2-x,1/2+y,1/2+z
1/2+x,-y,1/2+z
loop_
_atom_site_type_symbol
_atom_site_label
_atom_site_fract_x
_atom_site_fract_y
_atom_site_fract_z
Si Si1 0.776954 0.853265 0.388746
Si Si2 0.875342 0.091636 0.709229
Si Si3 0.441552 0.250000 0.159759
Si Si4 0.673408 0.102484 0.514750
Si Si5 0.440425 0.750000 0.268189
Si Si6 0.559160 0.556478 0.868263
Si Si7 0.102260 0.250000 0.063028
O O1 0.788034 0.750000 0.391610
O O2 0.750000 0.872825 0.250000
O O3 0.829901 0.904307 0.394582
O O4 0.732960 0.875127 0.491140
O O5 0.847307 0.120574 0.840844
O O6 0.917685 0.165655 0.696977
O O7 0.903417 0.999632 0.721420
O O8 0.500000 0.250000 0.119602
O O9 0.421941 0.155533 0.115183
O O10 0.435225 0.250000 0.315893
O O11 0.638904 0.165674 0.429135
O O12 0.666841 0.000000 0.500000
O O13 0.500000 0.750000 0.259026
O O14 0.425210 0.750000 0.422082
O O15 0.500000 0.558774 0.823442
O O16 0.560006 0.500000 0.000000
#
# Coordination Sequence:
#
# PCOD9535497 Si02
#       7
#    16  16   8  16   8  16   8
#     4   9  16  31  51  74 104 140 179 217 262 312
#     4  10  19  33  54  80 111 144 183 230 275 321
#     4  10  21  39  59  79 112 149 180 224 278 332
#     4  10  19  31  53  82 112 146 182 223 269 327
#     4  10  19  30  51  85 117 146 184 228 269 320
#     4  10  22  39  58  79 104 142 188 230 275 325
#     4  10  19  33  54  82 117 151 181 214 271 340
#
# _framework density 21.073803999999999
#
# number of rings (size 3 to 8) (size 9 to 14) (size 15 to 20)
#    0.000    2.182    1.818    1.909    0.000    1.455 
#    0.000    1.818    0.000    8.727    0.000    6.364 
#    0.000    0.000    0.000    0.000    0.000    0.000 
#
# Total GULP energy -245294.252660 kJ/mol
# GULP energy per Si atom -5574.869379 kJ/mol
# Density = 2.102584 g / cm^3
# Si number density = 21.073804 Si / 1000 Ang^3
#
#
#
# Elastic Constant Matrix: (Units=GPa)
#
#
# Indices 1 2 3 4 5 6 
#
# 1 126.1859 54.8750 1.9560 0.0000 0.0000 0.0000
# 2 54.8750 156.6401 -0.1448 0.0000 0.0000 0.0000
# 3 1.9560 -0.1448 30.5497 0.0000 0.0000 0.0000
# 4 0.0000 0.0000 0.0000 10.8225 0.0000 0.0000
# 5 0.0000 0.0000 0.0000 0.0000 14.2020 0.0000
# 6 0.0000 0.0000 0.0000 0.0000 0.0000 3.4683
#
#
#
# Elastic Compliance Matrix: (Units=1/GPa)
#
#
# Indices 1 2 3 4 5 6 
#
# 1 0.009361 -0.003280 -0.000615 0.000000 0.000000 0.000000
# 2 -0.003280 0.007533 0.000246 0.000000 0.000000 0.000000
# 3 -0.000615 0.000246 0.032774 0.000000 0.000000 0.000000
# 4 0.000000 0.000000 0.000000 0.092400 0.000000 0.000000
# 5 0.000000 0.000000 0.000000 0.000000 0.070413 0.000000
# 6 0.000000 0.000000 0.000000 0.000000 0.000000 0.288325
#
#
# Mechanical properties :
#
#
# Convention : Reuss Voigt Hill
#
# Bulk Modulus (GPa) = 23.60159 47.41646 35.50903
# Shear Modulus (GPa) = 9.57438 22.81119 16.19279
#
# Velocity S-wave (km/s) = 2.13380 3.29362 2.77498
# Velocity P-wave (km/s) = 4.15868 6.08383 5.21093
#
# Compressibility (1/GPa) = 0.04237002
#
# Stress axis : x y z
#
# Youngs Moduli (GPa) = 106.83002 132.74391 30.51190
#
# Poissons Ratio (x) = 0.43538 0.01876
# Poissons Ratio (y) = 0.35039 -0.00750
# Poissons Ratio (z) = 0.06569 -0.03262
#
# Static dielectric constant tensor:
#      x y z
#    x 1.788260 0.000000 0.000000 
#    y 0.000000 1.798020 0.000000 
#    z 0.000000 0.000000 1.820210 
# 
# From -- ./inp_files/26189.got.cif
#   From: 2010.05.17/outbox.cif.g08.bks.cpg/sg74_14_cif.got.tgz:26189.got - 2010.06.03 17:57:02.
