data_PCOD9535564
_publ_section_title
;
Structure prediction by ZEFSAII (Michael W. Deem and Ramdas Pophale) SiO2 
 PCOD9535564
Probable space group: I M M A
;
_chemical_formula_sum "Si O2"
_cell_formula_units_Z 80
_cell_length_a 8.901361
_cell_length_b 18.374710
_cell_length_c 28.308559
_cell_angle_alpha 90.000000
_cell_angle_beta 90.000000
_cell_angle_gamma 90.000000
_cell_volume 4630.145843
_symmetry_space_group_name_H-M "I M M A"
_symmetry_group_IT_number 74
_symmetry_cell_setting 'orthorhombic'
loop_
_space_group_symop_operation_xyz
x,y,z
-x,1/2-y,z
x,-y,-z
-x,1/2+y,-z
-x,-y,-z
x,1/2+y,-z
-x,y,z
x,1/2-y,z
1/2+x,1/2+y,1/2+z
1/2-x,-y,1/2+z
1/2+x,1/2-y,1/2-z
1/2-x,y,1/2-z
1/2-x,1/2-y,1/2-z
1/2+x,y,1/2-z
1/2-x,1/2+y,1/2+z
1/2+x,-y,1/2+z
loop_
_atom_site_type_symbol
_atom_site_label
_atom_site_fract_x
_atom_site_fract_y
_atom_site_fract_z
Si Si1 0.320019 0.489649 0.697919
Si Si2 0.821496 0.549288 0.609215
Si Si3 0.330452 0.560752 0.458653
Si Si4 0.819104 0.827722 0.197558
Si Si5 0.819654 0.834525 0.529599
O O1 0.500000 0.493599 0.701028
O O2 0.250000 0.498828 0.750000
O O3 0.258149 0.546053 0.659707
O O4 0.276763 0.407834 0.679646
O O5 0.770476 0.477312 0.580724
O O6 0.778298 0.617179 0.575530
O O7 0.000000 0.550047 0.615209
O O8 0.338186 0.500000 0.500000
O O9 0.500000 0.574210 0.441161
O O10 0.259935 0.630549 0.484025
O O11 0.774665 0.750000 0.174296
O O12 0.750000 0.825947 0.250000
O O13 0.000000 0.827728 0.200580
O O14 0.782410 0.750000 0.535528
O O15 0.000000 0.841680 0.523866
#
# Coordination Sequence:
#
# PCOD9535564 Si02
#       5
#    16  16  16  16  16
#     4  10  19  31  48  70  97 130 170 213 252 294
#     4  10  19  32  51  73  99 132 167 204 248 297
#     4   9  17  30  49  73  99 126 157 194 238 291
#     4   8  14  25  41  60  82 110 145 186 231 275
#     4   9  18  33  53  76 101 129 162 202 250 303
#
# _framework density 17.278072000000002
#
# number of rings (size 3 to 8) (size 9 to 14) (size 15 to 20)
#    0.000    2.800    0.000    1.800    0.000    4.400 
#    0.000    1.000    0.000    4.200    0.000    0.000 
#    0.000    0.000    0.000    0.000    0.000    0.000 
#
# Total GULP energy -222680.813129 kJ/mol
# GULP energy per Si atom -5567.020328 kJ/mol
# Density = 1.723875 g / cm^3
# Si number density = 17.278072 Si / 1000 Ang^3
#
#
#
# Elastic Constant Matrix: (Units=GPa)
#
#
# Indices 1 2 3 4 5 6 
#
# 1 42.9296 32.1944 26.2664 0.0000 0.0000 0.0000
# 2 32.1944 102.3546 36.9134 0.0000 0.0000 0.0000
# 3 26.2664 36.9134 60.9159 0.0000 0.0000 0.0000
# 4 0.0000 0.0000 0.0000 29.9183 0.0000 0.0000
# 5 0.0000 0.0000 0.0000 0.0000 26.0857 0.0000
# 6 0.0000 0.0000 0.0000 0.0000 0.0000 18.0495
#
#
#
# Elastic Compliance Matrix: (Units=1/GPa)
#
#
# Indices 1 2 3 4 5 6 
#
# 1 0.035347 -0.007193 -0.010882 0.000000 0.000000 0.000000
# 2 -0.007193 0.013966 -0.005361 0.000000 0.000000 0.000000
# 3 -0.010882 -0.005361 0.024357 0.000000 0.000000 0.000000
# 4 0.000000 0.000000 0.000000 0.033424 0.000000 0.000000
# 5 0.000000 0.000000 0.000000 0.000000 0.038335 0.000000
# 6 0.000000 0.000000 0.000000 0.000000 0.000000 0.055403
#
#
# Mechanical properties :
#
#
# Convention : Reuss Voigt Hill
#
# Bulk Modulus (GPa) = 37.31869 44.10538 40.71204
# Shear Modulus (GPa) = 19.48266 22.19910 20.84088
#
# Velocity S-wave (km/s) = 3.36161 3.58832 3.47681
# Velocity P-wave (km/s) = 6.05912 6.53837 6.30330
#
# Compressibility (1/GPa) = 0.02679622
#
# Stress axis : x y z
#
# Youngs Moduli (GPa) = 28.29115 71.60219 41.05559
#
# Poissons Ratio (x) = 0.51506 0.44678
# Poissons Ratio (y) = 0.20351 0.22011
# Poissons Ratio (z) = 0.30787 0.38389
#
# Static dielectric constant tensor:
#      x y z
#    x 1.584750 0.000000 0.000000 
#    y 0.000000 1.615620 0.000000 
#    z 0.000000 0.000000 1.575740 
# 
# From -- ./inp_files/63916.got.cif
#   From: 2010.05.17/outbox.cif.g08.bks.cpg/sg74_32_cif.got.tgz:63916.got - 2010.06.03 17:57:02.
