data_PCOD9535276
_publ_section_title
;
Structure prediction by ZEFSAII (Michael W. Deem and Ramdas Pophale) SiO2 
 PCOD9535276
Probable space group: I M M A
;
_chemical_formula_sum "Si O2"
_cell_formula_units_Z 88
_cell_length_a 13.467021
_cell_length_b 26.734632
_cell_length_c 14.829527
_cell_angle_alpha 90.000000
_cell_angle_beta 90.000000
_cell_angle_gamma 90.000000
_cell_volume 5339.161367
_symmetry_space_group_name_H-M "I M M A"
_symmetry_group_IT_number 74
_symmetry_cell_setting 'orthorhombic'
loop_
_space_group_symop_operation_xyz
x,y,z
-x,1/2-y,z
x,-y,-z
-x,1/2+y,-z
-x,-y,-z
x,1/2+y,-z
-x,y,z
x,1/2-y,z
1/2+x,1/2+y,1/2+z
1/2-x,-y,1/2+z
1/2+x,1/2-y,1/2-z
1/2-x,y,1/2-z
1/2-x,1/2-y,1/2-z
1/2+x,y,1/2-z
1/2-x,1/2+y,1/2+z
1/2+x,-y,1/2+z
loop_
_atom_site_type_symbol
_atom_site_label
_atom_site_fract_x
_atom_site_fract_y
_atom_site_fract_z
Si Si1 0.000000 0.691325 0.117234
Si Si2 0.000000 0.305516 0.604728
Si Si3 0.000000 0.443000 0.971475
Si Si4 0.500000 0.591971 0.268000
Si Si5 0.668441 0.865623 0.488620
Si Si6 0.500000 0.807040 0.888719
Si Si7 0.822246 0.373422 0.668037
Si Si8 0.717256 0.309670 0.146714
O O1 0.000000 0.750000 0.139105
O O2 0.000000 0.650555 0.198085
O O3 0.902422 0.675697 0.059987
O O4 0.000000 0.305419 0.496552
O O5 0.898849 0.331753 0.634467
O O6 0.000000 0.250000 0.640378
O O7 0.000000 0.437418 0.862025
O O8 0.000000 0.500000 0.000000
O O9 0.904470 0.412171 0.006208
O O10 0.600403 0.585810 0.209688
O O11 0.751340 0.883774 0.416822
O O12 0.716921 0.840561 0.576084
O O13 0.500000 0.750000 0.852812
O O14 0.395720 0.829219 0.859189
O O15 0.750000 0.358366 0.750000
O O16 0.718980 0.250000 0.121813
O O17 0.750000 0.313630 0.250000
#
# Coordination Sequence:
#
# PCOD9535276 Si02
#       8
#     8   8   8   8  16   8  16  16
#     4  10  19  29  43  71 109 142 181 217 249 303
#     4  10  21  29  42  73 113 153 189 217 245 298
#     4  10  21  38  60  81 103 132 178 231 282 340
#     4   9  20  33  50  81 106 141 182 211 265 322
#     4  10  20  35  54  76 105 142 178 223 275 323
#     4   9  17  31  47  72 103 142 192 224 257 312
#     4  11  18  33  49  75 109 145 180 214 261 319
#     4  10  20  34  54  79 110 152 193 226 268 323
#
# _framework density 16.481988999999999
#
# number of rings (size 3 to 8) (size 9 to 14) (size 15 to 20)
#    0.000    2.182    5.455    0.545    0.000    4.000 
#    0.000    2.727    4.000    0.000    0.000    3.182 
#    0.000    0.000    0.000    0.000    0.000    0.000 
#
# Total GULP energy -244958.298540 kJ/mol
# GULP energy per Si atom -5567.234058 kJ/mol
# Density = 1.644448 g / cm^3
# Si number density = 16.481989 Si / 1000 Ang^3
#
#
#
# Elastic Constant Matrix: (Units=GPa)
#
#
# Indices 1 2 3 4 5 6 
#
# 1 146.4164 38.6366 55.8365 0.0000 0.0000 0.0000
# 2 38.6366 79.8037 32.6115 0.0000 0.0000 0.0000
# 3 55.8365 32.6115 89.6251 0.0000 0.0000 0.0000
# 4 0.0000 0.0000 0.0000 12.7664 0.0000 0.0000
# 5 0.0000 0.0000 0.0000 0.0000 7.1318 0.0000
# 6 0.0000 0.0000 0.0000 0.0000 0.0000 10.7538
#
#
#
# Elastic Compliance Matrix: (Units=1/GPa)
#
#
# Indices 1 2 3 4 5 6 
#
# 1 0.009373 -0.002527 -0.004920 0.000000 0.000000 0.000000
# 2 -0.002527 0.015401 -0.004029 0.000000 0.000000 0.000000
# 3 -0.004920 -0.004029 0.015689 0.000000 0.000000 0.000000
# 4 0.000000 0.000000 0.000000 0.078330 0.000000 0.000000
# 5 0.000000 0.000000 0.000000 0.000000 0.140217 0.000000
# 6 0.000000 0.000000 0.000000 0.000000 0.000000 0.092990
#
#
# Mechanical properties :
#
#
# Convention : Reuss Voigt Hill
#
# Bulk Modulus (GPa) = 57.11112 63.33493 60.22303
# Shear Modulus (GPa) = 13.13061 18.71446 15.92253
#
# Velocity S-wave (km/s) = 2.82559 3.37330 3.11152
# Velocity P-wave (km/s) = 6.73581 7.32682 7.03752
#
# Compressibility (1/GPa) = 0.01750972
#
# Stress axis : x y z
#
# Youngs Moduli (GPa) = 106.69031 64.93110 63.74031
#
# Poissons Ratio (x) = 0.16411 0.31358
# Poissons Ratio (y) = 0.26965 0.25683
# Poissons Ratio (z) = 0.52488 0.26162
#
# Static dielectric constant tensor:
#      x y z
#    x 1.579970 0.000000 0.000000 
#    y 0.000000 1.531380 0.000000 
#    z 0.000000 0.000000 1.577880 
# 
# From -- ./inp_files/31018.got.cif
#   From: 2010.05.17/outbox.cif.g08.bks.cpg/sg74_16_cif.got.tgz:31018.got - 2010.06.03 17:57:02.
