data_PCOD9535194
_publ_section_title
;
Structure prediction by ZEFSAII (Michael W. Deem and Ramdas Pophale) SiO2 
 PCOD9535194
Probable space group: I M M A
;
_chemical_formula_sum "Si O2"
_cell_formula_units_Z 128
_cell_length_a 17.718069
_cell_length_b 19.642603
_cell_length_c 18.059487
_cell_angle_alpha 90.000000
_cell_angle_beta 90.000000
_cell_angle_gamma 90.000000
_cell_volume 6285.225116
_symmetry_space_group_name_H-M "I M M A"
_symmetry_group_IT_number 74
_symmetry_cell_setting 'orthorhombic'
loop_
_space_group_symop_operation_xyz
x,y,z
-x,1/2-y,z
x,-y,-z
-x,1/2+y,-z
-x,-y,-z
x,1/2+y,-z
-x,y,z
x,1/2-y,z
1/2+x,1/2+y,1/2+z
1/2-x,-y,1/2+z
1/2+x,1/2-y,1/2-z
1/2-x,y,1/2-z
1/2-x,1/2-y,1/2-z
1/2+x,y,1/2-z
1/2-x,1/2+y,1/2+z
1/2+x,-y,1/2+z
loop_
_atom_site_type_symbol
_atom_site_label
_atom_site_fract_x
_atom_site_fract_y
_atom_site_fract_z
Si Si1 0.913969 0.965611 0.658579
Si Si2 0.413304 0.037172 0.336927
Si Si3 0.586167 0.673255 0.266172
Si Si4 0.303150 0.078184 0.821403
Si Si5 0.330911 0.174520 0.343179
Si Si6 0.654752 0.175489 0.163186
Si Si7 0.190999 0.327200 0.910422
Si Si8 0.087679 0.432439 0.950851
O O1 0.911294 0.966848 0.748554
O O2 0.893899 0.888300 0.637179
O O3 0.000000 0.984008 0.636370
O O4 0.844359 0.015077 0.638799
O O5 0.500000 0.044817 0.360292
O O6 0.371004 0.104356 0.364313
O O7 0.388020 0.965782 0.371814
O O8 0.500000 0.652113 0.278148
O O9 0.587109 0.750000 0.234757
O O10 0.629666 0.622719 0.213178
O O11 0.630908 0.677845 0.343033
O O12 0.250000 0.058579 0.750000
O O13 0.258196 0.127491 0.877029
O O14 0.357647 0.250000 0.368868
O O15 0.341443 0.175174 0.253263
O O16 0.242120 0.169163 0.360180
O O17 0.626076 0.250000 0.140517
O O18 0.211771 0.250000 0.931926
O O19 0.144455 0.371738 0.969313
O O20 0.000000 0.410489 0.950201
O O21 0.093749 0.500000 0.000000
#
# Coordination Sequence:
#
# PCOD9535194 Si02
#       8
#    16  16  16  16  16  16  16  16
#     4  10  19  27  41  66  95 129 163 192 229 279
#     4   9  17  28  43  63  91 126 165 200 234 280
#     4   9  16  27  44  67 100 136 163 190 227 276
#     4  10  19  27  42  66  96 129 161 197 229 278
#     4   8  14  24  39  58  83 116 155 192 230 274
#     4   8  15  25  38  56  83 120 157 190 223 265
#     4  10  20  33  50  71  93 126 167 200 235 286
#     4  10  21  36  51  68  90 119 157 204 248 279
#
# _framework density 20.365220000000001
#
# number of rings (size 3 to 8) (size 9 to 14) (size 15 to 20)
#    0.000    2.750    0.000    3.375    5.250    3.750 
#    0.000    3.125    0.000    2.250    0.000    0.000 
#    0.000    2.000    0.000    0.000    0.500    0.000 
#
# Total GULP energy -356829.569984 kJ/mol
# GULP energy per Si atom -5575.462031 kJ/mol
# Density = 2.031887 g / cm^3
# Si number density = 20.365220 Si / 1000 Ang^3
#
#
#
# Elastic Constant Matrix: (Units=GPa)
#
#
# Indices 1 2 3 4 5 6 
#
# 1 87.4927 68.3254 2.2767 0.0000 0.0000 0.0000
# 2 68.3254 149.8708 9.3602 0.0000 0.0000 0.0000
# 3 2.2767 9.3602 10.3175 0.0000 0.0000 0.0000
# 4 0.0000 0.0000 0.0000 11.2216 0.0000 0.0000
# 5 0.0000 0.0000 0.0000 0.0000 8.5918 0.0000
# 6 0.0000 0.0000 0.0000 0.0000 0.0000 35.9782
#
#
#
# Elastic Compliance Matrix: (Units=1/GPa)
#
#
# Indices 1 2 3 4 5 6 
#
# 1 0.017877 -0.008379 0.003656 0.000000 0.000000 0.000000
# 2 -0.008379 0.011000 -0.008131 0.000000 0.000000 0.000000
# 3 0.003656 -0.008131 0.103492 0.000000 0.000000 0.000000
# 4 0.000000 0.000000 0.000000 0.089113 0.000000 0.000000
# 5 0.000000 0.000000 0.000000 0.000000 0.116390 0.000000
# 6 0.000000 0.000000 0.000000 0.000000 0.000000 0.027795
#
#
# Mechanical properties :
#
#
# Convention : Reuss Voigt Hill
#
# Bulk Modulus (GPa) = 9.37525 45.28952 27.33239
# Shear Modulus (GPa) = 11.71158 22.33958 17.02558
#
# Velocity S-wave (km/s) = 2.40068 3.31561 2.89453
# Velocity P-wave (km/s) = 3.50684 6.07821 4.96198
#
# Compressibility (1/GPa) = 0.10666385
#
# Stress axis : x y z
#
# Youngs Moduli (GPa) = 55.93640 90.90931 9.66257
#
# Poissons Ratio (x) = 0.76169 -0.03533
# Poissons Ratio (y) = 0.46867 0.07856
# Poissons Ratio (z) = -0.20452 0.73914
#
# Static dielectric constant tensor:
#      x y z
#    x 1.721650 0.000000 0.000000 
#    y 0.000000 1.784700 0.000000 
#    z 0.000000 0.000000 1.777130 
# 
# From -- ./inp_files/61133.got.cif
#   From: 2010.05.17/outbox.cif.g08.bks.cpg/sg74_31_cif.got.tgz:61133.got - 2010.06.03 17:57:02.
