data_PCOD9535560
_publ_section_title
;
Structure prediction by ZEFSAII (Michael W. Deem and Ramdas Pophale) SiO2 
 PCOD9535560
Probable space group: I M M A
;
_chemical_formula_sum "Si O2"
_cell_formula_units_Z 104
_cell_length_a 26.996346
_cell_length_b 7.505058
_cell_length_c 22.275928
_cell_angle_alpha 90.000000
_cell_angle_beta 90.000000
_cell_angle_gamma 90.000000
_cell_volume 4513.306671
_symmetry_space_group_name_H-M "I M M A"
_symmetry_group_IT_number 74
_symmetry_cell_setting 'orthorhombic'
loop_
_space_group_symop_operation_xyz
x,y,z
-x,1/2-y,z
x,-y,-z
-x,1/2+y,-z
-x,-y,-z
x,1/2+y,-z
-x,y,z
x,1/2-y,z
1/2+x,1/2+y,1/2+z
1/2-x,-y,1/2+z
1/2+x,1/2-y,1/2-z
1/2-x,y,1/2-z
1/2-x,1/2-y,1/2-z
1/2+x,y,1/2-z
1/2-x,1/2+y,1/2+z
1/2+x,-y,1/2+z
loop_
_atom_site_type_symbol
_atom_site_label
_atom_site_fract_x
_atom_site_fract_y
_atom_site_fract_z
Si Si1 0.205926 0.036776 0.566177
Si Si2 0.894136 0.531737 0.383412
Si Si3 0.055534 0.035274 0.160534
Si Si4 0.642052 0.540021 0.245747
Si Si5 0.865877 0.461272 0.069673
Si Si6 0.000000 0.463381 0.570764
Si Si7 0.781404 0.453028 0.838795
O O1 0.206997 0.250000 0.572525
O O2 0.148990 0.977287 0.570582
O O3 0.236233 0.964556 0.623610
O O4 0.226995 0.000000 0.500000
O O5 0.895969 0.750000 0.382681
O O6 0.874511 0.470359 0.318608
O O7 0.948898 0.468755 0.400269
O O8 0.053405 0.250000 0.162836
O O9 0.081102 0.985546 0.097467
O O10 0.000000 0.966626 0.168430
O O11 0.094626 0.978395 0.210924
O O12 0.651917 0.750000 0.238080
O O13 0.690382 0.466509 0.280948
O O14 0.859597 0.250000 0.079116
O O15 0.824194 0.551824 0.110268
O O16 0.861545 0.500000 0.000000
O O17 0.000000 0.500000 0.500000
O O18 0.000000 0.250000 0.578913
O O19 0.767357 0.250000 0.822863
#
# Coordination Sequence:
#
# PCOD9535560 Si02
#       7
#    16  16  16  16  16   8  16
#     4  10  20  34  52  76 105 137 172 212 256 305
#     4   9  19  34  54  79 105 134 170 214 261 306
#     4   9  19  34  49  68  98 133 166 209 260 307
#     4   9  18  33  53  77 101 130 170 211 255 308
#     4  10  19  31  48  69  97 132 170 211 257 305
#     4  10  20  36  56  78 106 138 173 214 259 308
#     4   9  18  32  51  75 102 132 169 210 253 304
#
# _framework density 23.042971999999999
#
# number of rings (size 3 to 8) (size 9 to 14) (size 15 to 20)
#    0.000    2.615    0.000    1.385    1.077    3.692 
#    0.000    4.615    0.000    0.000    0.000    5.385 
#    0.000    0.000    0.000    0.000    0.000    0.000 
#
# Total GULP energy -290309.978112 kJ/mol
# GULP energy per Si atom -5582.884194 kJ/mol
# Density = 2.299053 g / cm^3
# Si number density = 23.042972 Si / 1000 Ang^3
#
#
#
# Elastic Constant Matrix: (Units=GPa)
#
#
# Indices 1 2 3 4 5 6 
#
# 1 169.6939 7.7911 61.6751 0.0000 0.0000 0.0000
# 2 7.7911 68.1353 -3.4644 0.0000 0.0000 0.0000
# 3 61.6751 -3.4644 141.0166 0.0000 0.0000 0.0000
# 4 0.0000 0.0000 0.0000 12.0932 0.0000 0.0000
# 5 0.0000 0.0000 0.0000 0.0000 28.2135 0.0000
# 6 0.0000 0.0000 0.0000 0.0000 0.0000 3.9847
#
#
#
# Elastic Compliance Matrix: (Units=1/GPa)
#
#
# Indices 1 2 3 4 5 6 
#
# 1 0.007070 -0.000967 -0.003116 0.000000 0.000000 0.000000
# 2 -0.000967 0.014827 0.000787 0.000000 0.000000 0.000000
# 3 -0.003116 0.000787 0.008473 0.000000 0.000000 0.000000
# 4 0.000000 0.000000 0.000000 0.082691 0.000000 0.000000
# 5 0.000000 0.000000 0.000000 0.000000 0.035444 0.000000
# 6 0.000000 0.000000 0.000000 0.000000 0.000000 0.250957
#
#
# Mechanical properties :
#
#
# Convention : Reuss Voigt Hill
#
# Bulk Modulus (GPa) = 42.05315 56.76106 49.40711
# Shear Modulus (GPa) = 12.07786 29.71454 20.89620
#
# Velocity S-wave (km/s) = 2.29190 3.59489 3.01464
# Velocity P-wave (km/s) = 5.02924 6.47435 5.79700
#
# Compressibility (1/GPa) = 0.02377943
#
# Stress axis : x y z
#
# Youngs Moduli (GPa) = 141.44693 67.44339 118.01594
#
# Poissons Ratio (x) = 0.06521 0.36771
# Poissons Ratio (y) = 0.13676 -0.09289
# Poissons Ratio (z) = 0.44072 -0.05309
#
# Static dielectric constant tensor:
#      x y z
#    x 1.877940 0.000000 0.000000 
#    y 0.000000 1.843540 0.000000 
#    z 0.000000 0.000000 1.841620 
# 
# From -- ./inp_files/55187.got.cif
#   From: 2010.05.17/outbox.cif.g08.bks.cpg/sg74_28_cif.got.tgz:55187.got - 2010.06.03 17:57:02.
