data_PCOD9535934
_publ_section_title
;
Structure prediction by ZEFSAII (Michael W. Deem and Ramdas Pophale) SiO2 
 PCOD9535934
Probable space group: I M M A
;
_chemical_formula_sum "Si O2"
_cell_formula_units_Z 96
_cell_length_a 9.393051
_cell_length_b 29.712900
_cell_length_c 19.690824
_cell_angle_alpha 90.000000
_cell_angle_beta 90.000000
_cell_angle_gamma 90.000000
_cell_volume 5495.606292
_symmetry_space_group_name_H-M "I M M A"
_symmetry_group_IT_number 74
_symmetry_cell_setting 'orthorhombic'
loop_
_space_group_symop_operation_xyz
x,y,z
-x,1/2-y,z
x,-y,-z
-x,1/2+y,-z
-x,-y,-z
x,1/2+y,-z
-x,y,z
x,1/2-y,z
1/2+x,1/2+y,1/2+z
1/2-x,-y,1/2+z
1/2+x,1/2-y,1/2-z
1/2-x,y,1/2-z
1/2-x,1/2-y,1/2-z
1/2+x,y,1/2-z
1/2-x,1/2+y,1/2+z
1/2+x,-y,1/2+z
loop_
_atom_site_type_symbol
_atom_site_label
_atom_site_fract_x
_atom_site_fract_y
_atom_site_fract_z
Si Si1 0.331246 0.643155 0.083333
Si Si2 0.328784 0.301673 0.178411
Si Si3 0.830320 0.943666 0.321092
Si Si4 0.327125 0.622350 0.928824
Si Si5 0.673592 0.980251 0.926396
Si Si6 0.660269 0.303867 0.685592
O O1 0.500000 0.653366 0.085173
O O2 0.307815 0.599004 0.129517
O O3 0.240869 0.681963 0.118057
O O4 0.288576 0.634534 0.005958
O O5 0.500000 0.305507 0.187561
O O6 0.300621 0.250000 0.155454
O O7 0.250000 0.308100 0.250000
O O8 0.282006 0.339519 0.124505
O O9 0.750000 0.939790 0.250000
O O10 0.000000 0.946785 0.308735
O O11 0.783947 0.987023 0.365176
O O12 0.500000 0.621667 0.926774
O O13 0.279165 0.571160 0.915545
O O14 0.500000 0.980386 0.927949
O O15 0.718356 0.000000 0.000000
O O16 0.500000 0.321856 0.687981
O O17 0.654085 0.250000 0.690118
O O18 0.750000 0.320707 0.750000
#
# Coordination Sequence:
#
# PCOD9535934 Si02
#       6
#    16  16  16  16  16  16
#     4  10  19  32  52  77 102 131 167 209 257 307
#     4   9  18  33  52  75 104 135 169 214 264 312
#     4  10  20  32  50  76 103 133 169 209 254 304
#     4   9  17  30  52  78 101 132 175 214 253 305
#     4   9  15  29  51  73  99 132 171 213 252 297
#     4  10  21  36  52  71  98 133 171 210 252 298
#
# _framework density 17.468499999999999
#
# number of rings (size 3 to 8) (size 9 to 14) (size 15 to 20)
#    0.000    2.500    1.667    1.000    0.000    4.333 
#    0.000    2.500    0.000    3.500    0.000    0.000 
#    0.000    0.000    0.000    0.000    0.000    0.000 
#
# Total GULP energy -267598.233010 kJ/mol
# GULP energy per Si atom -5574.963188 kJ/mol
# Density = 1.742874 g / cm^3
# Si number density = 17.468500 Si / 1000 Ang^3
#
#
#
# Elastic Constant Matrix: (Units=GPa)
#
#
# Indices 1 2 3 4 5 6 
#
# 1 30.9333 30.7223 37.9765 0.0000 0.0000 0.0000
# 2 30.7223 88.0370 63.5847 0.0000 0.0000 0.0000
# 3 37.9765 63.5847 124.6760 0.0000 0.0000 0.0000
# 4 0.0000 0.0000 0.0000 32.3391 0.0000 0.0000
# 5 0.0000 0.0000 0.0000 0.0000 23.2313 0.0000
# 6 0.0000 0.0000 0.0000 0.0000 0.0000 13.5771
#
#
#
# Elastic Compliance Matrix: (Units=1/GPa)
#
#
# Indices 1 2 3 4 5 6 
#
# 1 0.058660 -0.011977 -0.011760 0.000000 0.000000 0.000000
# 2 -0.011977 0.020428 -0.006770 0.000000 0.000000 0.000000
# 3 -0.011760 -0.006770 0.015056 0.000000 0.000000 0.000000
# 4 0.000000 0.000000 0.000000 0.030922 0.000000 0.000000
# 5 0.000000 0.000000 0.000000 0.000000 0.043045 0.000000
# 6 0.000000 0.000000 0.000000 0.000000 0.000000 0.073653
#
#
# Mechanical properties :
#
#
# Convention : Reuss Voigt Hill
#
# Bulk Modulus (GPa) = 30.18403 56.46814 43.32609
# Shear Modulus (GPa) = 15.93254 21.25369 18.59312
#
# Velocity S-wave (km/s) = 3.02333 3.49189 3.26602
# Velocity P-wave (km/s) = 5.43176 6.97521 6.25130
#
# Compressibility (1/GPa) = 0.03313010
#
# Stress axis : x y z
#
# Youngs Moduli (GPa) = 17.04725 48.95161 66.42081
#
# Poissons Ratio (x) = 0.58631 0.78108
# Poissons Ratio (y) = 0.20418 0.44968
# Poissons Ratio (z) = 0.20047 0.33141
#
# Static dielectric constant tensor:
#      x y z
#    x 1.581390 0.000000 0.000000 
#    y 0.000000 1.621830 0.000000 
#    z 0.000000 0.000000 1.569950 
# 
# From -- ./inp_files/49097.got.cif
#   From: 2010.05.17/outbox.cif.g08.bks.cpg/sg74_25_cif.got.tgz:49097.got - 2010.06.03 17:57:02.
