data_PCOD9535730
_publ_section_title
;
Structure prediction by ZEFSAII (Michael W. Deem and Ramdas Pophale) SiO2 
 PCOD9535730
Probable space group: I M M A
;
_chemical_formula_sum "Si O2"
_cell_formula_units_Z 128
_cell_length_a 28.881269
_cell_length_b 22.089019
_cell_length_c 11.887495
_cell_angle_alpha 90.000000
_cell_angle_beta 90.000000
_cell_angle_gamma 90.000000
_cell_volume 7583.733230
_symmetry_space_group_name_H-M "I M M A"
_symmetry_group_IT_number 74
_symmetry_cell_setting 'orthorhombic'
loop_
_space_group_symop_operation_xyz
x,y,z
-x,1/2-y,z
x,-y,-z
-x,1/2+y,-z
-x,-y,-z
x,1/2+y,-z
-x,y,z
x,1/2-y,z
1/2+x,1/2+y,1/2+z
1/2-x,-y,1/2+z
1/2+x,1/2-y,1/2-z
1/2-x,y,1/2-z
1/2-x,1/2-y,1/2-z
1/2+x,y,1/2-z
1/2-x,1/2+y,1/2+z
1/2+x,-y,1/2+z
loop_
_atom_site_type_symbol
_atom_site_label
_atom_site_fract_x
_atom_site_fract_y
_atom_site_fract_z
Si Si1 0.117817 0.970119 0.679463
Si Si2 0.800899 0.320867 0.602742
Si Si3 0.053298 0.989615 0.125793
Si Si4 0.147107 0.314991 0.839100
Si Si5 0.553009 0.861377 0.248612
Si Si6 0.710845 0.594557 0.433470
Si Si7 0.207113 0.534690 0.823594
Si Si8 0.886090 0.595640 0.449552
O O1 0.162547 0.951224 0.749264
O O2 0.104311 0.927873 0.574868
O O3 0.078884 0.975835 0.774246
O O4 0.128247 0.036242 0.623801
O O5 0.795235 0.250000 0.568650
O O6 0.818097 0.319295 0.732391
O O7 0.754639 0.360799 0.586197
O O8 0.844097 0.356370 0.546133
O O9 0.054166 0.920365 0.169923
O O10 0.000000 0.009372 0.120637
O O11 0.073336 0.000000 0.000000
O O12 0.153973 0.250000 0.894071
O O13 0.094795 0.320584 0.795030
O O14 0.163285 0.369293 0.916060
O O15 0.500000 0.838867 0.247334
O O16 0.570594 0.879140 0.122809
O O17 0.710418 0.567764 0.557848
O O18 0.710385 0.537243 0.349841
O O19 0.250000 0.553621 0.750000
#
# Coordination Sequence:
#
# PCOD9535730 Si02
#       8
#    16  16  16  16  16  16  16  16
#     4  10  19  31  52  72 106 139 166 208 256 302
#     4  10  19  33  53  72  98 133 170 214 258 300
#     4   9  18  30  48  75 104 134 167 201 249 308
#     4  10  20  33  51  76 102 132 172 208 255 309
#     4   9  18  32  51  76 106 131 160 209 257 299
#     4  11  21  32  51  73 102 133 169 214 258 307
#     4  11  22  32  48  76 102 134 171 209 257 316
#     4   9  18  33  51  76 101 134 171 209 251 309
#
# _framework density 16.878229999999999
#
# number of rings (size 3 to 8) (size 9 to 14) (size 15 to 20)
#    0.000    2.125    0.000    5.250    3.500    3.750 
#    0.000    2.500    0.000    6.750    0.000    0.000 
#    0.000    0.000    0.000    0.000    0.000    0.000 
#
# Total GULP energy -356608.953700 kJ/mol
# GULP energy per Si atom -5572.014902 kJ/mol
# Density = 1.683981 g / cm^3
# Si number density = 16.878230 Si / 1000 Ang^3
#
#
#
# Elastic Constant Matrix: (Units=GPa)
#
#
# Indices 1 2 3 4 5 6 
#
# 1 94.4266 30.9569 34.1803 0.0000 0.0000 0.0000
# 2 30.9569 72.6791 27.9257 0.0000 0.0000 0.0000
# 3 34.1803 27.9257 99.4514 0.0000 0.0000 0.0000
# 4 0.0000 0.0000 0.0000 10.0787 0.0000 0.0000
# 5 0.0000 0.0000 0.0000 0.0000 17.3753 0.0000
# 6 0.0000 0.0000 0.0000 0.0000 0.0000 -2.5519
#
#
#
# Elastic Compliance Matrix: (Units=1/GPa)
#
#
# Indices 1 2 3 4 5 6 
#
# 1 0.013220 -0.004355 -0.003321 0.000000 0.000000 0.000000
# 2 -0.004355 0.016858 -0.003237 0.000000 0.000000 0.000000
# 3 -0.003321 -0.003237 0.012105 0.000000 0.000000 0.000000
# 4 0.000000 0.000000 0.000000 0.099219 0.000000 0.000000
# 5 0.000000 0.000000 0.000000 0.000000 0.057553 0.000000
# 6 0.000000 0.000000 0.000000 0.000000 0.000000 -0.391870
#
#
# Mechanical properties :
#
#
# Convention : Reuss Voigt Hill
#
# Bulk Modulus (GPa) = 49.12065 50.29809 49.70937
# Shear Modulus (GPa) = -30.43145 16.54670 -6.94238
#
# Velocity S-wave (km/s) = -4.25078 3.13446 -2.03031
# Velocity P-wave (km/s) = 2.25254 6.55478 4.90097
#
# Compressibility (1/GPa) = 0.02035804
#
# Stress axis : x y z
#
# Youngs Moduli (GPa) = 75.64295 59.31976 82.60806
#
# Poissons Ratio (x) = 0.25834 0.27432
# Poissons Ratio (y) = 0.32942 0.26739
# Poissons Ratio (z) = 0.25119 0.19201
#
# Static dielectric constant tensor:
#      x y z
#    x 1.113820 0.000000 0.000000 
#    y 0.000000 1.582130 0.000000 
#    z 0.000000 0.000000 1.559810 
# 
# From -- ./inp_files/26590.got.cif
#   From: 2010.05.17/outbox.cif.g08.bks.cpg/sg74_14_cif.got.tgz:26590.got - 2010.06.03 17:57:02.
