data_PCOD9535890
_publ_section_title
;
Structure prediction by ZEFSAII (Michael W. Deem and Ramdas Pophale) SiO2 
 PCOD9535890
Probable space group: I M M A
;
_chemical_formula_sum "Si O2"
_cell_formula_units_Z 96
_cell_length_a 32.977405
_cell_length_b 8.437159
_cell_length_c 19.369142
_cell_angle_alpha 90.000000
_cell_angle_beta 90.000000
_cell_angle_gamma 90.000000
_cell_volume 5389.185028
_symmetry_space_group_name_H-M "I M M A"
_symmetry_group_IT_number 74
_symmetry_cell_setting 'orthorhombic'
loop_
_space_group_symop_operation_xyz
x,y,z
-x,1/2-y,z
x,-y,-z
-x,1/2+y,-z
-x,-y,-z
x,1/2+y,-z
-x,y,z
x,1/2-y,z
1/2+x,1/2+y,1/2+z
1/2-x,-y,1/2+z
1/2+x,1/2-y,1/2-z
1/2-x,y,1/2-z
1/2-x,1/2-y,1/2-z
1/2+x,y,1/2-z
1/2-x,1/2+y,1/2+z
1/2+x,-y,1/2+z
loop_
_atom_site_type_symbol
_atom_site_label
_atom_site_fract_x
_atom_site_fract_y
_atom_site_fract_z
Si Si1 0.293809 0.940203 0.672802
Si Si2 0.368076 0.441829 0.421378
Si Si3 0.043492 0.558456 0.920719
Si Si4 0.043620 0.941456 0.579224
Si Si5 0.867486 0.559450 0.578870
Si Si6 0.793784 0.938263 0.329024
O O1 0.294164 0.750000 0.675046
O O2 0.330587 0.996631 0.624788
O O3 0.249758 0.995149 0.646854
O O4 0.299085 0.002595 0.750519
O O5 0.364297 0.500000 0.500000
O O6 0.367464 0.250000 0.422141
O O7 0.412531 0.492624 0.392923
O O8 0.043377 0.750000 0.920213
O O9 0.000000 0.505692 0.889908
O O10 0.043414 0.500000 0.000000
O O11 0.043568 0.750000 0.579641
O O12 0.087761 0.991499 0.606836
O O13 0.000000 0.993841 0.610004
O O14 0.043443 0.000000 0.500000
O O15 0.864019 0.500000 0.500000
O O16 0.866076 0.750000 0.578767
O O17 0.830829 0.495431 0.624298
O O18 0.791728 0.750000 0.329291
#
# Coordination Sequence:
#
# PCOD9535890 Si02
#       6
#    16  16  16  16  16  16
#     4  10  20  36  54  71  94 126 164 203 246 294
#     4   9  18  30  48  74 100 126 156 193 236 279
#     4   8  13  23  40  64  94 124 153 185 223 270
#     4   8  14  25  43  68  97 127 158 192 232 280
#     4  10  19  32  51  76 104 131 161 200 244 287
#     4  11  22  36  53  72  94 125 165 203 245 296
#
# _framework density 17.813454
#
# number of rings (size 3 to 8) (size 9 to 14) (size 15 to 20)
#    0.000    2.667    0.000    3.500    0.000    2.667 
#    0.000    1.667    0.000    1.000    0.000    4.667 
#    0.000    0.000    0.000    0.000    0.000    0.000 
#
# Total GULP energy -267220.712389 kJ/mol
# GULP energy per Si atom -5567.098175 kJ/mol
# Density = 1.777291 g / cm^3
# Si number density = 17.813454 Si / 1000 Ang^3
#
#
#
# Elastic Constant Matrix: (Units=GPa)
#
#
# Indices 1 2 3 4 5 6 
#
# 1 254.1027 41.4399 73.3579 0.0000 0.0000 0.0000
# 2 41.4399 48.6662 13.5232 0.0000 0.0000 0.0000
# 3 73.3579 13.5232 35.1968 0.0000 0.0000 0.0000
# 4 0.0000 0.0000 0.0000 19.9851 0.0000 0.0000
# 5 0.0000 0.0000 0.0000 0.0000 -3.6000 0.0000
# 6 0.0000 0.0000 0.0000 0.0000 0.0000 18.4079
#
#
#
# Elastic Compliance Matrix: (Units=1/GPa)
#
#
# Indices 1 2 3 4 5 6 
#
# 1 0.010292 -0.003138 -0.020244 0.000000 0.000000 0.000000
# 2 -0.003138 0.023961 -0.002666 0.000000 0.000000 0.000000
# 3 -0.020244 -0.002666 0.071629 0.000000 0.000000 0.000000
# 4 0.000000 0.000000 0.000000 0.050037 0.000000 0.000000
# 5 0.000000 0.000000 0.000000 0.000000 -0.277776 0.000000
# 6 0.000000 0.000000 0.000000 0.000000 0.000000 0.054324
#
#
# Mechanical properties :
#
#
# Convention : Reuss Voigt Hill
#
# Bulk Modulus (GPa) = 18.59232 66.06752 42.32992
# Shear Modulus (GPa) = 2005.89423 20.93490 1013.41457
#
# Velocity S-wave (km/s) = 33.59316 3.43188 23.87759
# Velocity P-wave (km/s) = 38.92463 7.27137 28.00000
#
# Compressibility (1/GPa) = 0.05378566
#
# Stress axis : x y z
#
# Youngs Moduli (GPa) = 97.16707 41.73451 13.96074
#
# Poissons Ratio (x) = 0.13096 0.28262
# Poissons Ratio (y) = 0.30491 0.03722
# Poissons Ratio (z) = 1.96707 0.11126
#
# Static dielectric constant tensor:
#      x y z
#    x 1.689370 0.000000 0.000000 
#    y 0.000000 1.600870 0.000000 
#    z 0.000000 0.000000 1.559210 
# 
# From -- ./inp_files/62266.got.cif
#   From: 2010.05.17/outbox.cif.g08.bks.cpg/sg74_32_cif.got.tgz:62266.got - 2010.06.03 17:57:02.
