data_PCOD9535304
_publ_section_title
;
Structure prediction by ZEFSAII (Michael W. Deem and Ramdas Pophale) SiO2 
 PCOD9535304
Probable space group: I M M A
;
_chemical_formula_sum "Si O2"
_cell_formula_units_Z 104
_cell_length_a 22.921751
_cell_length_b 8.827666
_cell_length_c 30.753876
_cell_angle_alpha 90.000000
_cell_angle_beta 90.000000
_cell_angle_gamma 90.000000
_cell_volume 6222.910322
_symmetry_space_group_name_H-M "I M M A"
_symmetry_group_IT_number 74
_symmetry_cell_setting 'orthorhombic'
loop_
_space_group_symop_operation_xyz
x,y,z
-x,1/2-y,z
x,-y,-z
-x,1/2+y,-z
-x,-y,-z
x,1/2+y,-z
-x,y,z
x,1/2-y,z
1/2+x,1/2+y,1/2+z
1/2-x,-y,1/2+z
1/2+x,1/2-y,1/2-z
1/2-x,y,1/2-z
1/2-x,1/2-y,1/2-z
1/2+x,y,1/2-z
1/2-x,1/2+y,1/2+z
1/2+x,-y,1/2+z
loop_
_atom_site_type_symbol
_atom_site_label
_atom_site_fract_x
_atom_site_fract_y
_atom_site_fract_z
Si Si1 0.888279 0.932023 0.605682
Si Si2 0.848421 0.568714 0.047161
Si Si3 0.432015 0.069654 0.806982
Si Si4 0.068928 0.933065 0.879941
Si Si5 0.278621 0.432529 0.046971
Si Si6 0.000000 0.066991 0.451811
Si Si7 0.429206 0.925169 0.716991
O O1 0.890982 0.750000 0.609342
O O2 0.828057 0.971546 0.581914
O O3 0.942637 0.979814 0.575223
O O4 0.896412 0.001426 0.653139
O O5 0.846253 0.750000 0.044446
O O6 0.893638 0.513329 0.083306
O O7 0.784269 0.502730 0.057714
O O8 0.864251 0.500000 0.000000
O O9 0.500000 0.018932 0.811777
O O10 0.431081 0.250000 0.809070
O O11 0.410986 0.016512 0.759507
O O12 0.075038 0.750000 0.882849
O O13 0.088660 0.978572 0.831085
O O14 0.000000 0.967014 0.884613
O O15 0.273984 0.250000 0.043831
O O16 0.295686 0.500000 0.000000
O O17 0.000000 0.250000 0.454843
O O18 0.000000 0.000000 0.500000
O O19 0.500000 0.928657 0.715941
O O20 0.411728 0.750000 0.722079
#
# Coordination Sequence:
#
# PCOD9535304 Si02
#       7
#    16  16  16  16  16   8  16
#     4  10  20  33  50  70  97 133 171 212 258 309
#     4  11  22  36  55  77 104 138 171 208 249 294
#     4  10  19  29  45  72 103 134 169 211 255 298
#     4   9  18  34  56  82 109 136 167 203 247 299
#     4  10  20  35  54  74  96 130 174 215 255 302
#     4  10  20  32  46  68  98 130 164 208 261 312
#     4   8  15  29  50  73 100 135 167 199 244 300
#
# _framework density 16.712437999999999
#
# number of rings (size 3 to 8) (size 9 to 14) (size 15 to 20)
#    0.000    2.308    0.769    4.615    0.000    3.692 
#    0.000    1.538    0.000    0.923    0.000    6.462 
#    0.000    0.000    0.000    0.000    0.000    0.000 
#
# Total GULP energy -290044.448105 kJ/mol
# GULP energy per Si atom -5577.777848 kJ/mol
# Density = 1.667440 g / cm^3
# Si number density = 16.712438 Si / 1000 Ang^3
#
#
#
# Elastic Constant Matrix: (Units=GPa)
#
#
# Indices 1 2 3 4 5 6 
#
# 1 67.3644 43.3507 86.5162 0.0000 0.0000 0.0000
# 2 43.3507 57.5604 63.4291 0.0000 0.0000 0.0000
# 3 86.5162 63.4291 171.1813 0.0000 0.0000 0.0000
# 4 0.0000 0.0000 0.0000 32.9932 0.0000 0.0000
# 5 0.0000 0.0000 0.0000 0.0000 16.8362 0.0000
# 6 0.0000 0.0000 0.0000 0.0000 0.0000 19.8973
#
#
#
# Elastic Compliance Matrix: (Units=1/GPa)
#
#
# Indices 1 2 3 4 5 6 
#
# 1 0.050267 -0.016668 -0.019229 0.000000 0.000000 0.000000
# 2 -0.016668 0.034889 -0.004504 0.000000 0.000000 0.000000
# 3 -0.019229 -0.004504 0.017229 0.000000 0.000000 0.000000
# 4 0.000000 0.000000 0.000000 0.030309 0.000000 0.000000
# 5 0.000000 0.000000 0.000000 0.000000 0.059396 0.000000
# 6 0.000000 0.000000 0.000000 0.000000 0.000000 0.050258
#
#
# Mechanical properties :
#
#
# Convention : Reuss Voigt Hill
#
# Bulk Modulus (GPa) = 46.33164 75.85535 61.09349
# Shear Modulus (GPa) = 15.13572 20.79935 17.96753
#
# Velocity S-wave (km/s) = 3.01268 3.53164 3.28243
# Velocity P-wave (km/s) = 6.31543 7.88144 7.14149
#
# Compressibility (1/GPa) = 0.02158352
#
# Stress axis : x y z
#
# Youngs Moduli (GPa) = 19.89376 28.66224 58.04171
#
# Poissons Ratio (x) = 0.47775 1.11609
# Poissons Ratio (y) = 0.33159 0.26139
# Poissons Ratio (z) = 0.38254 0.12908
#
# Static dielectric constant tensor:
#      x y z
#    x 1.549420 0.000000 0.000000 
#    y 0.000000 1.561350 0.000000 
#    z 0.000000 0.000000 1.556720 
# 
# From -- ./inp_files/73680.got.cif
#   From: 2010.05.17/outbox.cif.g08.bks.cpg/sg74_37_cif.got.tgz:73680.got - 2010.06.03 17:57:02.
