data_PCOD9535672
_publ_section_title
;
Structure prediction by ZEFSAII (Michael W. Deem and Ramdas Pophale) SiO2 
 PCOD9535672
Probable space group: I M M A
;
_chemical_formula_sum "Si O2"
_cell_formula_units_Z 96
_cell_length_a 25.347582
_cell_length_b 18.511432
_cell_length_c 11.279710
_cell_angle_alpha 90.000000
_cell_angle_beta 90.000000
_cell_angle_gamma 90.000000
_cell_volume 5292.665984
_symmetry_space_group_name_H-M "I M M A"
_symmetry_group_IT_number 74
_symmetry_cell_setting 'orthorhombic'
loop_
_space_group_symop_operation_xyz
x,y,z
-x,1/2-y,z
x,-y,-z
-x,1/2+y,-z
-x,-y,-z
x,1/2+y,-z
-x,y,z
x,1/2-y,z
1/2+x,1/2+y,1/2+z
1/2-x,-y,1/2+z
1/2+x,1/2-y,1/2-z
1/2-x,y,1/2-z
1/2-x,1/2-y,1/2-z
1/2+x,y,1/2-z
1/2-x,1/2+y,1/2+z
1/2+x,-y,1/2+z
loop_
_atom_site_type_symbol
_atom_site_label
_atom_site_fract_x
_atom_site_fract_y
_atom_site_fract_z
Si Si1 0.876576 0.950816 0.179375
Si Si2 0.847871 0.598570 0.934094
Si Si3 0.937841 0.536006 0.627178
Si Si4 0.235681 0.833288 0.563136
Si Si5 0.691683 0.169307 0.805776
Si Si6 0.365189 0.166664 0.201359
O O1 0.843175 0.894718 0.255775
O O2 0.846350 0.023189 0.137493
O O3 0.922179 0.982241 0.264283
O O4 0.883300 0.911922 0.051457
O O5 0.787891 0.620937 0.960965
O O6 0.870735 0.656313 0.842118
O O7 0.925600 0.500000 0.500000
O O8 0.904016 0.609073 0.641908
O O9 0.000000 0.551248 0.631713
O O10 0.252560 0.750000 0.580899
O O11 0.199595 0.836366 0.446100
O O12 0.195680 0.852895 0.668613
O O13 0.670927 0.250000 0.776895
O O14 0.750000 0.164875 0.750000
O O15 0.373312 0.250000 0.166119
#
# Coordination Sequence:
#
# PCOD9535672 Si02
#       6
#    16  16  16  16  16  16
#     4  10  21  36  52  80 113 148 191 233 280 341
#     4  10  20  34  49  80 119 154 184 219 279 338
#     4  10  22  42  65  85 108 144 192 251 309 347
#     4  10  19  33  52  78 115 154 189 228 274 334
#     4  10  19  31  50  76 108 148 187 225 273 331
#     4  10  21  36  57  86 115 150 195 239 287 344
#
# _framework density 18.138307000000001
#
# number of rings (size 3 to 8) (size 9 to 14) (size 15 to 20)
#    0.000    2.000    1.667    2.000    0.000    5.000 
#    3.000    6.667    0.000    1.500    0.000    0.000 
#    0.000    0.000    0.000    0.000    0.000    0.000 
#
# Total GULP energy -267514.482690 kJ/mol
# GULP energy per Si atom -5573.218389 kJ/mol
# Density = 1.809702 g / cm^3
# Si number density = 18.138307 Si / 1000 Ang^3
#
#
#
# Elastic Constant Matrix: (Units=GPa)
#
#
# Indices 1 2 3 4 5 6 
#
# 1 61.3103 39.8310 28.5700 0.0000 0.0000 0.0000
# 2 39.8310 61.5020 28.3089 0.0000 0.0000 0.0000
# 3 28.5700 28.3089 92.5593 0.0000 0.0000 0.0000
# 4 0.0000 0.0000 0.0000 28.6071 0.0000 0.0000
# 5 0.0000 0.0000 0.0000 0.0000 22.4679 0.0000
# 6 0.0000 0.0000 0.0000 0.0000 0.0000 12.8556
#
#
#
# Elastic Compliance Matrix: (Units=1/GPa)
#
#
# Indices 1 2 3 4 5 6 
#
# 1 0.029243 -0.017206 -0.003764 0.000000 0.000000 0.000000
# 2 -0.017206 0.029048 -0.003573 0.000000 0.000000 0.000000
# 3 -0.003764 -0.003573 0.013058 0.000000 0.000000 0.000000
# 4 0.000000 0.000000 0.000000 0.034956 0.000000 0.000000
# 5 0.000000 0.000000 0.000000 0.000000 0.044508 0.000000
# 6 0.000000 0.000000 0.000000 0.000000 0.000000 0.077787
#
#
# Mechanical properties :
#
#
# Convention : Reuss Voigt Hill
#
# Bulk Modulus (GPa) = 44.91846 45.42127 45.16986
# Shear Modulus (GPa) = 17.53727 20.69690 19.11709
#
# Velocity S-wave (km/s) = 3.11282 3.38162 3.25000
# Velocity P-wave (km/s) = 6.14310 6.35163 6.24823
#
# Compressibility (1/GPa) = 0.02226256
#
# Stress axis : x y z
#
# Youngs Moduli (GPa) = 34.19676 34.42617 76.57856
#
# Poissons Ratio (x) = 0.59234 0.28822
# Poissons Ratio (y) = 0.58839 0.27363
# Poissons Ratio (z) = 0.12871 0.12301
#
# Static dielectric constant tensor:
#      x y z
#    x 1.582590 0.000000 0.000000 
#    y 0.000000 1.637090 0.000000 
#    z 0.000000 0.000000 1.702850 
# 
# From -- ./inp_files/22444.got.cif
#   From: 2010.05.17/outbox.cif.g08.bks.cpg/sg74_12_cif.got.tgz:22444.got - 2010.06.03 17:57:02.
