data_PCOD9535453
_publ_section_title
;
Structure prediction by ZEFSAII (Michael W. Deem and Ramdas Pophale) SiO2 
 PCOD9535453
Probable space group: I M M A
;
_chemical_formula_sum "Si O2"
_cell_formula_units_Z 72
_cell_length_a 16.490232
_cell_length_b 10.086076
_cell_length_c 22.636032
_cell_angle_alpha 90.000000
_cell_angle_beta 90.000000
_cell_angle_gamma 90.000000
_cell_volume 3764.864075
_symmetry_space_group_name_H-M "I M M A"
_symmetry_group_IT_number 74
_symmetry_cell_setting 'orthorhombic'
loop_
_space_group_symop_operation_xyz
x,y,z
-x,1/2-y,z
x,-y,-z
-x,1/2+y,-z
-x,-y,-z
x,1/2+y,-z
-x,y,z
x,1/2-y,z
1/2+x,1/2+y,1/2+z
1/2-x,-y,1/2+z
1/2+x,1/2-y,1/2-z
1/2-x,y,1/2-z
1/2-x,1/2-y,1/2-z
1/2+x,y,1/2-z
1/2-x,1/2+y,1/2+z
1/2+x,-y,1/2+z
loop_
_atom_site_type_symbol
_atom_site_label
_atom_site_fract_x
_atom_site_fract_y
_atom_site_fract_z
Si Si1 0.783687 0.000000 0.500000
Si Si2 0.840171 0.090247 0.821852
Si Si3 0.148355 0.590820 0.309742
Si Si4 0.875551 0.097671 0.949503
Si Si5 0.909832 0.398095 0.407508
O O1 0.721449 0.091870 0.536687
O O2 0.841128 0.079031 0.456034
O O3 0.845204 0.250000 0.824131
O O4 0.873247 0.051310 0.757624
O O5 0.743984 0.059923 0.820285
O O6 0.882760 0.045183 0.882358
O O7 0.138318 0.750000 0.315494
O O8 0.099870 0.508579 0.357582
O O9 0.902941 0.250000 0.954050
O O10 0.909109 0.000000 0.000000
O O11 0.900603 0.250000 0.382218
O O12 0.000000 0.407217 0.433853
#
# Coordination Sequence:
#
# PCOD9535453 Si02
#       5
#     8  16  16  16  16
#     4  10  19  30  48  58  86 120 161 180 216 260
#     4   8  14  26  46  68  87 111 143 186 230 266
#     4   9  16  30  49  65  83 111 151 189 226 271
#     4   9  16  26  44  66  91 117 145 179 220 264
#     4  11  23  35  45  62  91 123 157 196 227 254
#
# _framework density 19.124196000000001
#
# number of rings (size 3 to 8) (size 9 to 14) (size 15 to 20)
#    0.667    2.000    2.222    2.333    0.000    1.333 
#    0.000    3.333    0.000    0.000    0.000    0.000 
#    0.000    0.889    0.000    2.000    0.000    3.778 
#
# Total GULP energy -200418.881478 kJ/mol
# GULP energy per Si atom -5567.191152 kJ/mol
# Density = 1.908067 g / cm^3
# Si number density = 19.124196 Si / 1000 Ang^3
#
#
#
# Elastic Constant Matrix: (Units=GPa)
#
#
# Indices 1 2 3 4 5 6 
#
# 1 56.3326 13.2347 8.0907 0.0000 0.0000 0.0000
# 2 13.2347 65.0467 29.6029 0.0000 0.0000 0.0000
# 3 8.0907 29.6029 115.1497 0.0000 0.0000 0.0000
# 4 0.0000 0.0000 0.0000 24.6735 0.0000 0.0000
# 5 0.0000 0.0000 0.0000 0.0000 -7.2613 0.0000
# 6 0.0000 0.0000 0.0000 0.0000 0.0000 57.9062
#
#
#
# Elastic Compliance Matrix: (Units=1/GPa)
#
#
# Indices 1 2 3 4 5 6 
#
# 1 0.018657 -0.003623 -0.000379 0.000000 0.000000 0.000000
# 2 -0.003623 0.018114 -0.004402 0.000000 0.000000 0.000000
# 3 -0.000379 -0.004402 0.009843 0.000000 0.000000 0.000000
# 4 0.000000 0.000000 0.000000 0.040529 0.000000 0.000000
# 5 0.000000 0.000000 0.000000 0.000000 -0.137716 0.000000
# 6 0.000000 0.000000 0.000000 0.000000 0.000000 0.017269
#
#
# Mechanical properties :
#
#
# Convention : Reuss Voigt Hill
#
# Bulk Modulus (GPa) = 33.55224 37.59840 35.57532
# Shear Modulus (GPa) = -762.45481 27.43706 -367.50887
#
# Velocity S-wave (km/s) = -19.98878 3.79182 -13.87756
# Velocity P-wave (km/s) = 22.69698 6.23485 15.43178
#
# Compressibility (1/GPa) = 0.02980427
#
# Stress axis : x y z
#
# Youngs Moduli (GPa) = 53.59782 55.20504 101.59768
#
# Poissons Ratio (x) = 0.20003 0.03855
# Poissons Ratio (y) = 0.19421 0.44726
# Poissons Ratio (z) = 0.02034 0.24303
#
# Static dielectric constant tensor:
#      x y z
#    x 1.681290 0.000000 0.000000 
#    y 0.000000 1.636530 0.000000 
#    z 0.000000 0.000000 1.691890 
# 
# From -- ./inp_files/52736.got.cif
#   From: 2010.05.17/outbox.cif.g08.bks.cpg/sg74_27_cif.got.tgz:52736.got - 2010.06.03 17:57:02.
