data_PCOD9535722
_publ_section_title
;
Structure prediction by ZEFSAII (Michael W. Deem and Ramdas Pophale) SiO2 
 PCOD9535722
Probable space group: I M M A
;
_chemical_formula_sum "Si O2"
_cell_formula_units_Z 80
_cell_length_a 18.520449
_cell_length_b 16.323931
_cell_length_c 13.653564
_cell_angle_alpha 90.000000
_cell_angle_beta 90.000000
_cell_angle_gamma 90.000000
_cell_volume 4127.834648
_symmetry_space_group_name_H-M "I M M A"
_symmetry_group_IT_number 74
_symmetry_cell_setting 'orthorhombic'
loop_
_space_group_symop_operation_xyz
x,y,z
-x,1/2-y,z
x,-y,-z
-x,1/2+y,-z
-x,-y,-z
x,1/2+y,-z
-x,y,z
x,1/2-y,z
1/2+x,1/2+y,1/2+z
1/2-x,-y,1/2+z
1/2+x,1/2-y,1/2-z
1/2-x,y,1/2-z
1/2-x,1/2-y,1/2-z
1/2+x,y,1/2-z
1/2-x,1/2+y,1/2+z
1/2+x,-y,1/2+z
loop_
_atom_site_type_symbol
_atom_site_label
_atom_site_fract_x
_atom_site_fract_y
_atom_site_fract_z
Si Si1 0.082398 0.651656 0.579589
Si Si2 0.380897 0.842326 0.135619
Si Si3 0.919446 0.849424 0.152004
Si Si4 0.277563 0.574566 0.859178
Si Si5 0.734017 0.107744 0.570215
O O1 0.100075 0.750000 0.583258
O O2 0.091997 0.622024 0.466861
O O3 0.138410 0.598077 0.640134
O O4 0.000000 0.642492 0.609863
O O5 0.409748 0.750000 0.136276
O O6 0.407159 0.880249 0.236555
O O7 0.293926 0.839956 0.128204
O O8 0.916583 0.750000 0.152294
O O9 0.849346 0.878640 0.093708
O O10 0.000000 0.873257 0.118274
O O11 0.250000 0.590667 0.750000
O O12 0.257886 0.482424 0.892127
O O13 0.246469 0.622713 0.954272
#
# Coordination Sequence:
#
# PCOD9535722 Si02
#       5
#    16  16  16  16  16
#     4   9  18  34  55  79 105 131 166 216 266 305
#     4   9  16  29  53  81 108 137 167 205 256 309
#     4  10  19  31  51  80 110 139 173 212 253 299
#     4  10  21  37  54  75 102 135 175 212 253 307
#     4  10  20  35  53  75 104 138 173 209 254 307
#
# _framework density 19.380621999999999
#
# number of rings (size 3 to 8) (size 9 to 14) (size 15 to 20)
#    0.000    2.400    0.000    3.000    0.000    5.200 
#    0.000   15.000    0.000    2.400    0.000    0.000 
#    0.000    0.000    0.000    0.000    0.000    0.000 
#
# Total GULP energy -222771.280334 kJ/mol
# GULP energy per Si atom -5569.282008 kJ/mol
# Density = 1.933651 g / cm^3
# Si number density = 19.380622 Si / 1000 Ang^3
#
#
#
# Elastic Constant Matrix: (Units=GPa)
#
#
# Indices 1 2 3 4 5 6 
#
# 1 180.3838 43.8435 53.2843 0.0000 0.0000 0.0000
# 2 43.8435 30.1607 4.6449 0.0000 0.0000 0.0000
# 3 53.2843 4.6449 86.0035 0.0000 0.0000 0.0000
# 4 0.0000 0.0000 0.0000 10.8682 0.0000 0.0000
# 5 0.0000 0.0000 0.0000 0.0000 20.4573 0.0000
# 6 0.0000 0.0000 0.0000 0.0000 0.0000 16.7668
#
#
#
# Elastic Compliance Matrix: (Units=1/GPa)
#
#
# Indices 1 2 3 4 5 6 
#
# 1 0.010957 -0.015008 -0.005978 0.000000 0.000000 0.000000
# 2 -0.015008 0.053989 0.006382 0.000000 0.000000 0.000000
# 3 -0.005978 0.006382 0.014987 0.000000 0.000000 0.000000
# 4 0.000000 0.000000 0.000000 0.092012 0.000000 0.000000
# 5 0.000000 0.000000 0.000000 0.000000 0.048882 0.000000
# 6 0.000000 0.000000 0.000000 0.000000 0.000000 0.059642
#
#
# Mechanical properties :
#
#
# Convention : Reuss Voigt Hill
#
# Bulk Modulus (GPa) = 19.71384 55.56593 37.63989
# Shear Modulus (GPa) = 15.30998 22.60349 18.95673
#
# Velocity S-wave (km/s) = 2.81368 3.41881 3.13090
# Velocity P-wave (km/s) = 4.55519 6.65714 5.70382
#
# Compressibility (1/GPa) = 0.05072577
#
# Stress axis : x y z
#
# Youngs Moduli (GPa) = 91.26268 18.52228 66.72636
#
# Poissons Ratio (x) = 0.27798 0.39890
# Poissons Ratio (y) = 1.36964 -0.42587
# Poissons Ratio (z) = 0.54559 -0.11821
#
# Static dielectric constant tensor:
#      x y z
#    x 1.696600 0.000000 0.000000 
#    y 0.000000 1.752220 0.000000 
#    z 0.000000 0.000000 1.694500 
# 
# From -- ./inp_files/32108.got.cif
#   From: 2010.05.17/outbox.cif.g08.bks.cpg/sg74_17_cif.got.tgz:32108.got - 2010.06.03 17:57:02.
