data_PCOD9535032
_publ_section_title
;
Structure prediction by ZEFSAII (Michael W. Deem and Ramdas Pophale) SiO2 
 PCOD9535032
Probable space group: I M M A
;
_chemical_formula_sum "Si O2"
_cell_formula_units_Z 96
_cell_length_a 14.019347
_cell_length_b 14.489909
_cell_length_c 21.935540
_cell_angle_alpha 90.000000
_cell_angle_beta 90.000000
_cell_angle_gamma 90.000000
_cell_volume 4455.965026
_symmetry_space_group_name_H-M "I M M A"
_symmetry_group_IT_number 74
_symmetry_cell_setting 'orthorhombic'
loop_
_space_group_symop_operation_xyz
x,y,z
-x,1/2-y,z
x,-y,-z
-x,1/2+y,-z
-x,-y,-z
x,1/2+y,-z
-x,y,z
x,1/2-y,z
1/2+x,1/2+y,1/2+z
1/2-x,-y,1/2+z
1/2+x,1/2-y,1/2-z
1/2-x,y,1/2-z
1/2-x,1/2-y,1/2-z
1/2+x,y,1/2-z
1/2-x,1/2+y,1/2+z
1/2+x,-y,1/2+z
loop_
_atom_site_type_symbol
_atom_site_label
_atom_site_fract_x
_atom_site_fract_y
_atom_site_fract_z
Si Si1 0.109293 0.525278 0.617532
Si Si2 0.668123 0.349216 0.698704
Si Si3 0.897058 0.038052 0.236501
Si Si4 0.709846 0.640544 0.634625
Si Si5 0.105477 0.361747 0.015308
Si Si6 0.777602 0.643657 0.429181
O O1 0.115175 0.517722 0.691583
O O2 0.191861 0.600455 0.607071
O O3 0.140026 0.431287 0.583075
O O4 0.000000 0.549910 0.602377
O O5 0.619488 0.250000 0.705674
O O6 0.750000 0.355674 0.750000
O O7 0.604298 0.437987 0.705759
O O8 0.721544 0.351671 0.634671
O O9 0.819820 0.095918 0.198853
O O10 0.000000 0.084849 0.229732
O O11 0.717419 0.750000 0.640663
O O12 0.627882 0.616812 0.585566
O O13 0.105056 0.250000 0.009578
O O14 0.000000 0.393785 0.996348
O O15 0.196816 0.391096 0.976040
O O16 0.807578 0.750000 0.444239
#
# Coordination Sequence:
#
# PCOD9535032 Si02
#       6
#    16  16  16  16  16  16
#     4  11  24  41  61  89 123 160 211 263 307 364
#     4  10  18  33  57  84 123 166 202 241 294 363
#     4  11  22  37  60  91 125 161 206 255 310 376
#     4  11  23  43  66  88 123 165 208 264 323 366
#     4   9  20  40  66  96 127 160 202 250 305 376
#     4  10  20  38  64  91 127 165 197 243 305 371
#
# _framework density 21.544155
#
# number of rings (size 3 to 8) (size 9 to 14) (size 15 to 20)
#    0.000    1.667    3.333    1.000    0.000    4.667 
#    0.000    7.500    0.000    3.000    0.000    0.000 
#    0.000    0.000    0.000    0.000    0.000    0.000 
#
# Total GULP energy -267843.368320 kJ/mol
# GULP energy per Si atom -5580.070173 kJ/mol
# Density = 2.149512 g / cm^3
# Si number density = 21.544155 Si / 1000 Ang^3
#
#
#
# Elastic Constant Matrix: (Units=GPa)
#
#
# Indices 1 2 3 4 5 6 
#
# 1 127.7788 36.4461 23.9211 0.0000 0.0000 0.0000
# 2 36.4461 95.9518 10.9771 0.0000 0.0000 0.0000
# 3 23.9211 10.9771 66.4000 0.0000 0.0000 0.0000
# 4 0.0000 0.0000 0.0000 18.6748 0.0000 0.0000
# 5 0.0000 0.0000 0.0000 0.0000 23.5556 0.0000
# 6 0.0000 0.0000 0.0000 0.0000 0.0000 44.1340
#
#
#
# Elastic Compliance Matrix: (Units=1/GPa)
#
#
# Indices 1 2 3 4 5 6 
#
# 1 0.009264 -0.003197 -0.002809 0.000000 0.000000 0.000000
# 2 -0.003197 0.011726 -0.000787 0.000000 0.000000 0.000000
# 3 -0.002809 -0.000787 0.016202 0.000000 0.000000 0.000000
# 4 0.000000 0.000000 0.000000 0.053548 0.000000 0.000000
# 5 0.000000 0.000000 0.000000 0.000000 0.042453 0.000000
# 6 0.000000 0.000000 0.000000 0.000000 0.000000 0.022658
#
#
# Mechanical properties :
#
#
# Convention : Reuss Voigt Hill
#
# Bulk Modulus (GPa) = 42.36095 48.09102 45.22598
# Shear Modulus (GPa) = 28.19982 31.85863 30.02922
#
# Velocity S-wave (km/s) = 3.62184 3.84964 3.73747
# Velocity P-wave (km/s) = 6.09880 6.49077 6.29784
#
# Compressibility (1/GPa) = 0.02360665
#
# Stress axis : x y z
#
# Youngs Moduli (GPa) = 107.94650 85.27765 61.72006
#
# Poissons Ratio (x) = 0.27267 0.17336
# Poissons Ratio (y) = 0.34515 0.04855
# Poissons Ratio (z) = 0.30320 0.06709
#
# Static dielectric constant tensor:
#      x y z
#    x 1.785080 0.000000 0.000000 
#    y 0.000000 1.799810 0.000000 
#    z 0.000000 0.000000 1.796640 
# 
# From -- ./inp_files/51929.got.cif
#   From: 2010.05.17/outbox.cif.g08.bks.cpg/sg74_26_cif.got.tgz:51929.got - 2010.06.03 17:57:02.
