data_PCOD9535092
_publ_section_title
;
Structure prediction by ZEFSAII (Michael W. Deem and Ramdas Pophale) SiO2 
 PCOD9535092
Probable space group: I M M A
;
_chemical_formula_sum "Si O2"
_cell_formula_units_Z 104
_cell_length_a 8.753117
_cell_length_b 26.441695
_cell_length_c 20.859534
_cell_angle_alpha 90.000000
_cell_angle_beta 90.000000
_cell_angle_gamma 90.000000
_cell_volume 4827.881781
_symmetry_space_group_name_H-M "I M M A"
_symmetry_group_IT_number 74
_symmetry_cell_setting 'orthorhombic'
loop_
_space_group_symop_operation_xyz
x,y,z
-x,1/2-y,z
x,-y,-z
-x,1/2+y,-z
-x,-y,-z
x,1/2+y,-z
-x,y,z
x,1/2-y,z
1/2+x,1/2+y,1/2+z
1/2-x,-y,1/2+z
1/2+x,1/2-y,1/2-z
1/2-x,y,1/2-z
1/2-x,1/2-y,1/2-z
1/2+x,y,1/2-z
1/2-x,1/2+y,1/2+z
1/2+x,-y,1/2+z
loop_
_atom_site_type_symbol
_atom_site_label
_atom_site_fract_x
_atom_site_fract_y
_atom_site_fract_z
Si Si1 0.823650 0.552045 0.646955
Si Si2 0.315833 0.663183 0.815904
Si Si3 0.177892 0.415085 0.501292
Si Si4 0.322910 0.949628 0.377565
Si Si5 0.813915 0.805522 0.540955
Si Si6 0.818235 0.250000 0.822916
Si Si7 0.320001 0.149261 0.820810
O O1 0.769599 0.603964 0.679180
O O2 0.821947 0.564941 0.571199
O O3 0.725909 0.501835 0.655426
O O4 0.000000 0.542517 0.665448
O O5 0.500000 0.665135 0.813764
O O6 0.250000 0.684824 0.750000
O O7 0.269899 0.687851 0.883834
O O8 0.281855 0.448596 0.547177
O O9 0.231429 0.356384 0.496771
O O10 0.000000 0.416872 0.523143
O O11 0.500000 0.939567 0.366458
O O12 0.222729 0.902925 0.353389
O O13 0.763351 0.750000 0.518232
O O14 0.000000 0.806498 0.539553
O O15 0.750000 0.250000 0.750000
O O16 0.755649 0.301537 0.853118
O O17 0.000000 0.250000 0.819707
O O18 0.500000 0.157021 0.817785
O O19 0.250000 0.145821 0.750000
#
# Coordination Sequence:
#
# PCOD9535092 Si02
#       7
#    16  16  16  16  16   8  16
#     4   9  19  36  55  74 103 144 185 228 278 330
#     4   9  18  32  52  79 110 144 182 223 270 322
#     4   9  18  35  57  78 103 140 184 230 278 330
#     4  12  24  36  53  81 111 141 178 226 279 331
#     4   8  15  31  55  80 107 142 183 226 269 320
#     4  10  18  34  58  82 108 138 172 210 255 306
#     4  11  22  39  60  82 109 143 181 219 265 321
#
# _framework density 21.541537999999999
#
# number of rings (size 3 to 8) (size 9 to 14) (size 15 to 20)
#    0.000    2.308    0.000    6.692    0.000    4.000 
#    1.385    3.846    0.000    0.923    0.000    0.000 
#    0.000    0.000    0.000    0.000    0.000    0.000 
#
# Total GULP energy -290385.927189 kJ/mol
# GULP energy per Si atom -5584.344754 kJ/mol
# Density = 2.149251 g / cm^3
# Si number density = 21.541538 Si / 1000 Ang^3
#
#
#
# Elastic Constant Matrix: (Units=GPa)
#
#
# Indices 1 2 3 4 5 6 
#
# 1 84.1464 27.1049 -0.2882 0.0000 0.0000 0.0000
# 2 27.1049 107.5217 -2.8060 0.0000 0.0000 0.0000
# 3 -0.2882 -2.8060 26.4335 0.0000 0.0000 0.0000
# 4 0.0000 0.0000 0.0000 13.9171 0.0000 0.0000
# 5 0.0000 0.0000 0.0000 0.0000 22.2170 0.0000
# 6 0.0000 0.0000 0.0000 0.0000 0.0000 21.1921
#
#
#
# Elastic Compliance Matrix: (Units=1/GPa)
#
#
# Indices 1 2 3 4 5 6 
#
# 1 0.012935 -0.003266 -0.000206 0.000000 0.000000 0.000000
# 2 -0.003266 0.010151 0.001042 0.000000 0.000000 0.000000
# 3 -0.000206 0.001042 0.037939 0.000000 0.000000 0.000000
# 4 0.000000 0.000000 0.000000 0.071854 0.000000 0.000000
# 5 0.000000 0.000000 0.000000 0.000000 0.045011 0.000000
# 6 0.000000 0.000000 0.000000 0.000000 0.000000 0.047187
#
#
# Mechanical properties :
#
#
# Convention : Reuss Voigt Hill
#
# Bulk Modulus (GPa) = 17.80449 29.56925 23.68687
# Shear Modulus (GPa) = 20.10783 24.40463 22.25623
#
# Velocity S-wave (km/s) = 3.05855 3.36952 3.21779
# Velocity P-wave (km/s) = 4.55588 5.37538 4.98251
#
# Compressibility (1/GPa) = 0.05616562
#
# Stress axis : x y z
#
# Youngs Moduli (GPa) = 77.30693 98.51225 26.35800
#
# Poissons Ratio (x) = 0.32176 0.00542
# Poissons Ratio (y) = 0.25250 -0.02746
# Poissons Ratio (z) = 0.01590 -0.10264
#
# Static dielectric constant tensor:
#      x y z
#    x 1.728640 0.000000 0.000000 
#    y 0.000000 1.832570 0.000000 
#    z 0.000000 0.000000 1.882390 
# 
# From -- ./inp_files/57601.got.cif
#   From: 2010.05.17/outbox.cif.g08.bks.cpg/sg74_29_cif.got.tgz:57601.got - 2010.06.03 17:57:02.
