data_PCOD9535214
_publ_section_title
;
Structure prediction by ZEFSAII (Michael W. Deem and Ramdas Pophale) SiO2 
 PCOD9535214
Probable space group: I M M A
;
_chemical_formula_sum "Si O2"
_cell_formula_units_Z 104
_cell_length_a 14.669726
_cell_length_b 27.257881
_cell_length_c 19.284545
_cell_angle_alpha 90.000000
_cell_angle_beta 90.000000
_cell_angle_gamma 90.000000
_cell_volume 7711.227037
_symmetry_space_group_name_H-M "I M M A"
_symmetry_group_IT_number 74
_symmetry_cell_setting 'orthorhombic'
loop_
_space_group_symop_operation_xyz
x,y,z
-x,1/2-y,z
x,-y,-z
-x,1/2+y,-z
-x,-y,-z
x,1/2+y,-z
-x,y,z
x,1/2-y,z
1/2+x,1/2+y,1/2+z
1/2-x,-y,1/2+z
1/2+x,1/2-y,1/2-z
1/2-x,y,1/2-z
1/2-x,1/2-y,1/2-z
1/2+x,y,1/2-z
1/2-x,1/2+y,1/2+z
1/2+x,-y,1/2+z
loop_
_atom_site_type_symbol
_atom_site_label
_atom_site_fract_x
_atom_site_fract_y
_atom_site_fract_z
Si Si1 0.393210 0.480467 0.343655
Si Si2 0.605809 0.691848 0.649667
Si Si3 0.606802 0.606831 0.548909
Si Si4 0.750000 0.140718 0.250000
Si Si5 0.785928 0.454431 0.944338
Si Si6 0.891672 0.936161 0.694980
Si Si7 0.900698 0.016843 0.579539
O O1 0.500000 0.490176 0.352304
O O2 0.373515 0.430800 0.387396
O O3 0.339529 0.524597 0.378581
O O4 0.375823 0.469151 0.263560
O O5 0.500000 0.680474 0.671305
O O6 0.612819 0.750000 0.640399
O O7 0.620870 0.660774 0.579533
O O8 0.680484 0.672699 0.704045
O O9 0.500000 0.600388 0.531398
O O10 0.667120 0.589904 0.484500
O O11 0.817639 0.106910 0.296904
O O12 0.682764 0.445935 0.920643
O O13 0.787063 0.500000 0.000000
O O14 0.000000 0.921058 0.696237
O O15 0.877569 0.969929 0.627572
O O16 0.000000 0.035138 0.602359
O O17 0.907920 0.000000 0.500000
#
# Coordination Sequence:
#
# PCOD9535214 Si02
#       7
#    16  16  16   8  16  16  16
#     4   9  15  25  39  60  82 103 132 168 204 239
#     4  10  21  34  45  60  82 106 137 178 218 253
#     4   9  16  28  43  60  79 102 132 168 209 249
#     4  12  19  28  48  62  78 106 144 180 209 242
#     4   9  16  24  39  59  78 103 131 167 199 239
#     4  10  19  28  41  61  84 113 144 174 204 241
#     4   9  18  28  36  51  80 111 141 168 195 234
#
# _framework density 13.486829999999999
#
# number of rings (size 3 to 8) (size 9 to 14) (size 15 to 20)
#    0.000    2.462    1.538    2.077    4.308    1.846 
#    0.000    0.000    0.000    0.000    0.000    0.000 
#    0.000    0.000    0.000    2.769    0.000   15.077 
#
# Total GULP energy -289505.979941 kJ/mol
# GULP energy per Si atom -5567.422691 kJ/mol
# Density = 1.345613 g / cm^3
# Si number density = 13.486830 Si / 1000 Ang^3
#
#
#
# Elastic Constant Matrix: (Units=GPa)
#
#
# Indices 1 2 3 4 5 6 
#
# 1 90.5960 55.3686 34.0943 0.0000 0.0000 0.0000
# 2 55.3686 59.4829 37.6274 0.0000 0.0000 0.0000
# 3 34.0943 37.6274 49.5930 0.0000 0.0000 0.0000
# 4 0.0000 0.0000 0.0000 14.2294 0.0000 0.0000
# 5 0.0000 0.0000 0.0000 0.0000 13.6654 0.0000
# 6 0.0000 0.0000 0.0000 0.0000 0.0000 17.0956
#
#
#
# Elastic Compliance Matrix: (Units=1/GPa)
#
#
# Indices 1 2 3 4 5 6 
#
# 1 0.025626 -0.024438 0.000925 0.000000 0.000000 0.000000
# 2 -0.024438 0.055632 -0.025409 0.000000 0.000000 0.000000
# 3 0.000925 -0.025409 0.038807 0.000000 0.000000 0.000000
# 4 0.000000 0.000000 0.000000 0.070277 0.000000 0.000000
# 5 0.000000 0.000000 0.000000 0.000000 0.073178 0.000000
# 6 0.000000 0.000000 0.000000 0.000000 0.000000 0.058495
#
#
# Mechanical properties :
#
#
# Convention : Reuss Voigt Hill
#
# Bulk Modulus (GPa) = 45.00429 50.42805 47.71617
# Shear Modulus (GPa) = 11.70233 13.83684 12.76958
#
# Velocity S-wave (km/s) = 2.94885 3.20652 3.08038
# Velocity P-wave (km/s) = 6.71087 7.15408 6.93601
#
# Compressibility (1/GPa) = 0.02222010
#
# Stress axis : x y z
#
# Youngs Moduli (GPa) = 39.02341 17.97518 25.76872
#
# Poissons Ratio (x) = 0.43928 -0.02382
# Poissons Ratio (y) = 0.95366 0.65475
# Poissons Ratio (z) = -0.03608 0.45673
#
# Static dielectric constant tensor:
#      x y z
#    x 1.506500 0.000000 0.000000 
#    y 0.000000 1.415300 0.000000 
#    z 0.000000 0.000000 1.440110 
# 
# From -- ./inp_files/43166.got.cif
#   From: 2010.05.17/outbox.cif.g08.bks.cpg/sg74_22_cif.got.tgz:43166.got - 2010.06.03 17:57:02.
