data_PCOD9535963
_publ_section_title
;
Structure prediction by ZEFSAII (Michael W. Deem and Ramdas Pophale) SiO2 
 PCOD9535963
Probable space group: I M M A
;
_chemical_formula_sum "Si O2"
_cell_formula_units_Z 96
_cell_length_a 21.252645
_cell_length_b 9.308755
_cell_length_c 24.713779
_cell_angle_alpha 90.000000
_cell_angle_beta 90.000000
_cell_angle_gamma 90.000000
_cell_volume 4889.266913
_symmetry_space_group_name_H-M "I M M A"
_symmetry_group_IT_number 74
_symmetry_cell_setting 'orthorhombic'
loop_
_space_group_symop_operation_xyz
x,y,z
-x,1/2-y,z
x,-y,-z
-x,1/2+y,-z
-x,-y,-z
x,1/2+y,-z
-x,y,z
x,1/2-y,z
1/2+x,1/2+y,1/2+z
1/2-x,-y,1/2+z
1/2+x,1/2-y,1/2-z
1/2-x,y,1/2-z
1/2-x,1/2-y,1/2-z
1/2+x,y,1/2-z
1/2-x,1/2+y,1/2+z
1/2+x,-y,1/2+z
loop_
_atom_site_type_symbol
_atom_site_label
_atom_site_fract_x
_atom_site_fract_y
_atom_site_fract_z
Si Si1 0.070036 0.421449 0.175660
Si Si2 0.893900 0.577946 0.946406
Si Si3 0.677982 0.082268 0.742181
Si Si4 0.924766 0.908413 0.551955
Si Si5 0.239901 0.921197 0.053220
Si Si6 0.852843 0.412359 0.633218
O O1 0.075988 0.250000 0.184955
O O2 0.072129 0.443599 0.110794
O O3 0.129287 0.499830 0.203513
O O4 0.000000 0.467176 0.195237
O O5 0.888930 0.750000 0.955671
O O6 0.825805 0.503089 0.938407
O O7 0.920829 0.500000 0.000000
O O8 0.682589 0.250000 0.724412
O O9 0.750000 0.028151 0.750000
O O10 0.650814 0.077378 0.802797
O O11 0.898245 0.750000 0.545832
O O12 0.000000 0.902757 0.553025
O O13 0.906781 0.000000 0.500000
O O14 0.900393 0.978803 0.606334
O O15 0.231069 0.750000 0.044121
O O16 0.285490 0.937763 0.104503
O O17 0.267118 0.000000 0.000000
O O18 0.871683 0.250000 0.618173
#
# Coordination Sequence:
#
# PCOD9535963 Si02
#       6
#    16  16  16  16  16  16
#     4  10  23  42  61  85 119 154 191 239 290 342
#     4  10  20  35  57  84 114 148 184 225 276 333
#     4  10  22  41  63  87 116 151 195 245 292 342
#     4  10  21  36  54  77 107 144 184 228 279 334
#     4  10  19  32  52  80 114 147 181 226 278 332
#     4  10  21  35  54  80 108 141 182 230 281 333
#
# _framework density 19.634844999999999
#
# number of rings (size 3 to 8) (size 9 to 14) (size 15 to 20)
#    0.000    2.000    0.000    4.000    0.000    8.667 
#    0.000    3.333    0.000    0.000    0.000    0.000 
#    0.000    0.000    0.000    0.000    0.000    0.000 
#
# Total GULP energy -267859.724114 kJ/mol
# GULP energy per Si atom -5580.410919 kJ/mol
# Density = 1.959016 g / cm^3
# Si number density = 19.634845 Si / 1000 Ang^3
#
#
#
# Elastic Constant Matrix: (Units=GPa)
#
#
# Indices 1 2 3 4 5 6 
#
# 1 103.6913 49.7248 35.0730 0.0000 0.0000 0.0000
# 2 49.7248 110.8433 48.2245 0.0000 0.0000 0.0000
# 3 35.0730 48.2245 82.2938 0.0000 0.0000 0.0000
# 4 0.0000 0.0000 0.0000 30.6353 0.0000 0.0000
# 5 0.0000 0.0000 0.0000 0.0000 28.9004 0.0000
# 6 0.0000 0.0000 0.0000 0.0000 0.0000 18.7492
#
#
#
# Elastic Compliance Matrix: (Units=1/GPa)
#
#
# Indices 1 2 3 4 5 6 
#
# 1 0.012749 -0.004503 -0.002794 0.000000 0.000000 0.000000
# 2 -0.004503 0.013700 -0.006109 0.000000 0.000000 0.000000
# 3 -0.002794 -0.006109 0.016922 0.000000 0.000000 0.000000
# 4 0.000000 0.000000 0.000000 0.032642 0.000000 0.000000
# 5 0.000000 0.000000 0.000000 0.000000 0.034602 0.000000
# 6 0.000000 0.000000 0.000000 0.000000 0.000000 0.053336
#
#
# Mechanical properties :
#
#
# Convention : Reuss Voigt Hill
#
# Bulk Modulus (GPa) = 60.39513 62.54144 61.46828
# Shear Modulus (GPa) = 25.47348 26.57739 26.02544
#
# Velocity S-wave (km/s) = 3.60580 3.68310 3.64465
# Velocity P-wave (km/s) = 6.93986 7.07166 7.00607
#
# Compressibility (1/GPa) = 0.01655763
#
# Stress axis : x y z
#
# Youngs Moduli (GPa) = 78.43875 72.99410 59.09352
#
# Poissons Ratio (x) = 0.32872 0.16513
# Poissons Ratio (y) = 0.35324 0.36099
# Poissons Ratio (z) = 0.21919 0.44591
#
# Static dielectric constant tensor:
#      x y z
#    x 1.715290 0.000000 0.000000 
#    y 0.000000 1.676920 0.000000 
#    z 0.000000 0.000000 1.637780 
# 
# From -- ./inp_files/61904.got.cif
#   From: 2010.05.17/outbox.cif.g08.bks.cpg/sg74_31_cif.got.tgz:61904.got - 2010.06.03 17:57:02.
