data_PCOD9535309
_publ_section_title
;
Structure prediction by ZEFSAII (Michael W. Deem and Ramdas Pophale) SiO2 
 PCOD9535309
Probable space group: I M M A
;
_chemical_formula_sum "Si O2"
_cell_formula_units_Z 96
_cell_length_a 15.413208
_cell_length_b 14.455223
_cell_length_c 27.937936
_cell_angle_alpha 90.000000
_cell_angle_beta 90.000000
_cell_angle_gamma 90.000000
_cell_volume 6224.610102
_symmetry_space_group_name_H-M "I M M A"
_symmetry_group_IT_number 74
_symmetry_cell_setting 'orthorhombic'
loop_
_space_group_symop_operation_xyz
x,y,z
-x,1/2-y,z
x,-y,-z
-x,1/2+y,-z
-x,-y,-z
x,1/2+y,-z
-x,y,z
x,1/2-y,z
1/2+x,1/2+y,1/2+z
1/2-x,-y,1/2+z
1/2+x,1/2-y,1/2-z
1/2-x,y,1/2-z
1/2-x,1/2-y,1/2-z
1/2+x,y,1/2-z
1/2-x,1/2+y,1/2+z
1/2+x,-y,1/2+z
loop_
_atom_site_type_symbol
_atom_site_label
_atom_site_fract_x
_atom_site_fract_y
_atom_site_fract_z
Si Si1 0.899934 0.859827 0.699844
Si Si2 0.146826 0.500000 0.556867
Si Si3 0.096152 0.488624 0.210904
Si Si4 0.769786 0.500332 0.650554
Si Si5 0.840557 0.854240 0.279011
Si Si6 0.000000 0.647090 0.442330
Si Si7 0.000000 0.647091 0.557858
O O1 0.887459 0.750000 0.698831
O O2 0.828836 0.914815 0.669409
O O3 0.000000 0.880059 0.684375
O O4 0.891784 0.901475 0.753470
O O5 0.165860 0.500000 0.500000
O O6 0.226106 0.498812 0.593362
O O7 0.085618 0.588098 0.568575
O O8 0.084925 0.412802 0.568714
O O9 0.174772 0.493310 0.173672
O O10 0.102365 0.577835 0.246134
O O11 0.000000 0.484783 0.189494
O O12 0.816740 0.409558 0.672840
O O13 0.873639 0.750000 0.286035
O O14 0.750000 0.848375 0.250000
O O15 0.000000 0.750000 0.421960
O O16 0.000000 0.653413 0.500117
O O17 0.000000 0.750000 0.578634
#
# Coordination Sequence:
#
# PCOD9535309 Si02
#       7
#    16  16  16  16  16   8   8
#     4   9  18  31  48  70  94 117 143 182 229 276
#     4   9  18  30  44  64  91 119 150 186 223 265
#     4   9  18  32  47  64  90 122 155 187 222 266
#     4  10  19  29  46  68  92 120 153 188 221 267
#     4   8  15  29  47  66  87 111 141 182 229 272
#     4   8  15  29  46  61  83 118 149 175 218 271
#     4   8  15  29  46  61  83 116 147 179 220 269
#
# _framework density 15.422651999999999
#
# number of rings (size 3 to 8) (size 9 to 14) (size 15 to 20)
#    0.000    3.167    0.000    2.500    2.333    3.000 
#    0.000    0.000    0.000    0.500    0.000    0.000 
#    0.000    0.000    0.000   16.833    0.000    0.000 
#
# Total GULP energy -267244.501006 kJ/mol
# GULP energy per Si atom -5567.593771 kJ/mol
# Density = 1.538755 g / cm^3
# Si number density = 15.422652 Si / 1000 Ang^3
#
#
#
# Elastic Constant Matrix: (Units=GPa)
#
#
# Indices 1 2 3 4 5 6 
#
# 1 82.9861 26.4699 50.6783 0.0000 0.0000 0.0000
# 2 26.4699 108.7932 22.4922 0.0000 0.0000 0.0000
# 3 50.6783 22.4922 87.4587 0.0000 0.0000 0.0000
# 4 0.0000 0.0000 0.0000 5.9814 0.0000 0.0000
# 5 0.0000 0.0000 0.0000 0.0000 23.5427 0.0000
# 6 0.0000 0.0000 0.0000 0.0000 0.0000 11.4099
#
#
#
# Elastic Compliance Matrix: (Units=1/GPa)
#
#
# Indices 1 2 3 4 5 6 
#
# 1 0.019280 -0.002515 -0.010525 0.000000 0.000000 0.000000
# 2 -0.002515 0.010036 -0.001124 0.000000 0.000000 0.000000
# 3 -0.010525 -0.001124 0.017822 0.000000 0.000000 0.000000
# 4 0.000000 0.000000 0.000000 0.167185 0.000000 0.000000
# 5 0.000000 0.000000 0.000000 0.000000 0.042476 0.000000
# 6 0.000000 0.000000 0.000000 0.000000 0.000000 0.087643
#
#
# Mechanical properties :
#
#
# Convention : Reuss Voigt Hill
#
# Bulk Modulus (GPa) = 53.16255 53.16877 53.16566
# Shear Modulus (GPa) = 13.19126 20.15997 16.67561
#
# Velocity S-wave (km/s) = 2.92775 3.61940 3.29179
# Velocity P-wave (km/s) = 6.78043 7.21221 6.99965
#
# Compressibility (1/GPa) = 0.01881023
#
# Stress axis : x y z
#
# Youngs Moduli (GPa) = 51.86765 99.64161 56.11129
#
# Poissons Ratio (x) = 0.25059 0.59057
# Poissons Ratio (y) = 0.13044 0.06305
# Poissons Ratio (z) = 0.54591 0.11197
#
# Static dielectric constant tensor:
#      x y z
#    x 1.500370 0.000000 0.000000 
#    y 0.000000 1.545250 0.000000 
#    z 0.000000 0.000000 1.521160 
# 
# From -- ./inp_files/67119.got.cif
#   From: 2010.05.17/outbox.cif.g08.bks.cpg/sg74_34_cif.got.tgz:67119.got - 2010.06.03 17:57:02.
