data_PCOD9535635
_publ_section_title
;
Structure prediction by ZEFSAII (Michael W. Deem and Ramdas Pophale) SiO2 
 PCOD9535635
Probable space group: I M M A
;
_chemical_formula_sum "Si O2"
_cell_formula_units_Z 128
_cell_length_a 26.308129
_cell_length_b 23.930946
_cell_length_c 11.021525
_cell_angle_alpha 90.000000
_cell_angle_beta 90.000000
_cell_angle_gamma 90.000000
_cell_volume 6938.914234
_symmetry_space_group_name_H-M "I M M A"
_symmetry_group_IT_number 74
_symmetry_cell_setting 'orthorhombic'
loop_
_space_group_symop_operation_xyz
x,y,z
-x,1/2-y,z
x,-y,-z
-x,1/2+y,-z
-x,-y,-z
x,1/2+y,-z
-x,y,z
x,1/2-y,z
1/2+x,1/2+y,1/2+z
1/2-x,-y,1/2+z
1/2+x,1/2-y,1/2-z
1/2-x,y,1/2-z
1/2-x,1/2-y,1/2-z
1/2+x,y,1/2-z
1/2-x,1/2+y,1/2+z
1/2+x,-y,1/2+z
loop_
_atom_site_type_symbol
_atom_site_label
_atom_site_fract_x
_atom_site_fract_y
_atom_site_fract_z
Si Si1 0.779376 0.927688 0.632767
Si Si2 0.558683 0.486976 0.681704
Si Si3 0.597399 0.419598 0.904396
Si Si4 0.897335 0.085618 0.327402
Si Si5 0.217735 0.562476 0.366035
Si Si6 0.438385 0.120396 0.550524
Si Si7 0.061333 0.314487 0.190366
Si Si8 0.061191 0.685951 0.295949
O O1 0.750000 0.906041 0.750000
O O2 0.837369 0.911327 0.655196
O O3 0.763827 0.912445 0.495176
O O4 0.775847 0.995306 0.632909
O O5 0.500000 0.501630 0.656781
O O6 0.562908 0.449586 0.804006
O O7 0.588254 0.542616 0.719988
O O8 0.578221 0.443571 0.578811
O O9 0.656385 0.429564 0.866956
O O10 0.586342 0.353895 0.894428
O O11 0.585341 0.437352 0.041437
O O12 0.920631 0.145618 0.298124
O O13 0.250000 0.583179 0.250000
O O14 0.500000 0.117005 0.546027
O O15 0.421182 0.152775 0.431064
O O16 0.425373 0.158822 0.665899
O O17 0.078341 0.250000 0.194689
O O18 0.000000 0.313789 0.188362
O O19 0.076808 0.750000 0.302901
O O20 0.000000 0.683402 0.307350
#
# Coordination Sequence:
#
# PCOD9535635 Si02
#       8
#    16  16  16  16  16  16  16  16
#     4   9  18  35  53  75 106 135 172 220 270 322
#     4  10  19  31  49  76 107 139 173 208 258 318
#     4  10  19  32  49  74 108 140 170 213 267 317
#     4  11  21  33  50  75 108 140 170 209 263 322
#     4   9  17  33  55  75 101 139 178 215 266 330
#     4   8  16  32  50  68  97 137 177 220 263 298
#     4  10  21  36  52  72 103 145 186 218 255 310
#     4   9  17  30  50  74 100 136 183 225 257 300
#
# _framework density 18.446688999999999
#
# number of rings (size 3 to 8) (size 9 to 14) (size 15 to 20)
#    0.000    2.500    1.250    2.250    0.000    5.000 
#    4.500    4.375    0.000    0.750    0.000    0.000 
#    0.000    0.000    0.000    0.000    0.000    0.000 
#
# Total GULP energy -356568.867283 kJ/mol
# GULP energy per Si atom -5571.388551 kJ/mol
# Density = 1.840470 g / cm^3
# Si number density = 18.446689 Si / 1000 Ang^3
#
#
#
# Elastic Constant Matrix: (Units=GPa)
#
#
# Indices 1 2 3 4 5 6 
#
# 1 19.9865 7.5867 32.8588 0.0000 0.0000 0.0000
# 2 7.5867 100.4875 35.8896 0.0000 0.0000 0.0000
# 3 32.8588 35.8896 100.3948 0.0000 0.0000 0.0000
# 4 0.0000 0.0000 0.0000 18.6261 0.0000 0.0000
# 5 0.0000 0.0000 0.0000 0.0000 36.2773 0.0000
# 6 0.0000 0.0000 0.0000 0.0000 0.0000 84.5523
#
#
#
# Elastic Compliance Matrix: (Units=1/GPa)
#
#
# Indices 1 2 3 4 5 6 
#
# 1 0.110686 0.005253 -0.038105 0.000000 0.000000 0.000000
# 2 0.005253 0.011657 -0.005886 0.000000 0.000000 0.000000
# 3 -0.038105 -0.005886 0.024537 0.000000 0.000000 0.000000
# 4 0.000000 0.000000 0.000000 0.053688 0.000000 0.000000
# 5 0.000000 0.000000 0.000000 0.000000 0.027565 0.000000
# 6 0.000000 0.000000 0.000000 0.000000 0.000000 0.011827
#
#
# Mechanical properties :
#
#
# Convention : Reuss Voigt Hill
#
# Bulk Modulus (GPa) = 14.40872 41.50434 27.95653
# Shear Modulus (GPa) = 14.68119 37.52671 26.10395
#
# Velocity S-wave (km/s) = 2.82418 4.51525 3.76587
# Velocity P-wave (km/s) = 4.29681 7.05208 5.83928
#
# Compressibility (1/GPa) = 0.06940244
#
# Stress axis : x y z
#
# Youngs Moduli (GPa) = 9.03457 85.78321 40.75556
#
# Poissons Ratio (x) = -0.45058 1.55298
# Poissons Ratio (y) = -0.04745 0.23991
# Poissons Ratio (z) = 0.34426 0.50496
#
# Static dielectric constant tensor:
#      x y z
#    x 1.616590 0.000000 0.000000 
#    y 0.000000 1.642920 0.000000 
#    z 0.000000 0.000000 1.722050 
# 
# From -- ./inp_files/26615.got.cif
#   From: 2010.05.17/outbox.cif.g08.bks.cpg/sg74_14_cif.got.tgz:26615.got - 2010.06.03 17:57:02.
