data_PCOD9535178
_publ_section_title
;
Structure prediction by ZEFSAII (Michael W. Deem and Ramdas Pophale) SiO2 
 PCOD9535178
Probable space group: I M M A
;
_chemical_formula_sum "Si O2"
_cell_formula_units_Z 88
_cell_length_a 24.557901
_cell_length_b 12.270921
_cell_length_c 15.262938
_cell_angle_alpha 90.000000
_cell_angle_beta 90.000000
_cell_angle_gamma 90.000000
_cell_volume 4599.456803
_symmetry_space_group_name_H-M "I M M A"
_symmetry_group_IT_number 74
_symmetry_cell_setting 'orthorhombic'
loop_
_space_group_symop_operation_xyz
x,y,z
-x,1/2-y,z
x,-y,-z
-x,1/2+y,-z
-x,-y,-z
x,1/2+y,-z
-x,y,z
x,1/2-y,z
1/2+x,1/2+y,1/2+z
1/2-x,-y,1/2+z
1/2+x,1/2-y,1/2-z
1/2-x,y,1/2-z
1/2-x,1/2-y,1/2-z
1/2+x,y,1/2-z
1/2-x,1/2+y,1/2+z
1/2+x,-y,1/2+z
loop_
_atom_site_type_symbol
_atom_site_label
_atom_site_fract_x
_atom_site_fract_y
_atom_site_fract_z
Si Si1 0.762980 0.250000 0.851777
Si Si2 0.278539 0.516000 0.397514
Si Si3 0.936498 0.250000 0.818958
Si Si4 0.358680 0.119137 0.277307
Si Si5 0.637151 0.250000 0.847649
Si Si6 0.936541 0.512619 0.098182
Si Si7 0.647319 0.012819 0.897280
O O1 0.750000 0.250000 0.750000
O O2 0.793568 0.140449 0.875850
O O3 0.700123 0.250000 0.884383
O O4 0.290775 0.500000 0.500000
O O5 0.306618 0.435045 0.328124
O O6 0.213216 0.512544 0.388003
O O7 0.886467 0.250000 0.750749
O O8 0.931746 0.361810 0.872794
O O9 0.000000 0.250000 0.782559
O O10 0.355509 0.250000 0.278745
O O11 0.406612 0.068125 0.335803
O O12 0.367402 0.074299 0.178261
O O13 0.620284 0.370740 0.876114
O O14 0.000000 0.483991 0.097108
O O15 0.914707 0.500000 0.000000
O O16 0.635674 0.000000 0.000000
#
# Coordination Sequence:
#
# PCOD9535178 Si02
#       7
#     8  16   8  16   8  16  16
#     4  10  20  34  60  81 110 165 201 239 289 349
#     4  10  22  38  58  88 122 157 201 246 297 354
#     4  10  20  38  68  91 111 148 195 249 296 344
#     4  12  25  39  59  89 123 161 195 248 308 352
#     4  10  18  38  62  84 113 149 201 247 291 343
#     4  10  23  42  64  90 120 156 197 242 298 362
#     4  10  22  39  61  87 118 161 203 244 292 354
#
# _framework density 19.132694999999998
#
# number of rings (size 3 to 8) (size 9 to 14) (size 15 to 20)
#    0.000    1.636    1.818    3.273    3.818    1.818 
#    0.000    0.000    0.000    2.182    0.000    0.000 
#    0.000    0.000    0.000    0.000    0.000    0.000 
#
# Total GULP energy -245036.450635 kJ/mol
# GULP energy per Si atom -5569.010242 kJ/mol
# Density = 1.908915 g / cm^3
# Si number density = 19.132695 Si / 1000 Ang^3
#
#
#
# Elastic Constant Matrix: (Units=GPa)
#
#
# Indices 1 2 3 4 5 6 
#
# 1 54.6380 20.7864 28.1717 0.0000 0.0000 0.0000
# 2 20.7864 194.9170 92.2215 0.0000 0.0000 0.0000
# 3 28.1717 92.2215 155.2647 0.0000 0.0000 0.0000
# 4 0.0000 0.0000 0.0000 24.8134 0.0000 0.0000
# 5 0.0000 0.0000 0.0000 0.0000 22.8172 0.0000
# 6 0.0000 0.0000 0.0000 0.0000 0.0000 67.6571
#
#
#
# Elastic Compliance Matrix: (Units=1/GPa)
#
#
# Indices 1 2 3 4 5 6 
#
# 1 0.020239 -0.000585 -0.003325 0.000000 0.000000 0.000000
# 2 -0.000585 0.007153 -0.004142 0.000000 0.000000 0.000000
# 3 -0.003325 -0.004142 0.009504 0.000000 0.000000 0.000000
# 4 0.000000 0.000000 0.000000 0.040301 0.000000 0.000000
# 5 0.000000 0.000000 0.000000 0.000000 0.043827 0.000000
# 6 0.000000 0.000000 0.000000 0.000000 0.000000 0.014780
#
#
# Mechanical properties :
#
#
# Convention : Reuss Voigt Hill
#
# Bulk Modulus (GPa) = 48.09622 76.35321 62.22471
# Shear Modulus (GPa) = 31.47850 40.63354 36.05602
#
# Velocity S-wave (km/s) = 4.06060 4.61344 4.34582
# Velocity P-wave (km/s) = 6.86858 8.26875 7.60098
#
# Compressibility (1/GPa) = 0.02079166
#
# Stress axis : x y z
#
# Youngs Moduli (GPa) = 49.40920 139.80903 105.21746
#
# Poissons Ratio (x) = 0.08184 0.34980
# Poissons Ratio (y) = 0.02892 0.43583
# Poissons Ratio (z) = 0.16426 0.57911
#
# Static dielectric constant tensor:
#      x y z
#    x 1.681120 0.000000 0.000000 
#    y 0.000000 1.723860 0.000000 
#    z 0.000000 0.000000 1.689560 
# 
# From -- ./inp_files/37246.got.cif
#   From: 2010.05.17/outbox.cif.g08.bks.cpg/sg74_19_cif.got.tgz:37246.got - 2010.06.03 17:57:02.
