data_PCOD9535058
_publ_section_title
;
Structure prediction by ZEFSAII (Michael W. Deem and Ramdas Pophale) SiO2 
 PCOD9535058
Probable space group: I M M A
;
_chemical_formula_sum "Si O2"
_cell_formula_units_Z 88
_cell_length_a 26.275004
_cell_length_b 15.286251
_cell_length_c 10.949569
_cell_angle_alpha 90.000000
_cell_angle_beta 90.000000
_cell_angle_gamma 90.000000
_cell_volume 4397.853943
_symmetry_space_group_name_H-M "I M M A"
_symmetry_group_IT_number 74
_symmetry_cell_setting 'orthorhombic'
loop_
_space_group_symop_operation_xyz
x,y,z
-x,1/2-y,z
x,-y,-z
-x,1/2+y,-z
-x,-y,-z
x,1/2+y,-z
-x,y,z
x,1/2-y,z
1/2+x,1/2+y,1/2+z
1/2-x,-y,1/2+z
1/2+x,1/2-y,1/2-z
1/2-x,y,1/2-z
1/2-x,1/2-y,1/2-z
1/2+x,y,1/2-z
1/2-x,1/2+y,1/2+z
1/2+x,-y,1/2+z
loop_
_atom_site_type_symbol
_atom_site_label
_atom_site_fract_x
_atom_site_fract_y
_atom_site_fract_z
Si Si1 0.597292 0.651160 0.621963
Si Si2 0.000000 0.647765 0.739357
Si Si3 0.387209 0.148875 0.895646
Si Si4 0.000000 0.100460 0.538618
Si Si5 0.804626 0.528661 0.260623
Si Si6 0.672317 0.846360 0.850926
Si Si7 0.352824 0.000000 0.500000
O O1 0.587700 0.750000 0.578351
O O2 0.549894 0.611238 0.696422
O O3 0.640605 0.657120 0.725648
O O4 0.613568 0.586602 0.516026
O O5 0.000000 0.645376 0.594171
O O6 0.000000 0.750000 0.769649
O O7 0.382204 0.250000 0.855854
O O8 0.446891 0.123009 0.894879
O O9 0.349663 0.084899 0.821792
O O10 0.366651 0.145034 0.035779
O O11 0.000000 0.000000 0.500000
O O12 0.750000 0.574849 0.250000
O O13 0.797627 0.437593 0.337118
O O14 0.820854 0.507927 0.122824
O O15 0.698284 0.750000 0.865145
#
# Coordination Sequence:
#
# PCOD9535058 Si02
#       7
#    16   8  16   8  16  16   8
#     4   9  18  35  59  86 121 161 205 249 304 372
#     4  10  18  33  60  92 122 161 204 254 309 369
#     4  11  23  40  64  98 137 168 206 264 331 395
#     4  12  22  34  66 103 134 168 208 266 330 385
#     4  11  25  42  65  89 125 169 219 270 327 383
#     4   9  18  36  63  93 124 157 201 264 324 378
#     4  10  24  41  58  84 118 167 210 264 314 378
#
# _framework density 20.009758999999999
#
# number of rings (size 3 to 8) (size 9 to 14) (size 15 to 20)
#    0.000    1.818    1.818    2.455    5.091    1.818 
#    0.000    0.909    0.000    2.182    0.000    0.000 
#    0.000    0.000    0.000    0.000    0.000    0.000 
#
# Total GULP energy -245242.219245 kJ/mol
# GULP energy per Si atom -5573.686801 kJ/mol
# Density = 1.996422 g / cm^3
# Si number density = 20.009759 Si / 1000 Ang^3
#
#
#
# Elastic Constant Matrix: (Units=GPa)
#
#
# Indices 1 2 3 4 5 6 
#
# 1 112.9969 49.9758 31.6719 0.0000 0.0000 0.0000
# 2 49.9758 110.6520 41.6530 0.0000 0.0000 0.0000
# 3 31.6719 41.6530 59.4516 0.0000 0.0000 0.0000
# 4 0.0000 0.0000 0.0000 34.4515 0.0000 0.0000
# 5 0.0000 0.0000 0.0000 0.0000 25.6421 0.0000
# 6 0.0000 0.0000 0.0000 0.0000 0.0000 10.6775
#
#
#
# Elastic Compliance Matrix: (Units=1/GPa)
#
#
# Indices 1 2 3 4 5 6 
#
# 1 0.011541 -0.003936 -0.003391 0.000000 0.000000 0.000000
# 2 -0.003936 0.013617 -0.007443 0.000000 0.000000 0.000000
# 3 -0.003391 -0.007443 0.023842 0.000000 0.000000 0.000000
# 4 0.000000 0.000000 0.000000 0.029026 0.000000 0.000000
# 5 0.000000 0.000000 0.000000 0.000000 0.038998 0.000000
# 6 0.000000 0.000000 0.000000 0.000000 0.000000 0.093655
#
#
# Mechanical properties :
#
#
# Convention : Reuss Voigt Hill
#
# Bulk Modulus (GPa) = 51.38889 58.85575 55.12232
# Shear Modulus (GPa) = 20.26703 24.80753 22.53728
#
# Velocity S-wave (km/s) = 3.18599 3.52486 3.35970
# Velocity P-wave (km/s) = 6.26672 6.78554 6.53128
#
# Compressibility (1/GPa) = 0.01945946
#
# Stress axis : x y z
#
# Youngs Moduli (GPa) = 86.64753 73.43725 41.94334
#
# Poissons Ratio (x) = 0.28906 0.14221
# Poissons Ratio (y) = 0.34106 0.31220
# Poissons Ratio (z) = 0.29378 0.54663
#
# Static dielectric constant tensor:
#      x y z
#    x 1.754940 0.000000 0.000000 
#    y 0.000000 1.743580 0.000000 
#    z 0.000000 0.000000 1.682560 
# 
# From -- ./inp_files/26204.got.cif
#   From: 2010.05.17/outbox.cif.g08.bks.cpg/sg74_14_cif.got.tgz:26204.got - 2010.06.03 17:57:02.
