data_PCOD9535665
_publ_section_title
;
Structure prediction by ZEFSAII (Michael W. Deem and Ramdas Pophale) SiO2 
 PCOD9535665
Probable space group: I M M A
;
_chemical_formula_sum "Si O2"
_cell_formula_units_Z 104
_cell_length_a 7.828422
_cell_length_b 21.267236
_cell_length_c 29.862295
_cell_angle_alpha 90.000000
_cell_angle_beta 90.000000
_cell_angle_gamma 90.000000
_cell_volume 4971.740592
_symmetry_space_group_name_H-M "I M M A"
_symmetry_group_IT_number 74
_symmetry_cell_setting 'orthorhombic'
loop_
_space_group_symop_operation_xyz
x,y,z
-x,1/2-y,z
x,-y,-z
-x,1/2+y,-z
-x,-y,-z
x,1/2+y,-z
-x,y,z
x,1/2-y,z
1/2+x,1/2+y,1/2+z
1/2-x,-y,1/2+z
1/2+x,1/2-y,1/2-z
1/2-x,y,1/2-z
1/2-x,1/2-y,1/2-z
1/2+x,y,1/2-z
1/2-x,1/2+y,1/2+z
1/2+x,-y,1/2+z
loop_
_atom_site_type_symbol
_atom_site_label
_atom_site_fract_x
_atom_site_fract_y
_atom_site_fract_z
Si Si1 0.704817 0.373201 0.700175
Si Si2 0.300941 0.076697 0.048090
Si Si3 0.790722 0.181627 0.891620
Si Si4 0.206646 0.750000 0.697176
Si Si5 0.301839 0.563220 0.447645
Si Si6 0.298738 0.132035 0.138672
Si Si7 0.295735 0.516738 0.699282
O O1 0.500000 0.376117 0.697908
O O2 0.750000 0.352219 0.750000
O O3 0.762418 0.329893 0.659614
O O4 0.767565 0.445072 0.693344
O O5 0.500000 0.091904 0.040841
O O6 0.229883 0.119144 0.088585
O O7 0.288855 0.002947 0.061185
O O8 0.209708 0.079655 0.000240
O O9 0.734003 0.250000 0.907671
O O10 0.732642 0.122071 0.920130
O O11 0.000000 0.181264 0.893313
O O12 0.250000 0.750000 0.750000
O O13 0.269484 0.811481 0.669734
O O14 0.000000 0.750000 0.695919
O O15 0.500000 0.553397 0.435315
O O16 0.500000 0.144601 0.132774
O O17 0.278583 0.067135 0.165455
O O18 0.500000 0.516955 0.694106
O O19 0.250000 0.535364 0.750000
#
# Coordination Sequence:
#
# PCOD9535665 Si02
#       7
#    16  16  16   8  16  16  16
#     4   9  18  32  50  74 103 135 170 211 256 301
#     4  10  20  35  56  81 108 136 169 215 272 321
#     4   9  18  33  52  74 103 139 174 208 253 303
#     4  10  22  40  56  74 104 142 182 220 265 322
#     4  10  19  34  57  82 106 136 175 218 262 313
#     4  10  21  36  54  76 103 138 176 216 265 319
#     4  10  19  31  50  76 105 134 171 216 263 310
#
# _framework density 20.918227999999999
#
# number of rings (size 3 to 8) (size 9 to 14) (size 15 to 20)
#    0.000    2.308    0.000    3.692    0.000    5.231 
#    1.385    1.538    0.000    3.231    0.000    0.000 
#    0.000    0.000    0.000    0.000    0.000    0.000 
#
# Total GULP energy -290259.805510 kJ/mol
# GULP energy per Si atom -5581.919337 kJ/mol
# Density = 2.087062 g / cm^3
# Si number density = 20.918228 Si / 1000 Ang^3
#
#
#
# Elastic Constant Matrix: (Units=GPa)
#
#
# Indices 1 2 3 4 5 6 
#
# 1 28.9747 -0.2906 -5.7418 0.0000 0.0000 0.0000
# 2 -0.2906 63.1416 56.9008 0.0000 0.0000 0.0000
# 3 -5.7418 56.9008 98.0132 0.0000 0.0000 0.0000
# 4 0.0000 0.0000 0.0000 31.4018 0.0000 0.0000
# 5 0.0000 0.0000 0.0000 0.0000 20.8688 0.0000
# 6 0.0000 0.0000 0.0000 0.0000 0.0000 13.6857
#
#
#
# Elastic Compliance Matrix: (Units=1/GPa)
#
#
# Indices 1 2 3 4 5 6 
#
# 1 0.035297 -0.003567 0.004139 0.000000 0.000000 0.000000
# 2 -0.003567 0.033574 -0.019700 0.000000 0.000000 0.000000
# 3 0.004139 -0.019700 0.021882 0.000000 0.000000 0.000000
# 4 0.000000 0.000000 0.000000 0.031845 0.000000 0.000000
# 5 0.000000 0.000000 0.000000 0.000000 0.047918 0.000000
# 6 0.000000 0.000000 0.000000 0.000000 0.000000 0.073069
#
#
# Mechanical properties :
#
#
# Convention : Reuss Voigt Hill
#
# Bulk Modulus (GPa) = 19.04912 32.42960 25.73936
# Shear Modulus (GPa) = 16.70334 22.47534 19.58934
#
# Velocity S-wave (km/s) = 2.82885 3.28142 3.06350
# Velocity P-wave (km/s) = 4.44928 5.46751 4.98446
#
# Compressibility (1/GPa) = 0.05249586
#
# Stress axis : x y z
#
# Youngs Moduli (GPa) = 28.33087 29.78504 45.70000
#
# Poissons Ratio (x) = 0.10625 -0.18914
# Poissons Ratio (y) = 0.10106 0.90029
# Poissons Ratio (z) = -0.11725 0.58677
#
# Static dielectric constant tensor:
#      x y z
#    x 1.763270 0.000000 0.000000 
#    y 0.000000 1.742060 0.000000 
#    z 0.000000 0.000000 1.746660 
# 
# From -- ./inp_files/70552.got.cif
#   From: 2010.05.17/outbox.cif.g08.bks.cpg/sg74_36_cif.got.tgz:70552.got - 2010.06.03 17:57:02.
