data_PCOD9535143
_publ_section_title
;
Structure prediction by ZEFSAII (Michael W. Deem and Ramdas Pophale) SiO2 
 PCOD9535143
Probable space group: I M M A
;
_chemical_formula_sum "Si O2"
_cell_formula_units_Z 72
_cell_length_a 27.371948
_cell_length_b 14.559025
_cell_length_c 9.043227
_cell_angle_alpha 90.000000
_cell_angle_beta 90.000000
_cell_angle_gamma 90.000000
_cell_volume 3603.806220
_symmetry_space_group_name_H-M "I M M A"
_symmetry_group_IT_number 74
_symmetry_cell_setting 'orthorhombic'
loop_
_space_group_symop_operation_xyz
x,y,z
-x,1/2-y,z
x,-y,-z
-x,1/2+y,-z
-x,-y,-z
x,1/2+y,-z
-x,y,z
x,1/2-y,z
1/2+x,1/2+y,1/2+z
1/2-x,-y,1/2+z
1/2+x,1/2-y,1/2-z
1/2-x,y,1/2-z
1/2-x,1/2-y,1/2-z
1/2+x,y,1/2-z
1/2-x,1/2+y,1/2+z
1/2+x,-y,1/2+z
loop_
_atom_site_type_symbol
_atom_site_label
_atom_site_fract_x
_atom_site_fract_y
_atom_site_fract_z
Si Si1 0.308833 0.250000 0.789665
Si Si2 0.708966 0.437711 0.365302
Si Si3 0.551788 0.750000 0.532947
Si Si4 0.355252 0.559266 0.148840
Si Si5 0.555486 0.060787 0.639824
Si Si6 0.158012 0.250000 0.041040
O O1 0.250000 0.250000 0.750000
O O2 0.326785 0.343390 0.869750
O O3 0.339628 0.250000 0.636957
O O4 0.728419 0.500000 0.500000
O O5 0.750000 0.411320 0.250000
O O6 0.672871 0.503839 0.276446
O O7 0.684086 0.344362 0.417021
O O8 0.500000 0.750000 0.618100
O O9 0.552493 0.838624 0.429746
O O10 0.603979 0.750000 0.611770
O O11 0.409430 0.566010 0.219213
O O12 0.355470 0.500000 0.000000
O O13 0.500000 0.028608 0.674203
O O14 0.574224 0.000000 0.500000
#
# Coordination Sequence:
#
# PCOD9535143 Si02
#       6
#     8  16   8  16  16   8
#     4  12  26  44  67  91 132 178 213 266 329 390
#     4  12  25  42  64  94 130 174 223 270 324 385
#     4  10  18  35  65  95 123 165 213 260 322 387
#     4  12  25  42  66  93 135 172 217 265 326 390
#     4  10  20  38  65  95 126 166 216 267 322 384
#     4  12  23  41  68  95 133 166 221 276 323 387
#
# _framework density 19.978877000000001
#
# number of rings (size 3 to 8) (size 9 to 14) (size 15 to 20)
#    0.000    0.667    4.444    3.667    3.111    1.333 
#    0.000    1.111    0.000    0.000    0.000    0.000 
#    0.000    0.000    0.000    0.000    0.000    0.000 
#
# Total GULP energy -201019.976680 kJ/mol
# GULP energy per Si atom -5583.888241 kJ/mol
# Density = 1.993340 g / cm^3
# Si number density = 19.978877 Si / 1000 Ang^3
#
#
#
# Elastic Constant Matrix: (Units=GPa)
#
#
# Indices 1 2 3 4 5 6 
#
# 1 108.9644 32.2331 24.2157 0.0000 0.0000 0.0000
# 2 32.2331 159.5909 49.3168 0.0000 0.0000 0.0000
# 3 24.2157 49.3168 76.5743 0.0000 0.0000 0.0000
# 4 0.0000 0.0000 0.0000 -0.5629 0.0000 0.0000
# 5 0.0000 0.0000 0.0000 0.0000 29.3775 0.0000
# 6 0.0000 0.0000 0.0000 0.0000 0.0000 20.6504
#
#
#
# Elastic Compliance Matrix: (Units=1/GPa)
#
#
# Indices 1 2 3 4 5 6 
#
# 1 0.010087 -0.001313 -0.002344 0.000000 0.000000 0.000000
# 2 -0.001313 0.007994 -0.004733 0.000000 0.000000 0.000000
# 3 -0.002344 -0.004733 0.016849 0.000000 0.000000 0.000000
# 4 0.000000 0.000000 0.000000 -1.776590 0.000000 0.000000
# 5 0.000000 0.000000 0.000000 0.000000 0.034040 0.000000
# 6 0.000000 0.000000 0.000000 0.000000 0.000000 0.048425
#
#
# Mechanical properties :
#
#
# Convention : Reuss Voigt Hill
#
# Bulk Modulus (GPa) = 55.09990 61.85119 58.47555
# Shear Modulus (GPa) = -3.05555 25.85061 11.39753
#
# Velocity S-wave (km/s) = -1.23803 3.60098 2.39106
# Velocity P-wave (km/s) = 5.05918 6.95089 6.07907
#
# Compressibility (1/GPa) = 0.01814885
#
# Stress axis : x y z
#
# Youngs Moduli (GPa) = 99.14115 125.09669 59.35106
#
# Poissons Ratio (x) = 0.16423 0.13914
# Poissons Ratio (y) = 0.13015 0.28092
# Poissons Ratio (z) = 0.23241 0.59210
#
# Static dielectric constant tensor:
#      x y z
#    x 1.821870 0.000000 0.000000 
#    y 0.000000 1.875020 0.000000 
#    z 0.000000 0.000000 1.671110 
# 
# From -- ./inp_files/9221.got.cif
#   From: 2010.05.17/outbox.cif.g08.bks.cpg/sg74_5_cif.got.tgz:9221.got - 2010.06.03 17:57:02.
