data_PCOD9535344
_publ_section_title
;
Structure prediction by ZEFSAII (Michael W. Deem and Ramdas Pophale) SiO2 
 PCOD9535344
Probable space group: I M M A
;
_chemical_formula_sum "Si O2"
_cell_formula_units_Z 128
_cell_length_a 15.041717
_cell_length_b 18.974364
_cell_length_c 23.453140
_cell_angle_alpha 90.000000
_cell_angle_beta 90.000000
_cell_angle_gamma 90.000000
_cell_volume 6693.690646
_symmetry_space_group_name_H-M "I M M A"
_symmetry_group_IT_number 74
_symmetry_cell_setting 'orthorhombic'
loop_
_space_group_symop_operation_xyz
x,y,z
-x,1/2-y,z
x,-y,-z
-x,1/2+y,-z
-x,-y,-z
x,1/2+y,-z
-x,y,z
x,1/2-y,z
1/2+x,1/2+y,1/2+z
1/2-x,-y,1/2+z
1/2+x,1/2-y,1/2-z
1/2-x,y,1/2-z
1/2-x,1/2-y,1/2-z
1/2+x,y,1/2-z
1/2-x,1/2+y,1/2+z
1/2+x,-y,1/2+z
loop_
_atom_site_type_symbol
_atom_site_label
_atom_site_fract_x
_atom_site_fract_y
_atom_site_fract_z
Si Si1 0.622177 0.172374 0.844824
Si Si2 0.344973 0.447647 0.281751
Si Si3 0.734892 0.079930 0.507916
Si Si4 0.355518 0.395695 0.730700
Si Si5 0.400426 0.331330 0.198429
Si Si6 0.826142 0.670033 0.113731
Si Si7 0.600132 0.538411 0.079190
Si Si8 0.270290 0.088036 0.116903
O O1 0.589767 0.250000 0.860477
O O2 0.606639 0.155714 0.778638
O O3 0.726249 0.174494 0.860973
O O4 0.590893 0.104012 0.878356
O O5 0.250000 0.448281 0.250000
O O6 0.386986 0.523333 0.268312
O O7 0.394273 0.382338 0.253121
O O8 0.315094 0.437719 0.347032
O O9 0.683549 0.123578 0.556408
O O10 0.837363 0.068776 0.528842
O O11 0.740273 0.113271 0.445363
O O12 0.699157 0.000000 0.500000
O O13 0.250000 0.398550 0.750000
O O14 0.372947 0.367218 0.667274
O O15 0.500000 0.338705 0.173725
O O16 0.386706 0.250000 0.214207
O O17 0.325884 0.356039 0.153661
O O18 0.857318 0.750000 0.102866
O O19 0.500000 0.514345 0.064903
O O20 0.661497 0.477669 0.107334
#
# Coordination Sequence:
#
# PCOD9535344 Si02
#       8
#    16  16  16  16  16  16  16  16
#     4   9  16  25  38  58  83 115 156 197 239 285
#     4   9  17  30  49  70  92 120 153 195 243 289
#     4   9  18  30  43  63  92 127 167 203 235 276
#     4   9  14  24  42  64  87 113 148 190 237 285
#     4  10  21  35  50  70  96 124 156 198 247 295
#     4   9  16  26  41  62  90 119 150 195 243 279
#     4  10  19  30  44  63  93 132 170 207 243 279
#     4  10  19  31  49  68  91 126 165 199 234 283
#
# _framework density 19.122485000000001
#
# number of rings (size 3 to 8) (size 9 to 14) (size 15 to 20)
#    0.000    2.625    0.000    5.250    0.000    7.250 
#    0.000    0.000    0.000    0.000    0.000    0.000 
#    0.000   13.500    0.000    1.125    0.000    0.000 
#
# Total GULP energy -356375.322586 kJ/mol
# GULP energy per Si atom -5568.364415 kJ/mol
# Density = 1.907896 g / cm^3
# Si number density = 19.122485 Si / 1000 Ang^3
#
#
#
# Elastic Constant Matrix: (Units=GPa)
#
#
# Indices 1 2 3 4 5 6 
#
# 1 9.4660 3.0378 -4.0431 0.0000 0.0000 0.0000
# 2 3.0378 123.9231 49.1124 0.0000 0.0000 0.0000
# 3 -4.0431 49.1124 130.8436 0.0000 0.0000 0.0000
# 4 0.0000 0.0000 0.0000 17.6404 0.0000 0.0000
# 5 0.0000 0.0000 0.0000 0.0000 -1.7581 0.0000
# 6 0.0000 0.0000 0.0000 0.0000 0.0000 20.3599
#
#
#
# Elastic Compliance Matrix: (Units=1/GPa)
#
#
# Indices 1 2 3 4 5 6 
#
# 1 0.109357 -0.004722 0.005152 0.000000 0.000000 0.000000
# 2 -0.004722 0.009684 -0.003781 0.000000 0.000000 0.000000
# 3 0.005152 -0.003781 0.009221 0.000000 0.000000 0.000000
# 4 0.000000 0.000000 0.000000 0.056688 0.000000 0.000000
# 5 0.000000 0.000000 0.000000 0.000000 -0.568791 0.000000
# 6 0.000000 0.000000 0.000000 0.000000 0.000000 0.049116
#
#
# Mechanical properties :
#
#
# Convention : Reuss Voigt Hill
#
# Bulk Modulus (GPa) = 8.22650 40.04965 24.13807
# Shear Modulus (GPa) = -17.39109 21.65682 2.13287
#
# Velocity S-wave (km/s) = -3.01899 3.36896 1.05726
# Velocity P-wave (km/s) = 2.80019 6.01019 3.76041
#
# Compressibility (1/GPa) = 0.12155841
#
# Stress axis : x y z
#
# Youngs Moduli (GPa) = 9.14440 103.26716 108.44825
#
# Poissons Ratio (x) = 0.48766 -0.55869
# Poissons Ratio (y) = 0.04318 0.41001
# Poissons Ratio (z) = -0.04711 0.39042
#
# Static dielectric constant tensor:
#      x y z
#    x 1.719280 0.000000 0.000000 
#    y 0.000000 1.673340 0.000000 
#    z 0.000000 0.000000 1.699100 
# 
# From -- ./inp_files/61142.got.cif
#   From: 2010.05.17/outbox.cif.g08.bks.cpg/sg74_31_cif.got.tgz:61142.got - 2010.06.03 17:57:02.
