data_PCOD9535725
_publ_section_title
;
Structure prediction by ZEFSAII (Michael W. Deem and Ramdas Pophale) SiO2 
 PCOD9535725
Probable space group: I M M A
;
_chemical_formula_sum "Si O2"
_cell_formula_units_Z 84
_cell_length_a 14.167708
_cell_length_b 13.593080
_cell_length_c 26.825362
_cell_angle_alpha 90.000000
_cell_angle_beta 90.000000
_cell_angle_gamma 90.000000
_cell_volume 5166.103010
_symmetry_space_group_name_H-M "I M M A"
_symmetry_group_IT_number 74
_symmetry_cell_setting 'orthorhombic'
loop_
_space_group_symop_operation_xyz
x,y,z
-x,1/2-y,z
x,-y,-z
-x,1/2+y,-z
-x,-y,-z
x,1/2+y,-z
-x,y,z
x,1/2-y,z
1/2+x,1/2+y,1/2+z
1/2-x,-y,1/2+z
1/2+x,1/2-y,1/2-z
1/2-x,y,1/2-z
1/2-x,1/2-y,1/2-z
1/2+x,y,1/2-z
1/2-x,1/2+y,1/2+z
1/2+x,-y,1/2+z
loop_
_atom_site_type_symbol
_atom_site_label
_atom_site_fract_x
_atom_site_fract_y
_atom_site_fract_z
Si Si1 0.000000 0.750000 0.224674
Si Si2 0.613997 0.750000 0.439082
Si Si3 0.700433 0.750000 0.331887
Si Si4 0.288558 0.463557 0.806195
Si Si5 0.500000 0.537948 0.222815
Si Si6 0.000000 0.639553 0.802721
Si Si7 0.190461 0.136757 0.132460
Si Si8 0.892716 0.394981 0.024756
O O1 0.901740 0.750000 0.194733
O O2 0.000000 0.647310 0.253938
O O3 0.500000 0.750000 0.428303
O O4 0.674030 0.750000 0.389742
O O5 0.638487 0.663161 0.476175
O O6 0.753879 0.851880 0.318410
O O7 0.250000 0.484444 0.750000
O O8 0.401606 0.469648 0.806098
O O9 0.249606 0.547814 0.843184
O O10 0.500000 0.450896 0.264211
O O11 0.908439 0.632829 0.837675
O O12 0.000000 0.750000 0.779362
O O13 0.226899 0.250000 0.138242
O O14 0.168989 0.117665 0.074102
O O15 0.000000 0.363777 0.038481
O O16 0.897808 0.500000 0.000000
#
# Coordination Sequence:
#
# PCOD9535725 Si02
#       8
#     4   8   8  16   8   8  16  16
#     4  12  20  34  62  80 124 152 184 244 286 338
#     4  10  20  32  53  84 118 146 181 222 276 349
#     4  12  22  38  57  89 119 159 190 229 293 355
#     4  12  24  38  58  83 114 156 201 237 287 345
#     4  12  24  40  54  83 113 153 204 244 283 330
#     4  10  20  32  56  80 116 157 188 233 278 339
#     4  11  21  36  56  82 119 159 191 228 287 349
#     4  10  19  31  51  81 117 151 182 225 280 344
#
# _framework density 16.259837999999998
#
# number of rings (size 3 to 8) (size 9 to 14) (size 15 to 20)
#    0.000    0.952    6.190    2.000    0.000    1.143 
#    0.000    0.000    0.000    0.000    0.000    7.333 
#    0.000    0.000    0.000    0.000    0.000    0.000 
#
# Total GULP energy -234026.250724 kJ/mol
# GULP energy per Si atom -5572.053589 kJ/mol
# Density = 1.622283 g / cm^3
# Si number density = 16.259838 Si / 1000 Ang^3
#
#
#
# Elastic Constant Matrix: (Units=GPa)
#
#
# Indices 1 2 3 4 5 6 
#
# 1 104.2598 38.3239 35.9569 0.0000 0.0000 0.0000
# 2 38.3239 130.0283 41.3621 0.0000 0.0000 0.0000
# 3 35.9569 41.3621 91.2445 0.0000 0.0000 0.0000
# 4 0.0000 0.0000 0.0000 32.7456 0.0000 0.0000
# 5 0.0000 0.0000 0.0000 0.0000 25.9877 0.0000
# 6 0.0000 0.0000 0.0000 0.0000 0.0000 10.6345
#
#
#
# Elastic Compliance Matrix: (Units=1/GPa)
#
#
# Indices 1 2 3 4 5 6 
#
# 1 0.011664 -0.002309 -0.003550 0.000000 0.000000 0.000000
# 2 -0.002309 0.009443 -0.003371 0.000000 0.000000 0.000000
# 3 -0.003550 -0.003371 0.013887 0.000000 0.000000 0.000000
# 4 0.000000 0.000000 0.000000 0.030538 0.000000 0.000000
# 5 0.000000 0.000000 0.000000 0.000000 0.038480 0.000000
# 6 0.000000 0.000000 0.000000 0.000000 0.000000 0.094033
#
#
# Mechanical properties :
#
#
# Convention : Reuss Voigt Hill
#
# Bulk Modulus (GPa) = 60.47782 61.86870 61.17326
# Shear Modulus (GPa) = 22.52080 27.86622 25.19351
#
# Velocity S-wave (km/s) = 3.72567 4.14431 3.94055
# Velocity P-wave (km/s) = 7.46879 7.81236 7.64251
#
# Compressibility (1/GPa) = 0.01653499
#
# Stress axis : x y z
#
# Youngs Moduli (GPa) = 85.73120 105.89421 72.01144
#
# Poissons Ratio (x) = 0.24447 0.25565
# Poissons Ratio (y) = 0.19792 0.24275
# Poissons Ratio (z) = 0.30435 0.35697
#
# Static dielectric constant tensor:
#      x y z
#    x 1.528150 0.000000 0.000000 
#    y 0.000000 1.554430 0.000000 
#    z 0.000000 0.000000 1.525700 
# 
# From -- ./inp_files/60011.got.cif
#   From: 2010.05.17/outbox.cif.g08.bks.cpg/sg74_31_cif.got.tgz:60011.got - 2010.06.03 17:57:02.
