data_PCOD9535847
_publ_section_title
;
Structure prediction by ZEFSAII (Michael W. Deem and Ramdas Pophale) SiO2 
 PCOD9535847
Probable space group: I M M A
;
_chemical_formula_sum "Si O2"
_cell_formula_units_Z 96
_cell_length_a 7.666409
_cell_length_b 20.926514
_cell_length_c 29.463403
_cell_angle_alpha 90.000000
_cell_angle_beta 90.000000
_cell_angle_gamma 90.000000
_cell_volume 4726.849549
_symmetry_space_group_name_H-M "I M M A"
_symmetry_group_IT_number 74
_symmetry_cell_setting 'orthorhombic'
loop_
_space_group_symop_operation_xyz
x,y,z
-x,1/2-y,z
x,-y,-z
-x,1/2+y,-z
-x,-y,-z
x,1/2+y,-z
-x,y,z
x,1/2-y,z
1/2+x,1/2+y,1/2+z
1/2-x,-y,1/2+z
1/2+x,1/2-y,1/2-z
1/2-x,y,1/2-z
1/2-x,1/2-y,1/2-z
1/2+x,y,1/2-z
1/2-x,1/2+y,1/2+z
1/2+x,-y,1/2+z
loop_
_atom_site_type_symbol
_atom_site_label
_atom_site_fract_x
_atom_site_fract_y
_atom_site_fract_z
Si Si1 0.207817 0.541820 0.196890
Si Si2 0.202715 0.543488 0.040073
Si Si3 0.296943 0.547089 0.880710
Si Si4 0.788454 0.679667 0.580781
Si Si5 0.290219 0.318877 0.695983
Si Si6 0.794867 0.319699 0.974527
O O1 0.250000 0.537328 0.250000
O O2 0.278588 0.482234 0.168961
O O3 0.274000 0.611710 0.179565
O O4 0.000000 0.541882 0.191562
O O5 0.207922 0.502679 0.085423
O O6 0.000000 0.554162 0.027079
O O7 0.281982 0.500000 0.000000
O O8 0.279847 0.614394 0.045079
O O9 0.500000 0.547054 0.893202
O O10 0.231066 0.618746 0.889934
O O11 0.732977 0.750000 0.597331
O O12 0.722997 0.672998 0.529081
O O13 0.000000 0.679735 0.579195
O O14 0.500000 0.318848 0.690469
O O15 0.225325 0.250000 0.677864
O O16 0.250000 0.318687 0.750000
O O17 0.718488 0.250000 0.962582
O O18 0.000000 0.316441 0.962401
#
# Coordination Sequence:
#
# PCOD9535847 Si02
#       6
#    16  16  16  16  16  16
#     4  10  20  35  55  77 104 135 170 214 260 305
#     4  10  19  32  50  74 104 135 168 209 254 300
#     4  11  22  34  52  77 104 135 172 210 255 309
#     4   9  18  32  50  73 100 130 166 209 254 302
#     4   8  14  26  46  71  95 122 158 199 243 290
#     4   9  17  30  49  72 100 136 174 210 250 299
#
# _framework density 20.30951
#
# number of rings (size 3 to 8) (size 9 to 14) (size 15 to 20)
#    0.000    2.500    1.667    1.000    0.000    2.333 
#    0.000    0.833    0.000    5.500    0.000    0.000 
#    0.000    0.000    0.000    0.000    0.000    0.000 
#
# Total GULP energy -267523.294335 kJ/mol
# GULP energy per Si atom -5573.401965 kJ/mol
# Density = 2.026328 g / cm^3
# Si number density = 20.309510 Si / 1000 Ang^3
#
#
#
# Elastic Constant Matrix: (Units=GPa)
#
#
# Indices 1 2 3 4 5 6 
#
# 1 40.4250 9.6526 -10.0356 0.0000 0.0000 0.0000
# 2 9.6526 216.0943 41.6805 0.0000 0.0000 0.0000
# 3 -10.0356 41.6805 34.6138 0.0000 0.0000 0.0000
# 4 0.0000 0.0000 0.0000 20.4930 0.0000 0.0000
# 5 0.0000 0.0000 0.0000 0.0000 27.9948 0.0000
# 6 0.0000 0.0000 0.0000 0.0000 0.0000 6.7671
#
#
#
# Elastic Compliance Matrix: (Units=1/GPa)
#
#
# Indices 1 2 3 4 5 6 
#
# 1 0.028846 -0.003779 0.012914 0.000000 0.000000 0.000000
# 2 -0.003779 0.006523 -0.008950 0.000000 0.000000 0.000000
# 3 0.012914 -0.008950 0.043412 0.000000 0.000000 0.000000
# 4 0.000000 0.000000 0.000000 0.048797 0.000000 0.000000
# 5 0.000000 0.000000 0.000000 0.000000 0.035721 0.000000
# 6 0.000000 0.000000 0.000000 0.000000 0.000000 0.147773
#
#
# Mechanical properties :
#
#
# Convention : Reuss Voigt Hill
#
# Bulk Modulus (GPa) = 12.63436 41.52535 27.07985
# Shear Modulus (GPa) = 14.83306 27.70670 21.26988
#
# Velocity S-wave (km/s) = 2.70543 3.69755 3.23969
# Velocity P-wave (km/s) = 3.99919 6.22252 5.23036
#
# Compressibility (1/GPa) = 0.07914927
#
# Stress axis : x y z
#
# Youngs Moduli (GPa) = 34.66737 153.30968 23.03524
#
# Poissons Ratio (x) = 0.57942 -0.29748
# Poissons Ratio (y) = 0.13102 0.20617
# Poissons Ratio (z) = -0.44770 1.37215
#
# Static dielectric constant tensor:
#      x y z
#    x 1.982690 0.000000 0.000000 
#    y 0.000000 1.808420 0.000000 
#    z 0.000000 0.000000 1.683650 
# 
# From -- ./inp_files/64307.got.cif
#   From: 2010.05.17/outbox.cif.g08.bks.cpg/sg74_33_cif.got.tgz:64307.got - 2010.06.03 17:57:02.
