data_PCOD9535111
_publ_section_title
;
Structure prediction by ZEFSAII (Michael W. Deem and Ramdas Pophale) SiO2 
 PCOD9535111
Probable space group: I M M A
;
_chemical_formula_sum "Si O2"
_cell_formula_units_Z 84
_cell_length_a 20.938520
_cell_length_b 13.023483
_cell_length_c 15.712690
_cell_angle_alpha 90.000000
_cell_angle_beta 90.000000
_cell_angle_gamma 90.000000
_cell_volume 4284.732078
_symmetry_space_group_name_H-M "I M M A"
_symmetry_group_IT_number 74
_symmetry_cell_setting 'orthorhombic'
loop_
_space_group_symop_operation_xyz
x,y,z
-x,1/2-y,z
x,-y,-z
-x,1/2+y,-z
-x,-y,-z
x,1/2+y,-z
-x,y,z
x,1/2-y,z
1/2+x,1/2+y,1/2+z
1/2-x,-y,1/2+z
1/2+x,1/2-y,1/2-z
1/2-x,y,1/2-z
1/2-x,1/2-y,1/2-z
1/2+x,y,1/2-z
1/2-x,1/2+y,1/2+z
1/2+x,-y,1/2+z
loop_
_atom_site_type_symbol
_atom_site_label
_atom_site_fract_x
_atom_site_fract_y
_atom_site_fract_z
Si Si1 0.500000 0.957145 0.884674
Si Si2 0.360417 0.750000 0.021087
Si Si3 0.742837 0.250000 0.648358
Si Si4 0.500000 0.369779 0.298834
Si Si5 0.775619 0.471840 0.903138
Si Si6 0.861748 0.439094 0.390341
Si Si7 0.500000 0.250000 0.003494
Si Si8 0.859958 0.367634 0.196086
O O1 0.500000 0.940291 0.784079
O O2 0.429163 0.998438 0.904732
O O3 0.500000 0.848386 0.934261
O O4 0.351858 0.849549 0.959910
O O5 0.434547 0.750000 0.048130
O O6 0.309925 0.750000 0.096825
O O7 0.750000 0.250000 0.750000
O O8 0.708752 0.354975 0.619917
O O9 0.500000 0.250000 0.270267
O O10 0.568639 0.384127 0.342005
O O11 0.699776 0.489239 0.891234
O O12 0.811297 0.551721 0.842464
O O13 0.791377 0.500000 0.000000
O O14 0.865443 0.385584 0.297638
O O15 0.840153 0.250000 0.180366
#
# Coordination Sequence:
#
# PCOD9535111 Si02
#       8
#     8   8   8   8  16  16   4  16
#     4   8  14  26  54  85 130 157 175 228 308 376
#     4  10  18  34  60  92 125 156 193 242 301 365
#     4  12  26  46  59  77 126 178 210 245 309 375
#     4   8  14  30  53  92 126 147 179 235 321 388
#     4  12  26  40  59  87 119 166 217 259 303 356
#     4  10  18  35  58  95 125 153 192 246 306 365
#     4   8  14  26  52  90 124 154 184 230 296 370
#     4  10  20  34  64  95 122 151 190 254 318 369
#
# _framework density 19.604493000000002
#
# number of rings (size 3 to 8) (size 9 to 14) (size 15 to 20)
#    0.000    1.905    3.333    1.714    2.667    0.762 
#    0.000    1.905    0.000    1.714    0.000    0.000 
#    0.000    0.000    0.000    0.000    0.000    0.000 
#
# Total GULP energy -234439.559208 kJ/mol
# GULP energy per Si atom -5581.894267 kJ/mol
# Density = 1.955987 g / cm^3
# Si number density = 19.604493 Si / 1000 Ang^3
#
#
#
# Elastic Constant Matrix: (Units=GPa)
#
#
# Indices 1 2 3 4 5 6 
#
# 1 108.3007 48.0371 38.3953 0.0000 0.0000 0.0000
# 2 48.0371 127.8991 37.7252 0.0000 0.0000 0.0000
# 3 38.3953 37.7252 88.2792 0.0000 0.0000 0.0000
# 4 0.0000 0.0000 0.0000 28.5668 0.0000 0.0000
# 5 0.0000 0.0000 0.0000 0.0000 16.2771 0.0000
# 6 0.0000 0.0000 0.0000 0.0000 0.0000 -2.2134
#
#
#
# Elastic Compliance Matrix: (Units=1/GPa)
#
#
# Indices 1 2 3 4 5 6 
#
# 1 0.012099 -0.003424 -0.003799 0.000000 0.000000 0.000000
# 2 -0.003424 0.009915 -0.002748 0.000000 0.000000 0.000000
# 3 -0.003799 -0.002748 0.014154 0.000000 0.000000 0.000000
# 4 0.000000 0.000000 0.000000 0.035006 0.000000 0.000000
# 5 0.000000 0.000000 0.000000 0.000000 0.061436 0.000000
# 6 0.000000 0.000000 0.000000 0.000000 0.000000 -0.451784
#
#
# Mechanical properties :
#
#
# Convention : Reuss Voigt Hill
#
# Bulk Modulus (GPa) = 61.62643 63.64379 62.63511
# Shear Modulus (GPa) = -17.01706 21.88085 2.43189
#
# Velocity S-wave (km/s) = -2.94941 3.34445 1.11498
# Velocity P-wave (km/s) = 4.46143 6.88826 5.80313
#
# Compressibility (1/GPa) = 0.01622680
#
# Stress axis : x y z
#
# Youngs Moduli (GPa) = 82.65142 100.85627 70.64919
#
# Poissons Ratio (x) = 0.34529 0.26841
# Poissons Ratio (y) = 0.28297 0.19415
# Poissons Ratio (z) = 0.31401 0.27716
#
# Static dielectric constant tensor:
#      x y z
#    x 1.744160 0.000000 0.000000 
#    y 0.000000 1.702960 0.000000 
#    z 0.000000 0.000000 1.675150 
# 
# From -- ./inp_files/30854.got.cif
#   From: 2010.05.17/outbox.cif.g08.bks.cpg/sg74_16_cif.got.tgz:30854.got - 2010.06.03 17:57:02.
