data_PCOD9535691
_publ_section_title
;
Structure prediction by ZEFSAII (Michael W. Deem and Ramdas Pophale) SiO2 
 PCOD9535691
Probable space group: I M M A
;
_chemical_formula_sum "Si O2"
_cell_formula_units_Z 104
_cell_length_a 17.662685
_cell_length_b 13.266575
_cell_length_c 22.960426
_cell_angle_alpha 90.000000
_cell_angle_beta 90.000000
_cell_angle_gamma 90.000000
_cell_volume 5380.163599
_symmetry_space_group_name_H-M "I M M A"
_symmetry_group_IT_number 74
_symmetry_cell_setting 'orthorhombic'
loop_
_space_group_symop_operation_xyz
x,y,z
-x,1/2-y,z
x,-y,-z
-x,1/2+y,-z
-x,-y,-z
x,1/2+y,-z
-x,y,z
x,1/2-y,z
1/2+x,1/2+y,1/2+z
1/2-x,-y,1/2+z
1/2+x,1/2-y,1/2-z
1/2-x,y,1/2-z
1/2-x,1/2-y,1/2-z
1/2+x,y,1/2-z
1/2-x,1/2+y,1/2+z
1/2+x,-y,1/2+z
loop_
_atom_site_type_symbol
_atom_site_label
_atom_site_fract_x
_atom_site_fract_y
_atom_site_fract_z
Si Si1 0.280756 0.500000 0.000000
Si Si2 0.771245 0.636992 0.681793
Si Si3 0.914148 0.864582 0.521617
Si Si4 0.721305 0.063811 0.616605
Si Si5 0.909971 0.134029 0.803755
Si Si6 0.613019 0.358920 0.882415
Si Si7 0.417898 0.027225 0.203690
O O1 0.340389 0.430460 0.036561
O O2 0.228324 0.446048 0.953005
O O3 0.754817 0.750000 0.660314
O O4 0.750000 0.631240 0.750000
O O5 0.732137 0.546536 0.646162
O O6 0.860130 0.612313 0.684590
O O7 0.906794 0.750000 0.542805
O O8 0.905968 0.861721 0.450965
O O9 0.000000 0.899493 0.535888
O O10 0.646017 0.112530 0.642534
O O11 0.797318 0.127708 0.629829
O O12 0.897600 0.250000 0.783945
O O13 0.891574 0.048769 0.755288
O O14 0.000000 0.124544 0.816689
O O15 0.588058 0.250000 0.860357
O O16 0.576844 0.451841 0.850415
O O17 0.500000 0.067895 0.219633
#
# Coordination Sequence:
#
# PCOD9535691 Si02
#       7
#     8  16  16  16  16  16  16
#     4  10  21  34  53  74 102 138 180 222 265 304
#     4  10  20  36  55  75 103 140 180 222 263 303
#     4   9  17  30  48  72 103 138 174 210 251 298
#     4  10  20  36  53  77 104 138 178 221 262 315
#     4  10  20  34  54  80 108 134 162 206 267 328
#     4   9  17  28  48  77 110 142 168 199 247 310
#     4  10  19  31  50  79 111 140 172 208 252 310
#
# _framework density 19.330268
#
# number of rings (size 3 to 8) (size 9 to 14) (size 15 to 20)
#    0.000    2.308    1.538    1.615    0.000    3.077 
#    0.000    3.462    0.000    0.462    0.000    0.000 
#    0.000    0.000    0.000    0.000    0.000    0.000 
#
# Total GULP energy -289899.515843 kJ/mol
# GULP energy per Si atom -5574.990689 kJ/mol
# Density = 1.928627 g / cm^3
# Si number density = 19.330268 Si / 1000 Ang^3
#
#
#
# Elastic Constant Matrix: (Units=GPa)
#
#
# Indices 1 2 3 4 5 6 
#
# 1 54.6496 7.0316 17.4431 0.0000 0.0000 0.0000
# 2 7.0316 72.9898 -2.7046 0.0000 0.0000 0.0000
# 3 17.4431 -2.7046 44.9855 0.0000 0.0000 0.0000
# 4 0.0000 0.0000 0.0000 17.4493 0.0000 0.0000
# 5 0.0000 0.0000 0.0000 0.0000 19.4860 0.0000
# 6 0.0000 0.0000 0.0000 0.0000 0.0000 29.7320
#
#
#
# Elastic Compliance Matrix: (Units=1/GPa)
#
#
# Indices 1 2 3 4 5 6 
#
# 1 0.021281 -0.002361 -0.008394 0.000000 0.000000 0.000000
# 2 -0.002361 0.013993 0.001757 0.000000 0.000000 0.000000
# 3 -0.008394 0.001757 0.025590 0.000000 0.000000 0.000000
# 4 0.000000 0.000000 0.000000 0.057309 0.000000 0.000000
# 5 0.000000 0.000000 0.000000 0.000000 0.051319 0.000000
# 6 0.000000 0.000000 0.000000 0.000000 0.000000 0.033634
#
#
# Mechanical properties :
#
#
# Convention : Reuss Voigt Hill
#
# Bulk Modulus (GPa) = 23.32749 24.01834 23.67291
# Shear Modulus (GPa) = 21.23942 23.39045 22.31494
#
# Velocity S-wave (km/s) = 3.31836 3.48234 3.40134
# Velocity P-wave (km/s) = 5.17456 5.34987 5.26295
#
# Compressibility (1/GPa) = 0.04286788
#
# Stress axis : x y z
#
# Youngs Moduli (GPa) = 46.98952 71.46371 39.07823
#
# Poissons Ratio (x) = 0.16874 0.32801
# Poissons Ratio (y) = 0.11095 -0.06865
# Poissons Ratio (z) = 0.39442 -0.12555
#
# Static dielectric constant tensor:
#      x y z
#    x 1.713780 0.000000 0.000000 
#    y 0.000000 1.706090 0.000000 
#    z 0.000000 0.000000 1.693430 
# 
# From -- ./inp_files/60962.got.cif
#   From: 2010.05.17/outbox.cif.g08.bks.cpg/sg74_31_cif.got.tgz:60962.got - 2010.06.03 17:57:02.
