data_PCOD9535660
_publ_section_title
;
Structure prediction by ZEFSAII (Michael W. Deem and Ramdas Pophale) SiO2 
 PCOD9535660
Probable space group: I M M A
;
_chemical_formula_sum "Si O2"
_cell_formula_units_Z 96
_cell_length_a 22.825440
_cell_length_b 11.027883
_cell_length_c 18.389090
_cell_angle_alpha 90.000000
_cell_angle_beta 90.000000
_cell_angle_gamma 90.000000
_cell_volume 4628.833359
_symmetry_space_group_name_H-M "I M M A"
_symmetry_group_IT_number 74
_symmetry_cell_setting 'orthorhombic'
loop_
_space_group_symop_operation_xyz
x,y,z
-x,1/2-y,z
x,-y,-z
-x,1/2+y,-z
-x,-y,-z
x,1/2+y,-z
-x,y,z
x,1/2-y,z
1/2+x,1/2+y,1/2+z
1/2-x,-y,1/2+z
1/2+x,1/2-y,1/2-z
1/2-x,y,1/2-z
1/2-x,1/2-y,1/2-z
1/2+x,y,1/2-z
1/2-x,1/2+y,1/2+z
1/2+x,-y,1/2+z
loop_
_atom_site_type_symbol
_atom_site_label
_atom_site_fract_x
_atom_site_fract_y
_atom_site_fract_z
Si Si1 0.569250 0.879584 0.421444
Si Si2 0.308623 0.894646 0.787578
Si Si3 0.431902 0.884180 0.959604
Si Si4 0.563654 0.105290 0.214799
Si Si5 0.759177 0.110722 0.444451
Si Si6 0.377778 0.619134 0.584264
O O1 0.500000 0.887235 0.434589
O O2 0.581699 0.750000 0.384770
O O3 0.601300 0.876072 0.499856
O O4 0.590547 0.001976 0.384341
O O5 0.309290 0.750000 0.771891
O O6 0.250000 0.945482 0.750000
O O7 0.372007 0.942209 0.763133
O O8 0.300022 0.905472 0.874216
O O9 0.500000 0.877299 0.984316
O O10 0.405779 0.750000 0.973370
O O11 0.434504 0.904506 0.873279
O O12 0.404855 0.000000 0.000000
O O13 0.500000 0.055089 0.239510
O O14 0.562367 0.250000 0.228828
O O15 0.765907 0.250000 0.472772
O O16 0.691903 0.105327 0.415741
O O17 0.766222 0.000000 0.500000
O O18 0.393708 0.750000 0.616364
#
# Coordination Sequence:
#
# PCOD9535660 Si02
#       6
#    16  16  16  16  16  16
#     4   9  15  22  35  56  84 120 158 198 251 307
#     4   9  18  32  50  74 104 137 174 216 262 312
#     4   8  13  21  35  59  92 127 160 195 238 290
#     4   8  14  26  45  67  92 126 166 206 252 305
#     4  10  19  31  50  75 102 135 174 216 261 308
#     4   9  15  23  36  56  84 117 154 195 244 295
#
# _framework density 20.739567999999998
#
# number of rings (size 3 to 8) (size 9 to 14) (size 15 to 20)
#    0.000    3.167    1.667    2.000    0.000    1.667 
#    0.000    0.000    0.000    2.500    0.000   11.667 
#    0.000    0.000    0.000    0.000    0.000    0.167 
#
# Total GULP energy -267395.684403 kJ/mol
# GULP energy per Si atom -5570.743425 kJ/mol
# Density = 2.069236 g / cm^3
# Si number density = 20.739568 Si / 1000 Ang^3
#
#
#
# Elastic Constant Matrix: (Units=GPa)
#
#
# Indices 1 2 3 4 5 6 
#
# 1 166.7869 33.0869 17.6883 0.0000 0.0000 0.0000
# 2 33.0869 134.1236 27.3426 0.0000 0.0000 0.0000
# 3 17.6883 27.3426 60.9538 0.0000 0.0000 0.0000
# 4 0.0000 0.0000 0.0000 -5.1530 0.0000 0.0000
# 5 0.0000 0.0000 0.0000 0.0000 22.6117 0.0000
# 6 0.0000 0.0000 0.0000 0.0000 0.0000 -0.4309
#
#
#
# Elastic Compliance Matrix: (Units=1/GPa)
#
#
# Indices 1 2 3 4 5 6 
#
# 1 0.006391 -0.001319 -0.001263 0.000000 0.000000 0.000000
# 2 -0.001319 0.008479 -0.003420 0.000000 0.000000 0.000000
# 3 -0.001263 -0.003420 0.018307 0.000000 0.000000 0.000000
# 4 0.000000 0.000000 0.000000 -0.194060 0.000000 0.000000
# 5 0.000000 0.000000 0.000000 0.000000 0.044225 0.000000
# 6 0.000000 0.000000 0.000000 0.000000 0.000000 -2.320631
#
#
# Mechanical properties :
#
#
# Convention : Reuss Voigt Hill
#
# Bulk Modulus (GPa) = 47.23369 57.56666 52.40018
# Shear Modulus (GPa) = -2.06763 22.32198 10.12717
#
# Velocity S-wave (km/s) = -0.99956 3.28426 2.21215
# Velocity P-wave (km/s) = 4.63594 6.49607 5.64318
#
# Compressibility (1/GPa) = 0.02117133
#
# Stress axis : x y z
#
# Youngs Moduli (GPa) = 156.46232 117.94473 54.62477
#
# Poissons Ratio (x) = 0.15559 0.06899
# Poissons Ratio (y) = 0.20641 0.18684
# Poissons Ratio (z) = 0.19760 0.40343
#
# Static dielectric constant tensor:
#      x y z
#    x 1.799920 0.000000 0.000000 
#    y 0.000000 1.798230 0.000000 
#    z 0.000000 0.000000 1.746480 
# 
# From -- ./inp_files/53887.got.cif
#   From: 2010.05.17/outbox.cif.g08.bks.cpg/sg74_27_cif.got.tgz:53887.got - 2010.06.03 17:57:02.
