data_PCOD9535891
_publ_section_title
;
Structure prediction by ZEFSAII (Michael W. Deem and Ramdas Pophale) SiO2 
 PCOD9535891
Probable space group: I M M A
;
_chemical_formula_sum "Si O2"
_cell_formula_units_Z 64
_cell_length_a 21.941078
_cell_length_b 14.995662
_cell_length_c 9.301041
_cell_angle_alpha 90.000000
_cell_angle_beta 90.000000
_cell_angle_gamma 90.000000
_cell_volume 3060.237714
_symmetry_space_group_name_H-M "I M M A"
_symmetry_group_IT_number 74
_symmetry_cell_setting 'orthorhombic'
loop_
_space_group_symop_operation_xyz
x,y,z
-x,1/2-y,z
x,-y,-z
-x,1/2+y,-z
-x,-y,-z
x,1/2+y,-z
-x,y,z
x,1/2-y,z
1/2+x,1/2+y,1/2+z
1/2-x,-y,1/2+z
1/2+x,1/2-y,1/2-z
1/2-x,y,1/2-z
1/2-x,1/2-y,1/2-z
1/2+x,y,1/2-z
1/2-x,1/2+y,1/2+z
1/2+x,-y,1/2+z
loop_
_atom_site_type_symbol
_atom_site_label
_atom_site_fract_x
_atom_site_fract_y
_atom_site_fract_z
Si Si1 0.115923 0.859502 0.411615
Si Si2 0.620670 0.355145 0.585309
Si Si3 0.251209 0.352942 0.925340
Si Si4 0.000000 0.858844 0.599845
Si Si5 0.000000 0.095040 0.074101
O O1 0.116786 0.750000 0.410375
O O2 0.106748 0.889729 0.246218
O O3 0.182607 0.890831 0.464273
O O4 0.059975 0.884940 0.511192
O O5 0.632183 0.250000 0.604661
O O6 0.685741 0.392209 0.529935
O O7 0.562761 0.363047 0.483746
O O8 0.252970 0.250000 0.975351
O O9 0.250000 0.352612 0.750000
O O10 0.000000 0.901760 0.755682
O O11 0.000000 0.750000 0.615908
O O12 0.000000 0.000000 0.000000
#
# Coordination Sequence:
#
# PCOD9535891 Si02
#       5
#    16  16  16   8   8
#     4   8  14  27  52  83 103 117 150 203 251 292
#     4   9  16  31  55  75  93 126 167 198 237 300
#     4   7  11  22  46  79 103 116 144 195 244 287
#     4  10  19  32  51  76 105 130 159 204 252 292
#     4  12  25  36  44  62  98 138 171 208 246 284
#
# _framework density 20.913409000000001
#
# number of rings (size 3 to 8) (size 9 to 14) (size 15 to 20)
#    0.000    3.250    0.000    4.875    0.000    2.000 
#    0.000    3.750    0.000   15.000    0.000    0.000 
#    0.000    0.000    0.000    0.000    0.000    0.000 
#
# Total GULP energy -178244.789371 kJ/mol
# GULP energy per Si atom -5570.149668 kJ/mol
# Density = 2.086581 g / cm^3
# Si number density = 20.913409 Si / 1000 Ang^3
#
#
#
# Elastic Constant Matrix: (Units=GPa)
#
#
# Indices 1 2 3 4 5 6 
#
# 1 251.8039 5.4168 97.9800 0.0000 0.0000 0.0000
# 2 5.4168 36.6983 4.3004 0.0000 0.0000 0.0000
# 3 97.9800 4.3004 89.4399 0.0000 0.0000 0.0000
# 4 0.0000 0.0000 0.0000 -2.7217 0.0000 0.0000
# 5 0.0000 0.0000 0.0000 0.0000 -26.5496 0.0000
# 6 0.0000 0.0000 0.0000 0.0000 0.0000 -37.8606
#
#
#
# Elastic Compliance Matrix: (Units=1/GPa)
#
#
# Indices 1 2 3 4 5 6 
#
# 1 0.006923 -0.000134 -0.007577 0.000000 0.000000 0.000000
# 2 -0.000134 0.027406 -0.001171 0.000000 0.000000 0.000000
# 3 -0.007577 -0.001171 0.019538 0.000000 0.000000 0.000000
# 4 0.000000 0.000000 0.000000 -0.367418 0.000000 0.000000
# 5 0.000000 0.000000 0.000000 0.000000 -0.037665 0.000000
# 6 0.000000 0.000000 0.000000 0.000000 0.000000 -0.026413
#
#
# Mechanical properties :
#
#
# Convention : Reuss Voigt Hill
#
# Bulk Modulus (GPa) = 27.69911 65.92628 46.81269
# Shear Modulus (GPa) = -14.37479 4.58995 -4.89242
#
# Velocity S-wave (km/s) = -2.62458 1.48307 -1.53116
# Velocity P-wave (km/s) = 2.02210 5.87576 4.39394
#
# Compressibility (1/GPa) = 0.03610225
#
# Stress axis : x y z
#
# Youngs Moduli (GPa) = 144.45464 36.48812 51.18323
#
# Poissons Ratio (x) = 0.00489 0.38782
# Poissons Ratio (y) = 0.01934 0.05994
# Poissons Ratio (z) = 1.09455 0.04273
#
# Static dielectric constant tensor:
#      x y z
#    x 1.972780 0.000000 0.000000 
#    y 0.000000 1.832060 0.000000 
#    z 0.000000 0.000000 1.695630 
# 
# From -- ./inp_files/10314.got.cif
#   From: 2010.05.17/outbox.cif.g08.bks.cpg/sg74_6_cif.got.tgz:10314.got - 2010.06.03 17:57:02.
