data_PCOD9535140
_publ_section_title
;
Structure prediction by ZEFSAII (Michael W. Deem and Ramdas Pophale) SiO2 
 PCOD9535140
Probable space group: I M M A
;
_chemical_formula_sum "Si O2"
_cell_formula_units_Z 80
_cell_length_a 8.397962
_cell_length_b 16.366347
_cell_length_c 28.717607
_cell_angle_alpha 90.000000
_cell_angle_beta 90.000000
_cell_angle_gamma 90.000000
_cell_volume 3947.061633
_symmetry_space_group_name_H-M "I M M A"
_symmetry_group_IT_number 74
_symmetry_cell_setting 'orthorhombic'
loop_
_space_group_symop_operation_xyz
x,y,z
-x,1/2-y,z
x,-y,-z
-x,1/2+y,-z
-x,-y,-z
x,1/2+y,-z
-x,y,z
x,1/2-y,z
1/2+x,1/2+y,1/2+z
1/2-x,-y,1/2+z
1/2+x,1/2-y,1/2-z
1/2-x,y,1/2-z
1/2-x,1/2-y,1/2-z
1/2+x,y,1/2-z
1/2-x,1/2+y,1/2+z
1/2+x,-y,1/2+z
loop_
_atom_site_type_symbol
_atom_site_label
_atom_site_fract_x
_atom_site_fract_y
_atom_site_fract_z
Si Si1 0.189442 0.156760 0.699955
Si Si2 0.306066 0.434470 0.460168
Si Si3 0.817535 0.597038 0.700536
Si Si4 0.318525 0.750000 0.538609
Si Si5 0.183435 0.972658 0.132915
Si Si6 0.174336 0.750000 0.632803
O O1 0.250534 0.250000 0.697151
O O2 0.250000 0.122399 0.750000
O O3 0.236453 0.108646 0.653117
O O4 0.000000 0.157498 0.702835
O O5 0.267276 0.500000 0.500000
O O6 0.500000 0.427773 0.457118
O O7 0.249401 0.341421 0.471515
O O8 0.250823 0.475687 0.411316
O O9 0.750000 0.622121 0.750000
O O10 0.703971 0.531164 0.677224
O O11 0.817899 0.672581 0.665724
O O12 0.000000 0.566161 0.704210
O O13 0.500000 0.750000 0.520722
O O14 0.310726 0.750000 0.594737
O O15 0.000000 0.954836 0.122406
O O16 0.000000 0.750000 0.608671
#
# Coordination Sequence:
#
# PCOD9535140 Si02
#       6
#    16  16  16   8  16   8
#     4  10  21  38  59  82 113 152 194 237 284 340
#     4   9  19  36  58  88 116 144 188 239 290 342
#     4  11  22  35  52  78 113 151 190 230 273 326
#     4  10  18  35  63  84 111 152 189 233 288 345
#     4  11  21  35  57  83 114 146 185 235 283 341
#     4  10  21  35  53  78 112 150 188 231 273 325
#
# _framework density 20.268242000000001
#
# number of rings (size 3 to 8) (size 9 to 14) (size 15 to 20)
#    0.000    1.800    2.000    2.700    0.000    2.000 
#    1.800    0.000    0.000    5.400    0.000    0.000 
#    0.000    0.000    0.000    0.000    0.000    0.000 
#
# Total GULP energy -222876.856812 kJ/mol
# GULP energy per Si atom -5571.921420 kJ/mol
# Density = 2.022211 g / cm^3
# Si number density = 20.268242 Si / 1000 Ang^3
#
#
#
# Elastic Constant Matrix: (Units=GPa)
#
#
# Indices 1 2 3 4 5 6 
#
# 1 19.9189 4.6287 12.5152 0.0000 0.0000 0.0000
# 2 4.6287 134.3906 50.2775 0.0000 0.0000 0.0000
# 3 12.5152 50.2775 55.8144 0.0000 0.0000 0.0000
# 4 0.0000 0.0000 0.0000 36.9662 0.0000 0.0000
# 5 0.0000 0.0000 0.0000 0.0000 18.6397 0.0000
# 6 0.0000 0.0000 0.0000 0.0000 0.0000 22.7598
#
#
#
# Elastic Compliance Matrix: (Units=1/GPa)
#
#
# Indices 1 2 3 4 5 6 
#
# 1 0.060179 0.004488 -0.017537 0.000000 0.000000 0.000000
# 2 0.004488 0.011558 -0.011418 0.000000 0.000000 0.000000
# 3 -0.017537 -0.011418 0.032134 0.000000 0.000000 0.000000
# 4 0.000000 0.000000 0.000000 0.027052 0.000000 0.000000
# 5 0.000000 0.000000 0.000000 0.000000 0.053649 0.000000
# 6 0.000000 0.000000 0.000000 0.000000 0.000000 0.043937
#
#
# Mechanical properties :
#
#
# Convention : Reuss Voigt Hill
#
# Bulk Modulus (GPa) = 18.20233 38.32963 28.26598
# Shear Modulus (GPa) = 16.90593 25.18665 21.04629
#
# Velocity S-wave (km/s) = 2.89123 3.52897 3.22590
# Velocity P-wave (km/s) = 4.48841 5.96298 5.27745
#
# Compressibility (1/GPa) = 0.05493801
#
# Stress axis : x y z
#
# Youngs Moduli (GPa) = 16.61709 86.52031 31.11978
#
# Poissons Ratio (x) = -0.38831 0.54574
# Poissons Ratio (y) = -0.07458 0.35532
# Poissons Ratio (z) = 0.29141 0.98787
#
# Static dielectric constant tensor:
#      x y z
#    x 1.762380 0.000000 0.000000 
#    y 0.000000 1.793070 0.000000 
#    z 0.000000 0.000000 1.690230 
# 
# From -- ./inp_files/64025.got.cif
#   From: 2010.05.17/outbox.cif.g08.bks.cpg/sg74_33_cif.got.tgz:64025.got - 2010.06.03 17:57:02.
