data_PCOD9535387
_publ_section_title
;
Structure prediction by ZEFSAII (Michael W. Deem and Ramdas Pophale) SiO2 
 PCOD9535387
Probable space group: I M M A
;
_chemical_formula_sum "Si O2"
_cell_formula_units_Z 116
_cell_length_a 7.733441
_cell_length_b 28.465977
_cell_length_c 27.410003
_cell_angle_alpha 90.000000
_cell_angle_beta 90.000000
_cell_angle_gamma 90.000000
_cell_volume 6034.036790
_symmetry_space_group_name_H-M "I M M A"
_symmetry_group_IT_number 74
_symmetry_cell_setting 'orthorhombic'
loop_
_space_group_symop_operation_xyz
x,y,z
-x,1/2-y,z
x,-y,-z
-x,1/2+y,-z
-x,-y,-z
x,1/2+y,-z
-x,y,z
x,1/2-y,z
1/2+x,1/2+y,1/2+z
1/2-x,-y,1/2+z
1/2+x,1/2-y,1/2-z
1/2-x,y,1/2-z
1/2-x,1/2-y,1/2-z
1/2+x,y,1/2-z
1/2-x,1/2+y,1/2+z
1/2+x,-y,1/2+z
loop_
_atom_site_type_symbol
_atom_site_label
_atom_site_fract_x
_atom_site_fract_y
_atom_site_fract_z
Si Si1 0.699668 0.071652 0.835543
Si Si2 0.195882 0.878293 0.509877
Si Si3 0.500000 0.750000 0.292080
Si Si4 0.302253 0.541429 0.439999
Si Si5 0.295216 0.058028 0.406576
Si Si6 0.207973 0.325028 0.679425
Si Si7 0.706047 0.528820 0.697832
Si Si8 0.709619 0.196713 0.934338
O O1 0.500000 0.077157 0.850633
O O2 0.801708 0.062740 0.885541
O O3 0.744081 0.120321 0.809473
O O4 0.719272 0.023960 0.805335
O O5 0.202225 0.923769 0.474971
O O6 0.267928 0.896007 0.561300
O O7 0.278394 0.837527 0.476560
O O8 0.000000 0.864232 0.519540
O O9 0.345677 0.709256 0.296148
O O10 0.500000 0.539715 0.458336
O O11 0.228016 0.488990 0.433794
O O12 0.500000 0.050094 0.404166
O O13 0.231566 0.056028 0.350750
O O14 0.242014 0.319836 0.620940
O O15 0.000000 0.313935 0.687424
O O16 0.500000 0.524423 0.695216
O O17 0.750000 0.550402 0.750000
O O18 0.500000 0.196872 0.938114
O O19 0.772116 0.250000 0.939362
#
# Coordination Sequence:
#
# PCOD9535387 Si02
#       8
#    16  16   4  16  16  16  16  16
#     4  10  19  32  51  74 103 130 163 210 257 299
#     4  11  20  29  46  69  94 133 175 207 245 294
#     4  12  22  28  52  70  98 134 184 212 272 302
#     4  10  19  30  46  65  97 136 170 202 244 295
#     4   9  20  35  46  67  99 133 160 200 249 298
#     4  10  20  33  47  70 103 132 171 222 260 304
#     4  10  21  37  57  77 102 127 161 201 252 308
#     4   9  17  32  46  61  96 135 172 216 256 287
#
# _framework density 19.224278000000002
#
# number of rings (size 3 to 8) (size 9 to 14) (size 15 to 20)
#    0.000    2.069    2.069    3.103    1.931    4.966 
#    1.241    0.000    0.000    0.000    0.000    0.483 
#    0.000    0.552    0.000    1.241    0.000    1.931 
#
# Total GULP energy -323211.648732 kJ/mol
# GULP energy per Si atom -5572.614633 kJ/mol
# Density = 1.918052 g / cm^3
# Si number density = 19.224278 Si / 1000 Ang^3
#
#
#
# Elastic Constant Matrix: (Units=GPa)
#
#
# Indices 1 2 3 4 5 6 
#
# 1 55.4333 14.2101 5.9420 0.0000 0.0000 0.0000
# 2 14.2101 64.6064 53.4826 0.0000 0.0000 0.0000
# 3 5.9420 53.4826 110.9969 0.0000 0.0000 0.0000
# 4 0.0000 0.0000 0.0000 8.2208 0.0000 0.0000
# 5 0.0000 0.0000 0.0000 0.0000 19.6881 0.0000
# 6 0.0000 0.0000 0.0000 0.0000 0.0000 19.4167
#
#
#
# Elastic Compliance Matrix: (Units=1/GPa)
#
#
# Indices 1 2 3 4 5 6 
#
# 1 0.019305 -0.005640 0.001684 0.000000 0.000000 0.000000
# 2 -0.005640 0.027397 -0.012899 0.000000 0.000000 0.000000
# 3 0.001684 -0.012899 0.015134 0.000000 0.000000 0.000000
# 4 0.000000 0.000000 0.000000 0.121643 0.000000 0.000000
# 5 0.000000 0.000000 0.000000 0.000000 0.050792 0.000000
# 6 0.000000 0.000000 0.000000 0.000000 0.000000 0.051502
#
#
# Mechanical properties :
#
#
# Convention : Reuss Voigt Hill
#
# Bulk Modulus (GPa) = 35.55406 42.03399 38.79403
# Shear Modulus (GPa) = 15.20408 19.95858 17.58133
#
# Velocity S-wave (km/s) = 2.81531 3.22560 3.02741
# Velocity P-wave (km/s) = 5.39467 5.98207 5.69595
#
# Compressibility (1/GPa) = 0.02812618
#
# Stress axis : x y z
#
# Youngs Moduli (GPa) = 51.79984 36.50038 66.07504
#
# Poissons Ratio (x) = 0.20588 -0.11129
# Poissons Ratio (y) = 0.29218 0.85230
# Poissons Ratio (z) = -0.08725 0.47082
#
# Static dielectric constant tensor:
#      x y z
#    x 1.709780 0.000000 0.000000 
#    y 0.000000 1.684710 0.000000 
#    z 0.000000 0.000000 1.727590 
# 
# From -- ./inp_files/71061.got.cif
#   From: 2010.05.17/outbox.cif.g08.bks.cpg/sg74_36_cif.got.tgz:71061.got - 2010.06.03 17:57:02.
