data_PCOD9535848
_publ_section_title
;
Structure prediction by ZEFSAII (Michael W. Deem and Ramdas Pophale) SiO2 
 PCOD9535848
Probable space group: I M M A
;
_chemical_formula_sum "Si O2"
_cell_formula_units_Z 120
_cell_length_a 27.652587
_cell_length_b 8.684074
_cell_length_c 29.321038
_cell_angle_alpha 90.000000
_cell_angle_beta 90.000000
_cell_angle_gamma 90.000000
_cell_volume 7041.069380
_symmetry_space_group_name_H-M "I M M A"
_symmetry_group_IT_number 74
_symmetry_cell_setting 'orthorhombic'
loop_
_space_group_symop_operation_xyz
x,y,z
-x,1/2-y,z
x,-y,-z
-x,1/2+y,-z
-x,-y,-z
x,1/2+y,-z
-x,y,z
x,1/2-y,z
1/2+x,1/2+y,1/2+z
1/2-x,-y,1/2+z
1/2+x,1/2-y,1/2-z
1/2-x,y,1/2-z
1/2-x,1/2-y,1/2-z
1/2+x,y,1/2-z
1/2-x,1/2+y,1/2+z
1/2+x,-y,1/2+z
loop_
_atom_site_type_symbol
_atom_site_label
_atom_site_fract_x
_atom_site_fract_y
_atom_site_fract_z
Si Si1 0.244445 0.066726 0.638356
Si Si2 0.905892 0.929162 0.906259
Si Si3 0.000000 0.568743 0.049255
Si Si4 0.053831 0.064848 0.711494
Si Si5 0.585435 0.074225 0.688194
Si Si6 0.182830 0.430812 0.211766
Si Si7 0.307505 0.934316 0.448521
Si Si8 0.342562 0.570003 0.815548
O O1 0.251350 0.250000 0.644745
O O2 0.265160 0.026623 0.588094
O O3 0.274846 0.975347 0.677019
O O4 0.188937 0.022545 0.647807
O O5 0.903057 0.750000 0.916818
O O6 0.951293 0.007545 0.929100
O O7 0.917477 0.957794 0.853281
O O8 0.856560 0.006105 0.924128
O O9 0.000000 0.750000 0.049927
O O10 0.000000 0.500000 0.000000
O O11 0.057769 0.250000 0.705927
O O12 0.056639 0.035357 0.766045
O O13 0.000000 0.016942 0.695176
O O14 0.102277 0.988746 0.690988
O O15 0.574184 0.250000 0.674304
O O16 0.641324 0.054753 0.701355
O O17 0.169727 0.250000 0.203169
O O18 0.185746 0.442900 0.266652
O O19 0.310024 0.750000 0.452165
O O20 0.302578 0.000000 0.500000
O O21 0.343606 0.750000 0.827100
#
# Coordination Sequence:
#
# PCOD9535848 Si02
#       8
#    16  16   8  16  16  16  16  16
#     4  11  22  35  54  78 107 141 179 220 268 327
#     4  12  24  39  58  79 103 134 174 223 279 331
#     4  12  26  44  60  74  96 124 166 224 280 334
#     4   9  19  35  54  76 106 145 184 222 266 316
#     4  10  19  32  51  76 103 137 178 219 263 313
#     4  10  19  32  50  74 105 139 174 216 262 312
#     4  11  24  41  60  82 106 139 180 224 277 333
#     4  10  21  34  51  78 110 143 180 221 267 317
#
# _framework density 17.042864999999999
#
# number of rings (size 3 to 8) (size 9 to 14) (size 15 to 20)
#    0.000    1.467    1.333    4.600    0.933    5.600 
#    0.000    0.000    0.000    0.000    0.000    0.000 
#    0.000    0.533    0.000    1.733    0.000    2.133 
#
# Total GULP energy -334564.242790 kJ/mol
# GULP energy per Si atom -5576.070713 kJ/mol
# Density = 1.700408 g / cm^3
# Si number density = 17.042865 Si / 1000 Ang^3
#
#
#
# Elastic Constant Matrix: (Units=GPa)
#
#
# Indices 1 2 3 4 5 6 
#
# 1 99.0628 34.4929 51.0579 0.0000 0.0000 0.0000
# 2 34.4929 76.4177 38.5766 0.0000 0.0000 0.0000
# 3 51.0579 38.5766 50.3572 0.0000 0.0000 0.0000
# 4 0.0000 0.0000 0.0000 23.2691 0.0000 0.0000
# 5 0.0000 0.0000 0.0000 0.0000 34.5794 0.0000
# 6 0.0000 0.0000 0.0000 0.0000 0.0000 21.4362
#
#
#
# Elastic Compliance Matrix: (Units=1/GPa)
#
#
# Indices 1 2 3 4 5 6 
#
# 1 0.021350 0.002105 -0.023259 0.000000 0.000000 0.000000
# 2 0.002105 0.021545 -0.018639 0.000000 0.000000 0.000000
# 3 -0.023259 -0.018639 0.057720 0.000000 0.000000 0.000000
# 4 0.000000 0.000000 0.000000 0.042975 0.000000 0.000000
# 5 0.000000 0.000000 0.000000 0.000000 0.028919 0.000000
# 6 0.000000 0.000000 0.000000 0.000000 0.000000 0.046650
#
#
# Mechanical properties :
#
#
# Convention : Reuss Voigt Hill
#
# Bulk Modulus (GPa) = 47.55633 52.67693 50.11663
# Shear Modulus (GPa) = 16.35295 22.63761 19.49528
#
# Velocity S-wave (km/s) = 3.10097 3.64850 3.38582
# Velocity P-wave (km/s) = 6.38638 6.98028 6.68993
#
# Compressibility (1/GPa) = 0.02102769
#
# Stress axis : x y z
#
# Youngs Moduli (GPa) = 46.83884 46.41431 17.32510
#
# Poissons Ratio (x) = -0.09770 0.40297
# Poissons Ratio (y) = -0.09859 0.32292
# Poissons Ratio (z) = 1.08944 0.86512
#
# Static dielectric constant tensor:
#      x y z
#    x 1.584740 0.000000 0.000000 
#    y 0.000000 1.568460 0.000000 
#    z 0.000000 0.000000 1.653410 
# 
# From -- ./inp_files/69008.got.cif
#   From: 2010.05.17/outbox.cif.g08.bks.cpg/sg74_35_cif.got.tgz:69008.got - 2010.06.03 17:57:02.
