data_PCOD9535343
_publ_section_title
;
Structure prediction by ZEFSAII (Michael W. Deem and Ramdas Pophale) SiO2 
 PCOD9535343
Probable space group: I M M A
;
_chemical_formula_sum "Si O2"
_cell_formula_units_Z 112
_cell_length_a 7.351663
_cell_length_b 20.480440
_cell_length_c 31.184631
_cell_angle_alpha 90.000000
_cell_angle_beta 90.000000
_cell_angle_gamma 90.000000
_cell_volume 4695.323103
_symmetry_space_group_name_H-M "I M M A"
_symmetry_group_IT_number 74
_symmetry_cell_setting 'orthorhombic'
loop_
_space_group_symop_operation_xyz
x,y,z
-x,1/2-y,z
x,-y,-z
-x,1/2+y,-z
-x,-y,-z
x,1/2+y,-z
-x,y,z
x,1/2-y,z
1/2+x,1/2+y,1/2+z
1/2-x,-y,1/2+z
1/2+x,1/2-y,1/2-z
1/2-x,y,1/2-z
1/2-x,1/2-y,1/2-z
1/2+x,y,1/2-z
1/2-x,1/2+y,1/2+z
1/2+x,-y,1/2+z
loop_
_atom_site_type_symbol
_atom_site_label
_atom_site_fract_x
_atom_site_fract_y
_atom_site_fract_z
Si Si1 0.216734 0.963894 0.299349
Si Si2 0.276949 0.822361 0.890972
Si Si3 0.221186 0.323325 0.667492
Si Si4 0.803823 0.671769 0.703946
Si Si5 0.778666 0.320842 0.567185
Si Si6 0.720725 0.963395 0.883716
Si Si7 0.721690 0.047022 0.962924
O O1 0.250000 0.982053 0.250000
O O2 0.283344 0.889325 0.308544
O O3 0.000000 0.961298 0.305000
O O4 0.282719 0.015100 0.335907
O O5 0.500000 0.819046 0.891781
O O6 0.218338 0.750000 0.906254
O O7 0.209082 0.830817 0.841540
O O8 0.225793 0.894552 0.906228
O O9 0.279580 0.250000 0.682074
O O10 0.271523 0.329636 0.617189
O O11 0.000000 0.322881 0.669514
O O12 0.819723 0.750000 0.710074
O O13 0.750000 0.645313 0.750000
O O14 0.000000 0.641727 0.695518
O O15 0.717720 0.250000 0.552880
O O16 0.718075 0.378576 0.536617
O O17 0.000000 0.321324 0.567263
O O18 0.500000 0.961492 0.882334
O O19 0.773138 0.019621 0.916523
O O20 0.500000 0.046476 0.964912
O O21 0.787367 0.000000 0.000000
#
# Coordination Sequence:
#
# PCOD9535343 Si02
#       7
#    16  16  16  16  16  16  16
#     4  10  19  30  44  63  88 118 152 185 222 265
#     4   8  14  24  37  51  68  95 130 164 202 251
#     4   8  13  23  40  59  80 110 146 180 214 257
#     4   8  13  21  33  49  68  91 123 161 195 229
#     4   8  12  20  35  53  75 106 142 175 210 258
#     4   9  16  27  40  55  79 109 139 175 218 264
#     4   9  15  23  36  55  78 106 139 176 216 258
#
# _framework density 23.853522999999999
#
# number of rings (size 3 to 8) (size 9 to 14) (size 15 to 20)
#    0.000    3.429    1.429    1.714    0.000    0.857 
#    0.000    0.714    0.000    4.286    0.000    0.000 
#    0.000    0.571    0.000    0.000    0.000    0.286 
#
# Total GULP energy -311800.682362 kJ/mol
# GULP energy per Si atom -5567.869328 kJ/mol
# Density = 2.379923 g / cm^3
# Si number density = 23.853523 Si / 1000 Ang^3
#
#
#
# Elastic Constant Matrix: (Units=GPa)
#
#
# Indices 1 2 3 4 5 6 
#
# 1 79.0589 -2.1067 -6.9061 0.0000 0.0000 0.0000
# 2 -2.1067 202.6873 48.6235 0.0000 0.0000 0.0000
# 3 -6.9061 48.6235 58.3950 0.0000 0.0000 0.0000
# 4 0.0000 0.0000 0.0000 29.6682 0.0000 0.0000
# 5 0.0000 0.0000 0.0000 0.0000 -4.0179 0.0000
# 6 0.0000 0.0000 0.0000 0.0000 0.0000 39.9117
#
#
#
# Elastic Compliance Matrix: (Units=1/GPa)
#
#
# Indices 1 2 3 4 5 6 
#
# 1 0.012794 -0.000287 0.001752 0.000000 0.000000 0.000000
# 2 -0.000287 0.006172 -0.005173 0.000000 0.000000 0.000000
# 3 0.001752 -0.005173 0.021639 0.000000 0.000000 0.000000
# 4 0.000000 0.000000 0.000000 0.033706 0.000000 0.000000
# 5 0.000000 0.000000 0.000000 0.000000 -0.248884 0.000000
# 6 0.000000 0.000000 0.000000 0.000000 0.000000 0.025055
#
#
# Mechanical properties :
#
#
# Convention : Reuss Voigt Hill
#
# Bulk Modulus (GPa) = 30.13009 46.59584 38.36296
# Shear Modulus (GPa) = -38.15669 33.14776 -2.50447
#
# Velocity S-wave (km/s) = -4.00387 3.73183 -1.02578
# Velocity P-wave (km/s) = 2.95227 6.17619 3.83597
#
# Compressibility (1/GPa) = 0.03318941
#
# Stress axis : x y z
#
# Youngs Moduli (GPa) = 78.16026 162.03056 46.21218
#
# Poissons Ratio (x) = 0.04657 -0.08098
# Poissons Ratio (y) = 0.02247 0.23905
# Poissons Ratio (z) = -0.13697 0.83817
#
# Static dielectric constant tensor:
#      x y z
#    x 1.984200 0.000000 0.000000 
#    y 0.000000 1.959680 0.000000 
#    z 0.000000 0.000000 1.888470 
# 
# From -- ./inp_files/66342.got.cif
#   From: 2010.05.17/outbox.cif.g08.bks.cpg/sg74_34_cif.got.tgz:66342.got - 2010.06.03 17:57:02.
