data_PCOD9535314
_publ_section_title
;
Structure prediction by ZEFSAII (Michael W. Deem and Ramdas Pophale) SiO2 
 PCOD9535314
Probable space group: I M M A
;
_chemical_formula_sum "Si O2"
_cell_formula_units_Z 104
_cell_length_a 27.572689
_cell_length_b 24.064548
_cell_length_c 8.626099
_cell_angle_alpha 90.000000
_cell_angle_beta 90.000000
_cell_angle_gamma 90.000000
_cell_volume 5723.626283
_symmetry_space_group_name_H-M "I M M A"
_symmetry_group_IT_number 74
_symmetry_cell_setting 'orthorhombic'
loop_
_space_group_symop_operation_xyz
x,y,z
-x,1/2-y,z
x,-y,-z
-x,1/2+y,-z
-x,-y,-z
x,1/2+y,-z
-x,y,z
x,1/2-y,z
1/2+x,1/2+y,1/2+z
1/2-x,-y,1/2+z
1/2+x,1/2-y,1/2-z
1/2-x,y,1/2-z
1/2-x,1/2-y,1/2-z
1/2+x,y,1/2-z
1/2-x,1/2+y,1/2+z
1/2+x,-y,1/2+z
loop_
_atom_site_type_symbol
_atom_site_label
_atom_site_fract_x
_atom_site_fract_y
_atom_site_fract_z
Si Si1 0.737012 0.750000 0.068150
Si Si2 0.445429 0.373729 0.029092
Si Si3 0.149188 0.561670 0.039879
Si Si4 0.116720 0.464032 0.640519
Si Si5 0.788511 0.154468 0.128761
Si Si6 0.340947 0.750000 0.820254
Si Si7 0.942857 0.558245 0.826542
Si Si8 0.945624 0.750000 0.587409
O O1 0.750000 0.750000 0.250000
O O2 0.761379 0.804498 0.990861
O O3 0.682144 0.750000 0.994965
O O4 0.500000 0.391710 0.990521
O O5 0.409710 0.412159 0.935793
O O6 0.438921 0.388797 0.211039
O O7 0.441343 0.308385 0.998239
O O8 0.149418 0.561324 0.224978
O O9 0.167148 0.500000 0.000000
O O10 0.180375 0.608739 0.958648
O O11 0.094038 0.565247 0.970006
O O12 0.139339 0.500000 0.500000
O O13 0.078835 0.506446 0.726072
O O14 0.750000 0.129135 0.250000
O O15 0.820785 0.195917 0.233160
O O16 0.398456 0.750000 0.807518
O O17 0.000000 0.550497 0.864149
O O18 0.000000 0.750000 0.657659
#
# Coordination Sequence:
#
# PCOD9535314 Si02
#       8
#     8  16  16  16  16   8  16   8
#     4   9  19  36  60  86 102 127 180 230 267 312
#     4   9  17  29  45  68 102 143 179 213 256 304
#     4  10  20  33  53  79 106 138 173 213 267 322
#     4   9  18  31  47  71 103 141 181 216 253 303
#     4   9  19  38  59  78 103 134 173 224 275 319
#     4   9  18  35  60  80 103 141 177 221 271 310
#     4   9  17  30  50  75 102 136 180 221 252 298
#     4  10  19  29  47  78 111 140 172 207 256 324
#
# _framework density 18.170299
#
# number of rings (size 3 to 8) (size 9 to 14) (size 15 to 20)
#    0.000    2.769    0.000    2.308    0.000    6.462 
#    0.000    4.615    0.000    4.615    0.000    5.385 
#    0.000    0.000    0.000    0.000    0.000    0.000 
#
# Total GULP energy -289485.720196 kJ/mol
# GULP energy per Si atom -5567.033081 kJ/mol
# Density = 1.812894 g / cm^3
# Si number density = 18.170299 Si / 1000 Ang^3
#
#
#
# Elastic Constant Matrix: (Units=GPa)
#
#
# Indices 1 2 3 4 5 6 
#
# 1 77.4892 34.8313 40.7394 0.0000 0.0000 0.0000
# 2 34.8313 93.5968 39.7072 0.0000 0.0000 0.0000
# 3 40.7394 39.7072 121.0298 0.0000 0.0000 0.0000
# 4 0.0000 0.0000 0.0000 11.3274 0.0000 0.0000
# 5 0.0000 0.0000 0.0000 0.0000 1.4908 0.0000
# 6 0.0000 0.0000 0.0000 0.0000 0.0000 37.9737
#
#
#
# Elastic Compliance Matrix: (Units=1/GPa)
#
#
# Indices 1 2 3 4 5 6 
#
# 1 0.017224 -0.004589 -0.004292 0.000000 0.000000 0.000000
# 2 -0.004589 0.013634 -0.002928 0.000000 0.000000 0.000000
# 3 -0.004292 -0.002928 0.010668 0.000000 0.000000 0.000000
# 4 0.000000 0.000000 0.000000 0.088282 0.000000 0.000000
# 5 0.000000 0.000000 0.000000 0.000000 0.670789 0.000000
# 6 0.000000 0.000000 0.000000 0.000000 0.000000 0.026334
#
#
# Mechanical properties :
#
#
# Convention : Reuss Voigt Hill
#
# Bulk Modulus (GPa) = 55.84332 58.07462 56.95897
# Shear Modulus (GPa) = 5.83758 21.94756 13.89257
#
# Velocity S-wave (km/s) = 1.79435 3.47923 2.76810
# Velocity P-wave (km/s) = 5.92393 6.94051 6.45227
#
# Compressibility (1/GPa) = 0.01790724
#
# Stress axis : x y z
#
# Youngs Moduli (GPa) = 58.05714 73.34494 93.73837
#
# Poissons Ratio (x) = 0.33658 0.40235
# Poissons Ratio (y) = 0.26642 0.27450
# Poissons Ratio (z) = 0.24920 0.21478
#
# Static dielectric constant tensor:
#      x y z
#    x 1.656780 0.000000 0.000000 
#    y 0.000000 1.614120 0.000000 
#    z 0.000000 0.000000 1.649030 
# 
# From -- ./inp_files/15421.got.cif
#   From: 2010.05.17/outbox.cif.g08.bks.cpg/sg74_8_cif.got.tgz:15421.got - 2010.06.03 17:57:02.
