data_PCOD9535430
_publ_section_title
;
Structure prediction by ZEFSAII (Michael W. Deem and Ramdas Pophale) SiO2 
 PCOD9535430
Probable space group: I M M A
;
_chemical_formula_sum "Si O2"
_cell_formula_units_Z 96
_cell_length_a 21.992454
_cell_length_b 17.765307
_cell_length_c 13.881154
_cell_angle_alpha 90.000000
_cell_angle_beta 90.000000
_cell_angle_gamma 90.000000
_cell_volume 5423.404305
_symmetry_space_group_name_H-M "I M M A"
_symmetry_group_IT_number 74
_symmetry_cell_setting 'orthorhombic'
loop_
_space_group_symop_operation_xyz
x,y,z
-x,1/2-y,z
x,-y,-z
-x,1/2+y,-z
-x,-y,-z
x,1/2+y,-z
-x,y,z
x,1/2-y,z
1/2+x,1/2+y,1/2+z
1/2-x,-y,1/2+z
1/2+x,1/2-y,1/2-z
1/2-x,y,1/2-z
1/2-x,1/2-y,1/2-z
1/2+x,y,1/2-z
1/2-x,1/2+y,1/2+z
1/2+x,-y,1/2+z
loop_
_atom_site_type_symbol
_atom_site_label
_atom_site_fract_x
_atom_site_fract_y
_atom_site_fract_z
Si Si1 0.865996 0.426606 0.826500
Si Si2 0.304836 0.340661 0.324551
Si Si3 0.069502 0.332061 0.971041
Si Si4 0.193140 0.833660 0.324365
Si Si5 0.429499 0.917319 0.666915
Si Si6 0.239871 0.079582 0.979327
O O1 0.891963 0.353466 0.879650
O O2 0.846686 0.399936 0.721457
O O3 0.912705 0.495175 0.824680
O O4 0.810171 0.445269 0.898455
O O5 0.306639 0.250000 0.334962
O O6 0.250000 0.358936 0.250000
O O7 0.371319 0.371548 0.290566
O O8 0.289094 0.381472 0.426322
O O9 0.086407 0.250000 0.010823
O O10 0.000000 0.329882 0.940796
O O11 0.073554 0.393250 0.054715
O O12 0.165892 0.750000 0.327585
O O13 0.250000 0.829943 0.250000
O O14 0.218325 0.859440 0.426902
O O15 0.500000 0.901870 0.697671
O O16 0.271992 0.000000 0.000000
#
# Coordination Sequence:
#
# PCOD9535430 Si02
#       6
#    16  16  16  16  16  16
#     4  11  19  32  51  77 108 149 184 225 268 327
#     4  11  24  39  57  80 111 149 190 234 282 337
#     4  10  19  30  47  72 107 149 188 223 269 333
#     4   9  20  33  51  77 108 146 188 233 275 326
#     4  11  22  35  52  79 115 150 188 229 277 334
#     4  11  20  33  54  80 110 146 183 228 278 330
#
# _framework density 17.701059000000001
#
# number of rings (size 3 to 8) (size 9 to 14) (size 15 to 20)
#    0.000    1.500    3.333    2.500    2.333    3.667 
#    0.000    0.000    0.000    0.000    0.000    3.500 
#    0.000    5.333    0.000    0.000    0.000    0.000 
#
# Total GULP energy -267351.311288 kJ/mol
# GULP energy per Si atom -5569.818985 kJ/mol
# Density = 1.766077 g / cm^3
# Si number density = 17.701059 Si / 1000 Ang^3
#
#
#
# Elastic Constant Matrix: (Units=GPa)
#
#
# Indices 1 2 3 4 5 6 
#
# 1 80.2780 21.2734 32.9821 0.0000 0.0000 0.0000
# 2 21.2734 94.6344 27.0003 0.0000 0.0000 0.0000
# 3 32.9821 27.0003 49.1345 0.0000 0.0000 0.0000
# 4 0.0000 0.0000 0.0000 1.6091 0.0000 0.0000
# 5 0.0000 0.0000 0.0000 0.0000 16.0883 0.0000
# 6 0.0000 0.0000 0.0000 0.0000 0.0000 30.1523
#
#
#
# Elastic Compliance Matrix: (Units=1/GPa)
#
#
# Indices 1 2 3 4 5 6 
#
# 1 0.017237 -0.000680 -0.011197 0.000000 0.000000 0.000000
# 2 -0.000680 0.012559 -0.006445 0.000000 0.000000 0.000000
# 3 -0.011197 -0.006445 0.031410 0.000000 0.000000 0.000000
# 4 0.000000 0.000000 0.000000 0.621450 0.000000 0.000000
# 5 0.000000 0.000000 0.000000 0.000000 0.062157 0.000000
# 6 0.000000 0.000000 0.000000 0.000000 0.000000 0.033165
#
#
# Mechanical properties :
#
#
# Convention : Reuss Voigt Hill
#
# Bulk Modulus (GPa) = 40.71297 42.95094 41.83195
# Shear Modulus (GPa) = 6.07675 19.08936 12.58305
#
# Velocity S-wave (km/s) = 1.85484 3.28751 2.66910
# Velocity P-wave (km/s) = 5.25714 6.22315 5.76043
#
# Compressibility (1/GPa) = 0.02456220
#
# Stress axis : x y z
#
# Youngs Moduli (GPa) = 58.01409 79.62669 31.83729
#
# Poissons Ratio (x) = 0.05417 0.35648
# Poissons Ratio (y) = 0.03946 0.20518
# Poissons Ratio (z) = 0.64958 0.51316
#
# Static dielectric constant tensor:
#      x y z
#    x 1.655650 0.000000 0.000000 
#    y 0.000000 1.636190 0.000000 
#    z 0.000000 0.000000 1.579010 
# 
# From -- ./inp_files/25176.got.cif
#   From: 2010.05.17/outbox.cif.g08.bks.cpg/sg74_13_cif.got.tgz:25176.got - 2010.06.03 17:57:02.
