data_PCOD9535283
_publ_section_title
;
Structure prediction by ZEFSAII (Michael W. Deem and Ramdas Pophale) SiO2 
 PCOD9535283
Probable space group: I M M A
;
_chemical_formula_sum "Si O2"
_cell_formula_units_Z 72
_cell_length_a 21.903255
_cell_length_b 9.830209
_cell_length_c 18.780533
_cell_angle_alpha 90.000000
_cell_angle_beta 90.000000
_cell_angle_gamma 90.000000
_cell_volume 4043.703690
_symmetry_space_group_name_H-M "I M M A"
_symmetry_group_IT_number 74
_symmetry_cell_setting 'orthorhombic'
loop_
_space_group_symop_operation_xyz
x,y,z
-x,1/2-y,z
x,-y,-z
-x,1/2+y,-z
-x,-y,-z
x,1/2+y,-z
-x,y,z
x,1/2-y,z
1/2+x,1/2+y,1/2+z
1/2-x,-y,1/2+z
1/2+x,1/2-y,1/2-z
1/2-x,y,1/2-z
1/2-x,1/2-y,1/2-z
1/2+x,y,1/2-z
1/2-x,1/2+y,1/2+z
1/2+x,-y,1/2+z
loop_
_atom_site_type_symbol
_atom_site_label
_atom_site_fract_x
_atom_site_fract_y
_atom_site_fract_z
Si Si1 0.000000 0.408350 0.928715
Si Si2 0.324142 0.899670 0.558648
Si Si3 0.877050 0.403806 0.838827
Si Si4 0.319882 0.095009 0.063200
Si Si5 0.689390 0.905415 0.200448
O O1 0.058285 0.427875 0.876599
O O2 0.000000 0.250000 0.951130
O O3 0.000000 0.500000 0.000000
O O4 0.351607 0.750000 0.556873
O O5 0.252232 0.888888 0.545896
O O6 0.351494 0.000000 0.500000
O O7 0.334244 0.978168 0.631387
O O8 0.856778 0.250000 0.860260
O O9 0.868324 0.408582 0.754288
O O10 0.344601 0.250000 0.067282
O O11 0.320156 0.012697 0.137529
O O12 0.346146 0.000000 0.000000
O O13 0.695560 0.750000 0.172028
O O14 0.750000 0.927578 0.250000
#
# Coordination Sequence:
#
# PCOD9535283 Si02
#       5
#     8  16  16  16  16
#     4  10  22  38  54  74 103 140 183 220 253 294
#     4  10  19  29  44  67  96 131 169 208 249 298
#     4  10  20  34  51  71  98 134 173 215 258 302
#     4  10  20  32  48  71 102 135 168 205 251 310
#     4  10  19  32  51  74 102 134 170 212 262 315
#
# _framework density 17.805458999999999
#
# number of rings (size 3 to 8) (size 9 to 14) (size 15 to 20)
#    0.000    2.000    2.222    2.000    0.000    5.778 
#    0.000    0.000    0.000    0.000    0.000    0.778 
#    0.000    0.000    0.000    0.000    0.000    0.000 
#
# Total GULP energy -200432.023338 kJ/mol
# GULP energy per Si atom -5567.556204 kJ/mol
# Density = 1.776493 g / cm^3
# Si number density = 17.805459 Si / 1000 Ang^3
#
#
#
# Elastic Constant Matrix: (Units=GPa)
#
#
# Indices 1 2 3 4 5 6 
#
# 1 37.8557 12.3926 18.4414 0.0000 0.0000 0.0000
# 2 12.3926 166.8721 84.3750 0.0000 0.0000 0.0000
# 3 18.4414 84.3750 102.3603 0.0000 0.0000 0.0000
# 4 0.0000 0.0000 0.0000 24.7885 0.0000 0.0000
# 5 0.0000 0.0000 0.0000 0.0000 21.6238 0.0000
# 6 0.0000 0.0000 0.0000 0.0000 0.0000 12.8001
#
#
#
# Elastic Compliance Matrix: (Units=1/GPa)
#
#
# Indices 1 2 3 4 5 6 
#
# 1 0.029026 0.000838 -0.005920 0.000000 0.000000 0.000000
# 2 0.000838 0.010299 -0.008641 0.000000 0.000000 0.000000
# 3 -0.005920 -0.008641 0.017958 0.000000 0.000000 0.000000
# 4 0.000000 0.000000 0.000000 0.040341 0.000000 0.000000
# 5 0.000000 0.000000 0.000000 0.000000 0.046245 0.000000
# 6 0.000000 0.000000 0.000000 0.000000 0.000000 0.078124
#
#
# Mechanical properties :
#
#
# Convention : Reuss Voigt Hill
#
# Bulk Modulus (GPa) = 33.51442 59.72289 46.61865
# Shear Modulus (GPa) = 19.27633 24.63444 21.95539
#
# Velocity S-wave (km/s) = 3.29387 3.72362 3.51532
# Velocity P-wave (km/s) = 5.77317 7.21816 6.53572
#
# Compressibility (1/GPa) = 0.02983790
#
# Stress axis : x y z
#
# Youngs Moduli (GPa) = 34.45220 97.09390 55.68455
#
# Poissons Ratio (x) = -0.08133 0.32964
# Poissons Ratio (y) = -0.02886 0.48115
# Poissons Ratio (z) = 0.20395 0.83895
#
# Static dielectric constant tensor:
#      x y z
#    x 1.643470 0.000000 0.000000 
#    y 0.000000 1.670830 0.000000 
#    z 0.000000 0.000000 1.642460 
# 
# From -- ./inp_files/39417.got.cif
#   From: 2010.05.17/outbox.cif.g08.bks.cpg/sg74_20_cif.got.tgz:39417.got - 2010.06.03 17:57:02.
