data_PCOD9535697
_publ_section_title
;
Structure prediction by ZEFSAII (Michael W. Deem and Ramdas Pophale) SiO2 
 PCOD9535697
Probable space group: I M M A
;
_chemical_formula_sum "Si O2"
_cell_formula_units_Z 104
_cell_length_a 27.372534
_cell_length_b 8.694729
_cell_length_c 22.749120
_cell_angle_alpha 90.000000
_cell_angle_beta 90.000000
_cell_angle_gamma 90.000000
_cell_volume 5414.216971
_symmetry_space_group_name_H-M "I M M A"
_symmetry_group_IT_number 74
_symmetry_cell_setting 'orthorhombic'
loop_
_space_group_symop_operation_xyz
x,y,z
-x,1/2-y,z
x,-y,-z
-x,1/2+y,-z
-x,-y,-z
x,1/2+y,-z
-x,y,z
x,1/2-y,z
1/2+x,1/2+y,1/2+z
1/2-x,-y,1/2+z
1/2+x,1/2-y,1/2-z
1/2-x,y,1/2-z
1/2-x,1/2-y,1/2-z
1/2+x,y,1/2-z
1/2-x,1/2+y,1/2+z
1/2+x,-y,1/2+z
loop_
_atom_site_type_symbol
_atom_site_label
_atom_site_fract_x
_atom_site_fract_y
_atom_site_fract_z
Si Si1 0.298880 0.435765 0.676056
Si Si2 0.651373 0.069304 0.439698
Si Si3 0.441528 0.425253 0.269613
Si Si4 0.186305 0.563330 0.307498
Si Si5 0.000000 0.566281 0.565863
Si Si6 0.413476 0.433756 0.854302
Si Si7 0.557139 0.932406 0.395105
O O1 0.301875 0.250000 0.674712
O O2 0.324104 0.501024 0.618577
O O3 0.241485 0.479690 0.676144
O O4 0.320938 0.486860 0.739308
O O5 0.657104 0.250000 0.440197
O O6 0.671778 0.000000 0.500000
O O7 0.594374 0.024374 0.435212
O O8 0.500000 0.411597 0.269924
O O9 0.421600 0.250000 0.269413
O O10 0.429038 0.519069 0.211431
O O11 0.429576 0.517248 0.328657
O O12 0.184776 0.750000 0.306263
O O13 0.143596 0.515554 0.352383
O O14 0.000000 0.500000 0.500000
O O15 0.048416 0.510052 0.600902
O O16 0.000000 0.750000 0.564440
O O17 0.416287 0.250000 0.862225
O O18 0.500000 0.967731 0.405199
O O19 0.564271 0.750000 0.401908
#
# Coordination Sequence:
#
# PCOD9535697 Si02
#       7
#    16  16  16  16   8  16  16
#     4   9  17  37  63  89 120 153 190 236 287 345
#     4  12  25  40  58  81 111 152 197 238 286 341
#     4  10  19  31  50  81 119 153 187 230 279 329
#     4   8  17  33  61  94 121 149 185 233 293 351
#     4  12  26  44  60  80 112 156 203 252 305 364
#     4  11  20  34  58  88 118 154 195 236 289 355
#     4  10  21  37  57  82 113 150 193 238 286 337
#
# _framework density 19.208687000000001
#
# number of rings (size 3 to 8) (size 9 to 14) (size 15 to 20)
#    0.000    1.846    0.769    5.308    0.000    3.077 
#    0.000    4.615    0.000    0.000    0.000    0.000 
#    0.000    0.000    0.000    0.000    0.000    0.000 
#
# Total GULP energy -290276.788114 kJ/mol
# GULP energy per Si atom -5582.245925 kJ/mol
# Density = 1.916497 g / cm^3
# Si number density = 19.208687 Si / 1000 Ang^3
#
#
#
# Elastic Constant Matrix: (Units=GPa)
#
#
# Indices 1 2 3 4 5 6 
#
# 1 99.7961 36.3634 59.0562 0.0000 0.0000 0.0000
# 2 36.3634 77.3665 28.9129 0.0000 0.0000 0.0000
# 3 59.0562 28.9129 102.5740 0.0000 0.0000 0.0000
# 4 0.0000 0.0000 0.0000 24.4133 0.0000 0.0000
# 5 0.0000 0.0000 0.0000 0.0000 19.1555 0.0000
# 6 0.0000 0.0000 0.0000 0.0000 0.0000 13.1255
#
#
#
# Elastic Compliance Matrix: (Units=1/GPa)
#
#
# Indices 1 2 3 4 5 6 
#
# 1 0.016617 -0.004734 -0.008233 0.000000 0.000000 0.000000
# 2 -0.004734 0.015796 -0.001727 0.000000 0.000000 0.000000
# 3 -0.008233 -0.001727 0.014976 0.000000 0.000000 0.000000
# 4 0.000000 0.000000 0.000000 0.040961 0.000000 0.000000
# 5 0.000000 0.000000 0.000000 0.000000 0.052204 0.000000
# 6 0.000000 0.000000 0.000000 0.000000 0.000000 0.076188
#
#
# Mechanical properties :
#
#
# Convention : Reuss Voigt Hill
#
# Bulk Modulus (GPa) = 55.55036 58.71128 57.13082
# Shear Modulus (GPa) = 19.83102 21.69912 20.76507
#
# Velocity S-wave (km/s) = 3.21658 3.36468 3.29146
# Velocity P-wave (km/s) = 6.54044 6.76210 6.65220
#
# Compressibility (1/GPa) = 0.01800168
#
# Stress axis : x y z
#
# Youngs Moduli (GPa) = 60.17835 63.30808 66.77360
#
# Poissons Ratio (x) = 0.29967 0.54975
# Poissons Ratio (y) = 0.28486 0.11532
# Poissons Ratio (z) = 0.49545 0.10934
#
# Static dielectric constant tensor:
#      x y z
#    x 1.728070 0.000000 0.000000 
#    y 0.000000 1.653320 0.000000 
#    z 0.000000 0.000000 1.650150 
# 
# From -- ./inp_files/55253.got.cif
#   From: 2010.05.17/outbox.cif.g08.bks.cpg/sg74_28_cif.got.tgz:55253.got - 2010.06.03 17:57:02.
