data_PCOD9535989
_publ_section_title
;
Structure prediction by ZEFSAII (Michael W. Deem and Ramdas Pophale) SiO2 
 PCOD9535989
Probable space group: I M M A
;
_chemical_formula_sum "Si O2"
_cell_formula_units_Z 64
_cell_length_a 14.442055
_cell_length_b 13.825227
_cell_length_c 17.350871
_cell_angle_alpha 90.000000
_cell_angle_beta 90.000000
_cell_angle_gamma 90.000000
_cell_volume 3464.356257
_symmetry_space_group_name_H-M "I M M A"
_symmetry_group_IT_number 74
_symmetry_cell_setting 'orthorhombic'
loop_
_space_group_symop_operation_xyz
x,y,z
-x,1/2-y,z
x,-y,-z
-x,1/2+y,-z
-x,-y,-z
x,1/2+y,-z
-x,y,z
x,1/2-y,z
1/2+x,1/2+y,1/2+z
1/2-x,-y,1/2+z
1/2+x,1/2-y,1/2-z
1/2-x,y,1/2-z
1/2-x,1/2-y,1/2-z
1/2+x,y,1/2-z
1/2-x,1/2+y,1/2+z
1/2+x,-y,1/2+z
loop_
_atom_site_type_symbol
_atom_site_label
_atom_site_fract_x
_atom_site_fract_y
_atom_site_fract_z
Si Si1 0.358958 0.250000 0.733562
Si Si2 0.107168 0.250000 0.948177
Si Si3 0.895007 0.924718 0.343043
Si Si4 0.732800 0.388970 0.986079
Si Si5 0.889726 0.855552 0.635846
O O1 0.250000 0.250000 0.750000
O O2 0.384727 0.250000 0.644358
O O3 0.393556 0.349282 0.773036
O O4 0.169155 0.162173 0.979063
O O5 0.000000 0.250000 0.970753
O O6 0.825643 0.882466 0.407147
O O7 0.000000 0.925514 0.374921
O O8 0.870862 0.038213 0.325889
O O9 0.750141 0.500000 0.000000
O O10 0.668698 0.355820 0.056953
O O11 0.870276 0.750000 0.674797
O O12 0.000000 0.856139 0.620131
#
# Coordination Sequence:
#
# PCOD9535989 Si02
#       5
#     8   8  16  16  16
#     4  12  22  37  53  76 109 147 184 223 266 312
#     4  12  24  37  52  75 104 145 192 224 256 302
#     4  10  19  32  53  79 109 140 170 216 273 325
#     4  10  19  33  52  78 107 139 172 217 266 322
#     4   9  17  30  53  85 113 135 163 206 272 342
#
# _framework density 18.473851
#
# number of rings (size 3 to 8) (size 9 to 14) (size 15 to 20)
#    0.000    1.750    3.750    1.875    0.000    3.500 
#    0.000    0.000    0.000    0.750    3.250    0.000 
#    0.000    0.000    0.000    0.000    0.000    0.000 
#
# Total GULP energy -178174.320743 kJ/mol
# GULP energy per Si atom -5567.947523 kJ/mol
# Density = 1.843180 g / cm^3
# Si number density = 18.473851 Si / 1000 Ang^3
#
#
#
# Elastic Constant Matrix: (Units=GPa)
#
#
# Indices 1 2 3 4 5 6 
#
# 1 85.0890 16.6426 -10.1825 0.0000 0.0000 0.0000
# 2 16.6426 151.0037 20.1355 0.0000 0.0000 0.0000
# 3 -10.1825 20.1355 27.3488 0.0000 0.0000 0.0000
# 4 0.0000 0.0000 0.0000 11.2406 0.0000 0.0000
# 5 0.0000 0.0000 0.0000 0.0000 17.8689 0.0000
# 6 0.0000 0.0000 0.0000 0.0000 0.0000 7.2437
#
#
#
# Elastic Compliance Matrix: (Units=1/GPa)
#
#
# Indices 1 2 3 4 5 6 
#
# 1 0.012984 -0.002302 0.006529 0.000000 0.000000 0.000000
# 2 -0.002302 0.007751 -0.006564 0.000000 0.000000 0.000000
# 3 0.006529 -0.006564 0.043828 0.000000 0.000000 0.000000
# 4 0.000000 0.000000 0.000000 0.088963 0.000000 0.000000
# 5 0.000000 0.000000 0.000000 0.000000 0.055963 0.000000
# 6 0.000000 0.000000 0.000000 0.000000 0.000000 0.138051
#
#
# Mechanical properties :
#
#
# Convention : Reuss Voigt Hill
#
# Bulk Modulus (GPa) = 16.69734 35.18142 25.93938
# Shear Modulus (GPa) = 13.43449 23.06039 18.24744
#
# Velocity S-wave (km/s) = 2.69962 3.53692 3.14625
# Velocity P-wave (km/s) = 4.33304 5.98038 5.22208
#
# Compressibility (1/GPa) = 0.05988976
#
# Stress axis : x y z
#
# Youngs Moduli (GPa) = 77.01887 129.01134 22.81646
#
# Poissons Ratio (x) = 0.29693 -0.14896
# Poissons Ratio (y) = 0.17726 0.14976
# Poissons Ratio (z) = -0.50283 0.84680
#
# Static dielectric constant tensor:
#      x y z
#    x 1.631420 0.000000 0.000000 
#    y 0.000000 1.716220 0.000000 
#    z 0.000000 0.000000 1.613140 
# 
# From -- ./inp_files/42428.got.cif
#   From: 2010.05.17/outbox.cif.g08.bks.cpg/sg74_22_cif.got.tgz:42428.got - 2010.06.03 17:57:02.
