data_PCOD9535786
_publ_section_title
;
Structure prediction by ZEFSAII (Michael W. Deem and Ramdas Pophale) SiO2 
 PCOD9535786
Probable space group: I M M A
;
_chemical_formula_sum "Si O2"
_cell_formula_units_Z 72
_cell_length_a 7.321806
_cell_length_b 18.486764
_cell_length_c 24.475477
_cell_angle_alpha 90.000000
_cell_angle_beta 90.000000
_cell_angle_gamma 90.000000
_cell_volume 3312.914892
_symmetry_space_group_name_H-M "I M M A"
_symmetry_group_IT_number 74
_symmetry_cell_setting 'orthorhombic'
loop_
_space_group_symop_operation_xyz
x,y,z
-x,1/2-y,z
x,-y,-z
-x,1/2+y,-z
-x,-y,-z
x,1/2+y,-z
-x,y,z
x,1/2-y,z
1/2+x,1/2+y,1/2+z
1/2-x,-y,1/2+z
1/2+x,1/2-y,1/2-z
1/2-x,y,1/2-z
1/2-x,1/2-y,1/2-z
1/2+x,y,1/2-z
1/2-x,1/2+y,1/2+z
1/2+x,-y,1/2+z
loop_
_atom_site_type_symbol
_atom_site_label
_atom_site_fract_x
_atom_site_fract_y
_atom_site_fract_z
Si Si1 0.276880 0.167067 0.396155
Si Si2 0.717638 0.456942 0.314682
Si Si3 0.217236 0.250000 0.813974
Si Si4 0.722088 0.083470 0.505104
Si Si5 0.223378 0.894875 0.128202
O O1 0.500000 0.167871 0.396069
O O2 0.217670 0.250000 0.390387
O O3 0.216489 0.113492 0.347647
O O4 0.219591 0.131659 0.453836
O O5 0.500000 0.457722 0.322268
O O6 0.750000 0.455101 0.250000
O O7 0.785076 0.531055 0.342738
O O8 0.250000 0.250000 0.750000
O O9 0.286877 0.176071 0.840226
O O10 0.000000 0.250000 0.823581
O O11 0.500000 0.083835 0.503839
O O12 0.777807 0.109310 0.564978
O O13 0.778738 0.000000 0.500000
O O14 0.000000 0.896312 0.129268
#
# Coordination Sequence:
#
# PCOD9535786 Si02
#       5
#    16  16   8  16  16
#     4   9  17  27  42  67  96 121 149 190 237 279
#     4  10  19  32  48  67  93 124 157 190 227 273
#     4  10  20  32  46  68  98 126 155 190 226 270
#     4   9  14  24  42  65  93 119 144 184 238 279
#     4   9  17  28  44  68  95 121 151 191 234 274
#
# _framework density 21.733128000000001
#
# number of rings (size 3 to 8) (size 9 to 14) (size 15 to 20)
#    0.000    2.667    2.222    0.667    1.556    0.444 
#    0.000    0.000    0.000    0.000    0.000    4.667 
#    0.000    0.000    0.000    0.000    0.000    0.000 
#
# Total GULP energy -201137.806191 kJ/mol
# GULP energy per Si atom -5587.161283 kJ/mol
# Density = 2.168366 g / cm^3
# Si number density = 21.733128 Si / 1000 Ang^3
#
#
#
# Elastic Constant Matrix: (Units=GPa)
#
#
# Indices 1 2 3 4 5 6 
#
# 1 85.8243 11.1176 -1.9497 0.0000 0.0000 0.0000
# 2 11.1176 218.0089 116.7027 0.0000 0.0000 0.0000
# 3 -1.9497 116.7027 199.8058 0.0000 0.0000 0.0000
# 4 0.0000 0.0000 0.0000 40.9478 0.0000 0.0000
# 5 0.0000 0.0000 0.0000 0.0000 15.3553 0.0000
# 6 0.0000 0.0000 0.0000 0.0000 0.0000 -17.7725
#
#
#
# Elastic Compliance Matrix: (Units=1/GPa)
#
#
# Indices 1 2 3 4 5 6 
#
# 1 0.011792 -0.000965 0.000678 0.000000 0.000000 0.000000
# 2 -0.000965 0.006752 -0.003953 0.000000 0.000000 0.000000
# 3 0.000678 -0.003953 0.007321 0.000000 0.000000 0.000000
# 4 0.000000 0.000000 0.000000 0.024421 0.000000 0.000000
# 5 0.000000 0.000000 0.000000 0.000000 0.065124 0.000000
# 6 0.000000 0.000000 0.000000 0.000000 0.000000 -0.056267
#
#
# Mechanical properties :
#
#
# Convention : Reuss Voigt Hill
#
# Bulk Modulus (GPa) = 57.51710 83.93113 70.72412
# Shear Modulus (GPa) = 68.10328 32.89069 50.49699
#
# Velocity S-wave (km/s) = 5.60394 3.89445 4.82550
# Velocity P-wave (km/s) = 8.27012 7.67627 7.97872
#
# Compressibility (1/GPa) = 0.01738613
#
# Stress axis : x y z
#
# Youngs Moduli (GPa) = 84.80276 148.09448 136.60131
#
# Poissons Ratio (x) = 0.14284 -0.09267
# Poissons Ratio (y) = 0.08179 0.54004
# Poissons Ratio (z) = -0.05753 0.58547
#
# Static dielectric constant tensor:
#      x y z
#    x 1.875800 0.000000 0.000000 
#    y 0.000000 1.756390 0.000000 
#    z 0.000000 0.000000 1.734150 
# 
# From -- ./inp_files/40971.got.cif
#   From: 2010.05.17/outbox.cif.g08.bks.cpg/sg74_21_cif.got.tgz:40971.got - 2010.06.03 17:57:02.
