data_PCOD9535952
_publ_section_title
;
Structure prediction by ZEFSAII (Michael W. Deem and Ramdas Pophale) SiO2 
 PCOD9535952
Probable space group: I M M A
;
_chemical_formula_sum "Si O2"
_cell_formula_units_Z 100
_cell_length_a 7.691640
_cell_length_b 21.348200
_cell_length_c 33.283585
_cell_angle_alpha 90.000000
_cell_angle_beta 90.000000
_cell_angle_gamma 90.000000
_cell_volume 5465.253492
_symmetry_space_group_name_H-M "I M M A"
_symmetry_group_IT_number 74
_symmetry_cell_setting 'orthorhombic'
loop_
_space_group_symop_operation_xyz
x,y,z
-x,1/2-y,z
x,-y,-z
-x,1/2+y,-z
-x,-y,-z
x,1/2+y,-z
-x,y,z
x,1/2-y,z
1/2+x,1/2+y,1/2+z
1/2-x,-y,1/2+z
1/2+x,1/2-y,1/2-z
1/2-x,y,1/2-z
1/2-x,1/2-y,1/2-z
1/2+x,y,1/2-z
1/2-x,1/2+y,1/2+z
1/2+x,-y,1/2+z
loop_
_atom_site_type_symbol
_atom_site_label
_atom_site_fract_x
_atom_site_fract_y
_atom_site_fract_z
Si Si1 0.705163 0.481424 0.629090
Si Si2 0.297158 0.429436 0.992539
Si Si3 0.293479 0.560211 0.796416
Si Si4 0.500000 0.250000 0.914280
Si Si5 0.791510 0.819868 0.655486
Si Si6 0.791652 0.601070 0.920451
Si Si7 0.297762 0.358416 0.586311
O O1 0.500000 0.480444 0.621284
O O2 0.732429 0.504825 0.674334
O O3 0.776825 0.536661 0.600282
O O4 0.763797 0.412330 0.617649
O O5 0.500000 0.434661 0.981425
O O6 0.203977 0.393533 0.956788
O O7 0.228909 0.500000 0.000000
O O8 0.280773 0.393971 0.034913
O O9 0.500000 0.562334 0.800264
O O10 0.250000 0.552605 0.750000
O O11 0.223027 0.625766 0.814851
O O12 0.655287 0.195728 0.914523
O O13 0.722822 0.750000 0.662577
O O14 0.754676 0.843977 0.610490
O O15 0.000000 0.817511 0.660369
O O16 0.000000 0.597952 0.923210
O O17 0.500000 0.339598 0.594797
#
# Coordination Sequence:
#
# PCOD9535952 Si02
#       7
#    16  16  16   4  16  16  16
#     4   9  19  35  58  84 112 143 185 238 294 346
#     4  11  21  34  57  85 113 149 196 249 306 354
#     4  10  20  33  55  84 117 145 181 235 290 345
#     4  12  26  44  58  86 122 156 206 236 292 374
#     4   9  19  36  52  71 105 155 202 236 279 339
#     4  10  19  32  52  79 109 144 191 249 297 343
#     4  11  23  41  63  86 119 158 197 249 300 356
#
# _framework density 18.297412999999999
#
# number of rings (size 3 to 8) (size 9 to 14) (size 15 to 20)
#    0.000    1.920    2.400    1.680    1.120    2.560 
#    1.440    0.000    0.000    0.000    0.000    0.560 
#    0.000    0.000    0.000    0.000    0.000    0.000 
#
# Total GULP energy -278462.751338 kJ/mol
# GULP energy per Si atom -5569.255027 kJ/mol
# Density = 1.825577 g / cm^3
# Si number density = 18.297413 Si / 1000 Ang^3
#
#
#
# Elastic Constant Matrix: (Units=GPa)
#
#
# Indices 1 2 3 4 5 6 
#
# 1 72.1868 39.8338 -3.2354 0.0000 0.0000 0.0000
# 2 39.8338 137.8857 55.3995 0.0000 0.0000 0.0000
# 3 -3.2354 55.3995 104.5266 0.0000 0.0000 0.0000
# 4 0.0000 0.0000 0.0000 6.2677 0.0000 0.0000
# 5 0.0000 0.0000 0.0000 0.0000 14.0330 0.0000
# 6 0.0000 0.0000 0.0000 0.0000 0.0000 -22.6372
#
#
#
# Elastic Compliance Matrix: (Units=1/GPa)
#
#
# Indices 1 2 3 4 5 6 
#
# 1 0.017800 -0.006815 0.004163 0.000000 0.000000 0.000000
# 2 -0.006815 0.011824 -0.006478 0.000000 0.000000 0.000000
# 3 0.004163 -0.006478 0.013129 0.000000 0.000000 0.000000
# 4 0.000000 0.000000 0.000000 0.159549 0.000000 0.000000
# 5 0.000000 0.000000 0.000000 0.000000 0.071260 0.000000
# 6 0.000000 0.000000 0.000000 0.000000 0.000000 -0.044175
#
#
# Mechanical properties :
#
#
# Convention : Reuss Voigt Hill
#
# Bulk Modulus (GPa) = 40.82692 55.39942 48.11317
# Shear Modulus (GPa) = 19.54569 14.37278 16.95924
#
# Velocity S-wave (km/s) = 3.27191 2.80573 3.04775
# Velocity P-wave (km/s) = 6.05271 6.39055 6.22392
#
# Compressibility (1/GPa) = 0.02449364
#
# Stress axis : x y z
#
# Youngs Moduli (GPa) = 56.17967 84.57637 76.16779
#
# Poissons Ratio (x) = 0.57637 -0.31707
# Poissons Ratio (y) = 0.38285 0.49338
# Poissons Ratio (z) = -0.23387 0.54784
#
# Static dielectric constant tensor:
#      x y z
#    x 1.664410 0.000000 0.000000 
#    y 0.000000 1.646890 0.000000 
#    z 0.000000 0.000000 1.599270 
# 
# From -- ./inp_files/70576.got.cif
#   From: 2010.05.17/outbox.cif.g08.bks.cpg/sg74_36_cif.got.tgz:70576.got - 2010.06.03 17:57:02.
