data_PCOD9535909
_publ_section_title
;
Structure prediction by ZEFSAII (Michael W. Deem and Ramdas Pophale) SiO2 
 PCOD9535909
Probable space group: I M M A
;
_chemical_formula_sum "Si O2"
_cell_formula_units_Z 88
_cell_length_a 19.124584
_cell_length_b 7.461096
_cell_length_c 29.365933
_cell_angle_alpha 90.000000
_cell_angle_beta 90.000000
_cell_angle_gamma 90.000000
_cell_volume 4190.235469
_symmetry_space_group_name_H-M "I M M A"
_symmetry_group_IT_number 74
_symmetry_cell_setting 'orthorhombic'
loop_
_space_group_symop_operation_xyz
x,y,z
-x,1/2-y,z
x,-y,-z
-x,1/2+y,-z
-x,-y,-z
x,1/2+y,-z
-x,y,z
x,1/2-y,z
1/2+x,1/2+y,1/2+z
1/2-x,-y,1/2+z
1/2+x,1/2-y,1/2-z
1/2-x,y,1/2-z
1/2-x,1/2-y,1/2-z
1/2+x,y,1/2-z
1/2-x,1/2+y,1/2+z
1/2+x,-y,1/2+z
loop_
_atom_site_type_symbol
_atom_site_label
_atom_site_fract_x
_atom_site_fract_y
_atom_site_fract_z
Si Si1 0.282483 0.047406 0.608623
Si Si2 0.500000 0.535417 0.054455
Si Si3 0.219728 0.456862 0.297287
Si Si4 0.078823 0.033617 0.743703
Si Si5 0.152267 0.534791 0.446174
Si Si6 0.420485 0.969035 0.348652
O O1 0.294037 0.250000 0.591341
O O2 0.222042 0.962145 0.577745
O O3 0.359156 0.967198 0.617962
O O4 0.248177 0.053878 0.658719
O O5 0.500000 0.750000 0.061224
O O6 0.424051 0.467949 0.070894
O O7 0.500000 0.500000 0.000000
O O8 0.241797 0.250000 0.301131
O O9 0.250000 0.531643 0.250000
O O10 0.136816 0.466170 0.290761
O O11 0.080876 0.250000 0.743140
O O12 0.093915 0.977284 0.796086
O O13 0.000000 0.977550 0.732855
O O14 0.155810 0.500000 0.500000
O O15 0.152071 0.750000 0.438791
O O16 0.500000 0.022210 0.359826
O O17 0.418609 0.750000 0.348824
#
# Coordination Sequence:
#
# PCOD9535909 Si02
#       6
#    16   8  16  16  16  16
#     4  10  19  32  52  74  96 126 167 206 246 292
#     4   8  14  28  48  70  96 120 152 190 230 282
#     4  11  22  33  46  69 103 137 164 198 249 297
#     4   9  17  31  51  70  90 126 172 211 244 279
#     4   9  18  32  52  75  96 124 157 198 245 290
#     4   8  14  26  47  72  93 118 161 210 244 278
#
# _framework density 21.001206
#
# number of rings (size 3 to 8) (size 9 to 14) (size 15 to 20)
#    0.000    2.727    1.818    1.636    0.000    1.818 
#    1.636    0.000    0.000    1.091    0.000    0.000 
#    0.000    0.000    0.000    0.000    0.000    0.000 
#
# Total GULP energy -245361.872103 kJ/mol
# GULP energy per Si atom -5576.406184 kJ/mol
# Density = 2.095341 g / cm^3
# Si number density = 21.001206 Si / 1000 Ang^3
#
#
#
# Elastic Constant Matrix: (Units=GPa)
#
#
# Indices 1 2 3 4 5 6 
#
# 1 192.5674 0.5060 40.9841 0.0000 0.0000 0.0000
# 2 0.5060 67.7491 -4.6501 0.0000 0.0000 0.0000
# 3 40.9841 -4.6501 36.0018 0.0000 0.0000 0.0000
# 4 0.0000 0.0000 0.0000 -10.1112 0.0000 0.0000
# 5 0.0000 0.0000 0.0000 0.0000 32.2966 0.0000
# 6 0.0000 0.0000 0.0000 0.0000 0.0000 -4.8209
#
#
#
# Elastic Compliance Matrix: (Units=1/GPa)
#
#
# Indices 1 2 3 4 5 6 
#
# 1 0.006877 -0.000594 -0.007906 0.000000 0.000000 0.000000
# 2 -0.000594 0.014944 0.002606 0.000000 0.000000 0.000000
# 3 -0.007906 0.002606 0.037113 0.000000 0.000000 0.000000
# 4 0.000000 0.000000 0.000000 -0.098901 0.000000 0.000000
# 5 0.000000 0.000000 0.000000 0.000000 0.030963 0.000000
# 6 0.000000 0.000000 0.000000 0.000000 0.000000 -0.207430
#
#
# Mechanical properties :
#
#
# Convention : Reuss Voigt Hill
#
# Bulk Modulus (GPa) = 21.21027 41.11096 31.16061
# Shear Modulus (GPa) = -26.46456 20.77145 -2.84655
#
# Velocity S-wave (km/s) = -3.55370 3.14834 -1.16549
# Velocity P-wave (km/s) = 2.59170 5.73011 3.61367
#
# Compressibility (1/GPa) = 0.04714697
#
# Stress axis : x y z
#
# Youngs Moduli (GPa) = 145.41057 66.91795 26.94506
#
# Poissons Ratio (x) = 0.03975 0.21301
# Poissons Ratio (y) = 0.08637 -0.07023
# Poissons Ratio (z) = 1.14955 -0.17441
#
# Static dielectric constant tensor:
#      x y z
#    x 1.824480 0.000000 0.000000 
#    y 0.000000 1.467680 0.000000 
#    z 0.000000 0.000000 1.702860 
# 
# From -- ./inp_files/57020.got.cif
#   From: 2010.05.17/outbox.cif.g08.bks.cpg/sg74_29_cif.got.tgz:57020.got - 2010.06.03 17:57:02.
