data_PCOD9535780
_publ_section_title
;
Structure prediction by ZEFSAII (Michael W. Deem and Ramdas Pophale) SiO2 
 PCOD9535780
Probable space group: I M M A
;
_chemical_formula_sum "Si O2"
_cell_formula_units_Z 80
_cell_length_a 27.977369
_cell_length_b 10.119727
_cell_length_c 16.106661
_cell_angle_alpha 90.000000
_cell_angle_beta 90.000000
_cell_angle_gamma 90.000000
_cell_volume 4560.171602
_symmetry_space_group_name_H-M "I M M A"
_symmetry_group_IT_number 74
_symmetry_cell_setting 'orthorhombic'
loop_
_space_group_symop_operation_xyz
x,y,z
-x,1/2-y,z
x,-y,-z
-x,1/2+y,-z
-x,-y,-z
x,1/2+y,-z
-x,y,z
x,1/2-y,z
1/2+x,1/2+y,1/2+z
1/2-x,-y,1/2+z
1/2+x,1/2-y,1/2-z
1/2-x,y,1/2-z
1/2-x,1/2-y,1/2-z
1/2+x,y,1/2-z
1/2-x,1/2+y,1/2+z
1/2+x,-y,1/2+z
loop_
_atom_site_type_symbol
_atom_site_label
_atom_site_fract_x
_atom_site_fract_y
_atom_site_fract_z
Si Si1 0.556798 0.533836 0.303739
Si Si2 0.298859 0.095344 0.925198
Si Si3 0.942501 0.750000 0.872608
Si Si4 0.816502 0.594396 0.076216
Si Si5 0.848097 0.595334 0.257622
Si Si6 0.442599 0.250000 0.558930
O O1 0.500000 0.549182 0.285775
O O2 0.568562 0.383209 0.324606
O O3 0.594663 0.580898 0.235763
O O4 0.567883 0.622116 0.385422
O O5 0.312851 0.250000 0.937551
O O6 0.241258 0.092909 0.921390
O O7 0.320605 0.044924 0.838115
O O8 0.313985 0.000000 0.000000
O O9 0.000000 0.750000 0.879845
O O10 0.923104 0.750000 0.966226
O O11 0.830906 0.750000 0.065947
O O12 0.833345 0.543214 0.166653
O O13 0.831919 0.500000 0.000000
O O14 0.835483 0.750000 0.253270
O O15 0.500000 0.250000 0.551066
#
# Coordination Sequence:
#
# PCOD9535780 Si02
#       6
#    16  16   8  16  16   8
#     4  10  19  32  47  68  97 133 171 205 245 291
#     4   9  18  35  57  76  98 127 166 211 256 302
#     4   9  18  30  44  64  94 131 169 209 248 282
#     4   9  18  33  52  76 105 136 164 199 245 296
#     4  10  19  33  52  76 100 134 172 205 245 297
#     4   9  16  28  46  64  88 127 173 205 232 284
#
# _framework density 17.543201
#
# number of rings (size 3 to 8) (size 9 to 14) (size 15 to 20)
#    0.000    2.600    1.000    1.200    0.000    6.400 
#    3.600    0.000    0.000    5.400    0.000    0.000 
#    0.000    0.000    0.000    0.000    0.000    0.000 
#
# Total GULP energy -222879.968785 kJ/mol
# GULP energy per Si atom -5571.999220 kJ/mol
# Density = 1.750327 g / cm^3
# Si number density = 17.543201 Si / 1000 Ang^3
#
#
#
# Elastic Constant Matrix: (Units=GPa)
#
#
# Indices 1 2 3 4 5 6 
#
# 1 39.6037 4.3743 42.8607 0.0000 0.0000 0.0000
# 2 4.3743 60.5751 42.2298 0.0000 0.0000 0.0000
# 3 42.8607 42.2298 115.3714 0.0000 0.0000 0.0000
# 4 0.0000 0.0000 0.0000 25.9572 0.0000 0.0000
# 5 0.0000 0.0000 0.0000 0.0000 18.0204 0.0000
# 6 0.0000 0.0000 0.0000 0.0000 0.0000 19.5188
#
#
#
# Elastic Compliance Matrix: (Units=1/GPa)
#
#
# Indices 1 2 3 4 5 6 
#
# 1 0.047976 0.012031 -0.022227 0.000000 0.000000 0.000000
# 2 0.012031 0.025181 -0.013687 0.000000 0.000000 0.000000
# 3 -0.022227 -0.013687 0.021935 0.000000 0.000000 0.000000
# 4 0.000000 0.000000 0.000000 0.038525 0.000000 0.000000
# 5 0.000000 0.000000 0.000000 0.000000 0.055493 0.000000
# 6 0.000000 0.000000 0.000000 0.000000 0.000000 0.051233
#
#
# Mechanical properties :
#
#
# Convention : Reuss Voigt Hill
#
# Bulk Modulus (GPa) = 21.12962 43.83109 32.48036
# Shear Modulus (GPa) = 16.45367 21.10500 18.77933
#
# Velocity S-wave (km/s) = 3.06583 3.47224 3.27534
# Velocity P-wave (km/s) = 4.96013 6.41203 5.73223
#
# Compressibility (1/GPa) = 0.04732693
#
# Stress axis : x y z
#
# Youngs Moduli (GPa) = 20.84364 39.71195 45.58956
#
# Poissons Ratio (x) = -0.47778 1.01332
# Poissons Ratio (y) = -0.25077 0.62397
# Poissons Ratio (z) = 0.46329 0.54353
#
# Static dielectric constant tensor:
#      x y z
#    x 1.641450 0.000000 0.000000 
#    y 0.000000 1.491510 0.000000 
#    z 0.000000 0.000000 1.588300 
# 
# From -- ./inp_files/26921.got.cif
#   From: 2010.05.17/outbox.cif.g08.bks.cpg/sg74_14_cif.got.tgz:26921.got - 2010.06.03 17:57:02.
