data_PCOD9535154
_publ_section_title
;
Structure prediction by ZEFSAII (Michael W. Deem and Ramdas Pophale) SiO2 
 PCOD9535154
Probable space group: I M M A
;
_chemical_formula_sum "Si O2"
_cell_formula_units_Z 104
_cell_length_a 24.814554
_cell_length_b 24.183019
_cell_length_c 8.758919
_cell_angle_alpha 90.000000
_cell_angle_beta 90.000000
_cell_angle_gamma 90.000000
_cell_volume 5256.146980
_symmetry_space_group_name_H-M "I M M A"
_symmetry_group_IT_number 74
_symmetry_cell_setting 'orthorhombic'
loop_
_space_group_symop_operation_xyz
x,y,z
-x,1/2-y,z
x,-y,-z
-x,1/2+y,-z
-x,-y,-z
x,1/2+y,-z
-x,y,z
x,1/2-y,z
1/2+x,1/2+y,1/2+z
1/2-x,-y,1/2+z
1/2+x,1/2-y,1/2-z
1/2-x,y,1/2-z
1/2-x,1/2-y,1/2-z
1/2+x,y,1/2-z
1/2-x,1/2+y,1/2+z
1/2+x,-y,1/2+z
loop_
_atom_site_type_symbol
_atom_site_label
_atom_site_fract_x
_atom_site_fract_y
_atom_site_fract_z
Si Si1 0.812720 0.811851 0.716109
Si Si2 0.080246 0.000000 0.500000
Si Si3 0.636357 0.883216 0.043325
Si Si4 0.935628 0.684067 0.238132
Si Si5 0.808021 0.057146 0.805313
Si Si6 0.087405 0.479968 0.167906
Si Si7 0.630545 0.126805 0.466586
O O1 0.822577 0.750000 0.659192
O O2 0.750000 0.818282 0.750000
O O3 0.832983 0.855172 0.593554
O O4 0.845293 0.823708 0.869943
O O5 0.112685 0.057265 0.500347
O O6 0.057201 0.003281 0.325073
O O7 0.590144 0.843464 0.110926
O O8 0.677532 0.897129 0.178715
O O9 0.924364 0.750000 0.230244
O O10 0.000000 0.676548 0.234386
O O11 0.907319 0.650601 0.099966
O O12 0.750000 0.035411 0.750000
O O13 0.854282 0.010225 0.809614
O O14 0.820170 0.090179 0.962233
O O15 0.097082 0.415082 0.141075
O O16 0.066741 0.500000 0.000000
#
# Coordination Sequence:
#
# PCOD9535154 Si02
#       7
#    16   8  16  16  16  16  16
#     4  11  22  34  53  86 125 166 201 236 302 381
#     4  10  18  36  59  86 122 162 204 252 311 380
#     4  10  20  37  58  84 123 157 200 258 314 370
#     4  10  22  42  68  90 111 155 217 276 332 380
#     4   9  18  32  52  82 117 161 206 242 294 361
#     4   9  18  32  52  82 117 160 200 246 299 364
#     4  10  19  36  56  82 122 153 200 259 313 368
#
# _framework density 19.786356000000001
#
# number of rings (size 3 to 8) (size 9 to 14) (size 15 to 20)
#    0.000    2.154    1.538    2.769    0.000    0.615 
#   16.615    1.154    0.000   32.769    0.000    0.000 
#    0.000    0.000    0.000    0.000    0.000    0.000 
#
# Total GULP energy -289620.495172 kJ/mol
# GULP energy per Si atom -5569.624907 kJ/mol
# Density = 1.974132 g / cm^3
# Si number density = 19.786356 Si / 1000 Ang^3
#
#
#
# Elastic Constant Matrix: (Units=GPa)
#
#
# Indices 1 2 3 4 5 6 
#
# 1 62.0637 28.6859 14.0699 0.0000 0.0000 0.0000
# 2 28.6859 113.0452 23.4673 0.0000 0.0000 0.0000
# 3 14.0699 23.4673 102.7738 0.0000 0.0000 0.0000
# 4 0.0000 0.0000 0.0000 130.7684 0.0000 0.0000
# 5 0.0000 0.0000 0.0000 0.0000 85.7424 0.0000
# 6 0.0000 0.0000 0.0000 0.0000 0.0000 82.0010
#
#
#
# Elastic Compliance Matrix: (Units=1/GPa)
#
#
# Indices 1 2 3 4 5 6 
#
# 1 0.018480 -0.004371 -0.001532 0.000000 0.000000 0.000000
# 2 -0.004371 0.010320 -0.001758 0.000000 0.000000 0.000000
# 3 -0.001532 -0.001758 0.010341 0.000000 0.000000 0.000000
# 4 0.000000 0.000000 0.000000 0.007647 0.000000 0.000000
# 5 0.000000 0.000000 0.000000 0.000000 0.011663 0.000000
# 6 0.000000 0.000000 0.000000 0.000000 0.000000 0.012195
#
#
# Mechanical properties :
#
#
# Convention : Reuss Voigt Hill
#
# Bulk Modulus (GPa) = 41.98313 45.59208 43.78761
# Shear Modulus (GPa) = 53.24299 73.81297 63.52798
#
# Velocity S-wave (km/s) = 5.19301 6.11441 5.67245
# Velocity P-wave (km/s) = 7.56444 8.54050 8.06725
#
# Compressibility (1/GPa) = 0.02381909
#
# Stress axis : x y z
#
# Youngs Moduli (GPa) = 54.11182 96.89666 96.70015
#
# Poissons Ratio (x) = 0.42358 0.14812
# Poissons Ratio (y) = 0.23655 0.17000
# Poissons Ratio (z) = 0.08289 0.17035
#
# Static dielectric constant tensor:
#      x y z
#    x 1.688480 0.000000 0.000000 
#    y 0.000000 1.676660 0.000000 
#    z 0.000000 0.000000 1.775420 
# 
# From -- ./inp_files/15206.got.cif
#   From: 2010.05.17/outbox.cif.g08.bks.cpg/sg74_8_cif.got.tgz:15206.got - 2010.06.03 17:57:02.
