data_PCOD9535345
_publ_section_title
;
Structure prediction by ZEFSAII (Michael W. Deem and Ramdas Pophale) SiO2 
 PCOD9535345
Probable space group: I M M A
;
_chemical_formula_sum "Si O2"
_cell_formula_units_Z 104
_cell_length_a 22.344093
_cell_length_b 9.801526
_cell_length_c 30.460934
_cell_angle_alpha 90.000000
_cell_angle_beta 90.000000
_cell_angle_gamma 90.000000
_cell_volume 6671.133662
_symmetry_space_group_name_H-M "I M M A"
_symmetry_group_IT_number 74
_symmetry_cell_setting 'orthorhombic'
loop_
_space_group_symop_operation_xyz
x,y,z
-x,1/2-y,z
x,-y,-z
-x,1/2+y,-z
-x,-y,-z
x,1/2+y,-z
-x,y,z
x,1/2-y,z
1/2+x,1/2+y,1/2+z
1/2-x,-y,1/2+z
1/2+x,1/2-y,1/2-z
1/2-x,y,1/2-z
1/2-x,1/2-y,1/2-z
1/2+x,y,1/2-z
1/2-x,1/2+y,1/2+z
1/2+x,-y,1/2+z
loop_
_atom_site_type_symbol
_atom_site_label
_atom_site_fract_x
_atom_site_fract_y
_atom_site_fract_z
Si Si1 0.887695 0.911940 0.608185
Si Si2 0.857301 0.411718 0.042559
Si Si3 0.428364 0.087543 0.811031
Si Si4 0.071329 0.911293 0.869915
Si Si5 0.283984 0.089613 0.042039
Si Si6 0.000000 0.088211 0.455864
Si Si7 0.427247 0.093157 0.711982
O O1 0.889875 0.750000 0.618298
O O2 0.826055 0.942871 0.583087
O O3 0.941779 0.940029 0.574045
O O4 0.896980 0.000192 0.651574
O O5 0.866793 0.250000 0.034252
O O6 0.894518 0.450465 0.085657
O O7 0.786387 0.432068 0.050846
O O8 0.873846 0.500000 0.000000
O O9 0.500000 0.063922 0.814431
O O10 0.418846 0.250000 0.816696
O O11 0.409116 0.051514 0.761272
O O12 0.081082 0.750000 0.862569
O O13 0.000000 0.932385 0.875548
O O14 0.091886 0.996336 0.827584
O O15 0.292727 0.250000 0.031943
O O16 0.301021 0.000000 0.000000
O O17 0.000000 0.250000 0.466525
O O18 0.000000 0.000000 0.500000
O O19 0.500000 0.091899 0.712446
O O20 0.408839 0.250000 0.704553
#
# Coordination Sequence:
#
# PCOD9535345 Si02
#       7
#    16  16  16  16  16   8  16
#     4  10  19  30  44  64  89 115 148 189 228 266
#     4   9  18  32  48  67  92 120 151 184 217 260
#     4   9  17  29  45  66  91 118 148 183 226 271
#     4   9  17  29  46  70  96 119 145 179 221 265
#     4   9  18  32  48  64  85 117 154 188 221 261
#     4  10  20  30  40  60  88 114 142 182 227 268
#     4   8  15  28  45  66  92 119 147 180 218 265
#
# _framework density 15.589554
#
# number of rings (size 3 to 8) (size 9 to 14) (size 15 to 20)
#    0.000    2.923    0.769    1.385    0.000    2.769 
#    0.000    1.538    0.000    0.923    0.000    6.462 
#    0.000    0.000    0.000    0.000    0.000    0.000 
#
# Total GULP energy -289693.069423 kJ/mol
# GULP energy per Si atom -5571.020566 kJ/mol
# Density = 1.555407 g / cm^3
# Si number density = 15.589554 Si / 1000 Ang^3
#
#
#
# Elastic Constant Matrix: (Units=GPa)
#
#
# Indices 1 2 3 4 5 6 
#
# 1 31.6749 37.4825 57.9938 0.0000 0.0000 0.0000
# 2 37.4825 59.6387 95.3137 0.0000 0.0000 0.0000
# 3 57.9938 95.3137 184.6286 0.0000 0.0000 0.0000
# 4 0.0000 0.0000 0.0000 38.3657 0.0000 0.0000
# 5 0.0000 0.0000 0.0000 0.0000 18.5057 0.0000
# 6 0.0000 0.0000 0.0000 0.0000 0.0000 15.0029
#
#
#
# Elastic Compliance Matrix: (Units=1/GPa)
#
#
# Indices 1 2 3 4 5 6 
#
# 1 0.124931 -0.090327 0.007389 0.000000 0.000000 0.000000
# 2 -0.090327 0.161154 -0.054822 0.000000 0.000000 0.000000
# 3 0.007389 -0.054822 0.031397 0.000000 0.000000 0.000000
# 4 0.000000 0.000000 0.000000 0.026065 0.000000 0.000000
# 5 0.000000 0.000000 0.000000 0.000000 0.054037 0.000000
# 6 0.000000 0.000000 0.000000 0.000000 0.000000 0.066654
#
#
# Mechanical properties :
#
#
# Convention : Reuss Voigt Hill
#
# Bulk Modulus (GPa) = 23.83170 73.05803 48.44486
# Shear Modulus (GPa) = 6.63353 20.05168 13.34260
#
# Velocity S-wave (km/s) = 2.06503 3.59029 2.92870
# Velocity P-wave (km/s) = 4.58323 8.00950 6.52526
#
# Compressibility (1/GPa) = 0.04196091
#
# Stress axis : x y z
#
# Youngs Moduli (GPa) = 8.00442 6.20524 31.85000
#
# Poissons Ratio (x) = 0.56050 -0.23534
# Poissons Ratio (y) = 0.72302 1.74609
# Poissons Ratio (z) = -0.05914 0.34019
#
# Static dielectric constant tensor:
#      x y z
#    x 1.513360 0.000000 0.000000 
#    y 0.000000 1.516440 0.000000 
#    z 0.000000 0.000000 1.499120 
# 
# From -- ./inp_files/70973.got.cif
#   From: 2010.05.17/outbox.cif.g08.bks.cpg/sg74_36_cif.got.tgz:70973.got - 2010.06.03 17:57:02.
