data_PCOD9535342
_publ_section_title
;
Structure prediction by ZEFSAII (Michael W. Deem and Ramdas Pophale) SiO2 
 PCOD9535342
Probable space group: I M M A
;
_chemical_formula_sum "Si O2"
_cell_formula_units_Z 120
_cell_length_a 28.472111
_cell_length_b 7.292692
_cell_length_c 26.187145
_cell_angle_alpha 90.000000
_cell_angle_beta 90.000000
_cell_angle_gamma 90.000000
_cell_volume 5437.455215
_symmetry_space_group_name_H-M "I M M A"
_symmetry_group_IT_number 74
_symmetry_cell_setting 'orthorhombic'
loop_
_space_group_symop_operation_xyz
x,y,z
-x,1/2-y,z
x,-y,-z
-x,1/2+y,-z
-x,-y,-z
x,1/2+y,-z
-x,y,z
x,1/2-y,z
1/2+x,1/2+y,1/2+z
1/2-x,-y,1/2+z
1/2+x,1/2-y,1/2-z
1/2-x,y,1/2-z
1/2-x,1/2-y,1/2-z
1/2+x,y,1/2-z
1/2-x,1/2+y,1/2+z
1/2+x,-y,1/2+z
loop_
_atom_site_type_symbol
_atom_site_label
_atom_site_fract_x
_atom_site_fract_y
_atom_site_fract_z
Si Si1 0.649384 0.026407 0.245038
Si Si2 0.550639 0.027770 0.078586
Si Si3 0.000000 0.967937 0.939067
Si Si4 0.396586 0.469124 0.439279
Si Si5 0.151841 0.032043 0.444996
Si Si6 0.712824 0.473946 0.150558
Si Si7 0.179648 0.026336 0.142238
Si Si8 0.948807 0.527821 0.698877
O O1 0.649424 0.250000 0.244265
O O2 0.688836 0.969840 0.203874
O O3 0.659881 0.970922 0.302607
O O4 0.597989 0.964879 0.226797
O O5 0.500000 0.961284 0.059445
O O6 0.549953 0.250000 0.074629
O O7 0.598637 0.958374 0.054392
O O8 0.553864 0.983610 0.138824
O O9 0.000000 0.750000 0.929051
O O10 0.948602 0.038438 0.922613
O O11 0.000000 0.000000 0.000000
O O12 0.389930 0.500000 0.500000
O O13 0.398211 0.250000 0.433011
O O14 0.354111 0.535791 0.403751
O O15 0.148366 0.250000 0.437878
O O16 0.180585 0.964316 0.396552
O O17 0.174526 0.000000 0.500000
O O18 0.712979 0.250000 0.151129
O O19 0.766145 0.532115 0.141093
O O20 0.179976 0.250000 0.140757
O O21 0.948566 0.750000 0.701654
O O22 0.000000 0.466656 0.718236
#
# Coordination Sequence:
#
# PCOD9535342 Si02
#       8
#    16  16   8  16  16  16  16  16
#     4   9  14  23  38  58  84 113 142 174 215 259
#     4   8  13  23  39  57  81 113 144 174 211 258
#     4   8  14  26  44  62  84 116 146 170 205 254
#     4   9  17  30  46  65  90 118 145 175 213 255
#     4  10  19  30  44  63  86 113 147 183 218 256
#     4   9  16  27  41  57  82 115 145 175 215 263
#     4   9  17  26  39  62  87 111 143 180 216 253
#     4   8  12  19  33  54  81 113 142 166 206 264
#
# _framework density 22.069148999999999
#
# number of rings (size 3 to 8) (size 9 to 14) (size 15 to 20)
#    0.000    3.200    1.333    1.200    0.000    2.400 
#    1.200    0.000    0.000    0.000    0.000    0.933 
#    0.000    2.133    0.000    0.267    0.000    0.000 
#
# Total GULP energy -334786.913562 kJ/mol
# GULP energy per Si atom -5579.781893 kJ/mol
# Density = 2.201892 g / cm^3
# Si number density = 22.069149 Si / 1000 Ang^3
#
#
#
# Elastic Constant Matrix: (Units=GPa)
#
#
# Indices 1 2 3 4 5 6 
#
# 1 210.9398 6.9976 104.6250 0.0000 0.0000 0.0000
# 2 6.9976 93.9791 0.0839 0.0000 0.0000 0.0000
# 3 104.6250 0.0839 137.3402 0.0000 0.0000 0.0000
# 4 0.0000 0.0000 0.0000 1.9853 0.0000 0.0000
# 5 0.0000 0.0000 0.0000 0.0000 0.3457 0.0000
# 6 0.0000 0.0000 0.0000 0.0000 0.0000 -16.1662
#
#
#
# Elastic Compliance Matrix: (Units=1/GPa)
#
#
# Indices 1 2 3 4 5 6 
#
# 1 0.007650 -0.000564 -0.005827 0.000000 0.000000 0.000000
# 2 -0.000564 0.010682 0.000423 0.000000 0.000000 0.000000
# 3 -0.005827 0.000423 0.011720 0.000000 0.000000 0.000000
# 4 0.000000 0.000000 0.000000 0.503703 0.000000 0.000000
# 5 0.000000 0.000000 0.000000 0.000000 2.892777 0.000000
# 6 0.000000 0.000000 0.000000 0.000000 0.000000 -0.061857
#
#
# Mechanical properties :
#
#
# Convention : Reuss Voigt Hill
#
# Bulk Modulus (GPa) = 55.20045 73.96356 64.58200
# Shear Modulus (GPa) = 1.47813 19.26980 10.37397
#
# Velocity S-wave (km/s) = 0.81928 2.95813 2.17045
# Velocity P-wave (km/s) = 5.09527 6.72715 5.96726
#
# Compressibility (1/GPa) = 0.01811579
#
# Stress axis : x y z
#
# Youngs Moduli (GPa) = 130.72552 93.61274 85.32443
#
# Poissons Ratio (x) = 0.05283 0.49719
# Poissons Ratio (y) = 0.07378 -0.03613
# Poissons Ratio (z) = 0.76175 -0.03964
#
# Static dielectric constant tensor:
#      x y z
#    x 1.815890 0.000000 0.000000 
#    y 0.000000 1.900120 0.000000 
#    z 0.000000 0.000000 1.757720 
# 
# From -- ./inp_files/62803.got.cif
#   From: 2010.05.17/outbox.cif.g08.bks.cpg/sg74_32_cif.got.tgz:62803.got - 2010.06.03 17:57:02.
