data_PCOD9535944
_publ_section_title
;
Structure prediction by ZEFSAII (Michael W. Deem and Ramdas Pophale) SiO2 
 PCOD9535944
Probable space group: I M M A
;
_chemical_formula_sum "Si O2"
_cell_formula_units_Z 80
_cell_length_a 14.390597
_cell_length_b 18.541977
_cell_length_c 11.583653
_cell_angle_alpha 90.000000
_cell_angle_beta 90.000000
_cell_angle_gamma 90.000000
_cell_volume 3090.867504
_symmetry_space_group_name_H-M "I M M A"
_symmetry_group_IT_number 74
_symmetry_cell_setting 'orthorhombic'
loop_
_space_group_symop_operation_xyz
x,y,z
-x,1/2-y,z
x,-y,-z
-x,1/2+y,-z
-x,-y,-z
x,1/2+y,-z
-x,y,z
x,1/2-y,z
1/2+x,1/2+y,1/2+z
1/2-x,-y,1/2+z
1/2+x,1/2-y,1/2-z
1/2-x,y,1/2-z
1/2-x,1/2-y,1/2-z
1/2+x,y,1/2-z
1/2-x,1/2+y,1/2+z
1/2+x,-y,1/2+z
loop_
_atom_site_type_symbol
_atom_site_label
_atom_site_fract_x
_atom_site_fract_y
_atom_site_fract_z
Si Si1 0.895028 0.750000 0.273392
Si Si2 0.359066 0.940197 0.733665
Si Si3 0.890942 0.097636 0.760500
Si Si4 0.103678 0.162344 0.426218
Si Si5 0.799009 0.104476 0.006757
Si Si6 0.606477 0.750000 0.506708
O O1 0.857840 0.829087 0.304998
O O2 0.000000 0.750000 0.315269
O O3 0.892334 0.750000 0.133955
O O4 0.250000 0.932815 0.750000
O O5 0.401031 0.870811 0.796442
O O6 0.360969 0.943508 0.594529
O O7 0.388259 0.016788 0.788584
O O8 0.000000 0.111237 0.790994
O O9 0.827944 0.093505 0.874959
O O10 0.120481 0.250000 0.430667
O O11 0.188041 0.112702 0.476031
O O12 0.000000 0.149495 0.476812
O O13 0.837058 0.181760 0.044732
O O14 0.500000 0.750000 0.543054
#
# Coordination Sequence:
#
# PCOD9535944 Si02
#       6
#     8  16  16  16  16   8
#     4   7  14  28  47  73 103 129 163 216 275 328
#     4  10  22  34  51  76 115 152 194 230 280 339
#     4  10  19  34  56  84 113 144 185 236 292 341
#     4  10  21  36  54  80 117 160 195 224 272 341
#     4  10  19  32  52  78 112 143 186 240 281 327
#     4   9  16  26  44  75 109 139 167 212 282 334
#
# _framework density 25.882701000000001
#
# number of rings (size 3 to 8) (size 9 to 14) (size 15 to 20)
#    0.000    2.400    1.000    3.000    1.400    5.200 
#    0.000    0.500    0.000   10.800    0.000    0.000 
#    0.000    0.000    0.000    0.000    0.000    0.000 
#
# Total GULP energy -223039.999554 kJ/mol
# GULP energy per Si atom -5575.999989 kJ/mol
# Density = 2.582379 g / cm^3
# Si number density = 25.882701 Si / 1000 Ang^3
#
#
#
# Elastic Constant Matrix: (Units=GPa)
#
#
# Indices 1 2 3 4 5 6 
#
# 1 143.5818 9.5979 3.2817 0.0000 0.0000 0.0000
# 2 9.5979 158.1310 1.4909 0.0000 0.0000 0.0000
# 3 3.2817 1.4909 73.8168 0.0000 0.0000 0.0000
# 4 0.0000 0.0000 0.0000 37.6039 0.0000 0.0000
# 5 0.0000 0.0000 0.0000 0.0000 1.9292 0.0000
# 6 0.0000 0.0000 0.0000 0.0000 0.0000 22.0912
#
#
#
# Elastic Compliance Matrix: (Units=1/GPa)
#
#
# Indices 1 2 3 4 5 6 
#
# 1 0.007000 -0.000422 -0.000303 0.000000 0.000000 0.000000
# 2 -0.000422 0.006351 -0.000110 0.000000 0.000000 0.000000
# 3 -0.000303 -0.000110 0.013563 0.000000 0.000000 0.000000
# 4 0.000000 0.000000 0.000000 0.026593 0.000000 0.000000
# 5 0.000000 0.000000 0.000000 0.000000 0.518343 0.000000
# 6 0.000000 0.000000 0.000000 0.000000 0.000000 0.045267
#
#
# Mechanical properties :
#
#
# Convention : Reuss Voigt Hill
#
# Bulk Modulus (GPa) = 39.61233 44.91898 42.26565
# Shear Modulus (GPa) = 7.97195 36.40214 22.18705
#
# Velocity S-wave (km/s) = 1.75691 3.75431 2.93100
# Velocity P-wave (km/s) = 4.41060 6.01544 5.27442
#
# Compressibility (1/GPa) = 0.02524467
#
# Stress axis : x y z
#
# Youngs Moduli (GPa) = 142.86127 157.46753 73.73154
#
# Poissons Ratio (x) = 0.06645 0.02232
# Poissons Ratio (y) = 0.06029 0.00807
# Poissons Ratio (z) = 0.04324 0.01724
#
# Static dielectric constant tensor:
#      x y z
#    x 1.992190 0.000000 0.000000 
#    y 0.000000 2.223780 0.000000 
#    z 0.000000 0.000000 2.213090 
# 
# From -- ./inp_files/42727.got.cif
#   From: 2010.05.17/outbox.cif.g08.bks.cpg/sg74_22_cif.got.tgz:42727.got - 2010.06.03 17:57:02.
