data_PCOD9535655
_publ_section_title
;
Structure prediction by ZEFSAII (Michael W. Deem and Ramdas Pophale) SiO2 
 PCOD9535655
Probable space group: I M M A
;
_chemical_formula_sum "Si O2"
_cell_formula_units_Z 80
_cell_length_a 27.277829
_cell_length_b 9.014643
_cell_length_c 18.909661
_cell_angle_alpha 90.000000
_cell_angle_beta 90.000000
_cell_angle_gamma 90.000000
_cell_volume 4649.883565
_symmetry_space_group_name_H-M "I M M A"
_symmetry_group_IT_number 74
_symmetry_cell_setting 'orthorhombic'
loop_
_space_group_symop_operation_xyz
x,y,z
-x,1/2-y,z
x,-y,-z
-x,1/2+y,-z
-x,-y,-z
x,1/2+y,-z
-x,y,z
x,1/2-y,z
1/2+x,1/2+y,1/2+z
1/2-x,-y,1/2+z
1/2+x,1/2-y,1/2-z
1/2-x,y,1/2-z
1/2-x,1/2-y,1/2-z
1/2+x,y,1/2-z
1/2-x,1/2+y,1/2+z
1/2+x,-y,1/2+z
loop_
_atom_site_type_symbol
_atom_site_label
_atom_site_fract_x
_atom_site_fract_y
_atom_site_fract_z
Si Si1 0.097227 0.425887 0.785224
Si Si2 0.054491 0.571777 0.647379
Si Si3 0.558594 0.425605 0.425784
Si Si4 0.655680 0.427489 0.074696
Si Si5 0.200320 0.073275 0.710522
O O1 0.088527 0.250000 0.789185
O O2 0.064488 0.496403 0.722914
O O3 0.085165 0.501047 0.859380
O O4 0.153274 0.451057 0.760801
O O5 0.056556 0.750000 0.656518
O O6 0.099705 0.530058 0.596781
O O7 0.000000 0.532528 0.621441
O O8 0.572953 0.500000 0.500000
O O9 0.500000 0.448680 0.416963
O O10 0.567611 0.250000 0.428041
O O11 0.658512 0.250000 0.070528
O O12 0.689509 0.487516 0.138046
O O13 0.667999 0.500000 0.000000
O O14 0.202878 0.250000 0.695629
O O15 0.250000 0.028609 0.750000
#
# Coordination Sequence:
#
# PCOD9535655 Si02
#       5
#    16  16  16  16  16
#     4  10  19  31  50  75 100 127 163 207 251 297
#     4   9  18  32  49  71 101 137 172 203 239 287
#     4  10  20  33  49  70  99 134 168 203 245 294
#     4  10  20  34  53  77 105 135 168 206 247 293
#     4   9  19  37  58  77  99 129 166 208 253 299
#
# _framework density 17.204733000000001
#
# number of rings (size 3 to 8) (size 9 to 14) (size 15 to 20)
#    0.000    2.400    0.000    2.400    0.000    6.400 
#    0.000    1.000    0.000    0.000    0.000    0.000 
#    0.000    0.000    0.000    0.000    0.000    0.000 
#
# Total GULP energy -223206.527797 kJ/mol
# GULP energy per Si atom -5580.163195 kJ/mol
# Density = 1.716557 g / cm^3
# Si number density = 17.204733 Si / 1000 Ang^3
#
#
#
# Elastic Constant Matrix: (Units=GPa)
#
#
# Indices 1 2 3 4 5 6 
#
# 1 80.7611 34.9684 43.7426 0.0000 0.0000 0.0000
# 2 34.9684 49.3141 61.3193 0.0000 0.0000 0.0000
# 3 43.7426 61.3193 143.5990 0.0000 0.0000 0.0000
# 4 0.0000 0.0000 0.0000 31.7523 0.0000 0.0000
# 5 0.0000 0.0000 0.0000 0.0000 9.3197 0.0000
# 6 0.0000 0.0000 0.0000 0.0000 0.0000 21.9961
#
#
#
# Elastic Compliance Matrix: (Units=1/GPa)
#
#
# Indices 1 2 3 4 5 6 
#
# 1 0.017869 -0.012584 -0.000069 0.000000 0.000000 0.000000
# 2 -0.012584 0.052097 -0.018413 0.000000 0.000000 0.000000
# 3 -0.000069 -0.018413 0.014848 0.000000 0.000000 0.000000
# 4 0.000000 0.000000 0.000000 0.031494 0.000000 0.000000
# 5 0.000000 0.000000 0.000000 0.000000 0.107300 0.000000
# 6 0.000000 0.000000 0.000000 0.000000 0.000000 0.045463
#
#
# Mechanical properties :
#
#
# Convention : Reuss Voigt Hill
#
# Bulk Modulus (GPa) = 44.09158 61.52610 52.80884
# Shear Modulus (GPa) = 14.75957 21.52320 18.14138
#
# Velocity S-wave (km/s) = 2.93213 3.54079 3.25074
# Velocity P-wave (km/s) = 6.09479 7.24949 6.69707
#
# Compressibility (1/GPa) = 0.02268007
#
# Stress axis : x y z
#
# Youngs Moduli (GPa) = 55.96412 19.19490 67.35069
#
# Poissons Ratio (x) = 0.24155 0.00467
# Poissons Ratio (y) = 0.70427 1.24013
# Poissons Ratio (z) = 0.00388 0.35344
#
# Static dielectric constant tensor:
#      x y z
#    x 1.587220 0.000000 0.000000 
#    y 0.000000 1.571090 0.000000 
#    z 0.000000 0.000000 1.546520 
# 
# From -- ./inp_files/39678.got.cif
#   From: 2010.05.17/outbox.cif.g08.bks.cpg/sg74_20_cif.got.tgz:39678.got - 2010.06.03 17:57:02.
