data_PCOD9535125
_publ_section_title
;
Structure prediction by ZEFSAII (Michael W. Deem and Ramdas Pophale) SiO2 
 PCOD9535125
Probable space group: I M M A
;
_chemical_formula_sum "Si O2"
_cell_formula_units_Z 76
_cell_length_a 11.241339
_cell_length_b 14.798337
_cell_length_c 25.981667
_cell_angle_alpha 90.000000
_cell_angle_beta 90.000000
_cell_angle_gamma 90.000000
_cell_volume 4322.131442
_symmetry_space_group_name_H-M "I M M A"
_symmetry_group_IT_number 74
_symmetry_cell_setting 'orthorhombic'
loop_
_space_group_symop_operation_xyz
x,y,z
-x,1/2-y,z
x,-y,-z
-x,1/2+y,-z
-x,-y,-z
x,1/2+y,-z
-x,y,z
x,1/2-y,z
1/2+x,1/2+y,1/2+z
1/2-x,-y,1/2+z
1/2+x,1/2-y,1/2-z
1/2-x,y,1/2-z
1/2-x,1/2-y,1/2-z
1/2+x,y,1/2-z
1/2-x,1/2+y,1/2+z
1/2+x,-y,1/2+z
loop_
_atom_site_type_symbol
_atom_site_label
_atom_site_fract_x
_atom_site_fract_y
_atom_site_fract_z
Si Si1 0.000000 0.596068 0.112927
Si Si2 0.644190 0.250000 0.892985
Si Si3 0.000000 0.750000 0.028285
Si Si4 0.240169 0.750000 0.511453
Si Si5 0.139322 0.564366 0.545723
Si Si6 0.740339 0.549849 0.134701
Si Si7 0.500000 0.349752 0.729933
Si Si8 0.250000 0.554530 0.250000
O O1 0.000000 0.664107 0.065838
O O2 0.875271 0.544002 0.113554
O O3 0.000000 0.647704 0.167859
O O4 0.500000 0.250000 0.888532
O O5 0.698807 0.343603 0.869037
O O6 0.681417 0.250000 0.953679
O O7 0.880555 0.750000 0.996186
O O8 0.201069 0.660465 0.541066
O O9 0.185456 0.500000 0.500000
O O10 0.158947 0.509929 0.598063
O O11 0.000000 0.579393 0.536714
O O12 0.740834 0.512837 0.193001
O O13 0.500000 0.250000 0.751160
O O14 0.375749 0.393299 0.746404
#
# Coordination Sequence:
#
# PCOD9535125 Si02
#       8
#     8   8   4   8  16  16   8   8
#     4  10  18  35  53  77 118 154 186 230 282 331
#     4  12  22  33  56  85 119 155 197 236 282 344
#     4  12  18  36  56  82 114 150 190 224 280 356
#     4  12  24  38  59  87 116 151 193 235 290 347
#     4  11  22  39  60  86 117 150 190 242 291 339
#     4  11  23  37  57  83 119 157 194 240 284 339
#     4  10  20  32  49  74 116 155 196 236 273 342
#     4  10  25  34  52  83 114 158 200 237 284 343
#
# _framework density 17.583915999999999
#
# number of rings (size 3 to 8) (size 9 to 14) (size 15 to 20)
#    0.000    1.053    4.737    1.895    8.842    0.842 
#    0.000    2.105    0.000    0.632    0.000    0.000 
#    0.000    0.000    0.000    0.000    0.000    0.000 
#
# Total GULP energy -211948.197263 kJ/mol
# GULP energy per Si atom -5577.584138 kJ/mol
# Density = 1.754389 g / cm^3
# Si number density = 17.583916 Si / 1000 Ang^3
#
#
#
# Elastic Constant Matrix: (Units=GPa)
#
#
# Indices 1 2 3 4 5 6 
#
# 1 111.6759 20.9447 -0.6424 0.0000 0.0000 0.0000
# 2 20.9447 81.2134 29.3443 0.0000 0.0000 0.0000
# 3 -0.6424 29.3443 78.2128 0.0000 0.0000 0.0000
# 4 0.0000 0.0000 0.0000 -59.3747 0.0000 0.0000
# 5 0.0000 0.0000 0.0000 0.0000 45.0025 0.0000
# 6 0.0000 0.0000 0.0000 0.0000 0.0000 28.1685
#
#
#
# Elastic Compliance Matrix: (Units=1/GPa)
#
#
# Indices 1 2 3 4 5 6 
#
# 1 0.009499 -0.002866 0.001153 0.000000 0.000000 0.000000
# 2 -0.002866 0.015109 -0.005692 0.000000 0.000000 0.000000
# 3 0.001153 -0.005692 0.014931 0.000000 0.000000 0.000000
# 4 0.000000 0.000000 0.000000 -0.016842 0.000000 0.000000
# 5 0.000000 0.000000 0.000000 0.000000 0.022221 0.000000
# 6 0.000000 0.000000 0.000000 0.000000 0.000000 0.035501
#
#
# Mechanical properties :
#
#
# Convention : Reuss Voigt Hill
#
# Bulk Modulus (GPa) = 40.43977 41.15504 40.79741
# Shear Modulus (GPa) = 48.32248 17.52298 32.92273
#
# Velocity S-wave (km/s) = 5.24793 3.16022 4.33173
# Velocity P-wave (km/s) = 7.73104 6.06397 6.94769
#
# Compressibility (1/GPa) = 0.02472813
#
# Stress axis : x y z
#
# Youngs Moduli (GPa) = 105.27739 66.18459 66.97576
#
# Poissons Ratio (x) = 0.18972 -0.07725
# Poissons Ratio (y) = 0.30177 0.38125
# Poissons Ratio (z) = -0.12143 0.37674
#
# Static dielectric constant tensor:
#      x y z
#    x 1.595500 0.000000 0.000000 
#    y 0.000000 1.588080 0.000000 
#    z 0.000000 0.000000 1.615890 
# 
# From -- ./inp_files/58600.got.cif
#   From: 2010.05.17/outbox.cif.g08.bks.cpg/sg74_30_cif.got.tgz:58600.got - 2010.06.03 17:57:02.
