data_PCOD9535368
_publ_section_title
;
Structure prediction by ZEFSAII (Michael W. Deem and Ramdas Pophale) SiO2 
 PCOD9535368
Probable space group: I M M A
;
_chemical_formula_sum "Si O2"
_cell_formula_units_Z 96
_cell_length_a 7.626656
_cell_length_b 19.724836
_cell_length_c 30.647060
_cell_angle_alpha 90.000000
_cell_angle_beta 90.000000
_cell_angle_gamma 90.000000
_cell_volume 4610.376338
_symmetry_space_group_name_H-M "I M M A"
_symmetry_group_IT_number 74
_symmetry_cell_setting 'orthorhombic'
loop_
_space_group_symop_operation_xyz
x,y,z
-x,1/2-y,z
x,-y,-z
-x,1/2+y,-z
-x,-y,-z
x,1/2+y,-z
-x,y,z
x,1/2-y,z
1/2+x,1/2+y,1/2+z
1/2-x,-y,1/2+z
1/2+x,1/2-y,1/2-z
1/2-x,y,1/2-z
1/2-x,1/2-y,1/2-z
1/2+x,y,1/2-z
1/2-x,1/2+y,1/2+z
1/2+x,-y,1/2+z
loop_
_atom_site_type_symbol
_atom_site_label
_atom_site_fract_x
_atom_site_fract_y
_atom_site_fract_z
Si Si1 0.211147 0.977275 0.547550
Si Si2 0.790706 0.826170 0.917733
Si Si3 0.705492 0.821751 0.816372
Si Si4 0.785639 0.938272 0.369499
Si Si5 0.290559 0.037330 0.204566
Si Si6 0.789082 0.327247 0.699976
O O1 0.248754 0.897829 0.558680
O O2 0.000000 0.981564 0.547675
O O3 0.275533 0.000000 0.500000
O O4 0.272431 0.032990 0.583533
O O5 0.735905 0.750000 0.935084
O O6 0.715673 0.830062 0.868701
O O7 0.000000 0.824017 0.914413
O O8 0.500000 0.819749 0.804896
O O9 0.787048 0.750000 0.804493
O O10 0.787967 0.887835 0.795756
O O11 0.728270 0.872174 0.341561
O O12 0.000000 0.934546 0.371336
O O13 0.727991 0.997614 0.336955
O O14 0.500000 0.041052 0.200241
O O15 0.250000 0.002757 0.250000
O O16 0.723884 0.250000 0.696333
O O17 0.750000 0.349847 0.750000
O O18 0.000000 0.327034 0.697229
#
# Coordination Sequence:
#
# PCOD9535368 Si02
#       6
#    16  16  16  16  16  16
#     4  10  20  36  58  81 104 135 176 222 268 319
#     4  10  20  34  54  79 106 137 173 214 260 313
#     4   9  17  31  50  69  94 133 174 210 251 296
#     4   9  17  32  50  72 102 132 166 211 261 305
#     4  10  19  30  45  67  98 133 167 207 252 298
#     4   9  17  30  50  74 102 136 170 207 253 311
#
# _framework density 20.822595
#
# number of rings (size 3 to 8) (size 9 to 14) (size 15 to 20)
#    0.000    2.500    1.667    1.000    0.000    2.333 
#    0.000    1.667    0.000    3.000    0.000    2.333 
#    0.000    0.000    0.000    0.000    0.000    0.000 
#
# Total GULP energy -267298.630633 kJ/mol
# GULP energy per Si atom -5568.721472 kJ/mol
# Density = 2.077520 g / cm^3
# Si number density = 20.822595 Si / 1000 Ang^3
#
#
#
# Elastic Constant Matrix: (Units=GPa)
#
#
# Indices 1 2 3 4 5 6 
#
# 1 47.8756 5.2556 0.8648 0.0000 0.0000 0.0000
# 2 5.2556 170.2585 81.1310 0.0000 0.0000 0.0000
# 3 0.8648 81.1310 156.9527 0.0000 0.0000 0.0000
# 4 0.0000 0.0000 0.0000 47.8125 0.0000 0.0000
# 5 0.0000 0.0000 0.0000 0.0000 3.3516 0.0000
# 6 0.0000 0.0000 0.0000 0.0000 0.0000 5.7980
#
#
#
# Elastic Compliance Matrix: (Units=1/GPa)
#
#
# Indices 1 2 3 4 5 6 
#
# 1 0.020968 -0.000786 0.000291 0.000000 0.000000 0.000000
# 2 -0.000786 0.007822 -0.004039 0.000000 0.000000 0.000000
# 3 0.000291 -0.004039 0.008458 0.000000 0.000000 0.000000
# 4 0.000000 0.000000 0.000000 0.020915 0.000000 0.000000
# 5 0.000000 0.000000 0.000000 0.000000 0.298366 0.000000
# 6 0.000000 0.000000 0.000000 0.000000 0.000000 0.172474
#
#
# Mechanical properties :
#
#
# Convention : Reuss Voigt Hill
#
# Bulk Modulus (GPa) = 35.48627 61.06552 48.27589
# Shear Modulus (GPa) = 9.13300 30.58144 19.85722
#
# Velocity S-wave (km/s) = 2.09657 3.83648 3.09145
# Velocity P-wave (km/s) = 4.78957 7.00107 5.99812
#
# Compressibility (1/GPa) = 0.02817991
#
# Stress axis : x y z
#
# Youngs Moduli (GPa) = 47.69069 127.83780 118.23613
#
# Poissons Ratio (x) = 0.10045 -0.03436
# Poissons Ratio (y) = 0.03747 0.47758
# Poissons Ratio (z) = -0.01386 0.51636
#
# Static dielectric constant tensor:
#      x y z
#    x 1.770200 0.000000 0.000000 
#    y 0.000000 1.825420 0.000000 
#    z 0.000000 0.000000 1.712060 
# 
# From -- ./inp_files/64374.got.cif
#   From: 2010.05.17/outbox.cif.g08.bks.cpg/sg74_33_cif.got.tgz:64374.got - 2010.06.03 17:57:02.
