data_PCOD9535149
_publ_section_title
;
Structure prediction by ZEFSAII (Michael W. Deem and Ramdas Pophale) SiO2 
 PCOD9535149
Probable space group: I M M A
;
_chemical_formula_sum "Si O2"
_cell_formula_units_Z 52
_cell_length_a 15.676430
_cell_length_b 17.860498
_cell_length_c 7.545303
_cell_angle_alpha 90.000000
_cell_angle_beta 90.000000
_cell_angle_gamma 90.000000
_cell_volume 2112.600685
_symmetry_space_group_name_H-M "I M M A"
_symmetry_group_IT_number 74
_symmetry_cell_setting 'orthorhombic'
loop_
_space_group_symop_operation_xyz
x,y,z
-x,1/2-y,z
x,-y,-z
-x,1/2+y,-z
-x,-y,-z
x,1/2+y,-z
-x,y,z
x,1/2-y,z
1/2+x,1/2+y,1/2+z
1/2-x,-y,1/2+z
1/2+x,1/2-y,1/2-z
1/2-x,y,1/2-z
1/2-x,1/2-y,1/2-z
1/2+x,y,1/2-z
1/2-x,1/2+y,1/2+z
1/2+x,-y,1/2+z
loop_
_atom_site_type_symbol
_atom_site_label
_atom_site_fract_x
_atom_site_fract_y
_atom_site_fract_z
Si Si1 0.897223 0.912150 0.689919
Si Si2 0.000000 0.163730 0.865365
Si Si3 0.347059 0.923283 0.227507
Si Si4 0.000000 0.250000 0.526981
Si Si5 0.649214 0.250000 0.245726
O O1 0.869655 0.910840 0.481624
O O2 0.872642 0.836412 0.794966
O O3 0.000000 0.919033 0.699067
O O4 0.855580 0.987945 0.761805
O O5 0.086598 0.116028 0.862849
O O6 0.000000 0.182202 0.657370
O O7 0.000000 0.250000 0.948596
O O8 0.250000 0.896935 0.250000
O O9 0.086881 0.250000 0.423232
O O10 0.750000 0.250000 0.250000
#
# Coordination Sequence:
#
# PCOD9535149 Si02
#       5
#    16   8  16   4   8
#     4  11  19  38  57  78 109 142 182 224 259 316
#     4  10  18  36  57  78 108 142 178 223 265 308
#     4  11  20  32  58  86 105 137 183 226 265 309
#     4  10  18  36  54  80 100 140 184 220 256 308
#     4  12  20  32  58  86 106 136 182 226 264 310
#
# _framework density 24.614211000000001
#
# number of rings (size 3 to 8) (size 9 to 14) (size 15 to 20)
#    0.462    0.615    7.692    1.846    0.000    0.615 
#    0.000    0.000    0.000    5.538    0.000    0.000 
#    0.000    0.000    0.000    0.000    0.000    0.000 
#
# Total GULP energy -144783.934754 kJ/mol
# GULP energy per Si atom -5568.612875 kJ/mol
# Density = 2.455819 g / cm^3
# Si number density = 24.614211 Si / 1000 Ang^3
#
#
#
# Elastic Constant Matrix: (Units=GPa)
#
#
# Indices 1 2 3 4 5 6 
#
# 1 166.4370 27.9455 17.6751 0.0000 0.0000 0.0000
# 2 27.9455 194.4970 43.7593 0.0000 0.0000 0.0000
# 3 17.6751 43.7593 78.7695 0.0000 0.0000 0.0000
# 4 0.0000 0.0000 0.0000 10.0187 0.0000 0.0000
# 5 0.0000 0.0000 0.0000 0.0000 35.4739 0.0000
# 6 0.0000 0.0000 0.0000 0.0000 0.0000 112.3348
#
#
#
# Elastic Compliance Matrix: (Units=1/GPa)
#
#
# Indices 1 2 3 4 5 6 
#
# 1 0.006229 -0.000663 -0.001029 0.000000 0.000000 0.000000
# 2 -0.000663 0.005947 -0.003155 0.000000 0.000000 0.000000
# 3 -0.001029 -0.003155 0.014679 0.000000 0.000000 0.000000
# 4 0.000000 0.000000 0.000000 0.099813 0.000000 0.000000
# 5 0.000000 0.000000 0.000000 0.000000 0.028190 0.000000
# 6 0.000000 0.000000 0.000000 0.000000 0.000000 0.008902
#
#
# Mechanical properties :
#
#
# Convention : Reuss Voigt Hill
#
# Bulk Modulus (GPa) = 58.27590 68.71814 63.49702
# Shear Modulus (GPa) = 27.90594 54.92039 41.41317
#
# Velocity S-wave (km/s) = 3.37075 4.72873 4.10627
# Velocity P-wave (km/s) = 6.23509 7.60219 6.95232
#
# Compressibility (1/GPa) = 0.01715975
#
# Stress axis : x y z
#
# Youngs Moduli (GPa) = 160.54028 168.16488 68.12581
#
# Poissons Ratio (x) = 0.11157 0.07011
# Poissons Ratio (y) = 0.10651 0.21491
# Poissons Ratio (z) = 0.16522 0.53050
#
# Static dielectric constant tensor:
#      x y z
#    x 2.073160 0.000000 0.000000 
#    y 0.000000 2.063040 0.000000 
#    z 0.000000 0.000000 1.988520 
# 
# From -- ./inp_files/20100.got.cif
#   From: 2010.05.17/outbox.cif.g08.bks.cpg/sg74_11_cif.got.tgz:20100.got - 2010.06.03 17:57:02.
