data_PCOD9535233
_publ_section_title
;
Structure prediction by ZEFSAII (Michael W. Deem and Ramdas Pophale) SiO2 
 PCOD9535233
Probable space group: I M M A
;
_chemical_formula_sum "Si O2"
_cell_formula_units_Z 80
_cell_length_a 7.373612
_cell_length_b 15.081494
_cell_length_c 30.919765
_cell_angle_alpha 90.000000
_cell_angle_beta 90.000000
_cell_angle_gamma 90.000000
_cell_volume 3438.435099
_symmetry_space_group_name_H-M "I M M A"
_symmetry_group_IT_number 74
_symmetry_cell_setting 'orthorhombic'
loop_
_space_group_symop_operation_xyz
x,y,z
-x,1/2-y,z
x,-y,-z
-x,1/2+y,-z
-x,-y,-z
x,1/2+y,-z
-x,y,z
x,1/2-y,z
1/2+x,1/2+y,1/2+z
1/2-x,-y,1/2+z
1/2+x,1/2-y,1/2-z
1/2-x,y,1/2-z
1/2-x,1/2-y,1/2-z
1/2+x,y,1/2-z
1/2-x,1/2+y,1/2+z
1/2+x,-y,1/2+z
loop_
_atom_site_type_symbol
_atom_site_label
_atom_site_fract_x
_atom_site_fract_y
_atom_site_fract_z
Si Si1 0.303063 0.955460 0.199698
Si Si2 0.720311 0.351789 0.970915
Si Si3 0.284204 0.655358 0.698775
Si Si4 0.223423 0.529873 0.390433
Si Si5 0.720790 0.350498 0.069138
O O1 0.500000 0.913621 0.198513
O O2 0.250000 0.945977 0.250000
O O3 0.209140 0.927934 0.154826
O O4 0.307186 0.061483 0.190159
O O5 0.500000 0.354873 0.971133
O O6 0.773294 0.250000 0.963164
O O7 0.780091 0.414858 0.932424
O O8 0.774502 0.374871 0.019934
O O9 0.500000 0.647034 0.691861
O O10 0.221712 0.750000 0.679290
O O11 0.250000 0.663491 0.750000
O O12 0.280829 0.428102 0.399018
O O13 0.000000 0.530955 0.389363
O O14 0.500000 0.349177 0.070211
O O15 0.782062 0.250000 0.078011
#
# Coordination Sequence:
#
# PCOD9535233 Si02
#       5
#    16  16  16  16  16
#     4  10  19  29  41  57  81 114 149 184 218 249
#     4   8  13  22  37  56  79 107 136 169 214 265
#     4   9  16  26  40  56  75 102 138 178 216 253
#     4   9  16  24  36  56  81 110 143 175 210 256
#     4   8  13  21  34  54  81 110 135 162 204 259
#
# _framework density 23.266397000000001
#
# number of rings (size 3 to 8) (size 9 to 14) (size 15 to 20)
#    0.000    3.200    0.000    4.200    0.000    4.400 
#    0.000    2.000    0.000    0.600    0.000    0.000 
#    0.000   15.200    0.000   17.600    0.000   16.800 
#
# Total GULP energy -222822.950094 kJ/mol
# GULP energy per Si atom -5570.573752 kJ/mol
# Density = 2.321344 g / cm^3
# Si number density = 23.266397 Si / 1000 Ang^3
#
#
#
# Elastic Constant Matrix: (Units=GPa)
#
#
# Indices 1 2 3 4 5 6 
#
# 1 89.6266 -1.7703 5.4525 0.0000 0.0000 0.0000
# 2 -1.7703 25.7758 49.3773 0.0000 0.0000 0.0000
# 3 5.4525 49.3773 222.2410 0.0000 0.0000 0.0000
# 4 0.0000 0.0000 0.0000 2.1361 0.0000 0.0000
# 5 0.0000 0.0000 0.0000 0.0000 -2.6978 0.0000
# 6 0.0000 0.0000 0.0000 0.0000 0.0000 -7.5346
#
#
#
# Elastic Compliance Matrix: (Units=1/GPa)
#
#
# Indices 1 2 3 4 5 6 
#
# 1 0.011250 0.002266 -0.000779 0.000000 0.000000 0.000000
# 2 0.002266 0.068000 -0.015164 0.000000 0.000000 0.000000
# 3 -0.000779 -0.015164 0.007888 0.000000 0.000000 0.000000
# 4 0.000000 0.000000 0.000000 0.468138 0.000000 0.000000
# 5 0.000000 0.000000 0.000000 0.000000 -0.370674 0.000000
# 6 0.000000 0.000000 0.000000 0.000000 0.000000 -0.132721
#
#
# Mechanical properties :
#
#
# Convention : Reuss Voigt Hill
#
# Bulk Modulus (GPa) = 16.72728 49.30692 33.01710
# Shear Modulus (GPa) = 50.42222 17.35301 33.88761
#
# Velocity S-wave (km/s) = 4.66034 2.73397 3.82056
# Velocity P-wave (km/s) = 6.01360 5.58610 5.80379
#
# Compressibility (1/GPa) = 0.05978259
#
# Stress axis : x y z
#
# Youngs Moduli (GPa) = 88.89233 14.70583 126.77775
#
# Poissons Ratio (x) = -0.03332 0.09881
# Poissons Ratio (y) = -0.20140 1.92243
# Poissons Ratio (z) = 0.06928 0.22300
#
# Static dielectric constant tensor:
#      x y z
#    x 1.934930 0.000000 0.000000 
#    y 0.000000 1.880780 0.000000 
#    z 0.000000 0.000000 1.926580 
# 
# From -- ./inp_files/70144.got.cif
#   From: 2010.05.17/outbox.cif.g08.bks.cpg/sg74_36_cif.got.tgz:70144.got - 2010.06.03 17:57:02.
