data_PCOD9535169
_publ_section_title
;
Structure prediction by ZEFSAII (Michael W. Deem and Ramdas Pophale) SiO2 
 PCOD9535169
Probable space group: I M M A
;
_chemical_formula_sum "Si O2"
_cell_formula_units_Z 44
_cell_length_a 12.879727
_cell_length_b 9.269261
_cell_length_c 16.871545
_cell_angle_alpha 90.000000
_cell_angle_beta 90.000000
_cell_angle_gamma 90.000000
_cell_volume 2014.218699
_symmetry_space_group_name_H-M "I M M A"
_symmetry_group_IT_number 74
_symmetry_cell_setting 'orthorhombic'
loop_
_space_group_symop_operation_xyz
x,y,z
-x,1/2-y,z
x,-y,-z
-x,1/2+y,-z
-x,-y,-z
x,1/2+y,-z
-x,y,z
x,1/2-y,z
1/2+x,1/2+y,1/2+z
1/2-x,-y,1/2+z
1/2+x,1/2-y,1/2-z
1/2-x,y,1/2-z
1/2-x,1/2-y,1/2-z
1/2+x,y,1/2-z
1/2-x,1/2+y,1/2+z
1/2+x,-y,1/2+z
loop_
_atom_site_type_symbol
_atom_site_label
_atom_site_fract_x
_atom_site_fract_y
_atom_site_fract_z
Si Si1 0.500000 0.250000 0.832078
Si Si2 0.772077 0.516247 0.163734
Si Si3 0.873975 0.750000 0.628599
Si Si4 0.000000 0.578603 0.181506
Si Si5 0.193448 0.250000 0.553956
O O1 0.500000 0.112129 0.775289
O O2 0.596331 0.250000 0.888159
O O3 0.750000 0.589622 0.250000
O O4 0.689762 0.386625 0.162039
O O5 0.895751 0.492832 0.161882
O O6 0.754112 0.611008 0.085233
O O7 0.847060 0.750000 0.534767
O O8 0.000000 0.750000 0.640338
O O9 0.000000 0.750000 0.150778
#
# Coordination Sequence:
#
# PCOD9535169 Si02
#       5
#     4  16   8   8   8
#     4  10  18  36  74 110 128 156 238 312 326 380
#     4  12  24  45  70 103 140 183 232 279 339 417
#     4  12  31  44  63 107 154 177 218 289 364 408
#     4  10  20  41  73 111 126 170 244 296 322 395
#     4  12  22  45  74 106 130 179 232 295 347 396
#
# _framework density 21.844698000000001
#
# number of rings (size 3 to 8) (size 9 to 14) (size 15 to 20)
#    0.545    0.000    6.364    2.182    5.091    2.182 
#    0.000    5.455    0.000    0.000    0.000    0.000 
#    0.000    0.000    0.000    0.000    0.000    0.000 
#
# Total GULP energy -122641.201464 kJ/mol
# GULP energy per Si atom -5574.600067 kJ/mol
# Density = 2.179498 g / cm^3
# Si number density = 21.844698 Si / 1000 Ang^3
#
#
#
# Elastic Constant Matrix: (Units=GPa)
#
#
# Indices 1 2 3 4 5 6 
#
# 1 241.8480 53.3624 48.7787 0.0000 0.0000 0.0000
# 2 53.3624 99.5245 29.5303 0.0000 0.0000 0.0000
# 3 48.7787 29.5303 85.1080 0.0000 0.0000 0.0000
# 4 0.0000 0.0000 0.0000 66.5978 0.0000 0.0000
# 5 0.0000 0.0000 0.0000 0.0000 38.2403 0.0000
# 6 0.0000 0.0000 0.0000 0.0000 0.0000 14.9746
#
#
#
# Elastic Compliance Matrix: (Units=1/GPa)
#
#
# Indices 1 2 3 4 5 6 
#
# 1 0.005025 -0.002051 -0.002168 0.000000 0.000000 0.000000
# 2 -0.002051 0.012038 -0.003001 0.000000 0.000000 0.000000
# 3 -0.002168 -0.003001 0.014034 0.000000 0.000000 0.000000
# 4 0.000000 0.000000 0.000000 0.015016 0.000000 0.000000
# 5 0.000000 0.000000 0.000000 0.000000 0.026150 0.000000
# 6 0.000000 0.000000 0.000000 0.000000 0.000000 0.066780
#
#
# Mechanical properties :
#
#
# Convention : Reuss Voigt Hill
#
# Bulk Modulus (GPa) = 60.04020 76.64704 68.34362
# Shear Modulus (GPa) = 31.43964 43.61649 37.52806
#
# Velocity S-wave (km/s) = 3.79784 4.47325 4.14931
# Velocity P-wave (km/s) = 6.83931 7.86406 7.36952
#
# Compressibility (1/GPa) = 0.01665551
#
# Stress axis : x y z
#
# Youngs Moduli (GPa) = 199.01967 83.07097 71.25590
#
# Poissons Ratio (x) = 0.17036 0.15450
# Poissons Ratio (y) = 0.40813 0.21387
# Poissons Ratio (z) = 0.43153 0.24934
#
# Static dielectric constant tensor:
#      x y z
#    x 1.614980 0.000000 0.000000 
#    y 0.000000 2.167930 0.000000 
#    z 0.000000 0.000000 1.778820 
# 
# From -- ./inp_files/40407.got.cif
#   From: 2010.05.17/outbox.cif.g08.bks.cpg/sg74_21_cif.got.tgz:40407.got - 2010.06.03 17:57:02.
