data_PCOD9535148
_publ_section_title
;
Structure prediction by ZEFSAII (Michael W. Deem and Ramdas Pophale) SiO2 
 PCOD9535148
Probable space group: I M M A
;
_chemical_formula_sum "Si O2"
_cell_formula_units_Z 112
_cell_length_a 26.759605
_cell_length_b 14.186446
_cell_length_c 14.379480
_cell_angle_alpha 90.000000
_cell_angle_beta 90.000000
_cell_angle_gamma 90.000000
_cell_volume 5458.791277
_symmetry_space_group_name_H-M "I M M A"
_symmetry_group_IT_number 74
_symmetry_cell_setting 'orthorhombic'
loop_
_space_group_symop_operation_xyz
x,y,z
-x,1/2-y,z
x,-y,-z
-x,1/2+y,-z
-x,-y,-z
x,1/2+y,-z
-x,y,z
x,1/2-y,z
1/2+x,1/2+y,1/2+z
1/2-x,-y,1/2+z
1/2+x,1/2-y,1/2-z
1/2-x,y,1/2-z
1/2-x,1/2-y,1/2-z
1/2+x,y,1/2-z
1/2-x,1/2+y,1/2+z
1/2+x,-y,1/2+z
loop_
_atom_site_type_symbol
_atom_site_label
_atom_site_fract_x
_atom_site_fract_y
_atom_site_fract_z
Si Si1 0.649429 0.144104 0.462305
Si Si2 0.874591 0.044467 0.854580
Si Si3 0.651681 0.149378 0.119212
Si Si4 0.942448 0.612334 0.494464
Si Si5 0.559724 0.145547 0.781884
Si Si6 0.237642 0.890001 0.475572
Si Si7 0.200332 0.531722 0.291453
O O1 0.635537 0.250000 0.434342
O O2 0.638520 0.062129 0.386741
O O3 0.707675 0.145451 0.495159
O O4 0.620319 0.106866 0.553336
O O5 0.827701 0.079712 0.793843
O O6 0.919757 0.064263 0.784699
O O7 0.655480 0.250000 0.171556
O O8 0.664466 0.051769 0.171500
O O9 0.597812 0.144595 0.069893
O O10 0.694084 0.150501 0.039462
O O11 0.943429 0.500000 0.500000
O O12 0.924786 0.636728 0.389895
O O13 0.000000 0.644960 0.507474
O O14 0.500000 0.141366 0.782930
O O15 0.575289 0.250000 0.748308
O O16 0.241135 0.000000 0.500000
O O17 0.217967 0.894665 0.369770
O O18 0.250000 0.484279 0.250000
#
# Coordination Sequence:
#
# PCOD9535148 Si02
#       7
#    16  16  16  16  16  16  16
#     4  11  22  38  59  83 113 156 198 242 304 366
#     4  11  21  39  60  85 116 153 195 250 298 354
#     4  11  22  33  53  84 115 154 197 240 290 349
#     4  10  20  37  59  85 118 159 199 240 292 347
#     4  10  21  38  63  92 121 155 198 247 299 357
#     4  10  18  36  54  77 116 154 192 235 285 350
#     4  11  21  36  57  79 115 158 196 239 293 341
#
# _framework density 20.517361999999999
#
# number of rings (size 3 to 8) (size 9 to 14) (size 15 to 20)
#    0.000    1.429    2.857    5.143    0.000    1.714 
#    0.000    4.286    0.000    1.286    0.000    0.000 
#    0.000    0.000    0.000    0.000    0.000    0.000 
#
# Total GULP energy -312313.067272 kJ/mol
# GULP energy per Si atom -5577.019058 kJ/mol
# Density = 2.047066 g / cm^3
# Si number density = 20.517362 Si / 1000 Ang^3
#
#
#
# Elastic Constant Matrix: (Units=GPa)
#
#
# Indices 1 2 3 4 5 6 
#
# 1 64.7572 11.7085 16.8922 0.0000 0.0000 0.0000
# 2 11.7085 99.6823 8.8155 0.0000 0.0000 0.0000
# 3 16.8922 8.8155 77.5309 0.0000 0.0000 0.0000
# 4 0.0000 0.0000 0.0000 12.4862 0.0000 0.0000
# 5 0.0000 0.0000 0.0000 0.0000 34.7095 0.0000
# 6 0.0000 0.0000 0.0000 0.0000 0.0000 17.8121
#
#
#
# Elastic Compliance Matrix: (Units=1/GPa)
#
#
# Indices 1 2 3 4 5 6 
#
# 1 0.016637 -0.001650 -0.003437 0.000000 0.000000 0.000000
# 2 -0.001650 0.010297 -0.000811 0.000000 0.000000 0.000000
# 3 -0.003437 -0.000811 0.013739 0.000000 0.000000 0.000000
# 4 0.000000 0.000000 0.000000 0.080089 0.000000 0.000000
# 5 0.000000 0.000000 0.000000 0.000000 0.028811 0.000000
# 6 0.000000 0.000000 0.000000 0.000000 0.000000 0.056142
#
#
# Mechanical properties :
#
#
# Convention : Reuss Voigt Hill
#
# Bulk Modulus (GPa) = 34.63032 35.20032 34.91532
# Shear Modulus (GPa) = 22.01308 26.63850 24.32579
#
# Velocity S-wave (km/s) = 3.27907 3.60716 3.44702
# Velocity P-wave (km/s) = 5.59031 5.87728 5.73559
#
# Compressibility (1/GPa) = 0.02887643
#
# Stress axis : x y z
#
# Youngs Moduli (GPa) = 60.10591 97.11136 72.78429
#
# Poissons Ratio (x) = 0.16025 0.25018
# Poissons Ratio (y) = 0.09919 0.05905
# Poissons Ratio (z) = 0.20660 0.07879
#
# Static dielectric constant tensor:
#      x y z
#    x 1.765030 0.000000 0.000000 
#    y 0.000000 1.308780 0.000000 
#    z 0.000000 0.000000 1.753410 
# 
# From -- ./inp_files/37368.got.cif
#   From: 2010.05.17/outbox.cif.g08.bks.cpg/sg74_19_cif.got.tgz:37368.got - 2010.06.03 17:57:02.
