data_PCOD9535965
_publ_section_title
;
Structure prediction by ZEFSAII (Michael W. Deem and Ramdas Pophale) SiO2 
 PCOD9535965
Probable space group: I M M A
;
_chemical_formula_sum "Si O2"
_cell_formula_units_Z 96
_cell_length_a 20.186468
_cell_length_b 23.026376
_cell_length_c 11.674935
_cell_angle_alpha 90.000000
_cell_angle_beta 90.000000
_cell_angle_gamma 90.000000
_cell_volume 5426.757323
_symmetry_space_group_name_H-M "I M M A"
_symmetry_group_IT_number 74
_symmetry_cell_setting 'orthorhombic'
loop_
_space_group_symop_operation_xyz
x,y,z
-x,1/2-y,z
x,-y,-z
-x,1/2+y,-z
-x,-y,-z
x,1/2+y,-z
-x,y,z
x,1/2-y,z
1/2+x,1/2+y,1/2+z
1/2-x,-y,1/2+z
1/2+x,1/2-y,1/2-z
1/2-x,y,1/2-z
1/2-x,1/2-y,1/2-z
1/2+x,y,1/2-z
1/2-x,1/2+y,1/2+z
1/2+x,-y,1/2+z
loop_
_atom_site_type_symbol
_atom_site_label
_atom_site_fract_x
_atom_site_fract_y
_atom_site_fract_z
Si Si1 0.423672 0.515150 0.370058
Si Si2 0.574156 0.347149 0.679147
Si Si3 0.813112 0.597162 0.500967
Si Si4 0.683704 0.499063 0.185251
Si Si5 0.219706 0.815469 0.121885
Si Si6 0.924461 0.181808 0.550305
O O1 0.403276 0.500000 0.500000
O O2 0.500000 0.495710 0.355552
O O3 0.422335 0.584443 0.348831
O O4 0.374310 0.489291 0.276350
O O5 0.500000 0.326677 0.644083
O O6 0.640248 0.319787 0.626503
O O7 0.579332 0.335145 0.815170
O O8 0.801016 0.558170 0.611717
O O9 0.833160 0.551105 0.401943
O O10 0.751339 0.635065 0.457155
O O11 0.872991 0.641973 0.515568
O O12 0.750000 0.517568 0.250000
O O13 0.238936 0.750000 0.086644
O O14 0.250000 0.824017 0.250000
O O15 0.909466 0.250000 0.540987
O O16 0.000000 0.172012 0.513226
#
# Coordination Sequence:
#
# PCOD9535965 Si02
#       6
#    16  16  16  16  16  16
#     4  10  21  37  59  84 114 153 191 230 278 340
#     4  10  19  32  52  81 113 143 183 231 282 340
#     4  11  22  36  56  83 113 148 183 231 289 339
#     4  11  24  37  56  82 114 150 188 234 283 344
#     4  11  20  32  53  80 113 146 183 231 286 342
#     4  10  19  33  55  84 115 143 178 229 287 341
#
# _framework density 17.690121999999999
#
# number of rings (size 3 to 8) (size 9 to 14) (size 15 to 20)
#    0.000    1.500    3.333    2.500    4.667    1.667 
#    0.000    1.667    0.000    2.000    0.000    0.000 
#    0.000    0.000    0.000    0.000    0.000    0.000 
#
# Total GULP energy -267912.556852 kJ/mol
# GULP energy per Si atom -5581.511601 kJ/mol
# Density = 1.764986 g / cm^3
# Si number density = 17.690122 Si / 1000 Ang^3
#
#
#
# Elastic Constant Matrix: (Units=GPa)
#
#
# Indices 1 2 3 4 5 6 
#
# 1 89.2752 22.6187 18.0189 0.0000 0.0000 0.0000
# 2 22.6187 77.0206 13.5712 0.0000 0.0000 0.0000
# 3 18.0189 13.5712 50.2437 0.0000 0.0000 0.0000
# 4 0.0000 0.0000 0.0000 23.7226 0.0000 0.0000
# 5 0.0000 0.0000 0.0000 0.0000 17.4367 0.0000
# 6 0.0000 0.0000 0.0000 0.0000 0.0000 2551.9888
#
#
#
# Elastic Compliance Matrix: (Units=1/GPa)
#
#
# Indices 1 2 3 4 5 6 
#
# 1 0.012736 -0.003082 -0.003735 0.000000 0.000000 0.000000
# 2 -0.003082 0.014378 -0.002778 0.000000 0.000000 0.000000
# 3 -0.003735 -0.002778 0.021993 0.000000 0.000000 0.000000
# 4 0.000000 0.000000 0.000000 0.042154 0.000000 0.000000
# 5 0.000000 0.000000 0.000000 0.000000 0.057350 0.000000
# 6 0.000000 0.000000 0.000000 0.000000 0.000000 0.000392
#
#
# Mechanical properties :
#
#
# Convention : Reuss Voigt Hill
#
# Bulk Modulus (GPa) = 33.42662 36.10636 34.76649
# Shear Modulus (GPa) = 28.06370 529.45167 278.75769
#
# Velocity S-wave (km/s) = 3.98729 17.31883 12.56663
# Velocity P-wave (km/s) = 6.33519 20.50311 15.17419
#
# Compressibility (1/GPa) = 0.02991628
#
# Stress axis : x y z
#
# Youngs Moduli (GPa) = 78.51726 69.54972 45.46917
#
# Poissons Ratio (x) = 0.21436 0.16983
# Poissons Ratio (y) = 0.24200 0.12633
# Poissons Ratio (z) = 0.29327 0.19323
#
# Static dielectric constant tensor:
#      x y z
#    x 1.634490 0.000000 0.000000 
#    y 0.000000 1.598370 0.000000 
#    z 0.000000 0.000000 1.568200 
# 
# From -- ./inp_files/23915.got.cif
#   From: 2010.05.17/outbox.cif.g08.bks.cpg/sg74_12_cif.got.tgz:23915.got - 2010.06.03 17:57:02.
