data_PCOD9535740
_publ_section_title
;
Structure prediction by ZEFSAII (Michael W. Deem and Ramdas Pophale) SiO2 
 PCOD9535740
Probable space group: I M M A
;
_chemical_formula_sum "Si O2"
_cell_formula_units_Z 88
_cell_length_a 21.779903
_cell_length_b 8.886782
_cell_length_c 26.020407
_cell_angle_alpha 90.000000
_cell_angle_beta 90.000000
_cell_angle_gamma 90.000000
_cell_volume 5036.334340
_symmetry_space_group_name_H-M "I M M A"
_symmetry_group_IT_number 74
_symmetry_cell_setting 'orthorhombic'
loop_
_space_group_symop_operation_xyz
x,y,z
-x,1/2-y,z
x,-y,-z
-x,1/2+y,-z
-x,-y,-z
x,1/2+y,-z
-x,y,z
x,1/2-y,z
1/2+x,1/2+y,1/2+z
1/2-x,-y,1/2+z
1/2+x,1/2-y,1/2-z
1/2-x,y,1/2-z
1/2-x,1/2-y,1/2-z
1/2+x,y,1/2-z
1/2-x,1/2+y,1/2+z
1/2+x,-y,1/2+z
loop_
_atom_site_type_symbol
_atom_site_label
_atom_site_fract_x
_atom_site_fract_y
_atom_site_fract_z
Si Si1 0.119273 0.928854 0.233851
Si Si2 0.000000 0.428381 0.943711
Si Si3 0.277910 0.426804 0.326274
Si Si4 0.853421 0.931629 0.345804
Si Si5 0.405643 0.074496 0.367868
Si Si6 0.571419 0.068784 0.946126
O O1 0.113556 0.750000 0.227282
O O2 0.109698 0.968282 0.293262
O O3 0.188586 0.982826 0.219715
O O4 0.080476 0.011821 0.189616
O O5 0.941618 0.484262 0.910777
O O6 0.000000 0.250000 0.947768
O O7 0.000000 0.500000 0.000000
O O8 0.272944 0.250000 0.313400
O O9 0.213297 0.493725 0.342201
O O10 0.331395 0.440516 0.369802
O O11 0.846323 0.750000 0.346199
O O12 0.889144 0.978264 0.396927
O O13 0.421240 0.250000 0.371120
O O14 0.500000 0.025214 0.939132
O O15 0.573851 0.250000 0.949322
O O16 0.593044 0.000000 0.000000
#
# Coordination Sequence:
#
# PCOD9535740 Si02
#       6
#    16   8  16  16  16  16
#     4   9  17  31  51  79 112 145 180 218 268 325
#     4  12  24  40  64  84 104 144 189 228 269 322
#     4   9  19  32  51  78 111 144 175 216 269 320
#     4  10  19  31  52  81 110 142 181 222 267 328
#     4   9  20  37  54  78 111 144 178 223 270 313
#     4   9  19  37  56  74 101 137 178 223 270 318
#
# _framework density 17.473026999999998
#
# number of rings (size 3 to 8) (size 9 to 14) (size 15 to 20)
#    1.091    1.455    0.000    2.455    0.000    4.364 
#    1.636    0.909    0.000    2.182    0.000    0.000 
#    0.000    0.000    0.000    0.000    0.000    0.000 
#
# Total GULP energy -244962.194440 kJ/mol
# GULP energy per Si atom -5567.322601 kJ/mol
# Density = 1.743326 g / cm^3
# Si number density = 17.473027 Si / 1000 Ang^3
#
#
#
# Elastic Constant Matrix: (Units=GPa)
#
#
# Indices 1 2 3 4 5 6 
#
# 1 44.6891 22.9133 56.6765 0.0000 0.0000 0.0000
# 2 22.9133 76.9355 56.7251 0.0000 0.0000 0.0000
# 3 56.6765 56.7251 160.6324 0.0000 0.0000 0.0000
# 4 0.0000 0.0000 0.0000 26.8625 0.0000 0.0000
# 5 0.0000 0.0000 0.0000 0.0000 38.8088 0.0000
# 6 0.0000 0.0000 0.0000 0.0000 0.0000 23.5674
#
#
#
# Elastic Compliance Matrix: (Units=1/GPa)
#
#
# Indices 1 2 3 4 5 6 
#
# 1 0.040743 -0.002076 -0.013643 0.000000 0.000000 0.000000
# 2 -0.002076 0.017679 -0.005511 0.000000 0.000000 0.000000
# 3 -0.013643 -0.005511 0.012985 0.000000 0.000000 0.000000
# 4 0.000000 0.000000 0.000000 0.037227 0.000000 0.000000
# 5 0.000000 0.000000 0.000000 0.000000 0.025767 0.000000
# 6 0.000000 0.000000 0.000000 0.000000 0.000000 0.042432
#
#
# Mechanical properties :
#
#
# Convention : Reuss Voigt Hill
#
# Bulk Modulus (GPa) = 34.54301 61.65408 48.09854
# Shear Modulus (GPa) = 21.83974 27.57721 24.70847
#
# Velocity S-wave (km/s) = 3.53924 3.97706 3.76452
# Velocity P-wave (km/s) = 6.04267 7.51340 6.81781
#
# Compressibility (1/GPa) = 0.02894942
#
# Stress axis : x y z
#
# Youngs Moduli (GPa) = 24.54408 56.56350 77.01179
#
# Poissons Ratio (x) = 0.11740 1.05064
# Poissons Ratio (y) = 0.05094 0.42440
# Poissons Ratio (z) = 0.33484 0.31171
#
# Static dielectric constant tensor:
#      x y z
#    x 1.605680 0.000000 0.000000 
#    y 0.000000 1.585450 0.000000 
#    z 0.000000 0.000000 1.599240 
# 
# From -- ./inp_files/55069.got.cif
#   From: 2010.05.17/outbox.cif.g08.bks.cpg/sg74_28_cif.got.tgz:55069.got - 2010.06.03 17:57:02.
