data_PCOD9535455
_publ_section_title
;
Structure prediction by ZEFSAII (Michael W. Deem and Ramdas Pophale) SiO2 
 PCOD9535455
Probable space group: I M M A
;
_chemical_formula_sum "Si O2"
_cell_formula_units_Z 80
_cell_length_a 26.833458
_cell_length_b 13.586678
_cell_length_c 12.050215
_cell_angle_alpha 90.000000
_cell_angle_beta 90.000000
_cell_angle_gamma 90.000000
_cell_volume 4393.237904
_symmetry_space_group_name_H-M "I M M A"
_symmetry_group_IT_number 74
_symmetry_cell_setting 'orthorhombic'
loop_
_space_group_symop_operation_xyz
x,y,z
-x,1/2-y,z
x,-y,-z
-x,1/2+y,-z
-x,-y,-z
x,1/2+y,-z
-x,y,z
x,1/2-y,z
1/2+x,1/2+y,1/2+z
1/2-x,-y,1/2+z
1/2+x,1/2-y,1/2-z
1/2-x,y,1/2-z
1/2-x,1/2-y,1/2-z
1/2+x,y,1/2-z
1/2-x,1/2+y,1/2+z
1/2+x,-y,1/2+z
loop_
_atom_site_type_symbol
_atom_site_label
_atom_site_fract_x
_atom_site_fract_y
_atom_site_fract_z
Si Si1 0.054067 0.030919 0.870760
Si Si2 0.293951 0.067960 0.164456
Si Si3 0.348967 0.366952 0.560472
Si Si4 0.383720 0.134495 0.310609
Si Si5 0.765421 0.365607 0.581011
O O1 0.104289 0.095604 0.867819
O O2 0.000000 0.073622 0.839683
O O3 0.067289 0.932238 0.804154
O O4 0.050335 0.000000 0.000000
O O5 0.250000 0.092319 0.250000
O O6 0.344814 0.107546 0.215723
O O7 0.295101 0.949531 0.147284
O O8 0.280740 0.118082 0.047135
O O9 0.349192 0.250000 0.565997
O O10 0.358862 0.392490 0.430679
O O11 0.292905 0.396134 0.591859
O O12 0.394279 0.250000 0.312121
O O13 0.771569 0.250000 0.611582
#
# Coordination Sequence:
#
# PCOD9535455 Si02
#       5
#    16  16  16  16  16
#     4   9  18  31  48  71 101 132 163 207 264 316
#     4  11  20  31  51  72 101 139 177 219 259 308
#     4   9  17  30  48  69  97 132 171 207 246 302
#     4  10  19  30  48  71  96 130 172 211 251 302
#     4  10  21  33  48  74 104 139 178 215 261 312
#
# _framework density 18.209804999999999
#
# number of rings (size 3 to 8) (size 9 to 14) (size 15 to 20)
#    0.000    2.200    2.000    1.800    5.600    2.000 
#    0.000    5.000    0.000    1.200    0.000    2.800 
#    0.000    1.600    0.000    0.000    0.000    0.000 
#
# Total GULP energy -223063.702455 kJ/mol
# GULP energy per Si atom -5576.592561 kJ/mol
# Density = 1.816836 g / cm^3
# Si number density = 18.209805 Si / 1000 Ang^3
#
#
#
# Elastic Constant Matrix: (Units=GPa)
#
#
# Indices 1 2 3 4 5 6 
#
# 1 78.8386 17.1633 17.1115 0.0000 0.0000 0.0000
# 2 17.1633 42.4678 2.1020 0.0000 0.0000 0.0000
# 3 17.1115 2.1020 50.5379 0.0000 0.0000 0.0000
# 4 0.0000 0.0000 0.0000 20.7779 0.0000 0.0000
# 5 0.0000 0.0000 0.0000 0.0000 0.7130 0.0000
# 6 0.0000 0.0000 0.0000 0.0000 0.0000 18.0528
#
#
#
# Elastic Compliance Matrix: (Units=1/GPa)
#
#
# Indices 1 2 3 4 5 6 
#
# 1 0.015002 -0.005824 -0.004837 0.000000 0.000000 0.000000
# 2 -0.005824 0.025856 0.000896 0.000000 0.000000 0.000000
# 3 -0.004837 0.000896 0.021388 0.000000 0.000000 0.000000
# 4 0.000000 0.000000 0.000000 0.048128 0.000000 0.000000
# 5 0.000000 0.000000 0.000000 0.000000 1.402454 0.000000
# 6 0.000000 0.000000 0.000000 0.000000 0.000000 0.055393
#
#
# Mechanical properties :
#
#
# Convention : Reuss Voigt Hill
#
# Bulk Modulus (GPa) = 23.40979 27.17754 25.29366
# Shear Modulus (GPa) = 3.12112 16.93991 10.03052
#
# Velocity S-wave (km/s) = 1.31061 3.05333 2.34952
# Velocity P-wave (km/s) = 3.89535 5.23331 4.61309
#
# Compressibility (1/GPa) = 0.04271717
#
# Stress axis : x y z
#
# Youngs Moduli (GPa) = 66.65850 38.67500 46.75591
#
# Poissons Ratio (x) = 0.22523 0.22617
# Poissons Ratio (y) = 0.38819 -0.04191
# Poissons Ratio (z) = 0.32244 -0.03467
#
# Static dielectric constant tensor:
#      x y z
#    x 1.642060 0.000000 0.000000 
#    y 0.000000 1.680900 0.000000 
#    z 0.000000 0.000000 1.634380 
# 
# From -- ./inp_files/20468.got.cif
#   From: 2010.05.17/outbox.cif.g08.bks.cpg/sg74_11_cif.got.tgz:20468.got - 2010.06.03 17:57:02.
