data_PCOD9535428
_publ_section_title
;
Structure prediction by ZEFSAII (Michael W. Deem and Ramdas Pophale) SiO2 
 PCOD9535428
Probable space group: I M M A
;
_chemical_formula_sum "Si O2"
_cell_formula_units_Z 120
_cell_length_a 14.434425
_cell_length_b 19.587003
_cell_length_c 26.158073
_cell_angle_alpha 90.000000
_cell_angle_beta 90.000000
_cell_angle_gamma 90.000000
_cell_volume 7395.596795
_symmetry_space_group_name_H-M "I M M A"
_symmetry_group_IT_number 74
_symmetry_cell_setting 'orthorhombic'
loop_
_space_group_symop_operation_xyz
x,y,z
-x,1/2-y,z
x,-y,-z
-x,1/2+y,-z
-x,-y,-z
x,1/2+y,-z
-x,y,z
x,1/2-y,z
1/2+x,1/2+y,1/2+z
1/2-x,-y,1/2+z
1/2+x,1/2-y,1/2-z
1/2-x,y,1/2-z
1/2-x,1/2-y,1/2-z
1/2+x,y,1/2-z
1/2-x,1/2+y,1/2+z
1/2+x,-y,1/2+z
loop_
_atom_site_type_symbol
_atom_site_label
_atom_site_fract_x
_atom_site_fract_y
_atom_site_fract_z
Si Si1 0.602440 0.384887 0.111888
Si Si2 0.250000 0.439768 0.250000
Si Si3 0.214871 0.542940 0.861272
Si Si4 0.691014 0.669857 0.485360
Si Si5 0.108569 0.537672 0.052931
Si Si6 0.392301 0.824913 0.779856
Si Si7 0.101275 0.331341 0.502339
Si Si8 0.111016 0.828292 0.899302
O O1 0.500000 0.416029 0.117578
O O2 0.684193 0.438911 0.116613
O O3 0.613606 0.332255 0.158620
O O4 0.605868 0.347547 0.057872
O O5 0.228458 0.478758 0.197486
O O6 0.335146 0.388445 0.240241
O O7 0.163232 0.492003 0.899019
O O8 0.157400 0.614481 0.864018
O O9 0.682360 0.750000 0.471981
O O10 0.627307 0.617589 0.454856
O O11 0.797986 0.646300 0.477521
O O12 0.659344 0.664652 0.544935
O O13 0.000000 0.523394 0.059403
O O14 0.138239 0.500000 0.000000
O O15 0.500000 0.830363 0.765297
O O16 0.359033 0.750000 0.763860
O O17 0.099979 0.250000 0.509332
O O18 0.000000 0.358072 0.520800
O O19 0.125982 0.750000 0.881836
O O20 0.000000 0.838772 0.904232
#
# Coordination Sequence:
#
# PCOD9535428 Si02
#       8
#    16   8  16  16  16  16  16  16
#     4   9  16  27  43  62  87 122 164 205 245 285
#     4  10  23  34  46  64  91 134 172 216 258 308
#     4  11  21  35  49  68  98 132 175 216 260 305
#     4  10  19  32  50  76 109 139 168 210 259 311
#     4  11  21  34  54  79 105 136 174 215 261 315
#     4   9  17  28  42  61  86 120 166 214 249 282
#     4   9  15  24  42  68  96 128 165 200 239 290
#     4  10  19  30  47  72 102 138 177 217 261 303
#
# _framework density 16.225871999999999
#
# number of rings (size 3 to 8) (size 9 to 14) (size 15 to 20)
#    0.000    2.133    2.667    1.400    0.000    6.133 
#    0.000    2.000    0.000    2.400    0.000    0.467 
#    0.000    0.000    0.000    0.000    0.000    0.000 
#
# Total GULP energy -334383.283527 kJ/mol
# GULP energy per Si atom -5573.054725 kJ/mol
# Density = 1.618894 g / cm^3
# Si number density = 16.225872 Si / 1000 Ang^3
#
#
#
# Elastic Constant Matrix: (Units=GPa)
#
#
# Indices 1 2 3 4 5 6 
#
# 1 77.8410 13.7191 19.2631 0.0000 0.0000 0.0000
# 2 13.7191 33.1347 20.9364 0.0000 0.0000 0.0000
# 3 19.2631 20.9364 59.5276 0.0000 0.0000 0.0000
# 4 0.0000 0.0000 0.0000 5.2365 0.0000 0.0000
# 5 0.0000 0.0000 0.0000 0.0000 3.6782 0.0000
# 6 0.0000 0.0000 0.0000 0.0000 0.0000 18.4305
#
#
#
# Elastic Compliance Matrix: (Units=1/GPa)
#
#
# Indices 1 2 3 4 5 6 
#
# 1 0.014340 -0.003864 -0.003281 0.000000 0.000000 0.000000
# 2 -0.003864 0.039844 -0.012763 0.000000 0.000000 0.000000
# 3 -0.003281 -0.012763 0.022350 0.000000 0.000000 0.000000
# 4 0.000000 0.000000 0.000000 0.190968 0.000000 0.000000
# 5 0.000000 0.000000 0.000000 0.000000 0.271874 0.000000
# 6 0.000000 0.000000 0.000000 0.000000 0.000000 0.054258
#
#
# Mechanical properties :
#
#
# Convention : Reuss Voigt Hill
#
# Bulk Modulus (GPa) = 27.23558 30.92673 29.08116
# Shear Modulus (GPa) = 7.74366 13.24134 10.49250
#
# Velocity S-wave (km/s) = 2.18696 2.85978 2.54570
# Velocity P-wave (km/s) = 4.81651 5.47777 5.15775
#
# Compressibility (1/GPa) = 0.03671668
#
# Stress axis : x y z
#
# Youngs Moduli (GPa) = 69.73635 25.09781 44.74327
#
# Poissons Ratio (x) = 0.09697 0.14682
# Poissons Ratio (y) = 0.26945 0.57107
# Poissons Ratio (z) = 0.22883 0.32033
#
# Static dielectric constant tensor:
#      x y z
#    x 1.602730 0.000000 0.000000 
#    y 0.000000 1.528870 0.000000 
#    z 0.000000 0.000000 1.553320 
# 
# From -- ./inp_files/67375.got.cif
#   From: 2010.05.17/outbox.cif.g08.bks.cpg/sg74_34_cif.got.tgz:67375.got - 2010.06.03 17:57:02.
