data_PCOD9535567
_publ_section_title
;
Structure prediction by ZEFSAII (Michael W. Deem and Ramdas Pophale) SiO2 
 PCOD9535567
Probable space group: I M M A
;
_chemical_formula_sum "Si O2"
_cell_formula_units_Z 80
_cell_length_a 8.642344
_cell_length_b 19.183229
_cell_length_c 27.740276
_cell_angle_alpha 90.000000
_cell_angle_beta 90.000000
_cell_angle_gamma 90.000000
_cell_volume 4599.006654
_symmetry_space_group_name_H-M "I M M A"
_symmetry_group_IT_number 74
_symmetry_cell_setting 'orthorhombic'
loop_
_space_group_symop_operation_xyz
x,y,z
-x,1/2-y,z
x,-y,-z
-x,1/2+y,-z
-x,-y,-z
x,1/2+y,-z
-x,y,z
x,1/2-y,z
1/2+x,1/2+y,1/2+z
1/2-x,-y,1/2+z
1/2+x,1/2-y,1/2-z
1/2-x,y,1/2-z
1/2-x,1/2-y,1/2-z
1/2+x,y,1/2-z
1/2-x,1/2+y,1/2+z
1/2+x,-y,1/2+z
loop_
_atom_site_type_symbol
_atom_site_label
_atom_site_fract_x
_atom_site_fract_y
_atom_site_fract_z
Si Si1 0.315901 0.464012 0.852094
Si Si2 0.314886 0.829433 0.303913
Si Si3 0.185454 0.598287 0.801685
Si Si4 0.188088 0.828013 0.900711
Si Si5 0.312488 0.030366 0.448436
O O1 0.500000 0.467873 0.850310
O O2 0.258153 0.388002 0.837335
O O3 0.246615 0.521448 0.815375
O O4 0.254812 0.485518 0.904639
O O5 0.500000 0.837100 0.303032
O O6 0.277898 0.750000 0.318847
O O7 0.250000 0.838971 0.250000
O O8 0.250000 0.620366 0.750000
O O9 0.232413 0.647271 0.846729
O O10 0.000000 0.596663 0.800000
O O11 0.243947 0.750000 0.911232
O O12 0.234931 0.889593 0.937259
O O13 0.000000 0.826452 0.901464
O O14 0.500000 0.027636 0.445753
O O15 0.265012 0.000000 0.500000
#
# Coordination Sequence:
#
# PCOD9535567 Si02
#       5
#    16  16  16  16  16
#     4  11  21  33  51  73 100 132 168 209 251 300
#     4  10  20  34  52  74 102 135 170 208 252 301
#     4  10  19  31  48  71 100 132 168 205 244 294
#     4   8  15  29  49  72  98 129 164 203 246 292
#     4   9  18  34  55  76  99 128 166 211 257 304
#
# _framework density 17.395060999999998
#
# number of rings (size 3 to 8) (size 9 to 14) (size 15 to 20)
#    0.000    2.400    0.000    4.800    0.000    2.000 
#    0.000    1.000    0.000   18.000    0.000    0.000 
#    0.000    0.000    0.000    0.000    0.000    0.000 
#
# Total GULP energy -223143.913706 kJ/mol
# GULP energy per Si atom -5578.597843 kJ/mol
# Density = 1.735547 g / cm^3
# Si number density = 17.395061 Si / 1000 Ang^3
#
#
#
# Elastic Constant Matrix: (Units=GPa)
#
#
# Indices 1 2 3 4 5 6 
#
# 1 42.8492 33.4134 25.2089 0.0000 0.0000 0.0000
# 2 33.4134 156.3764 77.4021 0.0000 0.0000 0.0000
# 3 25.2089 77.4021 105.1338 0.0000 0.0000 0.0000
# 4 0.0000 0.0000 0.0000 10.6959 0.0000 0.0000
# 5 0.0000 0.0000 0.0000 0.0000 24.7866 0.0000
# 6 0.0000 0.0000 0.0000 0.0000 0.0000 12.1879
#
#
#
# Elastic Compliance Matrix: (Units=1/GPa)
#
#
# Indices 1 2 3 4 5 6 
#
# 1 0.028915 -0.004321 -0.003752 0.000000 0.000000 0.000000
# 2 -0.004321 0.010707 -0.006847 0.000000 0.000000 0.000000
# 3 -0.003752 -0.006847 0.015452 0.000000 0.000000 0.000000
# 4 0.000000 0.000000 0.000000 0.093494 0.000000 0.000000
# 5 0.000000 0.000000 0.000000 0.000000 0.040344 0.000000
# 6 0.000000 0.000000 0.000000 0.000000 0.000000 0.082048
#
#
# Mechanical properties :
#
#
# Convention : Reuss Voigt Hill
#
# Bulk Modulus (GPa) = 39.62855 64.04536 51.83696
# Shear Modulus (GPa) = 16.17018 20.75641 18.46330
#
# Velocity S-wave (km/s) = 3.05222 3.45807 3.26146
# Velocity P-wave (km/s) = 5.93737 7.26928 6.63682
#
# Compressibility (1/GPa) = 0.02523433
#
# Stress axis : x y z
#
# Youngs Moduli (GPa) = 34.58466 93.39623 64.71679
#
# Poissons Ratio (x) = 0.40359 0.24280
# Poissons Ratio (y) = 0.14945 0.44309
# Poissons Ratio (z) = 0.12975 0.63945
#
# Static dielectric constant tensor:
#      x y z
#    x 1.582730 0.000000 0.000000 
#    y 0.000000 1.601700 0.000000 
#    z 0.000000 0.000000 1.571900 
# 
# From -- ./inp_files/63925.got.cif
#   From: 2010.05.17/outbox.cif.g08.bks.cpg/sg74_32_cif.got.tgz:63925.got - 2010.06.03 17:57:02.
