data_PCOD9535098
_publ_section_title
;
Structure prediction by ZEFSAII (Michael W. Deem and Ramdas Pophale) SiO2 
 PCOD9535098
Probable space group: I M M A
;
_chemical_formula_sum "Si O2"
_cell_formula_units_Z 88
_cell_length_a 18.317207
_cell_length_b 17.728189
_cell_length_c 14.242790
_cell_angle_alpha 90.000000
_cell_angle_beta 90.000000
_cell_angle_gamma 90.000000
_cell_volume 4625.074124
_symmetry_space_group_name_H-M "I M M A"
_symmetry_group_IT_number 74
_symmetry_cell_setting 'orthorhombic'
loop_
_space_group_symop_operation_xyz
x,y,z
-x,1/2-y,z
x,-y,-z
-x,1/2+y,-z
-x,-y,-z
x,1/2+y,-z
-x,y,z
x,1/2-y,z
1/2+x,1/2+y,1/2+z
1/2-x,-y,1/2+z
1/2+x,1/2-y,1/2-z
1/2-x,y,1/2-z
1/2-x,1/2-y,1/2-z
1/2+x,y,1/2-z
1/2-x,1/2+y,1/2+z
1/2+x,-y,1/2+z
loop_
_atom_site_type_symbol
_atom_site_label
_atom_site_fract_x
_atom_site_fract_y
_atom_site_fract_z
Si Si1 0.633290 0.663315 0.649962
Si Si2 0.750000 0.439904 0.250000
Si Si3 0.418482 0.158378 0.558776
Si Si4 0.658309 0.537887 0.102587
Si Si5 0.500000 0.834584 0.795566
Si Si6 0.500000 0.498597 0.111906
Si Si7 0.734065 0.163350 0.639434
O O1 0.658485 0.750000 0.639708
O O2 0.697727 0.611217 0.686117
O O3 0.599629 0.640190 0.549725
O O4 0.570154 0.661928 0.728039
O O5 0.703148 0.490191 0.178838
O O6 0.500000 0.130359 0.584007
O O7 0.421409 0.250000 0.566370
O O8 0.347526 0.133086 0.617584
O O9 0.575123 0.539556 0.139642
O O10 0.701921 0.615656 0.092507
O O11 0.658226 0.500000 0.000000
O O12 0.500000 0.750000 0.841037
O O13 0.500000 0.910639 0.856965
O O14 0.500000 0.500000 0.000000
O O15 0.736205 0.250000 0.607157
O O16 0.750000 0.161639 0.750000
#
# Coordination Sequence:
#
# PCOD9535098 Si02
#       7
#    16   8  16  16   8   8  16
#     4  10  19  32  55  91 125 157 193 237 299 368
#     4  12  21  34  59  84 122 158 198 248 295 364
#     4   9  17  33  59  88 119 153 190 239 303 365
#     4  11  23  41  61  84 115 157 202 247 307 358
#     4  10  18  34  58  87 123 155 197 247 296 361
#     4  10  22  42  60  79 115 163 199 243 298 359
#     4  10  21  40  61  86 120 155 198 251 300 352
#
# _framework density 19.026723
#
# number of rings (size 3 to 8) (size 9 to 14) (size 15 to 20)
#    0.000    1.818    3.636    1.364    0.000    0.000 
#    1.636    5.000    2.000    1.636    0.000    0.000 
#    0.000    0.000    0.000    0.000    0.000    0.000 
#
# Total GULP energy -245405.269188 kJ/mol
# GULP energy per Si atom -5577.392482 kJ/mol
# Density = 1.898342 g / cm^3
# Si number density = 19.026723 Si / 1000 Ang^3
#
#
#
# Elastic Constant Matrix: (Units=GPa)
#
#
# Indices 1 2 3 4 5 6 
#
# 1 185.1162 61.9177 39.1645 0.0000 0.0000 0.0000
# 2 61.9177 56.3377 18.6789 0.0000 0.0000 0.0000
# 3 39.1645 18.6789 63.3730 0.0000 0.0000 0.0000
# 4 0.0000 0.0000 0.0000 10.5782 0.0000 0.0000
# 5 0.0000 0.0000 0.0000 0.0000 26.8287 0.0000
# 6 0.0000 0.0000 0.0000 0.0000 0.0000 33.5148
#
#
#
# Elastic Compliance Matrix: (Units=1/GPa)
#
#
# Indices 1 2 3 4 5 6 
#
# 1 0.009010 -0.008928 -0.002936 0.000000 0.000000 0.000000
# 2 -0.008928 0.028521 -0.002889 0.000000 0.000000 0.000000
# 3 -0.002936 -0.002889 0.018446 0.000000 0.000000 0.000000
# 4 0.000000 0.000000 0.000000 0.094534 0.000000 0.000000
# 5 0.000000 0.000000 0.000000 0.000000 0.037274 0.000000
# 6 0.000000 0.000000 0.000000 0.000000 0.000000 0.029838
#
#
# Mechanical properties :
#
#
# Convention : Reuss Voigt Hill
#
# Bulk Modulus (GPa) = 37.77976 60.48325 49.13151
# Shear Modulus (GPa) = 19.53502 26.52207 23.02854
#
# Velocity S-wave (km/s) = 3.20772 3.73760 3.48275
# Velocity P-wave (km/s) = 5.79815 7.10519 6.48469
#
# Compressibility (1/GPa) = 0.02646920
#
# Stress axis : x y z
#
# Youngs Moduli (GPa) = 110.99239 35.06244 54.21335
#
# Poissons Ratio (x) = 0.31305 0.15919
# Poissons Ratio (y) = 0.99099 0.15660
# Poissons Ratio (z) = 0.32591 0.10128
#
# Static dielectric constant tensor:
#      x y z
#    x 1.702110 0.000000 0.000000 
#    y 0.000000 1.682840 0.000000 
#    z 0.000000 0.000000 1.641540 
# 
# From -- ./inp_files/34145.got.cif
#   From: 2010.05.17/outbox.cif.g08.bks.cpg/sg74_18_cif.got.tgz:34145.got - 2010.06.03 17:57:02.
