data_PCOD9535950
_publ_section_title
;
Structure prediction by ZEFSAII (Michael W. Deem and Ramdas Pophale) SiO2 
 PCOD9535950
Probable space group: I M M A
;
_chemical_formula_sum "Si O2"
_cell_formula_units_Z 88
_cell_length_a 8.456227
_cell_length_b 28.917535
_cell_length_c 19.574770
_cell_angle_alpha 90.000000
_cell_angle_beta 90.000000
_cell_angle_gamma 90.000000
_cell_volume 4786.681935
_symmetry_space_group_name_H-M "I M M A"
_symmetry_group_IT_number 74
_symmetry_cell_setting 'orthorhombic'
loop_
_space_group_symop_operation_xyz
x,y,z
-x,1/2-y,z
x,-y,-z
-x,1/2+y,-z
-x,-y,-z
x,1/2+y,-z
-x,y,z
x,1/2-y,z
1/2+x,1/2+y,1/2+z
1/2-x,-y,1/2+z
1/2+x,1/2-y,1/2-z
1/2-x,y,1/2-z
1/2-x,1/2-y,1/2-z
1/2+x,y,1/2-z
1/2-x,1/2+y,1/2+z
1/2+x,-y,1/2+z
loop_
_atom_site_type_symbol
_atom_site_label
_atom_site_fract_x
_atom_site_fract_y
_atom_site_fract_z
Si Si1 0.191177 0.340446 0.910828
Si Si2 0.310277 0.869558 0.827704
Si Si3 0.189746 0.427955 0.671875
Si Si4 0.809429 0.970721 0.672116
Si Si5 0.690964 0.196577 0.443695
Si Si6 0.309158 0.750000 0.326897
O O1 0.251319 0.387034 0.876134
O O2 0.242943 0.296156 0.866184
O O3 0.000000 0.341395 0.910213
O O4 0.243613 0.330758 0.988355
O O5 0.500000 0.868442 0.826522
O O6 0.250000 0.864747 0.750000
O O7 0.258133 0.920586 0.855452
O O8 0.247817 0.829716 0.876617
O O9 0.250000 0.422069 0.750000
O O10 0.241914 0.479000 0.645156
O O11 0.000000 0.427030 0.674206
O O12 0.750000 0.970630 0.750000
O O13 0.000000 0.970694 0.671096
O O14 0.500000 0.197136 0.444229
O O15 0.744030 0.250000 0.446557
O O16 0.500000 0.750000 0.327294
O O17 0.250000 0.750000 0.250000
#
# Coordination Sequence:
#
# PCOD9535950 Si02
#       6
#    16  16  16  16  16   8
#     4  10  20  36  54  74 104 142 181 220 267 316
#     4  10  20  36  59  85 109 136 174 219 264 319
#     4  10  19  32  52  79 109 142 179 220 264 312
#     4   8  16  31  51  76 107 139 171 212 264 313
#     4  10  21  39  59  77 104 143 179 219 272 321
#     4  10  20  34  52  74 101 136 177 220 263 306
#
# _framework density 18.384343000000001
#
# number of rings (size 3 to 8) (size 9 to 14) (size 15 to 20)
#    0.000    2.364    0.909    1.636    0.000    5.091 
#    0.000    0.909    0.000    5.455    0.000    0.000 
#    0.000    0.000    0.000    0.000    0.000    0.000 
#
# Total GULP energy -245276.173949 kJ/mol
# GULP energy per Si atom -5574.458499 kJ/mol
# Density = 1.834250 g / cm^3
# Si number density = 18.384343 Si / 1000 Ang^3
#
#
#
# Elastic Constant Matrix: (Units=GPa)
#
#
# Indices 1 2 3 4 5 6 
#
# 1 15.6555 24.7398 17.7475 -0.0001 0.0000 0.0000
# 2 24.7398 144.3477 71.6874 0.0000 0.0000 0.0000
# 3 17.7475 71.6874 102.7581 -0.0002 0.0000 0.0000
# 4 -0.0001 0.0000 -0.0002 -21.5809 0.0000 0.0000
# 5 0.0000 0.0000 0.0000 0.0000 25.3179 0.0000
# 6 0.0000 0.0000 0.0000 0.0000 0.0000 21.7769
#
#
#
# Elastic Compliance Matrix: (Units=1/GPa)
#
#
# Indices 1 2 3 4 5 6 
#
# 1 0.091147 -0.011941 -0.007412 0.000000 0.000000 0.000000
# 2 -0.011941 0.012165 -0.006424 0.000000 0.000000 0.000000
# 3 -0.007412 -0.006424 0.015493 0.000000 0.000000 0.000000
# 4 0.000000 0.000000 0.000000 -0.046337 0.000000 0.000000
# 5 0.000000 0.000000 0.000000 0.000000 0.039498 0.000000
# 6 0.000000 0.000000 0.000000 0.000000 0.000000 0.045920
#
#
# Mechanical properties :
#
#
# Convention : Reuss Voigt Hill
#
# Bulk Modulus (GPa) = 14.86950 54.56787 34.71869
# Shear Modulus (GPa) = 21.56500 15.00856 18.28678
#
# Velocity S-wave (km/s) = 3.42864 2.86033 3.15730
# Velocity P-wave (km/s) = 4.87645 6.37611 5.67603
#
# Compressibility (1/GPa) = 0.06725173
#
# Stress axis : x y z
#
# Youngs Moduli (GPa) = 10.97124 82.20508 64.54359
#
# Poissons Ratio (x) = 0.98160 0.47839
# Poissons Ratio (y) = 0.13101 0.41464
# Poissons Ratio (z) = 0.08132 0.52810
#
# Static dielectric constant tensor:
#      x y z
#    x 1.636900 0.000000 0.000000 
#    y 0.000000 1.668990 0.000000 
#    z 0.000000 0.000000 1.591230 
# 
# From -- ./inp_files/40142.got.cif
#   From: 2010.05.17/outbox.cif.g08.bks.cpg/sg74_21_cif.got.tgz:40142.got - 2010.06.03 17:57:02.
