data_PCOD9535528
_publ_section_title
;
Structure prediction by ZEFSAII (Michael W. Deem and Ramdas Pophale) SiO2 
 PCOD9535528
Probable space group: I M M A
;
_chemical_formula_sum "Si O2"
_cell_formula_units_Z 88
_cell_length_a 7.453589
_cell_length_b 19.350886
_cell_length_c 28.851727
_cell_angle_alpha 90.000000
_cell_angle_beta 90.000000
_cell_angle_gamma 90.000000
_cell_volume 4161.387039
_symmetry_space_group_name_H-M "I M M A"
_symmetry_group_IT_number 74
_symmetry_cell_setting 'orthorhombic'
loop_
_space_group_symop_operation_xyz
x,y,z
-x,1/2-y,z
x,-y,-z
-x,1/2+y,-z
-x,-y,-z
x,1/2+y,-z
-x,y,z
x,1/2-y,z
1/2+x,1/2+y,1/2+z
1/2-x,-y,1/2+z
1/2+x,1/2-y,1/2-z
1/2-x,y,1/2-z
1/2-x,1/2-y,1/2-z
1/2+x,y,1/2-z
1/2-x,1/2+y,1/2+z
1/2+x,-y,1/2+z
loop_
_atom_site_type_symbol
_atom_site_label
_atom_site_fract_x
_atom_site_fract_y
_atom_site_fract_z
Si Si1 0.203634 0.033007 0.642859
Si Si2 0.214672 0.250000 0.305498
Si Si3 0.216212 0.037164 0.048448
Si Si4 0.284899 0.900435 0.804781
Si Si5 0.714960 0.673588 0.505317
Si Si6 0.784462 0.171832 0.603094
O O1 0.199029 0.001148 0.591396
O O2 0.287707 0.970863 0.672625
O O3 0.000000 0.043194 0.660378
O O4 0.284796 0.109337 0.635160
O O5 0.250000 0.250000 0.250000
O O6 0.282514 0.174901 0.322531
O O7 0.000000 0.250000 0.312016
O O8 0.000000 0.035482 0.055145
O O9 0.279508 0.115295 0.040276
O O10 0.254099 0.000000 0.000000
O O11 0.500000 0.900499 0.812548
O O12 0.250000 0.902577 0.750000
O O13 0.500000 0.675128 0.510083
O O14 0.787173 0.750000 0.513821
O O15 0.748048 0.656455 0.451193
O O16 0.718482 0.250000 0.612364
O O17 0.000000 0.172629 0.607975
#
# Coordination Sequence:
#
# PCOD9535528 Si02
#       6
#    16   8  16  16  16  16
#     4  10  20  32  48  71  96 122 155 192 235 281
#     4   8  14  28  50  70  92 118 148 184 224 270
#     4  10  19  31  46  67  95 126 159 193 231 274
#     4   9  18  33  52  73  94 119 151 189 230 275
#     4   9  17  30  46  62  87 124 161 195 228 265
#     4   9  17  29  46  67  90 119 157 195 228 269
#
# _framework density 21.146795000000001
#
# number of rings (size 3 to 8) (size 9 to 14) (size 15 to 20)
#    0.000    2.727    1.818    0.000    0.000    1.818 
#    1.636    0.000    0.000    0.545    0.000    0.000 
#    0.000    0.000    0.000    0.000    0.000    0.000 
#
# Total GULP energy -245261.376223 kJ/mol
# GULP energy per Si atom -5574.122187 kJ/mol
# Density = 2.109866 g / cm^3
# Si number density = 21.146795 Si / 1000 Ang^3
#
#
#
# Elastic Constant Matrix: (Units=GPa)
#
#
# Indices 1 2 3 4 5 6 
#
# 1 64.1830 3.9106 -3.6852 0.0000 0.0000 0.0000
# 2 3.9106 193.2755 34.7198 0.0000 0.0000 0.0000
# 3 -3.6852 34.7198 27.1074 0.0000 0.0000 0.0000
# 4 0.0000 0.0000 0.0000 30.7321 0.0000 0.0000
# 5 0.0000 0.0000 0.0000 0.0000 13.2704 0.0000
# 6 0.0000 0.0000 0.0000 0.0000 0.0000 30.9316
#
#
#
# Elastic Compliance Matrix: (Units=1/GPa)
#
#
# Indices 1 2 3 4 5 6 
#
# 1 0.015827 -0.000918 0.003327 0.000000 0.000000 0.000000
# 2 -0.000918 0.006773 -0.008800 0.000000 0.000000 0.000000
# 3 0.003327 -0.008800 0.048614 0.000000 0.000000 0.000000
# 4 0.000000 0.000000 0.000000 0.032539 0.000000 0.000000
# 5 0.000000 0.000000 0.000000 0.000000 0.075356 0.000000
# 6 0.000000 0.000000 0.000000 0.000000 0.000000 0.032329
#
#
# Mechanical properties :
#
#
# Convention : Reuss Voigt Hill
#
# Bulk Modulus (GPa) = 17.11350 39.38404 28.24877
# Shear Modulus (GPa) = 20.51709 31.62818 26.07263
#
# Velocity S-wave (km/s) = 3.11822 3.87156 3.51513
# Velocity P-wave (km/s) = 4.59071 6.21690 5.46464
#
# Compressibility (1/GPa) = 0.05843340
#
# Stress axis : x y z
#
# Youngs Moduli (GPa) = 63.18143 147.63597 20.57009
#
# Poissons Ratio (x) = 0.13553 -0.06845
# Poissons Ratio (y) = 0.05800 0.18102
# Poissons Ratio (z) = -0.21023 1.29925
#
# Static dielectric constant tensor:
#      x y z
#    x 1.762440 0.000000 0.000000 
#    y 0.000000 1.863340 0.000000 
#    z 0.000000 0.000000 1.695900 
# 
# From -- ./inp_files/57017.got.cif
#   From: 2010.05.17/outbox.cif.g08.bks.cpg/sg74_29_cif.got.tgz:57017.got - 2010.06.03 17:57:02.
