data_PCOD9535910
_publ_section_title
;
Structure prediction by ZEFSAII (Michael W. Deem and Ramdas Pophale) SiO2 
 PCOD9535910
Probable space group: I M M A
;
_chemical_formula_sum "Si O2"
_cell_formula_units_Z 96
_cell_length_a 7.522035
_cell_length_b 20.600403
_cell_length_c 30.268849
_cell_angle_alpha 90.000000
_cell_angle_beta 90.000000
_cell_angle_gamma 90.000000
_cell_volume 4690.368593
_symmetry_space_group_name_H-M "I M M A"
_symmetry_group_IT_number 74
_symmetry_cell_setting 'orthorhombic'
loop_
_space_group_symop_operation_xyz
x,y,z
-x,1/2-y,z
x,-y,-z
-x,1/2+y,-z
-x,-y,-z
x,1/2+y,-z
-x,y,z
x,1/2-y,z
1/2+x,1/2+y,1/2+z
1/2-x,-y,1/2+z
1/2+x,1/2-y,1/2-z
1/2-x,y,1/2-z
1/2-x,1/2-y,1/2-z
1/2+x,y,1/2-z
1/2-x,1/2+y,1/2+z
1/2+x,-y,1/2+z
loop_
_atom_site_type_symbol
_atom_site_label
_atom_site_fract_x
_atom_site_fract_y
_atom_site_fract_z
Si Si1 0.717039 0.321776 0.422529
Si Si2 0.791533 0.967695 0.453880
Si Si3 0.796317 0.945385 0.872813
Si Si4 0.785975 0.459634 0.801900
Si Si5 0.786847 0.319140 0.802733
Si Si6 0.285424 0.677606 0.474958
O O1 0.500000 0.324682 0.423391
O O2 0.767973 0.250000 0.407345
O O3 0.784656 0.379904 0.392439
O O4 0.771392 0.328903 0.473679
O O5 0.769878 0.889866 0.452734
O O6 0.000000 0.982898 0.451162
O O7 0.725330 0.000000 0.500000
O O8 0.702481 0.003001 0.412732
O O9 0.000000 0.929170 0.860913
O O10 0.714030 0.981806 0.831109
O O11 0.750000 0.466260 0.750000
O O12 0.718664 0.388945 0.818207
O O13 0.000000 0.458293 0.807280
O O14 0.718255 0.250000 0.820478
O O15 0.750000 0.318929 0.750000
O O16 0.000000 0.318854 0.808840
O O17 0.500000 0.678521 0.473634
O O18 0.226932 0.750000 0.459386
#
# Coordination Sequence:
#
# PCOD9535910 Si02
#       6
#    16  16  16  16  16  16
#     4   8  14  26  47  73  95 119 160 210 249 284
#     4  11  22  33  47  72 105 136 163 197 250 306
#     4  10  19  32  52  74  97 128 169 210 248 296
#     4   9  18  31  48  71  94 123 161 202 252 298
#     4   8  13  23  40  61  85 111 143 184 226 272
#     4   9  17  31  52  74  96 130 173 210 246 288
#
# _framework density 20.467476000000001
#
# number of rings (size 3 to 8) (size 9 to 14) (size 15 to 20)
#    0.000    2.833    1.667    1.500    0.000    1.667 
#    0.000    0.833    0.000    4.000    0.000    2.333 
#    0.000    0.000    0.000    0.000    0.000    0.000 
#
# Total GULP energy -267552.070687 kJ/mol
# GULP energy per Si atom -5574.001473 kJ/mol
# Density = 2.042089 g / cm^3
# Si number density = 20.467476 Si / 1000 Ang^3
#
#
#
# Elastic Constant Matrix: (Units=GPa)
#
#
# Indices 1 2 3 4 5 6 
#
# 1 57.4322 -5.7124 -6.6854 0.0000 0.0000 0.0000
# 2 -5.7124 175.8197 40.9755 0.0000 0.0000 0.0000
# 3 -6.6854 40.9755 40.9964 0.0000 0.0000 0.0000
# 4 0.0000 0.0000 0.0000 22.9062 0.0000 0.0000
# 5 0.0000 0.0000 0.0000 0.0000 3.6448 0.0000
# 6 0.0000 0.0000 0.0000 0.0000 0.0000 2.4880
#
#
#
# Elastic Compliance Matrix: (Units=1/GPa)
#
#
# Indices 1 2 3 4 5 6 
#
# 1 0.017751 -0.000128 0.003022 0.000000 0.000000 0.000000
# 2 -0.000128 0.007416 -0.007433 0.000000 0.000000 0.000000
# 3 0.003022 -0.007433 0.032314 0.000000 0.000000 0.000000
# 4 0.000000 0.000000 0.000000 0.043656 0.000000 0.000000
# 5 0.000000 0.000000 0.000000 0.000000 0.274366 0.000000
# 6 0.000000 0.000000 0.000000 0.000000 0.000000 0.401925
#
#
# Mechanical properties :
#
#
# Convention : Reuss Voigt Hill
#
# Bulk Modulus (GPa) = 20.65920 36.82266 28.74093
# Shear Modulus (GPa) = 6.22945 22.18584 14.20764
#
# Velocity S-wave (km/s) = 1.74648 3.29592 2.63754
# Velocity P-wave (km/s) = 3.76597 5.70210 4.83200
#
# Compressibility (1/GPa) = 0.04840457
#
# Stress axis : x y z
#
# Youngs Moduli (GPa) = 56.33506 134.84843 30.94617
#
# Poissons Ratio (x) = 0.01721 -0.09353
# Poissons Ratio (y) = 0.00719 0.23002
# Poissons Ratio (z) = -0.17026 1.00230
#
# Static dielectric constant tensor:
#      x y z
#    x 1.756990 0.000000 0.000000 
#    y 0.000000 1.779810 0.000000 
#    z 0.000000 0.000000 1.681820 
# 
# From -- ./inp_files/64305.got.cif
#   From: 2010.05.17/outbox.cif.g08.bks.cpg/sg74_33_cif.got.tgz:64305.got - 2010.06.03 17:57:02.
