data_PCOD9535024
_publ_section_title
;
Structure prediction by ZEFSAII (Michael W. Deem and Ramdas Pophale) SiO2 
 PCOD9535024
Probable space group: I M M A
;
_chemical_formula_sum "Si O2"
_cell_formula_units_Z 88
_cell_length_a 20.561180
_cell_length_b 8.765503
_cell_length_c 26.722872
_cell_angle_alpha 90.000000
_cell_angle_beta 90.000000
_cell_angle_gamma 90.000000
_cell_volume 4816.238768
_symmetry_space_group_name_H-M "I M M A"
_symmetry_group_IT_number 74
_symmetry_cell_setting 'orthorhombic'
loop_
_space_group_symop_operation_xyz
x,y,z
-x,1/2-y,z
x,-y,-z
-x,1/2+y,-z
-x,-y,-z
x,1/2+y,-z
-x,y,z
x,1/2-y,z
1/2+x,1/2+y,1/2+z
1/2-x,-y,1/2+z
1/2+x,1/2-y,1/2-z
1/2-x,y,1/2-z
1/2-x,1/2-y,1/2-z
1/2+x,y,1/2-z
1/2-x,1/2+y,1/2+z
1/2+x,-y,1/2+z
loop_
_atom_site_type_symbol
_atom_site_label
_atom_site_fract_x
_atom_site_fract_y
_atom_site_fract_z
Si Si1 0.000000 0.567371 0.056506
Si Si2 0.866205 0.931786 0.944335
Si Si3 0.230227 0.429974 0.865809
Si Si4 0.500000 0.924711 0.165791
Si Si5 0.637549 0.570280 0.714179
Si Si6 0.362822 0.929701 0.834192
Si Si7 0.000000 0.924962 0.212608
O O1 0.067311 0.503851 0.078079
O O2 0.000000 0.750000 0.055714
O O3 0.000000 0.500000 0.000000
O O4 0.873007 0.750000 0.947117
O O5 0.806543 0.981149 0.909929
O O6 0.858105 0.000000 0.000000
O O7 0.224597 0.250000 0.873730
O O8 0.192188 0.478583 0.815429
O O9 0.304589 0.480440 0.860128
O O10 0.500000 0.750000 0.148489
O O11 0.500000 0.921647 0.226621
O O12 0.433890 0.009554 0.150975
O O13 0.643894 0.750000 0.702959
O O14 0.643678 0.549838 0.773959
O O15 0.566174 0.510849 0.698810
O O16 0.357219 0.750000 0.844281
O O17 0.000000 0.750000 0.194217
#
# Coordination Sequence:
#
# PCOD9535024 Si02
#       7
#     8  16  16   8  16  16   8
#     4  10  18  33  56  81 106 136 175 216 260 307
#     4  11  22  39  59  80 106 137 175 218 264 311
#     4  12  24  36  52  77 106 138 176 217 264 314
#     4   9  17  31  52  76 102 135 174 215 256 305
#     4  10  20  34  51  73 104 141 179 218 261 309
#     4  10  20  35  54  77 106 140 176 215 260 311
#     4   9  17  30  48  71 100 137 179 219 260 304
#
# _framework density 18.271519000000001
#
# number of rings (size 3 to 8) (size 9 to 14) (size 15 to 20)
#    0.000    1.636    0.000    7.364    0.000    7.273 
#    0.000    3.636    0.000    0.000    0.000    0.636 
#    0.000    0.000    0.000    0.000    0.000    0.000 
#
# Total GULP energy -245939.142428 kJ/mol
# GULP energy per Si atom -5589.525964 kJ/mol
# Density = 1.822993 g / cm^3
# Si number density = 18.271519 Si / 1000 Ang^3
#
#
#
# Elastic Constant Matrix: (Units=GPa)
#
#
# Indices 1 2 3 4 5 6 
#
# 1 134.1152 46.8918 25.1670 0.0000 0.0000 0.0000
# 2 46.8918 145.7021 30.5895 0.0000 0.0000 0.0000
# 3 25.1670 30.5895 35.4049 0.0000 0.0000 0.0000
# 4 0.0000 0.0000 0.0000 20.7726 0.0000 0.0000
# 5 0.0000 0.0000 0.0000 0.0000 41.1020 0.0000
# 6 0.0000 0.0000 0.0000 0.0000 0.0000 35.9403
#
#
#
# Elastic Compliance Matrix: (Units=1/GPa)
#
#
# Indices 1 2 3 4 5 6 
#
# 1 0.009015 -0.001901 -0.004766 0.000000 0.000000 0.000000
# 2 -0.001901 0.008785 -0.006239 0.000000 0.000000 0.000000
# 3 -0.004766 -0.006239 0.037023 0.000000 0.000000 0.000000
# 4 0.000000 0.000000 0.000000 0.048140 0.000000 0.000000
# 5 0.000000 0.000000 0.000000 0.000000 0.024330 0.000000
# 6 0.000000 0.000000 0.000000 0.000000 0.000000 0.027824
#
#
# Mechanical properties :
#
#
# Convention : Reuss Voigt Hill
#
# Bulk Modulus (GPa) = 34.46907 57.83542 46.15225
# Shear Modulus (GPa) = 26.23308 33.73457 29.98383
#
# Velocity S-wave (km/s) = 3.79322 4.30151 4.05534
# Velocity P-wave (km/s) = 6.17176 7.50951 6.87326
#
# Compressibility (1/GPa) = 0.02901152
#
# Stress axis : x y z
#
# Youngs Moduli (GPa) = 110.92348 113.83178 27.01027
#
# Poissons Ratio (x) = 0.21637 0.12873
# Poissons Ratio (y) = 0.21084 0.16852
# Poissons Ratio (z) = 0.52867 0.71019
#
# Static dielectric constant tensor:
#      x y z
#    x 1.625640 0.000000 0.000000 
#    y 0.000000 1.613700 0.000000 
#    z 0.000000 0.000000 1.644410 
# 
# From -- ./inp_files/73019.got.cif
#   From: 2010.05.17/outbox.cif.g08.bks.cpg/sg74_37_cif.got.tgz:73019.got - 2010.06.03 17:57:02.
