data_PCOD9535130
_publ_section_title
;
Structure prediction by ZEFSAII (Michael W. Deem and Ramdas Pophale) SiO2 
 PCOD9535130
Probable space group: I M M A
;
_chemical_formula_sum "Si O2"
_cell_formula_units_Z 116
_cell_length_a 25.336812
_cell_length_b 7.849325
_cell_length_c 24.035427
_cell_angle_alpha 90.000000
_cell_angle_beta 90.000000
_cell_angle_gamma 90.000000
_cell_volume 4780.090535
_symmetry_space_group_name_H-M "I M M A"
_symmetry_group_IT_number 74
_symmetry_cell_setting 'orthorhombic'
loop_
_space_group_symop_operation_xyz
x,y,z
-x,1/2-y,z
x,-y,-z
-x,1/2+y,-z
-x,-y,-z
x,1/2+y,-z
-x,y,z
x,1/2-y,z
1/2+x,1/2+y,1/2+z
1/2-x,-y,1/2+z
1/2+x,1/2-y,1/2-z
1/2-x,y,1/2-z
1/2-x,1/2-y,1/2-z
1/2+x,y,1/2-z
1/2-x,1/2+y,1/2+z
1/2+x,-y,1/2+z
loop_
_atom_site_type_symbol
_atom_site_label
_atom_site_fract_x
_atom_site_fract_y
_atom_site_fract_z
Si Si1 0.417142 0.442338 0.711177
Si Si2 0.942529 0.952464 0.934630
Si Si3 0.826715 0.550722 0.065451
Si Si4 0.000000 0.250000 0.181756
Si Si5 0.217018 0.045939 0.383201
Si Si6 0.561268 0.054038 0.167264
Si Si7 0.809889 0.544408 0.739284
Si Si8 0.381522 0.454157 0.059290
O O1 0.427021 0.250000 0.689194
O O2 0.452992 0.596700 0.686253
O O3 0.432237 0.450507 0.776625
O O4 0.354071 0.474933 0.718756
O O5 0.947547 0.750000 0.929071
O O6 0.000000 0.025354 0.916823
O O7 0.884501 0.995299 0.912271
O O8 0.938950 0.000000 0.000000
O O9 0.828899 0.750000 0.064697
O O10 0.777043 0.499953 0.103192
O O11 0.819887 0.500000 0.000000
O O12 0.217220 0.250000 0.380543
O O13 0.187362 0.993673 0.326018
O O14 0.178867 0.986814 0.432836
O O15 0.500000 0.069686 0.156040
O O16 0.581086 0.250000 0.178673
O O17 0.587039 0.981025 0.112225
O O18 0.812161 0.750000 0.743975
O O19 0.750000 0.490191 0.750000
O O20 0.382300 0.250000 0.063185
O O21 0.403717 0.500000 0.000000
#
# Coordination Sequence:
#
# PCOD9535130 Si02
#       8
#    16  16  16   4  16  16  16  16
#     4  12  22  36  64  96 126 166 207 259 315 370
#     4   9  16  27  45  70 100 134 173 221 272 328
#     4  11  21  32  49  76 110 148 191 237 284 339
#     4  12  22  40  62  94 138 160 208 258 312 378
#     4  10  20  36  57  79 112 151 195 239 297 361
#     4  10  18  35  56  77 113 157 202 256 307 356
#     4  10  21  41  67  94 125 160 196 251 319 375
#     4  10  21  34  51  74 110 157 201 247 302 350
#
# _framework density 24.267322
#
# number of rings (size 3 to 8) (size 9 to 14) (size 15 to 20)
#    0.000    1.655    3.448    3.103    0.000    4.138 
#    0.000    0.000    0.000    0.000    1.793    0.000 
#    0.000    0.000    0.000    0.000    0.000    0.000 
#
# Total GULP energy -323379.099012 kJ/mol
# GULP energy per Si atom -5575.501707 kJ/mol
# Density = 2.421209 g / cm^3
# Si number density = 24.267322 Si / 1000 Ang^3
#
#
#
# Elastic Constant Matrix: (Units=GPa)
#
#
# Indices 1 2 3 4 5 6 
#
# 1 147.4026 26.1918 19.5475 0.0000 0.0000 0.0000
# 2 26.1918 105.4543 7.5714 0.0000 0.0000 0.0000
# 3 19.5475 7.5714 68.0114 0.0000 0.0000 0.0000
# 4 0.0000 0.0000 0.0000 21.7121 0.0000 0.0000
# 5 0.0000 0.0000 0.0000 0.0000 59.4625 0.0000
# 6 0.0000 0.0000 0.0000 0.0000 0.0000 -12.3508
#
#
#
# Elastic Compliance Matrix: (Units=1/GPa)
#
#
# Indices 1 2 3 4 5 6 
#
# 1 0.007338 -0.001685 -0.001922 0.000000 0.000000 0.000000
# 2 -0.001685 0.009946 -0.000623 0.000000 0.000000 0.000000
# 3 -0.001922 -0.000623 0.015325 0.000000 0.000000 0.000000
# 4 0.000000 0.000000 0.000000 0.046057 0.000000 0.000000
# 5 0.000000 0.000000 0.000000 0.000000 0.016817 0.000000
# 6 0.000000 0.000000 0.000000 0.000000 0.000000 -0.080966
#
#
# Mechanical properties :
#
#
# Convention : Reuss Voigt Hill
#
# Bulk Modulus (GPa) = 41.40660 47.49885 44.45273
# Shear Modulus (GPa) = 161.15411 31.60194 96.37803
#
# Velocity S-wave (km/s) = 8.15794 3.61257 6.30883
# Velocity P-wave (km/s) = 10.28765 6.08413 8.45140
#
# Compressibility (1/GPa) = 0.02415074
#
# Stress axis : x y z
#
# Youngs Moduli (GPa) = 136.27108 100.54359 65.25254
#
# Poissons Ratio (x) = 0.16938 0.12539
# Poissons Ratio (y) = 0.22957 0.04065
# Poissons Ratio (z) = 0.26186 0.06264
#
# Static dielectric constant tensor:
#      x y z
#    x 2.131150 0.000000 0.000000 
#    y 0.000000 1.960420 0.000000 
#    z 0.000000 0.000000 2.034390 
# 
# From -- ./inp_files/73790.got.cif
#   From: 2010.05.17/outbox.cif.g08.bks.cpg/sg74_37_cif.got.tgz:73790.got - 2010.06.03 17:57:02.
