data_PCOD9535166
_publ_section_title
;
Structure prediction by ZEFSAII (Michael W. Deem and Ramdas Pophale) SiO2 
 PCOD9535166
Probable space group: I M M A
;
_chemical_formula_sum "Si O2"
_cell_formula_units_Z 92
_cell_length_a 19.004978
_cell_length_b 12.407120
_cell_length_c 20.021916
_cell_angle_alpha 90.000000
_cell_angle_beta 90.000000
_cell_angle_gamma 90.000000
_cell_volume 4721.108581
_symmetry_space_group_name_H-M "I M M A"
_symmetry_group_IT_number 74
_symmetry_cell_setting 'orthorhombic'
loop_
_space_group_symop_operation_xyz
x,y,z
-x,1/2-y,z
x,-y,-z
-x,1/2+y,-z
-x,-y,-z
x,1/2+y,-z
-x,y,z
x,1/2-y,z
1/2+x,1/2+y,1/2+z
1/2-x,-y,1/2+z
1/2+x,1/2-y,1/2-z
1/2-x,y,1/2-z
1/2-x,1/2-y,1/2-z
1/2+x,y,1/2-z
1/2-x,1/2+y,1/2+z
1/2+x,-y,1/2+z
loop_
_atom_site_type_symbol
_atom_site_label
_atom_site_fract_x
_atom_site_fract_y
_atom_site_fract_z
Si Si1 0.683359 0.549364 0.299078
Si Si2 0.136316 0.874548 0.625077
Si Si3 0.000000 0.995623 0.420666
Si Si4 0.845838 0.250000 0.564078
Si Si5 0.332790 0.250000 0.775239
Si Si6 0.917359 0.371506 0.224038
Si Si7 0.000000 0.250000 0.574860
Si Si8 0.254998 0.544061 0.067809
O O1 0.750000 0.521048 0.250000
O O2 0.641105 0.640052 0.257729
O O3 0.630893 0.453072 0.316124
O O4 0.710928 0.591196 0.370349
O O5 0.141820 0.750000 0.603182
O O6 0.121409 0.871959 0.704212
O O7 0.202185 0.946126 0.602354
O O8 0.068601 0.938872 0.599785
O O9 0.000000 0.871556 0.393519
O O10 0.000000 0.000000 0.500000
O O11 0.846276 0.250000 0.645980
O O12 0.925412 0.250000 0.538171
O O13 0.807331 0.139758 0.545315
O O14 0.250000 0.250000 0.750000
O O15 0.915027 0.250000 0.197580
O O16 0.000000 0.400881 0.231255
O O17 0.220062 0.500000 0.000000
#
# Coordination Sequence:
#
# PCOD9535166 Si02
#       8
#    16  16   8   8   8  16   4  16
#     4  11  20  39  62  87 117 153 202 247 300 354
#     4  11  22  36  55  80 114 153 192 235 289 343
#     4  12  25  36  49  72 114 163 200 231 273 335
#     4  12  22  42  56  84 124 157 201 247 295 355
#     4  10  18  36  64  82 110 158 186 249 309 336
#     4  10  21  38  61  87 119 154 191 240 298 355
#     4  12  28  34  56  84 112 160 208 234 274 366
#     4  12  25  38  59  85 118 156 197 252 300 346
#
# _framework density 19.486948999999999
#
# number of rings (size 3 to 8) (size 9 to 14) (size 15 to 20)
#    0.000    0.870    7.826    0.783    2.435    1.043 
#    0.000    0.000    0.000    0.522    0.000    0.000 
#    0.000    0.000    0.000    0.000    0.000    0.000 
#
# Total GULP energy -256537.879629 kJ/mol
# GULP energy per Si atom -5576.910427 kJ/mol
# Density = 1.944260 g / cm^3
# Si number density = 19.486949 Si / 1000 Ang^3
#
#
#
# Elastic Constant Matrix: (Units=GPa)
#
#
# Indices 1 2 3 4 5 6 
#
# 1 30.8834 18.3388 -0.6177 0.0000 0.0000 0.0000
# 2 18.3388 105.9209 -11.0495 0.0000 0.0000 0.0000
# 3 -0.6177 -11.0495 60.5747 0.0000 0.0000 0.0000
# 4 0.0000 0.0000 0.0000 26.3859 0.0000 0.0000
# 5 0.0000 0.0000 0.0000 0.0000 5.3513 0.0000
# 6 0.0000 0.0000 0.0000 0.0000 0.0000 27.8559
#
#
#
# Elastic Compliance Matrix: (Units=1/GPa)
#
#
# Indices 1 2 3 4 5 6 
#
# 1 0.036127 -0.006337 -0.000788 0.000000 0.000000 0.000000
# 2 -0.006337 0.010736 0.001894 0.000000 0.000000 0.000000
# 3 -0.000788 0.001894 0.016846 0.000000 0.000000 0.000000
# 4 0.000000 0.000000 0.000000 0.037899 0.000000 0.000000
# 5 0.000000 0.000000 0.000000 0.000000 0.186869 0.000000
# 6 0.000000 0.000000 0.000000 0.000000 0.000000 0.035899
#
#
# Mechanical properties :
#
#
# Convention : Reuss Voigt Hill
#
# Bulk Modulus (GPa) = 18.78044 23.41357 21.09701
# Shear Modulus (GPa) = 14.18092 24.63247 19.40670
#
# Velocity S-wave (km/s) = 2.70054 3.55920 3.15918
# Velocity P-wave (km/s) = 4.40253 5.37882 4.91497
#
# Compressibility (1/GPa) = 0.05324689
#
# Stress axis : x y z
#
# Youngs Moduli (GPa) = 27.68002 93.14681 59.36149
#
# Poissons Ratio (x) = 0.59028 0.04675
# Poissons Ratio (y) = 0.17541 -0.11241
# Poissons Ratio (z) = 0.02180 -0.17639
#
# Static dielectric constant tensor:
#      x y z
#    x 1.683580 0.000000 0.000000 
#    y 0.000000 1.755450 0.000000 
#    z 0.000000 0.000000 1.703880 
# 
# From -- ./inp_files/45178.got.cif
#   From: 2010.05.17/outbox.cif.g08.bks.cpg/sg74_23_cif.got.tgz:45178.got - 2010.06.03 17:57:02.
