data_PCOD9535210
_publ_section_title
;
Structure prediction by ZEFSAII (Michael W. Deem and Ramdas Pophale) SiO2 
 PCOD9535210
Probable space group: I M M A
;
_chemical_formula_sum "Si O2"
_cell_formula_units_Z 72
_cell_length_a 9.149127
_cell_length_b 23.234859
_cell_length_c 23.543542
_cell_angle_alpha 90.000000
_cell_angle_beta 90.000000
_cell_angle_gamma 90.000000
_cell_volume 5004.854982
_symmetry_space_group_name_H-M "I M M A"
_symmetry_group_IT_number 74
_symmetry_cell_setting 'orthorhombic'
loop_
_space_group_symop_operation_xyz
x,y,z
-x,1/2-y,z
x,-y,-z
-x,1/2+y,-z
-x,-y,-z
x,1/2+y,-z
-x,y,z
x,1/2-y,z
1/2+x,1/2+y,1/2+z
1/2-x,-y,1/2+z
1/2+x,1/2-y,1/2-z
1/2-x,y,1/2-z
1/2-x,1/2-y,1/2-z
1/2+x,y,1/2-z
1/2-x,1/2+y,1/2+z
1/2+x,-y,1/2+z
loop_
_atom_site_type_symbol
_atom_site_label
_atom_site_fract_x
_atom_site_fract_y
_atom_site_fract_z
Si Si1 0.327774 0.520855 0.310426
Si Si2 0.170382 0.091275 0.524782
Si Si3 0.324691 0.750000 0.188292
Si Si4 0.669694 0.967037 0.912256
Si Si5 0.672732 0.143727 0.627207
O O1 0.500000 0.512618 0.303912
O O2 0.250000 0.516859 0.250000
O O3 0.263568 0.475841 0.356036
O O4 0.304745 0.584774 0.336960
O O5 0.216617 0.079292 0.459805
O O6 0.270607 0.131371 0.563482
O O7 0.000000 0.109740 0.525422
O O8 0.174284 0.028796 0.555554
O O9 0.500000 0.750000 0.192973
O O10 0.250000 0.750000 0.250000
O O11 0.266601 0.694014 0.155274
O O12 0.500000 0.956168 0.898083
O O13 0.500000 0.157089 0.628111
#
# Coordination Sequence:
#
# PCOD9535210 Si02
#       5
#    16  16   8  16  16
#     4  10  19  28  40  58  81 109 139 170 205 245
#     4   8  14  26  43  61  79 102 131 164 203 244
#     4  12  24  36  48  60  78 106 141 180 217 252
#     4   8  14  25  41  59  80 104 131 163 199 241
#     4  10  20  32  45  61  80 105 138 176 213 248
#
# _framework density 14.386030999999999
#
# number of rings (size 3 to 8) (size 9 to 14) (size 15 to 20)
#    0.000    2.667    0.000    4.333    0.000    5.333 
#    0.000    4.444    0.000    0.000    0.000    0.000 
#    0.000    0.000    0.000    1.000    0.000   13.333 
#
# Total GULP energy -200533.634644 kJ/mol
# GULP energy per Si atom -5570.378740 kJ/mol
# Density = 1.435329 g / cm^3
# Si number density = 14.386031 Si / 1000 Ang^3
#
#
#
# Elastic Constant Matrix: (Units=GPa)
#
#
# Indices 1 2 3 4 5 6 
#
# 1 100.5779 41.8616 86.7300 0.0000 0.0000 0.0000
# 2 41.8616 36.2138 43.2931 0.0000 0.0000 0.0000
# 3 86.7300 43.2931 129.0593 0.0000 0.0000 0.0000
# 4 0.0000 0.0000 0.0000 18.7542 0.0000 0.0000
# 5 0.0000 0.0000 0.0000 0.0000 29.0694 0.0000
# 6 0.0000 0.0000 0.0000 0.0000 0.0000 15.3944
#
#
#
# Elastic Compliance Matrix: (Units=1/GPa)
#
#
# Indices 1 2 3 4 5 6 
#
# 1 0.028753 -0.016925 -0.013645 0.000000 0.000000 0.000000
# 2 -0.016925 0.056064 -0.007433 0.000000 0.000000 0.000000
# 3 -0.013645 -0.007433 0.019412 0.000000 0.000000 0.000000
# 4 0.000000 0.000000 0.000000 0.053321 0.000000 0.000000
# 5 0.000000 0.000000 0.000000 0.000000 0.034400 0.000000
# 6 0.000000 0.000000 0.000000 0.000000 0.000000 0.064959
#
#
# Mechanical properties :
#
#
# Convention : Reuss Voigt Hill
#
# Bulk Modulus (GPa) = 35.43217 67.73558 51.58387
# Shear Modulus (GPa) = 14.60604 18.90802 16.75703
#
# Velocity S-wave (km/s) = 3.18982 3.62930 3.41664
# Velocity P-wave (km/s) = 6.18463 8.04667 7.17630
#
# Compressibility (1/GPa) = 0.02822294
#
# Stress axis : x y z
#
# Youngs Moduli (GPa) = 34.77847 17.83664 51.51552
#
# Poissons Ratio (x) = 0.30188 0.70294
# Poissons Ratio (y) = 0.58862 0.38291
# Poissons Ratio (z) = 0.47456 0.13258
#
# Static dielectric constant tensor:
#      x y z
#    x 1.477050 0.000000 0.000000 
#    y 0.000000 1.459160 0.000000 
#    z 0.000000 0.000000 1.482400 
# 
# From -- ./inp_files/48508.got.cif
#   From: 2010.05.17/outbox.cif.g08.bks.cpg/sg74_25_cif.got.tgz:48508.got - 2010.06.03 17:57:02.
