data_PCOD9535898
_publ_section_title
;
Structure prediction by ZEFSAII (Michael W. Deem and Ramdas Pophale) SiO2 
 PCOD9535898
Probable space group: I M M A
;
_chemical_formula_sum "Si O2"
_cell_formula_units_Z 80
_cell_length_a 19.473797
_cell_length_b 12.767620
_cell_length_c 19.633168
_cell_angle_alpha 90.000000
_cell_angle_beta 90.000000
_cell_angle_gamma 90.000000
_cell_volume 4881.473879
_symmetry_space_group_name_H-M "I M M A"
_symmetry_group_IT_number 74
_symmetry_cell_setting 'orthorhombic'
loop_
_space_group_symop_operation_xyz
x,y,z
-x,1/2-y,z
x,-y,-z
-x,1/2+y,-z
-x,-y,-z
x,1/2+y,-z
-x,y,z
x,1/2-y,z
1/2+x,1/2+y,1/2+z
1/2-x,-y,1/2+z
1/2+x,1/2-y,1/2-z
1/2-x,y,1/2-z
1/2-x,1/2-y,1/2-z
1/2+x,y,1/2-z
1/2-x,1/2+y,1/2+z
1/2+x,-y,1/2+z
loop_
_atom_site_type_symbol
_atom_site_label
_atom_site_fract_x
_atom_site_fract_y
_atom_site_fract_z
Si Si1 0.219177 0.871303 0.173964
Si Si2 0.267555 0.750000 0.635226
Si Si3 0.578436 0.058057 0.161301
Si Si4 0.577646 0.372010 0.735084
Si Si5 0.712681 0.458797 0.076498
Si Si6 0.138000 0.750000 0.739308
O O1 0.228403 0.750000 0.153465
O O2 0.250000 0.882866 0.250000
O O3 0.138227 0.894790 0.182128
O O4 0.256311 0.951460 0.124867
O O5 0.256703 0.853821 0.590485
O O6 0.204874 0.750000 0.690002
O O7 0.334818 0.750000 0.683330
O O8 0.500000 0.070983 0.137867
O O9 0.635183 0.064099 0.102423
O O10 0.596268 0.147263 0.217007
O O11 0.585121 0.947580 0.200322
O O12 0.500000 0.385722 0.708623
O O13 0.586190 0.250000 0.754951
O O14 0.713741 0.500000 0.000000
#
# Coordination Sequence:
#
# PCOD9535898 Si02
#       6
#    16   8  16  16  16   8
#     4  10  19  33  56  80 103 137 182 230 267 311
#     4   9  20  34  52  76  99 136 181 233 277 317
#     4  10  19  32  51  77 108 142 179 216 264 321
#     4   9  17  30  51  81 106 129 167 221 273 311
#     4  11  23  35  52  75 113 148 184 220 269 330
#     4   9  17  32  56  76  99 131 179 233 274 313
#
# _framework density 16.388493
#
# number of rings (size 3 to 8) (size 9 to 14) (size 15 to 20)
#    0.000    2.200    2.000    1.500    4.200    0.400 
#    0.000    0.000    0.000    0.600    0.000    0.000 
#    0.000    0.000    0.000    0.000    0.000    0.000 
#
# Total GULP energy -222992.517014 kJ/mol
# GULP energy per Si atom -5574.812925 kJ/mol
# Density = 1.635119 g / cm^3
# Si number density = 16.388493 Si / 1000 Ang^3
#
#
#
# Elastic Constant Matrix: (Units=GPa)
#
#
# Indices 1 2 3 4 5 6 
#
# 1 77.9931 37.0327 37.7852 0.0000 0.0000 0.0000
# 2 37.0327 87.6365 57.5858 0.0000 0.0000 0.0000
# 3 37.7852 57.5858 84.8412 0.0000 0.0000 0.0000
# 4 0.0000 0.0000 0.0000 20.0694 0.0000 0.0000
# 5 0.0000 0.0000 0.0000 0.0000 14.9563 0.0000
# 6 0.0000 0.0000 0.0000 0.0000 0.0000 22.2544
#
#
#
# Elastic Compliance Matrix: (Units=1/GPa)
#
#
# Indices 1 2 3 4 5 6 
#
# 1 0.017096 -0.004009 -0.004892 0.000000 0.000000 0.000000
# 2 -0.004009 0.021537 -0.012833 0.000000 0.000000 0.000000
# 3 -0.004892 -0.012833 0.022676 0.000000 0.000000 0.000000
# 4 0.000000 0.000000 0.000000 0.049827 0.000000 0.000000
# 5 0.000000 0.000000 0.000000 0.000000 0.066861 0.000000
# 6 0.000000 0.000000 0.000000 0.000000 0.000000 0.044935
#
#
# Mechanical properties :
#
#
# Convention : Reuss Voigt Hill
#
# Bulk Modulus (GPa) = 56.05480 57.25314 56.65397
# Shear Modulus (GPa) = 18.35884 19.32717 18.84300
#
# Velocity S-wave (km/s) = 3.35061 3.43784 3.39450
# Velocity P-wave (km/s) = 7.01761 7.12525 7.07163
#
# Compressibility (1/GPa) = 0.01783969
#
# Stress axis : x y z
#
# Youngs Moduli (GPa) = 58.49459 46.43064 44.09946
#
# Poissons Ratio (x) = 0.18615 0.21576
# Poissons Ratio (y) = 0.23452 0.56593
# Poissons Ratio (z) = 0.28618 0.59584
#
# Static dielectric constant tensor:
#      x y z
#    x 1.584570 0.000000 0.000000 
#    y 0.000000 1.567040 0.000000 
#    z 0.000000 0.000000 1.502850 
# 
# From -- ./inp_files/41212.got.cif
#   From: 2010.05.17/outbox.cif.g08.bks.cpg/sg74_21_cif.got.tgz:41212.got - 2010.06.03 17:57:02.
