data_PCOD9535204
_publ_section_title
;
Structure prediction by ZEFSAII (Michael W. Deem and Ramdas Pophale) SiO2 
 PCOD9535204
Probable space group: I M M A
;
_chemical_formula_sum "Si O2"
_cell_formula_units_Z 96
_cell_length_a 28.641193
_cell_length_b 9.013303
_cell_length_c 29.662701
_cell_angle_alpha 90.000000
_cell_angle_beta 90.000000
_cell_angle_gamma 90.000000
_cell_volume 7657.478196
_symmetry_space_group_name_H-M "I M M A"
_symmetry_group_IT_number 74
_symmetry_cell_setting 'orthorhombic'
loop_
_space_group_symop_operation_xyz
x,y,z
-x,1/2-y,z
x,-y,-z
-x,1/2+y,-z
-x,-y,-z
x,1/2+y,-z
-x,y,z
x,1/2-y,z
1/2+x,1/2+y,1/2+z
1/2-x,-y,1/2+z
1/2+x,1/2-y,1/2-z
1/2-x,y,1/2-z
1/2-x,1/2-y,1/2-z
1/2+x,y,1/2-z
1/2-x,1/2+y,1/2+z
1/2+x,-y,1/2+z
loop_
_atom_site_type_symbol
_atom_site_label
_atom_site_fract_x
_atom_site_fract_y
_atom_site_fract_z
Si Si1 0.824043 0.576692 0.730767
Si Si2 0.655900 0.574168 0.372098
Si Si3 0.595830 0.425656 0.718911
Si Si4 0.099029 0.071420 0.048404
Si Si5 0.736847 0.923487 0.677050
Si Si6 0.000000 0.071880 0.195129
Si Si7 0.000000 0.929651 0.909699
O O1 0.835613 0.750000 0.723721
O O2 0.869851 0.483482 0.741898
O O3 0.789022 0.527466 0.690948
O O4 0.792998 0.569815 0.776491
O O5 0.655672 0.750000 0.380278
O O6 0.622404 0.544614 0.328748
O O7 0.635106 0.486700 0.414292
O O8 0.707341 0.518267 0.358206
O O9 0.588959 0.250000 0.722444
O O10 0.546805 0.509357 0.717451
O O11 0.100224 0.250000 0.045964
O O12 0.047245 0.023695 0.065297
O O13 0.108209 0.000000 0.000000
O O14 0.738365 0.750000 0.663829
O O15 0.000000 0.022329 0.142453
O O16 0.000000 0.250000 0.196128
O O17 0.000000 0.750000 0.909252
#
# Coordination Sequence:
#
# PCOD9535204 Si02
#       7
#    16  16  16  16  16   8   8
#     4   8  14  25  40  57  75  97 121 144 177 221
#     4  10  19  29  41  58  76  96 119 149 191 234
#     4  10  19  28  39  57  78  97 121 155 192 225
#     4  11  21  34  46  58  73  92 122 159 201 243
#     4   8  14  25  41  58  75  95 119 146 177 219
#     4  11  19  30  44  56  71  98 132 160 192 236
#     4   9  19  32  46  58  67  89 123 159 199 242
#
# _framework density 12.536764
#
# number of rings (size 3 to 8) (size 9 to 14) (size 15 to 20)
#    0.000    2.500    1.667    3.000    0.000    2.000 
#    0.000    4.583    0.000    0.000    0.000    0.000 
#    0.000    0.000    0.000    0.000    0.000    0.000 
#
# Total GULP energy -267421.355922 kJ/mol
# GULP energy per Si atom -5571.278248 kJ/mol
# Density = 1.250823 g / cm^3
# Si number density = 12.536764 Si / 1000 Ang^3
#
#
#
# Elastic Constant Matrix: (Units=GPa)
#
#
# Indices 1 2 3 4 5 6 
#
# 1 88.5159 52.6372 47.1291 0.0000 0.0000 0.0000
# 2 52.6372 53.0108 31.2040 0.0000 0.0000 0.0000
# 3 47.1291 31.2040 45.8082 0.0000 0.0000 0.0000
# 4 0.0000 0.0000 0.0000 15.5926 0.0000 0.0000
# 5 0.0000 0.0000 0.0000 0.0000 10.0814 0.0000
# 6 0.0000 0.0000 0.0000 0.0000 0.0000 18.2245
#
#
#
# Elastic Compliance Matrix: (Units=1/GPa)
#
#
# Indices 1 2 3 4 5 6 
#
# 1 0.037382 -0.024172 -0.021994 0.000000 0.000000 0.000000
# 2 -0.024172 0.047121 -0.007229 0.000000 0.000000 0.000000
# 3 -0.021994 -0.007229 0.049383 0.000000 0.000000 0.000000
# 4 0.000000 0.000000 0.000000 0.064133 0.000000 0.000000
# 5 0.000000 0.000000 0.000000 0.000000 0.099193 0.000000
# 6 0.000000 0.000000 0.000000 0.000000 0.000000 0.054871
#
#
# Mechanical properties :
#
#
# Convention : Reuss Voigt Hill
#
# Bulk Modulus (GPa) = 36.90701 49.91949 43.41325
# Shear Modulus (GPa) = 10.68587 12.53734 11.61160
#
# Velocity S-wave (km/s) = 2.92269 3.16578 3.04666
# Velocity P-wave (km/s) = 6.39472 7.29848 6.86150
#
# Compressibility (1/GPa) = 0.02709513
#
# Stress axis : x y z
#
# Youngs Moduli (GPa) = 26.75054 21.22176 20.24977
#
# Poissons Ratio (x) = 0.51298 0.44538
# Poissons Ratio (y) = 0.64662 0.14639
# Poissons Ratio (z) = 0.58836 0.15342
#
# Static dielectric constant tensor:
#      x y z
#    x 1.411350 0.000000 0.000000 
#    y 0.000000 1.412430 0.000000 
#    z 0.000000 0.000000 1.386170 
# 
# From -- ./inp_files/62297.got.cif
#   From: 2010.05.17/outbox.cif.g08.bks.cpg/sg74_32_cif.got.tgz:62297.got - 2010.06.03 17:57:02.
