data_PCOD9535650
_publ_section_title
;
Structure prediction by ZEFSAII (Michael W. Deem and Ramdas Pophale) SiO2 
 PCOD9535650
Probable space group: I M M A
;
_chemical_formula_sum "Si O2"
_cell_formula_units_Z 104
_cell_length_a 7.565115
_cell_length_b 27.280931
_cell_length_c 23.915758
_cell_angle_alpha 90.000000
_cell_angle_beta 90.000000
_cell_angle_gamma 90.000000
_cell_volume 4935.814979
_symmetry_space_group_name_H-M "I M M A"
_symmetry_group_IT_number 74
_symmetry_cell_setting 'orthorhombic'
loop_
_space_group_symop_operation_xyz
x,y,z
-x,1/2-y,z
x,-y,-z
-x,1/2+y,-z
-x,-y,-z
x,1/2+y,-z
-x,y,z
x,1/2-y,z
1/2+x,1/2+y,1/2+z
1/2-x,-y,1/2+z
1/2+x,1/2-y,1/2-z
1/2-x,y,1/2-z
1/2-x,1/2-y,1/2-z
1/2+x,y,1/2-z
1/2-x,1/2+y,1/2+z
1/2+x,-y,1/2+z
loop_
_atom_site_type_symbol
_atom_site_label
_atom_site_fract_x
_atom_site_fract_y
_atom_site_fract_z
Si Si1 0.712896 0.038040 0.186580
Si Si2 0.717185 0.306278 0.011427
Si Si3 0.705674 0.158610 0.890305
Si Si4 0.709668 0.304199 0.315272
Si Si5 0.709277 0.250000 0.684735
Si Si6 0.712435 0.425910 0.812760
Si Si7 0.697664 0.383843 0.101726
O O1 0.500000 0.038350 0.181732
O O2 0.750000 0.056643 0.250000
O O3 0.781528 0.069900 0.134124
O O4 0.777781 0.981899 0.183779
O O5 0.500000 0.305566 0.013946
O O6 0.772972 0.250000 0.023975
O O7 0.777962 0.349664 0.053106
O O8 0.776101 0.321368 0.949083
O O9 0.500000 0.147707 0.901673
O O10 0.716134 0.202169 0.845612
O O11 0.782676 0.110538 0.860254
O O12 0.500000 0.310581 0.323616
O O13 0.760317 0.250000 0.335488
O O14 0.750000 0.306427 0.250000
O O15 0.811577 0.345321 0.347777
O O16 0.500000 0.250000 0.676572
O O17 0.750000 0.250000 0.750000
O O18 0.500000 0.427687 0.817949
O O19 0.750000 0.407277 0.750000
O O20 0.500000 0.398221 0.082535
#
# Coordination Sequence:
#
# PCOD9535650 Si02
#       7
#    16  16  16  16   8  16  16
#     4   9  18  32  49  74 104 132 169 215 263 309
#     4   9  17  31  52  74  99 136 177 212 253 305
#     4  10  19  35  56  77 104 139 176 211 253 308
#     4  10  20  32  46  67  96 127 162 212 267 316
#     4  12  24  36  54  82 112 138 167 210 261 310
#     4   9  18  32  52  76 103 134 167 209 259 309
#     4  10  19  31  50  73  98 133 175 213 252 307
#
# _framework density 21.070481999999998
#
# number of rings (size 3 to 8) (size 9 to 14) (size 15 to 20)
#    0.000    2.308    0.769    2.538    0.000    5.231 
#    0.000    1.538    0.000    4.615    0.000    0.000 
#    0.000    7.385    0.000    0.000    0.000    0.000 
#
# Total GULP energy -290038.838446 kJ/mol
# GULP energy per Si atom -5577.669970 kJ/mol
# Density = 2.102252 g / cm^3
# Si number density = 21.070482 Si / 1000 Ang^3
#
#
#
# Elastic Constant Matrix: (Units=GPa)
#
#
# Indices 1 2 3 4 5 6 
#
# 1 53.7869 -2.2221 -11.6273 0.0000 0.0000 0.0000
# 2 -2.2221 105.0412 71.2235 0.0000 0.0000 0.0000
# 3 -11.6273 71.2235 138.5535 0.0000 0.0000 0.0000
# 4 0.0000 0.0000 0.0000 13.8273 0.0000 0.0000
# 5 0.0000 0.0000 0.0000 0.0000 12.9480 0.0000
# 6 0.0000 0.0000 0.0000 0.0000 0.0000 1.3349
#
#
#
# Elastic Compliance Matrix: (Units=1/GPa)
#
#
# Indices 1 2 3 4 5 6 
#
# 1 0.019010 -0.001043 0.002131 0.000000 0.000000 0.000000
# 2 -0.001043 0.014671 -0.007629 0.000000 0.000000 0.000000
# 3 0.002131 -0.007629 0.011318 0.000000 0.000000 0.000000
# 4 0.000000 0.000000 0.000000 0.072321 0.000000 0.000000
# 5 0.000000 0.000000 0.000000 0.000000 0.077232 0.000000
# 6 0.000000 0.000000 0.000000 0.000000 0.000000 0.749146
#
#
# Mechanical properties :
#
#
# Convention : Reuss Voigt Hill
#
# Bulk Modulus (GPa) = 31.33122 45.79219 38.56170
# Shear Modulus (GPa) = 5.16840 21.62253 13.39546
#
# Velocity S-wave (km/s) = 1.56788 3.20691 2.52413
# Velocity P-wave (km/s) = 4.26376 5.95755 5.18035
#
# Compressibility (1/GPa) = 0.03191704
#
# Stress axis : x y z
#
# Youngs Moduli (GPa) = 52.60505 68.16171 88.35422
#
# Poissons Ratio (x) = 0.07110 -0.18833
# Poissons Ratio (y) = 0.05487 0.67407
# Poissons Ratio (z) = -0.11213 0.52002
#
# Static dielectric constant tensor:
#      x y z
#    x 1.862630 0.000000 0.000000 
#    y 0.000000 1.774460 0.000000 
#    z 0.000000 0.000000 1.750260 
# 
# From -- ./inp_files/57589.got.cif
#   From: 2010.05.17/outbox.cif.g08.bks.cpg/sg74_29_cif.got.tgz:57589.got - 2010.06.03 17:57:02.
