data_PCOD9535995
_publ_section_title
;
Structure prediction by ZEFSAII (Michael W. Deem and Ramdas Pophale) SiO2 
 PCOD9535995
Probable space group: I M M A
;
_chemical_formula_sum "Si O2"
_cell_formula_units_Z 72
_cell_length_a 19.742279
_cell_length_b 8.255406
_cell_length_c 23.799819
_cell_angle_alpha 90.000000
_cell_angle_beta 90.000000
_cell_angle_gamma 90.000000
_cell_volume 3878.907079
_symmetry_space_group_name_H-M "I M M A"
_symmetry_group_IT_number 74
_symmetry_cell_setting 'orthorhombic'
loop_
_space_group_symop_operation_xyz
x,y,z
-x,1/2-y,z
x,-y,-z
-x,1/2+y,-z
-x,-y,-z
x,1/2+y,-z
-x,y,z
x,1/2-y,z
1/2+x,1/2+y,1/2+z
1/2-x,-y,1/2+z
1/2+x,1/2-y,1/2-z
1/2-x,y,1/2-z
1/2-x,1/2-y,1/2-z
1/2+x,y,1/2-z
1/2-x,1/2+y,1/2+z
1/2+x,-y,1/2+z
loop_
_atom_site_type_symbol
_atom_site_label
_atom_site_fract_x
_atom_site_fract_y
_atom_site_fract_z
Si Si1 0.271575 0.943311 0.062932
Si Si2 0.117550 0.557709 0.938635
Si Si3 0.000000 0.943973 0.142539
Si Si4 0.500000 0.551341 0.228219
Si Si5 0.500000 0.444979 0.063084
Si Si6 0.884984 0.441425 0.643589
O O1 0.278509 0.750000 0.062571
O O2 0.315015 0.006591 0.116523
O O3 0.192942 0.988340 0.069438
O O4 0.293193 0.000000 0.000000
O O5 0.122143 0.750000 0.939574
O O6 0.065780 0.502893 0.891035
O O7 0.093067 0.500000 0.000000
O O8 0.000000 0.750000 0.142656
O O9 0.000000 0.998977 0.207214
O O10 0.500000 0.750000 0.225191
O O11 0.568943 0.496279 0.195885
O O12 0.500000 0.250000 0.069574
O O13 0.564170 0.525366 0.092614
O O14 0.500000 0.500000 0.000000
O O15 0.875269 0.250000 0.654259
#
# Coordination Sequence:
#
# PCOD9535995 Si02
#       6
#    16  16   8   8   8  16
#     4  10  19  32  53  80 110 141 174 214 263 316
#     4  11  22  37  57  82 111 137 168 211 264 322
#     4  11  21  37  60  81 104 136 177 219 263 313
#     4   8  17  35  57  78 102 139 184 225 258 299
#     4  11  20  28  43  69 100 137 179 220 264 312
#     4   9  18  34  53  74 103 138 178 221 260 303
#
# _framework density 18.56193
#
# number of rings (size 3 to 8) (size 9 to 14) (size 15 to 20)
#    0.000    2.000    0.000    7.000    0.000    3.556 
#    0.000    5.556    0.000    6.667    0.000    0.000 
#    0.000    0.000    0.000    0.000    0.000    0.000 
#
# Total GULP energy -200619.582749 kJ/mol
# GULP energy per Si atom -5572.766187 kJ/mol
# Density = 1.851968 g / cm^3
# Si number density = 18.561930 Si / 1000 Ang^3
#
#
#
# Elastic Constant Matrix: (Units=GPa)
#
#
# Indices 1 2 3 4 5 6 
#
# 1 97.1254 2.8540 74.7637 0.0000 0.0000 0.0000
# 2 2.8540 28.1208 4.2342 0.0000 0.0000 0.0000
# 3 74.7637 4.2342 159.7020 0.0000 0.0000 0.0000
# 4 0.0000 0.0000 0.0000 21.3388 0.0000 0.0000
# 5 0.0000 0.0000 0.0000 0.0000 -4.4412 0.0000
# 6 0.0000 0.0000 0.0000 0.0000 0.0000 59.3603
#
#
#
# Elastic Compliance Matrix: (Units=1/GPa)
#
#
# Indices 1 2 3 4 5 6 
#
# 1 0.016104 -0.000501 -0.007526 0.000000 0.000000 0.000000
# 2 -0.000501 0.035719 -0.000712 0.000000 0.000000 0.000000
# 3 -0.007526 -0.000712 0.009804 0.000000 0.000000 0.000000
# 4 0.000000 0.000000 0.000000 0.046863 0.000000 0.000000
# 5 0.000000 0.000000 0.000000 0.000000 -0.225163 0.000000
# 6 0.000000 0.000000 0.000000 0.000000 0.000000 0.016846
#
#
# Mechanical properties :
#
#
# Convention : Reuss Voigt Hill
#
# Bulk Modulus (GPa) = 22.65112 49.85021 36.25067
# Shear Modulus (GPa) = -73.92823 28.79132 -22.56845
#
# Velocity S-wave (km/s) = -6.31778 3.94267 -3.49068
# Velocity P-wave (km/s) = 6.40231 6.90222 1.82359
#
# Compressibility (1/GPa) = 0.04414793
#
# Stress axis : x y z
#
# Youngs Moduli (GPa) = 62.09802 27.99628 102.00358
#
# Poissons Ratio (x) = 0.01403 0.76763
# Poissons Ratio (y) = 0.03113 0.07266
# Poissons Ratio (z) = 0.46732 0.01994
#
# Static dielectric constant tensor:
#      x y z
#    x 1.645710 0.000000 0.000000 
#    y 0.000000 1.659820 0.000000 
#    z 0.000000 0.000000 1.614190 
# 
# From -- ./inp_files/53685.got.cif
#   From: 2010.05.17/outbox.cif.g08.bks.cpg/sg74_27_cif.got.tgz:53685.got - 2010.06.03 17:57:02.
