data_PCOD9535369
_publ_section_title
;
Structure prediction by ZEFSAII (Michael W. Deem and Ramdas Pophale) SiO2 
 PCOD9535369
Probable space group: I M M A
;
_chemical_formula_sum "Si O2"
_cell_formula_units_Z 80
_cell_length_a 19.680737
_cell_length_b 8.502245
_cell_length_c 23.658017
_cell_angle_alpha 90.000000
_cell_angle_beta 90.000000
_cell_angle_gamma 90.000000
_cell_volume 3958.706578
_symmetry_space_group_name_H-M "I M M A"
_symmetry_group_IT_number 74
_symmetry_cell_setting 'orthorhombic'
loop_
_space_group_symop_operation_xyz
x,y,z
-x,1/2-y,z
x,-y,-z
-x,1/2+y,-z
-x,-y,-z
x,1/2+y,-z
-x,y,z
x,1/2-y,z
1/2+x,1/2+y,1/2+z
1/2-x,-y,1/2+z
1/2+x,1/2-y,1/2-z
1/2-x,y,1/2-z
1/2-x,1/2-y,1/2-z
1/2+x,y,1/2-z
1/2-x,1/2+y,1/2+z
1/2+x,-y,1/2+z
loop_
_atom_site_type_symbol
_atom_site_label
_atom_site_fract_x
_atom_site_fract_y
_atom_site_fract_z
Si Si1 0.705976 0.564145 0.872816
Si Si2 0.850890 0.564391 0.262798
Si Si3 0.500000 0.065552 0.374864
Si Si4 0.000000 0.065366 0.750581
Si Si5 0.353214 0.058707 0.365514
Si Si6 0.574497 0.062003 0.936083
O O1 0.702868 0.750000 0.880541
O O2 0.696878 0.523433 0.806595
O O3 0.781130 0.509757 0.892184
O O4 0.641503 0.490599 0.903444
O O5 0.835838 0.750000 0.264032
O O6 0.850028 0.503294 0.198847
O O7 0.929683 0.541252 0.281608
O O8 0.500000 0.250000 0.388677
O O9 0.425248 0.002576 0.391929
O O10 0.500000 0.040669 0.306774
O O11 0.000000 0.250000 0.769168
O O12 0.354976 0.250000 0.363956
O O13 0.500000 0.007842 0.913991
O O14 0.573812 0.250000 0.936065
O O15 0.579403 0.000000 0.000000
#
# Coordination Sequence:
#
# PCOD9535369 Si02
#       6
#    16  16   8   8  16  16
#     4  11  22  33  49  75 104 133 169 211 259 311
#     4  10  19  30  45  67  99 138 177 218 259 300
#     4   8  14  28  48  64  87 128 171 204 241 286
#     4   8  16  28  40  58  87 124 167 210 248 288
#     4   9  18  32  48  70 101 137 176 216 254 301
#     4  10  22  41  62  81 103 131 167 212 261 312
#
# _framework density 20.208621999999998
#
# number of rings (size 3 to 8) (size 9 to 14) (size 15 to 20)
#    0.000    2.400    0.000    2.400    1.400    6.000 
#    0.000    0.000    0.000    0.000    0.000    0.700 
#    0.000    0.000    0.000    0.000    0.000    0.000 
#
# Total GULP energy -222941.289938 kJ/mol
# GULP energy per Si atom -5573.532248 kJ/mol
# Density = 2.016263 g / cm^3
# Si number density = 20.208622 Si / 1000 Ang^3
#
#
#
# Elastic Constant Matrix: (Units=GPa)
#
#
# Indices 1 2 3 4 5 6 
#
# 1 224.5118 34.0907 30.2308 0.0000 0.0000 0.0000
# 2 34.0907 26.0003 2.6566 0.0000 0.0000 0.0000
# 3 30.2308 2.6566 17.6475 0.0000 0.0000 0.0000
# 4 0.0000 0.0000 0.0000 19.8239 0.0000 0.0000
# 5 0.0000 0.0000 0.0000 0.0000 23.3166 0.0000
# 6 0.0000 0.0000 0.0000 0.0000 0.0000 14.6905
#
#
#
# Elastic Compliance Matrix: (Units=1/GPa)
#
#
# Indices 1 2 3 4 5 6 
#
# 1 0.007213 -0.008323 -0.011103 0.000000 0.000000 0.000000
# 2 -0.008323 0.048666 0.006932 0.000000 0.000000 0.000000
# 3 -0.011103 0.006932 0.074642 0.000000 0.000000 0.000000
# 4 0.000000 0.000000 0.000000 0.050444 0.000000 0.000000
# 5 0.000000 0.000000 0.000000 0.000000 0.042888 0.000000
# 6 0.000000 0.000000 0.000000 0.000000 0.000000 0.068071
#
#
# Mechanical properties :
#
#
# Convention : Reuss Voigt Hill
#
# Bulk Modulus (GPa) = 9.47585 44.67954 27.07770
# Shear Modulus (GPa) = 14.20093 24.97830 19.58961
#
# Velocity S-wave (km/s) = 2.65376 3.51952 3.11685
# Velocity P-wave (km/s) = 3.75354 6.21878 5.13626
#
# Compressibility (1/GPa) = 0.10553141
#
# Stress axis : x y z
#
# Youngs Moduli (GPa) = 138.63966 20.54840 13.39732
#
# Poissons Ratio (x) = 0.17102 0.14875
# Poissons Ratio (y) = 1.15389 -0.09286
# Poissons Ratio (z) = 1.53934 -0.14243
#
# Static dielectric constant tensor:
#      x y z
#    x 1.844980 0.000000 0.000000 
#    y 0.000000 1.692750 0.000000 
#    z 0.000000 0.000000 1.650470 
# 
# From -- ./inp_files/61368.got.cif
#   From: 2010.05.17/outbox.cif.g08.bks.cpg/sg74_31_cif.got.tgz:61368.got - 2010.06.03 17:57:02.
