data_PCOD9535903
_publ_section_title
;
Structure prediction by ZEFSAII (Michael W. Deem and Ramdas Pophale) SiO2 
 PCOD9535903
Probable space group: I M M A
;
_chemical_formula_sum "Si O2"
_cell_formula_units_Z 96
_cell_length_a 14.124520
_cell_length_b 28.510392
_cell_length_c 10.940153
_cell_angle_alpha 90.000000
_cell_angle_beta 90.000000
_cell_angle_gamma 90.000000
_cell_volume 4405.551498
_symmetry_space_group_name_H-M "I M M A"
_symmetry_group_IT_number 74
_symmetry_cell_setting 'orthorhombic'
loop_
_space_group_symop_operation_xyz
x,y,z
-x,1/2-y,z
x,-y,-z
-x,1/2+y,-z
-x,-y,-z
x,1/2+y,-z
-x,y,z
x,1/2-y,z
1/2+x,1/2+y,1/2+z
1/2-x,-y,1/2+z
1/2+x,1/2-y,1/2-z
1/2-x,y,1/2-z
1/2-x,1/2-y,1/2-z
1/2+x,y,1/2-z
1/2-x,1/2+y,1/2+z
1/2+x,-y,1/2+z
loop_
_atom_site_type_symbol
_atom_site_label
_atom_site_fract_x
_atom_site_fract_y
_atom_site_fract_z
Si Si1 0.724091 0.196002 0.430815
Si Si2 0.886285 0.622924 0.538985
Si Si3 0.616141 0.052729 0.531758
Si Si4 0.355581 0.698176 0.303311
Si Si5 0.112412 0.880416 0.809779
Si Si6 0.606214 0.595027 0.217034
O O1 0.740992 0.250000 0.403136
O O2 0.821702 0.169358 0.461458
O O3 0.657031 0.193464 0.551209
O O4 0.666717 0.168222 0.327909
O O5 0.870680 0.600771 0.673002
O O6 0.855463 0.593205 0.420681
O O7 0.000000 0.632113 0.527847
O O8 0.500000 0.054515 0.534156
O O9 0.644791 0.086630 0.420688
O O10 0.650249 0.070276 0.664627
O O11 0.644049 0.000000 0.500000
O O12 0.396224 0.750000 0.275729
O O13 0.250000 0.698839 0.250000
O O14 0.398357 0.650555 0.250395
O O15 0.000000 0.873260 0.821585
O O16 0.500000 0.575755 0.208292
#
# Coordination Sequence:
#
# PCOD9535903 Si02
#       6
#    16  16  16  16  16  16
#     4  11  22  36  58  84 115 158 200 238 284 338
#     4  10  22  37  55  81 118 157 193 235 286 342
#     4   9  18  35  60  86 111 145 190 236 286 346
#     4  10  19  32  51  79 111 145 187 232 281 331
#     4  10  21  38  58  84 116 151 191 241 294 342
#     4  10  19  34  56  83 111 148 191 232 282 339
#
# _framework density 21.790687999999999
#
# number of rings (size 3 to 8) (size 9 to 14) (size 15 to 20)
#    0.000    2.000    3.333    0.500    0.000    2.333 
#    0.000    5.833    0.000   11.000    0.000    0.000 
#    0.000    0.000    0.000    0.000    0.000    0.000 
#
# Total GULP energy -267875.799844 kJ/mol
# GULP energy per Si atom -5580.745830 kJ/mol
# Density = 2.174109 g / cm^3
# Si number density = 21.790688 Si / 1000 Ang^3
#
#
#
# Elastic Constant Matrix: (Units=GPa)
#
#
# Indices 1 2 3 4 5 6 
#
# 1 72.1653 7.4980 29.2928 0.0000 0.0000 0.0000
# 2 7.4980 76.7620 59.6163 0.0000 0.0000 0.0000
# 3 29.2928 59.6163 209.5854 -0.0001 0.0001 0.0000
# 4 0.0000 0.0000 -0.0001 11.1416 0.0000 0.0000
# 5 0.0000 0.0000 0.0001 0.0000 24.1826 0.0000
# 6 0.0000 0.0000 0.0000 0.0000 0.0000 15.5974
#
#
#
# Elastic Compliance Matrix: (Units=1/GPa)
#
#
# Indices 1 2 3 4 5 6 
#
# 1 0.014693 0.000205 -0.002112 0.000000 0.000000 0.000000
# 2 0.000205 0.016724 -0.004786 0.000000 0.000000 0.000000
# 3 -0.002112 -0.004786 0.006428 0.000000 0.000000 0.000000
# 4 0.000000 0.000000 0.000000 0.089754 0.000000 0.000000
# 5 0.000000 0.000000 0.000000 0.000000 0.041352 0.000000
# 6 0.000000 0.000000 0.000000 0.000000 0.000000 0.064113
#
#
# Mechanical properties :
#
#
# Convention : Reuss Voigt Hill
#
# Bulk Modulus (GPa) = 40.88392 61.25855 51.07124
# Shear Modulus (GPa) = 19.63844 27.65802 23.64823
#
# Velocity S-wave (km/s) = 3.00531 3.56653 3.29788
# Velocity P-wave (km/s) = 5.55386 6.71815 6.16355
#
# Compressibility (1/GPa) = 0.02445949
#
# Stress axis : x y z
#
# Youngs Moduli (GPa) = 68.05959 59.79398 155.57418
#
# Poissons Ratio (x) = -0.01226 0.32855
# Poissons Ratio (y) = -0.01395 0.74455
# Poissons Ratio (z) = 0.14373 0.28616
#
# Static dielectric constant tensor:
#      x y z
#    x 1.816560 0.000000 0.000000 
#    y 0.000000 1.756930 0.000000 
#    z 0.000000 0.000000 1.874240 
# 
# From -- ./inp_files/22648.got.cif
#   From: 2010.05.17/outbox.cif.g08.bks.cpg/sg74_12_cif.got.tgz:22648.got - 2010.06.03 17:57:02.
