data_PCOD9535306
_publ_section_title
;
Structure prediction by ZEFSAII (Michael W. Deem and Ramdas Pophale) SiO2 
 PCOD9535306
Probable space group: I M M A
;
_chemical_formula_sum "Si O2"
_cell_formula_units_Z 112
_cell_length_a 15.434508
_cell_length_b 27.063300
_cell_length_c 14.417985
_cell_angle_alpha 90.000000
_cell_angle_beta 90.000000
_cell_angle_gamma 90.000000
_cell_volume 6022.518064
_symmetry_space_group_name_H-M "I M M A"
_symmetry_group_IT_number 74
_symmetry_cell_setting 'orthorhombic'
loop_
_space_group_symop_operation_xyz
x,y,z
-x,1/2-y,z
x,-y,-z
-x,1/2+y,-z
-x,-y,-z
x,1/2+y,-z
-x,y,z
x,1/2-y,z
1/2+x,1/2+y,1/2+z
1/2-x,-y,1/2+z
1/2+x,1/2-y,1/2-z
1/2-x,y,1/2-z
1/2-x,1/2-y,1/2-z
1/2+x,y,1/2-z
1/2-x,1/2+y,1/2+z
1/2+x,-y,1/2+z
loop_
_atom_site_type_symbol
_atom_site_label
_atom_site_fract_x
_atom_site_fract_y
_atom_site_fract_z
Si Si1 0.602978 0.850056 0.667939
Si Si2 0.592984 0.462006 0.703324
Si Si3 0.673037 0.449702 0.396133
Si Si4 0.596667 0.809456 0.875042
Si Si5 0.215326 0.403333 0.910558
Si Si6 0.229802 0.307962 0.015892
Si Si7 0.651872 0.485901 0.901233
O O1 0.500000 0.855326 0.646384
O O2 0.651394 0.902798 0.666975
O O3 0.609988 0.826859 0.769694
O O4 0.653896 0.817820 0.591322
O O5 0.500000 0.438923 0.689340
O O6 0.608112 0.507297 0.633067
O O7 0.665656 0.421842 0.679999
O O8 0.600495 0.484410 0.806087
O O9 0.667560 0.428388 0.500044
O O10 0.767173 0.475865 0.387462
O O11 0.500000 0.826476 0.905170
O O12 0.596051 0.750000 0.875326
O O13 0.678940 0.824110 0.936715
O O14 0.307069 0.431192 0.911010
O O15 0.216826 0.345555 0.930924
O O16 0.232982 0.250000 0.993065
O O17 0.610613 0.500000 0.000000
#
# Coordination Sequence:
#
# PCOD9535306 Si02
#       7
#    16  16  16  16  16  16  16
#     4  10  19  29  45  73 109 146 182 223 269 320
#     4  11  21  33  53  78 106 138 170 212 266 322
#     4   9  18  32  51  74 104 141 178 210 245 302
#     4   9  18  32  48  69 102 144 187 229 276 328
#     4   9  19  34  53  74 102 138 176 215 260 314
#     4  10  20  33  51  74 100 137 184 232 279 323
#     4   9  19  36  55  74  98 133 171 212 262 317
#
# _framework density 18.596872000000001
#
# number of rings (size 3 to 8) (size 9 to 14) (size 15 to 20)
#    0.000    2.429    0.000    4.286    0.000   11.429 
#    0.000    0.714    0.000    1.714    0.000    0.000 
#    0.000    0.000    0.000    0.000    0.000    0.000 
#
# Total GULP energy -312080.037749 kJ/mol
# GULP energy per Si atom -5572.857817 kJ/mol
# Density = 1.855455 g / cm^3
# Si number density = 18.596872 Si / 1000 Ang^3
#
#
#
# Elastic Constant Matrix: (Units=GPa)
#
#
# Indices 1 2 3 4 5 6 
#
# 1 62.5037 19.7279 19.6170 0.0000 0.0000 0.0000
# 2 19.7279 76.8020 12.4975 0.0002 0.0000 0.0000
# 3 19.6170 12.4975 42.0886 0.0003 0.0000 0.0001
# 4 0.0000 0.0002 0.0003 25.6167 0.0000 0.0000
# 5 0.0000 0.0000 0.0000 0.0000 -30.4648 0.0000
# 6 0.0000 0.0000 0.0001 0.0000 0.0000 -1.2844
#
#
#
# Elastic Compliance Matrix: (Units=1/GPa)
#
#
# Indices 1 2 3 4 5 6 
#
# 1 0.019718 -0.003751 -0.008077 0.000000 0.000000 -0.000001
# 2 -0.003751 0.014395 -0.002526 0.000000 0.000000 0.000000
# 3 -0.008077 -0.002526 0.028274 0.000000 0.000000 0.000001
# 4 0.000000 0.000000 0.000000 0.039037 0.000000 0.000001
# 5 0.000000 0.000000 0.000000 0.000000 -0.032825 0.000000
# 6 -0.000001 0.000000 0.000001 0.000001 0.000000 -0.778592
#
#
# Mechanical properties :
#
#
# Convention : Reuss Voigt Hill
#
# Bulk Modulus (GPa) = 29.69133 31.67547 30.68340
# Shear Modulus (GPa) = -7.46202 7.41028 -0.02587
#
# Velocity S-wave (km/s) = -2.00530 1.99833 -0.11808
# Velocity P-wave (km/s) = 3.26172 4.73224 4.06404
#
# Compressibility (1/GPa) = 0.03367986
#
# Stress axis : x y z
#
# Youngs Moduli (GPa) = 50.71584 69.46865 35.36829
#
# Poissons Ratio (x) = 0.26055 0.28565
# Poissons Ratio (y) = 0.19021 0.08935
# Poissons Ratio (z) = 0.40961 0.17550
#
# Static dielectric constant tensor:
#      x y z
#    x 1.670560 0.000000 0.000000 
#    y 0.000000 1.644990 0.000000 
#    z 0.000000 0.000000 1.664250 
# 
# From -- ./inp_files/32976.got.cif
#   From: 2010.05.17/outbox.cif.g08.bks.cpg/sg74_17_cif.got.tgz:32976.got - 2010.06.03 17:57:02.
