data_PCOD9535869
_publ_section_title
;
Structure prediction by ZEFSAII (Michael W. Deem and Ramdas Pophale) SiO2 
 PCOD9535869
Probable space group: I M M A
;
_chemical_formula_sum "Si O2"
_cell_formula_units_Z 128
_cell_length_a 15.000871
_cell_length_b 20.212277
_cell_length_c 21.124990
_cell_angle_alpha 90.000000
_cell_angle_beta 90.000000
_cell_angle_gamma 90.000000
_cell_volume 6405.134146
_symmetry_space_group_name_H-M "I M M A"
_symmetry_group_IT_number 74
_symmetry_cell_setting 'orthorhombic'
loop_
_space_group_symop_operation_xyz
x,y,z
-x,1/2-y,z
x,-y,-z
-x,1/2+y,-z
-x,-y,-z
x,1/2+y,-z
-x,y,z
x,1/2-y,z
1/2+x,1/2+y,1/2+z
1/2-x,-y,1/2+z
1/2+x,1/2-y,1/2-z
1/2-x,y,1/2-z
1/2-x,1/2-y,1/2-z
1/2+x,y,1/2-z
1/2-x,1/2+y,1/2+z
1/2+x,-y,1/2+z
loop_
_atom_site_type_symbol
_atom_site_label
_atom_site_fract_x
_atom_site_fract_y
_atom_site_fract_z
Si Si1 0.366178 0.324682 0.067117
Si Si2 0.651205 0.417767 0.326815
Si Si3 0.365449 0.092278 0.186217
Si Si4 0.607461 0.325633 0.583267
Si Si5 0.151615 0.174455 0.059576
Si Si6 0.391929 0.070240 0.687946
Si Si7 0.895619 0.435611 0.535432
Si Si8 0.101586 0.061530 0.671980
O O1 0.397470 0.250000 0.058617
O O2 0.396315 0.356279 0.133564
O O3 0.258499 0.323236 0.066746
O O4 0.392106 0.373894 0.011067
O O5 0.613136 0.393313 0.259300
O O6 0.758134 0.410778 0.320817
O O7 0.618699 0.375211 0.386256
O O8 0.632224 0.495708 0.332185
O O9 0.399370 0.018497 0.172131
O O10 0.500000 0.323874 0.587013
O O11 0.640392 0.250000 0.591569
O O12 0.631091 0.347315 0.511985
O O13 0.638985 0.375580 0.637518
O O14 0.117761 0.250000 0.067231
O O15 0.500000 0.072538 0.690579
O O16 0.358361 0.080872 0.760091
O O17 0.855870 0.500000 0.500000
O O18 0.855544 0.420623 0.604550
O O19 0.000000 0.451890 0.547525
O O20 0.000000 0.087394 0.672368
#
# Coordination Sequence:
#
# PCOD9535869 Si02
#       8
#    16  16  16  16  16  16  16  16
#     4  10  20  33  49  72 101 129 163 204 240 282
#     4   9  18  30  48  73  98 125 160 201 240 280
#     4   9  17  31  48  70  97 127 164 192 236 290
#     4   9  18  34  53  70  94 130 166 200 246 299
#     4   9  19  34  49  69  99 131 163 199 243 292
#     4   9  18  32  50  74  98 122 158 204 245 283
#     4  10  19  32  51  73  96 127 164 198 238 290
#     4   9  17  31  50  70  96 126 158 197 241 287
#
# _framework density 19.983968999999998
#
# number of rings (size 3 to 8) (size 9 to 14) (size 15 to 20)
#    0.000    2.750    1.250    0.000    0.000    2.750 
#    0.000    4.375    0.000    2.250    0.000   14.875 
#    0.000    0.000    0.000    0.000    0.000    0.000 
#
# Total GULP energy -356902.433484 kJ/mol
# GULP energy per Si atom -5576.600523 kJ/mol
# Density = 1.993848 g / cm^3
# Si number density = 19.983969 Si / 1000 Ang^3
#
#
#
# Elastic Constant Matrix: (Units=GPa)
#
#
# Indices 1 2 3 4 5 6 
#
# 1 39.1107 0.6291 7.8087 0.0000 0.0000 0.0000
# 2 0.6291 104.4933 121.7615 0.0000 0.0000 0.0000
# 3 7.8087 121.7615 229.5148 0.0000 0.0000 0.0000
# 4 0.0000 0.0000 0.0000 32.7427 0.0000 0.0000
# 5 0.0000 0.0000 0.0000 0.0000 15.8857 0.0000
# 6 0.0000 0.0000 0.0000 0.0000 0.0000 19.8822
#
#
#
# Elastic Compliance Matrix: (Units=1/GPa)
#
#
# Indices 1 2 3 4 5 6 
#
# 1 0.025950 0.002285 -0.002095 0.000000 0.000000 0.000000
# 2 0.002285 0.025266 -0.013482 0.000000 0.000000 0.000000
# 3 -0.002095 -0.013482 0.011581 0.000000 0.000000 0.000000
# 4 0.000000 0.000000 0.000000 0.030541 0.000000 0.000000
# 5 0.000000 0.000000 0.000000 0.000000 0.062950 0.000000
# 6 0.000000 0.000000 0.000000 0.000000 0.000000 0.050296
#
#
# Mechanical properties :
#
#
# Convention : Reuss Voigt Hill
#
# Bulk Modulus (GPa) = 27.61432 70.39083 49.00258
# Shear Modulus (GPa) = 20.38832 29.89674 25.14253
#
# Velocity S-wave (km/s) = 3.19757 3.87206 3.55087
# Velocity P-wave (km/s) = 5.24222 7.43576 6.43317
#
# Compressibility (1/GPa) = 0.03621310
#
# Stress axis : x y z
#
# Youngs Moduli (GPa) = 38.53560 39.57888 86.35107
#
# Poissons Ratio (x) = -0.09045 0.18093
# Poissons Ratio (y) = -0.08807 1.16417
# Poissons Ratio (z) = 0.08074 0.53359
#
# Static dielectric constant tensor:
#      x y z
#    x 1.773300 0.000000 0.000000 
#    y 0.000000 1.665700 0.000000 
#    z 0.000000 0.000000 1.732950 
# 
# From -- ./inp_files/54175.got.cif
#   From: 2010.05.17/outbox.cif.g08.bks.cpg/sg74_28_cif.got.tgz:54175.got - 2010.06.03 17:57:02.
