data_PCOD9535629
_publ_section_title
;
Structure prediction by ZEFSAII (Michael W. Deem and Ramdas Pophale) SiO2 
 PCOD9535629
Probable space group: I M M A
;
_chemical_formula_sum "Si O2"
_cell_formula_units_Z 96
_cell_length_a 17.573033
_cell_length_b 11.242471
_cell_length_c 25.850153
_cell_angle_alpha 90.000000
_cell_angle_beta 90.000000
_cell_angle_gamma 90.000000
_cell_volume 5107.067741
_symmetry_space_group_name_H-M "I M M A"
_symmetry_group_IT_number 74
_symmetry_cell_setting 'orthorhombic'
loop_
_space_group_symop_operation_xyz
x,y,z
-x,1/2-y,z
x,-y,-z
-x,1/2+y,-z
-x,-y,-z
x,1/2+y,-z
-x,y,z
x,1/2-y,z
1/2+x,1/2+y,1/2+z
1/2-x,-y,1/2+z
1/2+x,1/2-y,1/2-z
1/2-x,y,1/2-z
1/2-x,1/2-y,1/2-z
1/2+x,y,1/2-z
1/2-x,1/2+y,1/2+z
1/2+x,-y,1/2+z
loop_
_atom_site_type_symbol
_atom_site_label
_atom_site_fract_x
_atom_site_fract_y
_atom_site_fract_z
Si Si1 0.586471 0.008102 0.424617
Si Si2 0.907507 0.250000 0.900469
Si Si3 0.087529 0.017071 0.717963
Si Si4 0.092520 0.750000 0.218758
Si Si5 0.703812 0.386660 0.150816
Si Si6 0.235724 0.385875 0.034525
Si Si7 0.875218 0.886745 0.818121
O O1 0.500000 0.021978 0.442451
O O2 0.614275 0.871736 0.428666
O O3 0.646547 0.093914 0.451525
O O4 0.588529 0.034373 0.363191
O O5 0.880113 0.250000 0.840693
O O6 0.000000 0.250000 0.899005
O O7 0.141700 0.977192 0.671845
O O8 0.092771 0.916957 0.762373
O O9 0.000000 0.033582 0.701948
O O10 0.114713 0.134304 0.748651
O O11 0.000000 0.750000 0.215847
O O12 0.680293 0.250000 0.161418
O O13 0.722130 0.396123 0.090031
O O14 0.784365 0.406462 0.179725
O O15 0.247774 0.250000 0.015241
O O16 0.258010 0.500000 0.000000
O O17 0.889014 0.750000 0.831945
#
# Coordination Sequence:
#
# PCOD9535629 Si02
#       7
#    16   8  16   8  16  16  16
#     4  10  19  32  53  79 109 144 184 219 258 312
#     4   9  16  30  49  73 111 155 182 214 259 300
#     4  11  20  32  52  78 108 143 181 218 261 311
#     4   9  18  32  46  72 116 150 174 216 262 296
#     4   9  20  38  54  75 109 141 172 219 271 316
#     4  10  23  42  61  79 104 137 174 227 286 330
#     4  10  19  31  49  74 110 149 178 209 254 310
#
# _framework density 18.797478999999999
#
# number of rings (size 3 to 8) (size 9 to 14) (size 15 to 20)
#    0.000    2.167    1.667    3.000    1.167    5.000 
#    1.500    2.500    0.000    0.500    0.000    0.000 
#    0.000    0.000    0.000    0.000    0.000    0.000 
#
# Total GULP energy -267977.979470 kJ/mol
# GULP energy per Si atom -5582.874572 kJ/mol
# Density = 1.875470 g / cm^3
# Si number density = 18.797479 Si / 1000 Ang^3
#
#
#
# Elastic Constant Matrix: (Units=GPa)
#
#
# Indices 1 2 3 4 5 6 
#
# 1 34.3654 24.5122 26.4169 0.0000 0.0000 0.0000
# 2 24.5122 90.7619 31.9342 0.0000 0.0000 0.0000
# 3 26.4169 31.9342 67.8043 0.0000 0.0000 0.0000
# 4 0.0000 0.0000 0.0000 33.1628 0.0000 0.0000
# 5 0.0000 0.0000 0.0000 0.0000 -2.3555 0.0000
# 6 0.0000 0.0000 0.0000 0.0000 0.0000 23.1858
#
#
#
# Elastic Compliance Matrix: (Units=1/GPa)
#
#
# Indices 1 2 3 4 5 6 
#
# 1 0.045148 -0.007197 -0.014200 0.000000 0.000000 0.000000
# 2 -0.007197 0.014353 -0.003956 0.000000 0.000000 0.000000
# 3 -0.014200 -0.003956 0.022144 0.000000 0.000000 0.000000
# 4 0.000000 0.000000 0.000000 0.030154 0.000000 0.000000
# 5 0.000000 0.000000 0.000000 0.000000 -0.424536 0.000000
# 6 0.000000 0.000000 0.000000 0.000000 0.000000 0.043130
#
#
# Mechanical properties :
#
#
# Convention : Reuss Voigt Hill
#
# Bulk Modulus (GPa) = 32.32173 39.85090 36.08631
# Shear Modulus (GPa) = -23.97097 18.13652 -2.91723
#
# Velocity S-wave (km/s) = -3.57490 3.10955 -1.24711
# Velocity P-wave (km/s) = 0.43837 5.84282 4.14311
#
# Compressibility (1/GPa) = 0.03093894
#
# Stress axis : x y z
#
# Youngs Moduli (GPa) = 22.14917 69.66951 45.15865
#
# Poissons Ratio (x) = 0.50140 0.64127
# Poissons Ratio (y) = 0.15941 0.17866
# Poissons Ratio (z) = 0.31453 0.27563
#
# Static dielectric constant tensor:
#      x y z
#    x 1.639770 0.000000 0.000000 
#    y 0.000000 1.696110 0.000000 
#    z 0.000000 0.000000 1.655850 
# 
# From -- ./inp_files/60808.got.cif
#   From: 2010.05.17/outbox.cif.g08.bks.cpg/sg74_31_cif.got.tgz:60808.got - 2010.06.03 17:57:02.
