data_PCOD9535183
_publ_section_title
;
Structure prediction by ZEFSAII (Michael W. Deem and Ramdas Pophale) SiO2 
 PCOD9535183
Probable space group: I M M A
;
_chemical_formula_sum "Si O2"
_cell_formula_units_Z 112
_cell_length_a 23.970115
_cell_length_b 14.712667
_cell_length_c 14.558208
_cell_angle_alpha 90.000000
_cell_angle_beta 90.000000
_cell_angle_gamma 90.000000
_cell_volume 5134.160524
_symmetry_space_group_name_H-M "I M M A"
_symmetry_group_IT_number 74
_symmetry_cell_setting 'orthorhombic'
loop_
_space_group_symop_operation_xyz
x,y,z
-x,1/2-y,z
x,-y,-z
-x,1/2+y,-z
-x,-y,-z
x,1/2+y,-z
-x,y,z
x,1/2-y,z
1/2+x,1/2+y,1/2+z
1/2-x,-y,1/2+z
1/2+x,1/2-y,1/2-z
1/2-x,y,1/2-z
1/2-x,1/2-y,1/2-z
1/2+x,y,1/2-z
1/2-x,1/2+y,1/2+z
1/2+x,-y,1/2+z
loop_
_atom_site_type_symbol
_atom_site_label
_atom_site_fract_x
_atom_site_fract_y
_atom_site_fract_z
Si Si1 0.278738 0.109210 0.010019
Si Si2 0.619648 0.504276 0.720965
Si Si3 0.936517 0.648442 0.101018
Si Si4 0.436572 0.903679 0.045454
Si Si5 0.344290 0.100065 0.456126
Si Si6 0.387178 0.348019 0.130758
Si Si7 0.664234 0.850602 0.175476
O O1 0.217298 0.140542 0.038138
O O2 0.326633 0.137711 0.082016
O O3 0.293081 0.144919 0.908656
O O4 0.281174 0.000000 0.000000
O O5 0.578225 0.432982 0.671191
O O6 0.638659 0.578601 0.647290
O O7 0.599439 0.565616 0.805608
O O8 0.668341 0.435377 0.755529
O O9 0.933138 0.750000 0.142938
O O10 0.000000 0.635777 0.067995
O O11 0.892347 0.644741 0.017663
O O12 0.500000 0.908885 0.077609
O O13 0.429355 0.844145 0.954609
O O14 0.395107 0.868614 0.123784
O O15 0.418951 0.000000 0.000000
O O16 0.338921 0.000000 0.500000
O O17 0.387617 0.250000 0.179032
O O18 0.666560 0.750000 0.217303
#
# Coordination Sequence:
#
# PCOD9535183 Si02
#       7
#    16  16  16  16  16  16  16
#     4  10  18  39  62  87 128 174 212 253 313 383
#     4  11  22  41  60  96 128 160 204 266 320 380
#     4  10  23  45  70  94 125 167 217 271 327 384
#     4  10  19  35  57  83 121 170 213 252 304 372
#     4   9  22  40  66  89 119 166 210 261 319 385
#     4  11  22  37  59  88 126 172 213 260 314 373
#     4  11  21  36  62  93 128 168 208 256 314 373
#
# _framework density 21.814665999999999
#
# number of rings (size 3 to 8) (size 9 to 14) (size 15 to 20)
#    0.000    1.714    2.857    3.000    0.000    7.143 
#    2.571    0.714    0.000    3.429    0.000    0.000 
#    0.000    0.000    0.000    0.000    0.000    0.000 
#
# Total GULP energy -312473.131535 kJ/mol
# GULP energy per Si atom -5579.877349 kJ/mol
# Density = 2.176501 g / cm^3
# Si number density = 21.814666 Si / 1000 Ang^3
#
#
#
# Elastic Constant Matrix: (Units=GPa)
#
#
# Indices 1 2 3 4 5 6 
#
# 1 101.3735 5.1571 14.8243 0.0000 0.0000 0.0000
# 2 5.1571 139.9550 10.9843 0.0000 0.0000 0.0000
# 3 14.8243 10.9843 69.9973 0.0000 0.0000 0.0000
# 4 0.0000 0.0000 0.0000 15.9895 0.0000 0.0000
# 5 0.0000 0.0000 0.0000 0.0000 5.6444 0.0000
# 6 0.0000 0.0000 0.0000 0.0000 0.0000 29.6220
#
#
#
# Elastic Compliance Matrix: (Units=1/GPa)
#
#
# Indices 1 2 3 4 5 6 
#
# 1 0.010186 -0.000209 -0.002124 0.000000 0.000000 0.000000
# 2 -0.000209 0.007239 -0.001092 0.000000 0.000000 0.000000
# 3 -0.002124 -0.001092 0.014908 0.000000 0.000000 0.000000
# 4 0.000000 0.000000 0.000000 0.062541 0.000000 0.000000
# 5 0.000000 0.000000 0.000000 0.000000 0.177168 0.000000
# 6 0.000000 0.000000 0.000000 0.000000 0.000000 0.033759
#
#
# Mechanical properties :
#
#
# Convention : Reuss Voigt Hill
#
# Bulk Modulus (GPa) = 39.24293 41.47300 40.35797
# Shear Modulus (GPa) = 15.56939 28.94184 22.25562
#
# Velocity S-wave (km/s) = 2.67444 3.64636 3.19754
# Velocity P-wave (km/s) = 5.25025 6.06471 5.67212
#
# Compressibility (1/GPa) = 0.02548230
#
# Stress axis : x y z
#
# Youngs Moduli (GPa) = 98.17598 138.14974 67.08027
#
# Poissons Ratio (x) = 0.02882 0.14251
# Poissons Ratio (y) = 0.02048 0.07323
# Poissons Ratio (z) = 0.20857 0.15082
#
# Static dielectric constant tensor:
#      x y z
#    x 1.795310 0.000000 0.000000 
#    y 0.000000 1.875050 0.000000 
#    z 0.000000 0.000000 1.847930 
# 
# From -- ./inp_files/36556.got.cif
#   From: 2010.05.17/outbox.cif.g08.bks.cpg/sg74_19_cif.got.tgz:36556.got - 2010.06.03 17:57:02.
