data_PCOD9535525
_publ_section_title
;
Structure prediction by ZEFSAII (Michael W. Deem and Ramdas Pophale) SiO2 
 PCOD9535525
Probable space group: I M M A
;
_chemical_formula_sum "Si O2"
_cell_formula_units_Z 80
_cell_length_a 19.901079
_cell_length_b 7.556538
_cell_length_c 21.578335
_cell_angle_alpha 90.000000
_cell_angle_beta 90.000000
_cell_angle_gamma 90.000000
_cell_volume 3245.020356
_symmetry_space_group_name_H-M "I M M A"
_symmetry_group_IT_number 74
_symmetry_cell_setting 'orthorhombic'
loop_
_space_group_symop_operation_xyz
x,y,z
-x,1/2-y,z
x,-y,-z
-x,1/2+y,-z
-x,-y,-z
x,1/2+y,-z
-x,y,z
x,1/2-y,z
1/2+x,1/2+y,1/2+z
1/2-x,-y,1/2+z
1/2+x,1/2-y,1/2-z
1/2-x,y,1/2-z
1/2-x,1/2-y,1/2-z
1/2+x,y,1/2-z
1/2-x,1/2+y,1/2+z
1/2+x,-y,1/2+z
loop_
_atom_site_type_symbol
_atom_site_label
_atom_site_fract_x
_atom_site_fract_y
_atom_site_fract_z
Si Si1 0.710256 0.460354 0.873612
Si Si2 0.852677 0.533783 0.251376
Si Si3 0.500000 0.032812 0.383956
Si Si4 0.000000 0.455598 0.737063
Si Si5 0.355020 0.050103 0.393339
Si Si6 0.571921 0.037510 0.927352
O O1 0.703785 0.250000 0.869572
O O2 0.702879 0.519600 0.801807
O O3 0.780186 0.487807 0.908869
O O4 0.643443 0.533623 0.905241
O O5 0.851016 0.750000 0.244357
O O6 0.925572 0.479433 0.279500
O O7 0.851633 0.460155 0.182018
O O8 0.500000 0.250000 0.383645
O O9 0.427948 0.970067 0.410813
O O10 0.500000 0.972259 0.312328
O O11 0.000000 0.250000 0.719446
O O12 0.358441 0.250000 0.415055
O O13 0.500000 0.972730 0.900851
O O14 0.572632 0.250000 0.917790
O O15 0.569554 0.000000 0.000000
#
# Coordination Sequence:
#
# PCOD9535525 Si02
#       6
#    16  16   8   8  16  16
#     4  10  20  31  47  71  97 124 158 199 244 290
#     4   9  17  28  43  64  94 128 162 200 237 279
#     4   8  16  30  44  58  85 124 159 190 228 272
#     4   8  14  24  40  60  81 116 162 196 224 264
#     4  10  19  31  46  66  95 130 165 199 237 283
#     4   9  19  36  56  75  98 128 162 203 249 294
#
# _framework density 24.653158999999999
#
# number of rings (size 3 to 8) (size 9 to 14) (size 15 to 20)
#    0.000    2.800    0.000    1.200    1.400    4.800 
#    0.000    0.000    0.000    0.000    0.000    0.700 
#    0.000    0.000    0.000    0.000    0.000    0.000 
#
# Total GULP energy -222922.781588 kJ/mol
# GULP energy per Si atom -5573.069540 kJ/mol
# Density = 2.459705 g / cm^3
# Si number density = 24.653159 Si / 1000 Ang^3
#
#
#
# Elastic Constant Matrix: (Units=GPa)
#
#
# Indices 1 2 3 4 5 6 
#
# 1 225.0552 2.3640 15.8499 0.0000 0.0000 0.0000
# 2 2.3640 55.8801 -5.9476 0.0000 0.0000 0.0000
# 3 15.8499 -5.9476 13.9418 0.0000 0.0000 0.0000
# 4 0.0000 0.0000 0.0000 6.6000 0.0000 0.0000
# 5 0.0000 0.0000 0.0000 0.0000 26.6564 0.0000
# 6 0.0000 0.0000 0.0000 0.0000 0.0000 60.8378
#
#
#
# Elastic Compliance Matrix: (Units=1/GPa)
#
#
# Indices 1 2 3 4 5 6 
#
# 1 0.004867 -0.000833 -0.005888 0.000000 0.000000 0.000000
# 2 -0.000833 0.018889 0.009005 0.000000 0.000000 0.000000
# 3 -0.005888 0.009005 0.082262 0.000000 0.000000 0.000000
# 4 0.000000 0.000000 0.000000 0.151516 0.000000 0.000000
# 5 0.000000 0.000000 0.000000 0.000000 0.037514 0.000000
# 6 0.000000 0.000000 0.000000 0.000000 0.000000 0.016437
#
#
# Mechanical properties :
#
#
# Convention : Reuss Voigt Hill
#
# Bulk Modulus (GPa) = 9.04276 35.48994 22.26635
# Shear Modulus (GPa) = 14.54422 37.65956 26.10189
#
# Velocity S-wave (km/s) = 2.43153 3.91266 3.25740
# Velocity P-wave (km/s) = 3.39986 5.90244 4.81653
#
# Compressibility (1/GPa) = 0.11058576
#
# Stress axis : x y z
#
# Youngs Moduli (GPa) = 205.47502 52.94056 12.15632
#
# Poissons Ratio (x) = 0.04408 0.07158
# Poissons Ratio (y) = 0.17107 -0.10946
# Poissons Ratio (z) = 1.20984 -0.47671
#
# Static dielectric constant tensor:
#      x y z
#    x 2.094060 0.000000 0.000000 
#    y 0.000000 2.009650 0.000000 
#    z 0.000000 0.000000 1.980810 
# 
# From -- ./inp_files/56890.got.cif
#   From: 2010.05.17/outbox.cif.g08.bks.cpg/sg74_29_cif.got.tgz:56890.got - 2010.06.03 17:57:02.
