data_PCOD9535004
_publ_section_title
;
Structure prediction by ZEFSAII (Michael W. Deem and Ramdas Pophale) SiO2 
 PCOD9535004
Probable space group: I M M A
;
_chemical_formula_sum "Si O2"
_cell_formula_units_Z 100
_cell_length_a 16.485514
_cell_length_b 14.783557
_cell_length_c 24.513729
_cell_angle_alpha 90.000000
_cell_angle_beta 90.000000
_cell_angle_gamma 90.000000
_cell_volume 5974.352086
_symmetry_space_group_name_H-M "I M M A"
_symmetry_group_IT_number 74
_symmetry_cell_setting 'orthorhombic'
loop_
_space_group_symop_operation_xyz
x,y,z
-x,1/2-y,z
x,-y,-z
-x,1/2+y,-z
-x,-y,-z
x,1/2+y,-z
-x,y,z
x,1/2-y,z
1/2+x,1/2+y,1/2+z
1/2-x,-y,1/2+z
1/2+x,1/2-y,1/2-z
1/2-x,y,1/2-z
1/2-x,1/2-y,1/2-z
1/2+x,y,1/2-z
1/2-x,1/2+y,1/2+z
1/2+x,-y,1/2+z
loop_
_atom_site_type_symbol
_atom_site_label
_atom_site_fract_x
_atom_site_fract_y
_atom_site_fract_z
Si Si1 0.178367 0.356145 0.970907
Si Si2 0.597343 0.351151 0.412601
Si Si3 0.000000 0.750000 0.486153
Si Si4 0.597794 0.459587 0.630412
Si Si5 0.135698 0.907293 0.469445
Si Si6 0.345477 0.644217 0.262476
Si Si7 0.904018 0.353936 0.644551
O O1 0.173178 0.250000 0.957125
O O2 0.139976 0.411678 0.921220
O O3 0.271738 0.380812 0.981868
O O4 0.129961 0.371572 0.026919
O O5 0.500000 0.349062 0.415152
O O6 0.625786 0.250000 0.396996
O O7 0.619327 0.434090 0.373473
O O8 0.928390 0.670733 0.484293
O O9 0.500000 0.449855 0.626608
O O10 0.628427 0.413879 0.685884
O O11 0.132256 0.913900 0.403373
O O12 0.115581 0.000000 0.500000
O O13 0.366007 0.750000 0.272682
O O14 0.250000 0.638668 0.250000
O O15 0.388151 0.616185 0.206015
O O16 0.871836 0.250000 0.639291
O O17 0.000000 0.348877 0.635004
#
# Coordination Sequence:
#
# PCOD9535004 Si02
#       7
#    16  16   4  16  16  16  16
#     4  11  21  34  52  79 116 145 175 223 277 327
#     4   9  19  35  54  78 109 150 186 221 266 320
#     4  12  22  40  52  82 108 140 184 232 264 324
#     4  11  21  34  54  84 112 144 185 226 266 321
#     4  12  22  36  58  81 106 145 182 223 272 327
#     4  10  21  34  51  75 105 139 173 212 265 319
#     4  10  18  33  50  70  99 130 166 211 259 316
#
# _framework density 16.738216999999999
#
# number of rings (size 3 to 8) (size 9 to 14) (size 15 to 20)
#    0.000    1.440    2.400    4.080    0.000    5.120 
#    0.000    0.000    0.000    0.480    2.080    0.000 
#    0.000    0.000    0.000    0.000    0.000    0.000 
#
# Total GULP energy -278524.930208 kJ/mol
# GULP energy per Si atom -5570.498604 kJ/mol
# Density = 1.670012 g / cm^3
# Si number density = 16.738217 Si / 1000 Ang^3
#
#
#
# Elastic Constant Matrix: (Units=GPa)
#
#
# Indices 1 2 3 4 5 6 
#
# 1 33.8504 35.2298 14.0554 0.0000 0.0000 0.0000
# 2 35.2298 132.0530 85.2887 0.0000 0.0000 0.0000
# 3 14.0554 85.2887 90.5820 0.0000 0.0000 0.0000
# 4 0.0000 0.0000 0.0000 44.3683 0.0000 0.0000
# 5 0.0000 0.0000 0.0000 0.0000 18.7759 0.0000
# 6 0.0000 0.0000 0.0000 0.0000 0.0000 19.8358
#
#
#
# Elastic Compliance Matrix: (Units=1/GPa)
#
#
# Indices 1 2 3 4 5 6 
#
# 1 0.044803 -0.019043 0.010979 0.000000 0.000000 0.000000
# 2 -0.019043 0.027419 -0.022862 0.000000 0.000000 0.000000
# 3 0.010979 -0.022862 0.030862 0.000000 0.000000 0.000000
# 4 0.000000 0.000000 0.000000 0.022539 0.000000 0.000000
# 5 0.000000 0.000000 0.000000 0.000000 0.053260 0.000000
# 6 0.000000 0.000000 0.000000 0.000000 0.000000 0.050414
#
#
# Mechanical properties :
#
#
# Convention : Reuss Voigt Hill
#
# Bulk Modulus (GPa) = 24.25384 58.40367 41.32875
# Shear Modulus (GPa) = 16.39927 24.72345 20.56136
#
# Velocity S-wave (km/s) = 3.13349 3.84743 3.50867
# Velocity P-wave (km/s) = 5.25483 7.39629 6.41554
#
# Compressibility (1/GPa) = 0.04123059
#
# Stress axis : x y z
#
# Youngs Moduli (GPa) = 22.32008 36.47136 32.40253
#
# Poissons Ratio (x) = 0.69454 -0.35574
# Poissons Ratio (y) = 0.42505 0.74077
# Poissons Ratio (z) = -0.24505 0.83379
#
# Static dielectric constant tensor:
#      x y z
#    x 1.598030 0.000000 0.000000 
#    y 0.000000 1.580690 0.000000 
#    z 0.000000 0.000000 1.555870 
# 
# From -- ./inp_files/60060.got.cif
#   From: 2010.05.17/outbox.cif.g08.bks.cpg/sg74_31_cif.got.tgz:60060.got - 2010.06.03 17:57:02.
