data_PCOD9535219
_publ_section_title
;
Structure prediction by ZEFSAII (Michael W. Deem and Ramdas Pophale) SiO2 
 PCOD9535219
Probable space group: I M M A
;
_chemical_formula_sum "Si O2"
_cell_formula_units_Z 96
_cell_length_a 15.721693
_cell_length_b 18.705189
_cell_length_c 19.052195
_cell_angle_alpha 90.000000
_cell_angle_beta 90.000000
_cell_angle_gamma 90.000000
_cell_volume 5602.816902
_symmetry_space_group_name_H-M "I M M A"
_symmetry_group_IT_number 74
_symmetry_cell_setting 'orthorhombic'
loop_
_space_group_symop_operation_xyz
x,y,z
-x,1/2-y,z
x,-y,-z
-x,1/2+y,-z
-x,-y,-z
x,1/2+y,-z
-x,y,z
x,1/2-y,z
1/2+x,1/2+y,1/2+z
1/2-x,-y,1/2+z
1/2+x,1/2-y,1/2-z
1/2-x,y,1/2-z
1/2-x,1/2-y,1/2-z
1/2+x,y,1/2-z
1/2-x,1/2+y,1/2+z
1/2+x,-y,1/2+z
loop_
_atom_site_type_symbol
_atom_site_label
_atom_site_fract_x
_atom_site_fract_y
_atom_site_fract_z
Si Si1 0.594632 0.594640 0.922670
Si Si2 0.096291 0.835027 0.921996
Si Si3 0.248686 0.893489 0.829897
Si Si4 0.399677 0.433019 0.551565
Si Si5 0.257581 0.566079 0.330733
Si Si6 0.095036 0.920617 0.415830
O O1 0.500000 0.618250 0.901943
O O2 0.667956 0.626517 0.874550
O O3 0.595670 0.507705 0.917895
O O4 0.607135 0.607958 0.005275
O O5 0.102113 0.750000 0.921195
O O6 0.165329 0.867904 0.870268
O O7 0.000000 0.856636 0.901496
O O8 0.109681 0.865559 0.000051
O O9 0.250000 0.867167 0.750000
O O10 0.249229 0.979722 0.828349
O O11 0.374498 0.500000 0.500000
O O12 0.500000 0.442761 0.569286
O O13 0.340706 0.423637 0.619914
O O14 0.250000 0.590471 0.250000
O O15 0.175623 0.598605 0.369591
O O16 0.000000 0.899832 0.391489
#
# Coordination Sequence:
#
# PCOD9535219 Si02
#       6
#    16  16  16  16  16  16
#     4   8  14  25  41  61  84 118 160 196 230 276
#     4  10  21  36  53  73  97 132 178 218 252 297
#     4  10  19  29  45  70 101 134 162 199 249 299
#     4  10  19  33  54  75  99 133 171 213 257 298
#     4  10  19  28  45  75 105 130 157 200 256 306
#     4   8  14  24  39  59  88 123 155 191 235 283
#
# _framework density 17.134238
#
# number of rings (size 3 to 8) (size 9 to 14) (size 15 to 20)
#    0.000    2.667    1.667    2.000    2.333    1.667 
#    0.000    3.333    0.000    1.000    0.000    0.000 
#    0.000    0.000    0.000    0.000    0.000    0.000 
#
# Total GULP energy -267231.797357 kJ/mol
# GULP energy per Si atom -5567.329112 kJ/mol
# Density = 1.709524 g / cm^3
# Si number density = 17.134238 Si / 1000 Ang^3
#
#
#
# Elastic Constant Matrix: (Units=GPa)
#
#
# Indices 1 2 3 4 5 6 
#
# 1 158.8439 14.5902 113.8476 0.0000 0.0000 0.0000
# 2 14.5902 8.1653 10.9626 0.0000 0.0000 0.0000
# 3 113.8476 10.9626 128.8559 0.0000 0.0000 0.0000
# 4 0.0000 0.0000 0.0000 8.1301 0.0000 0.0000
# 5 0.0000 0.0000 0.0000 0.0000 -1.5187 0.0000
# 6 0.0000 0.0000 0.0000 0.0000 0.0000 8.6383
#
#
#
# Elastic Compliance Matrix: (Units=1/GPa)
#
#
# Indices 1 2 3 4 5 6 
#
# 1 0.018205 -0.012345 -0.015034 0.000000 0.000000 0.000000
# 2 -0.012345 0.146634 -0.001568 0.000000 0.000000 0.000000
# 3 -0.015034 -0.001568 0.021177 0.000000 0.000000 0.000000
# 4 0.000000 0.000000 0.000000 0.123000 0.000000 0.000000
# 5 0.000000 0.000000 0.000000 0.000000 -0.658461 0.000000
# 6 0.000000 0.000000 0.000000 0.000000 0.000000 0.115763
#
#
# Mechanical properties :
#
#
# Convention : Reuss Voigt Hill
#
# Bulk Modulus (GPa) = 7.80509 63.85179 35.82844
# Shear Modulus (GPa) = -37.57101 13.48092 -12.04504
#
# Velocity S-wave (km/s) = -4.68776 2.80801 -2.65426
# Velocity P-wave (km/s) = 4.97342 6.91807 3.40035
#
# Compressibility (1/GPa) = 0.12812159
#
# Stress axis : x y z
#
# Youngs Moduli (GPa) = 54.93076 6.81970 47.22089
#
# Poissons Ratio (x) = 0.08419 0.70992
# Poissons Ratio (y) = 0.67810 0.07405
# Poissons Ratio (z) = 0.82584 0.01070
#
# Static dielectric constant tensor:
#      x y z
#    x 1.603570 0.000000 0.000000 
#    y 0.000000 1.568990 0.000000 
#    z 0.000000 0.000000 1.580330 
# 
# From -- ./inp_files/52249.got.cif
#   From: 2010.05.17/outbox.cif.g08.bks.cpg/sg74_27_cif.got.tgz:52249.got - 2010.06.03 17:57:02.
