data_PCOD9535612
_publ_section_title
;
Structure prediction by ZEFSAII (Michael W. Deem and Ramdas Pophale) SiO2 
 PCOD9535612
Probable space group: I M M A
;
_chemical_formula_sum "Si O2"
_cell_formula_units_Z 104
_cell_length_a 9.537526
_cell_length_b 26.252198
_cell_length_c 21.386718
_cell_angle_alpha 90.000000
_cell_angle_beta 90.000000
_cell_angle_gamma 90.000000
_cell_volume 5354.828288
_symmetry_space_group_name_H-M "I M M A"
_symmetry_group_IT_number 74
_symmetry_cell_setting 'orthorhombic'
loop_
_space_group_symop_operation_xyz
x,y,z
-x,1/2-y,z
x,-y,-z
-x,1/2+y,-z
-x,-y,-z
x,1/2+y,-z
-x,y,z
x,1/2-y,z
1/2+x,1/2+y,1/2+z
1/2-x,-y,1/2+z
1/2+x,1/2-y,1/2-z
1/2-x,y,1/2-z
1/2-x,1/2-y,1/2-z
1/2+x,y,1/2-z
1/2-x,1/2+y,1/2+z
1/2+x,-y,1/2+z
loop_
_atom_site_type_symbol
_atom_site_label
_atom_site_fract_x
_atom_site_fract_y
_atom_site_fract_z
Si Si1 0.835998 0.605446 0.502514
Si Si2 0.160447 0.625963 0.190173
Si Si3 0.661313 0.308130 0.896330
Si Si4 0.835262 0.459291 0.188642
Si Si5 0.338185 0.537179 0.414270
Si Si6 0.335597 0.857042 0.621387
Si Si7 0.167941 0.750000 0.815030
O O1 0.825079 0.652392 0.453354
O O2 0.756496 0.557892 0.470380
O O3 0.759393 0.624305 0.564593
O O4 0.000000 0.594383 0.512488
O O5 0.250000 0.610490 0.250000
O O6 0.233919 0.674089 0.157596
O O7 0.163072 0.581457 0.138490
O O8 0.000000 0.635921 0.207277
O O9 0.500000 0.311925 0.874056
O O10 0.687272 0.250000 0.915789
O O11 0.750000 0.474359 0.250000
O O12 0.789705 0.488044 0.125004
O O13 0.821818 0.399226 0.175732
O O14 0.000000 0.471819 0.197077
O O15 0.500000 0.530101 0.434408
O O16 0.500000 0.857115 0.602126
O O17 0.298858 0.801129 0.646272
O O18 0.250000 0.750000 0.750000
O O19 0.000000 0.750000 0.803520
#
# Coordination Sequence:
#
# PCOD9535612 Si02
#       7
#    16  16  16  16  16  16   8
#     4  10  21  36  57  84 111 144 187 233 281 331
#     4  10  19  31  49  73 101 135 177 221 271 328
#     4   9  19  35  52  71  99 134 175 226 276 325
#     4  10  21  37  59  85 114 150 190 233 282 337
#     4   9  19  36  56  79 110 148 185 226 278 334
#     4  10  22  39  58  84 117 152 189 231 286 345
#     4  10  22  40  62  88 118 154 193 238 289 342
#
# _framework density 19.421724000000001
#
# number of rings (size 3 to 8) (size 9 to 14) (size 15 to 20)
#    0.000    2.308    0.000    1.846    1.077    4.308 
#    0.000    3.077    0.000    0.000    0.000    0.000 
#    0.000    0.000    0.000    0.000    0.000    0.000 
#
# Total GULP energy -290356.916138 kJ/mol
# GULP energy per Si atom -5583.786849 kJ/mol
# Density = 1.937752 g / cm^3
# Si number density = 19.421724 Si / 1000 Ang^3
#
#
#
# Elastic Constant Matrix: (Units=GPa)
#
#
# Indices 1 2 3 4 5 6 
#
# 1 101.8943 41.6655 75.8258 0.0000 0.0000 0.0000
# 2 41.6655 115.5780 35.3235 0.0000 0.0000 0.0000
# 3 75.8258 35.3235 109.8208 0.0000 0.0000 0.0000
# 4 0.0000 0.0000 0.0000 15.3790 0.0000 0.0000
# 5 0.0000 0.0000 0.0000 0.0000 38.7384 0.0000
# 6 0.0000 0.0000 0.0000 0.0000 0.0000 16.8678
#
#
#
# Elastic Compliance Matrix: (Units=1/GPa)
#
#
# Indices 1 2 3 4 5 6 
#
# 1 0.021424 -0.003552 -0.013650 0.000000 0.000000 0.000000
# 2 -0.003552 0.010184 -0.000824 0.000000 0.000000 0.000000
# 3 -0.013650 -0.000824 0.018795 0.000000 0.000000 0.000000
# 4 0.000000 0.000000 0.000000 0.065024 0.000000 0.000000
# 5 0.000000 0.000000 0.000000 0.000000 0.025814 0.000000
# 6 0.000000 0.000000 0.000000 0.000000 0.000000 0.059285
#
#
# Mechanical properties :
#
#
# Convention : Reuss Voigt Hill
#
# Bulk Modulus (GPa) = 69.66958 70.32474 69.99716
# Shear Modulus (GPa) = 20.71589 25.82893 23.27241
#
# Velocity S-wave (km/s) = 3.26948 3.65073 3.46535
# Velocity P-wave (km/s) = 7.08537 7.35244 7.22014
#
# Compressibility (1/GPa) = 0.01435347
#
# Stress axis : x y z
#
# Youngs Moduli (GPa) = 46.67637 98.19151 53.20503
#
# Poissons Ratio (x) = 0.34873 0.72624
# Poissons Ratio (y) = 0.16577 0.04382
# Poissons Ratio (z) = 0.63713 0.08086
#
# Static dielectric constant tensor:
#      x y z
#    x 1.661750 0.000000 0.000000 
#    y 0.000000 1.695090 0.000000 
#    z 0.000000 0.000000 1.658410 
# 
# From -- ./inp_files/49296.got.cif
#   From: 2010.05.17/outbox.cif.g08.bks.cpg/sg74_25_cif.got.tgz:49296.got - 2010.06.03 17:57:02.
