data_PCOD9535108
_publ_section_title
;
Structure prediction by ZEFSAII (Michael W. Deem and Ramdas Pophale) SiO2 
 PCOD9535108
Probable space group: I M M A
;
_chemical_formula_sum "Si O2"
_cell_formula_units_Z 72
_cell_length_a 8.613042
_cell_length_b 13.463243
_cell_length_c 30.940761
_cell_angle_alpha 90.000000
_cell_angle_beta 90.000000
_cell_angle_gamma 90.000000
_cell_volume 3587.874476
_symmetry_space_group_name_H-M "I M M A"
_symmetry_group_IT_number 74
_symmetry_cell_setting 'orthorhombic'
loop_
_space_group_symop_operation_xyz
x,y,z
-x,1/2-y,z
x,-y,-z
-x,1/2+y,-z
-x,-y,-z
x,1/2+y,-z
-x,y,z
x,1/2-y,z
1/2+x,1/2+y,1/2+z
1/2-x,-y,1/2+z
1/2+x,1/2-y,1/2-z
1/2-x,y,1/2-z
1/2-x,1/2-y,1/2-z
1/2+x,y,1/2-z
1/2-x,1/2+y,1/2+z
1/2+x,-y,1/2+z
loop_
_atom_site_type_symbol
_atom_site_label
_atom_site_fract_x
_atom_site_fract_y
_atom_site_fract_z
Si Si1 0.183748 0.453955 0.701547
Si Si2 0.315372 0.250000 0.700715
Si Si3 0.812271 0.425583 0.438075
Si Si4 0.684522 0.860281 0.650926
Si Si5 0.688105 0.140943 0.964479
O O1 0.250000 0.463593 0.750000
O O2 0.253916 0.352946 0.681292
O O3 0.230150 0.551336 0.675494
O O4 0.000000 0.442612 0.703659
O O5 0.500000 0.250000 0.702028
O O6 0.250000 0.250000 0.750000
O O7 0.729578 0.370717 0.399195
O O8 0.776677 0.379269 0.484960
O O9 0.763241 0.541808 0.439266
O O10 0.000000 0.420754 0.432615
O O11 0.500000 0.871287 0.656420
O O12 0.729825 0.750000 0.666284
O O13 0.500000 0.142246 0.961544
O O14 0.745881 0.250000 0.951186
#
# Coordination Sequence:
#
# PCOD9535108 Si02
#       5
#    16   8  16  16  16
#     4  11  22  39  63  89 116 149 190 233 282 337
#     4  10  18  34  60  88 118 148 182 224 272 330
#     4   9  17  31  53  79 106 142 187 233 282 339
#     4  11  24  40  56  78 112 152 193 239 292 345
#     4   8  14  27  50  79 109 141 180 229 283 338
#
# _framework density 20.067592000000001
#
# number of rings (size 3 to 8) (size 9 to 14) (size 15 to 20)
#    0.000    2.222    0.000    7.000    0.000    3.111 
#    2.000    2.222    0.000    1.333    0.000    0.000 
#    0.000    0.000    0.000    0.000    0.000    0.000 
#
# Total GULP energy -200999.107851 kJ/mol
# GULP energy per Si atom -5583.308551 kJ/mol
# Density = 2.002192 g / cm^3
# Si number density = 20.067592 Si / 1000 Ang^3
#
#
#
# Elastic Constant Matrix: (Units=GPa)
#
#
# Indices 1 2 3 4 5 6 
#
# 1 98.2319 52.0232 15.0507 0.0000 0.0000 0.0000
# 2 52.0232 166.5005 19.6351 0.0000 0.0000 0.0000
# 3 15.0507 19.6351 21.0636 0.0000 0.0000 0.0000
# 4 0.0000 0.0000 0.0000 3.0771 0.0000 0.0000
# 5 0.0000 0.0000 0.0000 0.0000 20.7328 0.0000
# 6 0.0000 0.0000 0.0000 0.0000 0.0000 64.2584
#
#
#
# Elastic Compliance Matrix: (Units=1/GPa)
#
#
# Indices 1 2 3 4 5 6 
#
# 1 0.012864 -0.003298 -0.006117 0.000000 0.000000 0.000000
# 2 -0.003298 0.007593 -0.004722 0.000000 0.000000 0.000000
# 3 -0.006117 -0.004722 0.056248 0.000000 0.000000 0.000000
# 4 0.000000 0.000000 0.000000 0.324983 0.000000 0.000000
# 5 0.000000 0.000000 0.000000 0.000000 0.048233 0.000000
# 6 0.000000 0.000000 0.000000 0.000000 0.000000 0.015562
#
#
# Mechanical properties :
#
#
# Convention : Reuss Voigt Hill
#
# Bulk Modulus (GPa) = 20.64801 51.02376 35.83589
# Shear Modulus (GPa) = 9.80582 30.88614 20.34598
#
# Velocity S-wave (km/s) = 2.21292 3.92740 3.18759
# Velocity P-wave (km/s) = 4.10377 6.78580 5.60750
#
# Compressibility (1/GPa) = 0.04843081
#
# Stress axis : x y z
#
# Youngs Moduli (GPa) = 77.73730 131.69577 17.77840
#
# Poissons Ratio (x) = 0.43432 0.10876
# Poissons Ratio (y) = 0.25637 0.08395
# Poissons Ratio (z) = 0.47555 0.62185
#
# Static dielectric constant tensor:
#      x y z
#    x 1.672410 0.000000 0.000000 
#    y 0.000000 1.760240 0.000000 
#    z 0.000000 0.000000 1.688410 
# 
# From -- ./inp_files/69986.got.cif
#   From: 2010.05.17/outbox.cif.g08.bks.cpg/sg74_35_cif.got.tgz:69986.got - 2010.06.03 17:57:02.
