data_PCOD9535433
_publ_section_title
;
Structure prediction by ZEFSAII (Michael W. Deem and Ramdas Pophale) SiO2 
 PCOD9535433
Probable space group: I M M A
;
_chemical_formula_sum "Si O2"
_cell_formula_units_Z 96
_cell_length_a 9.521313
_cell_length_b 14.826526
_cell_length_c 32.203408
_cell_angle_alpha 90.000000
_cell_angle_beta 90.000000
_cell_angle_gamma 90.000000
_cell_volume 4546.090531
_symmetry_space_group_name_H-M "I M M A"
_symmetry_group_IT_number 74
_symmetry_cell_setting 'orthorhombic'
loop_
_space_group_symop_operation_xyz
x,y,z
-x,1/2-y,z
x,-y,-z
-x,1/2+y,-z
-x,-y,-z
x,1/2+y,-z
-x,y,z
x,1/2-y,z
1/2+x,1/2+y,1/2+z
1/2-x,-y,1/2+z
1/2+x,1/2-y,1/2-z
1/2-x,y,1/2-z
1/2-x,1/2-y,1/2-z
1/2+x,y,1/2-z
1/2-x,1/2+y,1/2+z
1/2+x,-y,1/2+z
loop_
_atom_site_type_symbol
_atom_site_label
_atom_site_fract_x
_atom_site_fract_y
_atom_site_fract_z
Si Si1 0.336890 0.890627 0.951799
Si Si2 0.840447 0.889535 0.122014
Si Si3 0.161906 0.889540 0.455572
Si Si4 0.339552 0.894451 0.627049
Si Si5 0.157662 0.857100 0.212805
Si Si6 0.161181 0.358523 0.289990
O O1 0.500000 0.864440 0.945368
O O2 0.239681 0.859414 0.914088
O O3 0.335395 0.000560 0.953297
O O4 0.291556 0.862305 0.998125
O O5 0.754504 0.856866 0.082551
O O6 0.778040 0.867780 0.167128
O O7 0.000000 0.854763 0.121199
O O8 0.846859 0.997814 0.120742
O O9 0.000000 0.862561 0.450855
O O10 0.500000 0.861354 0.631594
O O11 0.246857 0.878165 0.667949
O O12 0.144469 0.750000 0.219745
O O13 0.250000 0.894902 0.250000
O O14 0.000000 0.896641 0.212227
O O15 0.152357 0.250000 0.286747
O O16 0.250000 0.390242 0.250000
O O17 0.000000 0.393140 0.291069
#
# Coordination Sequence:
#
# PCOD9535433 Si02
#       6
#    16  16  16  16  16  16
#     4   8  14  26  43  65  94 125 158 193 230 274
#     4   9  18  30  45  70  99 123 153 195 240 281
#     4   8  14  25  43  66  92 124 158 192 231 275
#     4  10  19  30  47  73 101 125 153 192 236 280
#     4   9  18  33  50  66  88 121 158 193 230 275
#     4  10  21  37  55  72  92 122 158 193 231 279
#
# _framework density 21.117044
#
# number of rings (size 3 to 8) (size 9 to 14) (size 15 to 20)
#    0.000    3.000    0.000    2.000    0.000    3.667 
#    0.000    5.000    0.000    1.000    0.000    4.667 
#    0.000    0.000    0.000    0.000    0.000    0.000 
#
# Total GULP energy -267811.943284 kJ/mol
# GULP energy per Si atom -5579.415485 kJ/mol
# Density = 2.106898 g / cm^3
# Si number density = 21.117044 Si / 1000 Ang^3
#
#
#
# Elastic Constant Matrix: (Units=GPa)
#
#
# Indices 1 2 3 4 5 6 
#
# 1 140.6556 4.9679 133.4141 0.0000 0.0000 0.0000
# 2 4.9679 56.8861 -0.1755 0.0000 0.0000 0.0000
# 3 133.4141 -0.1755 248.3615 0.0000 0.0000 0.0000
# 4 0.0000 0.0000 0.0000 35.7069 0.0000 0.0000
# 5 0.0000 0.0000 0.0000 0.0000 36.6905 0.0000
# 6 0.0000 0.0000 0.0000 0.0000 0.0000 20.6411
#
#
#
# Elastic Compliance Matrix: (Units=1/GPa)
#
#
# Indices 1 2 3 4 5 6 
#
# 1 0.014590 -0.001298 -0.007839 0.000000 0.000000 0.000000
# 2 -0.001298 0.017695 0.000710 0.000000 0.000000 0.000000
# 3 -0.007839 0.000710 0.008238 0.000000 0.000000 0.000000
# 4 0.000000 0.000000 0.000000 0.028006 0.000000 0.000000
# 5 0.000000 0.000000 0.000000 0.000000 0.027255 0.000000
# 6 0.000000 0.000000 0.000000 0.000000 0.000000 0.048447
#
#
# Mechanical properties :
#
#
# Convention : Reuss Voigt Hill
#
# Bulk Modulus (GPa) = 42.25000 80.25735 61.25368
# Shear Modulus (GPa) = 29.59035 39.12081 34.35558
#
# Velocity S-wave (km/s) = 3.74739 4.30882 4.03788
# Velocity P-wave (km/s) = 6.22695 7.92736 7.12804
#
# Compressibility (1/GPa) = 0.02366864
#
# Stress axis : x y z
#
# Youngs Moduli (GPa) = 68.53810 56.51453 121.39475
#
# Poissons Ratio (x) = 0.07338 0.95156
# Poissons Ratio (y) = 0.08899 -0.08619
# Poissons Ratio (z) = 0.53724 -0.04012
#
# Static dielectric constant tensor:
#      x y z
#    x 1.748190 0.000000 0.000000 
#    y 0.000000 1.815100 0.000000 
#    z 0.000000 0.000000 1.742110 
# 
# From -- ./inp_files/64674.got.cif
#   From: 2010.05.17/outbox.cif.g08.bks.cpg/sg74_33_cif.got.tgz:64674.got - 2010.06.03 17:57:02.
