data_PCOD9535494
_publ_section_title
;
Structure prediction by ZEFSAII (Michael W. Deem and Ramdas Pophale) SiO2 
 PCOD9535494
Probable space group: I M M A
;
_chemical_formula_sum "Si O2"
_cell_formula_units_Z 72
_cell_length_a 7.452556
_cell_length_b 17.712362
_cell_length_c 24.903500
_cell_angle_alpha 90.000000
_cell_angle_beta 90.000000
_cell_angle_gamma 90.000000
_cell_volume 3287.321014
_symmetry_space_group_name_H-M "I M M A"
_symmetry_group_IT_number 74
_symmetry_cell_setting 'orthorhombic'
loop_
_space_group_symop_operation_xyz
x,y,z
-x,1/2-y,z
x,-y,-z
-x,1/2+y,-z
-x,-y,-z
x,1/2+y,-z
-x,y,z
x,1/2-y,z
1/2+x,1/2+y,1/2+z
1/2-x,-y,1/2+z
1/2+x,1/2-y,1/2-z
1/2-x,y,1/2-z
1/2-x,1/2-y,1/2-z
1/2+x,y,1/2-z
1/2-x,1/2+y,1/2+z
1/2+x,-y,1/2+z
loop_
_atom_site_type_symbol
_atom_site_label
_atom_site_fract_x
_atom_site_fract_y
_atom_site_fract_z
Si Si1 0.713271 0.834846 0.812699
Si Si2 0.781069 0.120321 0.891573
Si Si3 0.206191 0.951639 0.902964
Si Si4 0.218856 0.333360 0.011638
Si Si5 0.785192 0.750000 0.186951
O O1 0.500000 0.835212 0.820679
O O2 0.780736 0.750000 0.825137
O O3 0.750000 0.849006 0.750000
O O4 0.791500 0.898206 0.851075
O O5 0.733383 0.153788 0.949736
O O6 0.718187 0.175516 0.844311
O O7 0.000000 0.119628 0.888567
O O8 0.716810 0.033819 0.890222
O O9 0.000000 0.966211 0.919258
O O10 0.285723 0.901104 0.950868
O O11 0.277742 0.250000 0.029760
O O12 0.000000 0.333684 0.014466
O O13 0.750000 0.750000 0.250000
O O14 0.000000 0.750000 0.180636
#
# Coordination Sequence:
#
# PCOD9535494 Si02
#       5
#    16  16  16  16   8
#     4  10  21  37  55  74 102 139 175 212 258 314
#     4   9  17  31  50  75 107 140 174 219 268 313
#     4  10  19  30  51  83 110 134 172 219 268 318
#     4   9  15  26  48  78 109 139 174 216 261 312
#     4  10  20  36  56  74 100 140 185 226 269 316
#
# _framework density 21.902332999999999
#
# number of rings (size 3 to 8) (size 9 to 14) (size 15 to 20)
#    0.000    2.444    1.111    2.000    0.000    5.778 
#    0.000    3.333    0.000    4.000    0.000    0.000 
#    0.000    0.000    0.000    0.000    0.000    0.000 
#
# Total GULP energy -201093.210368 kJ/mol
# GULP energy per Si atom -5585.922510 kJ/mol
# Density = 2.185248 g / cm^3
# Si number density = 21.902333 Si / 1000 Ang^3
#
#
#
# Elastic Constant Matrix: (Units=GPa)
#
#
# Indices 1 2 3 4 5 6 
#
# 1 69.3890 5.8595 -6.2777 0.0000 0.0000 0.0000
# 2 5.8595 214.0334 113.8212 0.0000 0.0000 0.0000
# 3 -6.2777 113.8212 145.0960 0.0000 0.0000 0.0000
# 4 0.0000 0.0000 0.0000 64.8377 0.0000 0.0000
# 5 0.0000 0.0000 0.0000 0.0000 11.0967 0.0000
# 6 0.0000 0.0000 0.0000 0.0000 0.0000 -5.4405
#
#
#
# Elastic Compliance Matrix: (Units=1/GPa)
#
#
# Indices 1 2 3 4 5 6 
#
# 1 0.014666 -0.001268 0.001629 0.000000 0.000000 0.000000
# 2 -0.001268 0.008126 -0.006429 0.000000 0.000000 0.000000
# 3 0.001629 -0.006429 0.012006 0.000000 0.000000 0.000000
# 4 0.000000 0.000000 0.000000 0.015423 0.000000 0.000000
# 5 0.000000 0.000000 0.000000 0.000000 0.090117 0.000000
# 6 0.000000 0.000000 0.000000 0.000000 0.000000 -0.183807
#
#
# Mechanical properties :
#
#
# Convention : Reuss Voigt Hill
#
# Bulk Modulus (GPa) = 44.12713 72.81383 58.47048
# Shear Modulus (GPa) = -210.26498 35.10646 -87.57926
#
# Velocity S-wave (km/s) = -9.80865 4.00792 -6.33033
# Velocity P-wave (km/s) = 10.39656 7.39830 5.16496
#
# Compressibility (1/GPa) = 0.02266179
#
# Stress axis : x y z
#
# Youngs Moduli (GPa) = 68.18510 123.06316 83.29211
#
# Poissons Ratio (x) = 0.15603 -0.13569
# Poissons Ratio (y) = 0.08645 0.53551
# Poissons Ratio (z) = -0.11108 0.79121
#
# Static dielectric constant tensor:
#      x y z
#    x 2.301710 0.000000 0.000000 
#    y 0.000000 1.800990 0.000000 
#    z 0.000000 0.000000 1.747610 
# 
# From -- ./inp_files/56685.got.cif
#   From: 2010.05.17/outbox.cif.g08.bks.cpg/sg74_29_cif.got.tgz:56685.got - 2010.06.03 17:57:02.
