data_PCOD9535067
_publ_section_title
;
Structure prediction by ZEFSAII (Michael W. Deem and Ramdas Pophale) SiO2 
 PCOD9535067
Probable space group: I M M A
;
_chemical_formula_sum "Si O2"
_cell_formula_units_Z 112
_cell_length_a 14.624083
_cell_length_b 27.870291
_cell_length_c 15.960892
_cell_angle_alpha 90.000000
_cell_angle_beta 90.000000
_cell_angle_gamma 90.000000
_cell_volume 6505.299642
_symmetry_space_group_name_H-M "I M M A"
_symmetry_group_IT_number 74
_symmetry_cell_setting 'orthorhombic'
loop_
_space_group_symop_operation_xyz
x,y,z
-x,1/2-y,z
x,-y,-z
-x,1/2+y,-z
-x,-y,-z
x,1/2+y,-z
-x,y,z
x,1/2-y,z
1/2+x,1/2+y,1/2+z
1/2-x,-y,1/2+z
1/2+x,1/2-y,1/2-z
1/2-x,y,1/2-z
1/2-x,1/2-y,1/2-z
1/2+x,y,1/2-z
1/2-x,1/2+y,1/2+z
1/2+x,-y,1/2+z
loop_
_atom_site_type_symbol
_atom_site_label
_atom_site_fract_x
_atom_site_fract_y
_atom_site_fract_z
Si Si1 0.892089 0.193391 0.414425
Si Si2 0.222398 0.948481 0.340338
Si Si3 0.211788 0.888536 0.501488
Si Si4 0.605908 0.614106 0.590927
Si Si5 0.395622 0.971704 0.910801
Si Si6 0.400800 0.996192 0.600997
Si Si7 0.611152 0.195811 0.276490
O O1 0.882878 0.250000 0.429692
O O2 0.836579 0.161238 0.478494
O O3 0.859639 0.184824 0.318559
O O4 0.000000 0.181305 0.418785
O O5 0.250000 0.929018 0.250000
O O6 0.194334 0.909500 0.409435
O O7 0.147145 0.991275 0.343970
O O8 0.314697 0.974084 0.371007
O O9 0.319813 0.884577 0.517611
O O10 0.168674 0.926385 0.568771
O O11 0.500000 0.622694 0.565829
O O12 0.608695 0.559696 0.625143
O O13 0.634082 0.654107 0.658637
O O14 0.500000 0.957909 0.890349
O O15 0.396708 0.000000 0.000000
O O16 0.500000 0.013691 0.631276
O O17 0.401645 0.000000 0.500000
O O18 0.500000 0.197447 0.273878
O O19 0.642054 0.250000 0.299361
#
# Coordination Sequence:
#
# PCOD9535067 Si02
#       7
#    16  16  16  16  16  16  16
#     4   9  19  36  57  79 105 137 171 210 263 327
#     4  11  22  35  50  74 105 137 179 222 268 312
#     4  11  20  34  54  76 103 138 180 220 260 312
#     4  10  19  31  52  76 103 143 182 212 253 306
#     4   9  18  34  53  73 100 134 169 216 272 317
#     4  10  18  34  54  71  97 136 182 221 253 304
#     4   8  16  32  51  77 111 137 162 205 258 312
#
# _framework density 17.216733000000001
#
# number of rings (size 3 to 8) (size 9 to 14) (size 15 to 20)
#    0.000    2.286    2.857    1.714    0.000    3.429 
#    0.000    2.857    0.000    0.429    0.000    0.000 
#    0.000    2.286    0.000    0.000    0.000    0.000 
#
# Total GULP energy -312281.698724 kJ/mol
# GULP energy per Si atom -5576.458906 kJ/mol
# Density = 1.717755 g / cm^3
# Si number density = 17.216733 Si / 1000 Ang^3
#
#
#
# Elastic Constant Matrix: (Units=GPa)
#
#
# Indices 1 2 3 4 5 6 
#
# 1 77.3521 18.9556 11.6560 0.0000 0.0000 0.0002
# 2 18.9556 62.6548 33.4859 0.0000 0.0000 0.0017
# 3 11.6560 33.4859 57.0682 0.0000 0.0000 0.0014
# 4 0.0000 0.0000 0.0000 23.1226 0.0000 0.0011
# 5 0.0000 0.0000 0.0000 0.0000 5.6915 -0.0003
# 6 0.0002 0.0017 0.0014 0.0011 -0.0003 -574.2194
#
#
#
# Elastic Compliance Matrix: (Units=1/GPa)
#
#
# Indices 1 2 3 4 5 6 
#
# 1 0.013975 -0.003937 -0.000544 0.000000 0.000000 0.000000
# 2 -0.003937 0.024362 -0.013491 0.000000 0.000000 0.000000
# 3 -0.000544 -0.013491 0.025550 0.000000 0.000000 0.000000
# 4 0.000000 0.000000 0.000000 0.043248 0.000000 0.000000
# 5 0.000000 0.000000 0.000000 0.000000 0.175700 0.000000
# 6 0.000000 0.000000 0.000000 0.000000 0.000000 -0.001741
#
#
# Mechanical properties :
#
#
# Convention : Reuss Voigt Hill
#
# Bulk Modulus (GPa) = 35.78755 36.14115 35.96435
# Shear Modulus (GPa) = 15.32098 -100.21589 -42.44746
#
# Velocity S-wave (km/s) = 2.98634 -7.63772 -4.97074
# Velocity P-wave (km/s) = 5.72036 7.53275 3.46552
#
# Compressibility (1/GPa) = 0.02794268
#
# Stress axis : x y z
#
# Youngs Moduli (GPa) = 71.55792 41.04814 39.13911
#
# Poissons Ratio (x) = 0.16161 0.02130
# Poissons Ratio (y) = 0.28173 0.52801
# Poissons Ratio (z) = 0.03894 0.55376
#
# Static dielectric constant tensor:
#      x y z
#    x 1.631230 0.000000 0.000000 
#    y 0.000000 1.583250 0.000000 
#    z 0.000000 0.000000 1.601430 
# 
# From -- ./inp_files/32894.got.cif
#   From: 2010.05.17/outbox.cif.g08.bks.cpg/sg74_17_cif.got.tgz:32894.got - 2010.06.03 17:57:02.
