data_PCOD9535769
_publ_section_title
;
Structure prediction by ZEFSAII (Michael W. Deem and Ramdas Pophale) SiO2 
 PCOD9535769
Probable space group: I M M A
;
_chemical_formula_sum "Si O2"
_cell_formula_units_Z 88
_cell_length_a 32.431057
_cell_length_b 34.336464
_cell_length_c 5.156169
_cell_angle_alpha 90.000000
_cell_angle_beta 90.000000
_cell_angle_gamma 90.000000
_cell_volume 5741.743879
_symmetry_space_group_name_H-M "I M M A"
_symmetry_group_IT_number 74
_symmetry_cell_setting 'orthorhombic'
loop_
_space_group_symop_operation_xyz
x,y,z
-x,1/2-y,z
x,-y,-z
-x,1/2+y,-z
-x,-y,-z
x,1/2+y,-z
-x,y,z
x,1/2-y,z
1/2+x,1/2+y,1/2+z
1/2-x,-y,1/2+z
1/2+x,1/2-y,1/2-z
1/2-x,y,1/2-z
1/2-x,1/2-y,1/2-z
1/2+x,y,1/2-z
1/2-x,1/2+y,1/2+z
1/2+x,-y,1/2+z
loop_
_atom_site_type_symbol
_atom_site_label
_atom_site_fract_x
_atom_site_fract_y
_atom_site_fract_z
Si Si1 0.549764 0.342887 0.425342
Si Si2 0.049889 0.794167 0.431960
Si Si3 0.500000 0.472433 0.744358
Si Si4 0.871453 0.454511 0.421768
Si Si5 0.725556 0.952905 0.994287
Si Si6 0.582389 0.073815 0.595569
O O1 0.500000 0.348977 0.417809
O O2 0.563400 0.323881 0.155193
O O3 0.570555 0.383674 0.492903
O O4 0.558874 0.312021 0.652093
O O5 0.065151 0.750000 0.464287
O O6 0.000000 0.792467 0.453378
O O7 0.500000 0.500000 0.500000
O O8 0.459300 0.446654 0.701974
O O9 0.500000 0.500000 0.000000
O O10 0.878005 0.500000 0.500000
O O11 0.822663 0.446271 0.439481
O O12 0.890118 0.427758 0.647669
O O13 0.893807 0.447321 0.144566
O O14 0.750000 0.937183 0.750000
O O15 0.750000 0.939114 0.250000
O O16 0.729101 0.000000 0.000000
#
# Coordination Sequence:
#
# PCOD9535769 Si02
#       6
#    16  16   8  16  16  16
#     4  10  19  32  46  64  90 121 156 195 238 278
#     4   9  17  29  48  68  86 109 148 196 238 283
#     4  12  24  36  48  60  83 128 179 220 244 264
#     4  11  22  34  50  68  92 120 162 209 244 286
#     4   9  17  31  50  70  88 110 143 191 248 301
#     4  12  22  35  47  66  92 127 166 206 247 274
#
# _framework density 15.326355
#
# number of rings (size 3 to 8) (size 9 to 14) (size 15 to 20)
#    0.000    1.636    0.909    6.000    0.000    5.091 
#    0.000    0.000    0.000    0.000    0.000    0.000 
#    0.000    0.000    0.000    0.000    0.000  229.091 
#
# Total GULP energy -245225.683588 kJ/mol
# GULP energy per Si atom -5573.310991 kJ/mol
# Density = 1.529147 g / cm^3
# Si number density = 15.326355 Si / 1000 Ang^3
#
#
#
# Elastic Constant Matrix: (Units=GPa)
#
#
# Indices 1 2 3 4 5 6 
#
# 1 79.8066 14.5313 36.6203 0.0000 0.0000 0.0000
# 2 14.5313 42.5861 -5.7686 0.0000 0.0000 0.0000
# 3 36.6203 -5.7686 91.6729 0.0000 0.0000 0.0000
# 4 0.0000 0.0000 0.0000 16.4227 0.0000 0.0000
# 5 0.0000 0.0000 0.0000 0.0000 15.9094 0.0000
# 6 0.0000 0.0000 0.0000 0.0000 0.0000 -0.3752
#
#
#
# Elastic Compliance Matrix: (Units=1/GPa)
#
#
# Indices 1 2 3 4 5 6 
#
# 1 0.017104 -0.006820 -0.007262 0.000000 0.000000 0.000000
# 2 -0.006820 0.026403 0.004386 0.000000 0.000000 0.000000
# 3 -0.007262 0.004386 0.014085 0.000000 0.000000 0.000000
# 4 0.000000 0.000000 0.000000 0.060891 0.000000 0.000000
# 5 0.000000 0.000000 0.000000 0.000000 0.062856 0.000000
# 6 0.000000 0.000000 0.000000 0.000000 0.000000 -2.665064
#
#
# Mechanical properties :
#
#
# Convention : Reuss Voigt Hill
#
# Bulk Modulus (GPa) = 26.17761 33.87018 30.02390
# Shear Modulus (GPa) = -2.03949 17.63689 7.79870
#
# Velocity S-wave (km/s) = -1.15481 3.39596 2.25820
# Velocity P-wave (km/s) = 3.91651 6.12568 5.14116
#
# Compressibility (1/GPa) = 0.03820059
#
# Stress axis : x y z
#
# Youngs Moduli (GPa) = 58.46516 37.87442 70.99683
#
# Poissons Ratio (x) = 0.25830 0.51556
# Poissons Ratio (y) = 0.39873 -0.31138
# Poissons Ratio (z) = 0.42456 -0.16611
#
# Static dielectric constant tensor:
#      x y z
#    x 1.463430 0.000000 0.000000 
#    y 0.000000 1.491990 0.000000 
#    z 0.000000 0.000000 1.505420 
# 
# From -- ./inp_files/4633.got.cif
#   From: 2010.05.17/outbox.cif.g08.bks.cpg/sg74_3_cif.got.tgz:4633.got - 2010.06.03 17:57:02.
