data_PCOD9535664
_publ_section_title
;
Structure prediction by ZEFSAII (Michael W. Deem and Ramdas Pophale) SiO2 
 PCOD9535664
Probable space group: I M M A
;
_chemical_formula_sum "Si O2"
_cell_formula_units_Z 96
_cell_length_a 15.030115
_cell_length_b 31.957106
_cell_length_c 9.260226
_cell_angle_alpha 90.000000
_cell_angle_beta 90.000000
_cell_angle_gamma 90.000000
_cell_volume 4447.862291
_symmetry_space_group_name_H-M "I M M A"
_symmetry_group_IT_number 74
_symmetry_cell_setting 'orthorhombic'
loop_
_space_group_symop_operation_xyz
x,y,z
-x,1/2-y,z
x,-y,-z
-x,1/2+y,-z
-x,-y,-z
x,1/2+y,-z
-x,y,z
x,1/2-y,z
1/2+x,1/2+y,1/2+z
1/2-x,-y,1/2+z
1/2+x,1/2-y,1/2-z
1/2-x,y,1/2-z
1/2-x,1/2-y,1/2-z
1/2+x,y,1/2-z
1/2-x,1/2+y,1/2+z
1/2+x,-y,1/2+z
loop_
_atom_site_type_symbol
_atom_site_label
_atom_site_fract_x
_atom_site_fract_y
_atom_site_fract_z
Si Si1 0.339865 0.297904 0.155238
Si Si2 0.608621 0.542950 0.575480
Si Si3 0.892014 0.128073 0.553259
Si Si4 0.899947 0.204196 0.040149
Si Si5 0.108549 0.959634 0.592315
Si Si6 0.390863 0.122451 0.612288
O O1 0.347433 0.250000 0.101591
O O2 0.250000 0.302187 0.250000
O O3 0.406940 0.303452 0.288964
O O4 0.353723 0.332416 0.033773
O O5 0.634976 0.500000 0.500000
O O6 0.500000 0.544441 0.577196
O O7 0.637862 0.541588 0.741437
O O8 0.638784 0.582478 0.480602
O O9 0.866794 0.084359 0.478939
O O10 0.865603 0.124228 0.720549
O O11 0.000000 0.131810 0.547921
O O12 0.857451 0.250000 0.018621
O O13 0.000000 0.206698 0.981255
O O14 0.857407 0.164678 0.963807
O O15 0.000000 0.961501 0.593026
O O16 0.138433 0.000000 0.500000
O O17 0.500000 0.121406 0.607564
#
# Coordination Sequence:
#
# PCOD9535664 Si02
#       6
#    16  16  16  16  16  16
#     4  10  21  36  52  72  99 132 173 219 266 316
#     4   9  15  23  37  60  96 136 164 192 238 292
#     4  10  19  31  50  76 104 134 170 213 262 315
#     4   9  17  31  51  72  95 125 159 197 246 303
#     4   9  16  26  43  71 105 135 165 203 246 294
#     4   9  17  28  44  70 101 130 164 205 250 304
#
# _framework density 21.583403000000001
#
# number of rings (size 3 to 8) (size 9 to 14) (size 15 to 20)
#    0.000    2.667    0.000    2.500    0.000    8.333 
#    0.000    2.500    0.000    3.000    0.000    7.000 
#    0.000    0.000    0.000    0.000    0.000    0.000 
#
# Total GULP energy -267890.982252 kJ/mol
# GULP energy per Si atom -5581.062130 kJ/mol
# Density = 2.153428 g / cm^3
# Si number density = 21.583403 Si / 1000 Ang^3
#
#
#
# Elastic Constant Matrix: (Units=GPa)
#
#
# Indices 1 2 3 4 5 6 
#
# 1 54.0805 18.4630 16.5228 -0.0001 -0.0007 -0.0039
# 2 18.4630 257.1053 171.3887 -0.0001 0.0004 0.0437
# 3 16.5228 171.3887 211.5520 0.0007 0.0005 0.0786
# 4 -0.0001 -0.0001 0.0007 49.7409 0.0003 0.0424
# 5 -0.0007 0.0004 0.0005 0.0003 4.7568 -0.0659
# 6 -0.0039 0.0437 0.0786 0.0424 -0.0659 700.2343
#
#
#
# Elastic Compliance Matrix: (Units=1/GPa)
#
#
# Indices 1 2 3 4 5 6 
#
# 1 0.019022 -0.000817 -0.000824 0.000000 0.000003 0.000000
# 2 -0.000817 0.008491 -0.006815 0.000000 0.000000 0.000000
# 3 -0.000824 -0.006815 0.010313 0.000000 -0.000001 -0.000001
# 4 0.000000 0.000000 0.000000 0.020104 -0.000001 -0.000001
# 5 0.000003 0.000000 -0.000001 -0.000001 0.210225 0.000020
# 6 0.000000 0.000000 -0.000001 -0.000001 0.000020 0.001428
#
#
# Mechanical properties :
#
#
# Convention : Reuss Voigt Hill
#
# Bulk Modulus (GPa) = 47.81615 103.94298 75.87956
# Shear Modulus (GPa) = 17.03769 172.03729 94.53749
#
# Velocity S-wave (km/s) = 2.81265 8.93763 6.62541
# Velocity P-wave (km/s) = 5.72278 12.44072 9.68302
#
# Compressibility (1/GPa) = 0.02091344
#
# Stress axis : x y z
#
# Youngs Moduli (GPa) = 52.57208 117.76657 96.96593
#
# Poissons Ratio (x) = 0.09617 0.07990
# Poissons Ratio (y) = 0.04293 0.66087
# Poissons Ratio (z) = 0.04332 0.80264
#
# Static dielectric constant tensor:
#      x y z
#    x 1.937800 0.000000 0.000000 
#    y 0.000000 1.740050 0.000000 
#    z 0.000000 0.000000 1.736870 
# 
# From -- ./inp_files/12614.got.cif
#   From: 2010.05.17/outbox.cif.g08.bks.cpg/sg74_7_cif.got.tgz:12614.got - 2010.06.03 17:57:02.
