data_PCOD9535908
_publ_section_title
;
Structure prediction by ZEFSAII (Michael W. Deem and Ramdas Pophale) SiO2 
 PCOD9535908
Probable space group: I M M A
;
_chemical_formula_sum "Si O2"
_cell_formula_units_Z 88
_cell_length_a 10.689368
_cell_length_b 20.621888
_cell_length_c 20.694892
_cell_angle_alpha 90.000000
_cell_angle_beta 90.000000
_cell_angle_gamma 90.000000
_cell_volume 4561.877477
_symmetry_space_group_name_H-M "I M M A"
_symmetry_group_IT_number 74
_symmetry_cell_setting 'orthorhombic'
loop_
_space_group_symop_operation_xyz
x,y,z
-x,1/2-y,z
x,-y,-z
-x,1/2+y,-z
-x,-y,-z
x,1/2+y,-z
-x,y,z
x,1/2-y,z
1/2+x,1/2+y,1/2+z
1/2-x,-y,1/2+z
1/2+x,1/2-y,1/2-z
1/2-x,y,1/2-z
1/2-x,1/2-y,1/2-z
1/2+x,y,1/2-z
1/2-x,1/2+y,1/2+z
1/2+x,-y,1/2+z
loop_
_atom_site_type_symbol
_atom_site_label
_atom_site_fract_x
_atom_site_fract_y
_atom_site_fract_z
Si Si1 0.250000 0.932993 0.750000
Si Si2 0.854627 0.005273 0.121952
Si Si3 0.636758 0.177902 0.173603
Si Si4 0.149753 0.871039 0.066667
Si Si5 0.138724 0.173988 0.791853
Si Si6 0.146037 0.851431 0.927272
O O1 0.209813 0.976305 0.810558
O O2 0.351993 0.881089 0.775921
O O3 0.852031 0.070390 0.079698
O O4 0.000000 0.991214 0.136342
O O5 0.802511 0.943237 0.083872
O O6 0.500000 0.171913 0.141000
O O7 0.639714 0.250000 0.203461
O O8 0.754456 0.172931 0.125181
O O9 0.168457 0.831814 0.132423
O O10 0.000000 0.876725 0.056298
O O11 0.191817 0.838377 0.000193
O O12 0.131011 0.250000 0.775306
O O13 0.250000 0.144063 0.750000
O O14 0.000000 0.145521 0.780888
O O15 0.000000 0.830888 0.916832
#
# Coordination Sequence:
#
# PCOD9535908 Si02
#       6
#     8  16  16  16  16  16
#     4  10  19  32  52  74 103 138 176 212 248 308
#     4   9  17  29  48  74 101 131 167 210 253 297
#     4  10  21  36  53  75 107 142 173 211 260 306
#     4   9  17  30  51  75  99 129 169 209 251 300
#     4   9  18  32  49  69  96 127 160 202 249 296
#     4   9  18  33  53  76 101 131 170 212 252 299
#
# _framework density 19.290303000000002
#
# number of rings (size 3 to 8) (size 9 to 14) (size 15 to 20)
#    0.000    2.727    0.000    1.364    1.273    4.000 
#    0.000    2.727    0.000   12.000    0.000    0.000 
#    0.000    0.000    0.000    0.000    0.000    0.000 
#
# Total GULP energy -244966.194997 kJ/mol
# GULP energy per Si atom -5567.413523 kJ/mol
# Density = 1.924640 g / cm^3
# Si number density = 19.290303 Si / 1000 Ang^3
#
#
#
# Elastic Constant Matrix: (Units=GPa)
#
#
# Indices 1 2 3 4 5 6 
#
# 1 89.3878 7.9281 35.5162 0.0000 0.0000 0.0000
# 2 7.9281 43.1852 -13.5759 0.0000 0.0000 0.0000
# 3 35.5162 -13.5759 79.0277 0.0000 0.0000 0.0000
# 4 0.0000 0.0000 0.0000 -12.2561 0.0000 0.0000
# 5 0.0000 0.0000 0.0000 0.0000 21.8323 0.0000
# 6 0.0000 0.0000 0.0000 0.0000 0.0000 10.7569
#
#
#
# Elastic Compliance Matrix: (Units=1/GPa)
#
#
# Indices 1 2 3 4 5 6 
#
# 1 0.014575 -0.005005 -0.007410 0.000000 0.000000 0.000000
# 2 -0.005005 0.026197 0.006750 0.000000 0.000000 0.000000
# 3 -0.007410 0.006750 0.017144 0.000000 0.000000 0.000000
# 4 0.000000 0.000000 0.000000 -0.081592 0.000000 0.000000
# 5 0.000000 0.000000 0.000000 0.000000 0.045804 0.000000
# 6 0.000000 0.000000 0.000000 0.000000 0.000000 0.092964
#
#
# Mechanical properties :
#
#
# Convention : Reuss Voigt Hill
#
# Bulk Modulus (GPa) = 21.46653 30.14862 25.80758
# Shear Modulus (GPa) = 35.22327 16.18209 25.70268
#
# Velocity S-wave (km/s) = 4.27776 2.89947 3.65419
# Velocity P-wave (km/s) = 5.96249 5.18383 5.58674
#
# Compressibility (1/GPa) = 0.04658414
#
# Stress axis : x y z
#
# Youngs Moduli (GPa) = 68.60845 38.17251 58.33082
#
# Poissons Ratio (x) = 0.19107 0.43225
# Poissons Ratio (y) = 0.34341 -0.39372
# Poissons Ratio (z) = 0.50841 -0.25765
#
# Static dielectric constant tensor:
#      x y z
#    x 1.690090 0.000000 0.000000 
#    y 0.000000 1.707850 0.000000 
#    z 0.000000 0.000000 1.692000 
# 
# From -- ./inp_files/48727.got.cif
#   From: 2010.05.17/outbox.cif.g08.bks.cpg/sg74_25_cif.got.tgz:48727.got - 2010.06.03 17:57:02.
