data_PCOD9535299
_publ_section_title
;
Structure prediction by ZEFSAII (Michael W. Deem and Ramdas Pophale) SiO2 
 PCOD9535299
Probable space group: I M M A
;
_chemical_formula_sum "Si O2"
_cell_formula_units_Z 80
_cell_length_a 28.503141
_cell_length_b 16.109054
_cell_length_c 7.288728
_cell_angle_alpha 90.000000
_cell_angle_beta 90.000000
_cell_angle_gamma 90.000000
_cell_volume 3346.682418
_symmetry_space_group_name_H-M "I M M A"
_symmetry_group_IT_number 74
_symmetry_cell_setting 'orthorhombic'
loop_
_space_group_symop_operation_xyz
x,y,z
-x,1/2-y,z
x,-y,-z
-x,1/2+y,-z
-x,-y,-z
x,1/2+y,-z
-x,y,z
x,1/2-y,z
1/2+x,1/2+y,1/2+z
1/2-x,-y,1/2+z
1/2+x,1/2-y,1/2-z
1/2-x,y,1/2-z
1/2-x,1/2-y,1/2-z
1/2+x,y,1/2-z
1/2-x,1/2+y,1/2+z
1/2+x,-y,1/2+z
loop_
_atom_site_type_symbol
_atom_site_label
_atom_site_fract_x
_atom_site_fract_y
_atom_site_fract_z
Si Si1 0.150678 0.598063 0.537249
Si Si2 0.050420 0.900005 0.534868
Si Si3 0.850180 0.846486 0.953079
Si Si4 0.949249 0.098791 0.027483
Si Si5 0.751158 0.098856 0.031456
O O1 0.150777 0.500000 0.500000
O O2 0.100822 0.633016 0.469136
O O3 0.150293 0.606147 0.758148
O O4 0.200465 0.632119 0.466742
O O5 0.000000 0.868928 0.464488
O O6 0.050593 0.000000 0.500000
O O7 0.050388 0.885181 0.753866
O O8 0.850542 0.750000 0.910672
O O9 0.899641 0.868708 0.046376
O O10 0.800412 0.868136 0.044277
O O11 0.000000 0.129525 0.956861
O O12 0.948668 0.000000 0.000000
O O13 0.750000 0.115931 0.250000
O O14 0.751813 0.000000 0.000000
#
# Coordination Sequence:
#
# PCOD9535299 Si02
#       5
#    16  16  16  16  16
#     4   8  15  27  42  63  90 119 151 188 230 278
#     4   8  13  23  41  65  89 111 141 183 223 262
#     4  10  19  29  45  70  96 121 154 198 243 282
#     4   9  17  29  45  67  93 121 154 189 226 271
#     4   9  17  29  46  67  90 119 156 197 235 278
#
# _framework density 23.904268999999999
#
# number of rings (size 3 to 8) (size 9 to 14) (size 15 to 20)
#    0.000    3.200    0.000    0.600    0.000    4.000 
#    0.000    0.000    0.000    0.600    0.000   71.400 
#    0.000   52.800    0.000    0.000    0.000    0.000 
#
# Total GULP energy -222868.388532 kJ/mol
# GULP energy per Si atom -5571.709713 kJ/mol
# Density = 2.384986 g / cm^3
# Si number density = 23.904269 Si / 1000 Ang^3
#
#
#
# Elastic Constant Matrix: (Units=GPa)
#
#
# Indices 1 2 3 4 5 6 
#
# 1 359.5947 27.2826 20.5355 0.0000 0.0000 0.0000
# 2 27.2826 34.3026 -3.3735 0.0000 0.0000 0.0000
# 3 20.5355 -3.3735 102.3385 0.0000 0.0000 0.0000
# 4 0.0000 0.0000 0.0000 -0.9547 0.0000 0.0000
# 5 0.0000 0.0000 0.0000 0.0000 -18.2280 0.0000
# 6 0.0000 0.0000 0.0000 0.0000 0.0000 84.7508
#
#
#
# Elastic Compliance Matrix: (Units=1/GPa)
#
#
# Indices 1 2 3 4 5 6 
#
# 1 0.003007 -0.002459 -0.000684 0.000000 0.000000 0.000000
# 2 -0.002459 0.031258 0.001524 0.000000 0.000000 0.000000
# 3 -0.000684 0.001524 0.009959 0.000000 0.000000 0.000000
# 4 0.000000 0.000000 0.000000 -1.047488 0.000000 0.000000
# 5 0.000000 0.000000 0.000000 0.000000 -0.054861 0.000000
# 6 0.000000 0.000000 0.000000 0.000000 0.000000 0.011799
#
#
# Mechanical properties :
#
#
# Convention : Reuss Voigt Hill
#
# Bulk Modulus (GPa) = 24.39927 65.01387 44.70657
# Shear Modulus (GPa) = -4.85707 43.23304 19.18798
#
# Velocity S-wave (km/s) = -1.42699 4.25737 2.83627
# Velocity P-wave (km/s) = 2.74120 7.17102 5.42852
#
# Compressibility (1/GPa) = 0.04098484
#
# Stress axis : x y z
#
# Youngs Moduli (GPa) = 332.61042 31.99224 100.41120
#
# Poissons Ratio (x) = 0.07865 0.06872
# Poissons Ratio (y) = 0.81774 -0.15300
# Poissons Ratio (z) = 0.22762 -0.04875
#
# Static dielectric constant tensor:
#      x y z
#    x 2.060580 0.000000 0.000000 
#    y 0.000000 1.773390 0.000000 
#    z 0.000000 0.000000 1.857500 
# 
# From -- ./inp_files/20965.got.cif
#   From: 2010.05.17/outbox.cif.g08.bks.cpg/sg74_11_cif.got.tgz:20965.got - 2010.06.03 17:57:02.
