data_PCOD9535287
_publ_section_title
;
Structure prediction by ZEFSAII (Michael W. Deem and Ramdas Pophale) SiO2 
 PCOD9535287
Probable space group: I M M A
;
_chemical_formula_sum "Si O2"
_cell_formula_units_Z 96
_cell_length_a 7.688991
_cell_length_b 26.164085
_cell_length_c 24.512666
_cell_angle_alpha 90.000000
_cell_angle_beta 90.000000
_cell_angle_gamma 90.000000
_cell_volume 4931.345733
_symmetry_space_group_name_H-M "I M M A"
_symmetry_group_IT_number 74
_symmetry_cell_setting 'orthorhombic'
loop_
_space_group_symop_operation_xyz
x,y,z
-x,1/2-y,z
x,-y,-z
-x,1/2+y,-z
-x,-y,-z
x,1/2+y,-z
-x,y,z
x,1/2-y,z
1/2+x,1/2+y,1/2+z
1/2-x,-y,1/2+z
1/2+x,1/2-y,1/2-z
1/2-x,y,1/2-z
1/2-x,1/2-y,1/2-z
1/2+x,y,1/2-z
1/2-x,1/2+y,1/2+z
1/2+x,-y,1/2+z
loop_
_atom_site_type_symbol
_atom_site_label
_atom_site_fract_x
_atom_site_fract_y
_atom_site_fract_z
Si Si1 0.706423 0.192353 0.811680
Si Si2 0.207472 0.903170 0.116234
Si Si3 0.709092 0.807759 0.687653
Si Si4 0.791058 0.998535 0.186411
Si Si5 0.712569 0.059706 0.499614
Si Si6 0.213193 0.097056 0.118159
O O1 0.500000 0.195567 0.814904
O O2 0.778974 0.250000 0.818696
O O3 0.750000 0.175103 0.750000
O O4 0.762611 0.151449 0.856346
O O5 0.272670 0.912610 0.054875
O O6 0.000000 0.909942 0.113211
O O7 0.276078 0.947915 0.155892
O O8 0.500000 0.805957 0.682985
O O9 0.775934 0.750000 0.678991
O O10 0.750000 0.822758 0.750000
O O11 0.772767 0.850221 0.645439
O O12 0.750000 0.998758 0.250000
O O13 0.729928 0.049385 0.155473
O O14 0.000000 0.998327 0.181510
O O15 0.500000 0.059948 0.499129
O O16 0.768796 0.086667 0.443774
O O17 0.764129 0.000000 0.500000
O O18 0.000000 0.097482 0.118408
#
# Coordination Sequence:
#
# PCOD9535287 Si02
#       6
#    16  16  16  16  16  16
#     4  10  21  37  56  76 101 134 168 205 252 303
#     4  10  19  31  51  77 101 129 167 206 248 298
#     4   9  17  29  46  68  94 124 158 198 243 287
#     4  10  19  29  44  69  98 126 157 198 248 297
#     4   9  15  28  49  72  98 132 169 202 241 292
#     4   9  16  28  46  68  95 126 163 203 241 284
#
# _framework density 19.467303999999999
#
# number of rings (size 3 to 8) (size 9 to 14) (size 15 to 20)
#    0.000    2.500    1.667    1.500    0.000    3.000 
#    0.000    0.833    0.000    5.500    0.000    2.333 
#    0.000    0.000    0.000    0.000    0.000    0.000 
#
# Total GULP energy -267877.632303 kJ/mol
# GULP energy per Si atom -5580.784006 kJ/mol
# Density = 1.942300 g / cm^3
# Si number density = 19.467304 Si / 1000 Ang^3
#
#
#
# Elastic Constant Matrix: (Units=GPa)
#
#
# Indices 1 2 3 4 5 6 
#
# 1 31.4127 4.2776 4.2854 0.0000 0.0000 0.0000
# 2 4.2776 136.8387 121.4905 0.0000 0.0000 0.0000
# 3 4.2854 121.4905 216.8012 0.0000 0.0000 0.0000
# 4 0.0000 0.0000 0.0000 26.3563 0.0000 0.0000
# 5 0.0000 0.0000 0.0000 0.0000 19.3256 0.0000
# 6 0.0000 0.0000 0.0000 0.0000 0.0000 0.7788
#
#
#
# Elastic Compliance Matrix: (Units=1/GPa)
#
#
# Indices 1 2 3 4 5 6 
#
# 1 0.031973 -0.000872 -0.000143 0.000000 0.000000 0.000000
# 2 -0.000872 0.014568 -0.008146 0.000000 0.000000 0.000000
# 3 -0.000143 -0.008146 0.009180 0.000000 0.000000 0.000000
# 4 0.000000 0.000000 0.000000 0.037942 0.000000 0.000000
# 5 0.000000 0.000000 0.000000 0.000000 0.051745 0.000000
# 6 0.000000 0.000000 0.000000 0.000000 0.000000 1.284020
#
#
# Mechanical properties :
#
#
# Convention : Reuss Voigt Hill
#
# Bulk Modulus (GPa) = 26.74000 71.68439 49.21220
# Shear Modulus (GPa) = 3.42415 26.29209 14.85812
#
# Velocity S-wave (km/s) = 1.32768 3.67901 2.76567
# Velocity P-wave (km/s) = 4.01447 7.41281 5.96094
#
# Compressibility (1/GPa) = 0.03739716
#
# Stress axis : x y z
#
# Youngs Moduli (GPa) = 31.27678 68.64586 108.92987
#
# Poissons Ratio (x) = 0.05989 0.01559
# Poissons Ratio (y) = 0.02729 0.88735
# Poissons Ratio (z) = 0.00448 0.55919
#
# Static dielectric constant tensor:
#      x y z
#    x 1.737890 0.000000 0.000000 
#    y 0.000000 1.689470 0.000000 
#    z 0.000000 0.000000 1.676130 
# 
# From -- ./inp_files/57269.got.cif
#   From: 2010.05.17/outbox.cif.g08.bks.cpg/sg74_29_cif.got.tgz:57269.got - 2010.06.03 17:57:02.
