data_PCOD9535888
_publ_section_title
;
Structure prediction by ZEFSAII (Michael W. Deem and Ramdas Pophale) SiO2 
 PCOD9535888
Probable space group: I M M A
;
_chemical_formula_sum "Si O2"
_cell_formula_units_Z 104
_cell_length_a 8.848422
_cell_length_b 26.518268
_cell_length_c 22.154821
_cell_angle_alpha 90.000000
_cell_angle_beta 90.000000
_cell_angle_gamma 90.000000
_cell_volume 5198.514118
_symmetry_space_group_name_H-M "I M M A"
_symmetry_group_IT_number 74
_symmetry_cell_setting 'orthorhombic'
loop_
_space_group_symop_operation_xyz
x,y,z
-x,1/2-y,z
x,-y,-z
-x,1/2+y,-z
-x,-y,-z
x,1/2+y,-z
-x,y,z
x,1/2-y,z
1/2+x,1/2+y,1/2+z
1/2-x,-y,1/2+z
1/2+x,1/2-y,1/2-z
1/2-x,y,1/2-z
1/2-x,1/2-y,1/2-z
1/2+x,y,1/2-z
1/2-x,1/2+y,1/2+z
1/2+x,-y,1/2+z
loop_
_atom_site_type_symbol
_atom_site_label
_atom_site_fract_x
_atom_site_fract_y
_atom_site_fract_z
Si Si1 0.817123 0.613264 0.498227
Si Si2 0.173624 0.621164 0.312032
Si Si3 0.819327 0.308258 0.904195
Si Si4 0.682160 0.455786 0.186913
Si Si5 0.174090 0.531458 0.410996
Si Si6 0.180985 0.851364 0.632388
Si Si7 0.179785 0.750000 0.816922
O O1 0.753417 0.657607 0.456332
O O2 0.763259 0.559406 0.470602
O O3 0.779097 0.626708 0.566556
O O4 0.000000 0.612518 0.492927
O O5 0.250000 0.605157 0.250000
O O6 0.261697 0.667584 0.341925
O O7 0.174912 0.576262 0.361061
O O8 0.000000 0.634834 0.301413
O O9 0.775023 0.250000 0.909977
O O10 0.000000 0.311951 0.907478
O O11 0.500000 0.462544 0.188450
O O12 0.750000 0.474151 0.250000
O O13 0.740494 0.485245 0.127278
O O14 0.714755 0.396722 0.178365
O O15 0.000000 0.517076 0.425037
O O16 0.264128 0.800095 0.648946
O O17 0.000000 0.842390 0.633200
O O18 0.250000 0.750000 0.750000
O O19 0.000000 0.750000 0.812521
#
# Coordination Sequence:
#
# PCOD9535888 Si02
#       7
#    16  16  16  16  16  16   8
#     4   9  19  36  57  82 113 148 188 232 282 340
#     4  10  19  32  51  75 105 142 186 231 283 340
#     4  10  21  35  51  73 103 139 184 236 287 340
#     4  10  20  35  57  85 118 152 191 236 283 339
#     4   8  16  32  54  82 113 148 187 228 277 334
#     4  10  22  39  61  90 119 152 192 237 290 348
#     4  12  26  44  66  88 118 156 195 244 295 346
#
# _framework density 20.005716
#
# number of rings (size 3 to 8) (size 9 to 14) (size 15 to 20)
#    0.000    2.308    0.000    3.462    1.077    4.615 
#    0.000    6.154    0.000    0.000    0.000    6.462 
#    0.000    0.000    0.000    0.000    0.000    0.000 
#
# Total GULP energy -290203.580601 kJ/mol
# GULP energy per Si atom -5580.838088 kJ/mol
# Density = 1.996018 g / cm^3
# Si number density = 20.005716 Si / 1000 Ang^3
#
#
#
# Elastic Constant Matrix: (Units=GPa)
#
#
# Indices 1 2 3 4 5 6 
#
# 1 27.7731 38.7108 36.9640 0.0000 0.0000 0.0000
# 2 38.7108 127.1904 43.3258 0.0000 0.0000 0.0000
# 3 36.9640 43.3258 116.1111 0.0000 0.0000 0.0000
# 4 0.0000 0.0000 0.0000 22.9077 0.0000 0.0000
# 5 0.0000 0.0000 0.0000 0.0000 25.8157 0.0000
# 6 0.0000 0.0000 0.0000 0.0000 0.0000 13.7056
#
#
#
# Elastic Compliance Matrix: (Units=1/GPa)
#
#
# Indices 1 2 3 4 5 6 
#
# 1 0.096033 -0.021554 -0.022530 0.000000 0.000000 0.000000
# 2 -0.021554 0.013845 0.001696 0.000000 0.000000 0.000000
# 3 -0.022530 0.001696 0.015152 0.000000 0.000000 0.000000
# 4 0.000000 0.000000 0.000000 0.043653 0.000000 0.000000
# 5 0.000000 0.000000 0.000000 0.000000 0.038736 0.000000
# 6 0.000000 0.000000 0.000000 0.000000 0.000000 0.072963
#
#
# Mechanical properties :
#
#
# Convention : Reuss Voigt Hill
#
# Bulk Modulus (GPa) = 24.84186 56.56398 40.70292
# Shear Modulus (GPa) = 13.20738 22.62407 17.91573
#
# Velocity S-wave (km/s) = 2.57219 3.36650 2.99579
# Velocity P-wave (km/s) = 4.61149 6.59139 5.68825
#
# Compressibility (1/GPa) = 0.04025464
#
# Stress axis : x y z
#
# Youngs Moduli (GPa) = 10.41304 72.23049 65.99764
#
# Poissons Ratio (x) = 1.55683 1.48691
# Poissons Ratio (y) = 0.22444 -0.11191
# Poissons Ratio (z) = 0.23460 -0.12248
#
# Static dielectric constant tensor:
#      x y z
#    x 1.685920 0.000000 0.000000 
#    y 0.000000 1.713810 0.000000 
#    z 0.000000 0.000000 1.731030 
# 
# From -- ./inp_files/49298.got.cif
#   From: 2010.05.17/outbox.cif.g08.bks.cpg/sg74_25_cif.got.tgz:49298.got - 2010.06.03 17:57:02.
