data_PCOD9535841
_publ_section_title
;
Structure prediction by ZEFSAII (Michael W. Deem and Ramdas Pophale) SiO2 
 PCOD9535841
Probable space group: I M M A
;
_chemical_formula_sum "Si O2"
_cell_formula_units_Z 104
_cell_length_a 28.807784
_cell_length_b 8.017137
_cell_length_c 23.933938
_cell_angle_alpha 90.000000
_cell_angle_beta 90.000000
_cell_angle_gamma 90.000000
_cell_volume 5527.685412
_symmetry_space_group_name_H-M "I M M A"
_symmetry_group_IT_number 74
_symmetry_cell_setting 'orthorhombic'
loop_
_space_group_symop_operation_xyz
x,y,z
-x,1/2-y,z
x,-y,-z
-x,1/2+y,-z
-x,-y,-z
x,1/2+y,-z
-x,y,z
x,1/2-y,z
1/2+x,1/2+y,1/2+z
1/2-x,-y,1/2+z
1/2+x,1/2-y,1/2-z
1/2-x,y,1/2-z
1/2-x,1/2-y,1/2-z
1/2+x,y,1/2-z
1/2-x,1/2+y,1/2+z
1/2+x,-y,1/2+z
loop_
_atom_site_type_symbol
_atom_site_label
_atom_site_fract_x
_atom_site_fract_y
_atom_site_fract_z
Si Si1 0.947254 0.551191 0.063806
Si Si2 0.500000 0.049400 0.934861
Si Si3 0.304209 0.046877 0.259839
Si Si4 0.644191 0.951159 0.626958
Si Si5 0.900098 0.950104 0.435208
Si Si6 0.767246 0.048881 0.062643
Si Si7 0.815526 0.053003 0.360898
O O1 0.949232 0.750000 0.064852
O O2 0.907321 0.499687 0.107483
O O3 0.000000 0.486771 0.075224
O O4 0.935089 0.500000 0.000000
O O5 0.500000 0.250000 0.931670
O O6 0.549568 0.991028 0.912658
O O7 0.500000 0.000000 0.000000
O O8 0.303998 0.250000 0.264708
O O9 0.250000 0.999712 0.250000
O O10 0.333091 0.989190 0.314103
O O11 0.326149 0.990342 0.201162
O O12 0.644712 0.750000 0.628785
O O13 0.681396 0.007346 0.580069
O O14 0.897744 0.750000 0.431662
O O15 0.896644 0.000000 0.500000
O O16 0.858438 0.026228 0.401106
O O17 0.766533 0.250000 0.065097
O O18 0.730148 0.984283 0.108068
O O19 0.754566 0.000000 0.000000
O O20 0.806727 0.250000 0.354143
#
# Coordination Sequence:
#
# PCOD9535841 Si02
#       7
#    16   8  16  16  16  16  16
#     4  10  21  37  57  82 112 143 176 219 273 328
#     4   8  16  30  48  68  92 124 160 198 243 294
#     4   9  16  32  56  77 100 135 177 214 251 299
#     4  10  19  33  56  81 104 138 179 219 260 309
#     4  10  19  32  50  73 100 130 166 207 255 306
#     4  10  20  31  46  72 105 136 166 202 251 305
#     4  10  19  32  51  74 101 134 170 210 253 300
#
# _framework density 18.814385000000001
#
# number of rings (size 3 to 8) (size 9 to 14) (size 15 to 20)
#    0.000    2.308    1.538    1.846    0.000    5.231 
#    0.000    0.769    1.692    0.923    0.000    0.000 
#    0.000    0.000    0.000    0.000    0.000    0.000 
#
# Total GULP energy -289730.633276 kJ/mol
# GULP energy per Si atom -5571.742948 kJ/mol
# Density = 1.877156 g / cm^3
# Si number density = 18.814385 Si / 1000 Ang^3
#
#
#
# Elastic Constant Matrix: (Units=GPa)
#
#
# Indices 1 2 3 4 5 6 
#
# 1 131.7168 4.2619 61.0129 0.0000 0.0000 0.0000
# 2 4.2619 14.3637 9.7550 0.0000 0.0000 0.0000
# 3 61.0129 9.7550 117.6270 0.0000 0.0000 0.0000
# 4 0.0000 0.0000 0.0000 14.5438 0.0000 0.0000
# 5 0.0000 0.0000 0.0000 0.0000 16.3833 0.0000
# 6 0.0000 0.0000 0.0000 0.0000 0.0000 18.1673
#
#
#
# Elastic Compliance Matrix: (Units=1/GPa)
#
#
# Indices 1 2 3 4 5 6 
#
# 1 0.009998 0.000589 -0.005235 0.000000 0.000000 0.000000
# 2 0.000589 0.073810 -0.006426 0.000000 0.000000 0.000000
# 3 -0.005235 -0.006426 0.011750 0.000000 0.000000 0.000000
# 4 0.000000 0.000000 0.000000 0.068758 0.000000 0.000000
# 5 0.000000 0.000000 0.000000 0.000000 0.061038 0.000000
# 6 0.000000 0.000000 0.000000 0.000000 0.000000 0.055044
#
#
# Mechanical properties :
#
#
# Convention : Reuss Voigt Hill
#
# Bulk Modulus (GPa) = 13.62174 45.97411 29.79792
# Shear Modulus (GPa) = 15.28995 22.39739 18.84367
#
# Velocity S-wave (km/s) = 2.85384 3.45402 3.16817
# Velocity P-wave (km/s) = 4.25617 6.35576 5.40882
#
# Compressibility (1/GPa) = 0.07341206
#
# Stress axis : x y z
#
# Youngs Moduli (GPa) = 100.02251 13.54837 85.10929
#
# Poissons Ratio (x) = -0.00797 0.44552
# Poissons Ratio (y) = -0.05887 0.54695
# Poissons Ratio (z) = 0.52358 0.08707
#
# Static dielectric constant tensor:
#      x y z
#    x 1.688400 0.000000 0.000000 
#    y 0.000000 1.689060 0.000000 
#    z 0.000000 0.000000 1.651230 
# 
# From -- ./inp_files/57860.got.cif
#   From: 2010.05.17/outbox.cif.g08.bks.cpg/sg74_29_cif.got.tgz:57860.got - 2010.06.03 17:57:02.
