data_PCOD9535406
_publ_section_title
;
Structure prediction by ZEFSAII (Michael W. Deem and Ramdas Pophale) SiO2 
 PCOD9535406
Probable space group: I M M A
;
_chemical_formula_sum "Si O2"
_cell_formula_units_Z 72
_cell_length_a 19.348806
_cell_length_b 23.305738
_cell_length_c 9.348695
_cell_angle_alpha 90.000000
_cell_angle_beta 90.000000
_cell_angle_gamma 90.000000
_cell_volume 4215.683726
_symmetry_space_group_name_H-M "I M M A"
_symmetry_group_IT_number 74
_symmetry_cell_setting 'orthorhombic'
loop_
_space_group_symop_operation_xyz
x,y,z
-x,1/2-y,z
x,-y,-z
-x,1/2+y,-z
-x,-y,-z
x,1/2+y,-z
-x,y,z
x,1/2-y,z
1/2+x,1/2+y,1/2+z
1/2-x,-y,1/2+z
1/2+x,1/2-y,1/2-z
1/2-x,y,1/2-z
1/2-x,1/2-y,1/2-z
1/2+x,y,1/2-z
1/2-x,1/2+y,1/2+z
1/2+x,-y,1/2+z
loop_
_atom_site_type_symbol
_atom_site_label
_atom_site_fract_x
_atom_site_fract_y
_atom_site_fract_z
Si Si1 0.580134 0.432162 0.471216
Si Si2 0.581079 0.182531 0.015507
Si Si3 0.324382 0.101841 0.204952
Si Si4 0.152815 0.000000 0.500000
Si Si5 0.581524 0.410582 0.784311
O O1 0.578572 0.500000 0.500000
O O2 0.500000 0.413771 0.443707
O O3 0.629554 0.418303 0.339269
O O4 0.607746 0.407574 0.622142
O O5 0.500000 0.174420 0.054861
O O6 0.594676 0.250000 0.007108
O O7 0.630328 0.149308 0.124238
O O8 0.591163 0.149208 0.866137
O O9 0.250000 0.124575 0.250000
O O10 0.310425 0.047586 0.098699
O O11 0.110728 0.961058 0.385698
O O12 0.500000 0.422367 0.771059
#
# Coordination Sequence:
#
# PCOD9535406 Si02
#       5
#    16  16  16   8  16
#     4  10  19  33  53  80 111 140 174 222 276 327
#     4   9  19  38  60  80 105 142 190 234 271 319
#     4  11  23  34  52  79 112 151 183 225 269 330
#     4  10  19  30  46  72 107 142 178 214 270 334
#     4   9  17  30  53  79 103 134 173 224 275 325
#
# _framework density 17.079080999999999
#
# number of rings (size 3 to 8) (size 9 to 14) (size 15 to 20)
#    0.000    2.222    2.222    1.000    1.556    2.222 
#    0.000    4.444    0.000    5.333    0.000    0.000 
#    0.000    0.000    0.000    0.000    0.000    0.000 
#
# Total GULP energy -200562.396988 kJ/mol
# GULP energy per Si atom -5571.177694 kJ/mol
# Density = 1.704021 g / cm^3
# Si number density = 17.079081 Si / 1000 Ang^3
#
#
#
# Elastic Constant Matrix: (Units=GPa)
#
#
# Indices 1 2 3 4 5 6 
#
# 1 61.1169 35.6415 46.8810 0.0000 0.0000 0.0000
# 2 35.6415 98.5052 32.2502 0.0000 0.0000 0.0000
# 3 46.8810 32.2502 110.2258 0.0000 0.0000 0.0000
# 4 0.0000 0.0000 0.0000 13.0708 0.0000 0.0000
# 5 0.0000 0.0000 0.0000 0.0000 -2.1342 0.0000
# 6 0.0000 0.0000 0.0000 0.0000 0.0000 7.2178
#
#
#
# Elastic Compliance Matrix: (Units=1/GPa)
#
#
# Indices 1 2 3 4 5 6 
#
# 1 0.027948 -0.006880 -0.009874 0.000000 0.000000 0.000000
# 2 -0.006880 0.012921 -0.000854 0.000000 0.000000 0.000000
# 3 -0.009874 -0.000854 0.013522 0.000000 0.000000 0.000000
# 4 0.000000 0.000000 0.000000 0.076507 0.000000 0.000000
# 5 0.000000 0.000000 0.000000 0.000000 -0.468561 0.000000
# 6 0.000000 0.000000 0.000000 0.000000 0.000000 0.138547
#
#
# Mechanical properties :
#
#
# Convention : Reuss Voigt Hill
#
# Bulk Modulus (GPa) = 52.15190 55.48815 53.82003
# Shear Modulus (GPa) = -31.74426 13.96921 -8.88753
#
# Velocity S-wave (km/s) = -4.31590 2.86302 -2.28365
# Velocity P-wave (km/s) = 2.40122 6.59459 4.96259
#
# Compressibility (1/GPa) = 0.01917476
#
# Stress axis : x y z
#
# Youngs Moduli (GPa) = 35.78059 77.39546 73.95450
#
# Poissons Ratio (x) = 0.53245 0.73022
# Poissons Ratio (y) = 0.24616 0.06318
# Poissons Ratio (z) = 0.35330 0.06612
#
# Static dielectric constant tensor:
#      x y z
#    x 1.569660 0.000000 0.000000 
#    y 0.000000 1.556740 0.000000 
#    z 0.000000 0.000000 1.620910 
# 
# From -- ./inp_files/10652.got.cif
#   From: 2010.05.17/outbox.cif.g08.bks.cpg/sg74_6_cif.got.tgz:10652.got - 2010.06.03 17:57:02.
