data_PCOD9535310
_publ_section_title
;
Structure prediction by ZEFSAII (Michael W. Deem and Ramdas Pophale) SiO2 
 PCOD9535310
Probable space group: I M M A
;
_chemical_formula_sum "Si O2"
_cell_formula_units_Z 96
_cell_length_a 25.144891
_cell_length_b 22.257175
_cell_length_c 9.378598
_cell_angle_alpha 90.000000
_cell_angle_beta 90.000000
_cell_angle_gamma 90.000000
_cell_volume 5248.772130
_symmetry_space_group_name_H-M "I M M A"
_symmetry_group_IT_number 74
_symmetry_cell_setting 'orthorhombic'
loop_
_space_group_symop_operation_xyz
x,y,z
-x,1/2-y,z
x,-y,-z
-x,1/2+y,-z
-x,-y,-z
x,1/2+y,-z
-x,y,z
x,1/2-y,z
1/2+x,1/2+y,1/2+z
1/2-x,-y,1/2+z
1/2+x,1/2-y,1/2-z
1/2-x,y,1/2-z
1/2-x,1/2-y,1/2-z
1/2+x,y,1/2-z
1/2-x,1/2+y,1/2+z
1/2+x,-y,1/2+z
loop_
_atom_site_type_symbol
_atom_site_label
_atom_site_fract_x
_atom_site_fract_y
_atom_site_fract_z
Si Si1 0.629698 0.684432 0.076477
Si Si2 0.437944 0.936483 0.081451
Si Si3 0.203796 0.030151 0.347629
Si Si4 0.764086 0.834130 0.593569
Si Si5 0.304570 0.140625 0.661053
Si Si6 0.622166 0.474897 0.651540
O O1 0.602097 0.750000 0.069175
O O2 0.596608 0.623241 0.043299
O O3 0.655682 0.675683 0.233599
O O4 0.680611 0.687179 0.972578
O O5 0.500000 0.923412 0.060667
O O6 0.423572 0.949605 0.246377
O O7 0.426764 0.000000 0.000000
O O8 0.250000 0.001869 0.250000
O O9 0.225194 0.095037 0.388045
O O10 0.194355 0.000000 0.500000
O O11 0.152559 0.025006 0.247045
O O12 0.750000 0.811969 0.750000
O O13 0.716035 0.827085 0.481626
O O14 0.250000 0.131068 0.750000
O O15 0.335114 0.078702 0.627227
O O16 0.605006 0.500000 0.500000
#
# Coordination Sequence:
#
# PCOD9535310 Si02
#       6
#    16  16  16  16  16  16
#     4  10  21  37  56  77 105 144 184 218 258 315
#     4  10  22  40  60  81 105 134 173 228 285 326
#     4  11  18  26  43  71 110 150 185 219 258 314
#     4  10  19  29  46  76 111 144 178 215 256 308
#     4   9  18  30  45  71 107 146 181 212 251 305
#     4  11  19  29  49  76 106 139 176 220 272 327
#
# _framework density 18.289992999999999
#
# number of rings (size 3 to 8) (size 9 to 14) (size 15 to 20)
#    0.000    1.833    0.000    8.500    0.000    4.000 
#    0.000    0.833    0.000    0.000    0.000    0.000 
#    0.000    8.000    0.000    0.000    0.000    0.000 
#
# Total GULP energy -267495.328798 kJ/mol
# GULP energy per Si atom -5572.819350 kJ/mol
# Density = 1.824836 g / cm^3
# Si number density = 18.289993 Si / 1000 Ang^3
#
#
#
# Elastic Constant Matrix: (Units=GPa)
#
#
# Indices 1 2 3 4 5 6 
#
# 1 80.3217 38.7070 32.0773 0.0000 0.0000 0.0000
# 2 38.7070 115.3995 40.7442 0.0000 0.0000 0.0000
# 3 32.0773 40.7442 129.0810 0.0000 0.0000 0.0000
# 4 0.0000 0.0000 0.0000 -18.1051 0.0000 0.0000
# 5 0.0000 0.0000 0.0000 0.0000 17.5125 0.0000
# 6 0.0000 0.0000 0.0000 0.0000 0.0000 -25.0323
#
#
#
# Elastic Compliance Matrix: (Units=1/GPa)
#
#
# Indices 1 2 3 4 5 6 
#
# 1 0.015532 -0.004329 -0.002493 0.000000 0.000000 0.000000
# 2 -0.004329 0.010959 -0.002383 0.000000 0.000000 0.000000
# 3 -0.002493 -0.002383 0.009119 0.000000 0.000000 0.000000
# 4 0.000000 0.000000 0.000000 -0.055233 0.000000 0.000000
# 5 0.000000 0.000000 0.000000 0.000000 0.057102 0.000000
# 6 0.000000 0.000000 0.000000 0.000000 0.000000 -0.039948
#
#
# Mechanical properties :
#
#
# Convention : Reuss Voigt Hill
#
# Bulk Modulus (GPa) = 58.14579 60.87324 59.50952
# Shear Modulus (GPa) = 230.67474 9.09326 119.88400
#
# Velocity S-wave (km/s) = 11.24253 2.23215 8.10485
# Velocity P-wave (km/s) = 14.15578 6.32439 10.96321
#
# Compressibility (1/GPa) = 0.01719815
#
# Stress axis : x y z
#
# Youngs Moduli (GPa) = 64.38341 91.24744 109.66169
#
# Poissons Ratio (x) = 0.39505 0.27341
# Poissons Ratio (y) = 0.27874 0.26137
# Poissons Ratio (z) = 0.16052 0.21748
#
# Static dielectric constant tensor:
#      x y z
#    x 1.621810 0.000000 0.000000 
#    y 0.000000 1.690540 0.000000 
#    z 0.000000 0.000000 1.646190 
# 
# From -- ./inp_files/15326.got.cif
#   From: 2010.05.17/outbox.cif.g08.bks.cpg/sg74_8_cif.got.tgz:15326.got - 2010.06.03 17:57:02.
