data_PCOD9535063
_publ_section_title
;
Structure prediction by ZEFSAII (Michael W. Deem and Ramdas Pophale) SiO2 
 PCOD9535063
Probable space group: I M M A
;
_chemical_formula_sum "Si O2"
_cell_formula_units_Z 104
_cell_length_a 23.490742
_cell_length_b 24.487689
_cell_length_c 10.111731
_cell_angle_alpha 90.000000
_cell_angle_beta 90.000000
_cell_angle_gamma 90.000000
_cell_volume 5816.611313
_symmetry_space_group_name_H-M "I M M A"
_symmetry_group_IT_number 74
_symmetry_cell_setting 'orthorhombic'
loop_
_space_group_symop_operation_xyz
x,y,z
-x,1/2-y,z
x,-y,-z
-x,1/2+y,-z
-x,-y,-z
x,1/2+y,-z
-x,y,z
x,1/2-y,z
1/2+x,1/2+y,1/2+z
1/2-x,-y,1/2+z
1/2+x,1/2-y,1/2-z
1/2-x,y,1/2-z
1/2-x,1/2-y,1/2-z
1/2+x,y,1/2-z
1/2-x,1/2+y,1/2+z
1/2+x,-y,1/2+z
loop_
_atom_site_type_symbol
_atom_site_label
_atom_site_fract_x
_atom_site_fract_y
_atom_site_fract_z
Si Si1 0.747394 0.387751 0.528604
Si Si2 0.661517 0.476682 0.863554
Si Si3 0.431674 0.187138 0.479793
Si Si4 0.250000 0.438531 0.250000
Si Si5 0.065387 0.816325 0.680401
Si Si6 0.868853 0.382499 0.807746
Si Si7 0.650016 0.685449 0.048616
O O1 0.789698 0.434258 0.586260
O O2 0.733715 0.404121 0.378914
O O3 0.692717 0.383927 0.621054
O O4 0.785364 0.333544 0.527196
O O5 0.696218 0.523897 0.789276
O O6 0.623342 0.441683 0.761925
O O7 0.634881 0.500000 0.000000
O O8 0.500000 0.189373 0.481233
O O9 0.411416 0.250000 0.506772
O O10 0.415390 0.171154 0.329711
O O11 0.410484 0.142466 0.583203
O O12 0.063859 0.750000 0.674110
O O13 0.109479 0.835746 0.569701
O O14 0.000000 0.835004 0.659095
O O15 0.869129 0.340528 0.686148
O O16 0.645621 0.750000 0.053312
#
# Coordination Sequence:
#
# PCOD9535063 Si02
#       7
#    16  16  16   8  16  16  16
#     4  10  21  31  50  80 108 138 179 213 267 330
#     4   9  17  33  52  74 107 134 174 218 267 320
#     4   9  19  35  54  77 108 143 182 227 270 316
#     4  10  18  34  53  72 105 138 172 226 258 322
#     4   8  16  33  53  71  98 141 185 220 257 307
#     4  11  20  32  52  81 107 138 180 225 267 321
#     4  10  20  33  48  72 111 147 174 213 263 323
#
# _framework density 17.879826000000001
#
# number of rings (size 3 to 8) (size 9 to 14) (size 15 to 20)
#    0.000    2.462    1.538    2.769    2.154    2.462 
#    0.000    1.923    0.000    0.462    0.000    5.385 
#    0.000    0.000    0.000    0.000    0.000    0.000 
#
# Total GULP energy -289764.198656 kJ/mol
# GULP energy per Si atom -5572.388436 kJ/mol
# Density = 1.783913 g / cm^3
# Si number density = 17.879826 Si / 1000 Ang^3
#
#
#
# Elastic Constant Matrix: (Units=GPa)
#
#
# Indices 1 2 3 4 5 6 
#
# 1 22.2884 13.6469 31.8887 0.0000 0.0000 0.0000
# 2 13.6469 36.0778 40.8996 0.0000 0.0000 0.0000
# 3 31.8887 40.8996 146.5105 0.0000 0.0000 0.0000
# 4 0.0000 0.0000 0.0000 28.5501 0.0000 0.0000
# 5 0.0000 0.0000 0.0000 0.0000 16.9516 0.0000
# 6 0.0000 0.0000 0.0000 0.0000 0.0000 14.9186
#
#
#
# Elastic Compliance Matrix: (Units=1/GPa)
#
#
# Indices 1 2 3 4 5 6 
#
# 1 0.069277 -0.013330 -0.011357 0.000000 0.000000 0.000000
# 2 -0.013330 0.043116 -0.009135 0.000000 0.000000 0.000000
# 3 -0.011357 -0.009135 0.011848 0.000000 0.000000 0.000000
# 4 0.000000 0.000000 0.000000 0.035026 0.000000 0.000000
# 5 0.000000 0.000000 0.000000 0.000000 0.058991 0.000000
# 6 0.000000 0.000000 0.000000 0.000000 0.000000 0.067030
#
#
# Mechanical properties :
#
#
# Convention : Reuss Voigt Hill
#
# Bulk Modulus (GPa) = 17.66892 41.97189 29.82040
# Shear Modulus (GPa) = 13.44816 19.98016 16.71416
#
# Velocity S-wave (km/s) = 2.74550 3.34648 3.06078
# Velocity P-wave (km/s) = 4.46697 6.20140 5.40422
#
# Compressibility (1/GPa) = 0.05659657
#
# Stress axis : x y z
#
# Youngs Moduli (GPa) = 14.43474 23.19341 84.40597
#
# Poissons Ratio (x) = 0.30916 0.95863
# Poissons Ratio (y) = 0.19241 0.77103
# Poissons Ratio (z) = 0.16394 0.21187
#
# Static dielectric constant tensor:
#      x y z
#    x 1.598730 0.000000 0.000000 
#    y 0.000000 1.637830 0.000000 
#    z 0.000000 0.000000 1.635710 
# 
# From -- ./inp_files/15396.got.cif
#   From: 2010.05.17/outbox.cif.g08.bks.cpg/sg74_8_cif.got.tgz:15396.got - 2010.06.03 17:57:02.
