data_PCOD9535120
_publ_section_title
;
Structure prediction by ZEFSAII (Michael W. Deem and Ramdas Pophale) SiO2 
 PCOD9535120
Probable space group: I M M A
;
_chemical_formula_sum "Si O2"
_cell_formula_units_Z 68
_cell_length_a 17.563523
_cell_length_b 14.885909
_cell_length_c 11.899701
_cell_angle_alpha 90.000000
_cell_angle_beta 90.000000
_cell_angle_gamma 90.000000
_cell_volume 3111.164987
_symmetry_space_group_name_H-M "I M M A"
_symmetry_group_IT_number 74
_symmetry_cell_setting 'orthorhombic'
loop_
_space_group_symop_operation_xyz
x,y,z
-x,1/2-y,z
x,-y,-z
-x,1/2+y,-z
-x,-y,-z
x,1/2+y,-z
-x,y,z
x,1/2-y,z
1/2+x,1/2+y,1/2+z
1/2-x,-y,1/2+z
1/2+x,1/2-y,1/2-z
1/2-x,y,1/2-z
1/2-x,1/2-y,1/2-z
1/2+x,y,1/2-z
1/2-x,1/2+y,1/2+z
1/2+x,-y,1/2+z
loop_
_atom_site_type_symbol
_atom_site_label
_atom_site_fract_x
_atom_site_fract_y
_atom_site_fract_z
Si Si1 0.618294 0.101134 0.011378
Si Si2 0.413903 0.859851 0.509828
Si Si3 0.836583 0.142316 0.240413
Si Si4 0.500000 0.250000 0.939020
Si Si5 0.231717 0.641047 0.123464
O O1 0.621067 0.125178 0.142963
O O2 0.566233 0.171794 0.947008
O O3 0.703429 0.107690 0.961023
O O4 0.591145 0.000000 0.000000
O O5 0.500000 0.889941 0.489356
O O6 0.415407 0.750000 0.509912
O O7 0.382026 0.889593 0.631148
O O8 0.351615 0.887338 0.417995
O O9 0.830588 0.250000 0.226884
O O10 0.750000 0.107268 0.250000
O O11 0.233945 0.750000 0.119480
O O12 0.250000 0.612763 0.250000
#
# Coordination Sequence:
#
# PCOD9535120 Si02
#       5
#    16  16  16   4  16
#     4  12  25  42  68  99 132 178 227 282 350 412
#     4   9  18  32  60  99 132 173 229 281 339 401
#     4  10  18  34  65  96 132 175 221 279 347 400
#     4  12  26  48  64  94 140 172 224 294 340 420
#     4  10  20  41  65  92 132 186 231 272 338 415
#
# _framework density 21.856763000000001
#
# number of rings (size 3 to 8) (size 9 to 14) (size 15 to 20)
#    0.000    1.647    4.706    0.353    1.647    0.941 
#    2.118    0.000    0.000    0.706    0.000    0.000 
#    0.000    0.000    0.000    0.000    0.000    0.000 
#
# Total GULP energy -189616.113207 kJ/mol
# GULP energy per Si atom -5576.944506 kJ/mol
# Density = 2.180702 g / cm^3
# Si number density = 21.856763 Si / 1000 Ang^3
#
#
#
# Elastic Constant Matrix: (Units=GPa)
#
#
# Indices 1 2 3 4 5 6 
#
# 1 190.9828 29.0234 61.2111 0.0000 0.0000 0.0000
# 2 29.0234 99.1810 -6.5722 0.0000 0.0000 0.0000
# 3 61.2111 -6.5722 122.1999 0.0000 0.0000 0.0000
# 4 0.0000 0.0000 0.0000 -52.9458 0.0000 0.0000
# 5 0.0000 0.0000 0.0000 0.0000 16.3007 0.0000
# 6 0.0000 0.0000 0.0000 0.0000 0.0000-6913.2753
#
#
#
# Elastic Compliance Matrix: (Units=1/GPa)
#
#
# Indices 1 2 3 4 5 6 
#
# 1 0.006678 -0.002183 -0.003462 0.000000 0.000000 0.000000
# 2 -0.002183 0.010833 0.001676 0.000000 0.000000 0.000000
# 3 -0.003462 0.001676 0.010008 0.000000 0.000000 0.000000
# 4 0.000000 0.000000 0.000000 -0.018887 0.000000 0.000000
# 5 0.000000 0.000000 0.000000 0.000000 0.061347 0.000000
# 6 0.000000 0.000000 0.000000 0.000000 0.000000 -0.000145
#
#
# Mechanical properties :
#
#
# Convention : Reuss Voigt Hill
#
# Bulk Modulus (GPa) = 51.07496 64.40980 57.74238
# Shear Modulus (GPa) = 59.31314 -1368.07066 -654.37876
#
# Velocity S-wave (km/s) = 5.21499 -25.04565 -17.32178
# Velocity P-wave (km/s) = 7.72530 28.40504 19.32829
#
# Compressibility (1/GPa) = 0.01957907
#
# Stress axis : x y z
#
# Youngs Moduli (GPa) = 149.75475 92.31376 99.92235
#
# Poissons Ratio (x) = 0.20157 0.34596
# Poissons Ratio (y) = 0.32699 -0.16750
# Poissons Ratio (z) = 0.51850 -0.15475
#
# Static dielectric constant tensor:
#      x y z
#    x 2.141940 0.000000 0.000000 
#    y 0.000000 1.790020 0.000000 
#    z 0.000000 0.000000 1.787430 
# 
# From -- ./inp_files/21864.got.cif
#   From: 2010.05.17/outbox.cif.g08.bks.cpg/sg74_11_cif.got.tgz:21864.got - 2010.06.03 17:57:02.
