data_PCOD9535090
_publ_section_title
;
Structure prediction by ZEFSAII (Michael W. Deem and Ramdas Pophale) SiO2 
 PCOD9535090
Probable space group: I M M A
;
_chemical_formula_sum "Si O2"
_cell_formula_units_Z 104
_cell_length_a 26.561502
_cell_length_b 8.722498
_cell_length_c 21.356421
_cell_angle_alpha 90.000000
_cell_angle_beta 90.000000
_cell_angle_gamma 90.000000
_cell_volume 4947.912171
_symmetry_space_group_name_H-M "I M M A"
_symmetry_group_IT_number 74
_symmetry_cell_setting 'orthorhombic'
loop_
_space_group_symop_operation_xyz
x,y,z
-x,1/2-y,z
x,-y,-z
-x,1/2+y,-z
-x,-y,-z
x,1/2+y,-z
-x,y,z
x,1/2-y,z
1/2+x,1/2+y,1/2+z
1/2-x,-y,1/2+z
1/2+x,1/2-y,1/2-z
1/2-x,y,1/2-z
1/2-x,1/2-y,1/2-z
1/2+x,y,1/2-z
1/2-x,1/2+y,1/2+z
1/2+x,-y,1/2+z
loop_
_atom_site_type_symbol
_atom_site_label
_atom_site_fract_x
_atom_site_fract_y
_atom_site_fract_z
Si Si1 0.807521 0.432263 0.618860
Si Si2 0.000000 0.431504 0.928926
Si Si3 0.599521 0.929368 0.568954
Si Si4 0.442933 0.564583 0.206164
Si Si5 0.339761 0.430186 0.248214
Si Si6 0.195308 0.070455 0.870479
Si Si7 0.913383 0.068451 0.565087
O O1 0.811019 0.250000 0.635324
O O2 0.818636 0.532793 0.679702
O O3 0.750000 0.460539 0.600139
O O4 0.853316 0.462579 0.571786
O O5 0.948587 0.491177 0.898999
O O6 0.000000 0.250000 0.932285
O O7 0.000000 0.500000 0.000000
O O8 0.590055 0.750000 0.564937
O O9 0.603709 0.000000 0.500000
O O10 0.651411 0.967554 0.601707
O O11 0.500000 0.528140 0.225854
O O12 0.436341 0.750000 0.209364
O O13 0.397941 0.486536 0.244820
O O14 0.436195 0.519281 0.132377
O O15 0.337090 0.250000 0.262441
O O16 0.307330 0.527899 0.297379
O O17 0.183663 0.250000 0.879473
O O18 0.921133 0.250000 0.561950
O O19 0.932524 0.000000 0.500000
#
# Coordination Sequence:
#
# PCOD9535090 Si02
#       7
#    16   8  16  16  16  16  16
#     4   9  20  38  58  78 108 150 190 230 276 331
#     4  10  18  34  58  80 104 140 180 216 263 320
#     4  11  22  38  58  83 114 146 183 228 277 330
#     4   9  19  38  60  79 107 150 194 234 280 335
#     4  11  22  36  56  84 114 143 181 232 287 341
#     4  11  22  38  59  83 110 146 191 233 278 334
#     4   9  18  33  53  81 113 146 186 229 276 330
#
# _framework density 21.018965000000001
#
# number of rings (size 3 to 8) (size 9 to 14) (size 15 to 20)
#    0.000    2.000    0.000    6.231    0.000    6.769 
#    1.385    1.538    0.000    0.000    0.000    0.000 
#    0.000    0.000    0.000    0.000    0.000    0.000 
#
# Total GULP energy -290375.963335 kJ/mol
# GULP energy per Si atom -5584.153141 kJ/mol
# Density = 2.097113 g / cm^3
# Si number density = 21.018965 Si / 1000 Ang^3
#
#
#
# Elastic Constant Matrix: (Units=GPa)
#
#
# Indices 1 2 3 4 5 6 
#
# 1 98.1097 29.1867 -14.8075 0.0000 0.0000 0.0000
# 2 29.1867 77.8509 -2.2245 0.0000 0.0000 0.0000
# 3 -14.8075 -2.2245 17.1343 0.0000 0.0000 0.0000
# 4 0.0000 0.0000 0.0000 24.8410 0.0000 0.0000
# 5 0.0000 0.0000 0.0000 0.0000 27.3506 0.0000
# 6 0.0000 0.0000 0.0000 0.0000 0.0000 34.5527
#
#
#
# Elastic Compliance Matrix: (Units=1/GPa)
#
#
# Indices 1 2 3 4 5 6 
#
# 1 0.013205 -0.004642 0.010809 0.000000 0.000000 0.000000
# 2 -0.004642 0.014525 -0.002126 0.000000 0.000000 0.000000
# 3 0.010809 -0.002126 0.067428 0.000000 0.000000 0.000000
# 4 0.000000 0.000000 0.000000 0.040256 0.000000 0.000000
# 5 0.000000 0.000000 0.000000 0.000000 0.036562 0.000000
# 6 0.000000 0.000000 0.000000 0.000000 0.000000 0.028941
#
#
# Mechanical properties :
#
#
# Convention : Reuss Voigt Hill
#
# Bulk Modulus (GPa) = 9.68611 24.15603 16.92107
# Shear Modulus (GPa) = 22.00248 29.41153 25.70701
#
# Velocity S-wave (km/s) = 3.23893 3.74476 3.50099
# Velocity P-wave (km/s) = 4.31344 5.49682 4.94069
#
# Compressibility (1/GPa) = 0.10324062
#
# Stress axis : x y z
#
# Youngs Moduli (GPa) = 75.72922 68.84899 14.83068
#
# Poissons Ratio (x) = 0.31958 -0.16031
# Poissons Ratio (y) = 0.35152 0.03153
# Poissons Ratio (z) = -0.81857 0.14635
#
# Static dielectric constant tensor:
#      x y z
#    x 1.805870 0.000000 0.000000 
#    y 0.000000 1.708550 0.000000 
#    z 0.000000 0.000000 1.825920 
# 
# From -- ./inp_files/55229.got.cif
#   From: 2010.05.17/outbox.cif.g08.bks.cpg/sg74_28_cif.got.tgz:55229.got - 2010.06.03 17:57:02.
