data_PCOD9535000
_publ_section_title
;
Structure prediction by ZEFSAII (Michael W. Deem and Ramdas Pophale) SiO2 
 PCOD9535000
Probable space group: I M M A
;
_chemical_formula_sum "Si O2"
_cell_formula_units_Z 68
_cell_length_a 14.341286
_cell_length_b 7.444531
_cell_length_c 31.096476
_cell_angle_alpha 90.000000
_cell_angle_beta 90.000000
_cell_angle_gamma 90.000000
_cell_volume 3319.988772
_symmetry_space_group_name_H-M "I M M A"
_symmetry_group_IT_number 74
_symmetry_cell_setting 'orthorhombic'
loop_
_space_group_symop_operation_xyz
x,y,z
-x,1/2-y,z
x,-y,-z
-x,1/2+y,-z
-x,-y,-z
x,1/2+y,-z
-x,y,z
x,1/2-y,z
1/2+x,1/2+y,1/2+z
1/2-x,-y,1/2+z
1/2+x,1/2-y,1/2-z
1/2-x,y,1/2-z
1/2-x,1/2-y,1/2-z
1/2+x,y,1/2-z
1/2-x,1/2+y,1/2+z
1/2+x,-y,1/2+z
loop_
_atom_site_type_symbol
_atom_site_label
_atom_site_fract_x
_atom_site_fract_y
_atom_site_fract_z
Si Si1 0.798632 0.531755 0.706294
Si Si2 0.834221 0.955805 0.873106
Si Si3 0.500000 0.250000 0.623887
Si Si4 0.797957 0.963931 0.450915
Si Si5 0.500000 0.967473 0.822990
Si Si6 0.500000 0.460547 0.924457
O O1 0.802227 0.750000 0.708056
O O2 0.750000 0.469018 0.750000
O O3 0.735756 0.486762 0.665208
O O4 0.904659 0.469830 0.699269
O O5 0.864198 0.750000 0.864334
O O6 0.918547 0.092850 0.876075
O O7 0.774029 0.957992 0.916786
O O8 0.798807 0.750000 0.443559
O O9 0.902897 0.035241 0.442498
O O10 0.771489 0.000000 0.500000
O O11 0.500000 0.750000 0.821971
O O12 0.500000 0.020499 0.872990
O O13 0.500000 0.250000 0.935758
#
# Coordination Sequence:
#
# PCOD9535000 Si02
#       6
#    16  16   4  16   8   8
#     4   9  19  36  63  97 130 171 221 269 327 393
#     4  11  23  43  70  95 128 176 221 280 341 395
#     4  12  26  46  68  90 130 170 228 286 336 402
#     4  11  22  39  64  97 136 171 215 269 327 399
#     4  10  18  32  60  92 127 167 209 262 316 386
#     4  10  21  35  60  93 136 178 207 256 324 393
#
# _framework density 20.481995999999999
#
# number of rings (size 3 to 8) (size 9 to 14) (size 15 to 20)
#    0.000    1.647    3.529    1.412    0.000    1.882 
#    0.000    4.706    2.588    0.000    0.000    0.000 
#    0.000    0.000    0.000    0.000    0.000    0.000 
#
# Total GULP energy -189523.495137 kJ/mol
# GULP energy per Si atom -5574.220445 kJ/mol
# Density = 2.043538 g / cm^3
# Si number density = 20.481996 Si / 1000 Ang^3
#
#
#
# Elastic Constant Matrix: (Units=GPa)
#
#
# Indices 1 2 3 4 5 6 
#
# 1 192.3882 51.6158 80.0998 0.0000 0.0000 0.0000
# 2 51.6158 110.0192 0.1597 0.0000 0.0000 0.0000
# 3 80.0998 0.1597 150.3431 0.0000 0.0000 0.0000
# 4 0.0000 0.0000 0.0000 15.3001 0.0000 0.0000
# 5 0.0000 0.0000 0.0000 0.0000 -9.5382 0.0000
# 6 0.0000 0.0000 0.0000 0.0000 0.0000 42.5639
#
#
#
# Elastic Compliance Matrix: (Units=1/GPa)
#
#
# Indices 1 2 3 4 5 6 
#
# 1 0.007963 -0.003730 -0.004239 0.000000 0.000000 0.000000
# 2 -0.003730 0.010836 0.001976 0.000000 0.000000 0.000000
# 3 -0.004239 0.001976 0.008908 0.000000 0.000000 0.000000
# 4 0.000000 0.000000 0.000000 0.065359 0.000000 0.000000
# 5 0.000000 0.000000 0.000000 0.000000 -0.104842 0.000000
# 6 0.000000 0.000000 0.000000 0.000000 0.000000 0.023494
#
#
# Mechanical properties :
#
#
# Convention : Reuss Voigt Hill
#
# Bulk Modulus (GPa) = 63.60718 79.61122 71.60920
# Shear Modulus (GPa) = 172.74092 31.05684 101.89888
#
# Velocity S-wave (km/s) = 9.19353 3.89819 7.06105
# Velocity P-wave (km/s) = 11.99238 7.69509 10.07551
#
# Compressibility (1/GPa) = 0.01572150
#
# Stress axis : x y z
#
# Youngs Moduli (GPa) = 125.57664 92.28226 112.26304
#
# Poissons Ratio (x) = 0.34420 0.47585
# Poissons Ratio (y) = 0.46838 -0.22179
# Poissons Ratio (z) = 0.53228 -0.18232
#
# Static dielectric constant tensor:
#      x y z
#    x 1.698230 0.000000 0.000000 
#    y 0.000000 1.771330 0.000000 
#    z 0.000000 0.000000 1.687300 
# 
# From -- ./inp_files/66675.got.cif
#   From: 2010.05.17/outbox.cif.g08.bks.cpg/sg74_34_cif.got.tgz:66675.got - 2010.06.03 17:57:02.
