data_PCOD9535813
_publ_section_title
;
Structure prediction by ZEFSAII (Michael W. Deem and Ramdas Pophale) SiO2 
 PCOD9535813
Probable space group: I M M A
;
_chemical_formula_sum "Si O2"
_cell_formula_units_Z 96
_cell_length_a 19.786610
_cell_length_b 16.796365
_cell_length_c 17.693966
_cell_angle_alpha 90.000000
_cell_angle_beta 90.000000
_cell_angle_gamma 90.000000
_cell_volume 5880.467931
_symmetry_space_group_name_H-M "I M M A"
_symmetry_group_IT_number 74
_symmetry_cell_setting 'orthorhombic'
loop_
_space_group_symop_operation_xyz
x,y,z
-x,1/2-y,z
x,-y,-z
-x,1/2+y,-z
-x,-y,-z
x,1/2+y,-z
-x,y,z
x,1/2-y,z
1/2+x,1/2+y,1/2+z
1/2-x,-y,1/2+z
1/2+x,1/2-y,1/2-z
1/2-x,y,1/2-z
1/2-x,1/2-y,1/2-z
1/2+x,y,1/2-z
1/2-x,1/2+y,1/2+z
1/2+x,-y,1/2+z
loop_
_atom_site_type_symbol
_atom_site_label
_atom_site_fract_x
_atom_site_fract_y
_atom_site_fract_z
Si Si1 0.923791 0.431210 0.812318
Si Si2 0.812614 0.159072 0.193662
Si Si3 0.809335 0.494184 0.090274
Si Si4 0.846504 0.486645 0.589092
Si Si5 0.919223 0.159917 0.665321
Si Si6 0.923183 0.411173 0.293474
O O1 0.865620 0.449406 0.872046
O O2 0.907153 0.361053 0.753547
O O3 0.925942 0.509722 0.759046
O O4 0.000000 0.419959 0.843318
O O5 0.804410 0.250000 0.167179
O O6 0.750000 0.139650 0.250000
O O7 0.817262 0.094167 0.126773
O O8 0.879259 0.150466 0.245512
O O9 0.732483 0.517701 0.110212
O O10 0.816194 0.500000 0.000000
O O11 0.851844 0.500000 0.500000
O O12 0.882194 0.405680 0.615307
O O13 0.882864 0.559069 0.633018
O O14 0.899227 0.250000 0.648019
O O15 0.000000 0.151639 0.654375
O O16 0.000000 0.386583 0.309742
#
# Coordination Sequence:
#
# PCOD9535813 Si02
#       6
#    16  16  16  16  16  16
#     4   8  16  31  52  73  97 130 169 212 253 301
#     4  10  19  34  55  74  98 137 173 209 259 302
#     4  10  20  34  52  78 104 136 173 208 249 305
#     4  10  19  32  49  73 104 141 174 208 251 307
#     4   9  18  33  52  74 100 131 169 213 258 301
#     4   9  17  30  50  75  98 128 172 214 248 298
#
# _framework density 16.325230999999999
#
# number of rings (size 3 to 8) (size 9 to 14) (size 15 to 20)
#    0.000    2.667    1.667    1.500    0.000    2.000 
#    0.000    6.667    0.000    0.000    0.000    0.000 
#    0.000    0.000    0.000    0.000    0.000    0.000 
#
# Total GULP energy -267306.139759 kJ/mol
# GULP energy per Si atom -5568.877912 kJ/mol
# Density = 1.628807 g / cm^3
# Si number density = 16.325231 Si / 1000 Ang^3
#
#
#
# Elastic Constant Matrix: (Units=GPa)
#
#
# Indices 1 2 3 4 5 6 
#
# 1 111.1047 25.1861 55.3573 0.0000 0.0000 0.0000
# 2 25.1861 84.9880 38.8363 0.0000 0.0000 0.0000
# 3 55.3573 38.8363 73.9730 0.0000 0.0000 0.0000
# 4 0.0000 0.0000 0.0000 14.9614 0.0000 0.0000
# 5 0.0000 0.0000 0.0000 0.0000 25.3121 0.0000
# 6 0.0000 0.0000 0.0000 0.0000 0.0000 17.8069
#
#
#
# Elastic Compliance Matrix: (Units=1/GPa)
#
#
# Indices 1 2 3 4 5 6 
#
# 1 0.014400 0.000864 -0.011230 0.000000 0.000000 0.000000
# 2 0.000864 0.015532 -0.008801 0.000000 0.000000 0.000000
# 3 -0.011230 -0.008801 0.026543 0.000000 0.000000 0.000000
# 4 0.000000 0.000000 0.000000 0.066839 0.000000 0.000000
# 5 0.000000 0.000000 0.000000 0.000000 0.039507 0.000000
# 6 0.000000 0.000000 0.000000 0.000000 0.000000 0.056158
#
#
# Mechanical properties :
#
#
# Convention : Reuss Voigt Hill
#
# Bulk Modulus (GPa) = 55.12282 56.53614 55.82948
# Shear Modulus (GPa) = 18.98554 21.66182 20.32368
#
# Velocity S-wave (km/s) = 3.41392 3.64660 3.53218
# Velocity P-wave (km/s) = 7.02698 7.24131 7.13495
#
# Compressibility (1/GPa) = 0.01814131
#
# Stress axis : x y z
#
# Youngs Moduli (GPa) = 69.44567 64.38295 37.67502
#
# Poissons Ratio (x) = -0.05564 0.42308
# Poissons Ratio (y) = -0.06001 0.33158
# Poissons Ratio (z) = 0.77985 0.56664
#
# Static dielectric constant tensor:
#      x y z
#    x 1.565110 0.000000 0.000000 
#    y 0.000000 1.543170 0.000000 
#    z 0.000000 0.000000 1.534090 
# 
# From -- ./inp_files/44108.got.cif
#   From: 2010.05.17/outbox.cif.g08.bks.cpg/sg74_23_cif.got.tgz:44108.got - 2010.06.03 17:57:02.
