data_PCOD9535338
_publ_section_title
;
Structure prediction by ZEFSAII (Michael W. Deem and Ramdas Pophale) SiO2 
 PCOD9535338
Probable space group: I M M A
;
_chemical_formula_sum "Si O2"
_cell_formula_units_Z 96
_cell_length_a 17.628539
_cell_length_b 14.831918
_cell_length_c 26.398877
_cell_angle_alpha 90.000000
_cell_angle_beta 90.000000
_cell_angle_gamma 90.000000
_cell_volume 6902.383560
_symmetry_space_group_name_H-M "I M M A"
_symmetry_group_IT_number 74
_symmetry_cell_setting 'orthorhombic'
loop_
_space_group_symop_operation_xyz
x,y,z
-x,1/2-y,z
x,-y,-z
-x,1/2+y,-z
-x,-y,-z
x,1/2+y,-z
-x,y,z
x,1/2-y,z
1/2+x,1/2+y,1/2+z
1/2-x,-y,1/2+z
1/2+x,1/2-y,1/2-z
1/2-x,y,1/2-z
1/2-x,1/2-y,1/2-z
1/2+x,y,1/2-z
1/2-x,1/2+y,1/2+z
1/2+x,-y,1/2+z
loop_
_atom_site_type_symbol
_atom_site_label
_atom_site_fract_x
_atom_site_fract_y
_atom_site_fract_z
Si Si1 0.661350 0.939803 0.050456
Si Si2 0.908205 0.250000 0.398185
Si Si3 0.408726 0.250000 0.984147
Si Si4 0.413725 0.858477 0.309018
Si Si5 0.228751 0.644009 0.126492
Si Si6 0.821398 0.062497 0.716824
Si Si7 0.090187 0.944075 0.639159
O O1 0.622924 0.842885 0.039119
O O2 0.738382 0.915076 0.080670
O O3 0.610003 0.996786 0.089540
O O4 0.670964 0.000000 0.000000
O O5 0.885571 0.250000 0.456841
O O6 0.884342 0.342070 0.371687
O O7 0.000000 0.250000 0.398166
O O8 0.500000 0.250000 0.980350
O O9 0.500000 0.890322 0.316126
O O10 0.414204 0.750000 0.308489
O O11 0.353822 0.884609 0.352802
O O12 0.378762 0.890692 0.255805
O O13 0.227661 0.750000 0.113449
O O14 0.285534 0.628950 0.174393
O O15 0.750000 0.029455 0.750000
O O16 0.864968 0.986350 0.685873
O O17 0.000000 0.946354 0.647668
#
# Coordination Sequence:
#
# PCOD9535338 Si02
#       7
#    16   8   8  16  16  16  16
#     4  11  20  30  45  64  89 119 145 176 213 254
#     4   9  18  30  43  59  83 115 148 182 214 244
#     4  11  20  30  44  63  87 117 151 178 209 252
#     4   9  16  27  45  66  87 113 144 177 216 262
#     4   9  17  29  43  62  89 117 143 175 215 256
#     4   9  17  28  43  63  88 115 142 175 217 257
#     4  10  19  30  44  62  86 116 148 180 212 250
#
# _framework density 13.908239
#
# number of rings (size 3 to 8) (size 9 to 14) (size 15 to 20)
#    0.000    2.333    2.500    1.500    0.000    2.667 
#    0.000    0.417    0.000    0.500    0.000    0.000 
#    0.000    0.000    0.000    0.000    0.000    0.000 
#
# Total GULP energy -267315.564123 kJ/mol
# GULP energy per Si atom -5569.074253 kJ/mol
# Density = 1.387658 g / cm^3
# Si number density = 13.908239 Si / 1000 Ang^3
#
#
#
# Elastic Constant Matrix: (Units=GPa)
#
#
# Indices 1 2 3 4 5 6 
#
# 1 92.5076 32.0689 40.3531 0.0000 0.0000 0.0000
# 2 32.0689 79.0316 33.8935 0.0000 0.0000 0.0000
# 3 40.3531 33.8935 74.7876 0.0000 0.0000 0.0000
# 4 0.0000 0.0000 0.0000 22.9543 0.0000 0.0000
# 5 0.0000 0.0000 0.0000 0.0000 16.4498 0.0000
# 6 0.0000 0.0000 0.0000 0.0000 0.0000 13.3911
#
#
#
# Elastic Compliance Matrix: (Units=1/GPa)
#
#
# Indices 1 2 3 4 5 6 
#
# 1 0.014760 -0.003195 -0.006516 0.000000 0.000000 0.000000
# 2 -0.003195 0.016397 -0.005707 0.000000 0.000000 0.000000
# 3 -0.006516 -0.005707 0.019474 0.000000 0.000000 0.000000
# 4 0.000000 0.000000 0.000000 0.043565 0.000000 0.000000
# 5 0.000000 0.000000 0.000000 0.000000 0.060791 0.000000
# 6 0.000000 0.000000 0.000000 0.000000 0.000000 0.074676
#
#
# Mechanical properties :
#
#
# Convention : Reuss Voigt Hill
#
# Bulk Modulus (GPa) = 50.51963 50.99531 50.75747
# Shear Modulus (GPa) = 18.71976 19.89313 19.30644
#
# Velocity S-wave (km/s) = 3.67270 3.78605 3.72980
# Velocity P-wave (km/s) = 7.37478 7.47378 7.42444
#
# Compressibility (1/GPa) = 0.01979429
#
# Stress axis : x y z
#
# Youngs Moduli (GPa) = 67.75147 60.98629 51.35130
#
# Poissons Ratio (x) = 0.19483 0.33461
# Poissons Ratio (y) = 0.21644 0.29308
# Poissons Ratio (z) = 0.44148 0.34807
#
# Static dielectric constant tensor:
#      x y z
#    x 1.457900 0.000000 0.000000 
#    y 0.000000 1.447790 0.000000 
#    z 0.000000 0.000000 1.452730 
# 
# From -- ./inp_files/67113.got.cif
#   From: 2010.05.17/outbox.cif.g08.bks.cpg/sg74_34_cif.got.tgz:67113.got - 2010.06.03 17:57:02.
