data_PCOD9535756
_publ_section_title
;
Structure prediction by ZEFSAII (Michael W. Deem and Ramdas Pophale) SiO2 
 PCOD9535756
Probable space group: I M M A
;
_chemical_formula_sum "Si O2"
_cell_formula_units_Z 112
_cell_length_a 14.282807
_cell_length_b 15.571021
_cell_length_c 26.483072
_cell_angle_alpha 90.000000
_cell_angle_beta 90.000000
_cell_angle_gamma 90.000000
_cell_volume 5889.779274
_symmetry_space_group_name_H-M "I M M A"
_symmetry_group_IT_number 74
_symmetry_cell_setting 'orthorhombic'
loop_
_space_group_symop_operation_xyz
x,y,z
-x,1/2-y,z
x,-y,-z
-x,1/2+y,-z
-x,-y,-z
x,1/2+y,-z
-x,y,z
x,1/2-y,z
1/2+x,1/2+y,1/2+z
1/2-x,-y,1/2+z
1/2+x,1/2-y,1/2-z
1/2-x,y,1/2-z
1/2-x,1/2-y,1/2-z
1/2+x,y,1/2-z
1/2-x,1/2+y,1/2+z
1/2+x,-y,1/2+z
loop_
_atom_site_type_symbol
_atom_site_label
_atom_site_fract_x
_atom_site_fract_y
_atom_site_fract_z
Si Si1 0.601358 0.902783 0.344929
Si Si2 0.611141 0.999468 0.939901
Si Si3 0.190770 0.149484 0.627172
Si Si4 0.889948 0.148481 0.270563
Si Si5 0.800230 0.348645 0.375707
Si Si6 0.893487 0.398705 0.157153
Si Si7 0.140292 0.847766 0.262853
O O1 0.500000 0.867853 0.362398
O O2 0.697008 0.858344 0.363039
O O3 0.599323 0.899256 0.283738
O O4 0.607812 0.002356 0.359342
O O5 0.500000 0.999148 0.928938
O O6 0.658123 0.915138 0.915475
O O7 0.657798 0.083770 0.915215
O O8 0.623708 0.000000 0.000000
O O9 0.169713 0.250000 0.617801
O O10 0.137604 0.122720 0.679361
O O11 0.870955 0.250000 0.263284
O O12 0.834589 0.120855 0.320115
O O13 0.869654 0.105736 0.216932
O O14 0.000000 0.137526 0.280930
O O15 0.832011 0.250000 0.382955
O O16 0.687808 0.351423 0.372988
O O17 0.000000 0.365233 0.152020
O O18 0.105043 0.750000 0.260473
O O19 0.250000 0.844390 0.250000
#
# Coordination Sequence:
#
# PCOD9535756 Si02
#       7
#    16  16  16  16  16  16  16
#     4  10  19  31  53  88 127 164 198 232 273 330
#     4  11  26  46  66  88 112 140 184 247 309 355
#     4  10  21  39  62  87 118 157 197 236 286 347
#     4   9  18  31  49  81 121 158 197 236 277 333
#     4  11  22  38  62  87 116 157 197 237 288 344
#     4  10  20  32  52  87 127 164 198 231 273 333
#     4   8  16  29  47  78 118 157 194 229 267 322
#
# _framework density 19.015993000000002
#
# number of rings (size 3 to 8) (size 9 to 14) (size 15 to 20)
#    0.000    2.143    1.429    2.571    2.000    6.571 
#    0.000    2.857    0.000    1.714    0.000    2.000 
#    0.000    0.000    0.000    0.000    0.000    0.000 
#
# Total GULP energy -312396.866338 kJ/mol
# GULP energy per Si atom -5578.515470 kJ/mol
# Density = 1.897271 g / cm^3
# Si number density = 19.015993 Si / 1000 Ang^3
#
#
#
# Elastic Constant Matrix: (Units=GPa)
#
#
# Indices 1 2 3 4 5 6 
#
# 1 109.9787 35.3566 51.9126 0.0000 0.0000 0.0000
# 2 35.3566 81.6677 42.1107 0.0000 0.0000 0.0000
# 3 51.9126 42.1107 74.4314 0.0000 0.0000 0.0000
# 4 0.0000 0.0000 0.0000 -52.8427 0.0000 0.0000
# 5 0.0000 0.0000 0.0000 0.0000 22.6799 0.0000
# 6 0.0000 0.0000 0.0000 0.0000 0.0000 -31.4396
#
#
#
# Elastic Compliance Matrix: (Units=1/GPa)
#
#
# Indices 1 2 3 4 5 6 
#
# 1 0.013670 -0.001415 -0.008734 0.000000 0.000000 0.000000
# 2 -0.001415 0.017435 -0.008877 0.000000 0.000000 0.000000
# 3 -0.008734 -0.008877 0.024549 0.000000 0.000000 0.000000
# 4 0.000000 0.000000 0.000000 -0.018924 0.000000 0.000000
# 5 0.000000 0.000000 0.000000 0.000000 0.044092 0.000000
# 6 0.000000 0.000000 0.000000 0.000000 0.000000 -0.031807
#
#
# Mechanical properties :
#
#
# Convention : Reuss Voigt Hill
#
# Bulk Modulus (GPa) = 56.81108 58.31528 57.56318
# Shear Modulus (GPa) = 53.80192 -3.20727 25.29732
#
# Velocity S-wave (km/s) = 5.32489 -1.30011 3.65131
# Velocity P-wave (km/s) = 8.23081 5.33660 6.93633
#
# Compressibility (1/GPa) = 0.01760220
#
# Stress axis : x y z
#
# Youngs Moduli (GPa) = 73.15249 57.35720 40.73474
#
# Poissons Ratio (x) = 0.08114 0.35577
# Poissons Ratio (y) = 0.10349 0.36161
# Poissons Ratio (z) = 0.63890 0.50917
#
# Static dielectric constant tensor:
#      x y z
#    x 1.706640 0.000000 0.000000 
#    y 0.000000 1.664140 0.000000 
#    z 0.000000 0.000000 1.632670 
# 
# From -- ./inp_files/67182.got.cif
#   From: 2010.05.17/outbox.cif.g08.bks.cpg/sg74_34_cif.got.tgz:67182.got - 2010.06.03 17:57:02.
