data_PCOD9535729
_publ_section_title
;
Structure prediction by ZEFSAII (Michael W. Deem and Ramdas Pophale) SiO2 
 PCOD9535729
Probable space group: I M M A
;
_chemical_formula_sum "Si O2"
_cell_formula_units_Z 88
_cell_length_a 7.913796
_cell_length_b 23.491606
_cell_length_c 21.412575
_cell_angle_alpha 90.000000
_cell_angle_beta 90.000000
_cell_angle_gamma 90.000000
_cell_volume 3980.764231
_symmetry_space_group_name_H-M "I M M A"
_symmetry_group_IT_number 74
_symmetry_cell_setting 'orthorhombic'
loop_
_space_group_symop_operation_xyz
x,y,z
-x,1/2-y,z
x,-y,-z
-x,1/2+y,-z
-x,-y,-z
x,1/2+y,-z
-x,y,z
x,1/2-y,z
1/2+x,1/2+y,1/2+z
1/2-x,-y,1/2+z
1/2+x,1/2-y,1/2-z
1/2-x,y,1/2-z
1/2-x,1/2-y,1/2-z
1/2+x,y,1/2-z
1/2-x,1/2+y,1/2+z
1/2+x,-y,1/2+z
loop_
_atom_site_type_symbol
_atom_site_label
_atom_site_fract_x
_atom_site_fract_y
_atom_site_fract_z
Si Si1 0.690277 0.864662 0.394770
Si Si2 0.703555 0.933954 0.684471
Si Si3 0.694878 0.316140 0.019957
Si Si4 0.792282 0.012860 0.928367
Si Si5 0.302078 0.250000 0.822573
Si Si6 0.199200 0.688319 0.838361
O O1 0.500000 0.873244 0.372842
O O2 0.701334 0.848102 0.467603
O O3 0.770914 0.927568 0.397910
O O4 0.750249 0.809048 0.356866
O O5 0.500000 0.930777 0.681217
O O6 0.750000 0.963074 0.750000
O O7 0.776567 0.869846 0.686545
O O8 0.758637 0.964544 0.621030
O O9 0.500000 0.336226 0.022767
O O10 0.689550 0.250000 0.000981
O O11 0.779651 0.317844 0.087215
O O12 0.000000 0.015174 0.930207
O O13 0.738773 0.000000 0.000000
O O14 0.500000 0.250000 0.825015
O O15 0.250000 0.250000 0.750000
O O16 0.274707 0.750000 0.821039
O O17 0.000000 0.689966 0.823369
#
# Coordination Sequence:
#
# PCOD9535729 Si02
#       6
#    16  16  16  16   8  16
#     4  11  21  36  61  88 116 156 200 243 301 368
#     4  10  21  38  58  82 116 154 195 247 302 359
#     4  10  19  31  51  82 119 150 180 231 291 342
#     4   9  19  37  62  90 120 158 205 255 302 361
#     4  12  26  44  62  86 122 160 205 262 321 380
#     4   9  18  33  55  82 111 150 198 241 282 341
#
# _framework density 22.106309
#
# number of rings (size 3 to 8) (size 9 to 14) (size 15 to 20)
#    0.000    2.000    0.909    3.000    0.000    5.455 
#    0.000    3.636    0.000    3.818    0.000    0.000 
#    0.000    0.000    0.000    0.000    0.000    0.000 
#
# Total GULP energy -245355.225233 kJ/mol
# GULP energy per Si atom -5576.255119 kJ/mol
# Density = 2.205599 g / cm^3
# Si number density = 22.106309 Si / 1000 Ang^3
#
#
#
# Elastic Constant Matrix: (Units=GPa)
#
#
# Indices 1 2 3 4 5 6 
#
# 1 35.1436 15.5483 -4.2133 0.0000 0.0000 0.0000
# 2 15.5483 160.1585 76.6826 0.0000 0.0000 0.0000
# 3 -4.2133 76.6826 142.4231 0.0000 0.0000 0.0000
# 4 0.0000 0.0000 0.0000 8.2206 0.0000 0.0000
# 5 0.0000 0.0000 0.0000 0.0000 18.0158 0.0000
# 6 0.0000 0.0000 0.0000 0.0000 0.0000 -16.8945
#
#
#
# Elastic Compliance Matrix: (Units=1/GPa)
#
#
# Indices 1 2 3 4 5 6 
#
# 1 0.030913 -0.004633 0.003409 0.000000 0.000000 0.000000
# 2 -0.004633 0.009107 -0.005040 0.000000 0.000000 0.000000
# 3 0.003409 -0.005040 0.009836 0.000000 0.000000 0.000000
# 4 0.000000 0.000000 0.000000 0.121646 0.000000 0.000000
# 5 0.000000 0.000000 0.000000 0.000000 0.055507 0.000000
# 6 0.000000 0.000000 0.000000 0.000000 0.000000 -0.059191
#
#
# Mechanical properties :
#
#
# Convention : Reuss Voigt Hill
#
# Bulk Modulus (GPa) = 26.79017 57.08449 41.93733
# Shear Modulus (GPa) = 25.93498 18.51554 22.22526
#
# Velocity S-wave (km/s) = 3.42891 2.89722 3.17421
# Velocity P-wave (km/s) = 5.27462 6.08856 5.69615
#
# Compressibility (1/GPa) = 0.03732712
#
# Stress axis : x y z
#
# Youngs Moduli (GPa) = 32.34851 109.80669 101.66747
#
# Poissons Ratio (x) = 0.50878 -0.34660
# Poissons Ratio (y) = 0.14988 0.51244
# Poissons Ratio (z) = -0.11028 0.55347
#
# Static dielectric constant tensor:
#      x y z
#    x 1.929040 0.000000 0.000000 
#    y 0.000000 1.913580 0.000000 
#    z 0.000000 0.000000 1.771820 
# 
# From -- ./inp_files/48787.got.cif
#   From: 2010.05.17/outbox.cif.g08.bks.cpg/sg74_25_cif.got.tgz:48787.got - 2010.06.03 17:57:02.
