data_PCOD9535008
_publ_section_title
;
Structure prediction by ZEFSAII (Michael W. Deem and Ramdas Pophale) SiO2 
 PCOD9535008
Probable space group: I M M A
;
_chemical_formula_sum "Si O2"
_cell_formula_units_Z 68
_cell_length_a 32.171394
_cell_length_b 16.879155
_cell_length_c 5.453782
_cell_angle_alpha 90.000000
_cell_angle_beta 90.000000
_cell_angle_gamma 90.000000
_cell_volume 2961.545129
_symmetry_space_group_name_H-M "I M M A"
_symmetry_group_IT_number 74
_symmetry_cell_setting 'orthorhombic'
loop_
_space_group_symop_operation_xyz
x,y,z
-x,1/2-y,z
x,-y,-z
-x,1/2+y,-z
-x,-y,-z
x,1/2+y,-z
-x,y,z
x,1/2-y,z
1/2+x,1/2+y,1/2+z
1/2-x,-y,1/2+z
1/2+x,1/2-y,1/2-z
1/2-x,y,1/2-z
1/2-x,1/2-y,1/2-z
1/2+x,y,1/2-z
1/2-x,1/2+y,1/2+z
1/2+x,-y,1/2+z
loop_
_atom_site_type_symbol
_atom_site_label
_atom_site_fract_x
_atom_site_fract_y
_atom_site_fract_z
Si Si1 0.574273 0.583243 0.235824
Si Si2 0.798391 0.098447 0.248740
Si Si3 0.331195 0.421753 0.752520
Si Si4 0.047182 0.156575 0.222817
Si Si5 0.500000 0.000000 0.500000
O O1 0.620992 0.551356 0.239715
O O2 0.571499 0.641340 0.471615
O O3 0.537739 0.522994 0.298809
O O4 0.565400 0.622850 0.973992
O O5 0.750000 0.118380 0.250000
O O6 0.820163 0.124767 0.500102
O O7 0.804118 0.002390 0.250711
O O8 0.820325 0.123645 0.996915
O O9 0.043289 0.250000 0.258202
O O10 0.000000 0.122407 0.168626
#
# Coordination Sequence:
#
# PCOD9535008 Si02
#       5
#    16  16  16  16   4
#     4  12  24  38  58  89 120 157 196 236 308 348
#     4  10  18  33  52  77 116 163 191 217 278 360
#     4  10  19  31  49  79 113 147 185 240 270 339
#     4  11  23  44  63  79 105 155 220 261 282 325
#     4  12  24  38  54  86 128 166 184 224 300 390
#
# _framework density 22.960986999999999
#
# number of rings (size 3 to 8) (size 9 to 14) (size 15 to 20)
#    0.000    1.176    2.353    7.059    0.000    5.647 
#    0.000    0.000    0.000    0.000    0.000    0.000 
#    0.000  109.176    0.000    0.000    0.000    0.000 
#
# Total GULP energy -189679.466751 kJ/mol
# GULP energy per Si atom -5578.807846 kJ/mol
# Density = 2.290873 g / cm^3
# Si number density = 22.960987 Si / 1000 Ang^3
#
#
#
# Elastic Constant Matrix: (Units=GPa)
#
#
# Indices 1 2 3 4 5 6 
#
# 1 173.0664 7.2940 51.9805 0.0000 -0.0001 0.0000
# 2 7.2940 34.5538 22.9074 0.0000 0.0000 0.0000
# 3 51.9805 22.9074 255.7122 0.0000 -0.0004 0.0001
# 4 0.0000 0.0000 0.0000 19.9212 0.0000 0.0000
# 5 -0.0001 0.0000 -0.0004 0.0000 67.9297 0.0003
# 6 0.0000 0.0000 0.0001 0.0000 0.0003 -4.7204
#
#
#
# Elastic Compliance Matrix: (Units=1/GPa)
#
#
# Indices 1 2 3 4 5 6 
#
# 1 0.006162 -0.000500 -0.001208 0.000000 0.000000 0.000000
# 2 -0.000500 0.030808 -0.002658 0.000000 0.000000 0.000000
# 3 -0.001208 -0.002658 0.004394 0.000000 0.000000 0.000000
# 4 0.000000 0.000000 0.000000 0.050198 0.000000 0.000000
# 5 0.000000 0.000000 0.000000 0.000000 0.014721 0.000001
# 6 0.000000 0.000000 0.000000 0.000000 0.000001 -0.211847
#
#
# Mechanical properties :
#
#
# Convention : Reuss Voigt Hill
#
# Bulk Modulus (GPa) = 30.64442 69.74402 50.19422
# Shear Modulus (GPa) = -58.17059 42.03613 -8.06723
#
# Velocity S-wave (km/s) = -5.03880 4.28338 -1.87645
# Velocity P-wave (km/s) = 4.52520 7.40973 4.14890
#
# Compressibility (1/GPa) = 0.03263237
#
# Stress axis : x y z
#
# Youngs Moduli (GPa) = 162.28592 32.45887 227.56775
#
# Poissons Ratio (x) = 0.01623 0.27486
# Poissons Ratio (y) = 0.08115 0.60493
# Poissons Ratio (z) = 0.19601 0.08628
#
# Static dielectric constant tensor:
#      x y z
#    x 1.811030 0.000000 0.000000 
#    y 0.000000 1.671150 0.000000 
#    z 0.000000 0.000000 1.968320 
# 
# From -- ./inp_files/5014.got.cif
#   From: 2010.05.17/outbox.cif.g08.bks.cpg/sg74_3_cif.got.tgz:5014.got - 2010.06.03 17:57:02.
