data_PCOD9535787
_publ_section_title
;
Structure prediction by ZEFSAII (Michael W. Deem and Ramdas Pophale) SiO2 
 PCOD9535787
Probable space group: I M M A
;
_chemical_formula_sum "Si O2"
_cell_formula_units_Z 104
_cell_length_a 28.690456
_cell_length_b 7.851854
_cell_length_c 24.619035
_cell_angle_alpha 90.000000
_cell_angle_beta 90.000000
_cell_angle_gamma 90.000000
_cell_volume 5546.010561
_symmetry_space_group_name_H-M "I M M A"
_symmetry_group_IT_number 74
_symmetry_cell_setting 'orthorhombic'
loop_
_space_group_symop_operation_xyz
x,y,z
-x,1/2-y,z
x,-y,-z
-x,1/2+y,-z
-x,-y,-z
x,1/2+y,-z
-x,y,z
x,1/2-y,z
1/2+x,1/2+y,1/2+z
1/2-x,-y,1/2+z
1/2+x,1/2-y,1/2-z
1/2-x,y,1/2-z
1/2-x,1/2-y,1/2-z
1/2+x,y,1/2-z
1/2-x,1/2+y,1/2+z
1/2+x,-y,1/2+z
loop_
_atom_site_type_symbol
_atom_site_label
_atom_site_fract_x
_atom_site_fract_y
_atom_site_fract_z
Si Si1 0.125229 0.549360 0.327356
Si Si2 0.802180 0.541530 0.236131
Si Si3 0.601688 0.452671 0.062244
Si Si4 0.947178 0.455734 0.936796
Si Si5 0.622218 0.446767 0.654136
Si Si6 0.052951 0.051755 0.246445
Si Si7 0.500000 0.454735 0.063492
O O1 0.119327 0.750000 0.320005
O O2 0.166029 0.491647 0.287298
O O3 0.135108 0.513149 0.390109
O O4 0.078620 0.462691 0.304155
O O5 0.801522 0.750000 0.233171
O O6 0.750000 0.485018 0.250000
O O7 0.830399 0.481964 0.182052
O O8 0.599575 0.250000 0.063713
O O9 0.550490 0.522616 0.080076
O O10 0.611659 0.500000 0.000000
O O11 0.947714 0.250000 0.931761
O O12 0.905995 0.521507 0.897353
O O13 0.000000 0.515356 0.921739
O O14 0.939759 0.500000 0.000000
O O15 0.632445 0.250000 0.640640
O O16 0.584449 0.454100 0.702918
O O17 0.052850 0.250000 0.230420
O O18 0.000000 0.990121 0.248520
O O19 0.500000 0.250000 0.071817
O O20 0.500000 0.500000 0.000000
#
# Coordination Sequence:
#
# PCOD9535787 Si02
#       7
#    16  16  16  16  16  16   8
#     4  10  20  32  48  71  94 122 160 196 238 287
#     4   8  15  30  52  74  93 116 152 197 243 292
#     4  10  19  32  48  67  94 126 161 197 235 277
#     4   9  17  28  43  66  97 131 162 191 224 269
#     4   9  17  30  49  71  94 122 158 197 239 285
#     4  10  20  31  44  65  95 128 158 192 236 282
#     4   8  16  28  42  60  84 118 154 186 219 258
#
# _framework density 18.752217999999999
#
# number of rings (size 3 to 8) (size 9 to 14) (size 15 to 20)
#    0.000    2.769    0.000    2.769    1.077    3.077 
#    0.000    1.538    0.000   12.462    0.000    2.154 
#    0.000    0.000    0.000    0.000    0.000    0.000 
#
# Total GULP energy -289497.251277 kJ/mol
# GULP energy per Si atom -5567.254832 kJ/mol
# Density = 1.870954 g / cm^3
# Si number density = 18.752218 Si / 1000 Ang^3
#
#
#
# Elastic Constant Matrix: (Units=GPa)
#
#
# Indices 1 2 3 4 5 6 
#
# 1 115.8202 2.6653 49.4272 0.0000 0.0000 0.0000
# 2 2.6653 27.7308 -4.6498 0.0000 0.0000 0.0000
# 3 49.4272 -4.6498 105.3984 0.0000 0.0000 0.0000
# 4 0.0000 0.0000 0.0000 23.5832 0.0000 0.0000
# 5 0.0000 0.0000 0.0000 0.0000 21.9080 0.0000
# 6 0.0000 0.0000 0.0000 0.0000 0.0000 -5.2679
#
#
#
# Elastic Compliance Matrix: (Units=1/GPa)
#
#
# Indices 1 2 3 4 5 6 
#
# 1 0.010895 -0.001918 -0.005194 0.000000 0.000000 0.000000
# 2 -0.001918 0.036667 0.002517 0.000000 0.000000 0.000000
# 3 -0.005194 0.002517 0.012034 0.000000 0.000000 0.000000
# 4 0.000000 0.000000 0.000000 0.042403 0.000000 0.000000
# 5 0.000000 0.000000 0.000000 0.000000 0.045646 0.000000
# 6 0.000000 0.000000 0.000000 0.000000 0.000000 -0.189829
#
#
# Mechanical properties :
#
#
# Convention : Reuss Voigt Hill
#
# Bulk Modulus (GPa) = 19.83840 38.20384 29.02112
# Shear Modulus (GPa) = -308.79802 21.47844 -143.65979
#
# Velocity S-wave (km/s) = -12.84641 3.38802 -8.76218
# Velocity P-wave (km/s) = 14.47198 5.97680 9.31977
#
# Compressibility (1/GPa) = 0.05040730
#
# Stress axis : x y z
#
# Youngs Moduli (GPa) = 91.78792 27.27220 83.09448
#
# Poissons Ratio (x) = 0.05231 0.43157
# Poissons Ratio (y) = 0.17605 -0.20916
# Poissons Ratio (z) = 0.47672 -0.06865
#
# Static dielectric constant tensor:
#      x y z
#    x 1.685020 0.000000 0.000000 
#    y 0.000000 1.688480 0.000000 
#    z 0.000000 0.000000 1.661410 
# 
# From -- ./inp_files/69146.got.cif
#   From: 2010.05.17/outbox.cif.g08.bks.cpg/sg74_35_cif.got.tgz:69146.got - 2010.06.03 17:57:02.
