data_PCOD9535441
_publ_section_title
;
Structure prediction by ZEFSAII (Michael W. Deem and Ramdas Pophale) SiO2 
 PCOD9535441
Probable space group: I M M A
;
_chemical_formula_sum "Si O2"
_cell_formula_units_Z 96
_cell_length_a 24.560233
_cell_length_b 17.529842
_cell_length_c 13.626402
_cell_angle_alpha 90.000000
_cell_angle_beta 90.000000
_cell_angle_gamma 90.000000
_cell_volume 5866.670292
_symmetry_space_group_name_H-M "I M M A"
_symmetry_group_IT_number 74
_symmetry_cell_setting 'orthorhombic'
loop_
_space_group_symop_operation_xyz
x,y,z
-x,1/2-y,z
x,-y,-z
-x,1/2+y,-z
-x,-y,-z
x,1/2+y,-z
-x,y,z
x,1/2-y,z
1/2+x,1/2+y,1/2+z
1/2-x,-y,1/2+z
1/2+x,1/2-y,1/2-z
1/2-x,y,1/2-z
1/2-x,1/2-y,1/2-z
1/2+x,y,1/2-z
1/2-x,1/2+y,1/2+z
1/2+x,-y,1/2+z
loop_
_atom_site_type_symbol
_atom_site_label
_atom_site_fract_x
_atom_site_fract_y
_atom_site_fract_z
Si Si1 0.767351 0.931978 0.420137
Si Si2 0.348361 0.660457 0.956371
Si Si3 0.936490 0.662983 0.183094
Si Si4 0.144895 0.539622 0.105028
Si Si5 0.355438 0.475495 0.188692
Si Si6 0.436425 0.593256 0.102133
O O1 0.797683 0.861876 0.472571
O O2 0.705044 0.922824 0.390790
O O3 0.767811 0.000000 0.500000
O O4 0.806084 0.966259 0.336241
O O5 0.349825 0.750000 0.935573
O O6 0.344765 0.606175 0.860598
O O7 0.401604 0.633051 0.016968
O O8 0.920224 0.750000 0.165801
O O9 0.899593 0.603947 0.125092
O O10 0.931914 0.643801 0.298934
O O11 0.000000 0.653831 0.157397
O O12 0.138739 0.479279 0.194493
O O13 0.138566 0.500000 0.000000
O O14 0.406919 0.514167 0.132978
O O15 0.500000 0.583640 0.078252
#
# Coordination Sequence:
#
# PCOD9535441 Si02
#       6
#    16  16  16  16  16  16
#     4   8  16  31  50  69  92 122 157 193 231 278
#     4  10  19  30  47  74 105 129 149 185 241 296
#     4   9  18  32  49  71  97 121 151 199 251 286
#     4  10  19  32  52  71  89 124 171 206 230 271
#     4   9  18  32  48  69  98 130 159 193 237 280
#     4   9  17  31  51  72  95 126 162 194 230 285
#
# _framework density 16.363627000000001
#
# number of rings (size 3 to 8) (size 9 to 14) (size 15 to 20)
#    0.000    2.833    0.000    2.500    0.000    3.333 
#    0.000    0.833    0.000   19.000    0.000    0.000 
#    0.000    0.000    0.000    0.000    0.000    0.000 
#
# Total GULP energy -267431.536406 kJ/mol
# GULP energy per Si atom -5571.490342 kJ/mol
# Density = 1.632638 g / cm^3
# Si number density = 16.363627 Si / 1000 Ang^3
#
#
#
# Elastic Constant Matrix: (Units=GPa)
#
#
# Indices 1 2 3 4 5 6 
#
# 1 79.7070 46.1303 34.0123 0.0000 0.0000 0.0000
# 2 46.1303 113.9257 64.0009 0.0000 0.0000 0.0000
# 3 34.0123 64.0009 98.7352 0.0000 0.0000 0.0000
# 4 0.0000 0.0000 0.0000 10.4445 0.0000 0.0000
# 5 0.0000 0.0000 0.0000 0.0000 20.2485 0.0000
# 6 0.0000 0.0000 0.0000 0.0000 0.0000 16.8126
#
#
#
# Elastic Compliance Matrix: (Units=1/GPa)
#
#
# Indices 1 2 3 4 5 6 
#
# 1 0.016671 -0.005542 -0.002150 0.000000 0.000000 0.000000
# 2 -0.005542 0.015647 -0.008233 0.000000 0.000000 0.000000
# 3 -0.002150 -0.008233 0.016206 0.000000 0.000000 0.000000
# 4 0.000000 0.000000 0.000000 0.095744 0.000000 0.000000
# 5 0.000000 0.000000 0.000000 0.000000 0.049386 0.000000
# 6 0.000000 0.000000 0.000000 0.000000 0.000000 0.059479
#
#
# Mechanical properties :
#
#
# Convention : Reuss Voigt Hill
#
# Bulk Modulus (GPa) = 59.98078 64.51723 62.24901
# Shear Modulus (GPa) = 17.20916 19.38276 18.29596
#
# Velocity S-wave (km/s) = 3.24647 3.44539 3.34741
# Velocity P-wave (km/s) = 7.12652 7.43912 7.28449
#
# Compressibility (1/GPa) = 0.01667201
#
# Stress axis : x y z
#
# Youngs Moduli (GPa) = 59.98374 63.90915 61.70661
#
# Poissons Ratio (x) = 0.35422 0.13268
# Poissons Ratio (y) = 0.33246 0.50805
# Poissons Ratio (z) = 0.12898 0.52619
#
# Static dielectric constant tensor:
#      x y z
#    x 1.573010 0.000000 0.000000 
#    y 0.000000 1.527830 0.000000 
#    z 0.000000 0.000000 1.562740 
# 
# From -- ./inp_files/25190.got.cif
#   From: 2010.05.17/outbox.cif.g08.bks.cpg/sg74_13_cif.got.tgz:25190.got - 2010.06.03 17:57:02.
