data_PCOD9535884
_publ_section_title
;
Structure prediction by ZEFSAII (Michael W. Deem and Ramdas Pophale) SiO2 
 PCOD9535884
Probable space group: I M M A
;
_chemical_formula_sum "Si O2"
_cell_formula_units_Z 80
_cell_length_a 18.366528
_cell_length_b 7.986621
_cell_length_c 28.075061
_cell_angle_alpha 90.000000
_cell_angle_beta 90.000000
_cell_angle_gamma 90.000000
_cell_volume 4118.232385
_symmetry_space_group_name_H-M "I M M A"
_symmetry_group_IT_number 74
_symmetry_cell_setting 'orthorhombic'
loop_
_space_group_symop_operation_xyz
x,y,z
-x,1/2-y,z
x,-y,-z
-x,1/2+y,-z
-x,-y,-z
x,1/2+y,-z
-x,y,z
x,1/2-y,z
1/2+x,1/2+y,1/2+z
1/2-x,-y,1/2+z
1/2+x,1/2-y,1/2-z
1/2-x,y,1/2-z
1/2-x,1/2-y,1/2-z
1/2+x,y,1/2-z
1/2-x,1/2+y,1/2+z
1/2+x,-y,1/2+z
loop_
_atom_site_type_symbol
_atom_site_label
_atom_site_fract_x
_atom_site_fract_y
_atom_site_fract_z
Si Si1 0.720568 0.949175 0.654113
Si Si2 0.235673 0.048922 0.449167
Si Si3 0.421337 0.447300 0.077818
Si Si4 0.622478 0.445889 0.818755
Si Si5 0.580799 0.047396 0.713631
O O1 0.733706 0.750000 0.655496
O O2 0.722854 0.004640 0.598743
O O3 0.790201 0.033058 0.679157
O O4 0.645669 0.987353 0.680204
O O5 0.232049 0.250000 0.447585
O O6 0.152578 0.980662 0.444723
O O7 0.267228 0.000000 0.500000
O O8 0.500000 0.520849 0.064361
O O9 0.423006 0.250000 0.066556
O O10 0.409745 0.465337 0.134705
O O11 0.603725 0.250000 0.822972
O O12 0.594218 0.509038 0.768077
O O13 0.500000 0.994978 0.698173
O O14 0.583246 0.250000 0.714265
#
# Coordination Sequence:
#
# PCOD9535884 Si02
#       5
#    16  16  16  16  16
#     4  10  21  36  53  75 102 131 167 208 247 293
#     4   9  19  34  51  72  96 125 164 209 254 299
#     4   9  18  32  48  70 104 139 169 205 246 288
#     4  10  19  32  51  75 104 138 173 204 237 284
#     4  10  21  35  51  75 106 135 165 204 247 291
#
# _framework density 19.425809000000001
#
# number of rings (size 3 to 8) (size 9 to 14) (size 15 to 20)
#    0.000    2.400    0.000    3.600    0.000   10.000 
#    0.000    0.000    0.000    0.600    0.000    0.000 
#    0.000    0.000    0.000    0.000    0.000    0.000 
#
# Total GULP energy -223254.752895 kJ/mol
# GULP energy per Si atom -5581.368822 kJ/mol
# Density = 1.938160 g / cm^3
# Si number density = 19.425809 Si / 1000 Ang^3
#
#
#
# Elastic Constant Matrix: (Units=GPa)
#
#
# Indices 1 2 3 4 5 6 
#
# 1 59.9346 -6.5708 17.2106 0.0000 0.0000 0.0000
# 2 -6.5708 19.0189 -3.9671 0.0000 0.0000 0.0000
# 3 17.2106 -3.9671 75.5575 0.0000 0.0000 0.0000
# 4 0.0000 0.0000 0.0000 23.4897 0.0000 0.0000
# 5 0.0000 0.0000 0.0000 0.0000 -1.0952 0.0000
# 6 0.0000 0.0000 0.0000 0.0000 0.0000 1.7891
#
#
#
# Elastic Compliance Matrix: (Units=1/GPa)
#
#
# Indices 1 2 3 4 5 6 
#
# 1 0.018414 0.005548 -0.003903 0.000000 0.000000 0.000000
# 2 0.005548 0.054833 0.001615 0.000000 0.000000 0.000000
# 3 -0.003903 0.001615 0.014209 0.000000 0.000000 0.000000
# 4 0.000000 0.000000 0.000000 0.042572 0.000000 0.000000
# 5 0.000000 0.000000 0.000000 0.000000 -0.913081 0.000000
# 6 0.000000 0.000000 0.000000 0.000000 0.000000 0.558955
#
#
# Mechanical properties :
#
#
# Convention : Reuss Voigt Hill
#
# Bulk Modulus (GPa) = 10.64108 18.65070 14.64589
# Shear Modulus (GPa) = -25.08868 14.69260 -5.19804
#
# Velocity S-wave (km/s) = -3.59766 2.75316 -1.63757
# Velocity P-wave (km/s) = 3.43043 4.44166 1.99505
#
# Compressibility (1/GPa) = 0.09397542
#
# Stress axis : x y z
#
# Youngs Moduli (GPa) = 54.30696 18.23721 70.37888
#
# Poissons Ratio (x) = -0.10117 0.27469
# Poissons Ratio (y) = -0.30128 -0.11368
# Poissons Ratio (z) = 0.21196 -0.02946
#
# Static dielectric constant tensor:
#      x y z
#    x 1.683070 0.000000 0.000000 
#    y 0.000000 1.707860 0.000000 
#    z 0.000000 0.000000 1.680480 
# 
# From -- ./inp_files/63918.got.cif
#   From: 2010.05.17/outbox.cif.g08.bks.cpg/sg74_32_cif.got.tgz:63918.got - 2010.06.03 17:57:02.
