data_PCOD9535830
_publ_section_title
;
Structure prediction by ZEFSAII (Michael W. Deem and Ramdas Pophale) SiO2 
 PCOD9535830
Probable space group: I M M A
;
_chemical_formula_sum "Si O2"
_cell_formula_units_Z 104
_cell_length_a 26.320276
_cell_length_b 9.267564
_cell_length_c 21.842190
_cell_angle_alpha 90.000000
_cell_angle_beta 90.000000
_cell_angle_gamma 90.000000
_cell_volume 5327.852752
_symmetry_space_group_name_H-M "I M M A"
_symmetry_group_IT_number 74
_symmetry_cell_setting 'orthorhombic'
loop_
_space_group_symop_operation_xyz
x,y,z
-x,1/2-y,z
x,-y,-z
-x,1/2+y,-z
-x,-y,-z
x,1/2+y,-z
-x,y,z
x,1/2-y,z
1/2+x,1/2+y,1/2+z
1/2-x,-y,1/2+z
1/2+x,1/2-y,1/2-z
1/2-x,y,1/2-z
1/2-x,1/2-y,1/2-z
1/2+x,y,1/2-z
1/2-x,1/2+y,1/2+z
1/2+x,-y,1/2+z
loop_
_atom_site_type_symbol
_atom_site_label
_atom_site_fract_x
_atom_site_fract_y
_atom_site_fract_z
Si Si1 0.110935 0.076982 0.386155
Si Si2 0.126353 0.084160 0.939477
Si Si3 0.644958 0.578929 0.748411
Si Si4 0.000000 0.577855 0.565262
Si Si5 0.441903 0.578404 0.649871
Si Si6 0.784006 0.916265 0.161462
Si Si7 0.204208 0.924082 0.438500
O O1 0.118374 0.250000 0.396534
O O2 0.128430 0.043607 0.317064
O O3 0.051903 0.043772 0.398501
O O4 0.147465 0.983248 0.428966
O O5 0.115948 0.250000 0.953980
O O6 0.171105 0.078684 0.889377
O O7 0.078129 0.008123 0.908475
O O8 0.141658 0.000000 0.000000
O O9 0.654221 0.750000 0.745057
O O10 0.596577 0.545431 0.705176
O O11 0.693718 0.499967 0.719641
O O12 0.000000 0.500000 0.500000
O O13 0.000000 0.750000 0.555194
O O14 0.500000 0.544118 0.665004
O O15 0.438228 0.750000 0.638069
O O16 0.775176 0.750000 0.178327
O O17 0.735725 0.969049 0.122387
O O18 0.206746 0.750000 0.443801
O O19 0.224800 0.000000 0.500000
#
# Coordination Sequence:
#
# PCOD9535830 Si02
#       7
#    16  16  16   8  16  16  16
#     4  10  22  39  60  88 118 152 190 235 287 340
#     4  10  19  32  50  72 101 137 180 227 277 333
#     4   9  19  35  57  84 112 145 188 232 278 333
#     4  10  22  40  62  86 118 154 191 236 287 340
#     4   9  18  32  51  74 101 136 179 228 277 330
#     4   9  20  37  56  80 112 149 185 228 283 335
#     4  11  23  39  60  86 116 151 191 236 285 340
#
# _framework density 19.520059
#
# number of rings (size 3 to 8) (size 9 to 14) (size 15 to 20)
#    0.000    2.308    0.000    1.846    1.077    5.538 
#    0.000    3.077    0.000    0.000    0.000    0.000 
#    0.000    0.000    0.000    0.000    0.000    0.000 
#
# Total GULP energy -290268.056168 kJ/mol
# GULP energy per Si atom -5582.078003 kJ/mol
# Density = 1.947563 g / cm^3
# Si number density = 19.520059 Si / 1000 Ang^3
#
#
#
# Elastic Constant Matrix: (Units=GPa)
#
#
# Indices 1 2 3 4 5 6 
#
# 1 125.2656 40.5204 41.9475 0.0000 0.0000 0.0000
# 2 40.5204 37.5439 44.5024 0.0000 0.0000 0.0000
# 3 41.9475 44.5024 109.7429 0.0000 0.0000 0.0000
# 4 0.0000 0.0000 0.0000 27.9967 0.0000 0.0000
# 5 0.0000 0.0000 0.0000 0.0000 22.1826 0.0000
# 6 0.0000 0.0000 0.0000 0.0000 0.0000 22.8171
#
#
#
# Elastic Compliance Matrix: (Units=1/GPa)
#
#
# Indices 1 2 3 4 5 6 
#
# 1 0.012363 -0.014908 0.001320 0.000000 0.000000 0.000000
# 2 -0.014908 0.069264 -0.022389 0.000000 0.000000 0.000000
# 3 0.001320 -0.022389 0.017687 0.000000 0.000000 0.000000
# 4 0.000000 0.000000 0.000000 0.035719 0.000000 0.000000
# 5 0.000000 0.000000 0.000000 0.000000 0.045080 0.000000
# 6 0.000000 0.000000 0.000000 0.000000 0.000000 0.043827
#
#
# Mechanical properties :
#
#
# Convention : Reuss Voigt Hill
#
# Bulk Modulus (GPa) = 36.55034 58.49924 47.52479
# Shear Modulus (GPa) = 16.39259 24.30476 20.34867
#
# Velocity S-wave (km/s) = 2.90104 3.53245 3.23220
# Velocity P-wave (km/s) = 5.47600 6.83165 6.19104
#
# Compressibility (1/GPa) = 0.02735953
#
# Stress axis : x y z
#
# Youngs Moduli (GPa) = 80.88342 14.43742 56.53845
#
# Poissons Ratio (x) = 0.21523 -0.07461
# Poissons Ratio (y) = 1.20580 1.26587
# Poissons Ratio (z) = -0.10674 0.32325
#
# Static dielectric constant tensor:
#      x y z
#    x 1.689450 0.000000 0.000000 
#    y 0.000000 1.656770 0.000000 
#    z 0.000000 0.000000 1.690890 
# 
# From -- ./inp_files/49338.got.cif
#   From: 2010.05.17/outbox.cif.g08.bks.cpg/sg74_25_cif.got.tgz:49338.got - 2010.06.03 17:57:02.
