data_PCOD9535208
_publ_section_title
;
Structure prediction by ZEFSAII (Michael W. Deem and Ramdas Pophale) SiO2 
 PCOD9535208
Probable space group: I M M A
;
_chemical_formula_sum "Si O2"
_cell_formula_units_Z 88
_cell_length_a 27.350672
_cell_length_b 8.160179
_cell_length_c 30.997888
_cell_angle_alpha 90.000000
_cell_angle_beta 90.000000
_cell_angle_gamma 90.000000
_cell_volume 6918.306388
_symmetry_space_group_name_H-M "I M M A"
_symmetry_group_IT_number 74
_symmetry_cell_setting 'orthorhombic'
loop_
_space_group_symop_operation_xyz
x,y,z
-x,1/2-y,z
x,-y,-z
-x,1/2+y,-z
-x,-y,-z
x,1/2+y,-z
-x,y,z
x,1/2-y,z
1/2+x,1/2+y,1/2+z
1/2-x,-y,1/2+z
1/2+x,1/2-y,1/2-z
1/2-x,y,1/2-z
1/2-x,1/2-y,1/2-z
1/2+x,y,1/2-z
1/2-x,1/2+y,1/2+z
1/2+x,-y,1/2+z
loop_
_atom_site_type_symbol
_atom_site_label
_atom_site_fract_x
_atom_site_fract_y
_atom_site_fract_z
Si Si1 0.145350 0.431029 0.819964
Si Si2 0.901822 0.559196 0.903563
Si Si3 0.828348 0.750000 0.772092
Si Si4 0.248820 0.562910 0.367523
Si Si5 0.306086 0.444869 0.548115
Si Si6 0.279053 0.750000 0.817937
Si Si7 0.000000 0.554648 0.049669
O O1 0.138108 0.250000 0.800750
O O2 0.108739 0.459575 0.859864
O O3 0.144873 0.584834 0.787849
O O4 0.199246 0.432623 0.842035
O O5 0.902048 0.750000 0.892118
O O6 0.856132 0.527137 0.935425
O O7 0.951659 0.510959 0.926804
O O8 0.775315 0.750000 0.796207
O O9 0.816759 0.750000 0.721511
O O10 0.229049 0.750000 0.365480
O O11 0.264262 0.520370 0.416505
O O12 0.218483 0.416206 0.346050
O O13 0.294107 0.500000 0.500000
O O14 0.314229 0.250000 0.549088
O O15 0.000000 0.750000 0.051374
O O16 0.000000 0.500000 0.000000
#
# Coordination Sequence:
#
# PCOD9535208 Si02
#       7
#    16  16   8  16  16   8   8
#     4   9  16  28  42  56  73  92 114 142 175 216
#     4  11  20  32  45  56  72  93 117 152 193 228
#     4   9  16  26  38  61  70  92 116 139 166 228
#     4   8  16  26  36  52  73  94 116 142 175 214
#     4  10  19  28  40  56  70  93 125 154 185 220
#     4   9  16  24  40  52  76  94 112 136 182 209
#     4  12  24  36  44  56  74  94 122 155 195 236
#
# _framework density 12.719875999999999
#
# number of rings (size 3 to 8) (size 9 to 14) (size 15 to 20)
#    0.000    2.364    0.909    4.636    5.091    0.727 
#    0.000    3.636    0.000    0.000    0.000    0.000 
#    0.000    0.000    0.000    0.000    0.000    0.000 
#
# Total GULP energy -245160.199118 kJ/mol
# GULP energy per Si atom -5571.822707 kJ/mol
# Density = 1.269093 g / cm^3
# Si number density = 12.719876 Si / 1000 Ang^3
#
#
#
# Elastic Constant Matrix: (Units=GPa)
#
#
# Indices 1 2 3 4 5 6 
#
# 1 18.0824 19.8221 27.0700 0.0000 0.0000 0.0000
# 2 19.8221 102.1152 51.7386 0.0000 0.0000 0.0000
# 3 27.0700 51.7386 79.9658 0.0000 0.0000 0.0000
# 4 0.0000 0.0000 0.0000 17.9501 0.0000 0.0000
# 5 0.0000 0.0000 0.0000 0.0000 -78.1454 0.0000
# 6 0.0000 0.0000 0.0000 0.0000 0.0000 10.4731
#
#
#
# Elastic Compliance Matrix: (Units=1/GPa)
#
#
# Indices 1 2 3 4 5 6 
#
# 1 0.113109 -0.003802 -0.035829 0.000000 0.000000 0.000000
# 2 -0.003802 0.014697 -0.008222 0.000000 0.000000 0.000000
# 3 -0.035829 -0.008222 0.029954 0.000000 0.000000 0.000000
# 4 0.000000 0.000000 0.000000 0.055710 0.000000 0.000000
# 5 0.000000 0.000000 0.000000 0.000000 -0.012797 0.000000
# 6 0.000000 0.000000 0.000000 0.000000 0.000000 0.095483
#
#
# Mechanical properties :
#
#
# Convention : Reuss Voigt Hill
#
# Bulk Modulus (GPa) = 16.11547 44.15832 30.13690
# Shear Modulus (GPa) = 12.11985 -3.17560 4.47212
#
# Velocity S-wave (km/s) = 3.09014 -1.58177 1.87710
# Velocity P-wave (km/s) = 5.04272 5.60851 5.33312
#
# Compressibility (1/GPa) = 0.06205217
#
# Stress axis : x y z
#
# Youngs Moduli (GPa) = 8.84105 68.04272 33.38472
#
# Poissons Ratio (x) = 0.25873 1.19615
# Poissons Ratio (y) = 0.03362 0.27448
# Poissons Ratio (z) = 0.31677 0.55942
#
# Static dielectric constant tensor:
#      x y z
#    x 1.390010 0.000000 0.000000 
#    y 0.000000 1.450640 0.000000 
#    z 0.000000 0.000000 1.408530 
# 
# From -- ./inp_files/73313.got.cif
#   From: 2010.05.17/outbox.cif.g08.bks.cpg/sg74_37_cif.got.tgz:73313.got - 2010.06.03 17:57:02.
