data_PCOD9535951
_publ_section_title
;
Structure prediction by ZEFSAII (Michael W. Deem and Ramdas Pophale) SiO2 
 PCOD9535951
Probable space group: I M M A
;
_chemical_formula_sum "Si O2"
_cell_formula_units_Z 116
_cell_length_a 29.020396
_cell_length_b 8.615320
_cell_length_c 26.820354
_cell_angle_alpha 90.000000
_cell_angle_beta 90.000000
_cell_angle_gamma 90.000000
_cell_volume 6705.624855
_symmetry_space_group_name_H-M "I M M A"
_symmetry_group_IT_number 74
_symmetry_cell_setting 'orthorhombic'
loop_
_space_group_symop_operation_xyz
x,y,z
-x,1/2-y,z
x,-y,-z
-x,1/2+y,-z
-x,-y,-z
x,1/2+y,-z
-x,y,z
x,1/2-y,z
1/2+x,1/2+y,1/2+z
1/2-x,-y,1/2+z
1/2+x,1/2-y,1/2-z
1/2-x,y,1/2-z
1/2-x,1/2-y,1/2-z
1/2+x,y,1/2-z
1/2-x,1/2+y,1/2+z
1/2+x,-y,1/2+z
loop_
_atom_site_type_symbol
_atom_site_label
_atom_site_fract_x
_atom_site_fract_y
_atom_site_fract_z
Si Si1 0.667660 0.436766 0.444195
Si Si2 0.927664 0.934971 0.088581
Si Si3 0.226003 0.925082 0.196036
Si Si4 0.448448 0.932748 0.696451
Si Si5 0.772668 0.062310 0.444772
Si Si6 0.500000 0.000000 0.500000
Si Si7 0.813149 0.431022 0.346911
Si Si8 0.862683 0.435564 0.748715
O O1 0.661319 0.500000 0.500000
O O2 0.664632 0.250000 0.442912
O O3 0.625171 0.508715 0.414532
O O4 0.719958 0.484033 0.430391
O O5 0.930432 0.750000 0.081947
O O6 0.944565 0.982066 0.143310
O O7 0.959515 0.004257 0.044308
O O8 0.225096 0.750000 0.173769
O O9 0.250000 0.907632 0.250000
O O10 0.175196 0.983179 0.209354
O O11 0.259938 0.042751 0.169213
O O12 0.500000 0.956072 0.716062
O O13 0.441293 0.750000 0.687420
O O14 0.410714 0.993669 0.734877
O O15 0.773095 0.250000 0.445576
O O16 0.810214 0.010683 0.403849
O O17 0.781367 0.000000 0.500000
O O18 0.824660 0.250000 0.345888
O O19 0.844284 0.514456 0.305649
O O20 0.864116 0.250000 0.750269
#
# Coordination Sequence:
#
# PCOD9535951 Si02
#       8
#    16  16  16  16  16   4  16  16
#     4  10  20  35  52  72 100 135 177 221 268 319
#     4  12  25  40  58  77 101 134 177 229 285 334
#     4   8  16  30  46  70 101 133 172 215 257 309
#     4  11  25  42  59  79 105 136 175 224 282 335
#     4   9  20  35  51  76 108 144 180 218 261 313
#     4  12  26  40  60  78 102 132 186 236 284 336
#     4  10  19  32  52  79 109 142 180 219 265 317
#     4  10  21  37  56  79 106 138 178 219 269 326
#
# _framework density 17.298908999999998
#
# number of rings (size 3 to 8) (size 9 to 14) (size 15 to 20)
#    0.000    1.931    1.379    3.103    1.931    7.172 
#    0.000    0.000    0.000    0.000    0.000    0.000 
#    0.000    0.552    0.000    1.793    0.000    2.207 
#
# Total GULP energy -322953.219873 kJ/mol
# GULP energy per Si atom -5568.158963 kJ/mol
# Density = 1.725954 g / cm^3
# Si number density = 17.298909 Si / 1000 Ang^3
#
#
#
# Elastic Constant Matrix: (Units=GPa)
#
#
# Indices 1 2 3 4 5 6 
#
# 1 75.6113 20.8274 47.9655 0.0000 0.0000 0.0000
# 2 20.8274 20.7464 10.2109 0.0000 0.0000 0.0000
# 3 47.9655 10.2109 78.5626 0.0000 0.0000 0.0000
# 4 0.0000 0.0000 0.0000 19.5635 0.0000 0.0000
# 5 0.0000 0.0000 0.0000 0.0000 30.0320 0.0000
# 6 0.0000 0.0000 0.0000 0.0000 0.0000 13.7027
#
#
#
# Elastic Compliance Matrix: (Units=1/GPa)
#
#
# Indices 1 2 3 4 5 6 
#
# 1 0.028281 -0.021252 -0.014504 0.000000 0.000000 0.000000
# 2 -0.021252 0.067466 0.004207 0.000000 0.000000 0.000000
# 3 -0.014504 0.004207 0.021037 0.000000 0.000000 0.000000
# 4 0.000000 0.000000 0.000000 0.051116 0.000000 0.000000
# 5 0.000000 0.000000 0.000000 0.000000 0.033298 0.000000
# 6 0.000000 0.000000 0.000000 0.000000 0.000000 0.072978
#
#
# Mechanical properties :
#
#
# Convention : Reuss Voigt Hill
#
# Bulk Modulus (GPa) = 18.62743 36.99198 27.80971
# Shear Modulus (GPa) = 14.07778 19.05408 16.56593
#
# Velocity S-wave (km/s) = 2.85581 3.32243 3.09791
# Velocity P-wave (km/s) = 4.65462 6.01236 5.37652
#
# Compressibility (1/GPa) = 0.05368426
#
# Stress axis : x y z
#
# Youngs Moduli (GPa) = 35.36002 14.82230 47.53463
#
# Poissons Ratio (x) = 0.31501 0.68945
# Poissons Ratio (y) = 0.75148 -0.19997
# Poissons Ratio (z) = 0.51287 -0.06235
#
# Static dielectric constant tensor:
#      x y z
#    x 1.593230 0.000000 0.000000 
#    y 0.000000 1.602600 0.000000 
#    z 0.000000 0.000000 1.585230 
# 
# From -- ./inp_files/68718.got.cif
#   From: 2010.05.17/outbox.cif.g08.bks.cpg/sg74_35_cif.got.tgz:68718.got - 2010.06.03 17:57:02.
