data_PCOD9535577
_publ_section_title
;
Structure prediction by ZEFSAII (Michael W. Deem and Ramdas Pophale) SiO2 
 PCOD9535577
Probable space group: I M M A
;
_chemical_formula_sum "Si O2"
_cell_formula_units_Z 80
_cell_length_a 15.069775
_cell_length_b 15.220112
_cell_length_c 20.502505
_cell_angle_alpha 90.000000
_cell_angle_beta 90.000000
_cell_angle_gamma 90.000000
_cell_volume 4702.529654
_symmetry_space_group_name_H-M "I M M A"
_symmetry_group_IT_number 74
_symmetry_cell_setting 'orthorhombic'
loop_
_space_group_symop_operation_xyz
x,y,z
-x,1/2-y,z
x,-y,-z
-x,1/2+y,-z
-x,-y,-z
x,1/2+y,-z
-x,y,z
x,1/2-y,z
1/2+x,1/2+y,1/2+z
1/2-x,-y,1/2+z
1/2+x,1/2-y,1/2-z
1/2-x,y,1/2-z
1/2-x,1/2-y,1/2-z
1/2+x,y,1/2-z
1/2-x,1/2+y,1/2+z
1/2+x,-y,1/2+z
loop_
_atom_site_type_symbol
_atom_site_label
_atom_site_fract_x
_atom_site_fract_y
_atom_site_fract_z
Si Si1 0.144655 0.351841 0.237098
Si Si2 0.399672 0.460228 0.139457
Si Si3 0.219391 0.401629 0.473763
Si Si4 0.598414 0.355224 0.411410
Si Si5 0.395317 0.346095 0.907087
O O1 0.114249 0.250000 0.246303
O O2 0.250000 0.352220 0.250000
O O3 0.104643 0.419234 0.288953
O O4 0.122520 0.379502 0.163226
O O5 0.500000 0.451431 0.113816
O O6 0.334558 0.403736 0.093873
O O7 0.376878 0.564462 0.133821
O O8 0.216120 0.500000 0.500000
O O9 0.320740 0.378714 0.458714
O O10 0.166552 0.348899 0.528967
O O11 0.500000 0.389419 0.428369
O O12 0.594319 0.250000 0.411479
O O13 0.500000 0.351069 0.925289
O O14 0.382260 0.250000 0.874755
#
# Coordination Sequence:
#
# PCOD9535577 Si02
#       5
#    16  16  16  16  16
#     4  10  19  32  50  72 100 130 158 194 244 295
#     4  10  19  31  49  74 101 129 161 197 242 294
#     4  10  19  31  48  71  97 129 161 200 238 286
#     4  10  20  33  48  68  95 126 161 199 239 286
#     4   9  18  32  50  73 101 130 160 197 241 289
#
# _framework density 17.012118999999998
#
# number of rings (size 3 to 8) (size 9 to 14) (size 15 to 20)
#    0.000    2.200    2.000    1.800    0.000    4.800 
#    0.000    0.000    0.000    0.600    0.000    0.000 
#    0.000    0.000    0.000    0.000    0.000    0.000 
#
# Total GULP energy -222747.138193 kJ/mol
# GULP energy per Si atom -5568.678455 kJ/mol
# Density = 1.697340 g / cm^3
# Si number density = 17.012119 Si / 1000 Ang^3
#
#
#
# Elastic Constant Matrix: (Units=GPa)
#
#
# Indices 1 2 3 4 5 6 
#
# 1 75.6312 10.1866 1.5805 0.0000 0.0000 0.0000
# 2 10.1866 66.5424 15.2717 0.0000 0.0000 0.0000
# 3 1.5805 15.2717 37.8370 0.0000 0.0000 0.0000
# 4 0.0000 0.0000 0.0000 -13.1358 0.0000 0.0000
# 5 0.0000 0.0000 0.0000 0.0000 21.7284 0.0000
# 6 0.0000 0.0000 0.0000 0.0000 0.0000 21.4942
#
#
#
# Elastic Compliance Matrix: (Units=1/GPa)
#
#
# Indices 1 2 3 4 5 6 
#
# 1 0.013503 -0.002136 0.000298 0.000000 0.000000 0.000000
# 2 -0.002136 0.016900 -0.006732 0.000000 0.000000 0.000000
# 3 0.000298 -0.006732 0.029134 0.000000 0.000000 0.000000
# 4 0.000000 0.000000 0.000000 -0.076128 0.000000 0.000000
# 5 0.000000 0.000000 0.000000 0.000000 0.046023 0.000000
# 6 0.000000 0.000000 0.000000 0.000000 0.000000 0.046524
#
#
# Mechanical properties :
#
#
# Convention : Reuss Voigt Hill
#
# Bulk Modulus (GPa) = 23.58595 26.00980 24.79787
# Shear Modulus (GPa) = 46.62968 16.21549 31.42259
#
# Velocity S-wave (km/s) = 5.24111 3.09070 4.30242
# Velocity P-wave (km/s) = 7.10773 5.29705 6.26812
#
# Compressibility (1/GPa) = 0.04239812
#
# Stress axis : x y z
#
# Youngs Moduli (GPa) = 74.05507 59.17194 34.32435
#
# Poissons Ratio (x) = 0.12636 -0.01022
# Poissons Ratio (y) = 0.15815 0.23107
# Poissons Ratio (z) = -0.02206 0.39834
#
# Static dielectric constant tensor:
#      x y z
#    x 1.646630 0.000000 0.000000 
#    y 0.000000 1.592050 0.000000 
#    z 0.000000 0.000000 1.564990 
# 
# From -- ./inp_files/42687.got.cif
#   From: 2010.05.17/outbox.cif.g08.bks.cpg/sg74_22_cif.got.tgz:42687.got - 2010.06.03 17:57:02.
