data_PCOD9535422
_publ_section_title
;
Structure prediction by ZEFSAII (Michael W. Deem and Ramdas Pophale) SiO2 
 PCOD9535422
Probable space group: I M M A
;
_chemical_formula_sum "Si O2"
_cell_formula_units_Z 120
_cell_length_a 9.033999
_cell_length_b 27.943810
_cell_length_c 28.944427
_cell_angle_alpha 90.000000
_cell_angle_beta 90.000000
_cell_angle_gamma 90.000000
_cell_volume 7306.857106
_symmetry_space_group_name_H-M "I M M A"
_symmetry_group_IT_number 74
_symmetry_cell_setting 'orthorhombic'
loop_
_space_group_symop_operation_xyz
x,y,z
-x,1/2-y,z
x,-y,-z
-x,1/2+y,-z
-x,-y,-z
x,1/2+y,-z
-x,y,z
x,1/2-y,z
1/2+x,1/2+y,1/2+z
1/2-x,-y,1/2+z
1/2+x,1/2-y,1/2-z
1/2-x,y,1/2-z
1/2-x,1/2-y,1/2-z
1/2+x,y,1/2-z
1/2-x,1/2+y,1/2+z
1/2+x,-y,1/2+z
loop_
_atom_site_type_symbol
_atom_site_label
_atom_site_fract_x
_atom_site_fract_y
_atom_site_fract_z
Si Si1 0.670940 0.333205 0.058312
Si Si2 0.825991 0.403239 0.932060
Si Si3 0.323258 0.303039 0.954954
Si Si4 0.321232 0.005459 0.616924
Si Si5 0.327531 0.834221 0.651591
Si Si6 0.171748 0.250000 0.297915
Si Si7 0.673875 0.571570 0.537411
Si Si8 0.177990 0.563002 0.801124
O O1 0.500000 0.324736 0.071993
O O2 0.786536 0.323962 0.098673
O O3 0.704046 0.388703 0.048519
O O4 0.700258 0.306396 0.010382
O O5 0.749234 0.351426 0.935032
O O6 0.766538 0.441128 0.894531
O O7 0.000000 0.394704 0.923854
O O8 0.817989 0.430857 0.981797
O O9 0.500000 0.305722 0.947566
O O10 0.272142 0.250000 0.939137
O O11 0.500000 0.008421 0.620526
O O12 0.295238 0.972295 0.571675
O O13 0.270361 0.979155 0.663829
O O14 0.500000 0.824881 0.660145
O O15 0.224737 0.797539 0.677524
O O16 0.295689 0.887741 0.670135
O O17 0.250000 0.250000 0.250000
O O18 0.000000 0.250000 0.292592
O O19 0.500000 0.585911 0.547311
O O20 0.250000 0.563435 0.750000
O O21 0.000000 0.559232 0.795354
#
# Coordination Sequence:
#
# PCOD9535422 Si02
#       8
#    16  16  16  16  16   8  16  16
#     4  10  19  30  47  71  96 127 164 203 245 290
#     4   9  17  28  49  75  97 125 165 204 240 289
#     4   9  19  34  48  65  99 139 167 198 246 295
#     4   9  16  30  49  72 100 129 158 199 250 295
#     4  11  22  38  56  73  93 124 166 213 259 305
#     4  12  26  42  56  72  92 118 156 210 268 316
#     4   9  15  28  47  68  95 126 159 195 237 291
#     4  10  21  36  54  73  98 128 163 204 249 301
#
# _framework density 16.422929
#
# number of rings (size 3 to 8) (size 9 to 14) (size 15 to 20)
#    0.000    2.267    1.333    2.200    0.933    4.533 
#    0.000    1.333    0.000    3.200    0.000    0.000 
#    0.000    0.533    0.000    1.200    0.000    2.133 
#
# Total GULP energy -334036.627532 kJ/mol
# GULP energy per Si atom -5567.277126 kJ/mol
# Density = 1.638555 g / cm^3
# Si number density = 16.422929 Si / 1000 Ang^3
#
#
#
# Elastic Constant Matrix: (Units=GPa)
#
#
# Indices 1 2 3 4 5 6 
#
# 1 46.6090 36.4211 26.4471 0.0000 0.0000 0.0000
# 2 36.4211 96.4725 29.9826 0.0000 0.0000 0.0000
# 3 26.4471 29.9826 27.4106 0.0000 0.0000 0.0000
# 4 0.0000 0.0000 0.0000 10.6139 0.0000 0.0000
# 5 0.0000 0.0000 0.0000 0.0000 17.8235 0.0000
# 6 0.0000 0.0000 0.0000 0.0000 0.0000 25.4567
#
#
#
# Elastic Compliance Matrix: (Units=1/GPa)
#
#
# Indices 1 2 3 4 5 6 
#
# 1 0.049481 -0.005822 -0.041373 0.000000 0.000000 0.000000
# 2 -0.005822 0.016389 -0.012310 0.000000 0.000000 0.000000
# 3 -0.041373 -0.012310 0.089866 0.000000 0.000000 0.000000
# 4 0.000000 0.000000 0.000000 0.094216 0.000000 0.000000
# 5 0.000000 0.000000 0.000000 0.000000 0.056106 0.000000
# 6 0.000000 0.000000 0.000000 0.000000 0.000000 0.039282
#
#
# Mechanical properties :
#
#
# Convention : Reuss Voigt Hill
#
# Bulk Modulus (GPa) = 27.22862 39.57709 33.40285
# Shear Modulus (GPa) = 10.49114 15.95491 13.22303
#
# Velocity S-wave (km/s) = 2.53021 3.12027 2.84061
# Velocity P-wave (km/s) = 5.01514 6.09364 5.58051
#
# Compressibility (1/GPa) = 0.03672606
#
# Stress axis : x y z
#
# Youngs Moduli (GPa) = 20.20988 61.01501 11.12766
#
# Poissons Ratio (x) = 0.35523 0.46039
# Poissons Ratio (y) = 0.11766 0.13698
# Poissons Ratio (z) = 0.83615 0.75109
#
# Static dielectric constant tensor:
#      x y z
#    x 1.546260 0.000000 0.000000 
#    y 0.000000 1.586590 0.000000 
#    z 0.000000 0.000000 1.578560 
# 
# From -- ./inp_files/65105.got.cif
#   From: 2010.05.17/outbox.cif.g08.bks.cpg/sg74_33_cif.got.tgz:65105.got - 2010.06.03 17:57:02.
