data_PCOD9535695
_publ_section_title
;
Structure prediction by ZEFSAII (Michael W. Deem and Ramdas Pophale) SiO2 
 PCOD9535695
Probable space group: I M M A
;
_chemical_formula_sum "Si O2"
_cell_formula_units_Z 80
_cell_length_a 17.902372
_cell_length_b 16.668302
_cell_length_c 12.270331
_cell_angle_alpha 90.000000
_cell_angle_beta 90.000000
_cell_angle_gamma 90.000000
_cell_volume 3661.493066
_symmetry_space_group_name_H-M "I M M A"
_symmetry_group_IT_number 74
_symmetry_cell_setting 'orthorhombic'
loop_
_space_group_symop_operation_xyz
x,y,z
-x,1/2-y,z
x,-y,-z
-x,1/2+y,-z
-x,-y,-z
x,1/2+y,-z
-x,y,z
x,1/2-y,z
1/2+x,1/2+y,1/2+z
1/2-x,-y,1/2+z
1/2+x,1/2-y,1/2-z
1/2-x,y,1/2-z
1/2-x,1/2-y,1/2-z
1/2+x,y,1/2-z
1/2-x,1/2+y,1/2+z
1/2+x,-y,1/2+z
loop_
_atom_site_type_symbol
_atom_site_label
_atom_site_fract_x
_atom_site_fract_y
_atom_site_fract_z
Si Si1 0.909545 0.029899 0.382380
Si Si2 0.752623 0.750000 0.435382
Si Si3 0.410190 0.844602 0.714909
Si Si4 0.916858 0.417956 0.807265
Si Si5 0.872092 0.750000 0.258839
Si Si6 0.186784 0.410932 0.017016
O O1 0.894003 0.118186 0.334447
O O2 0.000000 0.021953 0.383348
O O3 0.884730 0.000000 0.500000
O O4 0.880576 0.971833 0.286750
O O5 0.830974 0.750000 0.374106
O O6 0.690742 0.750000 0.337373
O O7 0.738874 0.833066 0.499425
O O8 0.500000 0.854183 0.694128
O O9 0.393672 0.750000 0.707851
O O10 0.360766 0.892736 0.626357
O O11 0.918451 0.329598 0.757824
O O12 0.872126 0.412278 0.918050
O O13 0.000000 0.448122 0.830329
O O14 0.221310 0.500000 0.000000
#
# Coordination Sequence:
#
# PCOD9535695 Si02
#       6
#    16   8  16  16   8  16
#     4   9  18  33  49  73 110 148 188 226 272 352
#     4   9  20  36  52  77 112 153 205 248 285 363
#     4  10  19  31  50  80 120 158 188 235 308 376
#     4  10  19  31  53  83 113 147 187 240 306 370
#     4   9  19  36  52  73 111 146 191 246 292 342
#     4  11  19  31  55  86 119 157 194 249 313 369
#
# _framework density 21.84901
#
# number of rings (size 3 to 8) (size 9 to 14) (size 15 to 20)
#    0.000    2.200    3.000    0.900    0.000    0.800 
#    1.800    1.000    0.000    0.000    0.000    1.400 
#    0.000    0.000    0.000    0.000    0.000    0.000 
#
# Total GULP energy -223107.703113 kJ/mol
# GULP energy per Si atom -5577.692578 kJ/mol
# Density = 2.179928 g / cm^3
# Si number density = 21.849010 Si / 1000 Ang^3
#
#
#
# Elastic Constant Matrix: (Units=GPa)
#
#
# Indices 1 2 3 4 5 6 
#
# 1 50.9195 17.0138 32.3829 0.0000 0.0000 0.0000
# 2 17.0138 170.3116 49.2704 0.0000 0.0000 0.0000
# 3 32.3829 49.2704 140.7646 0.0000 0.0000 0.0000
# 4 0.0000 0.0000 0.0000 30.8646 0.0000 0.0000
# 5 0.0000 0.0000 0.0000 0.0000 1.4057 0.0000
# 6 0.0000 0.0000 0.0000 0.0000 0.0000 259.5481
#
#
#
# Elastic Compliance Matrix: (Units=1/GPa)
#
#
# Indices 1 2 3 4 5 6 
#
# 1 0.023117 -0.000858 -0.005018 0.000000 0.000000 0.000000
# 2 -0.000858 0.006565 -0.002101 0.000000 0.000000 0.000000
# 3 -0.005018 -0.002101 0.008994 0.000000 0.000000 0.000000
# 4 0.000000 0.000000 0.000000 0.032400 0.000000 0.000000
# 5 0.000000 0.000000 0.000000 0.000000 0.711379 0.000000
# 6 0.000000 0.000000 0.000000 0.000000 0.000000 0.003853
#
#
# Mechanical properties :
#
#
# Convention : Reuss Voigt Hill
#
# Bulk Modulus (GPa) = 44.00803 62.14777 53.07790
# Shear Modulus (GPa) = 6.17411 75.91894 41.04653
#
# Velocity S-wave (km/s) = 1.68284 5.90106 4.33904
# Velocity P-wave (km/s) = 4.89505 8.65656 7.03198
#
# Compressibility (1/GPa) = 0.02272312
#
# Stress axis : x y z
#
# Youngs Moduli (GPa) = 43.25911 152.32408 111.18984
#
# Poissons Ratio (x) = 0.13064 0.55792
# Poissons Ratio (y) = 0.03710 0.23356
# Poissons Ratio (z) = 0.21706 0.31996
#
# Static dielectric constant tensor:
#      x y z
#    x 1.773490 0.000000 0.000000 
#    y 0.000000 1.855150 0.000000 
#    z 0.000000 0.000000 1.770500 
# 
# From -- ./inp_files/24895.got.cif
#   From: 2010.05.17/outbox.cif.g08.bks.cpg/sg74_13_cif.got.tgz:24895.got - 2010.06.03 17:57:02.
