data_PCOD9535041
_publ_section_title
;
Structure prediction by ZEFSAII (Michael W. Deem and Ramdas Pophale) SiO2 
 PCOD9535041
Probable space group: I M M A
;
_chemical_formula_sum "Si O2"
_cell_formula_units_Z 100
_cell_length_a 7.620274
_cell_length_b 22.037809
_cell_length_c 28.715686
_cell_angle_alpha 90.000000
_cell_angle_beta 90.000000
_cell_angle_gamma 90.000000
_cell_volume 4822.344117
_symmetry_space_group_name_H-M "I M M A"
_symmetry_group_IT_number 74
_symmetry_cell_setting 'orthorhombic'
loop_
_space_group_symop_operation_xyz
x,y,z
-x,1/2-y,z
x,-y,-z
-x,1/2+y,-z
-x,-y,-z
x,1/2+y,-z
-x,y,z
x,1/2-y,z
1/2+x,1/2+y,1/2+z
1/2-x,-y,1/2+z
1/2+x,1/2-y,1/2-z
1/2-x,y,1/2-z
1/2-x,1/2-y,1/2-z
1/2+x,y,1/2-z
1/2-x,1/2+y,1/2+z
1/2+x,-y,1/2+z
loop_
_atom_site_type_symbol
_atom_site_label
_atom_site_fract_x
_atom_site_fract_y
_atom_site_fract_z
Si Si1 0.000000 0.250000 0.160911
Si Si2 0.792024 0.681631 0.109623
Si Si3 0.295970 0.918022 0.462358
Si Si4 0.800543 0.447278 0.438765
Si Si5 0.291269 0.598138 0.196144
Si Si6 0.787410 0.033521 0.336696
Si Si7 0.291849 0.162684 0.197634
O O1 0.843381 0.302291 0.164889
O O2 0.719104 0.750000 0.109559
O O3 0.724623 0.636966 0.068793
O O4 0.769926 0.648064 0.159029
O O5 0.000000 0.686581 0.101144
O O6 0.500000 0.927404 0.449987
O O7 0.285144 0.912157 0.518144
O O8 0.200919 0.980933 0.450740
O O9 0.719921 0.446915 0.387562
O O10 0.000000 0.425154 0.436171
O O11 0.500000 0.596158 0.192029
O O12 0.250000 0.610899 0.250000
O O13 0.221286 0.531396 0.181258
O O14 0.754698 0.090818 0.304382
O O15 0.000000 0.027337 0.341169
O O16 0.500000 0.172079 0.187569
O O17 0.250000 0.183627 0.250000
#
# Coordination Sequence:
#
# PCOD9535041 Si02
#       7
#     4  16  16  16  16  16  16
#     4  12  24  40  58  90 108 160 208 242 306 362
#     4  10  22  40  60  83 116 160 205 246 302 363
#     4  10  19  33  54  88 114 145 188 239 291 345
#     4  10  18  33  58  84 115 148 184 235 295 351
#     4  11  22  39  60  86 121 155 197 252 308 359
#     4   9  20  37  57  86 120 153 192 244 303 351
#     4  11  22  38  59  85 117 154 201 255 296 360
#
# _framework density 20.736802999999998
#
# number of rings (size 3 to 8) (size 9 to 14) (size 15 to 20)
#    0.000    1.760    2.400    3.360    0.000    1.280 
#    5.760    0.000    1.760    0.000    0.000    0.000 
#    0.000    0.000    0.000    0.000    0.000    0.000 
#
# Total GULP energy -278440.950027 kJ/mol
# GULP energy per Si atom -5568.819001 kJ/mol
# Density = 2.068960 g / cm^3
# Si number density = 20.736803 Si / 1000 Ang^3
#
#
#
# Elastic Constant Matrix: (Units=GPa)
#
#
# Indices 1 2 3 4 5 6 
#
# 1 79.5096 12.0510 -7.3260 0.0000 0.0000 0.0000
# 2 12.0510 140.1545 64.5122 0.0000 0.0000 0.0000
# 3 -7.3260 64.5122 130.7625 0.0000 0.0000 0.0000
# 4 0.0000 0.0000 0.0000 149.0543 0.0000 0.0000
# 5 0.0000 0.0000 0.0000 0.0000 17.5493 0.0000
# 6 0.0000 0.0000 0.0000 0.0000 0.0000 16.3032
#
#
#
# Elastic Compliance Matrix: (Units=1/GPa)
#
#
# Indices 1 2 3 4 5 6 
#
# 1 0.013015 -0.001882 0.001658 0.000000 0.000000 0.000000
# 2 -0.001882 0.009503 -0.004794 0.000000 0.000000 0.000000
# 3 0.001658 -0.004794 0.010105 0.000000 0.000000 0.000000
# 4 0.000000 0.000000 0.000000 0.006709 0.000000 0.000000
# 5 0.000000 0.000000 0.000000 0.000000 0.056982 0.000000
# 6 0.000000 0.000000 0.000000 0.000000 0.000000 0.061338
#
#
# Mechanical properties :
#
#
# Convention : Reuss Voigt Hill
#
# Bulk Modulus (GPa) = 44.27284 54.32234 49.29759
# Shear Modulus (GPa) = 28.53574 55.32731 41.93153
#
# Velocity S-wave (km/s) = 3.71360 5.17094 4.50164
# Velocity P-wave (km/s) = 6.30745 7.86794 7.13051
#
# Compressibility (1/GPa) = 0.02258721
#
# Stress axis : x y z
#
# Youngs Moduli (GPa) = 76.83378 105.22469 98.95619
#
# Poissons Ratio (x) = 0.19805 -0.16404
# Poissons Ratio (y) = 0.14461 0.47440
# Poissons Ratio (z) = -0.12737 0.50445
#
# Static dielectric constant tensor:
#      x y z
#    x 1.764940 0.000000 0.000000 
#    y 0.000000 1.748930 0.000000 
#    z 0.000000 0.000000 1.660110 
# 
# From -- ./inp_files/70598.got.cif
#   From: 2010.05.17/outbox.cif.g08.bks.cpg/sg74_36_cif.got.tgz:70598.got - 2010.06.03 17:57:02.
