data_PCOD9535763
_publ_section_title
;
Structure prediction by ZEFSAII (Michael W. Deem and Ramdas Pophale) SiO2 
 PCOD9535763
Probable space group: I M M A
;
_chemical_formula_sum "Si O2"
_cell_formula_units_Z 96
_cell_length_a 28.061025
_cell_length_b 17.058004
_cell_length_c 11.578882
_cell_angle_alpha 90.000000
_cell_angle_beta 90.000000
_cell_angle_gamma 90.000000
_cell_volume 5542.406441
_symmetry_space_group_name_H-M "I M M A"
_symmetry_group_IT_number 74
_symmetry_cell_setting 'orthorhombic'
loop_
_space_group_symop_operation_xyz
x,y,z
-x,1/2-y,z
x,-y,-z
-x,1/2+y,-z
-x,-y,-z
x,1/2+y,-z
-x,y,z
x,1/2-y,z
1/2+x,1/2+y,1/2+z
1/2-x,-y,1/2+z
1/2+x,1/2-y,1/2-z
1/2-x,y,1/2-z
1/2-x,1/2-y,1/2-z
1/2+x,y,1/2-z
1/2-x,1/2+y,1/2+z
1/2+x,-y,1/2+z
loop_
_atom_site_type_symbol
_atom_site_label
_atom_site_fract_x
_atom_site_fract_y
_atom_site_fract_z
Si Si1 0.316776 0.660069 0.177653
Si Si2 0.000000 0.906638 0.478689
Si Si3 0.214820 0.601376 0.097912
Si Si4 0.898262 0.592213 0.471804
Si Si5 0.000000 0.156652 0.262070
Si Si6 0.703912 0.919361 0.666034
Si Si7 0.892285 0.656072 0.730183
O O1 0.316468 0.750000 0.141396
O O2 0.269231 0.619118 0.130628
O O3 0.315947 0.654299 0.315928
O O4 0.359775 0.615481 0.120372
O O5 0.950238 0.887597 0.421429
O O6 0.000000 0.865345 0.602877
O O7 0.000000 0.000000 0.500000
O O8 0.203409 0.512385 0.137291
O O9 0.209286 0.616369 0.962418
O O10 0.895573 0.500000 0.500000
O O11 0.891854 0.637214 0.593040
O O12 0.054134 0.130837 0.224342
O O13 0.000000 0.250000 0.247214
O O14 0.750000 0.904275 0.750000
O O15 0.653885 0.888571 0.718259
O O16 0.887649 0.750000 0.747545
#
# Coordination Sequence:
#
# PCOD9535763 Si02
#       7
#    16   8  16  16   8  16  16
#     4  11  21  35  54  75 103 144 183 212 261 329
#     4   8  16  30  46  79 106 137 174 223 267 312
#     4  10  22  36  53  74 105 140 174 215 266 324
#     4  10  19  31  55  78 111 142 180 220 269 319
#     4   8  16  32  50  70 104 142 172 214 270 320
#     4  11  21  35  56  79 105 138 177 216 274 320
#     4  10  20  33  52  80 108 137 178 224 270 316
#
# _framework density 17.320996000000001
#
# number of rings (size 3 to 8) (size 9 to 14) (size 15 to 20)
#    0.000    2.000    1.667    3.500    2.333    2.333 
#    0.000    0.000    0.000    3.000    0.000    0.000 
#    0.000    0.000    0.000    0.000    0.000    0.000 
#
# Total GULP energy -267206.492692 kJ/mol
# GULP energy per Si atom -5566.801931 kJ/mol
# Density = 1.728157 g / cm^3
# Si number density = 17.320996 Si / 1000 Ang^3
#
#
#
# Elastic Constant Matrix: (Units=GPa)
#
#
# Indices 1 2 3 4 5 6 
#
# 1 172.9025 41.7712 65.2400 0.0000 0.0000 0.0000
# 2 41.7712 49.4332 8.0572 0.0000 0.0000 0.0000
# 3 65.2400 8.0572 81.6374 0.0000 0.0000 0.0000
# 4 0.0000 0.0000 0.0000 9.6638 0.0000 0.0000
# 5 0.0000 0.0000 0.0000 0.0000 31.0625 0.0000
# 6 0.0000 0.0000 0.0000 0.0000 0.0000 9.8359
#
#
#
# Elastic Compliance Matrix: (Units=1/GPa)
#
#
# Indices 1 2 3 4 5 6 
#
# 1 0.010515 -0.007639 -0.007649 0.000000 0.000000 0.000000
# 2 -0.007639 0.026109 0.003528 0.000000 0.000000 0.000000
# 3 -0.007649 0.003528 0.018014 0.000000 0.000000 0.000000
# 4 0.000000 0.000000 0.000000 0.103479 0.000000 0.000000
# 5 0.000000 0.000000 0.000000 0.000000 0.032193 0.000000
# 6 0.000000 0.000000 0.000000 0.000000 0.000000 0.101669
#
#
# Mechanical properties :
#
#
# Convention : Reuss Voigt Hill
#
# Bulk Modulus (GPa) = 32.13625 59.34556 45.74090
# Shear Modulus (GPa) = 15.34343 22.70608 19.02475
#
# Velocity S-wave (km/s) = 2.97952 3.62456 3.31775
# Velocity P-wave (km/s) = 5.51637 7.20092 6.41418
#
# Compressibility (1/GPa) = 0.03111751
#
# Stress axis : x y z
#
# Youngs Moduli (GPa) = 95.09976 38.30092 55.51229
#
# Poissons Ratio (x) = 0.29257 0.42463
# Poissons Ratio (y) = 0.72643 -0.19582
# Poissons Ratio (z) = 0.72745 -0.13511
#
# Static dielectric constant tensor:
#      x y z
#    x 1.620940 0.000000 0.000000 
#    y 0.000000 1.608030 0.000000 
#    z 0.000000 0.000000 1.582890 
# 
# From -- ./inp_files/26310.got.cif
#   From: 2010.05.17/outbox.cif.g08.bks.cpg/sg74_14_cif.got.tgz:26310.got - 2010.06.03 17:57:02.
