data_PCOD9535043
_publ_section_title
;
Structure prediction by ZEFSAII (Michael W. Deem and Ramdas Pophale) SiO2 
 PCOD9535043
Probable space group: I M M A
;
_chemical_formula_sum "Si O2"
_cell_formula_units_Z 112
_cell_length_a 24.776415
_cell_length_b 16.360693
_cell_length_c 12.698767
_cell_angle_alpha 90.000000
_cell_angle_beta 90.000000
_cell_angle_gamma 90.000000
_cell_volume 5147.563549
_symmetry_space_group_name_H-M "I M M A"
_symmetry_group_IT_number 74
_symmetry_cell_setting 'orthorhombic'
loop_
_space_group_symop_operation_xyz
x,y,z
-x,1/2-y,z
x,-y,-z
-x,1/2+y,-z
-x,-y,-z
x,1/2+y,-z
-x,y,z
x,1/2-y,z
1/2+x,1/2+y,1/2+z
1/2-x,-y,1/2+z
1/2+x,1/2-y,1/2-z
1/2-x,y,1/2-z
1/2-x,1/2-y,1/2-z
1/2+x,y,1/2-z
1/2-x,1/2+y,1/2+z
1/2+x,-y,1/2+z
loop_
_atom_site_type_symbol
_atom_site_label
_atom_site_fract_x
_atom_site_fract_y
_atom_site_fract_z
Si Si1 0.734622 0.614217 0.145533
Si Si2 0.060889 0.534321 0.238128
Si Si3 0.831321 0.909863 0.975314
Si Si4 0.938266 0.343223 0.566292
Si Si5 0.660305 0.403244 0.031145
Si Si6 0.940121 0.342884 0.958460
Si Si7 0.324694 0.547218 0.754079
O O1 0.750000 0.662888 0.250000
O O2 0.704501 0.535642 0.203046
O O3 0.786752 0.603392 0.067955
O O4 0.690872 0.644005 0.061553
O O5 0.068424 0.595561 0.336271
O O6 0.063051 0.591758 0.135328
O O7 0.111915 0.474482 0.240027
O O8 0.000000 0.498957 0.243824
O O9 0.806138 0.918252 0.858472
O O10 0.884314 0.853627 0.977818
O O11 0.852898 0.000000 0.000000
O O12 0.925158 0.250000 0.595775
O O13 0.900864 0.376281 0.474526
O O14 0.000000 0.345705 0.533796
O O15 0.681688 0.392423 0.148011
O O16 0.665385 0.500000 0.000000
O O17 0.940154 0.250000 0.916749
O O18 0.000000 0.354847 0.010029
#
# Coordination Sequence:
#
# PCOD9535043 Si02
#       7
#    16  16  16  16  16  16  16
#     4  11  21  35  58  87 118 151 192 242 299 345
#     4  10  18  33  58  85 119 152 185 242 306 356
#     4  12  22  36  62  88 118 160 198 247 290 359
#     4  10  20  35  56  83 115 153 195 237 292 355
#     4  10  21  36  56  81 118 153 188 241 286 344
#     4  10  22  40  60  86 123 159 196 248 310 365
#     4  11  22  36  56  92 120 150 200 242 290 350
#
# _framework density 21.757866
#
# number of rings (size 3 to 8) (size 9 to 14) (size 15 to 20)
#    0.000    1.429    5.714    1.714    0.000    3.429 
#    0.000    1.429    0.000    3.429    0.000    4.000 
#    0.000    0.000    0.000    0.000    0.000    0.000 
#
# Total GULP energy -311976.737080 kJ/mol
# GULP energy per Si atom -5571.013162 kJ/mol
# Density = 2.170834 g / cm^3
# Si number density = 21.757866 Si / 1000 Ang^3
#
#
#
# Elastic Constant Matrix: (Units=GPa)
#
#
# Indices 1 2 3 4 5 6 
#
# 1 134.5985 25.3294 49.2453 0.0000 0.0000 0.0000
# 2 25.3294 20.0292 19.8113 0.0000 0.0000 0.0000
# 3 49.2453 19.8113 166.6865 0.0000 0.0000 0.0000
# 4 0.0000 0.0000 0.0000 -4.1989 0.0000 0.0000
# 5 0.0000 0.0000 0.0000 0.0000 21.6626 0.0000
# 6 0.0000 0.0000 0.0000 0.0000 0.0000 -28.2908
#
#
#
# Elastic Compliance Matrix: (Units=1/GPa)
#
#
# Indices 1 2 3 4 5 6 
#
# 1 0.010143 -0.011177 -0.001668 0.000000 0.000000 0.000000
# 2 -0.011177 0.068895 -0.004886 0.000000 0.000000 0.000000
# 3 -0.001668 -0.004886 0.007073 0.000000 0.000000 0.000000
# 4 0.000000 0.000000 0.000000 -0.238160 0.000000 0.000000
# 5 0.000000 0.000000 0.000000 0.000000 0.046162 0.000000
# 6 0.000000 0.000000 0.000000 0.000000 0.000000 -0.035347
#
#
# Mechanical properties :
#
#
# Convention : Reuss Voigt Hill
#
# Bulk Modulus (GPa) = 19.74419 56.67623 38.21021
# Shear Modulus (GPa) = -56.25141 12.96314 -21.64413
#
# Velocity S-wave (km/s) = -5.09014 2.44353 -3.15742
# Velocity P-wave (km/s) = 5.04498 5.83663 2.07539
#
# Compressibility (1/GPa) = 0.05064782
#
# Stress axis : x y z
#
# Youngs Moduli (GPa) = 98.58778 14.51479 141.38490
#
# Poissons Ratio (x) = 0.16224 0.23586
# Poissons Ratio (y) = 1.10194 0.69085
# Poissons Ratio (z) = 0.16447 0.07092
#
# Static dielectric constant tensor:
#      x y z
#    x 1.867910 0.000000 0.000000 
#    y 0.000000 1.786360 0.000000 
#    z 0.000000 0.000000 1.842340 
# 
# From -- ./inp_files/25418.got.cif
#   From: 2010.05.17/outbox.cif.g08.bks.cpg/sg74_13_cif.got.tgz:25418.got - 2010.06.03 17:57:02.
