data_PCOD9535881
_publ_section_title
;
Structure prediction by ZEFSAII (Michael W. Deem and Ramdas Pophale) SiO2 
 PCOD9535881
Probable space group: I M M A
;
_chemical_formula_sum "Si O2"
_cell_formula_units_Z 104
_cell_length_a 8.899980
_cell_length_b 21.068102
_cell_length_c 32.273306
_cell_angle_alpha 90.000000
_cell_angle_beta 90.000000
_cell_angle_gamma 90.000000
_cell_volume 6051.428395
_symmetry_space_group_name_H-M "I M M A"
_symmetry_group_IT_number 74
_symmetry_cell_setting 'orthorhombic'
loop_
_space_group_symop_operation_xyz
x,y,z
-x,1/2-y,z
x,-y,-z
-x,1/2+y,-z
-x,-y,-z
x,1/2+y,-z
-x,y,z
x,1/2-y,z
1/2+x,1/2+y,1/2+z
1/2-x,-y,1/2+z
1/2+x,1/2-y,1/2-z
1/2-x,y,1/2-z
1/2-x,1/2-y,1/2-z
1/2+x,y,1/2-z
1/2-x,1/2+y,1/2+z
1/2+x,-y,1/2+z
loop_
_atom_site_type_symbol
_atom_site_label
_atom_site_fract_x
_atom_site_fract_y
_atom_site_fract_z
Si Si1 0.673536 0.122280 0.676365
Si Si2 0.680129 0.504912 0.792429
Si Si3 0.681263 0.447182 0.116719
Si Si4 0.682679 0.679556 0.928134
Si Si5 0.321242 0.250000 0.795471
Si Si6 0.172712 0.571879 0.082579
Si Si7 0.681088 0.177951 0.974988
O O1 0.500000 0.128488 0.689984
O O2 0.760933 0.187271 0.682381
O O3 0.675262 0.102926 0.628291
O O4 0.754110 0.065689 0.700987
O O5 0.500000 0.502917 0.789339
O O6 0.750000 0.531259 0.750000
O O7 0.721853 0.541301 0.835046
O O8 0.500000 0.449876 0.114420
O O9 0.733885 0.379502 0.099326
O O10 0.745152 0.504611 0.088968
O O11 0.500000 0.679942 0.926452
O O12 0.733805 0.750000 0.915077
O O13 0.721684 0.670754 0.976522
O O14 0.500000 0.250000 0.793391
O O15 0.250000 0.250000 0.750000
O O16 0.249143 0.621697 0.051738
O O17 0.000000 0.561455 0.070461
O O18 0.500000 0.174912 0.971898
O O19 0.726225 0.250000 0.962040
#
# Coordination Sequence:
#
# PCOD9535881 Si02
#       7
#    16  16  16  16   8  16  16
#     4  10  21  36  50  67  94 129 167 207 251 294
#     4  10  19  32  51  74  98 127 163 202 248 298
#     4   9  18  33  54  77 100 129 168 209 248 297
#     4   8  15  31  55  80 102 127 165 210 251 292
#     4  12  24  36  50  68  92 124 164 210 256 302
#     4  10  21  34  49  71 102 136 168 207 252 297
#     4   9  18  32  51  74 100 133 172 212 252 295
#
# _framework density 17.186024
#
# number of rings (size 3 to 8) (size 9 to 14) (size 15 to 20)
#    0.000    2.462    0.000    3.462    1.077    3.385 
#    0.000    3.846    0.000    1.846    0.000    0.000 
#    0.000    0.000    0.000    0.000    0.000    0.462 
#
# Total GULP energy -290020.259724 kJ/mol
# GULP energy per Si atom -5577.312687 kJ/mol
# Density = 1.714691 g / cm^3
# Si number density = 17.186024 Si / 1000 Ang^3
#
#
#
# Elastic Constant Matrix: (Units=GPa)
#
#
# Indices 1 2 3 4 5 6 
#
# 1 58.3283 42.9425 33.8063 0.0000 0.0000 0.0000
# 2 42.9425 151.1708 78.1568 0.0000 0.0000 0.0000
# 3 33.8063 78.1568 78.4362 0.0000 0.0000 0.0000
# 4 0.0000 0.0000 0.0000 10.5813 0.0000 0.0000
# 5 0.0000 0.0000 0.0000 0.0000 20.9248 0.0000
# 6 0.0000 0.0000 0.0000 0.0000 0.0000 7.1592
#
#
#
# Elastic Compliance Matrix: (Units=1/GPa)
#
#
# Indices 1 2 3 4 5 6 
#
# 1 0.023480 -0.002966 -0.007165 0.000000 0.000000 0.000000
# 2 -0.002966 0.014019 -0.012690 0.000000 0.000000 0.000000
# 3 -0.007165 -0.012690 0.028483 0.000000 0.000000 0.000000
# 4 0.000000 0.000000 0.000000 0.094506 0.000000 0.000000
# 5 0.000000 0.000000 0.000000 0.000000 0.047790 0.000000
# 6 0.000000 0.000000 0.000000 0.000000 0.000000 0.139681
#
#
# Mechanical properties :
#
#
# Convention : Reuss Voigt Hill
#
# Bulk Modulus (GPa) = 49.16581 66.41628 57.79104
# Shear Modulus (GPa) = 12.48809 16.60169 14.54489
#
# Velocity S-wave (km/s) = 2.69855 3.11143 2.91232
# Velocity P-wave (km/s) = 6.19514 7.18591 6.70884
#
# Compressibility (1/GPa) = 0.02033934
#
# Stress axis : x y z
#
# Youngs Moduli (GPa) = 42.58863 71.33414 35.10905
#
# Poissons Ratio (x) = 0.21154 0.25156
# Poissons Ratio (y) = 0.12630 0.44555
# Poissons Ratio (z) = 0.30516 0.90526
#
# Static dielectric constant tensor:
#      x y z
#    x 1.579030 0.000000 0.000000 
#    y 0.000000 1.564300 0.000000 
#    z 0.000000 0.000000 1.608150 
# 
# From -- ./inp_files/64494.got.cif
#   From: 2010.05.17/outbox.cif.g08.bks.cpg/sg74_33_cif.got.tgz:64494.got - 2010.06.03 17:57:02.
