data_PCOD9535442
_publ_section_title
;
Structure prediction by ZEFSAII (Michael W. Deem and Ramdas Pophale) SiO2 
 PCOD9535442
Probable space group: I M M A
;
_chemical_formula_sum "Si O2"
_cell_formula_units_Z 112
_cell_length_a 18.608499
_cell_length_b 18.386149
_cell_length_c 18.721396
_cell_angle_alpha 90.000000
_cell_angle_beta 90.000000
_cell_angle_gamma 90.000000
_cell_volume 6405.312878
_symmetry_space_group_name_H-M "I M M A"
_symmetry_group_IT_number 74
_symmetry_cell_setting 'orthorhombic'
loop_
_space_group_symop_operation_xyz
x,y,z
-x,1/2-y,z
x,-y,-z
-x,1/2+y,-z
-x,-y,-z
x,1/2+y,-z
-x,y,z
x,1/2-y,z
1/2+x,1/2+y,1/2+z
1/2-x,-y,1/2+z
1/2+x,1/2-y,1/2-z
1/2-x,y,1/2-z
1/2-x,1/2-y,1/2-z
1/2+x,y,1/2-z
1/2-x,1/2+y,1/2+z
1/2+x,-y,1/2+z
loop_
_atom_site_type_symbol
_atom_site_label
_atom_site_fract_x
_atom_site_fract_y
_atom_site_fract_z
Si Si1 0.183335 0.334065 0.643644
Si Si2 0.337194 0.337117 0.576826
Si Si3 0.917965 0.021030 0.867868
Si Si4 0.579816 0.834078 0.008986
Si Si5 0.140358 0.955598 0.575579
Si Si6 0.917240 0.945917 0.296235
Si Si7 0.301048 0.568189 0.553756
O O1 0.177925 0.250000 0.663438
O O2 0.265549 0.350138 0.624642
O O3 0.138705 0.346238 0.570313
O O4 0.141999 0.382331 0.700536
O O5 0.354689 0.250000 0.580532
O O6 0.393104 0.398551 0.604080
O O7 0.316789 0.361773 0.495707
O O8 0.914590 0.020760 0.782312
O O9 0.000000 0.009170 0.891276
O O10 0.865847 0.957770 0.896434
O O11 0.500000 0.849473 0.037532
O O12 0.583546 0.750000 0.989486
O O13 0.595322 0.884305 0.942189
O O14 0.222746 0.932257 0.589819
O O15 0.137602 0.000000 0.500000
O O16 0.106571 0.000697 0.639961
O O17 0.000000 0.921348 0.307438
O O18 0.296031 0.500000 0.500000
#
# Coordination Sequence:
#
# PCOD9535442 Si02
#       7
#    16  16  16  16  16  16  16
#     4  10  19  32  50  76 109 143 175 206 253 317
#     4  10  20  36  59  83 106 134 172 221 272 325
#     4  10  23  39  53  75 107 141 179 224 275 322
#     4  10  19  30  47  74 108 141 170 208 258 305
#     4  11  19  31  52  80 105 138 183 223 255 307
#     4  11  22  34  50  75 110 149 184 219 257 306
#     4   9  18  34  56  77 101 134 172 221 270 316
#
# _framework density 17.485485000000001
#
# number of rings (size 3 to 8) (size 9 to 14) (size 15 to 20)
#    0.000    1.857    2.857    2.571    0.000    7.143 
#    0.000    2.857    0.000    0.857    0.000    4.000 
#    0.000    0.000    0.000    0.000    0.000    0.000 
#
# Total GULP energy -312144.852563 kJ/mol
# GULP energy per Si atom -5574.015224 kJ/mol
# Density = 1.744569 g / cm^3
# Si number density = 17.485485 Si / 1000 Ang^3
#
#
#
# Elastic Constant Matrix: (Units=GPa)
#
#
# Indices 1 2 3 4 5 6 
#
# 1 71.0327 11.8750 19.0034 0.0000 0.0000 0.0000
# 2 11.8750 28.0994 14.7339 0.0000 0.0000 0.0000
# 3 19.0034 14.7339 43.6219 0.0000 0.0000 0.0000
# 4 0.0000 0.0000 0.0000 16.9401 0.0000 0.0000
# 5 0.0000 0.0000 0.0000 0.0000 27.0146 0.0000
# 6 0.0000 0.0000 0.0000 0.0000 0.0000 22.7114
#
#
#
# Elastic Compliance Matrix: (Units=1/GPa)
#
#
# Indices 1 2 3 4 5 6 
#
# 1 0.016269 -0.003839 -0.005791 0.000000 0.000000 0.000000
# 2 -0.003839 0.044153 -0.013241 0.000000 0.000000 0.000000
# 3 -0.005791 -0.013241 0.029919 0.000000 0.000000 0.000000
# 4 0.000000 0.000000 0.000000 0.059031 0.000000 0.000000
# 5 0.000000 0.000000 0.000000 0.000000 0.037017 0.000000
# 6 0.000000 0.000000 0.000000 0.000000 0.000000 0.044031
#
#
# Mechanical properties :
#
#
# Convention : Reuss Voigt Hill
#
# Bulk Modulus (GPa) = 22.42148 25.99763 24.20956
# Shear Modulus (GPa) = 17.18042 19.80933 18.49488
#
# Velocity S-wave (km/s) = 3.13797 3.36951 3.25580
# Velocity P-wave (km/s) = 5.09705 5.48074 5.29237
#
# Compressibility (1/GPa) = 0.04460009
#
# Stress axis : x y z
#
# Youngs Moduli (GPa) = 61.46653 22.64839 33.42324
#
# Poissons Ratio (x) = 0.08695 0.19355
# Poissons Ratio (y) = 0.23597 0.44256
# Poissons Ratio (z) = 0.35594 0.29989
#
# Static dielectric constant tensor:
#      x y z
#    x 1.635620 0.000000 0.000000 
#    y 0.000000 1.609080 0.000000 
#    z 0.000000 0.000000 1.596810 
# 
# From -- ./inp_files/44415.got.cif
#   From: 2010.05.17/outbox.cif.g08.bks.cpg/sg74_23_cif.got.tgz:44415.got - 2010.06.03 17:57:02.
