data_PCOD9535255
_publ_section_title
;
Structure prediction by ZEFSAII (Michael W. Deem and Ramdas Pophale) SiO2 
 PCOD9535255
Probable space group: I M M A
;
_chemical_formula_sum "Si O2"
_cell_formula_units_Z 104
_cell_length_a 7.268782
_cell_length_b 23.704311
_cell_length_c 24.987550
_cell_angle_alpha 90.000000
_cell_angle_beta 90.000000
_cell_angle_gamma 90.000000
_cell_volume 4305.391575
_symmetry_space_group_name_H-M "I M M A"
_symmetry_group_IT_number 74
_symmetry_cell_setting 'orthorhombic'
loop_
_space_group_symop_operation_xyz
x,y,z
-x,1/2-y,z
x,-y,-z
-x,1/2+y,-z
-x,-y,-z
x,1/2+y,-z
-x,y,z
x,1/2-y,z
1/2+x,1/2+y,1/2+z
1/2-x,-y,1/2+z
1/2+x,1/2-y,1/2-z
1/2-x,y,1/2-z
1/2-x,1/2-y,1/2-z
1/2+x,y,1/2-z
1/2-x,1/2+y,1/2+z
1/2+x,-y,1/2+z
loop_
_atom_site_type_symbol
_atom_site_label
_atom_site_fract_x
_atom_site_fract_y
_atom_site_fract_z
Si Si1 0.280585 0.109115 0.309546
Si Si2 0.293711 0.516191 0.329780
Si Si3 0.722121 0.525267 0.943594
Si Si4 0.292598 0.846718 0.581321
Si Si5 0.776689 0.313078 0.967495
Si Si6 0.725182 0.132297 0.638313
Si Si7 0.217671 0.750000 0.187356
O O1 0.500000 0.104519 0.318780
O O2 0.250000 0.131297 0.250000
O O3 0.210796 0.147385 0.358826
O O4 0.209645 0.043959 0.311902
O O5 0.500000 0.517938 0.306537
O O6 0.298340 0.509412 0.393967
O O7 0.209853 0.578486 0.327082
O O8 0.500000 0.526418 0.939721
O O9 0.795081 0.588080 0.936593
O O10 0.774863 0.500000 0.000000
O O11 0.500000 0.823748 0.587170
O O12 0.208816 0.818528 0.528550
O O13 0.732165 0.250000 0.947774
O O14 0.718723 0.360198 0.924312
O O15 0.000000 0.316781 0.970098
O O16 0.500000 0.128962 0.639023
O O17 0.785851 0.190981 0.664148
O O18 0.250000 0.750000 0.250000
O O19 0.000000 0.750000 0.175178
#
# Coordination Sequence:
#
# PCOD9535255 Si02
#       7
#    16  16  16  16  16  16   8
#     4   9  18  31  46  67  94 125 161 198 240 292
#     4   9  18  31  48  69  92 122 163 204 240 284
#     4  10  19  29  42  66  99 129 155 188 237 296
#     4   9  18  31  49  73  97 123 161 204 246 297
#     4   9  15  26  49  79 101 120 156 208 256 291
#     4   9  16  29  49  73  99 126 159 204 253 292
#     4  10  20  34  50  70  98 132 171 208 244 290
#
# _framework density 24.155759
#
# number of rings (size 3 to 8) (size 9 to 14) (size 15 to 20)
#    0.000    2.769    0.769    2.308    0.000    5.538 
#    0.000    0.769    0.000    1.846    0.000    0.000 
#    0.000    0.000    0.000    0.000    0.000    0.308 
#
# Total GULP energy -290049.062476 kJ/mol
# GULP energy per Si atom -5577.866586 kJ/mol
# Density = 2.410078 g / cm^3
# Si number density = 24.155759 Si / 1000 Ang^3
#
#
#
# Elastic Constant Matrix: (Units=GPa)
#
#
# Indices 1 2 3 4 5 6 
#
# 1 114.8977 -3.1998 -7.9307 0.0000 0.0000 0.0000
# 2 -3.1998 44.1291 -11.7173 0.0000 0.0000 0.0000
# 3 -7.9307 -11.7173 126.9234 0.0000 0.0000 0.0000
# 4 0.0000 0.0000 0.0000 27.6877 0.0000 0.0000
# 5 0.0000 0.0000 0.0000 0.0000 11.6968 0.0000
# 6 0.0000 0.0000 0.0000 0.0000 0.0000 -27.7413
#
#
#
# Elastic Compliance Matrix: (Units=1/GPa)
#
#
# Indices 1 2 3 4 5 6 
#
# 1 0.008769 0.000801 0.000622 0.000000 0.000000 0.000000
# 2 0.000801 0.023303 0.002201 0.000000 0.000000 0.000000
# 3 0.000622 0.002201 0.008121 0.000000 0.000000 0.000000
# 4 0.000000 0.000000 0.000000 0.036117 0.000000 0.000000
# 5 0.000000 0.000000 0.000000 0.000000 0.085494 0.000000
# 6 0.000000 0.000000 0.000000 0.000000 0.000000 -0.036047
#
#
# Mechanical properties :
#
#
# Convention : Reuss Voigt Hill
#
# Bulk Modulus (GPa) = 21.07879 26.69498 23.88688
# Shear Modulus (GPa) = 37.22404 22.91516 30.06960
#
# Velocity S-wave (km/s) = 3.92982 3.08334 3.53203
# Velocity P-wave (km/s) = 5.41631 4.87352 5.15207
#
# Compressibility (1/GPa) = 0.04744105
#
# Stress axis : x y z
#
# Youngs Moduli (GPa) = 114.04306 42.91226 123.13988
#
# Poissons Ratio (x) = -0.03437 -0.07657
# Poissons Ratio (y) = -0.09134 -0.27108
# Poissons Ratio (z) = -0.07092 -0.09447
#
# Static dielectric constant tensor:
#      x y z
#    x 1.944760 0.000000 0.000000 
#    y 0.000000 1.945100 0.000000 
#    z 0.000000 0.000000 1.933460 
# 
# From -- ./inp_files/57591.got.cif
#   From: 2010.05.17/outbox.cif.g08.bks.cpg/sg74_29_cif.got.tgz:57591.got - 2010.06.03 17:57:02.
