data_PCOD9535327
_publ_section_title
;
Structure prediction by ZEFSAII (Michael W. Deem and Ramdas Pophale) SiO2 
 PCOD9535327
Probable space group: I M M A
;
_chemical_formula_sum "Si O2"
_cell_formula_units_Z 104
_cell_length_a 9.122940
_cell_length_b 30.683882
_cell_length_c 25.065474
_cell_angle_alpha 90.000000
_cell_angle_beta 90.000000
_cell_angle_gamma 90.000000
_cell_volume 7016.508316
_symmetry_space_group_name_H-M "I M M A"
_symmetry_group_IT_number 74
_symmetry_cell_setting 'orthorhombic'
loop_
_space_group_symop_operation_xyz
x,y,z
-x,1/2-y,z
x,-y,-z
-x,1/2+y,-z
-x,-y,-z
x,1/2+y,-z
-x,y,z
x,1/2-y,z
1/2+x,1/2+y,1/2+z
1/2-x,-y,1/2+z
1/2+x,1/2-y,1/2-z
1/2-x,y,1/2-z
1/2-x,1/2-y,1/2-z
1/2+x,y,1/2-z
1/2-x,1/2+y,1/2+z
1/2+x,-y,1/2+z
loop_
_atom_site_type_symbol
_atom_site_label
_atom_site_fract_x
_atom_site_fract_y
_atom_site_fract_z
Si Si1 0.824315 0.494619 0.588274
Si Si2 0.322120 0.653431 0.550965
Si Si3 0.345711 0.750000 0.827720
Si Si4 0.324995 0.571635 0.992964
Si Si5 0.665754 0.387888 0.338776
Si Si6 0.675290 0.250000 0.433150
Si Si7 0.250000 0.323461 0.250000
Si Si8 0.322958 0.017041 0.305777
O O1 0.784551 0.539118 0.556094
O O2 0.795646 0.455511 0.546780
O O3 0.734957 0.491047 0.642792
O O4 0.000000 0.496058 0.598196
O O5 0.500000 0.653372 0.549393
O O6 0.258552 0.617109 0.511670
O O7 0.270560 0.636576 0.609705
O O8 0.272710 0.703543 0.543761
O O9 0.500000 0.750000 0.857640
O O10 0.216899 0.750000 0.870509
O O11 0.336813 0.708592 0.789054
O O12 0.500000 0.578509 0.989639
O O13 0.500000 0.399145 0.354592
O O14 0.663667 0.354780 0.289685
O O15 0.731443 0.433347 0.318935
O O16 0.500000 0.250000 0.437470
O O17 0.500000 0.015920 0.301372
O O18 0.250000 0.003602 0.250000
#
# Coordination Sequence:
#
# PCOD9535327 Si02
#       8
#    16  16   8  16  16   8   8  16
#     4   9  18  33  49  69  93 119 149 184 233 283
#     4  10  19  33  48  64  84 115 153 190 233 279
#     4  11  23  31  44  62  74 104 152 199 238 276
#     4   9  18  32  51  70  91 116 146 191 238 277
#     4  10  19  30  43  59  81 113 151 188 230 277
#     4  10  21  35  48  59  86 120 145 187 239 282
#     4  11  20  34  42  52  82 112 148 194 240 277
#     4  11  21  32  46  68  94 121 153 189 229 272
#
# _framework density 14.822187
#
# number of rings (size 3 to 8) (size 9 to 14) (size 15 to 20)
#    0.000    2.000    3.846    1.846    0.000    2.462 
#    0.000    1.538    0.000    0.000    0.000    0.000 
#    0.000    0.000    0.000    0.692    0.000    8.923 
#
# Total GULP energy -289624.772202 kJ/mol
# GULP energy per Si atom -5569.707158 kJ/mol
# Density = 1.478845 g / cm^3
# Si number density = 14.822187 Si / 1000 Ang^3
#
#
#
# Elastic Constant Matrix: (Units=GPa)
#
#
# Indices 1 2 3 4 5 6 
#
# 1 30.2988 23.2462 30.7704 0.0000 0.0000 0.0000
# 2 23.2462 86.8871 38.4534 0.0000 0.0000 0.0000
# 3 30.7704 38.4534 78.0121 0.0000 0.0000 0.0000
# 4 0.0000 0.0000 0.0000 21.4969 0.0000 0.0000
# 5 0.0000 0.0000 0.0000 0.0000 18.1435 0.0000
# 6 0.0000 0.0000 0.0000 0.0000 0.0000 32.7504
#
#
#
# Elastic Compliance Matrix: (Units=1/GPa)
#
#
# Indices 1 2 3 4 5 6 
#
# 1 0.058136 -0.006914 -0.019523 0.000000 0.000000 0.000000
# 2 -0.006914 0.015543 -0.004934 0.000000 0.000000 0.000000
# 3 -0.019523 -0.004934 0.022951 0.000000 0.000000 0.000000
# 4 0.000000 0.000000 0.000000 0.046518 0.000000 0.000000
# 5 0.000000 0.000000 0.000000 0.000000 0.055116 0.000000
# 6 0.000000 0.000000 0.000000 0.000000 0.000000 0.030534
#
#
# Mechanical properties :
#
#
# Convention : Reuss Voigt Hill
#
# Bulk Modulus (GPa) = 29.50892 42.23757 35.87324
# Shear Modulus (GPa) = 16.51065 21.32671 18.91868
#
# Velocity S-wave (km/s) = 3.34116 3.79732 3.57652
# Velocity P-wave (km/s) = 5.90223 6.91261 6.42730
#
# Compressibility (1/GPa) = 0.03388806
#
# Stress axis : x y z
#
# Youngs Moduli (GPa) = 17.20116 64.33906 43.57113
#
# Poissons Ratio (x) = 0.44483 0.85062
# Poissons Ratio (y) = 0.11893 0.21499
# Poissons Ratio (z) = 0.33581 0.31746
#
# Static dielectric constant tensor:
#      x y z
#    x 1.520780 0.000000 0.000000 
#    y 0.000000 1.507180 0.000000 
#    z 0.000000 0.000000 1.481800 
# 
# From -- ./inp_files/57875.got.cif
#   From: 2010.05.17/outbox.cif.g08.bks.cpg/sg74_29_cif.got.tgz:57875.got - 2010.06.03 17:57:02.
