data_PCOD9535586
_publ_section_title
;
Structure prediction by ZEFSAII (Michael W. Deem and Ramdas Pophale) SiO2 
 PCOD9535586
Probable space group: I M M A
;
_chemical_formula_sum "Si O2"
_cell_formula_units_Z 104
_cell_length_a 22.439331
_cell_length_b 10.011471
_cell_length_c 28.119629
_cell_angle_alpha 90.000000
_cell_angle_beta 90.000000
_cell_angle_gamma 90.000000
_cell_volume 6317.094664
_symmetry_space_group_name_H-M "I M M A"
_symmetry_group_IT_number 74
_symmetry_cell_setting 'orthorhombic'
loop_
_space_group_symop_operation_xyz
x,y,z
-x,1/2-y,z
x,-y,-z
-x,1/2+y,-z
-x,-y,-z
x,1/2+y,-z
-x,y,z
x,1/2-y,z
1/2+x,1/2+y,1/2+z
1/2-x,-y,1/2+z
1/2+x,1/2-y,1/2-z
1/2-x,y,1/2-z
1/2-x,1/2-y,1/2-z
1/2+x,y,1/2-z
1/2-x,1/2+y,1/2+z
1/2+x,-y,1/2+z
loop_
_atom_site_type_symbol
_atom_site_label
_atom_site_fract_x
_atom_site_fract_y
_atom_site_fract_z
Si Si1 0.000000 0.411327 0.451283
Si Si2 0.177457 0.908113 0.311221
Si Si3 0.159644 0.098348 0.121342
Si Si4 0.621766 0.093021 0.106655
Si Si5 0.569008 0.600210 0.537929
Si Si6 0.820072 0.906253 0.201559
Si Si7 0.739481 0.906747 0.954544
O O1 0.000000 0.500000 0.500000
O O2 0.941178 0.438979 0.418948
O O3 0.000000 0.250000 0.462168
O O4 0.167347 0.750000 0.321214
O O5 0.161938 0.934948 0.255940
O O6 0.249327 0.928330 0.309078
O O7 0.142980 0.999868 0.349295
O O8 0.171929 0.250000 0.137535
O O9 0.103611 0.097463 0.086718
O O10 0.214997 0.056926 0.087799
O O11 0.148527 0.001764 0.164726
O O12 0.620250 0.250000 0.121355
O O13 0.673374 0.080309 0.066863
O O14 0.596127 0.500000 0.500000
O O15 0.500000 0.566069 0.545420
O O16 0.572501 0.750000 0.518374
O O17 0.831163 0.750000 0.193233
O O18 0.750551 0.750000 0.966163
O O19 0.747225 0.000000 0.000000
#
# Coordination Sequence:
#
# PCOD9535586 Si02
#       7
#     8  16  16  16  16  16  16
#     4  10  22  38  56  78 106 140 180 222 263 312
#     4   9  18  33  53  77 102 130 164 204 251 305
#     4  10  19  31  48  73 101 129 164 204 247 296
#     4  10  20  35  53  75 103 134 171 214 256 303
#     4   9  18  32  49  69  96 130 166 201 237 285
#     4   9  18  32  51  77 105 129 161 204 251 302
#     4  10  20  31  45  70 101 129 161 202 246 295
#
# _framework density 16.463263999999999
#
# number of rings (size 3 to 8) (size 9 to 14) (size 15 to 20)
#    0.000    2.462    1.538    1.846    0.000    3.077 
#    0.000    1.538    1.692    0.000    0.000    0.000 
#    0.000    0.000    0.000    0.000    0.000    0.000 
#
# Total GULP energy -289635.342895 kJ/mol
# GULP energy per Si atom -5569.910440 kJ/mol
# Density = 1.642579 g / cm^3
# Si number density = 16.463264 Si / 1000 Ang^3
#
#
#
# Elastic Constant Matrix: (Units=GPa)
#
#
# Indices 1 2 3 4 5 6 
#
# 1 54.7649 22.2893 20.9322 0.0000 0.0000 0.0000
# 2 22.2893 65.4466 75.3936 0.0000 0.0000 0.0000
# 3 20.9322 75.3936 103.1025 0.0000 0.0000 0.0000
# 4 0.0000 0.0000 0.0000 40.7620 0.0000 0.0000
# 5 0.0000 0.0000 0.0000 0.0000 20.1811 0.0000
# 6 0.0000 0.0000 0.0000 0.0000 0.0000 16.4590
#
#
#
# Elastic Compliance Matrix: (Units=1/GPa)
#
#
# Indices 1 2 3 4 5 6 
#
# 1 0.021840 -0.014784 0.006377 0.000000 0.000000 0.000000
# 2 -0.014784 0.106954 -0.075209 0.000000 0.000000 0.000000
# 3 0.006377 -0.075209 0.063401 0.000000 0.000000 0.000000
# 4 0.000000 0.000000 0.000000 0.024533 0.000000 0.000000
# 5 0.000000 0.000000 0.000000 0.000000 0.049551 0.000000
# 6 0.000000 0.000000 0.000000 0.000000 0.000000 0.060757
#
#
# Mechanical properties :
#
#
# Convention : Reuss Voigt Hill
#
# Bulk Modulus (GPa) = 40.05959 51.17156 45.61558
# Shear Modulus (GPa) = 9.94850 22.46034 16.20442
#
# Velocity S-wave (km/s) = 2.46089 3.69761 3.14072
# Velocity P-wave (km/s) = 5.69738 7.02706 6.39686
#
# Compressibility (1/GPa) = 0.02496281
#
# Stress axis : x y z
#
# Youngs Moduli (GPa) = 45.78838 9.34980 15.77268
#
# Poissons Ratio (x) = 0.13823 -0.10058
# Poissons Ratio (y) = 0.67694 1.18624
# Poissons Ratio (z) = -0.29199 0.70319
#
# Static dielectric constant tensor:
#      x y z
#    x 1.573190 0.000000 0.000000 
#    y 0.000000 1.575920 0.000000 
#    z 0.000000 0.000000 1.536410 
# 
# From -- ./inp_files/62342.got.cif
#   From: 2010.05.17/outbox.cif.g08.bks.cpg/sg74_32_cif.got.tgz:62342.got - 2010.06.03 17:57:02.
