data_PCOD9535017
_publ_section_title
;
Structure prediction by ZEFSAII (Michael W. Deem and Ramdas Pophale) SiO2 
 PCOD9535017
Probable space group: I M M A
;
_chemical_formula_sum "Si O2"
_cell_formula_units_Z 80
_cell_length_a 14.155586
_cell_length_b 16.748147
_cell_length_c 14.204344
_cell_angle_alpha 90.000000
_cell_angle_beta 90.000000
_cell_angle_gamma 90.000000
_cell_volume 3367.563535
_symmetry_space_group_name_H-M "I M M A"
_symmetry_group_IT_number 74
_symmetry_cell_setting 'orthorhombic'
loop_
_space_group_symop_operation_xyz
x,y,z
-x,1/2-y,z
x,-y,-z
-x,1/2+y,-z
-x,-y,-z
x,1/2+y,-z
-x,y,z
x,1/2-y,z
1/2+x,1/2+y,1/2+z
1/2-x,-y,1/2+z
1/2+x,1/2-y,1/2-z
1/2-x,y,1/2-z
1/2-x,1/2-y,1/2-z
1/2+x,y,1/2-z
1/2-x,1/2+y,1/2+z
1/2+x,-y,1/2+z
loop_
_atom_site_type_symbol
_atom_site_label
_atom_site_fract_x
_atom_site_fract_y
_atom_site_fract_z
Si Si1 0.385077 0.433103 0.238546
Si Si2 0.615832 0.416403 0.453072
Si Si3 0.108878 0.586622 0.369436
Si Si4 0.361713 0.250000 0.758708
Si Si5 0.884657 0.160128 0.443855
Si Si6 0.892380 0.750000 0.038664
O O1 0.500000 0.435464 0.244254
O O2 0.354162 0.416498 0.344235
O O3 0.350831 0.517475 0.196153
O O4 0.359989 0.367939 0.160328
O O5 0.645508 0.500000 0.500000
O O6 0.500000 0.416819 0.457769
O O7 0.648272 0.334396 0.502961
O O8 0.109626 0.670744 0.314890
O O9 0.149020 0.601614 0.473286
O O10 0.000000 0.562474 0.384873
O O11 0.250000 0.250000 0.750000
O O12 0.396054 0.250000 0.651539
O O13 0.853459 0.250000 0.463481
O O14 0.000000 0.160067 0.448631
O O15 0.000000 0.750000 0.001933
#
# Coordination Sequence:
#
# PCOD9535017 Si02
#       6
#    16  16  16   8  16   8
#     4   9  17  27  48  79 113 141 169 213 261 307
#     4   9  17  29  46  75 108 139 176 217 257 304
#     4  10  18  33  54  78 105 138 175 214 263 314
#     4  12  24  36  53  76 102 134 177 224 271 312
#     4   9  16  26  45  78 115 140 166 209 260 310
#     4  10  20  34  55  78 105 140 177 216 265 314
#
# _framework density 23.756049000000001
#
# number of rings (size 3 to 8) (size 9 to 14) (size 15 to 20)
#    0.000    2.400    1.000    2.700    1.400    5.600 
#    0.000    0.000    0.000    7.200    0.000    1.400 
#    0.000    0.000    0.000    0.000    0.000    0.000 
#
# Total GULP energy -223680.982939 kJ/mol
# GULP energy per Si atom -5592.024573 kJ/mol
# Density = 2.370198 g / cm^3
# Si number density = 23.756049 Si / 1000 Ang^3
#
#
#
# Elastic Constant Matrix: (Units=GPa)
#
#
# Indices 1 2 3 4 5 6 
#
# 1 89.8226 3.6810 -9.8080 0.0000 0.0000 0.0000
# 2 3.6810 130.0675 59.7576 0.0000 0.0000 0.0000
# 3 -9.8080 59.7576 184.2616 0.0000 0.0000 0.0000
# 4 0.0000 0.0000 0.0000 34.5869 0.0000 0.0000
# 5 0.0000 0.0000 0.0000 0.0000 -33.9583 0.0000
# 6 0.0000 0.0000 0.0000 0.0000 0.0000 8.8862
#
#
#
# Elastic Compliance Matrix: (Units=1/GPa)
#
#
# Indices 1 2 3 4 5 6 
#
# 1 0.011252 -0.000698 0.000825 0.000000 0.000000 0.000000
# 2 -0.000698 0.009078 -0.002981 0.000000 0.000000 0.000000
# 3 0.000825 -0.002981 0.006438 0.000000 0.000000 0.000000
# 4 0.000000 0.000000 0.000000 0.028913 0.000000 0.000000
# 5 0.000000 0.000000 0.000000 0.000000 -0.029448 0.000000
# 6 0.000000 0.000000 0.000000 0.000000 0.000000 0.112534
#
#
# Mechanical properties :
#
#
# Convention : Reuss Voigt Hill
#
# Bulk Modulus (GPa) = 47.48291 56.82365 52.15328
# Shear Modulus (GPa) = 33.00490 25.27105 29.13798
#
# Velocity S-wave (km/s) = 3.73141 3.26509 3.50601
# Velocity P-wave (km/s) = 6.21254 6.17948 6.19603
#
# Compressibility (1/GPa) = 0.02106021
#
# Stress axis : x y z
#
# Youngs Moduli (GPa) = 88.87520 110.16033 155.33306
#
# Poissons Ratio (x) = 0.07684 -0.12817
# Poissons Ratio (y) = 0.06199 0.46306
# Poissons Ratio (z) = -0.07333 0.32840
#
# Static dielectric constant tensor:
#      x y z
#    x 1.863160 0.000000 0.000000 
#    y 0.000000 1.861570 0.000000 
#    z 0.000000 0.000000 1.837640 
# 
# From -- ./inp_files/23634.got.cif
#   From: 2010.05.17/outbox.cif.g08.bks.cpg/sg74_12_cif.got.tgz:23634.got - 2010.06.03 17:57:02.
