data_PCOD9535728
_publ_section_title
;
Structure prediction by ZEFSAII (Michael W. Deem and Ramdas Pophale) SiO2 
 PCOD9535728
Probable space group: I M M A
;
_chemical_formula_sum "Si O2"
_cell_formula_units_Z 88
_cell_length_a 22.654994
_cell_length_b 8.050183
_cell_length_c 24.736487
_cell_angle_alpha 90.000000
_cell_angle_beta 90.000000
_cell_angle_gamma 90.000000
_cell_volume 4511.362519
_symmetry_space_group_name_H-M "I M M A"
_symmetry_group_IT_number 74
_symmetry_cell_setting 'orthorhombic'
loop_
_space_group_symop_operation_xyz
x,y,z
-x,1/2-y,z
x,-y,-z
-x,1/2+y,-z
-x,-y,-z
x,1/2+y,-z
-x,y,z
x,1/2-y,z
1/2+x,1/2+y,1/2+z
1/2-x,-y,1/2+z
1/2+x,1/2-y,1/2-z
1/2-x,y,1/2-z
1/2-x,1/2-y,1/2-z
1/2+x,y,1/2-z
1/2-x,1/2+y,1/2+z
1/2+x,-y,1/2+z
loop_
_atom_site_type_symbol
_atom_site_label
_atom_site_fract_x
_atom_site_fract_y
_atom_site_fract_z
Si Si1 0.434132 0.950162 0.561278
Si Si2 0.601754 0.941732 0.144500
Si Si3 0.563972 0.949228 0.742060
Si Si4 0.655802 0.548228 0.651660
Si Si5 0.000000 0.945235 0.562848
Si Si6 0.275437 0.554162 0.192406
O O1 0.500000 0.011355 0.575358
O O2 0.435523 0.750000 0.565093
O O3 0.383696 0.007552 0.601512
O O4 0.422200 0.000000 0.500000
O O5 0.612799 0.750000 0.131763
O O6 0.665682 0.016680 0.163338
O O7 0.566566 0.963594 0.200430
O O8 0.559014 0.003796 0.096599
O O9 0.500000 0.979950 0.715794
O O10 0.568287 0.750000 0.750420
O O11 0.618166 0.000754 0.704685
O O12 0.660430 0.750000 0.651606
O O13 0.720039 0.470863 0.653315
O O14 0.000000 0.750000 0.562435
O O15 0.000000 0.000000 0.500000
O O16 0.287150 0.750000 0.202202
O O17 0.250000 0.483774 0.250000
#
# Coordination Sequence:
#
# PCOD9535728 Si02
#       6
#    16  16  16  16   8  16
#     4   9  18  34  54  77 108 145 187 234 280 328
#     4  11  22  38  60  86 118 153 192 237 292 349
#     4  10  19  31  51  82 116 150 190 238 291 345
#     4  10  20  33  53  81 114 151 194 238 283 340
#     4  12  26  46  70  94 120 152 197 248 303 358
#     4  10  21  37  55  81 119 158 191 231 285 345
#
# _framework density 19.5063
#
# number of rings (size 3 to 8) (size 9 to 14) (size 15 to 20)
#    0.000    1.818    2.727    1.909    0.000    4.727 
#    0.000    0.909    0.000    5.455    0.000    0.000 
#    0.000    0.000    0.000    0.000    0.000    0.000 
#
# Total GULP energy -245294.775754 kJ/mol
# GULP energy per Si atom -5574.881267 kJ/mol
# Density = 1.946190 g / cm^3
# Si number density = 19.506300 Si / 1000 Ang^3
#
#
#
# Elastic Constant Matrix: (Units=GPa)
#
#
# Indices 1 2 3 4 5 6 
#
# 1 170.6640 14.4684 75.2722 0.0000 0.0000 0.0000
# 2 14.4684 21.7126 11.4461 0.0000 0.0000 0.0000
# 3 75.2722 11.4461 115.8211 0.0000 0.0000 0.0000
# 4 0.0000 0.0000 0.0000 25.5020 0.0000 0.0000
# 5 0.0000 0.0000 0.0000 0.0000 26.2858 0.0000
# 6 0.0000 0.0000 0.0000 0.0000 0.0000 -89.7957
#
#
#
# Elastic Compliance Matrix: (Units=1/GPa)
#
#
# Indices 1 2 3 4 5 6 
#
# 1 0.008379 -0.002862 -0.005163 0.000000 0.000000 0.000000
# 2 -0.002862 0.049565 -0.003038 0.000000 0.000000 0.000000
# 3 -0.005163 -0.003038 0.012290 0.000000 0.000000 0.000000
# 4 0.000000 0.000000 0.000000 0.039213 0.000000 0.000000
# 5 0.000000 0.000000 0.000000 0.000000 0.038043 0.000000
# 6 0.000000 0.000000 0.000000 0.000000 0.000000 -0.011136
#
#
# Mechanical properties :
#
#
# Convention : Reuss Voigt Hill
#
# Bulk Modulus (GPa) = 20.78674 56.73013 38.75843
# Shear Modulus (GPa) = 28.65081 6.19915 17.42498
#
# Velocity S-wave (km/s) = 3.83665 1.78464 2.99206
# Velocity P-wave (km/s) = 5.50509 5.77864 5.64352
#
# Compressibility (1/GPa) = 0.04810760
#
# Stress axis : x y z
#
# Youngs Moduli (GPa) = 119.34359 20.17556 81.36977
#
# Poissons Ratio (x) = 0.05774 0.42010
# Poissons Ratio (y) = 0.34155 0.24723
# Poissons Ratio (z) = 0.61615 0.06130
#
# Static dielectric constant tensor:
#      x y z
#    x 1.743620 0.000000 0.000000 
#    y 0.000000 1.731830 0.000000 
#    z 0.000000 0.000000 2.380480 
# 
# From -- ./inp_files/61432.got.cif
#   From: 2010.05.17/outbox.cif.g08.bks.cpg/sg74_31_cif.got.tgz:61432.got - 2010.06.03 17:57:02.
