data_PCOD9535811
_publ_section_title
;
Structure prediction by ZEFSAII (Michael W. Deem and Ramdas Pophale) SiO2 
 PCOD9535811
Probable space group: I M M A
;
_chemical_formula_sum "Si O2"
_cell_formula_units_Z 80
_cell_length_a 9.514366
_cell_length_b 25.244180
_cell_length_c 19.546411
_cell_angle_alpha 90.000000
_cell_angle_beta 90.000000
_cell_angle_gamma 90.000000
_cell_volume 4694.703278
_symmetry_space_group_name_H-M "I M M A"
_symmetry_group_IT_number 74
_symmetry_cell_setting 'orthorhombic'
loop_
_space_group_symop_operation_xyz
x,y,z
-x,1/2-y,z
x,-y,-z
-x,1/2+y,-z
-x,-y,-z
x,1/2+y,-z
-x,y,z
x,1/2-y,z
1/2+x,1/2+y,1/2+z
1/2-x,-y,1/2+z
1/2+x,1/2-y,1/2-z
1/2-x,y,1/2-z
1/2-x,1/2-y,1/2-z
1/2+x,y,1/2-z
1/2-x,1/2+y,1/2+z
1/2+x,-y,1/2+z
loop_
_atom_site_type_symbol
_atom_site_label
_atom_site_fract_x
_atom_site_fract_y
_atom_site_fract_z
Si Si1 0.674793 0.497649 0.896225
Si Si2 0.000000 0.307889 0.845034
Si Si3 0.250000 0.528447 0.250000
Si Si4 0.000000 0.109157 0.725689
Si Si5 0.708620 0.691035 0.469285
Si Si6 0.000000 0.690853 0.398287
Si Si7 0.167442 0.925834 0.001792
O O1 0.500000 0.496448 0.898247
O O2 0.738570 0.504626 0.820093
O O3 0.747720 0.444730 0.929542
O O4 0.743632 0.543403 0.943692
O O5 0.000000 0.350801 0.787952
O O6 0.129361 0.312439 0.896581
O O7 0.000000 0.250000 0.812988
O O8 0.126655 0.569432 0.264617
O O9 0.000000 0.144043 0.657074
O O10 0.675710 0.750000 0.497974
O O11 0.671395 0.637412 0.508354
O O12 0.868745 0.688116 0.448209
O O13 0.000000 0.750000 0.365210
O O14 0.000000 0.940193 0.005575
#
# Coordination Sequence:
#
# PCOD9535811 Si02
#       7
#    16   8   8   8  16   8  16
#     4  11  24  40  56  82 112 148 188 239 286 339
#     4  10  19  32  49  72 107 144 182 227 270 312
#     4  12  26  36  55  76 111 146 192 236 284 332
#     4  12  21  34  50  74 102 150 193 230 266 320
#     4  10  21  35  53  79 110 143 182 232 279 328
#     4  10  21  34  49  74 109 150 192 229 270 316
#     4  11  22  36  62  84 111 145 189 234 286 343
#
# _framework density 17.040479999999999
#
# number of rings (size 3 to 8) (size 9 to 14) (size 15 to 20)
#    0.000    1.200    2.000    6.300    5.600    0.000 
#    0.000    4.000    0.000    0.000    0.000    0.700 
#    0.000    0.000    0.000    0.000    0.000    0.000 
#
# Total GULP energy -222669.288062 kJ/mol
# GULP energy per Si atom -5566.732202 kJ/mol
# Density = 1.700170 g / cm^3
# Si number density = 17.040480 Si / 1000 Ang^3
#
#
#
# Elastic Constant Matrix: (Units=GPa)
#
#
# Indices 1 2 3 4 5 6 
#
# 1 110.9797 19.4603 16.1503 0.0000 0.0000 0.0000
# 2 19.4603 109.0625 23.4429 0.0000 0.0000 0.0000
# 3 16.1503 23.4429 77.9770 -0.0001 0.0000 0.0000
# 4 0.0000 0.0000 -0.0001 37.5426 0.0000 0.0000
# 5 0.0000 0.0000 0.0000 0.0000 19.1988 0.0000
# 6 0.0000 0.0000 0.0000 0.0000 0.0000 25.4167
#
#
#
# Elastic Compliance Matrix: (Units=1/GPa)
#
#
# Indices 1 2 3 4 5 6 
#
# 1 0.009475 -0.001356 -0.001555 0.000000 0.000000 0.000000
# 2 -0.001356 0.009997 -0.002724 0.000000 0.000000 0.000000
# 3 -0.001555 -0.002724 0.013965 0.000000 0.000000 0.000000
# 4 0.000000 0.000000 0.000000 0.026636 0.000000 0.000000
# 5 0.000000 0.000000 0.000000 0.000000 0.052087 0.000000
# 6 0.000000 0.000000 0.000000 0.000000 0.000000 0.039344
#
#
# Mechanical properties :
#
#
# Convention : Reuss Voigt Hill
#
# Bulk Modulus (GPa) = 45.11446 46.23626 45.67536
# Shear Modulus (GPa) = 29.38352 32.36268 30.87310
#
# Velocity S-wave (km/s) = 4.15702 4.36267 4.26108
# Velocity P-wave (km/s) = 7.04084 7.25047 7.14642
#
# Compressibility (1/GPa) = 0.02216584
#
# Stress axis : x y z
#
# Youngs Moduli (GPa) = 105.54377 100.03292 71.60580
#
# Poissons Ratio (x) = 0.13569 0.11132
# Poissons Ratio (y) = 0.14316 0.19509
# Poissons Ratio (z) = 0.16408 0.27254
#
# Static dielectric constant tensor:
#      x y z
#    x 1.584380 0.000000 0.000000 
#    y 0.000000 1.655910 0.000000 
#    z 0.000000 0.000000 1.578660 
# 
# From -- ./inp_files/48656.got.cif
#   From: 2010.05.17/outbox.cif.g08.bks.cpg/sg74_25_cif.got.tgz:48656.got - 2010.06.03 17:57:02.
