data_PCOD9535751
_publ_section_title
;
Structure prediction by ZEFSAII (Michael W. Deem and Ramdas Pophale) SiO2 
 PCOD9535751
Probable space group: I M M A
;
_chemical_formula_sum "Si O2"
_cell_formula_units_Z 72
_cell_length_a 29.582132
_cell_length_b 14.538924
_cell_length_c 6.888101
_cell_angle_alpha 90.000000
_cell_angle_beta 90.000000
_cell_angle_gamma 90.000000
_cell_volume 2962.519676
_symmetry_space_group_name_H-M "I M M A"
_symmetry_group_IT_number 74
_symmetry_cell_setting 'orthorhombic'
loop_
_space_group_symop_operation_xyz
x,y,z
-x,1/2-y,z
x,-y,-z
-x,1/2+y,-z
-x,-y,-z
x,1/2+y,-z
-x,y,z
x,1/2-y,z
1/2+x,1/2+y,1/2+z
1/2-x,-y,1/2+z
1/2+x,1/2-y,1/2-z
1/2-x,y,1/2-z
1/2-x,1/2-y,1/2-z
1/2+x,y,1/2-z
1/2-x,1/2+y,1/2+z
1/2+x,-y,1/2+z
loop_
_atom_site_type_symbol
_atom_site_label
_atom_site_fract_x
_atom_site_fract_y
_atom_site_fract_z
Si Si1 0.340918 0.646032 0.026695
Si Si2 0.645201 0.393664 0.432153
Si Si3 0.909255 0.500000 0.500000
Si Si4 0.450707 0.092115 0.371925
Si Si5 0.741280 0.110250 0.475970
O O1 0.356038 0.750000 0.055651
O O2 0.344637 0.619370 0.797615
O O3 0.375939 0.571996 0.111161
O O4 0.287910 0.638136 0.077301
O O5 0.643959 0.500000 0.500000
O O6 0.594197 0.357039 0.450110
O O7 0.691070 0.354235 0.525366
O O8 0.938643 0.556776 0.654394
O O9 0.500000 0.137445 0.376701
O O10 0.453826 0.000000 0.500000
O O11 0.750000 0.133549 0.250000
O O12 0.739706 0.000000 0.500000
#
# Coordination Sequence:
#
# PCOD9535751 Si02
#       5
#    16  16   8  16  16
#     4  10  19  31  53  82 111 151 198 235 288 363
#     4   8  16  29  48  76 107 144 184 237 289 340
#     4  10  19  34  56  84 114 152 185 248 296 342
#     4   9  17  31  55  84 108 144 195 238 289 355
#     4   9  16  28  47  74 104 145 183 225 286 344
#
# _framework density 24.303635
#
# number of rings (size 3 to 8) (size 9 to 14) (size 15 to 20)
#    0.000    2.889    1.111    0.333    0.000    4.000 
#    0.000    0.000    0.000   38.667    0.000   18.667 
#    0.000    0.000    0.000    0.000    0.000    0.000 
#
# Total GULP energy -200701.053268 kJ/mol
# GULP energy per Si atom -5575.029257 kJ/mol
# Density = 2.424832 g / cm^3
# Si number density = 24.303635 Si / 1000 Ang^3
#
#
#
# Elastic Constant Matrix: (Units=GPa)
#
#
# Indices 1 2 3 4 5 6 
#
# 1 256.6105 30.8663 33.7115 0.0000 0.0000 0.0000
# 2 30.8663 129.9390 -2.8747 0.0000 0.0000 0.0000
# 3 33.7115 -2.8747 97.6379 0.0000 0.0000 0.0000
# 4 0.0000 0.0000 0.0000 -1.9044 0.0000 0.0000
# 5 0.0000 0.0000 0.0000 0.0000 23.0027 0.0000
# 6 0.0000 0.0000 0.0000 0.0000 0.0000 -37.1005
#
#
#
# Elastic Compliance Matrix: (Units=1/GPa)
#
#
# Indices 1 2 3 4 5 6 
#
# 1 0.004217 -0.001035 -0.001486 0.000000 0.000000 0.000000
# 2 -0.001035 0.007955 0.000591 0.000000 0.000000 0.000000
# 3 -0.001486 0.000591 0.010773 0.000000 0.000000 0.000000
# 4 0.000000 0.000000 0.000000 -0.525098 0.000000 0.000000
# 5 0.000000 0.000000 0.000000 0.000000 0.043473 0.000000
# 6 0.000000 0.000000 0.000000 0.000000 0.000000 -0.026954
#
#
# Mechanical properties :
#
#
# Convention : Reuss Voigt Hill
#
# Bulk Modulus (GPa) = 52.39720 67.51039 59.95379
# Shear Modulus (GPa) = -10.51715 24.96517 7.22401
#
# Velocity S-wave (km/s) = -2.08250 3.20850 1.72593
# Velocity P-wave (km/s) = 3.97792 6.44703 5.35668
#
# Compressibility (1/GPa) = 0.01908499
#
# Stress axis : x y z
#
# Youngs Moduli (GPa) = 237.15457 125.71107 92.82870
#
# Poissons Ratio (x) = 0.13005 0.13798
# Poissons Ratio (y) = 0.24534 -0.05490
# Poissons Ratio (z) = 0.35249 -0.07435
#
# Static dielectric constant tensor:
#      x y z
#    x 2.002610 0.000000 0.000000 
#    y 0.000000 1.824160 0.000000 
#    z 0.000000 0.000000 2.084540 
# 
# From -- ./inp_files/15947.got.cif
#   From: 2010.05.17/outbox.cif.g08.bks.cpg/sg74_8_cif.got.tgz:15947.got - 2010.06.03 17:57:02.
