data_PCOD9535244
_publ_section_title
;
Structure prediction by ZEFSAII (Michael W. Deem and Ramdas Pophale) SiO2 
 PCOD9535244
Probable space group: I M M A
;
_chemical_formula_sum "Si O2"
_cell_formula_units_Z 112
_cell_length_a 29.441551
_cell_length_b 15.611688
_cell_length_c 13.050840
_cell_angle_alpha 90.000000
_cell_angle_beta 90.000000
_cell_angle_gamma 90.000000
_cell_volume 5998.587716
_symmetry_space_group_name_H-M "I M M A"
_symmetry_group_IT_number 74
_symmetry_cell_setting 'orthorhombic'
loop_
_space_group_symop_operation_xyz
x,y,z
-x,1/2-y,z
x,-y,-z
-x,1/2+y,-z
-x,-y,-z
x,1/2+y,-z
-x,y,z
x,1/2-y,z
1/2+x,1/2+y,1/2+z
1/2-x,-y,1/2+z
1/2+x,1/2-y,1/2-z
1/2-x,y,1/2-z
1/2-x,1/2-y,1/2-z
1/2+x,y,1/2-z
1/2-x,1/2+y,1/2+z
1/2+x,-y,1/2+z
loop_
_atom_site_type_symbol
_atom_site_label
_atom_site_fract_x
_atom_site_fract_y
_atom_site_fract_z
Si Si1 0.356436 0.099113 0.351310
Si Si2 0.949180 0.646624 0.187638
Si Si3 0.794223 0.342993 0.323923
Si Si4 0.646397 0.408533 0.732133
Si Si5 0.797780 0.153030 0.951350
Si Si6 0.050591 0.146474 0.050293
Si Si7 0.723481 0.468260 0.859067
O O1 0.336968 0.148078 0.252706
O O2 0.326065 0.125102 0.448973
O O3 0.408344 0.115694 0.380421
O O4 0.350698 0.000307 0.323777
O O5 0.948558 0.750000 0.189257
O O6 0.905966 0.613523 0.249350
O O7 0.000000 0.619203 0.219176
O O8 0.942524 0.619867 0.068357
O O9 0.796604 0.250000 0.376778
O O10 0.750000 0.340716 0.250000
O O11 0.789691 0.433213 0.384050
O O12 0.669119 0.347273 0.647644
O O13 0.677721 0.416293 0.832218
O O14 0.781286 0.250000 0.966065
O O15 0.758126 0.085513 0.927550
O O16 0.051280 0.250000 0.050748
O O17 0.000000 0.118243 0.081783
O O18 0.750000 0.473858 0.750000
#
# Coordination Sequence:
#
# PCOD9535244 Si02
#       7
#    16  16  16  16  16  16  16
#     4  11  20  30  46  68  89 116 154 194 230 273
#     4   9  17  28  41  58  82 115 156 194 227 268
#     4   9  17  31  48  63  84 113 145 185 231 274
#     4  10  19  29  42  60  85 114 148 189 228 267
#     4  11  20  30  45  63  85 115 150 187 227 270
#     4   9  17  28  41  60  86 114 149 189 224 263
#     4   8  18  31  41  61  85 106 145 186 221 271
#
# _framework density 18.671061999999999
#
# number of rings (size 3 to 8) (size 9 to 14) (size 15 to 20)
#    0.000    2.429    1.429    3.857    0.000    3.714 
#    0.000    1.429    0.000    0.000    0.000    0.000 
#    0.000    0.000    0.000    1.286    0.000  115.429 
#
# Total GULP energy -312483.750376 kJ/mol
# GULP energy per Si atom -5580.066971 kJ/mol
# Density = 1.862857 g / cm^3
# Si number density = 18.671062 Si / 1000 Ang^3
#
#
#
# Elastic Constant Matrix: (Units=GPa)
#
#
# Indices 1 2 3 4 5 6 
#
# 1 157.1538 34.4190 30.5030 0.0000 0.0000 0.0000
# 2 34.4190 91.2537 10.2408 0.0000 0.0000 0.0000
# 3 30.5030 10.2408 24.7242 0.0000 0.0000 0.0000
# 4 0.0000 0.0000 0.0000 11.4863 0.0000 0.0000
# 5 0.0000 0.0000 0.0000 0.0000 29.8919 0.0000
# 6 0.0000 0.0000 0.0000 0.0000 0.0000 28.0017
#
#
#
# Elastic Compliance Matrix: (Units=1/GPa)
#
#
# Indices 1 2 3 4 5 6 
#
# 1 0.008767 -0.002195 -0.009907 0.000000 0.000000 0.000000
# 2 -0.002195 0.012042 -0.002280 0.000000 0.000000 0.000000
# 3 -0.009907 -0.002280 0.053613 0.000000 0.000000 0.000000
# 4 0.000000 0.000000 0.000000 0.087060 0.000000 0.000000
# 5 0.000000 0.000000 0.000000 0.000000 0.033454 0.000000
# 6 0.000000 0.000000 0.000000 0.000000 0.000000 0.035712
#
#
# Mechanical properties :
#
#
# Convention : Reuss Voigt Hill
#
# Bulk Modulus (GPa) = 21.90168 47.05080 34.47624
# Shear Modulus (GPa) = 18.20628 27.07392 22.64010
#
# Velocity S-wave (km/s) = 3.12606 3.81208 3.48599
# Velocity P-wave (km/s) = 4.97849 6.68061 5.89134
#
# Compressibility (1/GPa) = 0.04565860
#
# Stress axis : x y z
#
# Youngs Moduli (GPa) = 114.06737 83.04136 18.65227
#
# Poissons Ratio (x) = 0.18227 0.18478
# Poissons Ratio (y) = 0.25036 0.04253
# Poissons Ratio (z) = 1.13003 0.18934
#
# Static dielectric constant tensor:
#      x y z
#    x 1.674180 0.000000 0.000000 
#    y 0.000000 1.698020 0.000000 
#    z 0.000000 0.000000 1.641950 
# 
# From -- ./inp_files/33155.got.cif
#   From: 2010.05.17/outbox.cif.g08.bks.cpg/sg74_17_cif.got.tgz:33155.got - 2010.06.03 17:57:02.
