data_PCOD9535861
_publ_section_title
;
Structure prediction by ZEFSAII (Michael W. Deem and Ramdas Pophale) SiO2 
 PCOD9535861
Probable space group: I M M A
;
_chemical_formula_sum "Si O2"
_cell_formula_units_Z 88
_cell_length_a 20.296875
_cell_length_b 19.103567
_cell_length_c 12.432884
_cell_angle_alpha 90.000000
_cell_angle_beta 90.000000
_cell_angle_gamma 90.000000
_cell_volume 4820.760153
_symmetry_space_group_name_H-M "I M M A"
_symmetry_group_IT_number 74
_symmetry_cell_setting 'orthorhombic'
loop_
_space_group_symop_operation_xyz
x,y,z
-x,1/2-y,z
x,-y,-z
-x,1/2+y,-z
-x,-y,-z
x,1/2+y,-z
-x,y,z
x,1/2-y,z
1/2+x,1/2+y,1/2+z
1/2-x,-y,1/2+z
1/2+x,1/2-y,1/2-z
1/2-x,y,1/2-z
1/2-x,1/2-y,1/2-z
1/2+x,y,1/2-z
1/2-x,1/2+y,1/2+z
1/2+x,-y,1/2+z
loop_
_atom_site_type_symbol
_atom_site_label
_atom_site_fract_x
_atom_site_fract_y
_atom_site_fract_z
Si Si1 0.926245 0.664877 0.441261
Si Si2 0.750000 0.373363 0.250000
Si Si3 0.890593 0.330003 0.320816
Si Si4 0.714476 0.333296 0.864436
Si Si5 0.926055 0.666413 0.913664
Si Si6 0.303549 0.580226 0.527937
O O1 0.927857 0.750000 0.442821
O O2 0.909504 0.639606 0.563246
O O3 0.863193 0.647349 0.367616
O O4 0.000000 0.641255 0.410546
O O5 0.812178 0.331632 0.298492
O O6 0.722136 0.416260 0.349785
O O7 0.913376 0.250000 0.326264
O O8 0.921989 0.358524 0.211100
O O9 0.719505 0.250000 0.892635
O O10 0.750000 0.342727 0.750000
O O11 0.751556 0.380510 0.951697
O O12 0.910945 0.750000 0.914631
O O13 0.870831 0.624494 0.976855
O O14 0.000000 0.656877 0.954033
O O15 0.313347 0.500000 0.500000
#
# Coordination Sequence:
#
# PCOD9535861 Si02
#       6
#    16   8  16  16  16  16
#     4   9  16  28  50  80 109 138 179 231 284 334
#     4  10  19  32  50  80 107 146 184 232 290 338
#     4   9  15  25  48  81 113 138 170 223 283 338
#     4  10  21  38  58  81 111 151 194 238 288 348
#     4   9  18  33  54  82 115 148 185 232 290 350
#     4  11  23  36  56  82 112 151 194 243 288 348
#
# _framework density 18.254380999999999
#
# number of rings (size 3 to 8) (size 9 to 14) (size 15 to 20)
#    0.000    2.364    1.818    1.364    1.273    4.000 
#    0.000    0.909    0.000    3.818    0.000    0.000 
#    0.000    0.000    0.000    0.000    0.000    0.000 
#
# Total GULP energy -245053.255555 kJ/mol
# GULP energy per Si atom -5569.392172 kJ/mol
# Density = 1.821283 g / cm^3
# Si number density = 18.254381 Si / 1000 Ang^3
#
#
#
# Elastic Constant Matrix: (Units=GPa)
#
#
# Indices 1 2 3 4 5 6 
#
# 1 172.3266 45.5665 49.5553 0.0000 0.0000 0.0000
# 2 45.5665 56.4361 34.0369 0.0000 0.0000 0.0000
# 3 49.5553 34.0369 63.7932 0.0000 0.0000 0.0000
# 4 0.0000 0.0000 0.0000 8.7187 0.0000 0.0000
# 5 0.0000 0.0000 0.0000 0.0000 19.7891 0.0000
# 6 0.0000 0.0000 0.0000 0.0000 0.0000 2.4712
#
#
#
# Elastic Compliance Matrix: (Units=1/GPa)
#
#
# Indices 1 2 3 4 5 6 
#
# 1 0.008047 -0.004021 -0.004105 0.000000 0.000000 0.000000
# 2 -0.004021 0.028135 -0.011888 0.000000 0.000000 0.000000
# 3 -0.004105 -0.011888 0.025208 0.000000 0.000000 0.000000
# 4 0.000000 0.000000 0.000000 0.114696 0.000000 0.000000
# 5 0.000000 0.000000 0.000000 0.000000 0.050533 0.000000
# 6 0.000000 0.000000 0.000000 0.000000 0.000000 0.404658
#
#
# Mechanical properties :
#
#
# Convention : Reuss Voigt Hill
#
# Bulk Modulus (GPa) = 46.81461 61.20817 54.01139
# Shear Modulus (GPa) = 7.37000 17.08896 12.22948
#
# Velocity S-wave (km/s) = 2.01150 3.06299 2.59114
# Velocity P-wave (km/s) = 5.57640 6.79063 6.21325
#
# Compressibility (1/GPa) = 0.02136085
#
# Stress axis : x y z
#
# Youngs Moduli (GPa) = 124.27414 35.54229 39.67035
#
# Poissons Ratio (x) = 0.14291 0.16286
# Poissons Ratio (y) = 0.49970 0.47161
# Poissons Ratio (z) = 0.51020 0.42253
#
# Static dielectric constant tensor:
#      x y z
#    x 1.664430 0.000000 0.000000 
#    y 0.000000 1.595450 0.000000 
#    z 0.000000 0.000000 1.641400 
# 
# From -- ./inp_files/23706.got.cif
#   From: 2010.05.17/outbox.cif.g08.bks.cpg/sg74_12_cif.got.tgz:23706.got - 2010.06.03 17:57:02.
