data_PCOD9535859
_publ_section_title
;
Structure prediction by ZEFSAII (Michael W. Deem and Ramdas Pophale) SiO2 
 PCOD9535859
Probable space group: I M M A
;
_chemical_formula_sum "Si O2"
_cell_formula_units_Z 104
_cell_length_a 22.759745
_cell_length_b 8.000416
_cell_length_c 28.236690
_cell_angle_alpha 90.000000
_cell_angle_beta 90.000000
_cell_angle_gamma 90.000000
_cell_volume 5141.546259
_symmetry_space_group_name_H-M "I M M A"
_symmetry_group_IT_number 74
_symmetry_cell_setting 'orthorhombic'
loop_
_space_group_symop_operation_xyz
x,y,z
-x,1/2-y,z
x,-y,-z
-x,1/2+y,-z
-x,-y,-z
x,1/2+y,-z
-x,y,z
x,1/2-y,z
1/2+x,1/2+y,1/2+z
1/2-x,-y,1/2+z
1/2+x,1/2-y,1/2-z
1/2-x,y,1/2-z
1/2-x,1/2-y,1/2-z
1/2+x,y,1/2-z
1/2-x,1/2+y,1/2+z
1/2+x,-y,1/2+z
loop_
_atom_site_type_symbol
_atom_site_label
_atom_site_fract_x
_atom_site_fract_y
_atom_site_fract_z
Si Si1 0.224104 0.948820 0.945129
Si Si2 0.390964 0.544467 0.612714
Si Si3 0.566615 0.048614 0.180350
Si Si4 0.680908 0.949043 0.124672
Si Si5 0.000000 0.549983 0.946731
Si Si6 0.402345 0.939245 0.714574
Si Si7 0.722959 0.059882 0.698734
O O1 0.221042 0.750000 0.943819
O O2 0.172394 0.010165 0.908766
O O3 0.287953 0.000862 0.924485
O O4 0.215270 0.000000 0.000000
O O5 0.388475 0.750000 0.615896
O O6 0.440028 0.489817 0.576176
O O7 0.416649 0.483534 0.663512
O O8 0.500000 0.993751 0.168900
O O9 0.566886 0.250000 0.182744
O O10 0.582692 0.985941 0.233919
O O11 0.616431 0.003328 0.142019
O O12 0.680719 0.750000 0.127032
O O13 0.727691 0.010504 0.164008
O O14 0.000000 0.750000 0.941050
O O15 0.000000 0.500000 0.000000
O O16 0.425736 0.750000 0.715622
O O17 0.332367 0.942701 0.706695
O O18 0.705212 0.250000 0.683720
O O19 0.750000 0.077168 0.750000
#
# Coordination Sequence:
#
# PCOD9535859 Si02
#       7
#    16  16  16  16   8  16  16
#     4  11  22  38  59  86 115 145 187 240 296 350
#     4   9  19  33  53  80 111 149 191 236 284 333
#     4  10  22  37  56  84 117 154 193 236 283 340
#     4  11  22  37  58  83 113 151 191 235 288 345
#     4  10  20  36  54  72 102 146 196 242 283 330
#     4  10  19  32  52  79 110 146 188 227 272 329
#     4  10  19  32  50  77 111 144 178 221 273 324
#
# _framework density 20.227378999999999
#
# number of rings (size 3 to 8) (size 9 to 14) (size 15 to 20)
#    0.000    1.846    3.077    1.385    1.077    1.231 
#    0.000    1.538    0.000    0.462    0.000    0.000 
#    0.000    0.000    0.000    0.000    0.000    0.000 
#
# Total GULP energy -289648.339908 kJ/mol
# GULP energy per Si atom -5570.160383 kJ/mol
# Density = 2.018134 g / cm^3
# Si number density = 20.227379 Si / 1000 Ang^3
#
#
#
# Elastic Constant Matrix: (Units=GPa)
#
#
# Indices 1 2 3 4 5 6 
#
# 1 130.5678 17.6157 38.8323 0.0000 0.0000 0.0000
# 2 17.6157 24.5379 5.8508 0.0000 0.0000 0.0000
# 3 38.8323 5.8508 78.6982 0.0000 0.0000 0.0000
# 4 0.0000 0.0000 0.0000 22.8436 0.0000 0.0000
# 5 0.0000 0.0000 0.0000 0.0000 34.1968 0.0000
# 6 0.0000 0.0000 0.0000 0.0000 0.0000 8.0343
#
#
#
# Elastic Compliance Matrix: (Units=1/GPa)
#
#
# Indices 1 2 3 4 5 6 
#
# 1 0.009765 -0.005967 -0.004375 0.000000 0.000000 0.000000
# 2 -0.005967 0.045135 -0.000411 0.000000 0.000000 0.000000
# 3 -0.004375 -0.000411 0.014896 0.000000 0.000000 0.000000
# 4 0.000000 0.000000 0.000000 0.043776 0.000000 0.000000
# 5 0.000000 0.000000 0.000000 0.000000 0.029242 0.000000
# 6 0.000000 0.000000 0.000000 0.000000 0.000000 0.124467
#
#
# Mechanical properties :
#
#
# Convention : Reuss Voigt Hill
#
# Bulk Modulus (GPa) = 20.70824 39.82241 30.26532
# Shear Modulus (GPa) = 16.39967 24.44860 20.42414
#
# Velocity S-wave (km/s) = 2.85048 3.48039 3.18107
# Velocity P-wave (km/s) = 4.59278 5.99007 5.33735
#
# Compressibility (1/GPa) = 0.04828996
#
# Stress axis : x y z
#
# Youngs Moduli (GPa) = 102.40621 22.15567 67.13213
#
# Poissons Ratio (x) = 0.13221 0.29369
# Poissons Ratio (y) = 0.61108 0.02760
# Poissons Ratio (z) = 0.44800 0.00911
#
# Static dielectric constant tensor:
#      x y z
#    x 1.694020 0.000000 0.000000 
#    y 0.000000 2.158370 0.000000 
#    z 0.000000 0.000000 7.116290 
# 
# From -- ./inp_files/73370.got.cif
#   From: 2010.05.17/outbox.cif.g08.bks.cpg/sg74_37_cif.got.tgz:73370.got - 2010.06.03 17:57:02.
