data_PCOD9535876
_publ_section_title
;
Structure prediction by ZEFSAII (Michael W. Deem and Ramdas Pophale) SiO2 
 PCOD9535876
Probable space group: I M M A
;
_chemical_formula_sum "Si O2"
_cell_formula_units_Z 72
_cell_length_a 16.900974
_cell_length_b 8.949530
_cell_length_c 28.518957
_cell_angle_alpha 90.000000
_cell_angle_beta 90.000000
_cell_angle_gamma 90.000000
_cell_volume 4313.656910
_symmetry_space_group_name_H-M "I M M A"
_symmetry_group_IT_number 74
_symmetry_cell_setting 'orthorhombic'
loop_
_space_group_symop_operation_xyz
x,y,z
-x,1/2-y,z
x,-y,-z
-x,1/2+y,-z
-x,-y,-z
x,1/2+y,-z
-x,y,z
x,1/2-y,z
1/2+x,1/2+y,1/2+z
1/2-x,-y,1/2+z
1/2+x,1/2-y,1/2-z
1/2-x,y,1/2-z
1/2-x,1/2-y,1/2-z
1/2+x,y,1/2-z
1/2-x,1/2+y,1/2+z
1/2+x,-y,1/2+z
loop_
_atom_site_type_symbol
_atom_site_label
_atom_site_fract_x
_atom_site_fract_y
_atom_site_fract_z
Si Si1 0.169005 0.080155 0.219550
Si Si2 0.411196 0.071002 0.804434
Si Si3 0.325591 0.929470 0.551834
Si Si4 0.756848 0.428499 0.636808
Si Si5 0.500000 0.071051 0.448525
O O1 0.147801 0.250000 0.206754
O O2 0.250000 0.084347 0.250000
O O3 0.106625 0.006687 0.254762
O O4 0.191482 0.984708 0.174164
O O5 0.500000 0.035189 0.820405
O O6 0.405092 0.250000 0.797951
O O7 0.342120 0.028793 0.841004
O O8 0.319917 0.750000 0.548829
O O9 0.413981 0.969727 0.571561
O O10 0.318469 0.000000 0.500000
O O11 0.261960 0.994718 0.587610
O O12 0.753894 0.250000 0.632465
O O13 0.500000 0.250000 0.452639
O O14 0.500000 0.000000 0.500000
#
# Coordination Sequence:
#
# PCOD9535876 Si02
#       5
#    16  16  16  16   8
#     4   9  17  30  48  70  96 126 160 200 244 290
#     4   9  18  33  52  73  99 131 167 206 249 296
#     4  10  19  33  52  74 100 130 165 204 246 294
#     4  10  19  32  51  74 100 132 167 204 247 295
#     4   8  16  30  48  68  92 122 154 192 236 282
#
# _framework density 16.691175000000001
#
# number of rings (size 3 to 8) (size 9 to 14) (size 15 to 20)
#    0.000    2.667    0.000    2.000    0.000    4.889 
#    2.000    0.000    0.000    0.667    0.000    0.000 
#    0.000    0.000    0.000    0.000    0.000    0.000 
#
# Total GULP energy -200504.656199 kJ/mol
# GULP energy per Si atom -5569.573783 kJ/mol
# Density = 1.665318 g / cm^3
# Si number density = 16.691175 Si / 1000 Ang^3
#
#
#
# Elastic Constant Matrix: (Units=GPa)
#
#
# Indices 1 2 3 4 5 6 
#
# 1 102.3167 40.4283 52.2104 0.0000 0.0000 0.0000
# 2 40.4283 55.8407 42.7772 0.0000 0.0000 0.0000
# 3 52.2104 42.7772 89.6699 0.0000 0.0000 0.0000
# 4 0.0000 0.0000 0.0000 30.0193 0.0000 0.0000
# 5 0.0000 0.0000 0.0000 0.0000 21.7653 0.0000
# 6 0.0000 0.0000 0.0000 0.0000 0.0000 18.2512
#
#
#
# Elastic Compliance Matrix: (Units=1/GPa)
#
#
# Indices 1 2 3 4 5 6 
#
# 1 0.015357 -0.006727 -0.005732 0.000000 0.000000 0.000000
# 2 -0.006727 0.031168 -0.010952 0.000000 0.000000 0.000000
# 3 -0.005732 -0.010952 0.019714 0.000000 0.000000 0.000000
# 4 0.000000 0.000000 0.000000 0.033312 0.000000 0.000000
# 5 0.000000 0.000000 0.000000 0.000000 0.045945 0.000000
# 6 0.000000 0.000000 0.000000 0.000000 0.000000 0.054791
#
#
# Mechanical properties :
#
#
# Convention : Reuss Voigt Hill
#
# Bulk Modulus (GPa) = 51.50228 57.62880 54.56554
# Shear Modulus (GPa) = 19.71750 21.50126 20.60938
#
# Velocity S-wave (km/s) = 3.44075 3.59302 3.51771
# Velocity P-wave (km/s) = 6.83433 7.19823 7.01864
#
# Compressibility (1/GPa) = 0.01941662
#
# Stress axis : x y z
#
# Youngs Moduli (GPa) = 65.11827 32.08399 50.72416
#
# Poissons Ratio (x) = 0.21582 0.29077
# Poissons Ratio (y) = 0.43804 0.55554
# Poissons Ratio (z) = 0.37329 0.35139
#
# Static dielectric constant tensor:
#      x y z
#    x 1.589300 0.000000 0.000000 
#    y 0.000000 1.562610 0.000000 
#    z 0.000000 0.000000 1.538080 
# 
# From -- ./inp_files/56705.got.cif
#   From: 2010.05.17/outbox.cif.g08.bks.cpg/sg74_29_cif.got.tgz:56705.got - 2010.06.03 17:57:02.
