data_PCOD9535258
_publ_section_title
;
Structure prediction by ZEFSAII (Michael W. Deem and Ramdas Pophale) SiO2 
 PCOD9535258
Probable space group: I M M A
;
_chemical_formula_sum "Si O2"
_cell_formula_units_Z 96
_cell_length_a 31.239613
_cell_length_b 8.998435
_cell_length_c 21.026853
_cell_angle_alpha 90.000000
_cell_angle_beta 90.000000
_cell_angle_gamma 90.000000
_cell_volume 5910.808750
_symmetry_space_group_name_H-M "I M M A"
_symmetry_group_IT_number 74
_symmetry_cell_setting 'orthorhombic'
loop_
_space_group_symop_operation_xyz
x,y,z
-x,1/2-y,z
x,-y,-z
-x,1/2+y,-z
-x,-y,-z
x,1/2+y,-z
-x,y,z
x,1/2-y,z
1/2+x,1/2+y,1/2+z
1/2-x,-y,1/2+z
1/2+x,1/2-y,1/2-z
1/2-x,y,1/2-z
1/2-x,1/2-y,1/2-z
1/2+x,y,1/2-z
1/2-x,1/2+y,1/2+z
1/2+x,-y,1/2+z
loop_
_atom_site_type_symbol
_atom_site_label
_atom_site_fract_x
_atom_site_fract_y
_atom_site_fract_z
Si Si1 0.634322 0.422725 0.256736
Si Si2 0.432570 0.575736 0.436519
Si Si3 0.748386 0.926153 0.934148
Si Si4 0.652192 0.919634 0.593446
Si Si5 0.452346 0.570846 0.293138
Si Si6 0.215275 0.428255 0.695268
O O1 0.633039 0.250000 0.237909
O O2 0.650243 0.429251 0.330072
O O3 0.586984 0.493267 0.257731
O O4 0.668998 0.511878 0.216220
O O5 0.449760 0.500000 0.500000
O O6 0.439700 0.750000 0.441078
O O7 0.382210 0.535605 0.432244
O O8 0.450077 0.525215 0.367859
O O9 0.739943 0.750000 0.934033
O O10 0.799766 0.946545 0.928731
O O11 0.728563 0.001250 0.871787
O O12 0.733769 0.000000 0.000000
O O13 0.639332 0.750000 0.575853
O O14 0.500000 0.535941 0.269087
O O15 0.446573 0.750000 0.291453
O O16 0.215191 0.250000 0.690915
O O17 0.250000 0.470564 0.750000
#
# Coordination Sequence:
#
# PCOD9535258 Si02
#       6
#    16  16  16  16  16  16
#     4  10  19  33  53  76 100 128 167 213 260 306
#     4  10  19  29  43  62  87 122 164 208 255 304
#     4  11  22  35  50  72 104 139 176 217 261 306
#     4   9  18  31  47  67  93 128 167 210 256 300
#     4   9  19  35  51  68  93 125 162 208 260 310
#     4  11  22  35  54  78 104 138 178 215 257 311
#
# _framework density 16.241432
#
# number of rings (size 3 to 8) (size 9 to 14) (size 15 to 20)
#    0.000    2.000    1.667    2.500    0.000    5.333 
#    0.000    0.000    0.000    0.000    0.000    0.000 
#    0.000    0.667    0.000    2.500    0.000    3.833 
#
# Total GULP energy -267930.844449 kJ/mol
# GULP energy per Si atom -5581.892593 kJ/mol
# Density = 1.620447 g / cm^3
# Si number density = 16.241432 Si / 1000 Ang^3
#
#
#
# Elastic Constant Matrix: (Units=GPa)
#
#
# Indices 1 2 3 4 5 6 
#
# 1 101.7870 51.2013 46.8038 0.0000 0.0000 0.0000
# 2 51.2013 64.8193 44.5586 0.0000 0.0000 0.0000
# 3 46.8038 44.5586 85.0187 0.0000 0.0000 0.0000
# 4 0.0000 0.0000 0.0000 26.8742 0.0000 0.0000
# 5 0.0000 0.0000 0.0000 0.0000 1.5923 0.0000
# 6 0.0000 0.0000 0.0000 0.0000 0.0000 18.0148
#
#
#
# Elastic Compliance Matrix: (Units=1/GPa)
#
#
# Indices 1 2 3 4 5 6 
#
# 1 0.016988 -0.010927 -0.003625 0.000000 0.000000 0.000000
# 2 -0.010927 0.031144 -0.010308 0.000000 0.000000 0.000000
# 3 -0.003625 -0.010308 0.019160 0.000000 0.000000 0.000000
# 4 0.000000 0.000000 0.000000 0.037210 0.000000 0.000000
# 5 0.000000 0.000000 0.000000 0.000000 0.628038 0.000000
# 6 0.000000 0.000000 0.000000 0.000000 0.000000 0.055510
#
#
# Mechanical properties :
#
#
# Convention : Reuss Voigt Hill
#
# Bulk Modulus (GPa) = 56.90496 59.63913 58.27205
# Shear Modulus (GPa) = 5.92679 16.56701 11.24690
#
# Velocity S-wave (km/s) = 1.91235 3.19728 2.63436
# Velocity P-wave (km/s) = 6.32369 7.10142 6.72381
#
# Compressibility (1/GPa) = 0.01757316
#
# Stress axis : x y z
#
# Youngs Moduli (GPa) = 58.86579 32.10860 52.19186
#
# Poissons Ratio (x) = 0.35084 0.18921
# Poissons Ratio (y) = 0.64321 0.53797
# Poissons Ratio (z) = 0.21340 0.33096
#
# Static dielectric constant tensor:
#      x y z
#    x 1.546310 0.000000 0.000000 
#    y 0.000000 1.547420 0.000000 
#    z 0.000000 0.000000 1.535580 
# 
# From -- ./inp_files/55047.got.cif
#   From: 2010.05.17/outbox.cif.g08.bks.cpg/sg74_28_cif.got.tgz:55047.got - 2010.06.03 17:57:02.
