data_PCOD9535323
_publ_section_title
;
Structure prediction by ZEFSAII (Michael W. Deem and Ramdas Pophale) SiO2 
 PCOD9535323
Probable space group: I M M A
;
_chemical_formula_sum "Si O2"
_cell_formula_units_Z 96
_cell_length_a 8.821056
_cell_length_b 29.030251
_cell_length_c 29.664086
_cell_angle_alpha 90.000000
_cell_angle_beta 90.000000
_cell_angle_gamma 90.000000
_cell_volume 7596.304086
_symmetry_space_group_name_H-M "I M M A"
_symmetry_group_IT_number 74
_symmetry_cell_setting 'orthorhombic'
loop_
_space_group_symop_operation_xyz
x,y,z
-x,1/2-y,z
x,-y,-z
-x,1/2+y,-z
-x,-y,-z
x,1/2+y,-z
-x,y,z
x,1/2-y,z
1/2+x,1/2+y,1/2+z
1/2-x,-y,1/2+z
1/2+x,1/2-y,1/2-z
1/2-x,y,1/2-z
1/2-x,1/2-y,1/2-z
1/2+x,y,1/2-z
1/2-x,1/2+y,1/2+z
1/2+x,-y,1/2+z
loop_
_atom_site_type_symbol
_atom_site_label
_atom_site_fract_x
_atom_site_fract_y
_atom_site_fract_z
Si Si1 0.318267 0.401440 0.119589
Si Si2 0.318627 0.250000 0.348431
Si Si3 0.819599 0.250000 0.448162
Si Si4 0.180799 0.488640 0.433213
Si Si5 0.681459 0.846213 0.700442
Si Si6 0.680800 0.566083 0.481414
Si Si7 0.681437 0.346533 0.465988
O O1 0.500000 0.395657 0.118872
O O2 0.284364 0.455133 0.108685
O O3 0.250052 0.383228 0.165942
O O4 0.248259 0.370836 0.078980
O O5 0.500000 0.250000 0.357495
O O6 0.233280 0.250000 0.395906
O O7 0.282018 0.295826 0.320317
O O8 0.752586 0.296323 0.469753
O O9 0.000000 0.250000 0.450458
O O10 0.246937 0.459874 0.475502
O O11 0.252257 0.539269 0.438426
O O12 0.000000 0.492146 0.437587
O O13 0.500000 0.850425 0.702015
O O14 0.750000 0.850428 0.750000
O O15 0.500000 0.559951 0.482175
O O16 0.713920 0.619479 0.491879
O O17 0.500000 0.343357 0.460624
#
# Coordination Sequence:
#
# PCOD9535323 Si02
#       7
#    16   8   8  16  16  16  16
#     4  10  19  30  43  60  77  96 123 152 190 235
#     4  10  21  35  47  58  72  93 123 158 202 245
#     4  12  22  29  43  60  75  99 129 162 195 235
#     4   9  16  25  39  57  78  97 115 146 182 221
#     4  11  22  34  47  59  75  97 123 161 203 243
#     4   9  16  25  39  57  75  97 121 146 178 222
#     4  10  19  30  42  56  77 100 124 155 191 228
#
# _framework density 12.637725
#
# number of rings (size 3 to 8) (size 9 to 14) (size 15 to 20)
#    0.000    2.000    1.667    4.500    0.000    4.667 
#    0.000    0.000    0.000    0.000    0.000    0.000 
#    0.000    0.000    0.000    0.000    0.000    0.000 
#
# Total GULP energy -267513.406923 kJ/mol
# GULP energy per Si atom -5573.195978 kJ/mol
# Density = 1.260896 g / cm^3
# Si number density = 12.637725 Si / 1000 Ang^3
#
#
#
# Elastic Constant Matrix: (Units=GPa)
#
#
# Indices 1 2 3 4 5 6 
#
# 1 63.5779 52.4944 33.2166 0.0000 0.0000 0.0000
# 2 52.4944 112.9298 56.9347 0.0000 0.0000 0.0000
# 3 33.2166 56.9347 47.7149 0.0000 0.0000 0.0000
# 4 0.0000 0.0000 0.0000 10.1780 0.0000 0.0000
# 5 0.0000 0.0000 0.0000 0.0000 16.6194 0.0000
# 6 0.0000 0.0000 0.0000 0.0000 0.0000 21.1956
#
#
#
# Elastic Compliance Matrix: (Units=1/GPa)
#
#
# Indices 1 2 3 4 5 6 
#
# 1 0.027189 -0.007771 -0.009655 0.000000 0.000000 0.000000
# 2 -0.007771 0.024446 -0.023760 0.000000 0.000000 0.000000
# 3 -0.009655 -0.023760 0.056031 0.000000 0.000000 0.000000
# 4 0.000000 0.000000 0.000000 0.098251 0.000000 0.000000
# 5 0.000000 0.000000 0.000000 0.000000 0.060171 0.000000
# 6 0.000000 0.000000 0.000000 0.000000 0.000000 0.047180
#
#
# Mechanical properties :
#
#
# Convention : Reuss Voigt Hill
#
# Bulk Modulus (GPa) = 39.53610 56.61267 48.07439
# Shear Modulus (GPa) = 12.37403 15.03706 13.70554
#
# Velocity S-wave (km/s) = 3.13251 3.45317 3.29674
# Velocity P-wave (km/s) = 6.66600 7.79699 7.25357
#
# Compressibility (1/GPa) = 0.02529334
#
# Stress axis : x y z
#
# Youngs Moduli (GPa) = 36.77895 40.90607 17.84734
#
# Poissons Ratio (x) = 0.31788 0.17232
# Poissons Ratio (y) = 0.28580 0.42406
# Poissons Ratio (z) = 0.35512 0.97194
#
# Static dielectric constant tensor:
#      x y z
#    x 1.420390 0.000000 0.000000 
#    y 0.000000 1.445030 0.000000 
#    z 0.000000 0.000000 1.387120 
# 
# From -- ./inp_files/71085.got.cif
#   From: 2010.05.17/outbox.cif.g08.bks.cpg/sg74_36_cif.got.tgz:71085.got - 2010.06.03 17:57:02.
