data_PCOD9535082
_publ_section_title
;
Structure prediction by ZEFSAII (Michael W. Deem and Ramdas Pophale) SiO2 
 PCOD9535082
Probable space group: I M M A
;
_chemical_formula_sum "Si O2"
_cell_formula_units_Z 56
_cell_length_a 21.390064
_cell_length_b 13.748335
_cell_length_c 9.126892
_cell_angle_alpha 90.000000
_cell_angle_beta 90.000000
_cell_angle_gamma 90.000000
_cell_volume 2684.016006
_symmetry_space_group_name_H-M "I M M A"
_symmetry_group_IT_number 74
_symmetry_cell_setting 'orthorhombic'
loop_
_space_group_symop_operation_xyz
x,y,z
-x,1/2-y,z
x,-y,-z
-x,1/2+y,-z
-x,-y,-z
x,1/2+y,-z
-x,y,z
x,1/2-y,z
1/2+x,1/2+y,1/2+z
1/2-x,-y,1/2+z
1/2+x,1/2-y,1/2-z
1/2-x,y,1/2-z
1/2-x,1/2-y,1/2-z
1/2+x,y,1/2-z
1/2-x,1/2+y,1/2+z
1/2+x,-y,1/2+z
loop_
_atom_site_type_symbol
_atom_site_label
_atom_site_fract_x
_atom_site_fract_y
_atom_site_fract_z
Si Si1 0.250000 0.518236 0.750000
Si Si2 0.668782 0.139101 0.630885
Si Si3 0.429456 0.466532 0.835812
Si Si4 0.370282 0.638812 0.705399
O O1 0.275510 0.439362 0.633215
O O2 0.308572 0.589035 0.777100
O O3 0.688376 0.250000 0.657191
O O4 0.639291 0.135890 0.469390
O O5 0.619395 0.104277 0.754604
O O6 0.500000 0.426982 0.837501
O O7 0.425858 0.567207 0.746106
O O8 0.412147 0.500000 0.000000
O O9 0.377628 0.750000 0.752286
#
# Coordination Sequence:
#
# PCOD9535082 Si02
#       4
#     8  16  16  16
#     4  10  18  34  56  82 114 142 176 224 276 326
#     4  10  22  39  59  84 113 148 190 232 276 330
#     4  10  22  39  58  83 115 148 185 232 283 334
#     4  10  22  39  59  84 113 148 190 232 276 330
#
# _framework density 20.864258
#
# number of rings (size 3 to 8) (size 9 to 14) (size 15 to 20)
#    0.000    2.000    0.000    4.286    0.000   13.714 
#    0.000    5.714    0.000    0.000    0.000    0.000 
#    0.000    0.000    0.000    0.000    0.000    0.000 
#
# Total GULP energy -156094.446675 kJ/mol
# GULP energy per Si atom -5574.801667 kJ/mol
# Density = 2.081677 g / cm^3
# Si number density = 20.864258 Si / 1000 Ang^3
#
#
#
# Elastic Constant Matrix: (Units=GPa)
#
#
# Indices 1 2 3 4 5 6 
#
# 1 58.7977 -9.4672 29.8210 0.0000 0.0000 0.0000
# 2 -9.4672 113.2889 26.8978 0.0000 0.0000 0.0000
# 3 29.8210 26.8978 87.9047 0.0000 0.0000 0.0000
# 4 0.0000 0.0000 0.0000 29.9604 0.0000 0.0000
# 5 0.0000 0.0000 0.0000 0.0000 10.7681 0.0000
# 6 0.0000 0.0000 0.0000 0.0000 0.0000 8.7868
#
#
#
# Elastic Compliance Matrix: (Units=1/GPa)
#
#
# Indices 1 2 3 4 5 6 
#
# 1 0.022031 0.003899 -0.008667 0.000000 0.000000 0.000000
# 2 0.003899 0.010208 -0.004446 0.000000 0.000000 0.000000
# 3 -0.008667 -0.004446 0.015677 0.000000 0.000000 0.000000
# 4 0.000000 0.000000 0.000000 0.033377 0.000000 0.000000
# 5 0.000000 0.000000 0.000000 0.000000 0.092867 0.000000
# 6 0.000000 0.000000 0.000000 0.000000 0.000000 0.113807
#
#
# Mechanical properties :
#
#
# Convention : Reuss Voigt Hill
#
# Bulk Modulus (GPa) = 33.91288 39.38827 36.65058
# Shear Modulus (GPa) = 15.81151 24.08570 19.94860
#
# Velocity S-wave (km/s) = 2.75585 3.40133 3.09546
# Velocity P-wave (km/s) = 5.13962 5.86044 5.51182
#
# Compressibility (1/GPa) = 0.02948732
#
# Stress axis : x y z
#
# Youngs Moduli (GPa) = 45.39089 97.95784 63.78925
#
# Poissons Ratio (x) = -0.38192 0.55285
# Poissons Ratio (y) = -0.17697 0.28363
# Poissons Ratio (z) = 0.39339 0.43555
#
# Static dielectric constant tensor:
#      x y z
#    x 1.757280 0.000000 0.000000 
#    y 0.000000 1.735680 0.000000 
#    z 0.000000 0.000000 1.789360 
# 
# From -- ./inp_files/8414.got.cif
#   From: 2010.05.17/outbox.cif.g08.bks.cpg/sg74_5_cif.got.tgz:8414.got - 2010.06.03 17:57:02.
