data_PCOD9535784
_publ_section_title
;
Structure prediction by ZEFSAII (Michael W. Deem and Ramdas Pophale) SiO2 
 PCOD9535784
Probable space group: I M M A
;
_chemical_formula_sum "Si O2"
_cell_formula_units_Z 104
_cell_length_a 18.630751
_cell_length_b 7.283532
_cell_length_c 34.984134
_cell_angle_alpha 90.000000
_cell_angle_beta 90.000000
_cell_angle_gamma 90.000000
_cell_volume 4747.265509
_symmetry_space_group_name_H-M "I M M A"
_symmetry_group_IT_number 74
_symmetry_cell_setting 'orthorhombic'
loop_
_space_group_symop_operation_xyz
x,y,z
-x,1/2-y,z
x,-y,-z
-x,1/2+y,-z
-x,-y,-z
x,1/2+y,-z
-x,y,z
x,1/2-y,z
1/2+x,1/2+y,1/2+z
1/2-x,-y,1/2+z
1/2+x,1/2-y,1/2-z
1/2-x,y,1/2-z
1/2-x,1/2-y,1/2-z
1/2+x,y,1/2-z
1/2-x,1/2+y,1/2+z
1/2+x,-y,1/2+z
loop_
_atom_site_type_symbol
_atom_site_label
_atom_site_fract_x
_atom_site_fract_y
_atom_site_fract_z
Si Si1 0.418596 0.474036 0.101044
Si Si2 0.846471 0.473531 0.319677
Si Si3 0.417439 0.973971 0.740109
Si Si4 0.793717 0.031651 0.455114
Si Si5 0.681685 0.526451 0.669839
Si Si6 0.146811 0.474339 0.083859
Si Si7 0.500000 0.531413 0.545228
O O1 0.500000 0.533450 0.093921
O O2 0.419014 0.250000 0.100634
O O3 0.390960 0.529260 0.142977
O O4 0.360871 0.536577 0.069689
O O5 0.846368 0.250000 0.319482
O O6 0.882215 0.532266 0.280084
O O7 0.763801 0.531221 0.323532
O O8 0.500000 0.031359 0.737219
O O9 0.417034 0.750000 0.740143
O O10 0.369880 0.032659 0.704099
O O11 0.792379 0.250000 0.449032
O O12 0.717395 0.963846 0.439172
O O13 0.801427 0.000000 0.500000
O O14 0.682013 0.750000 0.670029
O O15 0.654766 0.470752 0.628001
O O16 0.146476 0.250000 0.083072
O O17 0.073162 0.537605 0.064512
O O18 0.500000 0.750000 0.551229
O O19 0.500000 0.500000 0.500000
#
# Coordination Sequence:
#
# PCOD9535784 Si02
#       7
#    16  16  16  16  16  16   8
#     4   9  16  26  41  59  81 111 147 182 217 263
#     4   9  14  23  35  50  74 108 146 179 211 254
#     4   9  16  21  29  49  76 107 143 179 212 251
#     4  10  19  32  48  66  88 115 148 185 225 268
#     4   9  15  23  35  51  75 108 145 179 213 257
#     4   9  17  29  44  62  84 114 150 184 221 268
#     4  10  20  32  48  68  90 118 154 192 228 270
#
# _framework density 21.907349
#
# number of rings (size 3 to 8) (size 9 to 14) (size 15 to 20)
#    0.000    2.769    1.538    1.385    1.077    4.000 
#    0.000    0.000    0.000    0.000    0.000    0.000 
#    0.000    0.000    0.000    4.154    0.615    5.077 
#
# Total GULP energy -290672.558947 kJ/mol
# GULP energy per Si atom -5589.856903 kJ/mol
# Density = 2.185749 g / cm^3
# Si number density = 21.907349 Si / 1000 Ang^3
#
#
#
# Elastic Constant Matrix: (Units=GPa)
#
#
# Indices 1 2 3 4 5 6 
#
# 1 267.9898 10.6517 155.3044 0.0000 0.0000 0.0000
# 2 10.6517 94.1215 0.6832 0.0000 0.0000 0.0000
# 3 155.3044 0.6832 221.5783 0.0000 0.0000 0.0000
# 4 0.0000 0.0000 0.0000 1.0593 0.0000 0.0000
# 5 0.0000 0.0000 0.0000 0.0000 29.6910 0.0000
# 6 0.0000 0.0000 0.0000 0.0000 0.0000 -19.1559
#
#
#
# Elastic Compliance Matrix: (Units=1/GPa)
#
#
# Indices 1 2 3 4 5 6 
#
# 1 0.006328 -0.000684 -0.004433 0.000000 0.000000 0.000000
# 2 -0.000684 0.010699 0.000446 0.000000 0.000000 0.000000
# 3 -0.004433 0.000446 0.007619 0.000000 0.000000 0.000000
# 4 0.000000 0.000000 0.000000 0.944036 0.000000 0.000000
# 5 0.000000 0.000000 0.000000 0.000000 0.033680 0.000000
# 6 0.000000 0.000000 0.000000 0.000000 0.000000 -0.052203
#
#
# Mechanical properties :
#
#
# Convention : Reuss Voigt Hill
#
# Bulk Modulus (GPa) = 65.34179 101.88537 83.61358
# Shear Modulus (GPa) = 5.18349 30.12224 17.65286
#
# Velocity S-wave (km/s) = 1.53988 3.71210 2.84174
# Velocity P-wave (km/s) = 5.74916 8.06110 7.00122
#
# Compressibility (1/GPa) = 0.01530414
#
# Stress axis : x y z
#
# Youngs Moduli (GPa) = 158.03732 93.46907 131.25529
#
# Poissons Ratio (x) = 0.06393 0.58184
# Poissons Ratio (y) = 0.10808 -0.05859
# Poissons Ratio (z) = 0.70057 -0.04172
#
# Static dielectric constant tensor:
#      x y z
#    x 1.746760 0.000000 0.000000 
#    y 0.000000 2.023170 0.000000 
#    z 0.000000 0.000000 1.731680 
# 
# From -- ./inp_files/66198.got.cif
#   From: 2010.05.17/outbox.cif.g08.bks.cpg/sg74_34_cif.got.tgz:66198.got - 2010.06.03 17:57:02.
