data_PCOD9535028
_publ_section_title
;
Structure prediction by ZEFSAII (Michael W. Deem and Ramdas Pophale) SiO2 
 PCOD9535028
Probable space group: I M M A
;
_chemical_formula_sum "Si O2"
_cell_formula_units_Z 104
_cell_length_a 8.784456
_cell_length_b 33.679865
_cell_length_c 20.016141
_cell_angle_alpha 90.000000
_cell_angle_beta 90.000000
_cell_angle_gamma 90.000000
_cell_volume 5921.961308
_symmetry_space_group_name_H-M "I M M A"
_symmetry_group_IT_number 74
_symmetry_cell_setting 'orthorhombic'
loop_
_space_group_symop_operation_xyz
x,y,z
-x,1/2-y,z
x,-y,-z
-x,1/2+y,-z
-x,-y,-z
x,1/2+y,-z
-x,y,z
x,1/2-y,z
1/2+x,1/2+y,1/2+z
1/2-x,-y,1/2+z
1/2+x,1/2-y,1/2-z
1/2-x,y,1/2-z
1/2-x,1/2-y,1/2-z
1/2+x,y,1/2-z
1/2-x,1/2+y,1/2+z
1/2+x,-y,1/2+z
loop_
_atom_site_type_symbol
_atom_site_label
_atom_site_fract_x
_atom_site_fract_y
_atom_site_fract_z
Si Si1 0.181123 0.074438 0.097091
Si Si2 0.317901 0.644580 0.822217
Si Si3 0.325542 0.991871 0.079921
Si Si4 0.182317 0.591140 0.058130
Si Si5 0.315862 0.750000 0.175668
Si Si6 0.185304 0.794941 0.563789
Si Si7 0.315836 0.675270 0.083275
O O1 0.263523 0.102438 0.149696
O O2 0.000000 0.078053 0.102808
O O3 0.231411 0.029028 0.107297
O O4 0.224024 0.088474 0.021330
O O5 0.500000 0.645677 0.819080
O O6 0.250000 0.652656 0.750000
O O7 0.263826 0.676544 0.877022
O O8 0.500000 0.992449 0.103153
O O9 0.251079 0.948881 0.089918
O O10 0.326552 0.000000 0.000000
O O11 0.246299 0.631429 0.090415
O O12 0.000000 0.590326 0.062228
O O13 0.500000 0.750000 0.178063
O O14 0.250000 0.750000 0.250000
O O15 0.270726 0.709972 0.135148
O O16 0.237034 0.750000 0.573535
O O17 0.230493 0.810273 0.490838
O O18 0.000000 0.794952 0.564016
O O19 0.500000 0.672252 0.085161
#
# Coordination Sequence:
#
# PCOD9535028 Si02
#       7
#    16  16  16  16   8  16  16
#     4  10  19  32  50  74 108 142 179 226 278 328
#     4  11  22  35  53  75 105 146 190 235 281 330
#     4   9  17  29  48  75 106 140 178 217 264 323
#     4  10  19  30  49  80 113 141 173 224 280 323
#     4  10  22  38  60  86 115 146 180 221 268 329
#     4   9  17  32  55  79 103 137 185 232 274 322
#     4  10  18  33  57  82 107 143 186 224 266 325
#
# _framework density 17.56175
#
# number of rings (size 3 to 8) (size 9 to 14) (size 15 to 20)
#    0.000    2.154    2.308    1.846    0.000    4.000 
#    0.000    0.000    0.000    4.154    0.000    4.308 
#    0.000    0.000    0.000    0.000    0.000    0.000 
#
# Total GULP energy -290065.423313 kJ/mol
# GULP energy per Si atom -5578.181218 kJ/mol
# Density = 1.752178 g / cm^3
# Si number density = 17.561750 Si / 1000 Ang^3
#
#
#
# Elastic Constant Matrix: (Units=GPa)
#
#
# Indices 1 2 3 4 5 6 
#
# 1 40.7033 34.5409 24.2792 0.0000 0.0000 0.0000
# 2 34.5409 165.2363 59.1504 0.0000 0.0000 0.0000
# 3 24.2792 59.1504 83.6458 0.0000 0.0000 0.0000
# 4 0.0000 0.0000 0.0000 14.4492 0.0000 0.0000
# 5 0.0000 0.0000 0.0000 0.0000 22.9493 0.0000
# 6 0.0000 0.0000 0.0000 0.0000 0.0000 13.1257
#
#
#
# Elastic Compliance Matrix: (Units=1/GPa)
#
#
# Indices 1 2 3 4 5 6 
#
# 1 0.032040 -0.004510 -0.006111 0.000000 0.000000 0.000000
# 2 -0.004510 0.008738 -0.004870 0.000000 0.000000 0.000000
# 3 -0.006111 -0.004870 0.017173 0.000000 0.000000 0.000000
# 4 0.000000 0.000000 0.000000 0.069208 0.000000 0.000000
# 5 0.000000 0.000000 0.000000 0.000000 0.043574 0.000000
# 6 0.000000 0.000000 0.000000 0.000000 0.000000 0.076186
#
#
# Mechanical properties :
#
#
# Convention : Reuss Voigt Hill
#
# Bulk Modulus (GPa) = 37.07912 58.39181 47.73546
# Shear Modulus (GPa) = 17.42820 21.54584 19.48702
#
# Velocity S-wave (km/s) = 3.15365 3.50646 3.33472
# Velocity P-wave (km/s) = 5.86686 7.05091 6.48596
#
# Compressibility (1/GPa) = 0.02696936
#
# Stress axis : x y z
#
# Youngs Moduli (GPa) = 31.21059 114.44121 58.23185
#
# Poissons Ratio (x) = 0.51616 0.35583
# Poissons Ratio (y) = 0.14077 0.28359
# Poissons Ratio (z) = 0.19072 0.55733
#
# Static dielectric constant tensor:
#      x y z
#    x 1.589650 0.000000 0.000000 
#    y 0.000000 1.600080 0.000000 
#    z 0.000000 0.000000 1.583380 
# 
# From -- ./inp_files/49656.got.cif
#   From: 2010.05.17/outbox.cif.g08.bks.cpg/sg74_25_cif.got.tgz:49656.got - 2010.06.03 17:57:02.
