data_PCOD9535474
_publ_section_title
;
Structure prediction by ZEFSAII (Michael W. Deem and Ramdas Pophale) SiO2 
 PCOD9535474
Probable space group: I M M A
;
_chemical_formula_sum "Si O2"
_cell_formula_units_Z 52
_cell_length_a 13.475060
_cell_length_b 20.398820
_cell_length_c 9.486722
_cell_angle_alpha 90.000000
_cell_angle_beta 90.000000
_cell_angle_gamma 90.000000
_cell_volume 2607.665778
_symmetry_space_group_name_H-M "I M M A"
_symmetry_group_IT_number 74
_symmetry_cell_setting 'orthorhombic'
loop_
_space_group_symop_operation_xyz
x,y,z
-x,1/2-y,z
x,-y,-z
-x,1/2+y,-z
-x,-y,-z
x,1/2+y,-z
-x,y,z
x,1/2-y,z
1/2+x,1/2+y,1/2+z
1/2-x,-y,1/2+z
1/2+x,1/2-y,1/2-z
1/2-x,y,1/2-z
1/2-x,1/2-y,1/2-z
1/2+x,y,1/2-z
1/2-x,1/2+y,1/2+z
1/2+x,-y,1/2+z
loop_
_atom_site_type_symbol
_atom_site_label
_atom_site_fract_x
_atom_site_fract_y
_atom_site_fract_z
Si Si1 0.500000 0.250000 0.647580
Si Si2 0.720975 0.430875 0.085847
Si Si3 0.500000 0.521854 0.339779
Si Si4 0.500000 0.432600 0.088839
Si Si5 0.657825 0.631044 0.353582
O O1 0.585927 0.307556 0.647818
O O2 0.750000 0.439446 0.250000
O O3 0.608701 0.402312 0.066084
O O4 0.724067 0.500000 0.000000
O O5 0.799178 0.384357 0.008275
O O6 0.500000 0.500000 0.500000
O O7 0.500000 0.457014 0.248745
O O8 0.594804 0.566938 0.307920
O O9 0.500000 0.500000 0.000000
O O10 0.750000 0.639375 0.250000
#
# Coordination Sequence:
#
# PCOD9535474 Si02
#       5
#     4  16   8   8  16
#     4  10  26  44  64  84 108 156 220 264 300 350
#     4  11  21  35  59  93 128 159 189 234 299 369
#     4  11  21  33  56  90 125 154 184 227 292 371
#     4  10  19  30  48  85 122 148 181 223 280 351
#     4  11  22  40  62  85 116 158 206 255 300 351
#
# _framework density 19.941205
#
# number of rings (size 3 to 8) (size 9 to 14) (size 15 to 20)
#    0.000    1.231    0.000    9.692    0.000    2.462 
#    0.000    0.769    0.000    1.846    0.000    0.000 
#    0.000    0.000    0.000    0.000    0.000    0.000 
#
# Total GULP energy -144770.761644 kJ/mol
# GULP energy per Si atom -5568.106217 kJ/mol
# Density = 1.989582 g / cm^3
# Si number density = 19.941205 Si / 1000 Ang^3
#
#
#
# Elastic Constant Matrix: (Units=GPa)
#
#
# Indices 1 2 3 4 5 6 
#
# 1 192.2296 52.9325 33.0969 0.0000 0.0000 0.0000
# 2 52.9325 71.6199 12.8090 -0.0001 0.0000 0.0000
# 3 33.0969 12.8090 118.9343 -0.0002 -0.0001 0.0000
# 4 0.0000 -0.0001 -0.0002 -0.5799 0.0000 0.0000
# 5 0.0000 0.0000 -0.0001 0.0000 16.6929 0.0000
# 6 0.0000 0.0000 0.0000 0.0000 0.0000 18.4364
#
#
#
# Elastic Compliance Matrix: (Units=1/GPa)
#
#
# Indices 1 2 3 4 5 6 
#
# 1 0.006742 -0.004739 -0.001366 0.000001 0.000000 0.000000
# 2 -0.004739 0.017567 -0.000573 -0.000001 0.000000 0.000000
# 3 -0.001366 -0.000573 0.008850 -0.000002 0.000000 0.000000
# 4 0.000001 -0.000001 -0.000002 -1.724355 -0.000003 0.000001
# 5 0.000000 0.000000 0.000000 -0.000003 0.059906 0.000000
# 6 0.000000 0.000000 0.000000 0.000001 0.000000 0.054240
#
#
# Mechanical properties :
#
#
# Convention : Reuss Voigt Hill
#
# Bulk Modulus (GPa) = 50.49561 64.49561 57.49561
# Shear Modulus (GPa) = -3.21111 25.83958 11.31424
#
# Velocity S-wave (km/s) = -1.27035 3.60361 2.38456
# Velocity P-wave (km/s) = 4.81928 7.05179 6.03959
#
# Compressibility (1/GPa) = 0.01980370
#
# Stress axis : x y z
#
# Youngs Moduli (GPa) = 148.32145 56.92381 112.99647
#
# Poissons Ratio (x) = 0.26974 0.15434
# Poissons Ratio (y) = 0.70284 0.06478
# Poissons Ratio (z) = 0.20258 0.03263
#
# Static dielectric constant tensor:
#      x y z
#    x 1.772660 0.000000 0.000000 
#    y 0.000000 1.653460 0.000000 
#    z 0.000000 0.000000 1.631200 
# 
# From -- ./inp_files/8352.got.cif
#   From: 2010.05.17/outbox.cif.g08.bks.cpg/sg74_5_cif.got.tgz:8352.got - 2010.06.03 17:57:02.
