data_PCOD9535987
_publ_section_title
;
Structure prediction by ZEFSAII (Michael W. Deem and Ramdas Pophale) SiO2 
 PCOD9535987
Probable space group: I M M A
;
_chemical_formula_sum "Si O2"
_cell_formula_units_Z 80
_cell_length_a 14.299682
_cell_length_b 10.297182
_cell_length_c 25.000998
_cell_angle_alpha 90.000000
_cell_angle_beta 90.000000
_cell_angle_gamma 90.000000
_cell_volume 3681.307654
_symmetry_space_group_name_H-M "I M M A"
_symmetry_group_IT_number 74
_symmetry_cell_setting 'orthorhombic'
loop_
_space_group_symop_operation_xyz
x,y,z
-x,1/2-y,z
x,-y,-z
-x,1/2+y,-z
-x,-y,-z
x,1/2+y,-z
-x,y,z
x,1/2-y,z
1/2+x,1/2+y,1/2+z
1/2-x,-y,1/2+z
1/2+x,1/2-y,1/2-z
1/2-x,y,1/2-z
1/2-x,1/2-y,1/2-z
1/2+x,y,1/2-z
1/2-x,1/2+y,1/2+z
1/2+x,-y,1/2+z
loop_
_atom_site_type_symbol
_atom_site_label
_atom_site_fract_x
_atom_site_fract_y
_atom_site_fract_z
Si Si1 0.641084 0.598863 0.045880
Si Si2 0.604223 0.967124 0.637955
Si Si3 0.364861 0.386808 0.537578
Si Si4 0.107669 0.600945 0.746566
Si Si5 0.812224 0.103807 0.367769
O O1 0.606709 0.750000 0.047650
O O2 0.752291 0.612168 0.035768
O O3 0.637628 0.511522 0.099719
O O4 0.604938 0.500000 0.000000
O O5 0.500000 0.906433 0.632565
O O6 0.616533 0.988240 0.701402
O O7 0.700674 0.897232 0.620650
O O8 0.605772 0.089179 0.598528
O O9 0.398809 0.500000 0.500000
O O10 0.397219 0.250000 0.516864
O O11 0.123853 0.750000 0.765816
O O12 0.171682 0.580446 0.695282
O O13 0.000000 0.593885 0.727920
O O14 0.847434 0.250000 0.380449
#
# Coordination Sequence:
#
# PCOD9535987 Si02
#       5
#    16  16  16  16  16
#     4   9  17  31  52  78 107 138 173 213 258 309
#     4  10  20  32  48  74 108 141 175 215 257 303
#     4   9  19  34  51  73 103 141 182 220 258 303
#     4   9  18  33  53  77 104 135 174 218 261 307
#     4  10  19  32  53  79 106 137 173 214 259 306
#
# _framework density 21.73141
#
# number of rings (size 3 to 8) (size 9 to 14) (size 15 to 20)
#    0.000    2.600    0.000    1.800    0.000    9.200 
#    0.000    1.000    0.000    7.200    0.000    0.000 
#    0.000    0.000    0.000    0.000    0.000    0.000 
#
# Total GULP energy -222783.266359 kJ/mol
# GULP energy per Si atom -5569.581659 kJ/mol
# Density = 2.168195 g / cm^3
# Si number density = 21.731410 Si / 1000 Ang^3
#
#
#
# Elastic Constant Matrix: (Units=GPa)
#
#
# Indices 1 2 3 4 5 6 
#
# 1 91.2091 15.1778 13.5439 0.0000 0.0000 0.0000
# 2 15.1778 169.8398 82.9467 0.0000 0.0000 0.0000
# 3 13.5439 82.9467 99.6805 0.0000 0.0000 0.0000
# 4 0.0000 0.0000 0.0000 26.7458 0.0000 0.0000
# 5 0.0000 0.0000 0.0000 0.0000 -230.8842 0.0000
# 6 0.0000 0.0000 0.0000 0.0000 0.0000 -2.8527
#
#
#
# Elastic Compliance Matrix: (Units=1/GPa)
#
#
# Indices 1 2 3 4 5 6 
#
# 1 0.011209 -0.000434 -0.001161 0.000000 0.000000 0.000000
# 2 -0.000434 0.009936 -0.008209 0.000000 0.000000 0.000000
# 3 -0.001161 -0.008209 0.017021 0.000000 0.000000 0.000000
# 4 0.000000 0.000000 0.000000 0.037389 0.000000 0.000000
# 5 0.000000 0.000000 0.000000 0.000000 -0.004331 0.000000
# 6 0.000000 0.000000 0.000000 0.000000 0.000000 -0.350545
#
#
# Mechanical properties :
#
#
# Convention : Reuss Voigt Hill
#
# Bulk Modulus (GPa) = 53.89199 64.89624 59.39411
# Shear Modulus (GPa) = -19.72171 -24.79415 -22.25793
#
# Velocity S-wave (km/s) = -3.01578 -3.38144 -3.20383
# Velocity P-wave (km/s) = 3.56741 3.83174 3.70193
#
# Compressibility (1/GPa) = 0.01855563
#
# Stress axis : x y z
#
# Youngs Moduli (GPa) = 89.21744 100.64683 58.75237
#
# Poissons Ratio (x) = 0.04372 0.06824
# Poissons Ratio (y) = 0.03876 0.48228
# Poissons Ratio (z) = 0.10362 0.82619
#
# Static dielectric constant tensor:
#      x y z
#    x 1.837390 0.000000 0.000000 
#    y 0.000000 1.821360 0.000000 
#    z 0.000000 0.000000 1.782980 
# 
# From -- ./inp_files/59718.got.cif
#   From: 2010.05.17/outbox.cif.g08.bks.cpg/sg74_30_cif.got.tgz:59718.got - 2010.06.03 17:57:02.
