data_PCOD9535536
_publ_section_title
;
Structure prediction by ZEFSAII (Michael W. Deem and Ramdas Pophale) SiO2 
 PCOD9535536
Probable space group: I M M A
;
_chemical_formula_sum "Si O2"
_cell_formula_units_Z 80
_cell_length_a 7.244543
_cell_length_b 15.224120
_cell_length_c 31.785664
_cell_angle_alpha 90.000000
_cell_angle_beta 90.000000
_cell_angle_gamma 90.000000
_cell_volume 3505.697842
_symmetry_space_group_name_H-M "I M M A"
_symmetry_group_IT_number 74
_symmetry_cell_setting 'orthorhombic'
loop_
_space_group_symop_operation_xyz
x,y,z
-x,1/2-y,z
x,-y,-z
-x,1/2+y,-z
-x,-y,-z
x,1/2+y,-z
-x,y,z
x,1/2-y,z
1/2+x,1/2+y,1/2+z
1/2-x,-y,1/2+z
1/2+x,1/2-y,1/2-z
1/2-x,y,1/2-z
1/2-x,1/2-y,1/2-z
1/2+x,y,1/2-z
1/2-x,1/2+y,1/2+z
1/2+x,-y,1/2+z
loop_
_atom_site_type_symbol
_atom_site_label
_atom_site_fract_x
_atom_site_fract_y
_atom_site_fract_z
Si Si1 0.725033 0.017865 0.952102
Si Si2 0.277616 0.343175 0.092909
Si Si3 0.725102 0.148249 0.879100
Si Si4 0.222501 0.154740 0.308043
Si Si5 0.280410 0.459382 0.796123
O O1 0.500000 0.021773 0.952892
O O2 0.781321 0.099591 0.922519
O O3 0.787861 0.931027 0.927953
O O4 0.782902 0.000000 0.000000
O O5 0.500000 0.343819 0.088615
O O6 0.211996 0.250000 0.075278
O O7 0.240604 0.345604 0.142235
O O8 0.500000 0.147206 0.878562
O O9 0.781913 0.250000 0.877507
O O10 0.784997 0.094258 0.837188
O O11 0.292560 0.250000 0.292701
O O12 0.000000 0.155676 0.301938
O O13 0.292965 0.059798 0.293614
O O14 0.500000 0.466962 0.802121
O O15 0.250000 0.417768 0.750000
#
# Coordination Sequence:
#
# PCOD9535536 Si02
#       5
#    16  16  16  16  16
#     4   9  15  22  34  54  80 110 145 179 213 262
#     4   8  12  19  32  49  71 101 135 168 204 251
#     4   9  17  29  42  57  83 118 151 184 226 271
#     4   8  13  23  40  59  80 109 142 175 216 265
#     4  10  19  31  47  66  89 119 155 191 227 269
#
# _framework density 22.819994000000001
#
# number of rings (size 3 to 8) (size 9 to 14) (size 15 to 20)
#    0.000    3.200    2.000    1.200    0.000    1.600 
#    0.000    4.000    0.000    0.000    0.000    0.000 
#    0.000    0.800    0.000    0.000    0.000    0.000 
#
# Total GULP energy -223015.200364 kJ/mol
# GULP energy per Si atom -5575.380009 kJ/mol
# Density = 2.276805 g / cm^3
# Si number density = 22.819994 Si / 1000 Ang^3
#
#
#
# Elastic Constant Matrix: (Units=GPa)
#
#
# Indices 1 2 3 4 5 6 
#
# 1 103.6592 6.5849 7.5581 0.0000 0.0000 0.0000
# 2 6.5849 196.2384 112.5053 0.0000 0.0000 0.0000
# 3 7.5581 112.5053 173.9417 0.0000 0.0000 0.0000
# 4 0.0000 0.0000 0.0000 -7.4366 0.0000 0.0000
# 5 0.0000 0.0000 0.0000 0.0000 2.7090 0.0000
# 6 0.0000 0.0000 0.0000 0.0000 0.0000 -53.7090
#
#
#
# Elastic Compliance Matrix: (Units=1/GPa)
#
#
# Indices 1 2 3 4 5 6 
#
# 1 0.009680 -0.000133 -0.000335 0.000000 0.000000 0.000000
# 2 -0.000133 0.008101 -0.005234 0.000000 0.000000 0.000000
# 3 -0.000335 -0.005234 0.009149 0.000000 0.000000 0.000000
# 4 0.000000 0.000000 0.000000 -0.134470 0.000000 0.000000
# 5 0.000000 0.000000 0.000000 0.000000 0.369135 0.000000
# 6 0.000000 0.000000 0.000000 0.000000 0.000000 -0.018619
#
#
# Mechanical properties :
#
#
# Convention : Reuss Voigt Hill
#
# Bulk Modulus (GPa) = 64.40522 80.79289 72.59906
# Shear Modulus (GPa) = 19.26378 11.45875 15.36126
#
# Velocity S-wave (km/s) = 2.90860 2.24327 2.59733
# Velocity P-wave (km/s) = 6.29002 6.49546 6.39356
#
# Compressibility (1/GPa) = 0.01552669
#
# Stress axis : x y z
#
# Youngs Moduli (GPa) = 103.30751 123.44232 109.30305
#
# Poissons Ratio (x) = 0.01642 0.03657
# Poissons Ratio (y) = 0.01374 0.57208
# Poissons Ratio (z) = 0.03457 0.64609
#
# Static dielectric constant tensor:
#      x y z
#    x 2.083570 0.000000 0.000000 
#    y 0.000000 1.841930 0.000000 
#    z 0.000000 0.000000 1.834280 
# 
# From -- ./inp_files/65827.got.cif
#   From: 2010.05.17/outbox.cif.g08.bks.cpg/sg74_33_cif.got.tgz:65827.got - 2010.06.03 17:57:02.
