data_PCOD9535372
_publ_section_title
;
Structure prediction by ZEFSAII (Michael W. Deem and Ramdas Pophale) SiO2 
 PCOD9535372
Probable space group: I M M A
;
_chemical_formula_sum "Si O2"
_cell_formula_units_Z 64
_cell_length_a 5.340999
_cell_length_b 18.546211
_cell_length_c 33.597345
_cell_angle_alpha 90.000000
_cell_angle_beta 90.000000
_cell_angle_gamma 90.000000
_cell_volume 3327.994900
_symmetry_space_group_name_H-M "I M M A"
_symmetry_group_IT_number 74
_symmetry_cell_setting 'orthorhombic'
loop_
_space_group_symop_operation_xyz
x,y,z
-x,1/2-y,z
x,-y,-z
-x,1/2+y,-z
-x,-y,-z
x,1/2+y,-z
-x,y,z
x,1/2-y,z
1/2+x,1/2+y,1/2+z
1/2-x,-y,1/2+z
1/2+x,1/2-y,1/2-z
1/2-x,y,1/2-z
1/2-x,1/2-y,1/2-z
1/2+x,y,1/2-z
1/2-x,1/2+y,1/2+z
1/2+x,-y,1/2+z
loop_
_atom_site_type_symbol
_atom_site_label
_atom_site_fract_x
_atom_site_fract_y
_atom_site_fract_z
Si Si1 0.000000 0.015633 0.546758
Si Si2 0.500000 0.032147 0.262505
Si Si3 0.500000 0.470549 0.409256
Si Si4 0.500000 0.327809 0.203774
Si Si5 0.000000 0.332109 0.776166
Si Si6 0.000000 0.126273 0.163296
Si Si7 0.500000 0.880100 0.363153
Si Si8 0.500000 0.667455 0.092300
O O1 0.000000 0.100739 0.560331
O O2 0.000000 0.000000 0.500000
O O3 0.751286 0.979626 0.565225
O O4 0.750000 0.993137 0.250000
O O5 0.500000 0.106099 0.235128
O O6 0.500000 0.056613 0.307558
O O7 0.500000 0.399754 0.381819
O O8 0.500000 0.539162 0.379976
O O9 0.500000 0.250000 0.224401
O O10 0.746666 0.334443 0.176730
O O11 0.750000 0.338880 0.750000
O O12 0.000000 0.250000 0.792308
O O13 0.000000 0.380060 0.815610
O O14 0.248900 0.843594 0.380902
O O15 0.500000 0.750000 0.076439
#
# Coordination Sequence:
#
# PCOD9535372 Si02
#       8
#     8   8   8   8   8   8   8   8
#     4  10  21  38  61  86 110 138 171 210 263 331
#     4   8  16  27  42  66  94 127 172 219 271 305
#     4  10  21  37  57  80 107 139 175 212 259 319
#     4  10  19  31  50  74 100 136 187 238 274 303
#     4  10  19  30  45  68 101 142 181 214 255 303
#     4  10  19  32  49  72 102 135 170 219 272 315
#     4  10  20  34  52  78 108 140 180 224 263 303
#     4  10  19  33  58  86 108 135 175 224 270 307
#
# _framework density 19.230799999999999
#
# number of rings (size 3 to 8) (size 9 to 14) (size 15 to 20)
#    0.000    2.250    0.000    3.375    0.000    5.500 
#    0.000    3.750    0.000    4.500    0.000    0.000 
#    0.000    0.000    0.000    0.000    0.000    0.000 
#
# Total GULP energy -178626.380863 kJ/mol
# GULP energy per Si atom -5582.074402 kJ/mol
# Density = 1.918703 g / cm^3
# Si number density = 19.230800 Si / 1000 Ang^3
#
#
#
# Elastic Constant Matrix: (Units=GPa)
#
#
# Indices 1 2 3 4 5 6 
#
# 1 193.6359 16.8774 60.4507 0.0000 0.0000 0.0000
# 2 16.8774 67.2455 21.6034 0.0000 0.0000 0.0000
# 3 60.4507 21.6034 135.5218 0.0000 0.0000 0.0000
# 4 0.0000 0.0000 0.0000 17.4499 0.0000 0.0000
# 5 0.0000 0.0000 0.0000 0.0000 10.4477 0.0000
# 6 0.0000 0.0000 0.0000 0.0000 0.0000 5.8630
#
#
#
# Elastic Compliance Matrix: (Units=1/GPa)
#
#
# Indices 1 2 3 4 5 6 
#
# 1 0.006030 -0.000684 -0.002580 0.000000 0.000000 0.000000
# 2 -0.000684 0.015751 -0.002206 0.000000 0.000000 0.000000
# 3 -0.002580 -0.002206 0.008882 0.000000 0.000000 0.000000
# 4 0.000000 0.000000 0.000000 0.057307 0.000000 0.000000
# 5 0.000000 0.000000 0.000000 0.000000 0.095715 0.000000
# 6 0.000000 0.000000 0.000000 0.000000 0.000000 0.170561
#
#
# Mechanical properties :
#
#
# Convention : Reuss Voigt Hill
#
# Bulk Modulus (GPa) = 50.70613 66.02959 58.36786
# Shear Modulus (GPa) = 13.44954 26.58356 20.01655
#
# Velocity S-wave (km/s) = 2.64744 3.72202 3.22973
# Velocity P-wave (km/s) = 5.98077 7.27194 6.65773
#
# Compressibility (1/GPa) = 0.01972148
#
# Stress axis : x y z
#
# Youngs Moduli (GPa) = 165.84953 63.48719 112.59334
#
# Poissons Ratio (x) = 0.04344 0.29054
# Poissons Ratio (y) = 0.11349 0.24834
# Poissons Ratio (z) = 0.42797 0.14003
#
# Static dielectric constant tensor:
#      x y z
#    x 1.705600 0.000000 0.000000 
#    y 0.000000 1.712350 0.000000 
#    z 0.000000 0.000000 1.620390 
# 
# From -- ./inp_files/69371.got.cif
#   From: 2010.05.17/outbox.cif.g08.bks.cpg/sg74_35_cif.got.tgz:69371.got - 2010.06.03 17:57:02.
