data_PCOD9535417
_publ_section_title
;
Structure prediction by ZEFSAII (Michael W. Deem and Ramdas Pophale) SiO2 
 PCOD9535417
Probable space group: I M M A
;
_chemical_formula_sum "Si O2"
_cell_formula_units_Z 96
_cell_length_a 31.046108
_cell_length_b 7.394652
_cell_length_c 19.695675
_cell_angle_alpha 90.000000
_cell_angle_beta 90.000000
_cell_angle_gamma 90.000000
_cell_volume 4521.637830
_symmetry_space_group_name_H-M "I M M A"
_symmetry_group_IT_number 74
_symmetry_cell_setting 'orthorhombic'
loop_
_space_group_symop_operation_xyz
x,y,z
-x,1/2-y,z
x,-y,-z
-x,1/2+y,-z
-x,-y,-z
x,1/2+y,-z
-x,y,z
x,1/2-y,z
1/2+x,1/2+y,1/2+z
1/2-x,-y,1/2+z
1/2+x,1/2-y,1/2-z
1/2-x,y,1/2-z
1/2-x,1/2-y,1/2-z
1/2+x,y,1/2-z
1/2-x,1/2+y,1/2+z
1/2+x,-y,1/2+z
loop_
_atom_site_type_symbol
_atom_site_label
_atom_site_fract_x
_atom_site_fract_y
_atom_site_fract_z
Si Si1 0.272344 0.970644 0.322089
Si Si2 0.128724 0.970607 0.172733
Si Si3 0.451910 0.534378 0.073193
Si Si4 0.451327 0.966169 0.419727
Si Si5 0.698258 0.465819 0.920069
Si Si6 0.118901 0.028799 0.672267
O O1 0.273315 0.750000 0.319088
O O2 0.250000 0.025666 0.250000
O O3 0.321454 0.028220 0.336381
O O4 0.241886 0.029201 0.383910
O O5 0.128885 0.750000 0.168910
O O6 0.090128 0.032598 0.123064
O O7 0.119263 0.025077 0.250035
O O8 0.500000 0.458738 0.071903
O O9 0.454768 0.750000 0.080207
O O10 0.423585 0.466097 0.134097
O O11 0.430958 0.500000 0.000000
O O12 0.500000 0.033562 0.401789
O O13 0.452575 0.750000 0.409650
O O14 0.445152 0.000000 0.500000
O O15 0.697933 0.250000 0.912817
O O16 0.658960 0.532604 0.873511
O O17 0.694566 0.500000 0.000000
O O18 0.119860 0.250000 0.672133
#
# Coordination Sequence:
#
# PCOD9535417 Si02
#       6
#    16  16  16  16  16  16
#     4   9  15  27  46  68  92 120 155 194 232 272
#     4   9  16  27  47  72  93 117 155 196 230 269
#     4   9  17  28  42  61  86 116 147 180 219 261
#     4   9  18  32  50  72  98 126 155 193 241 287
#     4  10  19  30  47  70  93 119 152 188 228 273
#     4   9  16  27  44  67  91 115 147 189 228 263
#
# _framework density 21.231244
#
# number of rings (size 3 to 8) (size 9 to 14) (size 15 to 20)
#    0.000    2.833    1.667    0.500    0.000    1.333 
#    0.000    3.333    0.000    2.500    0.000    4.667 
#    0.000    0.000    0.000    0.000    0.000    0.000 
#
# Total GULP energy -267701.279640 kJ/mol
# GULP energy per Si atom -5577.109993 kJ/mol
# Density = 2.118292 g / cm^3
# Si number density = 21.231244 Si / 1000 Ang^3
#
#
#
# Elastic Constant Matrix: (Units=GPa)
#
#
# Indices 1 2 3 4 5 6 
#
# 1 184.6601 7.7851 110.5583 0.0000 0.0000 0.0000
# 2 7.7851 72.1696 -2.1426 0.0000 0.0000 0.0000
# 3 110.5583 -2.1426 150.7424 0.0000 0.0000 0.0000
# 4 0.0000 0.0000 0.0000 16.4661 0.0000 0.0000
# 5 0.0000 0.0000 0.0000 0.0000 44.1620 0.0000
# 6 0.0000 0.0000 0.0000 0.0000 0.0000 -11.1265
#
#
#
# Elastic Compliance Matrix: (Units=1/GPa)
#
#
# Indices 1 2 3 4 5 6 
#
# 1 0.009769 -0.001267 -0.007183 0.000000 0.000000 0.000000
# 2 -0.001267 0.014026 0.001129 0.000000 0.000000 0.000000
# 3 -0.007183 0.001129 0.011918 0.000000 0.000000 0.000000
# 4 0.000000 0.000000 0.000000 0.060731 0.000000 0.000000
# 5 0.000000 0.000000 0.000000 0.000000 0.022644 0.000000
# 6 0.000000 0.000000 0.000000 0.000000 0.000000 -0.089875
#
#
# Mechanical properties :
#
#
# Convention : Reuss Voigt Hill
#
# Bulk Modulus (GPa) = 47.45876 71.10818 59.28347
# Shear Modulus (GPa) = 98.26969 29.32506 63.79738
#
# Velocity S-wave (km/s) = 6.81072 3.72051 5.48763
# Velocity P-wave (km/s) = 9.17876 7.21257 8.25442
#
# Compressibility (1/GPa) = 0.02107092
#
# Stress axis : x y z
#
# Youngs Moduli (GPa) = 102.36029 71.29389 83.90544
#
# Poissons Ratio (x) = 0.09034 0.60270
# Poissons Ratio (y) = 0.12970 -0.09470
# Poissons Ratio (z) = 0.73527 -0.08047
#
# Static dielectric constant tensor:
#      x y z
#    x 1.784740 0.000000 0.000000 
#    y 0.000000 1.813170 0.000000 
#    z 0.000000 0.000000 1.721630 
# 
# From -- ./inp_files/55083.got.cif
#   From: 2010.05.17/outbox.cif.g08.bks.cpg/sg74_28_cif.got.tgz:55083.got - 2010.06.03 17:57:02.
