data_PCOD9535955
_publ_section_title
;
Structure prediction by ZEFSAII (Michael W. Deem and Ramdas Pophale) SiO2 
 PCOD9535955
Probable space group: I M M A
;
_chemical_formula_sum "Si O2"
_cell_formula_units_Z 80
_cell_length_a 13.354183
_cell_length_b 15.262116
_cell_length_c 17.775916
_cell_angle_alpha 90.000000
_cell_angle_beta 90.000000
_cell_angle_gamma 90.000000
_cell_volume 3622.964368
_symmetry_space_group_name_H-M "I M M A"
_symmetry_group_IT_number 74
_symmetry_cell_setting 'orthorhombic'
loop_
_space_group_symop_operation_xyz
x,y,z
-x,1/2-y,z
x,-y,-z
-x,1/2+y,-z
-x,-y,-z
x,1/2+y,-z
-x,y,z
x,1/2-y,z
1/2+x,1/2+y,1/2+z
1/2-x,-y,1/2+z
1/2+x,1/2-y,1/2-z
1/2-x,y,1/2-z
1/2-x,1/2-y,1/2-z
1/2+x,y,1/2-z
1/2-x,1/2+y,1/2+z
1/2+x,-y,1/2+z
loop_
_atom_site_type_symbol
_atom_site_label
_atom_site_fract_x
_atom_site_fract_y
_atom_site_fract_z
Si Si1 0.886527 0.095792 0.463386
Si Si2 0.379546 0.349061 0.202774
Si Si3 0.324132 0.154519 0.480873
Si Si4 0.620995 0.463261 0.343596
Si Si5 0.116082 0.654498 0.150584
O O1 0.863839 0.096713 0.373863
O O2 0.794461 0.148903 0.497753
O O3 0.000000 0.131038 0.472872
O O4 0.884471 0.000000 0.500000
O O5 0.500000 0.342909 0.209286
O O6 0.341118 0.250000 0.192782
O O7 0.347214 0.395850 0.279064
O O8 0.347562 0.250000 0.446351
O O9 0.349953 0.076814 0.424054
O O10 0.380545 0.148973 0.559695
O O11 0.500000 0.468926 0.343141
O O12 0.660849 0.560876 0.326296
O O13 0.160527 0.750000 0.171223
O O14 0.000000 0.656055 0.175109
#
# Coordination Sequence:
#
# PCOD9535955 Si02
#       5
#    16  16  16  16  16
#     4  10  21  37  55  73  98 135 177 219 262 308
#     4   9  18  33  53  78 107 136 168 212 265 315
#     4  11  21  32  51  78 107 141 180 216 255 309
#     4  10  19  32  52  79 112 143 170 208 260 318
#     4   9  18  32  51  77 109 143 176 211 253 306
#
# _framework density 22.081365000000002
#
# number of rings (size 3 to 8) (size 9 to 14) (size 15 to 20)
#    0.000    2.200    0.000    3.600    0.000    5.600 
#    0.000    2.000    0.000    2.400    0.000   18.200 
#    0.000    0.000    0.000    0.000    0.000    0.000 
#
# Total GULP energy -223241.217809 kJ/mol
# GULP energy per Si atom -5581.030445 kJ/mol
# Density = 2.203111 g / cm^3
# Si number density = 22.081365 Si / 1000 Ang^3
#
#
#
# Elastic Constant Matrix: (Units=GPa)
#
#
# Indices 1 2 3 4 5 6 
#
# 1 51.5060 -8.4248 -3.1223 0.0000 0.0000 0.0000
# 2 -8.4248 162.1154 42.4183 0.0000 0.0000 0.0000
# 3 -3.1223 42.4183 59.8885 0.0000 0.0000 0.0000
# 4 0.0000 0.0000 0.0000 -61.8376 0.0000 0.0000
# 5 0.0000 0.0000 0.0000 0.0000 19.3327 0.0000
# 6 0.0000 0.0000 0.0000 0.0000 0.0000 12.9018
#
#
#
# Elastic Compliance Matrix: (Units=1/GPa)
#
#
# Indices 1 2 3 4 5 6 
#
# 1 0.019588 0.000922 0.000369 0.000000 0.000000 0.000000
# 2 0.000922 0.007615 -0.005346 0.000000 0.000000 0.000000
# 3 0.000369 -0.005346 0.020503 0.000000 0.000000 0.000000
# 4 0.000000 0.000000 0.000000 -0.016171 0.000000 0.000000
# 5 0.000000 0.000000 0.000000 0.000000 0.051726 0.000000
# 6 0.000000 0.000000 0.000000 0.000000 0.000000 0.077509
#
#
# Mechanical properties :
#
#
# Convention : Reuss Voigt Hill
#
# Bulk Modulus (GPa) = 25.25546 37.25025 31.25286
# Shear Modulus (GPa) = 27.46062 10.25530 18.85796
#
# Velocity S-wave (km/s) = 3.53031 2.15741 2.92553
# Velocity P-wave (km/s) = 5.29903 4.80750 5.05924
#
# Compressibility (1/GPa) = 0.03959540
#
# Stress axis : x y z
#
# Youngs Moduli (GPa) = 51.05087 131.31911 48.77308
#
# Poissons Ratio (x) = -0.12102 -0.01797
# Poissons Ratio (y) = -0.04705 0.26072
# Poissons Ratio (z) = -0.01881 0.70198
#
# Static dielectric constant tensor:
#      x y z
#    x 1.874730 0.000000 0.000000 
#    y 0.000000 1.868090 0.000000 
#    z 0.000000 0.000000 1.755160 
# 
# From -- ./inp_files/42686.got.cif
#   From: 2010.05.17/outbox.cif.g08.bks.cpg/sg74_22_cif.got.tgz:42686.got - 2010.06.03 17:57:02.
