data_PCOD9535469
_publ_section_title
;
Structure prediction by ZEFSAII (Michael W. Deem and Ramdas Pophale) SiO2 
 PCOD9535469
Probable space group: I M M A
;
_chemical_formula_sum "Si O2"
_cell_formula_units_Z 112
_cell_length_a 16.419605
_cell_length_b 28.463728
_cell_length_c 12.200571
_cell_angle_alpha 90.000000
_cell_angle_beta 90.000000
_cell_angle_gamma 90.000000
_cell_volume 5702.097546
_symmetry_space_group_name_H-M "I M M A"
_symmetry_group_IT_number 74
_symmetry_cell_setting 'orthorhombic'
loop_
_space_group_symop_operation_xyz
x,y,z
-x,1/2-y,z
x,-y,-z
-x,1/2+y,-z
-x,-y,-z
x,1/2+y,-z
-x,y,z
x,1/2-y,z
1/2+x,1/2+y,1/2+z
1/2-x,-y,1/2+z
1/2+x,1/2-y,1/2-z
1/2-x,y,1/2-z
1/2-x,1/2-y,1/2-z
1/2+x,y,1/2-z
1/2-x,1/2+y,1/2+z
1/2+x,-y,1/2+z
loop_
_atom_site_type_symbol
_atom_site_label
_atom_site_fract_x
_atom_site_fract_y
_atom_site_fract_z
Si Si1 0.404614 0.699332 0.597270
Si Si2 0.839186 0.305924 0.475293
Si Si3 0.403798 0.466334 0.328484
Si Si4 0.599973 0.372420 0.219833
Si Si5 0.086494 0.305391 0.703167
Si Si6 0.902657 0.563887 0.083361
Si Si7 0.823624 0.162351 0.898246
O O1 0.500000 0.702032 0.620851
O O2 0.367033 0.750000 0.624461
O O3 0.374461 0.656972 0.671986
O O4 0.392952 0.688104 0.470529
O O5 0.837420 0.250000 0.443650
O O6 0.862151 0.342170 0.379192
O O7 0.903280 0.311582 0.573824
O O8 0.755637 0.320729 0.536179
O O9 0.500000 0.469565 0.304996
O O10 0.372706 0.426222 0.244727
O O11 0.375622 0.520234 0.339692
O O12 0.397110 0.448564 0.454142
O O13 0.500000 0.372330 0.210026
O O14 0.085057 0.250000 0.722484
O O15 0.161456 0.323670 0.773442
O O16 0.000000 0.326643 0.738492
O O17 0.844091 0.607713 0.098590
O O18 0.000000 0.573131 0.102619
#
# Coordination Sequence:
#
# PCOD9535469 Si02
#       7
#    16  16  16  16  16  16  16
#     4  10  19  30  48  78 112 146 189 235 278 334
#     4  11  24  38  53  78 118 164 201 232 284 363
#     4   8  15  30  55  84 109 139 188 242 287 338
#     4  10  19  35  57  81 113 155 198 240 284 342
#     4  10  21  38  59  79 102 142 200 253 290 336
#     4   9  16  30  55  85 111 139 184 240 294 345
#     4  12  21  33  54  82 116 147 184 243 308 355
#
# _framework density 19.641895000000002
#
# number of rings (size 3 to 8) (size 9 to 14) (size 15 to 20)
#    0.000    2.000    1.429    4.714    0.000    4.286 
#    0.000    1.429    0.000    7.714    0.000    4.000 
#    0.000    0.000    0.000    0.000    0.000    0.000 
#
# Total GULP energy -311817.398001 kJ/mol
# GULP energy per Si atom -5568.167821 kJ/mol
# Density = 1.959719 g / cm^3
# Si number density = 19.641895 Si / 1000 Ang^3
#
#
#
# Elastic Constant Matrix: (Units=GPa)
#
#
# Indices 1 2 3 4 5 6 
#
# 1 49.7151 26.7003 14.1870 -0.0001 0.0000 0.0000
# 2 26.7003 119.4534 35.4780 -0.0001 0.0000 -0.0001
# 3 14.1870 35.4780 67.1341 0.0005 0.0003 -0.0001
# 4 -0.0001 -0.0001 0.0005 30.7073 0.0000 0.0000
# 5 0.0000 0.0000 0.0003 0.0000 25.1106 0.0000
# 6 0.0000 -0.0001 -0.0001 0.0000 0.0000 27.0240
#
#
#
# Elastic Compliance Matrix: (Units=1/GPa)
#
#
# Indices 1 2 3 4 5 6 
#
# 1 0.023226 -0.004429 -0.002568 0.000000 0.000000 0.000000
# 2 -0.004429 0.010775 -0.004758 0.000000 0.000000 0.000000
# 3 -0.002568 -0.004758 0.017953 0.000000 0.000000 0.000000
# 4 0.000000 0.000000 0.000000 0.032566 0.000000 0.000000
# 5 0.000000 0.000000 0.000000 0.000000 0.039824 0.000000
# 6 0.000000 0.000000 0.000000 0.000000 0.000000 0.037004
#
#
# Mechanical properties :
#
#
# Convention : Reuss Voigt Hill
#
# Bulk Modulus (GPa) = 35.15688 43.22591 39.19140
# Shear Modulus (GPa) = 25.72848 27.23086 26.47967
#
# Velocity S-wave (km/s) = 3.62315 3.72743 3.67566
# Velocity P-wave (km/s) = 5.95321 6.37023 6.16525
#
# Compressibility (1/GPa) = 0.02844393
#
# Stress axis : x y z
#
# Youngs Moduli (GPa) = 43.05527 92.81120 55.70214
#
# Poissons Ratio (x) = 0.41105 0.14303
# Poissons Ratio (y) = 0.19069 0.26503
# Poissons Ratio (z) = 0.11055 0.44160
#
# Static dielectric constant tensor:
#      x y z
#    x 1.771680 0.000000 0.000000 
#    y 0.000000 1.736050 0.000000 
#    z 0.000000 0.000000 1.690720 
# 
# From -- ./inp_files/21178.got.cif
#   From: 2010.05.17/outbox.cif.g08.bks.cpg/sg74_11_cif.got.tgz:21178.got - 2010.06.03 17:57:02.
