data_PCOD9535945
_publ_section_title
;
Structure prediction by ZEFSAII (Michael W. Deem and Ramdas Pophale) SiO2 
 PCOD9535945
Probable space group: I M M A
;
_chemical_formula_sum "Si O2"
_cell_formula_units_Z 112
_cell_length_a 15.420709
_cell_length_b 15.593084
_cell_length_c 24.412338
_cell_angle_alpha 90.000000
_cell_angle_beta 90.000000
_cell_angle_gamma 90.000000
_cell_volume 5870.103174
_symmetry_space_group_name_H-M "I M M A"
_symmetry_group_IT_number 74
_symmetry_cell_setting 'orthorhombic'
loop_
_space_group_symop_operation_xyz
x,y,z
-x,1/2-y,z
x,-y,-z
-x,1/2+y,-z
-x,-y,-z
x,1/2+y,-z
-x,y,z
x,1/2-y,z
1/2+x,1/2+y,1/2+z
1/2-x,-y,1/2+z
1/2+x,1/2-y,1/2-z
1/2-x,y,1/2-z
1/2-x,1/2-y,1/2-z
1/2+x,y,1/2-z
1/2-x,1/2+y,1/2+z
1/2+x,-y,1/2+z
loop_
_atom_site_type_symbol
_atom_site_label
_atom_site_fract_x
_atom_site_fract_y
_atom_site_fract_z
Si Si1 0.399281 0.967514 0.699265
Si Si2 0.190069 0.093651 0.608340
Si Si3 0.401842 0.154485 0.198157
Si Si4 0.500000 0.152210 0.025960
Si Si5 0.686177 0.351950 0.016055
Si Si6 0.500000 0.847590 0.107231
Si Si7 0.315210 0.344866 0.698634
Si Si8 0.250637 0.598014 0.624330
O O1 0.500000 0.961295 0.684498
O O2 0.387901 0.920921 0.757944
O O3 0.338718 0.913828 0.657879
O O4 0.371821 0.067940 0.700278
O O5 0.202154 0.110170 0.543666
O O6 0.090304 0.110769 0.623835
O O7 0.255449 0.149779 0.644411
O O8 0.212921 0.997150 0.621332
O O9 0.500000 0.144088 0.174530
O O10 0.400370 0.250000 0.224074
O O11 0.323219 0.151241 0.155651
O O12 0.500000 0.250000 0.047573
O O13 0.406726 0.112336 0.038931
O O14 0.500000 0.154317 0.959372
O O15 0.674534 0.250000 0.008560
O O16 0.756913 0.368989 0.062270
O O17 0.500000 0.750000 0.126682
O O18 0.141820 0.250000 0.799465
O O19 0.250000 0.350104 0.750000
#
# Coordination Sequence:
#
# PCOD9535945 Si02
#       8
#    16  16  16   8  16   8  16  16
#     4  10  22  41  60  80 112 151 196 247 297 343
#     4  10  20  34  53  79 118 154 183 226 282 347
#     4  10  22  39  61  87 117 152 186 229 292 354
#     4   7  14  27  43  67 103 141 177 215 258 325
#     4  10  19  32  52  78 112 152 188 227 278 341
#     4   9  16  29  49  73 104 149 185 205 255 339
#     4  10  20  37  60  87 115 146 190 242 292 346
#     4  11  22  34  55  85 112 146 193 240 281 333
#
# _framework density 19.079732
#
# number of rings (size 3 to 8) (size 9 to 14) (size 15 to 20)
#    0.000    2.143    0.000    5.143    2.000    2.000 
#    1.286    2.143    0.000    6.857    0.000    0.000 
#    0.000    0.000    0.000    0.000    0.000    0.000 
#
# Total GULP energy -312373.578744 kJ/mol
# GULP energy per Si atom -5578.099620 kJ/mol
# Density = 1.903631 g / cm^3
# Si number density = 19.079732 Si / 1000 Ang^3
#
#
#
# Elastic Constant Matrix: (Units=GPa)
#
#
# Indices 1 2 3 4 5 6 
#
# 1 82.1142 27.8875 46.4725 0.0000 0.0000 0.0000
# 2 27.8875 73.4916 19.0358 0.0000 0.0000 0.0000
# 3 46.4725 19.0358 76.9306 0.0000 0.0000 0.0000
# 4 0.0000 0.0000 0.0000 7.2942 0.0000 0.0000
# 5 0.0000 0.0000 0.0000 0.0000 21.9002 0.0000
# 6 0.0000 0.0000 0.0000 0.0000 0.0000 14.2767
#
#
#
# Elastic Compliance Matrix: (Units=1/GPa)
#
#
# Indices 1 2 3 4 5 6 
#
# 1 0.019946 -0.004752 -0.010873 0.000000 0.000000 0.000000
# 2 -0.004752 0.015671 -0.001007 0.000000 0.000000 0.000000
# 3 -0.010873 -0.001007 0.019816 0.000000 0.000000 0.000000
# 4 0.000000 0.000000 0.000000 0.137096 0.000000 0.000000
# 5 0.000000 0.000000 0.000000 0.000000 0.045662 0.000000
# 6 0.000000 0.000000 0.000000 0.000000 0.000000 0.070044
#
#
# Mechanical properties :
#
#
# Convention : Reuss Voigt Hill
#
# Bulk Modulus (GPa) = 45.10897 46.59200 45.85048
# Shear Modulus (GPa) = 14.33121 17.97024 16.15073
#
# Velocity S-wave (km/s) = 2.74363 3.07229 2.91260
# Velocity P-wave (km/s) = 5.80779 6.08752 5.94930
#
# Compressibility (1/GPa) = 0.02216854
#
# Stress axis : x y z
#
# Youngs Moduli (GPa) = 50.13609 63.81147 50.46418
#
# Poissons Ratio (x) = 0.30326 0.54869
# Poissons Ratio (y) = 0.23827 0.05081
# Poissons Ratio (z) = 0.54513 0.06425
#
# Static dielectric constant tensor:
#      x y z
#    x 1.669470 0.000000 0.000000 
#    y 0.000000 1.694490 0.000000 
#    z 0.000000 0.000000 1.673150 
# 
# From -- ./inp_files/67266.got.cif
#   From: 2010.05.17/outbox.cif.g08.bks.cpg/sg74_34_cif.got.tgz:67266.got - 2010.06.03 17:57:02.
