data_PCOD9535520
_publ_section_title
;
Structure prediction by ZEFSAII (Michael W. Deem and Ramdas Pophale) SiO2 
 PCOD9535520
Probable space group: I M M A
;
_chemical_formula_sum "Si O2"
_cell_formula_units_Z 96
_cell_length_a 16.252332
_cell_length_b 13.318750
_cell_length_c 28.520211
_cell_angle_alpha 90.000000
_cell_angle_beta 90.000000
_cell_angle_gamma 90.000000
_cell_volume 6173.506173
_symmetry_space_group_name_H-M "I M M A"
_symmetry_group_IT_number 74
_symmetry_cell_setting 'orthorhombic'
loop_
_space_group_symop_operation_xyz
x,y,z
-x,1/2-y,z
x,-y,-z
-x,1/2+y,-z
-x,-y,-z
x,1/2+y,-z
-x,y,z
x,1/2-y,z
1/2+x,1/2+y,1/2+z
1/2-x,-y,1/2+z
1/2+x,1/2-y,1/2-z
1/2-x,y,1/2-z
1/2-x,1/2-y,1/2-z
1/2+x,y,1/2-z
1/2-x,1/2+y,1/2+z
1/2+x,-y,1/2+z
loop_
_atom_site_type_symbol
_atom_site_label
_atom_site_fract_x
_atom_site_fract_y
_atom_site_fract_z
Si Si1 0.500000 0.128571 0.786791
Si Si2 0.593658 0.871391 0.472623
Si Si3 0.000000 0.371675 0.602970
Si Si4 0.675704 0.939244 0.070717
Si Si5 0.839286 0.372562 0.769975
Si Si6 0.753856 0.134554 0.473746
Si Si7 0.824990 0.870447 0.124339
O O1 0.500000 0.250000 0.783222
O O2 0.500000 0.105402 0.841648
O O3 0.416610 0.093794 0.761168
O O4 0.500000 0.900125 0.481566
O O5 0.596074 0.750000 0.470055
O O6 0.659558 0.894755 0.513360
O O7 0.624025 0.906925 0.421159
O O8 0.081189 0.419404 0.580567
O O9 0.000000 0.250000 0.597092
O O10 0.731005 0.899187 0.113351
O O11 0.702908 0.053317 0.059398
O O12 0.702385 0.877099 0.024444
O O13 0.839247 0.250000 0.769665
O O14 0.750000 0.403349 0.750000
O O15 0.849970 0.405480 0.824054
O O16 0.757688 0.250000 0.458112
O O17 0.831628 0.750000 0.124740
#
# Coordination Sequence:
#
# PCOD9535520 Si02
#       7
#     8  16   8  16  16  16  16
#     4   9  18  28  41  64  90 119 151 182 222 271
#     4   8  14  25  43  63  83 116 151 179 218 261
#     4  11  20  31  48  66  90 118 154 192 221 270
#     4  10  19  31  46  65  87 121 155 183 227 271
#     4   9  16  25  38  57  85 120 150 179 220 266
#     4   9  18  32  46  64  92 119 150 191 226 266
#     4   9  16  26  41  60  89 119 149 183 217 266
#
# _framework density 15.550321
#
# number of rings (size 3 to 8) (size 9 to 14) (size 15 to 20)
#    0.000    2.833    0.000    3.500    1.167    4.000 
#    0.000    7.917    0.000    0.000    0.000    0.000 
#    0.000    7.333    0.000    0.000    0.000    0.000 
#
# Total GULP energy -267319.349722 kJ/mol
# GULP energy per Si atom -5569.153119 kJ/mol
# Density = 1.551493 g / cm^3
# Si number density = 15.550321 Si / 1000 Ang^3
#
#
#
# Elastic Constant Matrix: (Units=GPa)
#
#
# Indices 1 2 3 4 5 6 
#
# 1 140.2667 15.4685 41.6412 0.0000 0.0000 0.0000
# 2 15.4685 52.3876 16.6999 0.0000 0.0000 0.0000
# 3 41.6412 16.6999 61.1816 0.0000 0.0000 0.0000
# 4 0.0000 0.0000 0.0000 11.8978 0.0000 0.0000
# 5 0.0000 0.0000 0.0000 0.0000 10.7332 0.0000
# 6 0.0000 0.0000 0.0000 0.0000 0.0000 -16.3173
#
#
#
# Elastic Compliance Matrix: (Units=1/GPa)
#
#
# Indices 1 2 3 4 5 6 
#
# 1 0.008963 -0.000769 -0.005890 0.000000 0.000000 0.000000
# 2 -0.000769 0.020974 -0.005202 0.000000 0.000000 0.000000
# 3 -0.005890 -0.005202 0.021774 0.000000 0.000000 0.000000
# 4 0.000000 0.000000 0.000000 0.084049 0.000000 0.000000
# 5 0.000000 0.000000 0.000000 0.000000 0.093169 0.000000
# 6 0.000000 0.000000 0.000000 0.000000 0.000000 -0.061284
#
#
# Mechanical properties :
#
#
# Convention : Reuss Voigt Hill
#
# Bulk Modulus (GPa) = 35.72892 44.60613 40.16753
# Shear Modulus (GPa) = 24.91351 13.26449 19.08900
#
# Velocity S-wave (km/s) = 4.00699 2.92379 3.50746
# Velocity P-wave (km/s) = 6.66590 6.33604 6.50306
#
# Compressibility (1/GPa) = 0.02798853
#
# Stress axis : x y z
#
# Youngs Moduli (GPa) = 111.57321 47.67887 45.92696
#
# Poissons Ratio (x) = 0.03665 0.27053
# Poissons Ratio (y) = 0.08577 0.23890
# Poissons Ratio (z) = 0.65721 0.24801
#
# Static dielectric constant tensor:
#      x y z
#    x 1.546740 0.000000 0.000000 
#    y 0.000000 1.522620 0.000000 
#    z 0.000000 0.000000 1.523010 
# 
# From -- ./inp_files/67114.got.cif
#   From: 2010.05.17/outbox.cif.g08.bks.cpg/sg74_34_cif.got.tgz:67114.got - 2010.06.03 17:57:02.
