data_PCOD9535593
_publ_section_title
;
Structure prediction by ZEFSAII (Michael W. Deem and Ramdas Pophale) SiO2 
 PCOD9535593
Probable space group: I M M A
;
_chemical_formula_sum "Si O2"
_cell_formula_units_Z 104
_cell_length_a 29.628827
_cell_length_b 8.618339
_cell_length_c 29.130271
_cell_angle_alpha 90.000000
_cell_angle_beta 90.000000
_cell_angle_gamma 90.000000
_cell_volume 7438.451848
_symmetry_space_group_name_H-M "I M M A"
_symmetry_group_IT_number 74
_symmetry_cell_setting 'orthorhombic'
loop_
_space_group_symop_operation_xyz
x,y,z
-x,1/2-y,z
x,-y,-z
-x,1/2+y,-z
-x,-y,-z
x,1/2+y,-z
-x,y,z
x,1/2-y,z
1/2+x,1/2+y,1/2+z
1/2-x,-y,1/2+z
1/2+x,1/2-y,1/2-z
1/2-x,y,1/2-z
1/2-x,1/2-y,1/2-z
1/2+x,y,1/2-z
1/2-x,1/2+y,1/2+z
1/2+x,-y,1/2+z
loop_
_atom_site_type_symbol
_atom_site_label
_atom_site_fract_x
_atom_site_fract_y
_atom_site_fract_z
Si Si1 0.053036 0.564038 0.694471
Si Si2 0.822730 0.065241 0.448281
Si Si3 0.213024 0.935776 0.355316
Si Si4 0.500000 0.563798 0.949720
Si Si5 0.286539 0.927270 0.708871
Si Si6 0.141508 0.435154 0.725337
Si Si7 0.912493 0.565917 0.401833
O O1 0.052802 0.750000 0.689966
O O2 0.092139 0.512787 0.729728
O O3 0.075169 0.488681 0.649212
O O4 0.000000 0.516587 0.700664
O O5 0.819926 0.250000 0.450681
O O6 0.815833 0.000000 0.500000
O O7 0.791622 0.002857 0.406568
O O8 0.871329 0.013935 0.428231
O O9 0.211074 0.750000 0.357309
O O10 0.171695 0.984141 0.320185
O O11 0.259403 0.991221 0.332039
O O12 0.500000 0.750000 0.945639
O O13 0.543412 0.488845 0.927589
O O14 0.500000 0.500000 0.000000
O O15 0.298684 0.750000 0.697337
O O16 0.250000 0.922168 0.750000
O O17 0.328277 0.018321 0.730890
O O18 0.136518 0.250000 0.722184
O O19 0.905037 0.750000 0.402224
#
# Coordination Sequence:
#
# PCOD9535593 Si02
#       7
#    16  16  16   8  16  16  16
#     4  11  22  34  49  67  89 117 151 188 230 276
#     4  12  24  37  51  66  88 116 150 187 230 276
#     4  10  19  32  49  70  93 115 146 184 227 273
#     4  12  24  38  50  62  76  98 134 182 232 278
#     4   9  17  29  47  70  93 116 144 177 222 271
#     4  10  19  31  49  69  92 117 146 185 228 272
#     4  12  23  36  50  64  82 107 142 185 231 276
#
# _framework density 13.981403999999999
#
# number of rings (size 3 to 8) (size 9 to 14) (size 15 to 20)
#    0.000    1.231    2.308    5.769    0.000    4.000 
#    0.000    0.000    0.000    0.000    0.000    0.000 
#    0.000    0.000    0.000    0.000    0.000    0.769 
#
# Total GULP energy -289831.458811 kJ/mol
# GULP energy per Si atom -5573.681900 kJ/mol
# Density = 1.394958 g / cm^3
# Si number density = 13.981404 Si / 1000 Ang^3
#
#
#
# Elastic Constant Matrix: (Units=GPa)
#
#
# Indices 1 2 3 4 5 6 
#
# 1 66.1366 22.1225 52.7263 0.0000 0.0000 0.0000
# 2 22.1225 77.1639 30.7221 0.0000 0.0000 0.0000
# 3 52.7263 30.7221 75.8697 0.0000 0.0000 0.0000
# 4 0.0000 0.0000 0.0000 22.7501 0.0000 0.0000
# 5 0.0000 0.0000 0.0000 0.0000 30.6087 0.0000
# 6 0.0000 0.0000 0.0000 0.0000 0.0000 24.5452
#
#
#
# Elastic Compliance Matrix: (Units=1/GPa)
#
#
# Indices 1 2 3 4 5 6 
#
# 1 0.033916 -0.000404 -0.023406 0.000000 0.000000 0.000000
# 2 -0.000404 0.015455 -0.005977 0.000000 0.000000 0.000000
# 3 -0.023406 -0.005977 0.031867 0.000000 0.000000 0.000000
# 4 0.000000 0.000000 0.000000 0.043956 0.000000 0.000000
# 5 0.000000 0.000000 0.000000 0.000000 0.032670 0.000000
# 6 0.000000 0.000000 0.000000 0.000000 0.000000 0.040741
#
#
# Mechanical properties :
#
#
# Convention : Reuss Voigt Hill
#
# Bulk Modulus (GPa) = 46.16324 47.81248 46.98786
# Shear Modulus (GPa) = 18.83932 23.15409 20.99671
#
# Velocity S-wave (km/s) = 3.67475 4.07389 3.87946
# Velocity P-wave (km/s) = 7.14803 7.51001 7.33125
#
# Compressibility (1/GPa) = 0.02166226
#
# Stress axis : x y z
#
# Youngs Moduli (GPa) = 29.48476 64.70333 31.38016
#
# Poissons Ratio (x) = 0.02617 0.73449
# Poissons Ratio (y) = 0.01193 0.18757
# Poissons Ratio (z) = 0.69013 0.38674
#
# Static dielectric constant tensor:
#      x y z
#    x 1.466300 0.000000 0.000000 
#    y 0.000000 1.469480 0.000000 
#    z 0.000000 0.000000 1.478170 
# 
# From -- ./inp_files/62661.got.cif
#   From: 2010.05.17/outbox.cif.g08.bks.cpg/sg74_32_cif.got.tgz:62661.got - 2010.06.03 17:57:02.
