data_PCOD9535471
_publ_section_title
;
Structure prediction by ZEFSAII (Michael W. Deem and Ramdas Pophale) SiO2 
 PCOD9535471
Probable space group: I M M A
;
_chemical_formula_sum "Si O2"
_cell_formula_units_Z 112
_cell_length_a 15.212427
_cell_length_b 14.589227
_cell_length_c 25.596533
_cell_angle_alpha 90.000000
_cell_angle_beta 90.000000
_cell_angle_gamma 90.000000
_cell_volume 5680.831841
_symmetry_space_group_name_H-M "I M M A"
_symmetry_group_IT_number 74
_symmetry_cell_setting 'orthorhombic'
loop_
_space_group_symop_operation_xyz
x,y,z
-x,1/2-y,z
x,-y,-z
-x,1/2+y,-z
-x,-y,-z
x,1/2+y,-z
-x,y,z
x,1/2-y,z
1/2+x,1/2+y,1/2+z
1/2-x,-y,1/2+z
1/2+x,1/2-y,1/2-z
1/2-x,y,1/2-z
1/2-x,1/2-y,1/2-z
1/2+x,y,1/2-z
1/2-x,1/2+y,1/2+z
1/2+x,-y,1/2+z
loop_
_atom_site_type_symbol
_atom_site_label
_atom_site_fract_x
_atom_site_fract_y
_atom_site_fract_z
Si Si1 0.790117 0.643660 0.519297
Si Si2 0.605255 0.358945 0.121825
Si Si3 0.169035 0.533756 0.332887
Si Si4 0.601325 0.352088 0.743685
Si Si5 0.597743 0.393007 0.513056
Si Si6 0.596378 0.141117 0.925136
Si Si7 0.165315 0.355973 0.870739
O O1 0.815378 0.750000 0.517098
O O2 0.841401 0.609936 0.570009
O O3 0.684754 0.639178 0.517933
O O4 0.830076 0.605739 0.465516
O O5 0.500000 0.371476 0.116218
O O6 0.620245 0.250000 0.130688
O O7 0.645461 0.426973 0.164886
O O8 0.156593 0.574656 0.275535
O O9 0.101852 0.586014 0.371640
O O10 0.260376 0.569173 0.357595
O O11 0.500000 0.360037 0.759307
O O12 0.633803 0.250000 0.757944
O O13 0.606412 0.359159 0.681172
O O14 0.594567 0.500000 0.500000
O O15 0.500000 0.355580 0.500850
O O16 0.618098 0.375536 0.574354
O O17 0.500000 0.129571 0.949719
O O18 0.607334 0.250000 0.914501
O O19 0.199539 0.250000 0.874270
#
# Coordination Sequence:
#
# PCOD9535471 Si02
#       7
#    16  16  16  16  16  16  16
#     4  10  20  35  53  77 109 148 192 237 284 342
#     4  10  22  39  58  82 115 156 201 244 293 354
#     4  12  21  34  56  84 118 152 196 242 290 344
#     4  10  21  36  56  86 121 157 196 237 288 352
#     4  11  23  38  56  82 114 153 201 244 281 333
#     4  10  19  30  48  78 115 150 183 225 282 347
#     4  11  22  38  60  87 121 159 194 234 292 359
#
# _framework density 19.715423000000001
#
# number of rings (size 3 to 8) (size 9 to 14) (size 15 to 20)
#    0.000    1.429    1.429    5.143    0.000    5.714 
#    0.000    1.429    0.000    1.714    0.000    0.000 
#    0.000    4.571    0.000    0.000    0.000    0.000 
#
# Total GULP energy -312438.106034 kJ/mol
# GULP energy per Si atom -5579.251893 kJ/mol
# Density = 1.967055 g / cm^3
# Si number density = 19.715423 Si / 1000 Ang^3
#
#
#
# Elastic Constant Matrix: (Units=GPa)
#
#
# Indices 1 2 3 4 5 6 
#
# 1 107.8002 23.5698 17.0645 0.0000 0.0000 0.0000
# 2 23.5698 101.3204 30.7038 0.0000 0.0000 0.0000
# 3 17.0645 30.7038 64.2612 0.0000 0.0000 0.0000
# 4 0.0000 0.0000 0.0000 14.8430 0.0000 0.0000
# 5 0.0000 0.0000 0.0000 0.0000 19.8489 0.0000
# 6 0.0000 0.0000 0.0000 0.0000 0.0000 23.7056
#
#
#
# Elastic Compliance Matrix: (Units=1/GPa)
#
#
# Indices 1 2 3 4 5 6 
#
# 1 0.009948 -0.001770 -0.001796 0.000000 0.000000 0.000000
# 2 -0.001770 0.011856 -0.005195 0.000000 0.000000 0.000000
# 3 -0.001796 -0.005195 0.018520 0.000000 0.000000 0.000000
# 4 0.000000 0.000000 0.000000 0.067372 0.000000 0.000000
# 5 0.000000 0.000000 0.000000 0.000000 0.050381 0.000000
# 6 0.000000 0.000000 0.000000 0.000000 0.000000 0.042184
#
#
# Mechanical properties :
#
#
# Convention : Reuss Voigt Hill
#
# Bulk Modulus (GPa) = 43.85422 46.22866 45.04144
# Shear Modulus (GPa) = 22.18459 25.14909 23.66684
#
# Velocity S-wave (km/s) = 3.35810 3.57544 3.46847
# Velocity P-wave (km/s) = 6.10964 6.36741 6.23985
#
# Compressibility (1/GPa) = 0.02280282
#
# Stress axis : x y z
#
# Youngs Moduli (GPa) = 100.52593 84.34879 53.99466
#
# Poissons Ratio (x) = 0.14928 0.09697
# Poissons Ratio (y) = 0.17792 0.28048
# Poissons Ratio (z) = 0.18054 0.43815
#
# Static dielectric constant tensor:
#      x y z
#    x 1.744420 0.000000 0.000000 
#    y 0.000000 1.727980 0.000000 
#    z 0.000000 0.000000 1.705480 
# 
# From -- ./inp_files/60112.got.cif
#   From: 2010.05.17/outbox.cif.g08.bks.cpg/sg74_31_cif.got.tgz:60112.got - 2010.06.03 17:57:02.
