data_PCOD9535705
_publ_section_title
;
Structure prediction by ZEFSAII (Michael W. Deem and Ramdas Pophale) SiO2 
 PCOD9535705
Probable space group: I M M A
;
_chemical_formula_sum "Si O2"
_cell_formula_units_Z 96
_cell_length_a 21.774276
_cell_length_b 9.034216
_cell_length_c 25.166015
_cell_angle_alpha 90.000000
_cell_angle_beta 90.000000
_cell_angle_gamma 90.000000
_cell_volume 4950.495209
_symmetry_space_group_name_H-M "I M M A"
_symmetry_group_IT_number 74
_symmetry_cell_setting 'orthorhombic'
loop_
_space_group_symop_operation_xyz
x,y,z
-x,1/2-y,z
x,-y,-z
-x,1/2+y,-z
-x,-y,-z
x,1/2+y,-z
-x,y,z
x,1/2-y,z
1/2+x,1/2+y,1/2+z
1/2-x,-y,1/2+z
1/2+x,1/2-y,1/2-z
1/2-x,y,1/2-z
1/2-x,1/2-y,1/2-z
1/2+x,y,1/2-z
1/2-x,1/2+y,1/2+z
1/2+x,-y,1/2+z
loop_
_atom_site_type_symbol
_atom_site_label
_atom_site_fract_x
_atom_site_fract_y
_atom_site_fract_z
Si Si1 0.092434 0.578557 0.554687
Si Si2 0.432001 0.927143 0.443177
Si Si3 0.678690 0.571265 0.246362
Si Si4 0.240444 0.080040 0.445571
Si Si5 0.324370 0.572707 0.366278
Si Si6 0.569076 0.071252 0.832522
O O1 0.072377 0.500000 0.500000
O O2 0.073366 0.750000 0.555259
O O3 0.166801 0.575373 0.554485
O O4 0.072939 0.496712 0.608518
O O5 0.500000 0.964081 0.423061
O O6 0.428272 0.750000 0.448708
O O7 0.379534 0.975405 0.403783
O O8 0.424097 0.000000 0.500000
O O9 0.682295 0.750000 0.238852
O O10 0.750000 0.518433 0.250000
O O11 0.657703 0.538663 0.306183
O O12 0.627519 0.520056 0.203589
O O13 0.260779 0.250000 0.446997
O O14 0.261719 0.000000 0.500000
O O15 0.265069 0.002173 0.392427
O O16 0.315393 0.750000 0.369153
O O17 0.500000 0.036845 0.811005
O O18 0.573176 0.250000 0.836166
#
# Coordination Sequence:
#
# PCOD9535705 Si02
#       6
#    16  16  16  16  16  16
#     4  10  21  37  58  83 111 144 179 218 269 328
#     4   9  18  31  46  67  97 132 170 213 261 313
#     4   9  18  33  54  79 107 141 180 221 266 317
#     4  10  20  33  51  78 110 141 176 222 274 327
#     4  10  19  31  51  76 102 138 181 223 269 322
#     4  10  21  37  58  84 113 145 183 228 274 321
#
# _framework density 19.391999999999999
#
# number of rings (size 3 to 8) (size 9 to 14) (size 15 to 20)
#    0.000    2.333    0.000    2.500    0.000    6.667 
#    0.000    4.167    0.000    3.000    0.000    2.333 
#    0.000    0.000    0.000    0.000    0.000    0.000 
#
# Total GULP energy -267641.341530 kJ/mol
# GULP energy per Si atom -5575.861282 kJ/mol
# Density = 1.934786 g / cm^3
# Si number density = 19.392000 Si / 1000 Ang^3
#
#
#
# Elastic Constant Matrix: (Units=GPa)
#
#
# Indices 1 2 3 4 5 6 
#
# 1 112.2668 26.5312 54.3243 0.0000 0.0000 0.0000
# 2 26.5312 30.7021 26.9728 0.0000 0.0000 0.0000
# 3 54.3243 26.9728 85.5963 0.0000 0.0000 0.0000
# 4 0.0000 0.0000 0.0000 17.4920 0.0000 0.0000
# 5 0.0000 0.0000 0.0000 0.0000 7.4973 0.0000
# 6 0.0000 0.0000 0.0000 0.0000 0.0000 9.7094
#
#
#
# Elastic Compliance Matrix: (Units=1/GPa)
#
#
# Indices 1 2 3 4 5 6 
#
# 1 0.013550 -0.005745 -0.006790 0.000000 0.000000 0.000000
# 2 -0.005745 0.047475 -0.011314 0.000000 0.000000 0.000000
# 3 -0.006790 -0.011314 0.019557 0.000000 0.000000 0.000000
# 4 0.000000 0.000000 0.000000 0.057169 0.000000 0.000000
# 5 0.000000 0.000000 0.000000 0.000000 0.133381 0.000000
# 6 0.000000 0.000000 0.000000 0.000000 0.000000 0.102993
#
#
# Mechanical properties :
#
#
# Convention : Reuss Voigt Hill
#
# Bulk Modulus (GPa) = 30.40844 49.35798 39.88321
# Shear Modulus (GPa) = 11.55309 14.98888 13.27098
#
# Velocity S-wave (km/s) = 2.44348 2.78320 2.61885
# Velocity P-wave (km/s) = 4.86577 5.98634 5.45491
#
# Compressibility (1/GPa) = 0.03288560
#
# Stress axis : x y z
#
# Youngs Moduli (GPa) = 73.79905 21.06357 51.13228
#
# Poissons Ratio (x) = 0.12100 0.34717
# Poissons Ratio (y) = 0.42395 0.57853
# Poissons Ratio (z) = 0.50106 0.23832
#
# Static dielectric constant tensor:
#      x y z
#    x 1.738550 0.000000 0.000000 
#    y 0.000000 1.656450 0.000000 
#    z 0.000000 0.000000 1.655930 
# 
# From -- ./inp_files/68106.got.cif
#   From: 2010.05.17/outbox.cif.g08.bks.cpg/sg74_35_cif.got.tgz:68106.got - 2010.06.03 17:57:02.
