data_PCOD9535523
_publ_section_title
;
Structure prediction by ZEFSAII (Michael W. Deem and Ramdas Pophale) SiO2 
 PCOD9535523
Probable space group: I M M A
;
_chemical_formula_sum "Si O2"
_cell_formula_units_Z 96
_cell_length_a 9.480036
_cell_length_b 26.414225
_cell_length_c 21.363843
_cell_angle_alpha 90.000000
_cell_angle_beta 90.000000
_cell_angle_gamma 90.000000
_cell_volume 5349.673009
_symmetry_space_group_name_H-M "I M M A"
_symmetry_group_IT_number 74
_symmetry_cell_setting 'orthorhombic'
loop_
_space_group_symop_operation_xyz
x,y,z
-x,1/2-y,z
x,-y,-z
-x,1/2+y,-z
-x,-y,-z
x,1/2+y,-z
-x,y,z
x,1/2-y,z
1/2+x,1/2+y,1/2+z
1/2-x,-y,1/2+z
1/2+x,1/2-y,1/2-z
1/2-x,y,1/2-z
1/2-x,1/2-y,1/2-z
1/2+x,y,1/2-z
1/2-x,1/2+y,1/2+z
1/2+x,-y,1/2+z
loop_
_atom_site_type_symbol
_atom_site_label
_atom_site_fract_x
_atom_site_fract_y
_atom_site_fract_z
Si Si1 0.342038 0.845234 0.879868
Si Si2 0.162287 0.750000 0.876259
Si Si3 0.329185 0.952516 0.453579
Si Si4 0.658137 0.030300 0.691552
Si Si5 0.163947 0.250000 0.970252
Si Si6 0.158709 0.409527 0.192246
Si Si7 0.660876 0.348248 0.972509
O O1 0.500000 0.848271 0.853492
O O2 0.248885 0.799005 0.854885
O O3 0.250913 0.895090 0.867387
O O4 0.353967 0.837909 0.953617
O O5 0.000000 0.750000 0.855980
O O6 0.161029 0.750000 0.952976
O O7 0.500000 0.945486 0.458945
O O8 0.294804 0.962684 0.380268
O O9 0.245173 0.900992 0.467882
O O10 0.294180 0.000000 0.500000
O O11 0.500000 0.051277 0.696665
O O12 0.750000 0.049509 0.750000
O O13 0.650025 0.969601 0.699049
O O14 0.247302 0.199522 0.948779
O O15 0.000000 0.250000 0.950536
O O16 0.250000 0.389047 0.250000
O O17 0.000000 0.389543 0.188654
O O18 0.500000 0.351015 0.946891
#
# Coordination Sequence:
#
# PCOD9535523 Si02
#       7
#    16   8  16  16   8  16  16
#     4  10  19  31  46  66  93 123 156 197 246 297
#     4   9  17  29  46  66  87 118 158 197 243 296
#     4  10  20  34  52  77 109 142 178 219 263 312
#     4   9  19  34  52  73  99 134 172 210 251 302
#     4   9  17  31  51  72  97 132 171 207 248 306
#     4  10  19  32  49  67  88 119 161 204 246 293
#     4  10  20  32  49  75 105 134 166 209 258 305
#
# _framework density 17.945022000000002
#
# number of rings (size 3 to 8) (size 9 to 14) (size 15 to 20)
#    0.000    2.333    0.000    3.000    0.000    7.000 
#    0.000    0.417    0.000    0.000    0.000    0.583 
#    0.000    0.000    0.000    0.000    0.000    0.000 
#
# Total GULP energy -267202.705709 kJ/mol
# GULP energy per Si atom -5566.723036 kJ/mol
# Density = 1.790418 g / cm^3
# Si number density = 17.945022 Si / 1000 Ang^3
#
#
#
# Elastic Constant Matrix: (Units=GPa)
#
#
# Indices 1 2 3 4 5 6 
#
# 1 145.8622 63.4200 37.2434 0.0000 0.0000 0.0000
# 2 63.4200 91.9429 17.4385 0.0000 0.0000 0.0000
# 3 37.2434 17.4385 54.6328 0.0000 0.0000 0.0000
# 4 0.0000 0.0000 0.0000 15.2206 0.0000 0.0000
# 5 0.0000 0.0000 0.0000 0.0000 21.1559 0.0000
# 6 0.0000 0.0000 0.0000 0.0000 0.0000 16.8539
#
#
#
# Elastic Compliance Matrix: (Units=1/GPa)
#
#
# Indices 1 2 3 4 5 6 
#
# 1 0.011145 -0.006649 -0.005475 0.000000 0.000000 0.000000
# 2 -0.006649 0.015544 -0.000429 0.000000 0.000000 0.000000
# 3 -0.005475 -0.000429 0.022173 0.000000 0.000000 0.000000
# 4 0.000000 0.000000 0.000000 0.065700 0.000000 0.000000
# 5 0.000000 0.000000 0.000000 0.000000 0.047268 0.000000
# 6 0.000000 0.000000 0.000000 0.000000 0.000000 0.059333
#
#
# Mechanical properties :
#
#
# Convention : Reuss Voigt Hill
#
# Bulk Modulus (GPa) = 42.09452 58.73796 50.41624
# Shear Modulus (GPa) = 19.67047 22.26849 20.96948
#
# Velocity S-wave (km/s) = 3.31441 3.52650 3.42210
# Velocity P-wave (km/s) = 6.17701 7.02744 6.61590
#
# Compressibility (1/GPa) = 0.02375606
#
# Stress axis : x y z
#
# Youngs Moduli (GPa) = 89.72934 64.33389 45.09927
#
# Poissons Ratio (x) = 0.42775 0.24692
# Poissons Ratio (y) = 0.59660 0.01935
# Poissons Ratio (z) = 0.49127 0.02760
#
# Static dielectric constant tensor:
#      x y z
#    x 1.648050 0.000000 0.000000 
#    y 0.000000 1.625350 0.000000 
#    z 0.000000 0.000000 1.671340 
# 
# From -- ./inp_files/57365.got.cif
#   From: 2010.05.17/outbox.cif.g08.bks.cpg/sg74_29_cif.got.tgz:57365.got - 2010.06.03 17:57:02.
