data_PCOD9535789
_publ_section_title
;
Structure prediction by ZEFSAII (Michael W. Deem and Ramdas Pophale) SiO2 
 PCOD9535789
Probable space group: I M M A
;
_chemical_formula_sum "Si O2"
_cell_formula_units_Z 112
_cell_length_a 20.854374
_cell_length_b 9.268863
_cell_length_c 35.220498
_cell_angle_alpha 90.000000
_cell_angle_beta 90.000000
_cell_angle_gamma 90.000000
_cell_volume 6807.993200
_symmetry_space_group_name_H-M "I M M A"
_symmetry_group_IT_number 74
_symmetry_cell_setting 'orthorhombic'
loop_
_space_group_symop_operation_xyz
x,y,z
-x,1/2-y,z
x,-y,-z
-x,1/2+y,-z
-x,-y,-z
x,1/2+y,-z
-x,y,z
x,1/2-y,z
1/2+x,1/2+y,1/2+z
1/2-x,-y,1/2+z
1/2+x,1/2-y,1/2-z
1/2-x,y,1/2-z
1/2-x,1/2-y,1/2-z
1/2+x,y,1/2-z
1/2-x,1/2+y,1/2+z
1/2+x,-y,1/2+z
loop_
_atom_site_type_symbol
_atom_site_label
_atom_site_fract_x
_atom_site_fract_y
_atom_site_fract_z
Si Si1 0.426174 0.425499 0.108945
Si Si2 0.801002 0.074474 0.082016
Si Si3 0.173541 0.084079 0.759888
Si Si4 0.429800 0.077018 0.459588
Si Si5 0.292245 0.082602 0.332225
Si Si6 0.669420 0.425133 0.040522
Si Si7 0.359264 0.082643 0.186872
O O1 0.500000 0.470605 0.104733
O O2 0.424314 0.250000 0.109805
O O3 0.382205 0.466842 0.073026
O O4 0.397092 0.471788 0.149664
O O5 0.798496 0.250000 0.083515
O O6 0.868179 0.030402 0.063966
O O7 0.798369 0.023527 0.125317
O O8 0.739363 0.032404 0.057114
O O9 0.154669 0.250000 0.762922
O O10 0.250000 0.079414 0.750000
O O11 0.170061 0.002974 0.799944
O O12 0.136067 0.006951 0.725612
O O13 0.500000 0.046075 0.442229
O O14 0.425645 0.250000 0.464729
O O15 0.427460 0.000000 0.500000
O O16 0.312570 0.250000 0.331289
O O17 0.216266 0.080533 0.323400
O O18 0.667689 0.250000 0.036380
O O19 0.658110 0.500000 0.000000
O O20 0.377342 0.250000 0.193555
#
# Coordination Sequence:
#
# PCOD9535789 Si02
#       7
#    16  16  16  16  16  16  16
#     4   9  17  30  49  70  91 119 158 202 242 278
#     4   9  16  28  47  68  92 120 154 191 227 268
#     4   9  17  27  41  66  97 121 140 176 228 271
#     4   9  17  29  45  65  89 117 149 185 224 266
#     4   9  15  26  45  67  88 116 152 186 219 263
#     4  10  19  32  48  68  93 122 155 195 241 284
#     4   9  15  27  47  67  86 113 152 190 222 265
#
# _framework density 16.451250999999999
#
# number of rings (size 3 to 8) (size 9 to 14) (size 15 to 20)
#    0.000    2.857    1.429    0.857    0.000    2.000 
#    0.000    2.143    0.000    2.143    0.000    4.000 
#    0.000    0.000    0.000    0.000    0.000    0.000 
#
# Total GULP energy -311778.495233 kJ/mol
# GULP energy per Si atom -5567.473129 kJ/mol
# Density = 1.641381 g / cm^3
# Si number density = 16.451251 Si / 1000 Ang^3
#
#
#
# Elastic Constant Matrix: (Units=GPa)
#
#
# Indices 1 2 3 4 5 6 
#
# 1 87.3707 25.7789 59.1544 0.0000 0.0000 0.0000
# 2 25.7789 33.7823 40.6339 0.0000 0.0000 0.0000
# 3 59.1544 40.6339 132.7323 0.0000 0.0000 0.0000
# 4 0.0000 0.0000 0.0000 22.0584 0.0000 0.0000
# 5 0.0000 0.0000 0.0000 0.0000 15.2607 0.0000
# 6 0.0000 0.0000 0.0000 0.0000 0.0000 4.1599
#
#
#
# Elastic Compliance Matrix: (Units=1/GPa)
#
#
# Indices 1 2 3 4 5 6 
#
# 1 0.017167 -0.006169 -0.005762 0.000000 0.000000 0.000000
# 2 -0.006169 0.049071 -0.012273 0.000000 0.000000 0.000000
# 3 -0.005762 -0.012273 0.013859 0.000000 0.000000 0.000000
# 4 0.000000 0.000000 0.000000 0.045334 0.000000 0.000000
# 5 0.000000 0.000000 0.000000 0.000000 0.065528 0.000000
# 6 0.000000 0.000000 0.000000 0.000000 0.000000 0.240391
#
#
# Mechanical properties :
#
#
# Convention : Reuss Voigt Hill
#
# Bulk Modulus (GPa) = 31.55702 56.11329 43.83515
# Shear Modulus (GPa) = 10.19740 16.85036 13.52388
#
# Velocity S-wave (km/s) = 2.49239 3.20388 2.87027
# Velocity P-wave (km/s) = 5.24466 6.91877 6.13905
#
# Compressibility (1/GPa) = 0.03168867
#
# Stress axis : x y z
#
# Youngs Moduli (GPa) = 58.25145 20.37865 72.15453
#
# Poissons Ratio (x) = 0.12572 0.41577
# Poissons Ratio (y) = 0.35936 0.88555
# Poissons Ratio (z) = 0.33566 0.25011
#
# Static dielectric constant tensor:
#      x y z
#    x 1.554000 0.000000 0.000000 
#    y 0.000000 1.552080 0.000000 
#    z 0.000000 0.000000 1.546550 
# 
# From -- ./inp_files/68393.got.cif
#   From: 2010.05.17/outbox.cif.g08.bks.cpg/sg74_35_cif.got.tgz:68393.got - 2010.06.03 17:57:02.
