data_PCOD9535290
_publ_section_title
;
Structure prediction by ZEFSAII (Michael W. Deem and Ramdas Pophale) SiO2 
 PCOD9535290
Probable space group: I M M A
;
_chemical_formula_sum "Si O2"
_cell_formula_units_Z 96
_cell_length_a 13.435422
_cell_length_b 16.309001
_cell_length_c 25.214143
_cell_angle_alpha 90.000000
_cell_angle_beta 90.000000
_cell_angle_gamma 90.000000
_cell_volume 5524.880423
_symmetry_space_group_name_H-M "I M M A"
_symmetry_group_IT_number 74
_symmetry_cell_setting 'orthorhombic'
loop_
_space_group_symop_operation_xyz
x,y,z
-x,1/2-y,z
x,-y,-z
-x,1/2+y,-z
-x,-y,-z
x,1/2+y,-z
-x,y,z
x,1/2-y,z
1/2+x,1/2+y,1/2+z
1/2-x,-y,1/2+z
1/2+x,1/2-y,1/2-z
1/2-x,y,1/2-z
1/2-x,1/2-y,1/2-z
1/2+x,y,1/2-z
1/2-x,1/2+y,1/2+z
1/2+x,-y,1/2+z
loop_
_atom_site_type_symbol
_atom_site_label
_atom_site_fract_x
_atom_site_fract_y
_atom_site_fract_z
Si Si1 0.881946 0.342159 0.513224
Si Si2 0.500000 0.153064 0.716426
Si Si3 0.670781 0.444509 0.894211
Si Si4 0.293736 0.339785 0.309102
Si Si5 0.000000 0.340938 0.657345
Si Si6 0.677427 0.024670 0.697433
Si Si7 0.613315 0.870464 0.890684
O O1 0.863182 0.250000 0.532690
O O2 0.819527 0.406957 0.547194
O O3 0.864150 0.341880 0.450351
O O4 0.000000 0.361546 0.520190
O O5 0.500000 0.250000 0.697149
O O6 0.500000 0.159294 0.779750
O O7 0.593996 0.094686 0.702750
O O8 0.597236 0.384632 0.863583
O O9 0.765383 0.455018 0.856954
O O10 0.617592 0.531800 0.895419
O O11 0.342935 0.250000 0.319234
O O12 0.250000 0.336482 0.250000
O O13 0.351759 0.427543 0.309307
O O14 0.199360 0.346376 0.349361
O O15 0.000000 0.250000 0.636448
O O16 0.750000 0.028350 0.750000
O O17 0.500000 0.845597 0.875956
#
# Coordination Sequence:
#
# PCOD9535290 Si02
#       7
#    16   8  16  16   8  16  16
#     4  10  19  29  44  72 109 142 178 218 259 320
#     4  11  24  38  55  78 107 143 184 228 276 324
#     4  11  19  31  50  74 105 146 182 217 261 319
#     4   9  19  35  53  76 107 142 180 222 262 318
#     4  11  20  30  49  74 104 141 180 218 260 315
#     4  10  21  37  55  77 109 141 180 227 271 324
#     4  10  19  31  51  76 110 146 178 217 271 323
#
# _framework density 17.375941000000001
#
# number of rings (size 3 to 8) (size 9 to 14) (size 15 to 20)
#    0.000    1.833    3.333    1.500    0.000    4.000 
#    0.000    0.417    0.000    0.000    0.000    9.333 
#    0.000    0.000    0.000    0.000    0.000    0.000 
#
# Total GULP energy -267224.845690 kJ/mol
# GULP energy per Si atom -5567.184285 kJ/mol
# Density = 1.733639 g / cm^3
# Si number density = 17.375941 Si / 1000 Ang^3
#
#
#
# Elastic Constant Matrix: (Units=GPa)
#
#
# Indices 1 2 3 4 5 6 
#
# 1 36.9341 39.6209 17.2285 0.0000 0.0000 0.0000
# 2 39.6209 172.4709 25.6654 0.0000 0.0000 0.0000
# 3 17.2285 25.6654 86.2089 0.0000 0.0000 0.0000
# 4 0.0000 0.0000 0.0000 -17.1073 0.0000 0.0000
# 5 0.0000 0.0000 0.0000 0.0000 -11.0149 0.0000
# 6 0.0000 0.0000 0.0000 0.0000 0.0000 -3.8612
#
#
#
# Elastic Compliance Matrix: (Units=1/GPa)
#
#
# Indices 1 2 3 4 5 6 
#
# 1 0.038061 -0.007965 -0.005235 0.000000 0.000000 0.000000
# 2 -0.007965 0.007733 -0.000711 0.000000 0.000000 0.000000
# 3 -0.005235 -0.000711 0.012858 0.000000 0.000000 0.000000
# 4 0.000000 0.000000 0.000000 -0.058455 0.000000 0.000000
# 5 0.000000 0.000000 0.000000 0.000000 -0.090786 0.000000
# 6 0.000000 0.000000 0.000000 0.000000 0.000000 -0.258988
#
#
# Mechanical properties :
#
#
# Convention : Reuss Voigt Hill
#
# Bulk Modulus (GPa) = 32.43453 51.18262 41.80857
# Shear Modulus (GPa) = -16.05249 7.80993 -4.12128
#
# Velocity S-wave (km/s) = -3.04276 2.12237 -1.54175
# Velocity P-wave (km/s) = 2.52237 5.96036 4.57647
#
# Compressibility (1/GPa) = 0.03083134
#
# Stress axis : x y z
#
# Youngs Moduli (GPa) = 26.27341 129.30765 77.77531
#
# Poissons Ratio (x) = 1.02988 0.40717
# Poissons Ratio (y) = 0.20926 0.05527
# Poissons Ratio (z) = 0.13755 0.09189
#
# Static dielectric constant tensor:
#      x y z
#    x 1.596340 0.000000 0.000000 
#    y 0.000000 1.666360 0.000000 
#    z 0.000000 0.000000 1.604890 
# 
# From -- ./inp_files/67126.got.cif
#   From: 2010.05.17/outbox.cif.g08.bks.cpg/sg74_34_cif.got.tgz:67126.got - 2010.06.03 17:57:02.
