data_PCOD9535669
_publ_section_title
;
Structure prediction by ZEFSAII (Michael W. Deem and Ramdas Pophale) SiO2 
 PCOD9535669
Probable space group: I M M A
;
_chemical_formula_sum "Si O2"
_cell_formula_units_Z 80
_cell_length_a 17.427789
_cell_length_b 29.946737
_cell_length_c 8.423240
_cell_angle_alpha 90.000000
_cell_angle_beta 90.000000
_cell_angle_gamma 90.000000
_cell_volume 4396.134557
_symmetry_space_group_name_H-M "I M M A"
_symmetry_group_IT_number 74
_symmetry_cell_setting 'orthorhombic'
loop_
_space_group_symop_operation_xyz
x,y,z
-x,1/2-y,z
x,-y,-z
-x,1/2+y,-z
-x,-y,-z
x,1/2+y,-z
-x,y,z
x,1/2-y,z
1/2+x,1/2+y,1/2+z
1/2-x,-y,1/2+z
1/2+x,1/2-y,1/2-z
1/2-x,y,1/2-z
1/2-x,1/2-y,1/2-z
1/2+x,y,1/2-z
1/2-x,1/2+y,1/2+z
1/2+x,-y,1/2+z
loop_
_atom_site_type_symbol
_atom_site_label
_atom_site_fract_x
_atom_site_fract_y
_atom_site_fract_z
Si Si1 0.908972 0.392583 0.926266
Si Si2 0.181527 0.621908 0.372172
Si Si3 0.773515 0.050060 0.065915
Si Si4 0.178929 0.801260 0.629291
Si Si5 0.590158 0.701686 0.565581
O O1 0.888850 0.392822 0.739443
O O2 0.000000 0.398272 0.954473
O O3 0.855593 0.427230 0.022226
O O4 0.882513 0.343064 0.982053
O O5 0.250000 0.632975 0.250000
O O6 0.211682 0.580184 0.473387
O O7 0.170363 0.663454 0.489550
O O8 0.750000 0.050823 0.250000
O O9 0.773405 0.000000 0.000000
O O10 0.188417 0.750000 0.574139
O O11 0.250000 0.811540 0.750000
O O12 0.106889 0.802840 0.748038
O O13 0.500000 0.703402 0.535430
O O14 0.623911 0.750000 0.515757
#
# Coordination Sequence:
#
# PCOD9535669 Si02
#       5
#    16  16  16  16  16
#     4  10  21  36  56  83 113 143 179 226 272 317
#     4  10  20  34  52  77 108 141 179 218 266 326
#     4  11  22  40  63  82 105 140 179 219 270 332
#     4  10  19  31  50  76 106 141 184 230 266 305
#     4   9  18  33  51  72 103 143 180 213 259 316
#
# _framework density 18.197806
#
# number of rings (size 3 to 8) (size 9 to 14) (size 15 to 20)
#    0.000    2.000    0.000    6.000    0.000    2.400 
#    0.000    1.000    0.000    2.400    0.000    0.000 
#    0.000    0.000    0.000    0.000    0.000    0.000 
#
# Total GULP energy -222992.313364 kJ/mol
# GULP energy per Si atom -5574.807834 kJ/mol
# Density = 1.815639 g / cm^3
# Si number density = 18.197806 Si / 1000 Ang^3
#
#
#
# Elastic Constant Matrix: (Units=GPa)
#
#
# Indices 1 2 3 4 5 6 
#
# 1 53.9474 51.0767 40.9444 -0.0014 0.0011 0.0016
# 2 51.0767 155.5570 83.6008 0.0031 -0.0015 -0.0028
# 3 40.9444 83.6008 119.9562 0.0126 -0.0081 -0.0169
# 4 -0.0014 0.0031 0.0126 36.5982 -0.0014 -0.0045
# 5 0.0011 -0.0015 -0.0081 -0.0014 18.0330 0.0012
# 6 0.0016 -0.0028 -0.0169 -0.0045 0.0012 -8.5982
#
#
#
# Elastic Compliance Matrix: (Units=1/GPa)
#
#
# Indices 1 2 3 4 5 6 
#
# 1 0.028778 -0.006667 -0.005176 0.000003 -0.000005 0.000018
# 2 -0.006667 0.011823 -0.005964 0.000001 -0.000001 0.000007
# 3 -0.005176 -0.005964 0.014260 -0.000005 0.000006 -0.000027
# 4 0.000003 0.000001 -0.000005 0.027324 0.000002 -0.000014
# 5 -0.000005 -0.000001 0.000006 0.000002 0.055454 0.000008
# 6 0.000018 0.000007 -0.000027 -0.000014 0.000008 -0.116304
#
#
# Mechanical properties :
#
#
# Convention : Reuss Voigt Hill
#
# Bulk Modulus (GPa) = 51.96023 75.63383 63.79703
# Shear Modulus (GPa) = 78.91000 19.46251 49.18626
#
# Velocity S-wave (km/s) = 6.59216 3.27387 5.20455
# Velocity P-wave (km/s) = 9.30360 7.47952 8.44098
#
# Compressibility (1/GPa) = 0.01924549
#
# Stress axis : x y z
#
# Youngs Moduli (GPa) = 34.74936 84.58145 70.12862
#
# Poissons Ratio (x) = 0.56393 0.36298
# Poissons Ratio (y) = 0.23169 0.41824
# Poissons Ratio (z) = 0.17986 0.50444
#
# Static dielectric constant tensor:
#      x y z
#    x 1.662930 0.000000 0.000000 
#    y 0.000000 1.639680 0.000000 
#    z 0.000000 0.000000 1.626030 
# 
# From -- ./inp_files/10944.got.cif
#   From: 2010.05.17/outbox.cif.g08.bks.cpg/sg74_6_cif.got.tgz:10944.got - 2010.06.03 17:57:02.
