data_PCOD9535116
_publ_section_title
;
Structure prediction by ZEFSAII (Michael W. Deem and Ramdas Pophale) SiO2 
 PCOD9535116
Probable space group: I M M A
;
_chemical_formula_sum "Si O2"
_cell_formula_units_Z 72
_cell_length_a 7.679128
_cell_length_b 23.610971
_cell_length_c 19.511828
_cell_angle_alpha 90.000000
_cell_angle_beta 90.000000
_cell_angle_gamma 90.000000
_cell_volume 3537.722090
_symmetry_space_group_name_H-M "I M M A"
_symmetry_group_IT_number 74
_symmetry_cell_setting 'orthorhombic'
loop_
_space_group_symop_operation_xyz
x,y,z
-x,1/2-y,z
x,-y,-z
-x,1/2+y,-z
-x,-y,-z
x,1/2+y,-z
-x,y,z
x,1/2-y,z
1/2+x,1/2+y,1/2+z
1/2-x,-y,1/2+z
1/2+x,1/2-y,1/2-z
1/2-x,y,1/2-z
1/2-x,1/2-y,1/2-z
1/2+x,y,1/2-z
1/2-x,1/2+y,1/2+z
1/2+x,-y,1/2+z
loop_
_atom_site_type_symbol
_atom_site_label
_atom_site_fract_x
_atom_site_fract_y
_atom_site_fract_z
Si Si1 0.790907 0.917918 0.329834
Si Si2 0.212797 0.979700 0.576389
Si Si3 0.293330 0.147418 0.072273
Si Si4 0.295144 0.250000 0.329917
Si Si5 0.786563 0.313739 0.577838
O O1 0.750000 0.917527 0.250000
O O2 0.727909 0.861851 0.369410
O O3 0.000000 0.917938 0.336934
O O4 0.726111 0.974213 0.368569
O O5 0.274419 0.915481 0.588301
O O6 0.000000 0.979650 0.578733
O O7 0.260630 0.000000 0.500000
O O8 0.500000 0.140849 0.062824
O O9 0.268642 0.194024 0.130689
O O10 0.227548 0.170119 0.999006
O O11 0.500000 0.250000 0.336518
O O12 0.250000 0.250000 0.250000
O O13 0.731105 0.250000 0.594928
O O14 0.000000 0.313682 0.577630
#
# Coordination Sequence:
#
# PCOD9535116 Si02
#       5
#    16  16  16   8  16
#     4  10  20  34  52  79 114 146 181 226 274 324
#     4   9  16  30  57  87 109 141 189 232 270 328
#     4  10  18  34  62  88 108 140 189 236 276 328
#     4  12  26  42  58  82 117 150 183 230 289 342
#     4   9  16  29  55  83 105 139 187 227 265 321
#
# _framework density 20.352079
#
# number of rings (size 3 to 8) (size 9 to 14) (size 15 to 20)
#    0.000    2.222    3.333    1.000    0.000    1.333 
#    0.000    4.444    0.000    1.333    0.000    0.000 
#    0.000    0.000    0.000    0.000    0.000    0.000 
#
# Total GULP energy -201004.984148 kJ/mol
# GULP energy per Si atom -5583.471782 kJ/mol
# Density = 2.030576 g / cm^3
# Si number density = 20.352079 Si / 1000 Ang^3
#
#
#
# Elastic Constant Matrix: (Units=GPa)
#
#
# Indices 1 2 3 4 5 6 
#
# 1 29.2412 3.2424 -10.5738 0.0000 0.0000 0.0000
# 2 3.2424 252.7060 124.7641 0.0000 0.0000 0.0000
# 3 -10.5738 124.7641 182.1974 0.0000 0.0000 0.0000
# 4 0.0000 0.0000 0.0000 44.0091 0.0000 0.0000
# 5 0.0000 0.0000 0.0000 0.0000 22.7658 0.0000
# 6 0.0000 0.0000 0.0000 0.0000 0.0000 -8.9562
#
#
#
# Elastic Compliance Matrix: (Units=1/GPa)
#
#
# Indices 1 2 3 4 5 6 
#
# 1 0.035752 -0.002241 0.003609 0.000000 0.000000 0.000000
# 2 -0.002241 0.006119 -0.004320 0.000000 0.000000 0.000000
# 3 0.003609 -0.004320 0.008656 0.000000 0.000000 0.000000
# 4 0.000000 0.000000 0.000000 0.022723 0.000000 0.000000
# 5 0.000000 0.000000 0.000000 0.000000 0.043926 0.000000
# 6 0.000000 0.000000 0.000000 0.000000 0.000000 -0.111655
#
#
# Mechanical properties :
#
#
# Convention : Reuss Voigt Hill
#
# Bulk Modulus (GPa) = 22.40949 77.66779 50.03864
# Shear Modulus (GPa) = 190.12929 34.67788 112.40359
#
# Velocity S-wave (km/s) = 9.67589 4.13231 7.43972
# Velocity P-wave (km/s) = 11.65613 7.81108 9.92165
#
# Compressibility (1/GPa) = 0.04462395
#
# Stress axis : x y z
#
# Youngs Moduli (GPa) = 27.97058 163.43202 115.52372
#
# Poissons Ratio (x) = 0.36619 -0.41694
# Poissons Ratio (y) = 0.06267 0.49906
# Poissons Ratio (z) = -0.10095 0.70603
#
# Static dielectric constant tensor:
#      x y z
#    x 1.764000 0.000000 0.000000 
#    y 0.000000 1.650150 0.000000 
#    z 0.000000 0.000000 1.656650 
# 
# From -- ./inp_files/39479.got.cif
#   From: 2010.05.17/outbox.cif.g08.bks.cpg/sg74_20_cif.got.tgz:39479.got - 2010.06.03 17:57:02.
