data_PCOD9535544
_publ_section_title
;
Structure prediction by ZEFSAII (Michael W. Deem and Ramdas Pophale) SiO2 
 PCOD9535544
Probable space group: I M M A
;
_chemical_formula_sum "Si O2"
_cell_formula_units_Z 88
_cell_length_a 7.696290
_cell_length_b 21.192569
_cell_length_c 27.312761
_cell_angle_alpha 90.000000
_cell_angle_beta 90.000000
_cell_angle_gamma 90.000000
_cell_volume 4454.824855
_symmetry_space_group_name_H-M "I M M A"
_symmetry_group_IT_number 74
_symmetry_cell_setting 'orthorhombic'
loop_
_space_group_symop_operation_xyz
x,y,z
-x,1/2-y,z
x,-y,-z
-x,1/2+y,-z
-x,-y,-z
x,1/2+y,-z
-x,y,z
x,1/2-y,z
1/2+x,1/2+y,1/2+z
1/2-x,-y,1/2+z
1/2+x,1/2-y,1/2-z
1/2-x,y,1/2-z
1/2-x,1/2-y,1/2-z
1/2+x,y,1/2-z
1/2-x,1/2+y,1/2+z
1/2+x,-y,1/2+z
loop_
_atom_site_type_symbol
_atom_site_label
_atom_site_fract_x
_atom_site_fract_y
_atom_site_fract_z
Si Si1 0.211966 0.750000 0.040998
Si Si2 0.705360 0.387078 0.069855
Si Si3 0.791604 0.750000 0.307905
Si Si4 0.790137 0.112898 0.692611
Si Si5 0.792700 0.750000 0.926979
Si Si6 0.297235 0.886915 0.456286
Si Si7 0.199804 0.511192 0.382007
O O1 0.271236 0.817809 0.060337
O O2 0.000000 0.750000 0.042639
O O3 0.264958 0.750000 0.983920
O O4 0.500000 0.397126 0.063171
O O5 0.732204 0.317587 0.092477
O O6 0.777215 0.444029 0.102759
O O7 0.783957 0.389235 0.015191
O O8 0.750000 0.750000 0.250000
O O9 0.723816 0.818105 0.325055
O O10 0.000000 0.750000 0.314492
O O11 0.750000 0.105977 0.750000
O O12 0.721601 0.054952 0.660480
O O13 0.000000 0.114220 0.687367
O O14 0.000000 0.750000 0.926362
O O15 0.500000 0.891383 0.443387
O O16 0.203627 0.944163 0.429859
O O17 0.000000 0.498854 0.367675
#
# Coordination Sequence:
#
# PCOD9535544 Si02
#       7
#     8  16   8  16   8  16  16
#     4   7  14  28  42  60  88 121 156 195 233 265
#     4  10  19  32  49  69  96 129 159 190 236 289
#     4   8  14  27  48  68  88 118 155 193 232 269
#     4   9  18  33  50  69  93 122 158 200 241 282
#     4   9  17  31  50  70  92 119 157 200 233 274
#     4  10  19  31  47  67  95 130 167 204 237 273
#     4  10  21  33  46  69  99 127 158 196 240 292
#
# _framework density 19.753862999999999
#
# number of rings (size 3 to 8) (size 9 to 14) (size 15 to 20)
#    0.000    2.727    0.000    3.000    0.000    5.091 
#    0.000    2.273    0.000    3.273    0.000    0.636 
#    0.000    0.000    0.000    0.000    0.000    0.000 
#
# Total GULP energy -245286.708406 kJ/mol
# GULP energy per Si atom -5574.697918 kJ/mol
# Density = 1.970890 g / cm^3
# Si number density = 19.753863 Si / 1000 Ang^3
#
#
#
# Elastic Constant Matrix: (Units=GPa)
#
#
# Indices 1 2 3 4 5 6 
#
# 1 43.2675 -4.1688 -4.4676 0.0000 0.0000 0.0000
# 2 -4.1688 194.2196 62.6400 0.0000 0.0000 0.0000
# 3 -4.4676 62.6400 67.8955 0.0000 0.0000 0.0000
# 4 0.0000 0.0000 0.0000 86.6401 0.0000 0.0000
# 5 0.0000 0.0000 0.0000 0.0000 11.9109 0.0000
# 6 0.0000 0.0000 0.0000 0.0000 0.0000 41.5226
#
#
#
# Elastic Compliance Matrix: (Units=1/GPa)
#
#
# Indices 1 2 3 4 5 6 
#
# 1 0.023270 0.000008 0.001524 0.000000 0.000000 0.000000
# 2 0.000008 0.007330 -0.006762 0.000000 0.000000 0.000000
# 3 0.001524 -0.006762 0.021067 0.000000 0.000000 0.000000
# 4 0.000000 0.000000 0.000000 0.011542 0.000000 0.000000
# 5 0.000000 0.000000 0.000000 0.000000 0.083957 0.000000
# 6 0.000000 0.000000 0.000000 0.000000 0.000000 0.024083
#
#
# Mechanical properties :
#
#
# Convention : Reuss Voigt Hill
#
# Bulk Modulus (GPa) = 24.26768 45.93220 35.09994
# Shear Modulus (GPa) = 25.58257 44.77331 35.17794
#
# Velocity S-wave (km/s) = 3.60261 4.76600 4.22455
# Velocity P-wave (km/s) = 5.44213 7.32046 6.45003
#
# Compressibility (1/GPa) = 0.04120706
#
# Stress axis : x y z
#
# Youngs Moduli (GPa) = 42.97347 136.42824 47.46688
#
# Poissons Ratio (x) = -0.00110 -0.07233
# Poissons Ratio (y) = -0.00035 0.32097
# Poissons Ratio (z) = -0.06548 0.92252
#
# Static dielectric constant tensor:
#      x y z
#    x 1.761090 0.000000 0.000000 
#    y 0.000000 1.769060 0.000000 
#    z 0.000000 0.000000 1.672250 
# 
# From -- ./inp_files/70323.got.cif
#   From: 2010.05.17/outbox.cif.g08.bks.cpg/sg74_36_cif.got.tgz:70323.got - 2010.06.03 17:57:02.
