data_PCOD9535424
_publ_section_title
;
Structure prediction by ZEFSAII (Michael W. Deem and Ramdas Pophale) SiO2 
 PCOD9535424
Probable space group: I M M A
;
_chemical_formula_sum "Si O2"
_cell_formula_units_Z 80
_cell_length_a 28.196553
_cell_length_b 7.822388
_cell_length_c 18.374046
_cell_angle_alpha 90.000000
_cell_angle_beta 90.000000
_cell_angle_gamma 90.000000
_cell_volume 4052.660024
_symmetry_space_group_name_H-M "I M M A"
_symmetry_group_IT_number 74
_symmetry_cell_setting 'orthorhombic'
loop_
_space_group_symop_operation_xyz
x,y,z
-x,1/2-y,z
x,-y,-z
-x,1/2+y,-z
-x,-y,-z
x,1/2+y,-z
-x,y,z
x,1/2-y,z
1/2+x,1/2+y,1/2+z
1/2-x,-y,1/2+z
1/2+x,1/2-y,1/2-z
1/2-x,y,1/2-z
1/2-x,1/2-y,1/2-z
1/2+x,y,1/2-z
1/2-x,1/2+y,1/2+z
1/2+x,-y,1/2+z
loop_
_atom_site_type_symbol
_atom_site_label
_atom_site_fract_x
_atom_site_fract_y
_atom_site_fract_z
Si Si1 0.712869 0.044488 0.419841
Si Si2 0.448761 0.449296 0.236808
Si Si3 0.816926 0.042963 0.378387
Si Si4 0.920829 0.054250 0.580027
Si Si5 0.152919 0.958756 0.782392
O O1 0.714749 0.250000 0.413377
O O2 0.767055 0.982662 0.410316
O O3 0.680075 0.981099 0.353972
O O4 0.695217 0.000000 0.500000
O O5 0.500000 0.526861 0.254444
O O6 0.450175 0.250000 0.257656
O O7 0.441014 0.455625 0.149590
O O8 0.401039 0.522582 0.272608
O O9 0.820099 0.250000 0.384857
O O10 0.820018 0.999666 0.292593
O O11 0.863790 0.968050 0.415353
O O12 0.933435 0.250000 0.591591
O O13 0.936808 0.000000 0.500000
O O14 0.151352 0.750000 0.784714
#
# Coordination Sequence:
#
# PCOD9535424 Si02
#       5
#    16  16  16  16  16
#     4  10  19  30  47  71  99 129 159 194 236 281
#     4   9  18  34  55  74  90 115 157 205 246 283
#     4   9  17  31  50  70  94 127 166 200 230 271
#     4  11  21  32  47  69 100 133 161 192 231 277
#     4   8  15  30  51  72  93 121 158 197 237 282
#
# _framework density 19.740120999999998
#
# number of rings (size 3 to 8) (size 9 to 14) (size 15 to 20)
#    0.000    2.600    0.000    4.200    0.000    5.600 
#    0.000    4.000    0.000    6.600    0.000    0.000 
#    0.000    0.000    0.000    0.000    0.000    0.000 
#
# Total GULP energy -223225.528303 kJ/mol
# GULP energy per Si atom -5580.638208 kJ/mol
# Density = 1.969519 g / cm^3
# Si number density = 19.740121 Si / 1000 Ang^3
#
#
#
# Elastic Constant Matrix: (Units=GPa)
#
#
# Indices 1 2 3 4 5 6 
#
# 1 81.9700 -3.8991 25.5961 0.0000 0.0000 0.0000
# 2 -3.8991 30.0101 -5.5795 0.0000 0.0000 0.0000
# 3 25.5961 -5.5795 78.5477 0.0000 0.0000 0.0000
# 4 0.0000 0.0000 0.0000 18.8990 0.0000 0.0000
# 5 0.0000 0.0000 0.0000 0.0000 -8.2753 0.0000
# 6 0.0000 0.0000 0.0000 0.0000 0.0000 7.7580
#
#
#
# Elastic Compliance Matrix: (Units=1/GPa)
#
#
# Indices 1 2 3 4 5 6 
#
# 1 0.013609 0.000956 -0.004367 0.000000 0.000000 0.000000
# 2 0.000956 0.033835 0.002092 0.000000 0.000000 0.000000
# 3 -0.004367 0.002092 0.014303 0.000000 0.000000 0.000000
# 4 0.000000 0.000000 0.000000 0.052913 0.000000 0.000000
# 5 0.000000 0.000000 0.000000 0.000000 -0.120841 0.000000
# 6 0.000000 0.000000 0.000000 0.000000 0.000000 0.128900
#
#
# Mechanical properties :
#
#
# Convention : Reuss Voigt Hill
#
# Bulk Modulus (GPa) = 16.91781 24.75143 20.83462
# Shear Modulus (GPa) = 34.46887 15.30369 24.88628
#
# Velocity S-wave (km/s) = 4.18321 2.78737 3.55448
# Velocity P-wave (km/s) = 5.64988 4.78801 5.23671
#
# Compressibility (1/GPa) = 0.05910930
#
# Stress axis : x y z
#
# Youngs Moduli (GPa) = 73.48285 29.55500 69.91705
#
# Poissons Ratio (x) = -0.02826 0.30531
# Poissons Ratio (y) = -0.07027 -0.14625
# Poissons Ratio (z) = 0.32088 -0.06182
#
# Static dielectric constant tensor:
#      x y z
#    x 1.727940 0.000000 0.000000 
#    y 0.000000 1.730030 0.000000 
#    z 0.000000 0.000000 1.671100 
# 
# From -- ./inp_files/39707.got.cif
#   From: 2010.05.17/outbox.cif.g08.bks.cpg/sg74_20_cif.got.tgz:39707.got - 2010.06.03 17:57:02.
