data_PCOD9535879
_publ_section_title
;
Structure prediction by ZEFSAII (Michael W. Deem and Ramdas Pophale) SiO2 
 PCOD9535879
Probable space group: I M M A
;
_chemical_formula_sum "Si O2"
_cell_formula_units_Z 72
_cell_length_a 32.934554
_cell_length_b 8.924855
_cell_length_c 13.501279
_cell_angle_alpha 90.000000
_cell_angle_beta 90.000000
_cell_angle_gamma 90.000000
_cell_volume 3968.513550
_symmetry_space_group_name_H-M "I M M A"
_symmetry_group_IT_number 74
_symmetry_cell_setting 'orthorhombic'
loop_
_space_group_symop_operation_xyz
x,y,z
-x,1/2-y,z
x,-y,-z
-x,1/2+y,-z
-x,-y,-z
x,1/2+y,-z
-x,y,z
x,1/2-y,z
1/2+x,1/2+y,1/2+z
1/2-x,-y,1/2+z
1/2+x,1/2-y,1/2-z
1/2-x,y,1/2-z
1/2-x,1/2-y,1/2-z
1/2+x,y,1/2-z
1/2-x,1/2+y,1/2+z
1/2+x,-y,1/2+z
loop_
_atom_site_type_symbol
_atom_site_label
_atom_site_fract_x
_atom_site_fract_y
_atom_site_fract_z
Si Si1 0.793333 0.921785 0.285133
Si Si2 0.348600 0.580211 0.408579
Si Si3 0.000000 0.929599 0.111202
Si Si4 0.580012 0.428734 0.298222
Si Si5 0.133602 0.429126 0.394397
O O1 0.786924 0.750000 0.321190
O O2 0.750000 0.985019 0.250000
O O3 0.819744 0.915307 0.185568
O O4 0.822031 0.010839 0.360673
O O5 0.327318 0.500000 0.500000
O O6 0.360880 0.750000 0.432250
O O7 0.387015 0.480133 0.379092
O O8 0.000000 0.750000 0.102655
O O9 0.039095 0.986740 0.172301
O O10 0.000000 0.000000 0.000000
O O11 0.573838 0.250000 0.300728
O O12 0.600899 0.468212 0.192163
O O13 0.122892 0.500000 0.500000
O O14 0.134800 0.250000 0.401293
#
# Coordination Sequence:
#
# PCOD9535879 Si02
#       5
#    16  16   8  16  16
#     4   9  19  35  53  76 107 141 180 226 272 319
#     4  10  19  32  51  74 103 138 174 214 262 317
#     4  12  24  38  59  86 115 146 177 216 268 324
#     4  10  21  38  57  80 109 140 178 221 265 317
#     4  10  21  37  59  82 108 145 186 229 275 325
#
# _framework density 18.142813
#
# number of rings (size 3 to 8) (size 9 to 14) (size 15 to 20)
#    0.000    2.000    0.000    3.667    0.000    4.889 
#    0.000    2.778    0.000    0.000    0.000    0.000 
#    0.000    0.000    0.000    0.000    0.000    0.000 
#
# Total GULP energy -200780.102412 kJ/mol
# GULP energy per Si atom -5577.225067 kJ/mol
# Density = 1.810152 g / cm^3
# Si number density = 18.142813 Si / 1000 Ang^3
#
#
#
# Elastic Constant Matrix: (Units=GPa)
#
#
# Indices 1 2 3 4 5 6 
#
# 1 108.2101 43.2477 23.8225 0.0000 0.0000 0.0000
# 2 43.2477 96.5647 56.5474 0.0000 0.0000 0.0000
# 3 23.8225 56.5474 100.2393 0.0000 0.0000 0.0000
# 4 0.0000 0.0000 0.0000 29.9601 0.0000 0.0000
# 5 0.0000 0.0000 0.0000 0.0000 9.7631 0.0000
# 6 0.0000 0.0000 0.0000 0.0000 0.0000 27.5402
#
#
#
# Elastic Compliance Matrix: (Units=1/GPa)
#
#
# Indices 1 2 3 4 5 6 
#
# 1 0.011260 -0.005191 0.000252 0.000000 0.000000 0.000000
# 2 -0.005191 0.017857 -0.008840 0.000000 0.000000 0.000000
# 3 0.000252 -0.008840 0.014903 0.000000 0.000000 0.000000
# 4 0.000000 0.000000 0.000000 0.033378 0.000000 0.000000
# 5 0.000000 0.000000 0.000000 0.000000 0.102426 0.000000
# 6 0.000000 0.000000 0.000000 0.000000 0.000000 0.036311
#
#
# Mechanical properties :
#
#
# Convention : Reuss Voigt Hill
#
# Bulk Modulus (GPa) = 60.74123 61.36103 61.05113
# Shear Modulus (GPa) = 20.06581 25.54578 22.80580
#
# Velocity S-wave (km/s) = 3.32925 3.75645 3.54929
# Velocity P-wave (km/s) = 6.95203 7.26011 7.10774
#
# Compressibility (1/GPa) = 0.01646328
#
# Stress axis : x y z
#
# Youngs Moduli (GPa) = 88.80741 56.00006 67.10026
#
# Poissons Ratio (x) = 0.29068 -0.01692
# Poissons Ratio (y) = 0.46097 0.59317
# Poissons Ratio (z) = -0.02239 0.49504
#
# Static dielectric constant tensor:
#      x y z
#    x 1.622580 0.000000 0.000000 
#    y 0.000000 1.628510 0.000000 
#    z 0.000000 0.000000 1.623200 
# 
# From -- ./inp_files/37650.got.cif
#   From: 2010.05.17/outbox.cif.g08.bks.cpg/sg74_19_cif.got.tgz:37650.got - 2010.06.03 17:57:02.
