data_PCOD9535329
_publ_section_title
;
Structure prediction by ZEFSAII (Michael W. Deem and Ramdas Pophale) SiO2 
 PCOD9535329
Probable space group: I M M A
;
_chemical_formula_sum "Si O2"
_cell_formula_units_Z 104
_cell_length_a 25.420503
_cell_length_b 8.877928
_cell_length_c 28.571971
_cell_angle_alpha 90.000000
_cell_angle_beta 90.000000
_cell_angle_gamma 90.000000
_cell_volume 6448.162283
_symmetry_space_group_name_H-M "I M M A"
_symmetry_group_IT_number 74
_symmetry_cell_setting 'orthorhombic'
loop_
_space_group_symop_operation_xyz
x,y,z
-x,1/2-y,z
x,-y,-z
-x,1/2+y,-z
-x,-y,-z
x,1/2+y,-z
-x,y,z
x,1/2-y,z
1/2+x,1/2+y,1/2+z
1/2-x,-y,1/2+z
1/2+x,1/2-y,1/2-z
1/2-x,y,1/2-z
1/2-x,1/2-y,1/2-z
1/2+x,y,1/2-z
1/2-x,1/2+y,1/2+z
1/2+x,-y,1/2+z
loop_
_atom_site_type_symbol
_atom_site_label
_atom_site_fract_x
_atom_site_fract_y
_atom_site_fract_z
Si Si1 0.189109 0.573116 0.869549
Si Si2 0.500000 0.076813 0.311257
Si Si3 0.394344 0.418987 0.688524
Si Si4 0.000000 0.431504 0.947998
Si Si5 0.391049 0.079625 0.800610
Si Si6 0.000000 0.077586 0.302795
Si Si7 0.117768 0.930713 0.051785
Si Si8 0.777618 0.931861 0.700420
O O1 0.192348 0.750000 0.879751
O O2 0.148059 0.538527 0.828052
O O3 0.163249 0.489597 0.913666
O O4 0.243158 0.521983 0.844942
O O5 0.500000 0.250000 0.327342
O O6 0.500000 0.080178 0.254302
O O7 0.549937 0.982359 0.326559
O O8 0.383732 0.250000 0.670176
O O9 0.395520 0.411106 0.744304
O O10 0.058621 0.475220 0.930211
O O11 0.000000 0.250000 0.949064
O O12 0.000000 0.500000 0.000000
O O13 0.387147 0.250000 0.818930
O O14 0.445469 0.002860 0.817067
O O15 0.336576 0.991152 0.806943
O O16 0.000000 0.250000 0.318728
O O17 0.119754 0.750000 0.048856
O O18 0.123973 0.000000 0.000000
O O19 0.778025 0.750000 0.702361
O O20 0.750000 0.982941 0.750000
#
# Coordination Sequence:
#
# PCOD9535329 Si02
#       8
#    16   8  16   8  16   8  16  16
#     4  11  22  34  49  69  93 124 164 203 245 298
#     4   9  17  28  42  59  82 115 153 194 240 288
#     4  10  19  30  43  62  88 117 151 196 244 289
#     4   8  16  31  52  73  92 119 153 196 249 304
#     4  10  19  30  47  68  92 120 157 202 245 285
#     4   9  17  29  46  64  87 120 158 194 238 290
#     4  10  20  36  55  74  97 124 160 206 259 310
#     4  10  20  34  50  67  93 130 168 205 245 294
#
# _framework density 16.128627000000002
#
# number of rings (size 3 to 8) (size 9 to 14) (size 15 to 20)
#    0.000    2.154    1.538    2.308    0.000    5.846 
#    0.000    2.308    0.000    0.000    0.000    0.000 
#    0.000    0.000    0.000    0.692    0.000    9.231 
#
# Total GULP energy -289660.513014 kJ/mol
# GULP energy per Si atom -5570.394481 kJ/mol
# Density = 1.609192 g / cm^3
# Si number density = 16.128627 Si / 1000 Ang^3
#
#
#
# Elastic Constant Matrix: (Units=GPa)
#
#
# Indices 1 2 3 4 5 6 
#
# 1 141.2092 33.4413 40.8272 0.0000 0.0000 0.0000
# 2 33.4413 34.8395 27.8782 0.0000 0.0000 0.0000
# 3 40.8272 27.8782 52.3437 0.0000 0.0000 0.0000
# 4 0.0000 0.0000 0.0000 17.7396 0.0000 0.0000
# 5 0.0000 0.0000 0.0000 0.0000 40.1580 0.0000
# 6 0.0000 0.0000 0.0000 0.0000 0.0000 25.4616
#
#
#
# Elastic Compliance Matrix: (Units=1/GPa)
#
#
# Indices 1 2 3 4 5 6 
#
# 1 0.009754 -0.005707 -0.004568 0.000000 0.000000 0.000000
# 2 -0.005707 0.053360 -0.023968 0.000000 0.000000 0.000000
# 3 -0.004568 -0.023968 0.035433 0.000000 0.000000 0.000000
# 4 0.000000 0.000000 0.000000 0.056371 0.000000 0.000000
# 5 0.000000 0.000000 0.000000 0.000000 0.024902 0.000000
# 6 0.000000 0.000000 0.000000 0.000000 0.000000 0.039275
#
#
# Mechanical properties :
#
#
# Convention : Reuss Voigt Hill
#
# Bulk Modulus (GPa) = 33.26662 48.07619 40.67141
# Shear Modulus (GPa) = 16.80092 25.08821 20.94457
#
# Velocity S-wave (km/s) = 3.23101 3.94827 3.60751
# Velocity P-wave (km/s) = 5.88131 7.11743 6.52869
#
# Compressibility (1/GPa) = 0.03006016
#
# Stress axis : x y z
#
# Youngs Moduli (GPa) = 102.52108 18.74056 28.22203
#
# Poissons Ratio (x) = 0.10695 0.12893
# Poissons Ratio (y) = 0.58509 0.67643
# Poissons Ratio (z) = 0.46837 0.44918
#
# Static dielectric constant tensor:
#      x y z
#    x -1.990590 0.000000 0.000000 
#    y 0.000000 1.560270 0.000000 
#    z 0.000000 0.000000 1.545190 
# 
# From -- ./inp_files/73724.got.cif
#   From: 2010.05.17/outbox.cif.g08.bks.cpg/sg74_37_cif.got.tgz:73724.got - 2010.06.03 17:57:02.
