data_PCOD9535837
_publ_section_title
;
Structure prediction by ZEFSAII (Michael W. Deem and Ramdas Pophale) SiO2 
 PCOD9535837
Probable space group: I M M A
;
_chemical_formula_sum "Si O2"
_cell_formula_units_Z 104
_cell_length_a 7.511703
_cell_length_b 20.276057
_cell_length_c 32.325412
_cell_angle_alpha 90.000000
_cell_angle_beta 90.000000
_cell_angle_gamma 90.000000
_cell_volume 4923.409741
_symmetry_space_group_name_H-M "I M M A"
_symmetry_group_IT_number 74
_symmetry_cell_setting 'orthorhombic'
loop_
_space_group_symop_operation_xyz
x,y,z
-x,1/2-y,z
x,-y,-z
-x,1/2+y,-z
-x,-y,-z
x,1/2+y,-z
-x,y,z
x,1/2-y,z
1/2+x,1/2+y,1/2+z
1/2-x,-y,1/2+z
1/2+x,1/2-y,1/2-z
1/2-x,y,1/2-z
1/2-x,1/2-y,1/2-z
1/2+x,y,1/2-z
1/2-x,1/2+y,1/2+z
1/2+x,-y,1/2+z
loop_
_atom_site_type_symbol
_atom_site_label
_atom_site_fract_x
_atom_site_fract_y
_atom_site_fract_z
Si Si1 0.781610 0.458521 0.039398
Si Si2 0.213973 0.678075 0.373691
Si Si3 0.283467 0.822921 0.571654
Si Si4 0.211191 0.250000 0.702452
Si Si5 0.292782 0.530628 0.379105
Si Si6 0.786787 0.038149 0.203237
Si Si7 0.783312 0.323909 0.168130
O O1 0.726421 0.382390 0.042436
O O2 0.717508 0.491833 0.081879
O O3 0.000000 0.459874 0.038812
O O4 0.721738 0.500000 0.000000
O O5 0.266565 0.750000 0.392381
O O6 0.271165 0.688147 0.325435
O O7 0.282842 0.608378 0.387987
O O8 0.000000 0.674568 0.376311
O O9 0.500000 0.822565 0.571537
O O10 0.222820 0.750000 0.559537
O O11 0.233687 0.834207 0.619822
O O12 0.250000 0.250000 0.750000
O O13 0.000000 0.250000 0.699134
O O14 0.500000 0.512006 0.378014
O O15 0.219871 0.508393 0.334319
O O16 0.750000 0.016603 0.250000
O O17 0.721810 0.113124 0.194357
O O18 0.000000 0.040153 0.200420
O O19 0.724414 0.250000 0.180668
O O20 0.000000 0.323304 0.169417
#
# Coordination Sequence:
#
# PCOD9535837 Si02
#       7
#    16  16  16   8  16  16  16
#     4   9  16  27  44  69 101 131 158 198 250 294
#     4   8  18  35  51  68  92 125 163 199 241 293
#     4   8  12  21  40  62  86 121 162 194 227 278
#     4   8  16  30  48  70  94 120 158 204 244 286
#     4  10  19  32  50  72  99 130 160 199 250 297
#     4  10  20  32  45  67  98 129 165 201 241 289
#     4   8  13  24  43  63  86 121 161 199 233 275
#
# _framework density 21.123573
#
# number of rings (size 3 to 8) (size 9 to 14) (size 15 to 20)
#    0.462    2.769    1.538    0.923    0.000    2.462 
#    0.000    3.846    0.000    3.231    0.000    0.000 
#    0.000    0.615    0.000    0.000    0.000    0.000 
#
# Total GULP energy -289501.675341 kJ/mol
# GULP energy per Si atom -5567.339910 kJ/mol
# Density = 2.107549 g / cm^3
# Si number density = 21.123573 Si / 1000 Ang^3
#
#
#
# Elastic Constant Matrix: (Units=GPa)
#
#
# Indices 1 2 3 4 5 6 
#
# 1 50.1692 -3.1013 6.1950 0.0000 0.0000 0.0000
# 2 -3.1013 130.8575 72.1475 0.0000 0.0000 0.0000
# 3 6.1950 72.1475 93.4678 0.0000 0.0000 0.0000
# 4 0.0000 0.0000 0.0000 29.6731 0.0000 0.0000
# 5 0.0000 0.0000 0.0000 0.0000 1.4138 0.0000
# 6 0.0000 0.0000 0.0000 0.0000 0.0000 135.3205
#
#
#
# Elastic Compliance Matrix: (Units=1/GPa)
#
#
# Indices 1 2 3 4 5 6 
#
# 1 0.020437 0.002143 -0.003009 0.000000 0.000000 0.000000
# 2 0.002143 0.013528 -0.010585 0.000000 0.000000 0.000000
# 3 -0.003009 -0.010585 0.019069 0.000000 0.000000 0.000000
# 4 0.000000 0.000000 0.000000 0.033701 0.000000 0.000000
# 5 0.000000 0.000000 0.000000 0.000000 0.707296 0.000000
# 6 0.000000 0.000000 0.000000 0.000000 0.000000 0.007390
#
#
# Mechanical properties :
#
#
# Convention : Reuss Voigt Hill
#
# Bulk Modulus (GPa) = 33.18614 47.21964 40.20289
# Shear Modulus (GPa) = 5.99259 46.56505 26.27882
#
# Velocity S-wave (km/s) = 1.68614 4.70021 3.53094
# Velocity P-wave (km/s) = 4.41988 7.20128 5.97469
#
# Compressibility (1/GPa) = 0.03013306
#
# Stress axis : x y z
#
# Youngs Moduli (GPa) = 48.93189 73.91820 52.44236
#
# Poissons Ratio (x) = -0.15843 0.15780
# Poissons Ratio (y) = -0.10488 0.55508
# Poissons Ratio (z) = 0.14723 0.78240
#
# Static dielectric constant tensor:
#      x y z
#    x 1.840200 0.000000 0.000000 
#    y 0.000000 1.823780 0.000000 
#    z 0.000000 0.000000 1.768410 
# 
# From -- ./inp_files/70604.got.cif
#   From: 2010.05.17/outbox.cif.g08.bks.cpg/sg74_36_cif.got.tgz:70604.got - 2010.06.03 17:57:02.
