data_PCOD9535180
_publ_section_title
;
Structure prediction by ZEFSAII (Michael W. Deem and Ramdas Pophale) SiO2 
 PCOD9535180
Probable space group: I M M A
;
_chemical_formula_sum "Si O2"
_cell_formula_units_Z 116
_cell_length_a 26.605456
_cell_length_b 25.301979
_cell_length_c 7.235123
_cell_angle_alpha 90.000000
_cell_angle_beta 90.000000
_cell_angle_gamma 90.000000
_cell_volume 4870.472735
_symmetry_space_group_name_H-M "I M M A"
_symmetry_group_IT_number 74
_symmetry_cell_setting 'orthorhombic'
loop_
_space_group_symop_operation_xyz
x,y,z
-x,1/2-y,z
x,-y,-z
-x,1/2+y,-z
-x,-y,-z
x,1/2+y,-z
-x,y,z
x,1/2-y,z
1/2+x,1/2+y,1/2+z
1/2-x,-y,1/2+z
1/2+x,1/2-y,1/2-z
1/2-x,y,1/2-z
1/2-x,1/2-y,1/2-z
1/2+x,y,1/2-z
1/2-x,1/2+y,1/2+z
1/2+x,-y,1/2+z
loop_
_atom_site_type_symbol
_atom_site_label
_atom_site_fract_x
_atom_site_fract_y
_atom_site_fract_z
Si Si1 0.000000 0.250000 0.389915
Si Si2 0.702348 0.166397 0.001435
Si Si3 0.408773 0.172390 0.021890
Si Si4 0.943266 0.085905 0.224051
Si Si5 0.103828 0.516876 0.295112
Si Si6 0.786643 0.449313 0.594419
Si Si7 0.688066 0.190151 0.565700
Si Si8 0.591885 0.129946 0.624296
O O1 0.954992 0.294657 0.401614
O O2 0.700041 0.102585 0.022497
O O3 0.698221 0.183208 0.785161
O O4 0.759611 0.182857 0.044548
O O5 0.648742 0.187731 0.075874
O O6 0.417137 0.114563 0.105280
O O7 0.414178 0.169666 0.797672
O O8 0.000000 0.070241 0.266223
O O9 0.911378 0.033878 0.176488
O O10 0.943046 0.126944 0.053356
O O11 0.085018 0.500000 0.500000
O O12 0.163248 0.526415 0.317288
O O13 0.085754 0.572426 0.216215
O O14 0.761339 0.500000 0.500000
O O15 0.750000 0.427753 0.750000
O O16 0.669603 0.250000 0.533022
O O17 0.646134 0.145290 0.536405
#
# Coordination Sequence:
#
# PCOD9535180 Si02
#       8
#     4  16  16  16  16  16  16  16
#     4  12  28  44  78 100 134 198 242 294 374 374
#     4  10  18  38  68  92 139 175 225 280 341 416
#     4  11  24  48  68 103 137 179 241 289 346 415
#     4  12  27  47  69  99 137 185 235 291 350 411
#     4  11  21  43  68  99 137 182 226 282 342 419
#     4  11  20  35  59  96 136 181 216 273 348 414
#     4  10  20  37  66 105 132 179 231 281 347 416
#     4  11  24  44  72 101 144 176 230 286 349 425
#
# _framework density 23.816990000000001
#
# number of rings (size 3 to 8) (size 9 to 14) (size 15 to 20)
#    0.000    1.103    6.207    2.069    5.793    3.586 
#    1.241    1.379    0.000    0.828    0.000    0.000 
#    0.000    0.000    0.000    0.000    0.000    0.000 
#
# Total GULP energy -323059.887137 kJ/mol
# GULP energy per Si atom -5569.998054 kJ/mol
# Density = 2.376278 g / cm^3
# Si number density = 23.816990 Si / 1000 Ang^3
#
#
#
# Elastic Constant Matrix: (Units=GPa)
#
#
# Indices 1 2 3 4 5 6 
#
# 1 106.3805 29.2481 -1.0990 0.0000 0.0000 0.0000
# 2 29.2481 121.8261 3.7772 0.0000 0.0000 0.0000
# 3 -1.0990 3.7772 66.9075 0.0000 0.0000 0.0000
# 4 0.0000 0.0000 0.0000 -26.3101 0.0000 0.0000
# 5 0.0000 0.0000 0.0000 0.0000 13.7744 0.0000
# 6 0.0000 0.0000 0.0000 0.0000 0.0000 18.4596
#
#
#
# Elastic Compliance Matrix: (Units=1/GPa)
#
#
# Indices 1 2 3 4 5 6 
#
# 1 0.010071 -0.002427 0.000302 0.000000 0.000000 0.000000
# 2 -0.002427 0.008808 -0.000537 0.000000 0.000000 0.000000
# 3 0.000302 -0.000537 0.014981 0.000000 0.000000 0.000000
# 4 0.000000 0.000000 0.000000 -0.038008 0.000000 0.000000
# 5 0.000000 0.000000 0.000000 0.000000 0.072598 0.000000
# 6 0.000000 0.000000 0.000000 0.000000 0.000000 0.054172
#
#
# Mechanical properties :
#
#
# Convention : Reuss Voigt Hill
#
# Bulk Modulus (GPa) = 35.04330 39.88519 37.46425
# Shear Modulus (GPa) = 36.37472 18.73063 27.55268
#
# Velocity S-wave (km/s) = 3.91226 2.80740 3.40494
# Velocity P-wave (km/s) = 5.92901 5.22413 5.58770
#
# Compressibility (1/GPa) = 0.02853612
#
# Stress axis : x y z
#
# Youngs Moduli (GPa) = 99.29834 113.53592 66.74992
#
# Poissons Ratio (x) = 0.27557 -0.02019
# Poissons Ratio (y) = 0.24101 0.03585
# Poissons Ratio (z) = -0.03003 0.06098
#
# Static dielectric constant tensor:
#      x y z
#    x 1.921950 0.000000 0.000000 
#    y 0.000000 2.452100 0.000000 
#    z 0.000000 0.000000 2.009320 
# 
# From -- ./inp_files/15451.got.cif
#   From: 2010.05.17/outbox.cif.g08.bks.cpg/sg74_8_cif.got.tgz:15451.got - 2010.06.03 17:57:02.
