data_PCOD9535592
_publ_section_title
;
Structure prediction by ZEFSAII (Michael W. Deem and Ramdas Pophale) SiO2 
 PCOD9535592
Probable space group: I M M A
;
_chemical_formula_sum "Si O2"
_cell_formula_units_Z 112
_cell_length_a 32.497446
_cell_length_b 14.588183
_cell_length_c 12.351197
_cell_angle_alpha 90.000000
_cell_angle_beta 90.000000
_cell_angle_gamma 90.000000
_cell_volume 5855.439285
_symmetry_space_group_name_H-M "I M M A"
_symmetry_group_IT_number 74
_symmetry_cell_setting 'orthorhombic'
loop_
_space_group_symop_operation_xyz
x,y,z
-x,1/2-y,z
x,-y,-z
-x,1/2+y,-z
-x,-y,-z
x,1/2+y,-z
-x,y,z
x,1/2-y,z
1/2+x,1/2+y,1/2+z
1/2-x,-y,1/2+z
1/2+x,1/2-y,1/2-z
1/2-x,y,1/2-z
1/2-x,1/2-y,1/2-z
1/2+x,y,1/2-z
1/2-x,1/2+y,1/2+z
1/2+x,-y,1/2+z
loop_
_atom_site_type_symbol
_atom_site_label
_atom_site_fract_x
_atom_site_fract_y
_atom_site_fract_z
Si Si1 0.826542 0.642063 0.466482
Si Si2 0.047390 0.020337 0.288425
Si Si3 0.363330 0.531724 0.844796
Si Si4 0.236894 0.145707 0.875723
Si Si5 0.424678 0.143301 0.656103
Si Si6 0.048870 0.147966 0.082985
Si Si7 0.845662 0.537006 0.118067
O O1 0.835817 0.750000 0.446840
O O2 0.840287 0.608384 0.585045
O O3 0.848971 0.568338 0.388588
O O4 0.777859 0.629240 0.445727
O O5 0.052596 0.916761 0.245950
O O6 0.000000 0.037403 0.323894
O O7 0.087280 0.039628 0.361910
O O8 0.057141 0.081032 0.181744
O O9 0.351213 0.533542 0.717865
O O10 0.222644 0.250000 0.897517
O O11 0.250000 0.141275 0.750000
O O12 0.200228 0.075153 0.891922
O O13 0.432147 0.250000 0.670676
O O14 0.439682 0.115623 0.536383
O O15 0.376665 0.117945 0.653456
O O16 0.067137 0.250000 0.099539
O O17 0.000000 0.156509 0.082288
O O18 0.857798 0.500000 0.000000
#
# Coordination Sequence:
#
# PCOD9535592 Si02
#       7
#    16  16  16  16  16  16  16
#     4  10  22  42  65  85 112 153 202 250 295 352
#     4  10  20  34  53  80 114 148 194 252 302 353
#     4  10  22  39  61  89 114 157 203 239 303 360
#     4  10  20  36  60  87 113 149 196 245 296 347
#     4  10  19  31  48  75 116 158 199 243 293 350
#     4   9  17  30  50  75 108 155 199 235 288 359
#     4  11  22  34  56  89 124 157 192 241 298 359
#
# _framework density 19.127514000000001
#
# number of rings (size 3 to 8) (size 9 to 14) (size 15 to 20)
#    0.000    2.000    1.429    3.000    2.000    4.857 
#    0.000    2.857    0.000    2.571    0.000    0.000 
#    0.000    0.000    0.000    0.000    0.000    0.000 
#
# Total GULP energy -312203.027816 kJ/mol
# GULP energy per Si atom -5575.054068 kJ/mol
# Density = 1.908398 g / cm^3
# Si number density = 19.127514 Si / 1000 Ang^3
#
#
#
# Elastic Constant Matrix: (Units=GPa)
#
#
# Indices 1 2 3 4 5 6 
#
# 1 96.8956 17.9293 18.2523 0.0000 0.0000 0.0000
# 2 17.9293 42.0748 3.9818 0.0000 0.0000 0.0000
# 3 18.2523 3.9818 62.1815 0.0000 0.0000 0.0000
# 4 0.0000 0.0000 0.0000 12.5267 0.0000 0.0000
# 5 0.0000 0.0000 0.0000 0.0000 30.7398 0.0000
# 6 0.0000 0.0000 0.0000 0.0000 0.0000 17.7070
#
#
#
# Elastic Compliance Matrix: (Units=1/GPa)
#
#
# Indices 1 2 3 4 5 6 
#
# 1 0.011790 -0.004725 -0.003158 0.000000 0.000000 0.000000
# 2 -0.004725 0.025806 -0.000266 0.000000 0.000000 0.000000
# 3 -0.003158 -0.000266 0.017026 0.000000 0.000000 0.000000
# 4 0.000000 0.000000 0.000000 0.079829 0.000000 0.000000
# 5 0.000000 0.000000 0.000000 0.000000 0.032531 0.000000
# 6 0.000000 0.000000 0.000000 0.000000 0.000000 0.056475
#
#
# Mechanical properties :
#
#
# Convention : Reuss Voigt Hill
#
# Bulk Modulus (GPa) = 26.09323 31.27541 28.68432
# Shear Modulus (GPa) = 19.79974 22.92727 21.36351
#
# Velocity S-wave (km/s) = 3.22086 3.46591 3.34563
# Velocity P-wave (km/s) = 5.24435 5.69239 5.47296
#
# Compressibility (1/GPa) = 0.03832412
#
# Stress axis : x y z
#
# Youngs Moduli (GPa) = 84.82070 38.75097 58.73388
#
# Poissons Ratio (x) = 0.18310 0.18548
# Poissons Ratio (y) = 0.40078 0.01559
# Poissons Ratio (z) = 0.26787 0.01029
#
# Static dielectric constant tensor:
#      x y z
#    x 1.684660 0.000000 0.000000 
#    y 0.000000 1.701230 0.000000 
#    z 0.000000 0.000000 1.485990 
# 
# From -- ./inp_files/21156.got.cif
#   From: 2010.05.17/outbox.cif.g08.bks.cpg/sg74_11_cif.got.tgz:21156.got - 2010.06.03 17:57:02.
