data_PCOD9535519
_publ_section_title
;
Structure prediction by ZEFSAII (Michael W. Deem and Ramdas Pophale) SiO2 
 PCOD9535519
Probable space group: I M M A
;
_chemical_formula_sum "Si O2"
_cell_formula_units_Z 80
_cell_length_a 27.059829
_cell_length_b 26.781710
_cell_length_c 5.439622
_cell_angle_alpha 90.000000
_cell_angle_beta 90.000000
_cell_angle_gamma 90.000000
_cell_volume 3942.140262
_symmetry_space_group_name_H-M "I M M A"
_symmetry_group_IT_number 74
_symmetry_cell_setting 'orthorhombic'
loop_
_space_group_symop_operation_xyz
x,y,z
-x,1/2-y,z
x,-y,-z
-x,1/2+y,-z
-x,-y,-z
x,1/2+y,-z
-x,y,z
x,1/2-y,z
1/2+x,1/2+y,1/2+z
1/2-x,-y,1/2+z
1/2+x,1/2-y,1/2-z
1/2-x,y,1/2-z
1/2-x,1/2-y,1/2-z
1/2+x,y,1/2-z
1/2-x,1/2+y,1/2+z
1/2+x,-y,1/2+z
loop_
_atom_site_type_symbol
_atom_site_label
_atom_site_fract_x
_atom_site_fract_y
_atom_site_fract_z
Si Si1 0.193996 0.346202 0.189637
Si Si2 0.694788 0.459998 0.306831
Si Si3 0.897019 0.556647 0.506473
Si Si4 0.557235 0.939103 0.491179
Si Si5 0.692278 0.191656 0.806005
O O1 0.250000 0.327561 0.250000
O O2 0.198637 0.403332 0.098233
O O3 0.171197 0.338952 0.461835
O O4 0.169543 0.317369 0.963893
O O5 0.672939 0.500000 0.500000
O O6 0.750000 0.477286 0.250000
O O7 0.660468 0.451403 0.069795
O O8 0.918397 0.500000 0.500000
O O9 0.911519 0.578375 0.244832
O O10 0.920188 0.580051 0.752301
O O11 0.500000 0.925478 0.464589
O O12 0.559402 0.000000 0.500000
O O13 0.690669 0.250000 0.870054
O O14 0.750000 0.177763 0.750000
#
# Coordination Sequence:
#
# PCOD9535519 Si02
#       5
#    16  16  16  16  16
#     4   9  19  31  45  65  87 116 157 197 236 280
#     4  11  23  35  48  65  96 139 180 211 230 256
#     4  10  19  31  46  65  87 118 161 201 240 282
#     4   9  17  30  48  67  85 106 144 204 259 296
#     4   9  16  29  48  67  85 106 142 198 253 294
#
# _framework density 20.293544000000001
#
# number of rings (size 3 to 8) (size 9 to 14) (size 15 to 20)
#    0.000    2.400    0.000    3.600    0.000   12.000 
#    0.000    0.000    0.000    0.000    0.000    0.000 
#    0.000    0.000    0.000    0.000    0.000   70.000 
#
# Total GULP energy -222839.258011 kJ/mol
# GULP energy per Si atom -5570.981450 kJ/mol
# Density = 2.024735 g / cm^3
# Si number density = 20.293544 Si / 1000 Ang^3
#
#
#
# Elastic Constant Matrix: (Units=GPa)
#
#
# Indices 1 2 3 4 5 6 
#
# 1 100.2825 -11.4799 49.0572 0.0000 0.0000 0.0000
# 2 -11.4799 62.0831 29.5249 0.0000 0.0000 0.0000
# 3 49.0572 29.5249 185.3541 0.0000 0.0000 0.0000
# 4 0.0000 0.0000 0.0000 26.3241 0.0000 0.0000
# 5 0.0000 0.0000 0.0000 0.0000 21.3489 0.0000
# 6 0.0000 0.0000 0.0000 0.0000 0.0000 -0.6656
#
#
#
# Elastic Compliance Matrix: (Units=1/GPa)
#
#
# Indices 1 2 3 4 5 6 
#
# 1 0.012375 0.004161 -0.003938 0.000000 0.000000 0.000000
# 2 0.004161 0.018827 -0.004100 0.000000 0.000000 0.000000
# 3 -0.003938 -0.004100 0.007090 0.000000 0.000000 0.000000
# 4 0.000000 0.000000 0.000000 0.037988 0.000000 0.000000
# 5 0.000000 0.000000 0.000000 0.000000 0.046841 0.000000
# 6 0.000000 0.000000 0.000000 0.000000 0.000000 -1.502514
#
#
# Mechanical properties :
#
#
# Convention : Reuss Voigt Hill
#
# Bulk Modulus (GPa) = 32.74663 53.54712 43.14688
# Shear Modulus (GPa) = -3.67253 28.10932 12.21839
#
# Velocity S-wave (km/s) = -1.34671 3.72578 2.45640
# Velocity P-wave (km/s) = 3.70855 6.70464 5.41782
#
# Compressibility (1/GPa) = 0.03053749
#
# Stress axis : x y z
#
# Youngs Moduli (GPa) = 80.81088 53.11585 141.03493
#
# Poissons Ratio (x) = -0.22101 0.55539
# Poissons Ratio (y) = -0.33625 0.57827
# Poissons Ratio (z) = 0.31823 0.21778
#
# Static dielectric constant tensor:
#      x y z
#    x 1.752290 0.000000 0.000000 
#    y 0.000000 1.762750 0.000000 
#    z 0.000000 0.000000 1.873340 
# 
# From -- ./inp_files/4529.got.cif
#   From: 2010.05.17/outbox.cif.g08.bks.cpg/sg74_3_cif.got.tgz:4529.got - 2010.06.03 17:57:02.
