data_PCOD9535563
_publ_section_title
;
Structure prediction by ZEFSAII (Michael W. Deem and Ramdas Pophale) SiO2 
 PCOD9535563
Probable space group: I M M A
;
_chemical_formula_sum "Si O2"
_cell_formula_units_Z 96
_cell_length_a 21.925949
_cell_length_b 9.017357
_cell_length_c 22.051854
_cell_angle_alpha 90.000000
_cell_angle_beta 90.000000
_cell_angle_gamma 90.000000
_cell_volume 4359.962681
_symmetry_space_group_name_H-M "I M M A"
_symmetry_group_IT_number 74
_symmetry_cell_setting 'orthorhombic'
loop_
_space_group_symop_operation_xyz
x,y,z
-x,1/2-y,z
x,-y,-z
-x,1/2+y,-z
-x,-y,-z
x,1/2+y,-z
-x,y,z
x,1/2-y,z
1/2+x,1/2+y,1/2+z
1/2-x,-y,1/2+z
1/2+x,1/2-y,1/2-z
1/2-x,y,1/2-z
1/2-x,1/2-y,1/2-z
1/2+x,y,1/2-z
1/2-x,1/2+y,1/2+z
1/2+x,-y,1/2+z
loop_
_atom_site_type_symbol
_atom_site_label
_atom_site_fract_x
_atom_site_fract_y
_atom_site_fract_z
Si Si1 0.815519 0.414857 0.742492
Si Si2 0.932591 0.571874 0.067520
Si Si3 0.811673 0.415033 0.598787
Si Si4 0.311363 0.572739 0.566638
Si Si5 0.065731 0.421202 0.259820
Si Si6 0.067743 0.921928 0.592179
O O1 0.811383 0.250000 0.770462
O O2 0.750000 0.491318 0.750000
O O3 0.823080 0.400287 0.670431
O O4 0.875296 0.496677 0.764269
O O5 0.924467 0.750000 0.063303
O O6 0.872605 0.496856 0.095923
O O7 0.000000 0.543481 0.094908
O O8 0.935413 0.500000 0.000000
O O9 0.799085 0.250000 0.573713
O O10 0.752784 0.519056 0.593588
O O11 0.873773 0.484116 0.572323
O O12 0.309689 0.500000 0.500000
O O13 0.315627 0.750000 0.564859
O O14 0.067556 0.250000 0.241282
O O15 0.067904 0.422042 0.333767
O O16 0.000000 0.486900 0.242881
O O17 0.074094 0.750000 0.573615
O O18 0.000000 0.975961 0.573970
#
# Coordination Sequence:
#
# PCOD9535563 Si02
#       6
#    16  16  16  16  16  16
#     4   9  18  31  47  69  96 125 157 193 232 276
#     4   9  16  27  45  69  95 121 152 191 233 275
#     4  10  19  31  48  70  97 126 158 195 234 278
#     4  11  21  33  50  71  97 126 158 194 234 280
#     4   8  14  25  42  65  91 118 151 192 234 274
#     4   8  14  26  44  66  92 120 152 191 233 276
#
# _framework density 22.018539000000001
#
# number of rings (size 3 to 8) (size 9 to 14) (size 15 to 20)
#    0.000    2.833    0.000    4.500    0.000    2.667 
#    0.000    3.333    0.000    1.500    0.000    2.333 
#    0.000    0.000    0.000    0.000    0.000    0.000 
#
# Total GULP energy -267646.806577 kJ/mol
# GULP energy per Si atom -5575.975137 kJ/mol
# Density = 2.196842 g / cm^3
# Si number density = 22.018539 Si / 1000 Ang^3
#
#
#
# Elastic Constant Matrix: (Units=GPa)
#
#
# Indices 1 2 3 4 5 6 
#
# 1 243.0040 100.2738 3.6647 0.0000 0.0000 0.0000
# 2 100.2738 127.9465 8.6081 0.0000 0.0000 0.0000
# 3 3.6647 8.6081 48.2516 0.0000 0.0000 0.0000
# 4 0.0000 0.0000 0.0000 4.2487 0.0000 0.0000
# 5 0.0000 0.0000 0.0000 0.0000 12.1299 0.0000
# 6 0.0000 0.0000 0.0000 0.0000 0.0000 -99.0425
#
#
#
# Elastic Compliance Matrix: (Units=1/GPa)
#
#
# Indices 1 2 3 4 5 6 
#
# 1 0.006089 -0.004799 0.000394 0.000000 0.000000 0.000000
# 2 -0.004799 0.011693 -0.001721 0.000000 0.000000 0.000000
# 3 0.000394 -0.001721 0.021002 0.000000 0.000000 0.000000
# 4 0.000000 0.000000 0.000000 0.235366 0.000000 0.000000
# 5 0.000000 0.000000 0.000000 0.000000 0.082441 0.000000
# 6 0.000000 0.000000 0.000000 0.000000 0.000000 -0.010097
#
#
# Mechanical properties :
#
#
# Convention : Reuss Voigt Hill
#
# Bulk Modulus (GPa) = 37.69256 71.58839 54.64047
# Shear Modulus (GPa) = 13.60207 3.91092 8.75649
#
# Velocity S-wave (km/s) = 2.48817 1.33418 1.99637
# Velocity P-wave (km/s) = 5.04087 5.91242 5.49396
#
# Compressibility (1/GPa) = 0.02653044
#
# Stress axis : x y z
#
# Youngs Moduli (GPa) = 164.21853 85.52451 47.61469
#
# Poissons Ratio (x) = 0.41042 -0.01874
# Poissons Ratio (y) = 0.78807 0.08197
# Poissons Ratio (z) = -0.06464 0.14723
#
# Static dielectric constant tensor:
#      x y z
#    x 1.864660 0.000000 0.000000 
#    y 0.000000 1.784860 0.000000 
#    z 0.000000 0.000000 1.881360 
# 
# From -- ./inp_files/64353.got.cif
#   From: 2010.05.17/outbox.cif.g08.bks.cpg/sg74_33_cif.got.tgz:64353.got - 2010.06.03 17:57:02.
