data_PCOD9535006
_publ_section_title
;
Structure prediction by ZEFSAII (Michael W. Deem and Ramdas Pophale) SiO2 
 PCOD9535006
Probable space group: I M M A
;
_chemical_formula_sum "Si O2"
_cell_formula_units_Z 80
_cell_length_a 8.009033
_cell_length_b 28.587662
_cell_length_c 20.782514
_cell_angle_alpha 90.000000
_cell_angle_beta 90.000000
_cell_angle_gamma 90.000000
_cell_volume 4758.354603
_symmetry_space_group_name_H-M "I M M A"
_symmetry_group_IT_number 74
_symmetry_cell_setting 'orthorhombic'
loop_
_space_group_symop_operation_xyz
x,y,z
-x,1/2-y,z
x,-y,-z
-x,1/2+y,-z
-x,-y,-z
x,1/2+y,-z
-x,y,z
x,1/2-y,z
1/2+x,1/2+y,1/2+z
1/2-x,-y,1/2+z
1/2+x,1/2-y,1/2-z
1/2-x,y,1/2-z
1/2-x,1/2-y,1/2-z
1/2+x,y,1/2-z
1/2-x,1/2+y,1/2+z
1/2+x,-y,1/2+z
loop_
_atom_site_type_symbol
_atom_site_label
_atom_site_fract_x
_atom_site_fract_y
_atom_site_fract_z
Si Si1 0.200737 0.970831 0.561683
Si Si2 0.000000 0.696921 0.988856
Si Si3 0.313007 0.131939 0.859130
Si Si4 0.692844 0.132534 0.014644
Si Si5 0.000000 0.304144 0.854324
Si Si6 0.194297 0.968697 0.181187
O O1 0.235341 0.916618 0.548213
O O2 0.000000 0.975908 0.564677
O O3 0.261405 0.000000 0.500000
O O4 0.272141 0.994098 0.625356
O O5 0.832510 0.670213 0.968203
O O6 0.000000 0.750000 0.966584
O O7 0.000000 0.697130 0.067240
O O8 0.500000 0.149291 0.844209
O O9 0.166144 0.166585 0.836417
O O10 0.289724 0.079943 0.831671
O O11 0.299782 0.126618 0.936897
O O12 0.500000 0.144965 0.029849
O O13 0.000000 0.250000 0.832300
O O14 0.250000 0.987686 0.250000
O O15 0.000000 0.956818 0.181883
#
# Coordination Sequence:
#
# PCOD9535006 Si02
#       6
#    16   8  16  16   8  16
#     4  10  19  33  53  78 108 140 178 220 261 319
#     4   9  18  30  46  72 108 138 174 222 263 313
#     4  10  18  33  52  74 101 136 180 217 263 319
#     4   9  18  30  50  76 105 139 174 216 264 311
#     4   9  18  32  49  75 101 131 177 228 276 313
#     4  12  24  36  52  77 107 144 180 220 266 321
#
# _framework density 16.812532999999998
#
# number of rings (size 3 to 8) (size 9 to 14) (size 15 to 20)
#    0.000    2.000    3.000    1.800    1.400    1.200 
#    0.000    4.000    0.000    0.600    0.000    0.000 
#    0.000    0.800    0.400    0.000    0.000    0.000 
#
# Total GULP energy -223238.273411 kJ/mol
# GULP energy per Si atom -5580.956835 kJ/mol
# Density = 1.677427 g / cm^3
# Si number density = 16.812533 Si / 1000 Ang^3
#
#
#
# Elastic Constant Matrix: (Units=GPa)
#
#
# Indices 1 2 3 4 5 6 
#
# 1 110.5801 70.2646 31.0123 0.0000 0.0000 0.0000
# 2 70.2646 92.2282 35.4046 0.0000 0.0000 0.0000
# 3 31.0123 35.4046 63.3710 0.0000 0.0000 0.0000
# 4 0.0000 0.0000 0.0000 -0.9551 0.0000 0.0000
# 5 0.0000 0.0000 0.0000 0.0000 14.7615 0.0000
# 6 0.0000 0.0000 0.0000 0.0000 0.0000 22.5655
#
#
#
# Elastic Compliance Matrix: (Units=1/GPa)
#
#
# Indices 1 2 3 4 5 6 
#
# 1 0.017630 -0.012883 -0.001430 0.000000 0.000000 0.000000
# 2 -0.012883 0.023216 -0.006666 0.000000 0.000000 0.000000
# 3 -0.001430 -0.006666 0.020204 0.000000 0.000000 0.000000
# 4 0.000000 0.000000 0.000000 -1.047053 0.000000 0.000000
# 5 0.000000 0.000000 0.000000 0.000000 0.067744 0.000000
# 6 0.000000 0.000000 0.000000 0.000000 0.000000 0.044315
#
#
# Mechanical properties :
#
#
# Convention : Reuss Voigt Hill
#
# Bulk Modulus (GPa) = 52.37676 59.94914 56.16295
# Shear Modulus (GPa) = -6.05606 15.90758 4.92576
#
# Velocity S-wave (km/s) = -1.89998 3.07933 1.71353
# Velocity P-wave (km/s) = 5.13885 6.95542 6.11497
#
# Compressibility (1/GPa) = 0.01909244
#
# Stress axis : x y z
#
# Youngs Moduli (GPa) = 56.72079 43.07304 49.49394
#
# Poissons Ratio (x) = 0.55489 0.07080
# Poissons Ratio (y) = 0.73071 0.32994
# Poissons Ratio (z) = 0.08114 0.28714
#
# Static dielectric constant tensor:
#      x y z
#    x 1.590480 0.000000 0.000000 
#    y 0.000000 1.548850 0.000000 
#    z 0.000000 0.000000 1.553110 
# 
# From -- ./inp_files/39778.got.cif
#   From: 2010.05.17/outbox.cif.g08.bks.cpg/sg74_20_cif.got.tgz:39778.got - 2010.06.03 17:57:02.
