data_PCOD9535174
_publ_section_title
;
Structure prediction by ZEFSAII (Michael W. Deem and Ramdas Pophale) SiO2 
 PCOD9535174
Probable space group: I M M A
;
_chemical_formula_sum "Si O2"
_cell_formula_units_Z 64
_cell_length_a 17.664953
_cell_length_b 10.330904
_cell_length_c 16.151964
_cell_angle_alpha 90.000000
_cell_angle_beta 90.000000
_cell_angle_gamma 90.000000
_cell_volume 2947.651598
_symmetry_space_group_name_H-M "I M M A"
_symmetry_group_IT_number 74
_symmetry_cell_setting 'orthorhombic'
loop_
_space_group_symop_operation_xyz
x,y,z
-x,1/2-y,z
x,-y,-z
-x,1/2+y,-z
-x,-y,-z
x,1/2+y,-z
-x,y,z
x,1/2-y,z
1/2+x,1/2+y,1/2+z
1/2-x,-y,1/2+z
1/2+x,1/2-y,1/2-z
1/2-x,y,1/2-z
1/2-x,1/2-y,1/2-z
1/2+x,y,1/2-z
1/2-x,1/2+y,1/2+z
1/2+x,-y,1/2+z
loop_
_atom_site_type_symbol
_atom_site_label
_atom_site_fract_x
_atom_site_fract_y
_atom_site_fract_z
Si Si1 0.000000 0.890355 0.069507
Si Si2 0.088125 0.750000 0.814992
Si Si3 0.315062 0.037818 0.860295
Si Si4 0.866768 0.250000 0.372842
Si Si5 0.647096 0.966707 0.332582
Si Si6 0.914974 0.250000 0.553420
O O1 0.000000 0.750000 0.029106
O O2 0.074244 0.902811 0.126573
O O3 0.000000 0.000000 0.000000
O O4 0.090545 0.750000 0.714673
O O5 0.131046 0.620367 0.842182
O O6 0.000000 0.750000 0.839243
O O7 0.369176 0.124111 0.916429
O O8 0.320838 0.884043 0.874719
O O9 0.341976 0.059887 0.765305
O O10 0.227217 0.073738 0.871210
O O11 0.916751 0.250000 0.454545
O O12 0.000000 0.250000 0.587336
#
# Coordination Sequence:
#
# PCOD9535174 Si02
#       6
#     8   8  16   8  16   8
#     4  12  30  46  70 102 141 183 228 288 349 411
#     4  10  18  37  74 100 130 172 220 285 328 389
#     4  10  24  43  71  97 132 184 225 280 337 402
#     4  10  22  42  64 101 134 177 217 268 339 410
#     4  10  23  44  70  98 133 175 239 275 333 409
#     4  12  27  40  64  99 141 170 220 277 346 406
#
# _framework density 21.712198999999998
#
# number of rings (size 3 to 8) (size 9 to 14) (size 15 to 20)
#    0.000    1.500    1.250    1.875    7.000    9.000 
#    0.000    0.000    0.000    0.000    0.000    0.000 
#    0.000    0.000    0.000    0.000    0.000    0.000 
#
# Total GULP energy -178939.516362 kJ/mol
# GULP energy per Si atom -5591.859886 kJ/mol
# Density = 2.166278 g / cm^3
# Si number density = 21.712199 Si / 1000 Ang^3
#
#
#
# Elastic Constant Matrix: (Units=GPa)
#
#
# Indices 1 2 3 4 5 6 
#
# 1 200.1477 49.5550 60.1254 0.0000 0.0000 0.0000
# 2 49.5550 123.3538 36.0134 0.0000 0.0000 0.0000
# 3 60.1254 36.0134 58.9914 0.0000 0.0000 0.0000
# 4 0.0000 0.0000 0.0000 -21.4931 0.0000 0.0000
# 5 0.0000 0.0000 0.0000 0.0000 13.8971 0.0000
# 6 0.0000 0.0000 0.0000 0.0000 0.0000 -42.9918
#
#
#
# Elastic Compliance Matrix: (Units=1/GPa)
#
#
# Indices 1 2 3 4 5 6 
#
# 1 0.007287 -0.000924 -0.006863 0.000000 0.000000 0.000000
# 2 -0.000924 0.009982 -0.005153 0.000000 0.000000 0.000000
# 3 -0.006863 -0.005153 0.027092 0.000000 0.000000 0.000000
# 4 0.000000 0.000000 0.000000 -0.046527 0.000000 0.000000
# 5 0.000000 0.000000 0.000000 0.000000 0.071957 0.000000
# 6 0.000000 0.000000 0.000000 0.000000 0.000000 -0.023260
#
#
# Mechanical properties :
#
#
# Convention : Reuss Voigt Hill
#
# Bulk Modulus (GPa) = 54.10479 74.87560 64.49020
# Shear Modulus (GPa) = 63.63749 5.66905 34.65327
#
# Velocity S-wave (km/s) = 5.41970 1.61761 3.99937
# Velocity P-wave (km/s) = 8.00858 6.16841 7.14796
#
# Compressibility (1/GPa) = 0.01848265
#
# Stress axis : x y z
#
# Youngs Moduli (GPa) = 137.23777 100.17921 36.91141
#
# Poissons Ratio (x) = 0.09253 0.25332
# Poissons Ratio (y) = 0.12676 0.19019
# Poissons Ratio (z) = 0.94184 0.51618
#
# Static dielectric constant tensor:
#      x y z
#    x 1.749360 0.000000 0.000000 
#    y 0.000000 1.801090 0.000000 
#    z 0.000000 0.000000 1.779240 
# 
# From -- ./inp_files/33636.got.cif
#   From: 2010.05.17/outbox.cif.g08.bks.cpg/sg74_17_cif.got.tgz:33636.got - 2010.06.03 17:57:02.
