data_PCOD9535678
_publ_section_title
;
Structure prediction by ZEFSAII (Michael W. Deem and Ramdas Pophale) SiO2 
 PCOD9535678
Probable space group: I M M A
;
_chemical_formula_sum "Si O2"
_cell_formula_units_Z 80
_cell_length_a 7.566243
_cell_length_b 19.013972
_cell_length_c 26.372980
_cell_angle_alpha 90.000000
_cell_angle_beta 90.000000
_cell_angle_gamma 90.000000
_cell_volume 3794.131165
_symmetry_space_group_name_H-M "I M M A"
_symmetry_group_IT_number 74
_symmetry_cell_setting 'orthorhombic'
loop_
_space_group_symop_operation_xyz
x,y,z
-x,1/2-y,z
x,-y,-z
-x,1/2+y,-z
-x,-y,-z
x,1/2+y,-z
-x,y,z
x,1/2-y,z
1/2+x,1/2+y,1/2+z
1/2-x,-y,1/2+z
1/2+x,1/2-y,1/2-z
1/2-x,y,1/2-z
1/2-x,1/2-y,1/2-z
1/2+x,y,1/2-z
1/2-x,1/2+y,1/2+z
1/2+x,-y,1/2+z
loop_
_atom_site_type_symbol
_atom_site_label
_atom_site_fract_x
_atom_site_fract_y
_atom_site_fract_z
Si Si1 0.710025 0.829988 0.692241
Si Si2 0.716271 0.669269 0.999916
Si Si3 0.783270 0.920714 0.401939
Si Si4 0.211775 0.669868 0.307108
Si Si5 0.207365 0.580032 0.595267
O O1 0.500000 0.827287 0.686760
O O2 0.780096 0.750000 0.685326
O O3 0.750000 0.851541 0.750000
O O4 0.777429 0.882274 0.649407
O O5 0.500000 0.671028 0.999433
O O6 0.775290 0.750000 0.002390
O O7 0.778813 0.630346 0.948960
O O8 0.768326 0.624263 0.048953
O O9 0.723118 0.881332 0.351026
O O10 0.000000 0.921766 0.400976
O O11 0.719959 0.001033 0.404517
O O12 0.280008 0.750000 0.312536
O O13 0.250000 0.645675 0.250000
O O14 0.000000 0.673403 0.312300
O O15 0.000000 0.572304 0.583611
#
# Coordination Sequence:
#
# PCOD9535678 Si02
#       5
#    16  16  16  16  16
#     4  10  21  37  56  76 100 132 169 207 246 293
#     4   9  16  27  47  74 101 131 170 212 249 290
#     4   9  17  29  46  71 102 133 165 204 250 297
#     4   9  17  30  48  68  92 125 165 206 246 291
#     4  10  19  31  50  77 106 132 162 205 255 302
#
# _framework density 21.085197000000001
#
# number of rings (size 3 to 8) (size 9 to 14) (size 15 to 20)
#    0.000    2.600    0.000    2.400    0.000    7.600 
#    0.000    3.000    0.000    3.600    0.000    2.800 
#    0.000    0.000    0.000    0.000    0.000    0.000 
#
# Total GULP energy -223388.371617 kJ/mol
# GULP energy per Si atom -5584.709290 kJ/mol
# Density = 2.103721 g / cm^3
# Si number density = 21.085197 Si / 1000 Ang^3
#
#
#
# Elastic Constant Matrix: (Units=GPa)
#
#
# Indices 1 2 3 4 5 6 
#
# 1 46.2631 1.2373 -10.9155 0.0000 0.0000 0.0000
# 2 1.2373 199.4634 144.6173 0.0000 0.0000 0.0000
# 3 -10.9155 144.6173 189.1564 0.0000 0.0000 0.0000
# 4 0.0000 0.0000 0.0000 2.4970 0.0000 0.0000
# 5 0.0000 0.0000 0.0000 0.0000 17.1314 0.0000
# 6 0.0000 0.0000 0.0000 0.0000 0.0000 -8.1755
#
#
#
# Elastic Compliance Matrix: (Units=1/GPa)
#
#
# Indices 1 2 3 4 5 6 
#
# 1 0.022421 -0.002417 0.003142 0.000000 0.000000 0.000000
# 2 -0.002417 0.011509 -0.008939 0.000000 0.000000 0.000000
# 3 0.003142 -0.008939 0.012302 0.000000 0.000000 0.000000
# 4 0.000000 0.000000 0.000000 0.400476 0.000000 0.000000
# 5 0.000000 0.000000 0.000000 0.000000 0.058372 0.000000
# 6 0.000000 0.000000 0.000000 0.000000 0.000000 -0.122317
#
#
# Mechanical properties :
#
#
# Convention : Reuss Voigt Hill
#
# Bulk Modulus (GPa) = 33.55181 78.30679 55.92930
# Shear Modulus (GPa) = 12.22112 22.28684 17.25398
#
# Velocity S-wave (km/s) = 2.41011 3.25466 2.86369
# Velocity P-wave (km/s) = 4.86743 7.16538 6.12514
#
# Compressibility (1/GPa) = 0.02980465
#
# Stress axis : x y z
#
# Youngs Moduli (GPa) = 44.60027 86.88567 81.28759
#
# Poissons Ratio (x) = 0.20999 -0.25538
# Poissons Ratio (y) = 0.10779 0.72662
# Poissons Ratio (z) = -0.14012 0.77666
#
# Static dielectric constant tensor:
#      x y z
#    x 1.811500 0.000000 0.000000 
#    y 0.000000 1.737280 0.000000 
#    z 0.000000 0.000000 1.718200 
# 
# From -- ./inp_files/58511.got.cif
#   From: 2010.05.17/outbox.cif.g08.bks.cpg/sg74_30_cif.got.tgz:58511.got - 2010.06.03 17:57:02.
