data_PCOD9535938
_publ_section_title
;
Structure prediction by ZEFSAII (Michael W. Deem and Ramdas Pophale) SiO2 
 PCOD9535938
Probable space group: I M M A
;
_chemical_formula_sum "Si O2"
_cell_formula_units_Z 112
_cell_length_a 19.478625
_cell_length_b 17.680533
_cell_length_c 18.823542
_cell_angle_alpha 90.000000
_cell_angle_beta 90.000000
_cell_angle_gamma 90.000000
_cell_volume 6482.686163
_symmetry_space_group_name_H-M "I M M A"
_symmetry_group_IT_number 74
_symmetry_cell_setting 'orthorhombic'
loop_
_space_group_symop_operation_xyz
x,y,z
-x,1/2-y,z
x,-y,-z
-x,1/2+y,-z
-x,-y,-z
x,1/2+y,-z
-x,y,z
x,1/2-y,z
1/2+x,1/2+y,1/2+z
1/2-x,-y,1/2+z
1/2+x,1/2-y,1/2-z
1/2-x,y,1/2-z
1/2-x,1/2-y,1/2-z
1/2+x,y,1/2-z
1/2-x,1/2+y,1/2+z
1/2+x,-y,1/2+z
loop_
_atom_site_type_symbol
_atom_site_label
_atom_site_fract_x
_atom_site_fract_y
_atom_site_fract_z
Si Si1 0.189717 0.163079 0.952383
Si Si2 0.801941 0.337766 0.123855
Si Si3 0.077202 0.946426 0.061369
Si Si4 0.819036 0.572709 0.451139
Si Si5 0.147564 0.839911 0.589625
Si Si6 0.421536 0.061040 0.309509
Si Si7 0.079044 0.483212 0.350561
O O1 0.201964 0.250000 0.934889
O O2 0.118549 0.129420 0.926859
O O3 0.249460 0.109306 0.922775
O O4 0.186748 0.156790 0.038582
O O5 0.808149 0.250000 0.144357
O O6 0.720864 0.358288 0.128422
O O7 0.859264 0.384263 0.166531
O O8 0.000000 0.928571 0.037577
O O9 0.076342 0.996356 0.131331
O O10 0.109111 0.000000 0.000000
O O11 0.802040 0.500000 0.500000
O O12 0.846541 0.635838 0.506733
O O13 0.871511 0.540677 0.392915
O O14 0.135535 0.750000 0.596412
O O15 0.092976 0.897979 0.621279
O O16 0.500000 0.095009 0.307586
O O17 0.408295 0.023570 0.233260
O O18 0.000000 0.503992 0.363466
#
# Coordination Sequence:
#
# PCOD9535938 Si02
#       7
#    16  16  16  16  16  16  16
#     4  10  19  32  54  81 107 135 173 224 272 314
#     4   9  18  32  51  77 110 142 174 211 262 320
#     4  10  19  32  52  77 107 143 184 224 260 306
#     4   9  18  33  56  78 102 136 174 224 266 318
#     4   9  19  35  55  81 109 139 173 220 276 327
#     4  10  21  35  51  75 111 149 183 217 261 317
#     4  10  22  37  53  77 107 143 182 222 270 326
#
# _framework density 17.276789000000001
#
# number of rings (size 3 to 8) (size 9 to 14) (size 15 to 20)
#    0.000    2.429    1.429    1.714    4.000    4.571 
#    0.000    4.286    0.000    3.857    0.000    4.000 
#    0.000    0.000    0.000    0.000    0.000    0.000 
#
# Total GULP energy -311874.107189 kJ/mol
# GULP energy per Si atom -5569.180486 kJ/mol
# Density = 1.723747 g / cm^3
# Si number density = 17.276789 Si / 1000 Ang^3
#
#
#
# Elastic Constant Matrix: (Units=GPa)
#
#
# Indices 1 2 3 4 5 6 
#
# 1 100.5980 58.1000 38.3259 0.0000 0.0000 0.0000
# 2 58.1000 74.1020 26.5917 0.0000 0.0000 0.0000
# 3 38.3259 26.5917 59.2272 0.0000 0.0000 0.0000
# 4 0.0000 0.0000 0.0000 13.5415 0.0000 0.0000
# 5 0.0000 0.0000 0.0000 0.0000 25.9500 0.0000
# 6 0.0000 0.0000 0.0000 0.0000 0.0000 -1.0030
#
#
#
# Elastic Compliance Matrix: (Units=1/GPa)
#
#
# Indices 1 2 3 4 5 6 
#
# 1 0.020451 -0.013453 -0.007194 0.000000 0.000000 0.000000
# 2 -0.013453 0.024937 -0.002490 0.000000 0.000000 0.000000
# 3 -0.007194 -0.002490 0.022657 0.000000 0.000000 0.000000
# 4 0.000000 0.000000 0.000000 0.073847 0.000000 0.000000
# 5 0.000000 0.000000 0.000000 0.000000 0.038536 0.000000
# 6 0.000000 0.000000 0.000000 0.000000 0.000000 -0.997018
#
#
# Mechanical properties :
#
#
# Convention : Reuss Voigt Hill
#
# Bulk Modulus (GPa) = 45.93401 53.32917 49.63159
# Shear Modulus (GPa) = -6.55257 15.09167 4.26955
#
# Velocity S-wave (km/s) = -1.94960 2.95875 1.57373
# Velocity P-wave (km/s) = 4.64510 6.52739 5.66497
#
# Compressibility (1/GPa) = 0.02177036
#
# Stress axis : x y z
#
# Youngs Moduli (GPa) = 48.89708 40.10146 44.13584
#
# Poissons Ratio (x) = 0.53950 0.31750
# Poissons Ratio (y) = 0.65783 0.10992
# Poissons Ratio (z) = 0.35175 0.09987
#
# Static dielectric constant tensor:
#      x y z
#    x 1.640460 0.000000 0.000000 
#    y 0.000000 1.578880 0.000000 
#    z 0.000000 0.000000 1.600870 
# 
# From -- ./inp_files/53228.got.cif
#   From: 2010.05.17/outbox.cif.g08.bks.cpg/sg74_27_cif.got.tgz:53228.got - 2010.06.03 17:57:02.
