data_PCOD9535823
_publ_section_title
;
Structure prediction by ZEFSAII (Michael W. Deem and Ramdas Pophale) SiO2 
 PCOD9535823
Probable space group: I M M A
;
_chemical_formula_sum "Si O2"
_cell_formula_units_Z 80
_cell_length_a 19.855564
_cell_length_b 8.408252
_cell_length_c 27.020981
_cell_angle_alpha 90.000000
_cell_angle_beta 90.000000
_cell_angle_gamma 90.000000
_cell_volume 4511.168605
_symmetry_space_group_name_H-M "I M M A"
_symmetry_group_IT_number 74
_symmetry_cell_setting 'orthorhombic'
loop_
_space_group_symop_operation_xyz
x,y,z
-x,1/2-y,z
x,-y,-z
-x,1/2+y,-z
-x,-y,-z
x,1/2+y,-z
-x,y,z
x,1/2-y,z
1/2+x,1/2+y,1/2+z
1/2-x,-y,1/2+z
1/2+x,1/2-y,1/2-z
1/2-x,y,1/2-z
1/2-x,1/2-y,1/2-z
1/2+x,y,1/2-z
1/2-x,1/2+y,1/2+z
1/2+x,-y,1/2+z
loop_
_atom_site_type_symbol
_atom_site_label
_atom_site_fract_x
_atom_site_fract_y
_atom_site_fract_z
Si Si1 0.173455 0.939059 0.054080
Si Si2 0.077974 0.555073 0.642714
Si Si3 0.674424 0.059300 0.054148
Si Si4 0.918086 0.934087 0.750735
Si Si5 0.578142 0.057007 0.358832
O O1 0.175071 0.750000 0.053002
O O2 0.249247 0.001974 0.062208
O O3 0.124760 0.997989 0.097266
O O4 0.151231 0.000000 0.000000
O O5 0.078852 0.750000 0.644334
O O6 0.125615 0.503850 0.598092
O O7 0.101118 0.497241 0.697262
O O8 0.000000 0.508979 0.634985
O O9 0.674371 0.250000 0.053680
O O10 0.652582 0.000000 0.000000
O O11 0.895424 0.750000 0.750748
O O12 0.898903 0.002532 0.804215
O O13 0.000000 0.932090 0.750669
O O14 0.500000 0.010146 0.366223
O O15 0.579645 0.250000 0.357490
#
# Coordination Sequence:
#
# PCOD9535823 Si02
#       5
#    16  16  16  16  16
#     4  11  22  36  52  68  93 128 163 199 238 284
#     4   8  14  26  47  75 101 125 158 199 238 277
#     4  10  19  32  50  70  96 129 163 200 241 285
#     4   7  11  23  45  72  99 124 152 190 234 277
#     4   9  17  31  53  78 100 122 153 195 239 283
#
# _framework density 17.733764999999998
#
# number of rings (size 3 to 8) (size 9 to 14) (size 15 to 20)
#    0.000    3.000    0.000    6.000    0.000    1.200 
#    0.000    1.000    0.000   10.200    0.000    5.600 
#    0.000    0.000    0.000    0.000    0.000    0.000 
#
# Total GULP energy -222776.410713 kJ/mol
# GULP energy per Si atom -5569.410268 kJ/mol
# Density = 1.769340 g / cm^3
# Si number density = 17.733765 Si / 1000 Ang^3
#
#
#
# Elastic Constant Matrix: (Units=GPa)
#
#
# Indices 1 2 3 4 5 6 
#
# 1 62.4050 17.8434 101.5625 0.0000 0.0000 0.0000
# 2 17.8434 35.8367 32.8672 0.0000 0.0000 0.0000
# 3 101.5625 32.8672 232.2015 0.0000 0.0000 0.0000
# 4 0.0000 0.0000 0.0000 22.4989 0.0000 0.0000
# 5 0.0000 0.0000 0.0000 0.0000 -7.9638 0.0000
# 6 0.0000 0.0000 0.0000 0.0000 0.0000 13.5472
#
#
#
# Elastic Compliance Matrix: (Units=1/GPa)
#
#
# Indices 1 2 3 4 5 6 
#
# 1 0.056828 -0.006319 -0.023962 0.000000 0.000000 0.000000
# 2 -0.006319 0.032770 -0.001875 0.000000 0.000000 0.000000
# 3 -0.023962 -0.001875 0.015052 0.000000 0.000000 0.000000
# 4 0.000000 0.000000 0.000000 0.044447 0.000000 0.000000
# 5 0.000000 0.000000 0.000000 0.000000 -0.125568 0.000000
# 6 0.000000 0.000000 0.000000 0.000000 0.000000 0.073816
#
#
# Mechanical properties :
#
#
# Convention : Reuss Voigt Hill
#
# Bulk Modulus (GPa) = 24.78931 70.55438 47.67185
# Shear Modulus (GPa) = 28.55482 17.49447 23.02464
#
# Velocity S-wave (km/s) = 4.01708 3.14428 3.60717
# Velocity P-wave (km/s) = 5.96027 7.28380 6.65502
#
# Compressibility (1/GPa) = 0.04033996
#
# Stress axis : x y z
#
# Youngs Moduli (GPa) = 17.59698 30.51586 66.43433
#
# Poissons Ratio (x) = 0.19283 1.59187
# Poissons Ratio (y) = 0.11120 0.12453
# Poissons Ratio (z) = 0.42165 0.05720
#
# Static dielectric constant tensor:
#      x y z
#    x 1.575130 0.000000 0.000000 
#    y 0.000000 1.622880 0.000000 
#    z 0.000000 0.000000 1.642000 
# 
# From -- ./inp_files/67508.got.cif
#   From: 2010.05.17/outbox.cif.g08.bks.cpg/sg74_34_cif.got.tgz:67508.got - 2010.06.03 17:57:02.
