data_PCOD9535925
_publ_section_title
;
Structure prediction by ZEFSAII (Michael W. Deem and Ramdas Pophale) SiO2 
 PCOD9535925
Probable space group: I M M A
;
_chemical_formula_sum "Si O2"
_cell_formula_units_Z 112
_cell_length_a 29.967196
_cell_length_b 19.643921
_cell_length_c 11.560005
_cell_angle_alpha 90.000000
_cell_angle_beta 90.000000
_cell_angle_gamma 90.000000
_cell_volume 6805.065492
_symmetry_space_group_name_H-M "I M M A"
_symmetry_group_IT_number 74
_symmetry_cell_setting 'orthorhombic'
loop_
_space_group_symop_operation_xyz
x,y,z
-x,1/2-y,z
x,-y,-z
-x,1/2+y,-z
-x,-y,-z
x,1/2+y,-z
-x,y,z
x,1/2-y,z
1/2+x,1/2+y,1/2+z
1/2-x,-y,1/2+z
1/2+x,1/2-y,1/2-z
1/2-x,y,1/2-z
1/2-x,1/2-y,1/2-z
1/2+x,y,1/2-z
1/2-x,1/2+y,1/2+z
1/2+x,-y,1/2+z
loop_
_atom_site_type_symbol
_atom_site_label
_atom_site_fract_x
_atom_site_fract_y
_atom_site_fract_z
Si Si1 0.353808 0.945169 0.605324
Si Si2 0.804073 0.829929 0.033686
Si Si3 0.206884 0.964763 0.683131
Si Si4 0.451274 0.574585 0.558270
Si Si5 0.358409 0.330911 0.770969
Si Si6 0.208134 0.395217 0.553397
Si Si7 0.949937 0.331493 0.833760
O O1 0.326248 0.879781 0.560256
O O2 0.331151 0.973425 0.721021
O O3 0.405247 0.925392 0.627794
O O4 0.351903 0.000000 0.500000
O O5 0.809118 0.750000 0.006080
O O6 0.829950 0.843365 0.154195
O O7 0.752198 0.848841 0.049905
O O8 0.250000 0.937427 0.750000
O O9 0.195078 0.916188 0.576474
O O10 0.220115 0.036129 0.623903
O O11 0.452965 0.500000 0.500000
O O12 0.500000 0.585767 0.614829
O O13 0.446300 0.629410 0.455302
O O14 0.359669 0.250000 0.788311
O O15 0.332734 0.363141 0.877641
O O16 0.408951 0.354425 0.746175
O O17 0.945578 0.250000 0.851889
O O18 0.000000 0.344677 0.788193
#
# Coordination Sequence:
#
# PCOD9535925 Si02
#       7
#    16  16  16  16  16  16  16
#     4  11  20  34  56  77 106 140 172 214 264 313
#     4  11  21  34  53  80 107 134 170 216 266 311
#     4  11  22  35  52  74  99 139 185 211 251 312
#     4   9  18  30  49  79 106 132 166 209 262 314
#     4  10  19  32  52  76 102 133 169 211 263 309
#     4  11  22  35  51  72 105 139 178 216 250 308
#     4   9  17  30  50  77 106 133 167 215 265 310
#
# _framework density 16.458328000000002
#
# number of rings (size 3 to 8) (size 9 to 14) (size 15 to 20)
#    0.000    1.714    2.857    3.429    2.000    1.143 
#    0.000    2.143    0.000    0.857    0.000    2.000 
#    0.000    0.000    0.000    0.000    0.000    0.000 
#
# Total GULP energy -312281.995730 kJ/mol
# GULP energy per Si atom -5576.464209 kJ/mol
# Density = 1.642087 g / cm^3
# Si number density = 16.458328 Si / 1000 Ang^3
#
#
#
# Elastic Constant Matrix: (Units=GPa)
#
#
# Indices 1 2 3 4 5 6 
#
# 1 115.0872 15.3193 25.9623 0.0000 0.0000 0.0000
# 2 15.3193 45.4289 17.0925 0.0000 0.0000 0.0000
# 3 25.9623 17.0925 65.0860 0.0000 0.0000 0.0000
# 4 0.0000 0.0000 0.0000 20.0629 0.0000 0.0000
# 5 0.0000 0.0000 0.0000 0.0000 16.2274 0.0000
# 6 0.0000 0.0000 0.0000 0.0000 0.0000 23.7907
#
#
#
# Elastic Compliance Matrix: (Units=1/GPa)
#
#
# Indices 1 2 3 4 5 6 
#
# 1 0.009712 -0.002017 -0.003344 0.000000 0.000000 0.000000
# 2 -0.002017 0.024845 -0.005720 0.000000 0.000000 0.000000
# 3 -0.003344 -0.005720 0.018201 0.000000 0.000000 0.000000
# 4 0.000000 0.000000 0.000000 0.049843 0.000000 0.000000
# 5 0.000000 0.000000 0.000000 0.000000 0.061624 0.000000
# 6 0.000000 0.000000 0.000000 0.000000 0.000000 0.042033
#
#
# Mechanical properties :
#
#
# Convention : Reuss Voigt Hill
#
# Bulk Modulus (GPa) = 32.68539 38.03892 35.36216
# Shear Modulus (GPa) = 20.95393 23.16471 22.05932
#
# Velocity S-wave (km/s) = 3.57199 3.75571 3.66500
# Velocity P-wave (km/s) = 6.07575 6.47839 6.28030
#
# Compressibility (1/GPa) = 0.03059471
#
# Stress axis : x y z
#
# Youngs Moduli (GPa) = 102.96574 40.25015 54.94342
#
# Poissons Ratio (x) = 0.08117 0.18375
# Poissons Ratio (y) = 0.20765 0.31428
# Poissons Ratio (z) = 0.34436 0.23024
#
# Static dielectric constant tensor:
#      x y z
#    x 1.588220 0.000000 0.000000 
#    y 0.000000 1.583250 0.000000 
#    z 0.000000 0.000000 1.522630 
# 
# From -- ./inp_files/24363.got.cif
#   From: 2010.05.17/outbox.cif.g08.bks.cpg/sg74_13_cif.got.tgz:24363.got - 2010.06.03 17:57:02.
