data_PCOD9535875
_publ_section_title
;
Structure prediction by ZEFSAII (Michael W. Deem and Ramdas Pophale) SiO2 
 PCOD9535875
Probable space group: I M M A
;
_chemical_formula_sum "Si O2"
_cell_formula_units_Z 80
_cell_length_a 8.583020
_cell_length_b 19.213259
_cell_length_c 27.715125
_cell_angle_alpha 90.000000
_cell_angle_beta 90.000000
_cell_angle_gamma 90.000000
_cell_volume 4570.439910
_symmetry_space_group_name_H-M "I M M A"
_symmetry_group_IT_number 74
_symmetry_cell_setting 'orthorhombic'
loop_
_space_group_symop_operation_xyz
x,y,z
-x,1/2-y,z
x,-y,-z
-x,1/2+y,-z
-x,-y,-z
x,1/2+y,-z
-x,y,z
x,1/2-y,z
1/2+x,1/2+y,1/2+z
1/2-x,-y,1/2+z
1/2+x,1/2-y,1/2-z
1/2-x,y,1/2-z
1/2-x,1/2-y,1/2-z
1/2+x,y,1/2-z
1/2-x,1/2+y,1/2+z
1/2+x,-y,1/2+z
loop_
_atom_site_type_symbol
_atom_site_label
_atom_site_fract_x
_atom_site_fract_y
_atom_site_fract_z
Si Si1 0.186564 0.171370 0.804289
Si Si2 0.313727 0.034073 0.849281
Si Si3 0.810694 0.466271 0.450450
Si Si4 0.185201 0.602322 0.802236
Si Si5 0.311409 0.828533 0.898847
O O1 0.227142 0.250000 0.820174
O O2 0.250000 0.162962 0.750000
O O3 0.258873 0.110808 0.836247
O O4 0.000000 0.165039 0.803618
O O5 0.500000 0.028215 0.844463
O O6 0.270416 0.012384 0.903736
O O7 0.237373 0.976759 0.814257
O O8 0.752467 0.500000 0.500000
O O9 0.759981 0.387801 0.436899
O O10 0.000000 0.464661 0.453224
O O11 0.250000 0.622805 0.750000
O O12 0.252709 0.648026 0.846159
O O13 0.000000 0.606831 0.802160
O O14 0.500000 0.830040 0.897648
O O15 0.261238 0.750000 0.910095
#
# Coordination Sequence:
#
# PCOD9535875 Si02
#       5
#    16  16  16  16  16
#     4  10  20  33  49  70  99 134 169 205 247 295
#     4  10  19  32  51  74 100 129 165 208 249 293
#     4   8  15  30  52  76  99 125 161 206 251 292
#     4  11  21  33  50  72 100 133 168 203 242 292
#     4   9  18  33  52  74 101 132 166 205 248 292
#
# _framework density 17.503785000000001
#
# number of rings (size 3 to 8) (size 9 to 14) (size 15 to 20)
#    0.000    2.400    0.000    4.800    0.000    2.000 
#    0.000    1.000    0.000   18.600    0.000    0.000 
#    0.000    0.000    0.000    0.000    0.000    0.000 
#
# Total GULP energy -223139.212160 kJ/mol
# GULP energy per Si atom -5578.480304 kJ/mol
# Density = 1.746395 g / cm^3
# Si number density = 17.503785 Si / 1000 Ang^3
#
#
#
# Elastic Constant Matrix: (Units=GPa)
#
#
# Indices 1 2 3 4 5 6 
#
# 1 31.8173 23.8226 14.2637 0.0000 0.0000 0.0000
# 2 23.8226 158.0934 70.6322 0.0000 0.0000 0.0000
# 3 14.2637 70.6322 103.2020 0.0000 0.0000 0.0000
# 4 0.0000 0.0000 0.0000 11.9555 0.0000 0.0000
# 5 0.0000 0.0000 0.0000 0.0000 16.9463 0.0000
# 6 0.0000 0.0000 0.0000 0.0000 0.0000 24.9168
#
#
#
# Elastic Compliance Matrix: (Units=1/GPa)
#
#
# Indices 1 2 3 4 5 6 
#
# 1 0.035657 -0.004568 -0.001802 0.000000 0.000000 0.000000
# 2 -0.004568 0.009697 -0.006005 0.000000 0.000000 0.000000
# 3 -0.001802 -0.006005 0.014049 0.000000 0.000000 0.000000
# 4 0.000000 0.000000 0.000000 0.083644 0.000000 0.000000
# 5 0.000000 0.000000 0.000000 0.000000 0.059010 0.000000
# 6 0.000000 0.000000 0.000000 0.000000 0.000000 0.040134
#
#
# Mechanical properties :
#
#
# Convention : Reuss Voigt Hill
#
# Bulk Modulus (GPa) = 28.85773 56.72776 42.79275
# Shear Modulus (GPa) = 17.95389 23.05664 20.50526
#
# Velocity S-wave (km/s) = 3.20615 3.63331 3.42640
# Velocity P-wave (km/s) = 5.49802 7.07676 6.33675
#
# Compressibility (1/GPa) = 0.03465276
#
# Stress axis : x y z
#
# Youngs Moduli (GPa) = 28.04460 103.12826 71.18094
#
# Poissons Ratio (x) = 0.47110 0.12826
# Poissons Ratio (y) = 0.12811 0.42745
# Poissons Ratio (z) = 0.05053 0.61930
#
# Static dielectric constant tensor:
#      x y z
#    x 1.594190 0.000000 0.000000 
#    y 0.000000 1.608700 0.000000 
#    z 0.000000 0.000000 1.574580 
# 
# From -- ./inp_files/63923.got.cif
#   From: 2010.05.17/outbox.cif.g08.bks.cpg/sg74_32_cif.got.tgz:63923.got - 2010.06.03 17:57:02.
