data_PCOD9535200
_publ_section_title
;
Structure prediction by ZEFSAII (Michael W. Deem and Ramdas Pophale) SiO2 
 PCOD9535200
Probable space group: I M M A
;
_chemical_formula_sum "Si O2"
_cell_formula_units_Z 80
_cell_length_a 24.350617
_cell_length_b 13.857060
_cell_length_c 13.794015
_cell_angle_alpha 90.000000
_cell_angle_beta 90.000000
_cell_angle_gamma 90.000000
_cell_volume 4654.486353
_symmetry_space_group_name_H-M "I M M A"
_symmetry_group_IT_number 74
_symmetry_cell_setting 'orthorhombic'
loop_
_space_group_symop_operation_xyz
x,y,z
-x,1/2-y,z
x,-y,-z
-x,1/2+y,-z
-x,-y,-z
x,1/2+y,-z
-x,y,z
x,1/2-y,z
1/2+x,1/2+y,1/2+z
1/2-x,-y,1/2+z
1/2+x,1/2-y,1/2-z
1/2-x,y,1/2-z
1/2-x,1/2-y,1/2-z
1/2+x,y,1/2-z
1/2-x,1/2+y,1/2+z
1/2+x,-y,1/2+z
loop_
_atom_site_type_symbol
_atom_site_label
_atom_site_fract_x
_atom_site_fract_y
_atom_site_fract_z
Si Si1 0.116476 0.953478 0.258889
Si Si2 0.500000 0.366803 0.789229
Si Si3 0.712587 0.638498 0.347630
Si Si4 0.180395 0.366192 0.556686
Si Si5 0.500000 0.133901 0.015055
Si Si6 0.889515 0.864861 0.628506
O O1 0.158920 0.922728 0.175730
O O2 0.141272 0.908984 0.359606
O O3 0.055990 0.909741 0.245599
O O4 0.115311 0.067538 0.278637
O O5 0.500000 0.250000 0.783267
O O6 0.500000 0.396060 0.903383
O O7 0.696931 0.750000 0.365414
O O8 0.750000 0.637505 0.250000
O O9 0.756511 0.604592 0.427129
O O10 0.177955 0.250000 0.570076
O O11 0.157908 0.386479 0.450006
O O12 0.500000 0.250000 0.011745
O O13 0.554459 0.106857 0.072909
O O14 0.890074 0.750000 0.647761
#
# Coordination Sequence:
#
# PCOD9535200 Si02
#       6
#    16   8  16  16   8  16
#     4  11  18  25  40  58  80 108 136 164 200 237
#     4  11  19  25  38  60  85 109 134 165 199 238
#     4   8  15  27  41  55  73 100 134 170 205 243
#     4   9  16  27  41  56  74  99 135 172 205 241
#     4   9  17  27  35  50  83 113 133 159 191 227
#     4  10  19  28  38  57  82 111 144 170 193 229
#
# _framework density 17.187718
#
# number of rings (size 3 to 8) (size 9 to 14) (size 15 to 20)
#    0.000    2.400    2.000    4.200    0.000    0.800 
#    0.000    0.000    0.000    5.400    0.000    0.000 
#    0.000    0.000    0.000   34.200    0.000   78.600 
#
# Total GULP energy -223070.517173 kJ/mol
# GULP energy per Si atom -5576.762929 kJ/mol
# Density = 1.714860 g / cm^3
# Si number density = 17.187718 Si / 1000 Ang^3
#
#
#
# Elastic Constant Matrix: (Units=GPa)
#
#
# Indices 1 2 3 4 5 6 
#
# 1 148.9975 53.6638 34.6984 0.0000 0.0000 0.0000
# 2 53.6638 80.6116 22.5790 0.0000 0.0000 0.0000
# 3 34.6984 22.5790 15.4808 0.0000 0.0000 0.0000
# 4 0.0000 0.0000 0.0000 11.9596 0.0000 0.0000
# 5 0.0000 0.0000 0.0000 0.0000 5.0980 0.0000
# 6 0.0000 0.0000 0.0000 0.0000 0.0000 13.2434
#
#
#
# Elastic Compliance Matrix: (Units=1/GPa)
#
#
# Indices 1 2 3 4 5 6 
#
# 1 0.014079 -0.000902 -0.030239 0.000000 0.000000 0.000000
# 2 -0.000902 0.021031 -0.028652 0.000000 0.000000 0.000000
# 3 -0.030239 -0.028652 0.174163 0.000000 0.000000 0.000000
# 4 0.000000 0.000000 0.000000 0.083615 0.000000 0.000000
# 5 0.000000 0.000000 0.000000 0.000000 0.196154 0.000000
# 6 0.000000 0.000000 0.000000 0.000000 0.000000 0.075509
#
#
# Mechanical properties :
#
#
# Convention : Reuss Voigt Hill
#
# Bulk Modulus (GPa) = 11.15006 51.88582 31.51794
# Shear Modulus (GPa) = 7.00248 15.00347 11.00298
#
# Velocity S-wave (km/s) = 2.02063 2.95772 2.53289
# Velocity P-wave (km/s) = 3.45619 6.47437 5.18954
#
# Compressibility (1/GPa) = 0.08968563
#
# Stress axis : x y z
#
# Youngs Moduli (GPa) = 71.02966 47.54873 5.74175
#
# Poissons Ratio (x) = 0.04290 0.17363
# Poissons Ratio (y) = 0.06409 0.16451
# Poissons Ratio (z) = 2.14790 1.36235
#
# Static dielectric constant tensor:
#      x y z
#    x 1.601260 0.000000 0.000000 
#    y 0.000000 1.626720 0.000000 
#    z 0.000000 0.000000 1.555550 
# 
# From -- ./inp_files/24907.got.cif
#   From: 2010.05.17/outbox.cif.g08.bks.cpg/sg74_13_cif.got.tgz:24907.got - 2010.06.03 17:57:02.
