data_PCOD9535033
_publ_section_title
;
Structure prediction by ZEFSAII (Michael W. Deem and Ramdas Pophale) SiO2 
 PCOD9535033
Probable space group: I M M A
;
_chemical_formula_sum "Si O2"
_cell_formula_units_Z 100
_cell_length_a 7.632243
_cell_length_b 32.117084
_cell_length_c 19.274890
_cell_angle_alpha 90.000000
_cell_angle_beta 90.000000
_cell_angle_gamma 90.000000
_cell_volume 4724.764920
_symmetry_space_group_name_H-M "I M M A"
_symmetry_group_IT_number 74
_symmetry_cell_setting 'orthorhombic'
loop_
_space_group_symop_operation_xyz
x,y,z
-x,1/2-y,z
x,-y,-z
-x,1/2+y,-z
-x,-y,-z
x,1/2+y,-z
-x,y,z
x,1/2-y,z
1/2+x,1/2+y,1/2+z
1/2-x,-y,1/2+z
1/2+x,1/2-y,1/2-z
1/2-x,y,1/2-z
1/2-x,1/2-y,1/2-z
1/2+x,y,1/2-z
1/2-x,1/2+y,1/2+z
1/2+x,-y,1/2+z
loop_
_atom_site_type_symbol
_atom_site_label
_atom_site_fract_x
_atom_site_fract_y
_atom_site_fract_z
Si Si1 0.500000 0.750000 0.626261
Si Si2 0.712561 0.374645 0.444875
Si Si3 0.785741 0.544465 0.028618
Si Si4 0.298586 0.205381 0.526951
Si Si5 0.801948 0.320126 0.672515
Si Si6 0.209186 0.583064 0.173134
Si Si7 0.797537 0.316842 0.330855
O O1 0.656068 0.713919 0.634874
O O2 0.500000 0.375407 0.446270
O O3 0.770417 0.417948 0.478208
O O4 0.775977 0.336261 0.493393
O O5 0.775141 0.361223 0.369140
O O6 0.732204 0.555938 0.107354
O O7 0.000000 0.543910 0.028916
O O8 0.726587 0.500000 0.000000
O O9 0.500000 0.208708 0.502346
O O10 0.214420 0.250000 0.511245
O O11 0.303766 0.198823 0.609301
O O12 0.750000 0.307651 0.750000
O O13 0.786465 0.370344 0.669153
O O14 0.000000 0.307496 0.659997
O O15 0.250000 0.566142 0.250000
O O16 0.000000 0.588394 0.167933
O O17 0.750000 0.318741 0.250000
O O18 0.000000 0.303239 0.337895
#
# Coordination Sequence:
#
# PCOD9535033 Si02
#       7
#     4  16  16  16  16  16  16
#     4  12  24  44  66  98 134 170 226 270 322 382
#     4  10  20  39  62  87 125 165 206 260 317 382
#     4   9  18  35  63  93 121 162 209 254 319 395
#     4  10  21  36  56  81 114 155 196 240 298 355
#     4  11  21  34  54  77 110 150 195 242 291 347
#     4  10  18  33  57  86 117 149 196 244 299 353
#     4  12  25  41  65  95 131 174 219 270 327 387
#
# _framework density 21.165075000000002
#
# number of rings (size 3 to 8) (size 9 to 14) (size 15 to 20)
#    0.000    1.600    3.200    3.360    1.120    1.280 
#    0.000    0.800    0.000    6.240    0.000    0.000 
#    0.000    0.000    0.000    0.000    0.000    0.000 
#
# Total GULP energy -278872.857979 kJ/mol
# GULP energy per Si atom -5577.457160 kJ/mol
# Density = 2.111690 g / cm^3
# Si number density = 21.165075 Si / 1000 Ang^3
#
#
#
# Elastic Constant Matrix: (Units=GPa)
#
#
# Indices 1 2 3 4 5 6 
#
# 1 108.4676 20.2863 21.6232 0.0000 0.0000 0.0000
# 2 20.2863 142.4389 54.6963 0.0000 0.0000 0.0000
# 3 21.6232 54.6963 121.0985 0.0000 0.0000 0.0000
# 4 0.0000 0.0000 0.0000 100.4278 0.0000 0.0000
# 5 0.0000 0.0000 0.0000 0.0000 26.5650 0.0000
# 6 0.0000 0.0000 0.0000 0.0000 0.0000 12.2804
#
#
#
# Elastic Compliance Matrix: (Units=1/GPa)
#
#
# Indices 1 2 3 4 5 6 
#
# 1 0.009646 -0.000862 -0.001333 0.000000 0.000000 0.000000
# 2 -0.000862 0.008571 -0.003717 0.000000 0.000000 0.000000
# 3 -0.001333 -0.003717 0.010175 0.000000 0.000000 0.000000
# 4 0.000000 0.000000 0.000000 0.009957 0.000000 0.000000
# 5 0.000000 0.000000 0.000000 0.000000 0.037644 0.000000
# 6 0.000000 0.000000 0.000000 0.000000 0.000000 0.081430
#
#
# Mechanical properties :
#
#
# Convention : Reuss Voigt Hill
#
# Bulk Modulus (GPa) = 60.36012 62.80182 61.58097
# Shear Modulus (GPa) = 28.60902 46.21459 37.41180
#
# Velocity S-wave (km/s) = 3.68055 4.67790 4.20887
# Velocity P-wave (km/s) = 6.82954 7.67553 7.26486
#
# Compressibility (1/GPa) = 0.01656723
#
# Stress axis : x y z
#
# Youngs Moduli (GPa) = 103.66665 116.67643 98.28274
#
# Poissons Ratio (x) = 0.10057 0.13102
# Poissons Ratio (y) = 0.08935 0.36534
# Poissons Ratio (z) = 0.13820 0.43371
#
# Static dielectric constant tensor:
#      x y z
#    x 1.774810 0.000000 0.000000 
#    y 0.000000 1.735890 0.000000 
#    z 0.000000 0.000000 1.856980 
# 
# From -- ./inp_files/49598.got.cif
#   From: 2010.05.17/outbox.cif.g08.bks.cpg/sg74_25_cif.got.tgz:49598.got - 2010.06.03 17:57:02.
