data_PCOD9535514
_publ_section_title
;
Structure prediction by ZEFSAII (Michael W. Deem and Ramdas Pophale) SiO2 
 PCOD9535514
Probable space group: I M M A
;
_chemical_formula_sum "Si O2"
_cell_formula_units_Z 60
_cell_length_a 5.661142
_cell_length_b 21.226315
_cell_length_c 22.228136
_cell_angle_alpha 90.000000
_cell_angle_beta 90.000000
_cell_angle_gamma 90.000000
_cell_volume 2671.048038
_symmetry_space_group_name_H-M "I M M A"
_symmetry_group_IT_number 74
_symmetry_cell_setting 'orthorhombic'
loop_
_space_group_symop_operation_xyz
x,y,z
-x,1/2-y,z
x,-y,-z
-x,1/2+y,-z
-x,-y,-z
x,1/2+y,-z
-x,y,z
x,1/2-y,z
1/2+x,1/2+y,1/2+z
1/2-x,-y,1/2+z
1/2+x,1/2-y,1/2-z
1/2-x,y,1/2-z
1/2-x,1/2-y,1/2-z
1/2+x,y,1/2-z
1/2-x,1/2+y,1/2+z
1/2+x,-y,1/2+z
loop_
_atom_site_type_symbol
_atom_site_label
_atom_site_fract_x
_atom_site_fract_y
_atom_site_fract_z
Si Si1 0.500000 0.149735 0.948791
Si Si2 0.000000 0.506767 0.429009
Si Si3 0.500000 0.676851 0.605185
Si Si4 0.500000 0.890131 0.286110
Si Si5 0.000000 0.022323 0.900606
Si Si6 0.500000 0.750000 0.286552
Si Si7 0.500000 0.655904 0.461252
Si Si8 0.500000 0.827294 0.910325
O O1 0.500000 0.082169 0.916358
O O2 0.751877 0.179714 0.935555
O O3 0.500000 0.143953 0.022001
O O4 0.000000 0.500000 0.500000
O O5 0.743871 0.484707 0.407249
O O6 0.500000 0.750000 0.622111
O O7 0.500000 0.671799 0.532014
O O8 0.240760 0.653654 0.622649
O O9 0.750000 0.896056 0.250000
O O10 0.500000 0.941760 0.337808
O O11 0.500000 0.819726 0.314328
O O12 0.000000 0.079493 0.950666
O O13 0.250000 0.750000 0.250000
O O14 0.500000 0.750000 0.918461
#
# Coordination Sequence:
#
# PCOD9535514 Si02
#       8
#     8   8   8   8   8   4   8   8
#     4   8  14  23  35  48  68  92 123 153 194 248
#     4  10  19  31  46  62  85 113 142 182 235 277
#     4   8  12  18  27  40  59  82 108 136 177 228
#     4  10  19  33  51  69  91 121 153 195 247 299
#     4  10  19  31  46  65  86 107 146 185 226 287
#     4   8  16  30  48  66  88 118 154 188 236 306
#     4   8  14  23  33  48  68  91 113 154 194 233
#     4   8  12  18  29  42  59  84 110 142 183 226
#
# _framework density 22.463093000000001
#
# number of rings (size 3 to 8) (size 9 to 14) (size 15 to 20)
#    0.000    3.200    0.000    1.200    0.000    0.000 
#    1.200    0.000    2.933    0.000    0.000    0.000 
#    0.000    0.000    0.000    0.000    0.000    0.000 
#
# Total GULP energy -167037.349108 kJ/mol
# GULP energy per Si atom -5567.911637 kJ/mol
# Density = 2.241197 g / cm^3
# Si number density = 22.463093 Si / 1000 Ang^3
#
#
#
# Elastic Constant Matrix: (Units=GPa)
#
#
# Indices 1 2 3 4 5 6 
#
# 1 324.5820 11.5196 29.0443 0.0000 0.0000 0.0000
# 2 11.5196 80.7851 -5.3860 0.0000 0.0000 0.0000
# 3 29.0443 -5.3860 37.8292 0.0000 0.0000 0.0000
# 4 0.0000 0.0000 0.0000 10.6167 0.0000 0.0000
# 5 0.0000 0.0000 0.0000 0.0000 24.3661 0.0000
# 6 0.0000 0.0000 0.0000 0.0000 0.0000 -17.1208
#
#
#
# Elastic Compliance Matrix: (Units=1/GPa)
#
#
# Indices 1 2 3 4 5 6 
#
# 1 0.003342 -0.000654 -0.002659 0.000000 0.000000 0.000000
# 2 -0.000654 0.012625 0.002300 0.000000 0.000000 0.000000
# 3 -0.002659 0.002300 0.028804 0.000000 0.000000 0.000000
# 4 0.000000 0.000000 0.000000 0.094191 0.000000 0.000000
# 5 0.000000 0.000000 0.000000 0.000000 0.041041 0.000000
# 6 0.000000 0.000000 0.000000 0.000000 0.000000 -0.058408
#
#
# Mechanical properties :
#
#
# Convention : Reuss Voigt Hill
#
# Bulk Modulus (GPa) = 23.39515 57.06136 40.22825
# Shear Modulus (GPa) = 36.26634 30.77362 33.51998
#
# Velocity S-wave (km/s) = 4.02243 3.70532 3.86712
# Velocity P-wave (km/s) = 5.65780 6.61538 6.15524
#
# Compressibility (1/GPa) = 0.04274390
#
# Stress axis : x y z
#
# Youngs Moduli (GPa) = 299.21989 79.20754 34.71800
#
# Poissons Ratio (x) = 0.05179 0.09232
# Poissons Ratio (y) = 0.19564 -0.07983
# Poissons Ratio (z) = 0.79563 -0.18214
#
# Static dielectric constant tensor:
#      x y z
#    x 1.974350 0.000000 0.000000 
#    y 0.000000 1.830590 0.000000 
#    z 0.000000 0.000000 1.758070 
# 
# From -- ./inp_files/47463.got.cif
#   From: 2010.05.17/outbox.cif.g08.bks.cpg/sg74_24_cif.got.tgz:47463.got - 2010.06.03 17:57:02.
