data_PCOD9535196
_publ_section_title
;
Structure prediction by ZEFSAII (Michael W. Deem and Ramdas Pophale) SiO2 
 PCOD9535196
Probable space group: I M M A
;
_chemical_formula_sum "Si O2"
_cell_formula_units_Z 96
_cell_length_a 9.163695
_cell_length_b 27.555950
_cell_length_c 32.691329
_cell_angle_alpha 90.000000
_cell_angle_beta 90.000000
_cell_angle_gamma 90.000000
_cell_volume 8255.028753
_symmetry_space_group_name_H-M "I M M A"
_symmetry_group_IT_number 74
_symmetry_cell_setting 'orthorhombic'
loop_
_space_group_symop_operation_xyz
x,y,z
-x,1/2-y,z
x,-y,-z
-x,1/2+y,-z
-x,-y,-z
x,1/2+y,-z
-x,y,z
x,1/2-y,z
1/2+x,1/2+y,1/2+z
1/2-x,-y,1/2+z
1/2+x,1/2-y,1/2-z
1/2-x,y,1/2-z
1/2-x,1/2-y,1/2-z
1/2+x,y,1/2-z
1/2-x,1/2+y,1/2+z
1/2+x,-y,1/2+z
loop_
_atom_site_type_symbol
_atom_site_label
_atom_site_fract_x
_atom_site_fract_y
_atom_site_fract_z
Si Si1 0.172791 0.807972 0.793217
Si Si2 0.672590 0.807284 0.550133
Si Si3 0.167419 0.031716 0.957883
Si Si4 0.167730 0.386291 0.498636
Si Si5 0.176127 0.145468 0.371246
Si Si6 0.166949 0.549610 0.584950
O O1 0.187607 0.750000 0.800645
O O2 0.250000 0.818495 0.750000
O O3 0.252911 0.836042 0.829599
O O4 0.000000 0.818905 0.791849
O O5 0.500000 0.817665 0.554642
O O6 0.691369 0.750000 0.543817
O O7 0.739224 0.839282 0.513514
O O8 0.755820 0.823697 0.591363
O O9 0.261152 0.079552 0.967111
O O10 0.000000 0.044030 0.949812
O O11 0.233197 0.996655 0.923343
O O12 0.171269 0.000000 0.000000
O O13 0.168114 0.418926 0.457117
O O14 0.000000 0.374288 0.507694
O O15 0.210455 0.088969 0.381015
O O16 0.000000 0.150534 0.371287
O O17 0.000000 0.534192 0.591868
#
# Coordination Sequence:
#
# PCOD9535196 Si02
#       6
#    16  16  16  16  16  16
#     4  10  20  32  44  56  69  86 109 137 169 206
#     4  10  19  28  37  50  68  88 111 140 171 202
#     4   9  15  22  34  50  66  84 105 129 157 191
#     4   9  16  25  36  48  64  86 109 133 161 195
#     4  10  19  29  41  55  70  87 107 134 168 206
#     4   8  15  25  35  49  67  85 104 127 158 195
#
# _framework density 11.629276000000001
#
# number of rings (size 3 to 8) (size 9 to 14) (size 15 to 20)
#    0.000    2.667    0.000    4.000    0.000   11.000 
#    0.000    0.000    0.000    0.000    0.000    0.000 
#    0.000    0.000    0.000    0.000    0.000    0.000 
#
# Total GULP energy -267344.613864 kJ/mol
# GULP energy per Si atom -5569.679456 kJ/mol
# Density = 1.160281 g / cm^3
# Si number density = 11.629276 Si / 1000 Ang^3
#
#
#
# Elastic Constant Matrix: (Units=GPa)
#
#
# Indices 1 2 3 4 5 6 
#
# 1 94.8443 55.3446 42.3949 0.0000 0.0000 0.0000
# 2 55.3446 63.5072 43.0147 0.0000 0.0000 0.0000
# 3 42.3949 43.0147 42.1867 0.0000 0.0000 0.0000
# 4 0.0000 0.0000 0.0000 21.5790 0.0000 0.0000
# 5 0.0000 0.0000 0.0000 0.0000 15.4780 0.0000
# 6 0.0000 0.0000 0.0000 0.0000 0.0000 20.0093
#
#
#
# Elastic Compliance Matrix: (Units=1/GPa)
#
#
# Indices 1 2 3 4 5 6 
#
# 1 0.022338 -0.013776 -0.008401 0.000000 0.000000 0.000000
# 2 -0.013776 0.059392 -0.046713 0.000000 0.000000 0.000000
# 3 -0.008401 -0.046713 0.079777 0.000000 0.000000 0.000000
# 4 0.000000 0.000000 0.000000 0.046341 0.000000 0.000000
# 5 0.000000 0.000000 0.000000 0.000000 0.064608 0.000000
# 6 0.000000 0.000000 0.000000 0.000000 0.000000 0.049977
#
#
# Mechanical properties :
#
#
# Convention : Reuss Voigt Hill
#
# Bulk Modulus (GPa) = 42.14976 53.56073 47.85525
# Shear Modulus (GPa) = 10.68096 15.39886 13.03991
#
# Velocity S-wave (km/s) = 3.03389 3.64283 3.35221
# Velocity P-wave (km/s) = 6.97107 7.99064 7.49821
#
# Compressibility (1/GPa) = 0.02372493
#
# Stress axis : x y z
#
# Youngs Moduli (GPa) = 44.76689 16.83734 12.53494
#
# Poissons Ratio (x) = 0.23196 0.10531
# Poissons Ratio (y) = 0.61673 0.58555
# Poissons Ratio (z) = 0.37610 0.78653
#
# Static dielectric constant tensor:
#      x y z
#    x 1.391360 0.000000 0.000000 
#    y 0.000000 1.371760 0.000000 
#    z 0.000000 0.000000 1.351140 
# 
# From -- ./inp_files/64913.got.cif
#   From: 2010.05.17/outbox.cif.g08.bks.cpg/sg74_33_cif.got.tgz:64913.got - 2010.06.03 17:57:02.
