data_PCOD9535339
_publ_section_title
;
Structure prediction by ZEFSAII (Michael W. Deem and Ramdas Pophale) SiO2 
 PCOD9535339
Probable space group: I M M A
;
_chemical_formula_sum "Si O2"
_cell_formula_units_Z 80
_cell_length_a 13.707499
_cell_length_b 13.837704
_cell_length_c 22.721558
_cell_angle_alpha 90.000000
_cell_angle_beta 90.000000
_cell_angle_gamma 90.000000
_cell_volume 4309.832250
_symmetry_space_group_name_H-M "I M M A"
_symmetry_group_IT_number 74
_symmetry_cell_setting 'orthorhombic'
loop_
_space_group_symop_operation_xyz
x,y,z
-x,1/2-y,z
x,-y,-z
-x,1/2+y,-z
-x,-y,-z
x,1/2+y,-z
-x,y,z
x,1/2-y,z
1/2+x,1/2+y,1/2+z
1/2-x,-y,1/2+z
1/2+x,1/2-y,1/2-z
1/2-x,y,1/2-z
1/2-x,1/2-y,1/2-z
1/2+x,y,1/2-z
1/2-x,1/2+y,1/2+z
1/2+x,-y,1/2+z
loop_
_atom_site_type_symbol
_atom_site_label
_atom_site_fract_x
_atom_site_fract_y
_atom_site_fract_z
Si Si1 0.618308 0.860208 0.719141
Si Si2 0.702478 0.633780 0.339430
Si Si3 0.885252 0.867427 0.037253
Si Si4 0.614030 0.867470 0.590922
Si Si5 0.386391 0.051156 0.778313
O O1 0.500000 0.860251 0.714108
O O2 0.646779 0.750000 0.731352
O O3 0.656199 0.893168 0.654754
O O4 0.640332 0.938583 0.768486
O O5 0.700251 0.750000 0.339006
O O6 0.667024 0.599048 0.403405
O O7 0.633698 0.598105 0.286013
O O8 0.810812 0.598968 0.322838
O O9 0.880115 0.750000 0.037662
O O10 0.000000 0.891676 0.040755
O O11 0.846349 0.898283 0.972819
O O12 0.500000 0.895902 0.590499
O O13 0.615411 0.750000 0.591503
O O14 0.500000 0.061122 0.793606
#
# Coordination Sequence:
#
# PCOD9535339 Si02
#       5
#    16  16  16  16  16
#     4   8  14  26  44  65  90 117 141 171 216 269
#     4  10  20  31  42  59  86 119 155 190 219 251
#     4   8  13  23  41  63  88 119 149 177 213 256
#     4   7  10  19  38  63  88 114 141 167 206 264
#     4  10  19  30  44  62  86 116 149 183 219 260
#
# _framework density 18.562207000000001
#
# number of rings (size 3 to 8) (size 9 to 14) (size 15 to 20)
#    0.000    3.400    0.000    4.200    0.000    2.400 
#    0.000    3.000    0.000    4.800    0.000    0.000 
#    0.000   17.600    0.000   40.000    0.000    7.000 
#
# Total GULP energy -222998.576443 kJ/mol
# GULP energy per Si atom -5574.964411 kJ/mol
# Density = 1.851996 g / cm^3
# Si number density = 18.562207 Si / 1000 Ang^3
#
#
#
# Elastic Constant Matrix: (Units=GPa)
#
#
# Indices 1 2 3 4 5 6 
#
# 1 67.7924 -0.5762 28.6300 0.0000 0.0000 0.0000
# 2 -0.5762 80.2945 13.7685 0.0000 0.0000 0.0000
# 3 28.6300 13.7685 75.5481 0.0000 0.0000 0.0000
# 4 0.0000 0.0000 0.0000 27.0797 0.0000 0.0000
# 5 0.0000 0.0000 0.0000 0.0000 20.1644 0.0000
# 6 0.0000 0.0000 0.0000 0.0000 0.0000 8.4160
#
#
#
# Elastic Compliance Matrix: (Units=1/GPa)
#
#
# Indices 1 2 3 4 5 6 
#
# 1 0.017696 0.001318 -0.006946 0.000000 0.000000 0.000000
# 2 0.001318 0.012954 -0.002860 0.000000 0.000000 0.000000
# 3 -0.006946 -0.002860 0.016390 0.000000 0.000000 0.000000
# 4 0.000000 0.000000 0.000000 0.036928 0.000000 0.000000
# 5 0.000000 0.000000 0.000000 0.000000 0.049592 0.000000
# 6 0.000000 0.000000 0.000000 0.000000 0.000000 0.118821
#
#
# Mechanical properties :
#
#
# Convention : Reuss Voigt Hill
#
# Bulk Modulus (GPa) = 33.26350 34.14219 33.70285
# Shear Modulus (GPa) = 17.89682 23.25286 20.57484
#
# Velocity S-wave (km/s) = 3.10845 3.54319 3.33292
# Velocity P-wave (km/s) = 5.55358 5.93062 5.74519
#
# Compressibility (1/GPa) = 0.03006298
#
# Stress axis : x y z
#
# Youngs Moduli (GPa) = 56.51104 77.19566 61.01174
#
# Poissons Ratio (x) = -0.10175 0.42380
# Poissons Ratio (y) = -0.07449 0.17452
# Poissons Ratio (z) = 0.39254 0.22081
#
# Static dielectric constant tensor:
#      x y z
#    x 1.619550 0.000000 0.000000 
#    y 0.000000 1.727050 0.000000 
#    z 0.000000 0.000000 1.671400 
# 
# From -- ./inp_files/59898.got.cif
#   From: 2010.05.17/outbox.cif.g08.bks.cpg/sg74_30_cif.got.tgz:59898.got - 2010.06.03 17:57:02.
