data_PCOD9535711
_publ_section_title
;
Structure prediction by ZEFSAII (Michael W. Deem and Ramdas Pophale) SiO2 
 PCOD9535711
Probable space group: I M M A
;
_chemical_formula_sum "Si O2"
_cell_formula_units_Z 88
_cell_length_a 7.810906
_cell_length_b 24.702925
_cell_length_c 21.159947
_cell_angle_alpha 90.000000
_cell_angle_beta 90.000000
_cell_angle_gamma 90.000000
_cell_volume 4082.858857
_symmetry_space_group_name_H-M "I M M A"
_symmetry_group_IT_number 74
_symmetry_cell_setting 'orthorhombic'
loop_
_space_group_symop_operation_xyz
x,y,z
-x,1/2-y,z
x,-y,-z
-x,1/2+y,-z
-x,-y,-z
x,1/2+y,-z
-x,y,z
x,1/2-y,z
1/2+x,1/2+y,1/2+z
1/2-x,-y,1/2+z
1/2+x,1/2-y,1/2-z
1/2-x,y,1/2-z
1/2-x,1/2-y,1/2-z
1/2+x,y,1/2-z
1/2-x,1/2+y,1/2+z
1/2+x,-y,1/2+z
loop_
_atom_site_type_symbol
_atom_site_label
_atom_site_fract_x
_atom_site_fract_y
_atom_site_fract_z
Si Si1 0.295823 0.546826 0.184095
Si Si2 0.705430 0.349944 0.414806
Si Si3 0.307943 0.668801 0.318282
Si Si4 0.206415 0.250000 0.174926
Si Si5 0.293389 0.473711 0.066793
Si Si6 0.804340 0.686964 0.046706
O O1 0.500000 0.556629 0.182190
O O2 0.250000 0.518044 0.250000
O O3 0.201168 0.604059 0.185204
O O4 0.244504 0.514406 0.122548
O O5 0.500000 0.341704 0.417383
O O6 0.765471 0.304921 0.363089
O O7 0.736191 0.414156 0.409950
O O8 0.779187 0.337941 0.484844
O O9 0.500000 0.688901 0.325213
O O10 0.250000 0.688677 0.250000
O O11 0.218389 0.681693 0.384722
O O12 0.250000 0.250000 0.250000
O O13 0.000000 0.250000 0.172153
O O14 0.500000 0.471484 0.062849
O O15 0.232576 0.500000 0.000000
O O16 0.818722 0.750000 0.032873
O O17 0.000000 0.663973 0.051514
#
# Coordination Sequence:
#
# PCOD9535711 Si02
#       6
#    16  16  16   8  16  16
#     4  10  20  35  54  74 104 142 176 217 265 319
#     4  10  20  37  61  84 109 144 189 237 280 334
#     4  10  19  31  51  77 106 141 178 219 262 311
#     4  10  22  40  62  88 117 150 192 244 299 352
#     4  10  22  38  56  82 116 149 182 229 289 344
#     4   9  17  32  54  77 103 137 178 221 264 309
#
# _framework density 21.553523999999999
#
# number of rings (size 3 to 8) (size 9 to 14) (size 15 to 20)
#    0.000    2.182    0.909    3.273    0.000    3.636 
#    0.000    4.545    0.000    3.818    0.000    0.000 
#    0.000    0.000    0.000    0.000    0.000    0.000 
#
# Total GULP energy -245112.313358 kJ/mol
# GULP energy per Si atom -5570.734395 kJ/mol
# Density = 2.150447 g / cm^3
# Si number density = 21.553524 Si / 1000 Ang^3
#
#
#
# Elastic Constant Matrix: (Units=GPa)
#
#
# Indices 1 2 3 4 5 6 
#
# 1 33.8314 9.5629 18.8687 0.0000 0.0000 0.0000
# 2 9.5629 123.6371 71.2566 0.0000 0.0000 0.0000
# 3 18.8687 71.2566 169.1169 0.0000 0.0000 0.0000
# 4 0.0000 0.0000 0.0000 35.0028 0.0000 0.0000
# 5 0.0000 0.0000 0.0000 0.0000 10.0365 0.0000
# 6 0.0000 0.0000 0.0000 0.0000 0.0000 -0.4038
#
#
#
# Elastic Compliance Matrix: (Units=1/GPa)
#
#
# Indices 1 2 3 4 5 6 
#
# 1 0.031547 -0.000543 -0.003291 0.000000 0.000000 0.000000
# 2 -0.000543 0.010692 -0.004444 0.000000 0.000000 0.000000
# 3 -0.003291 -0.004444 0.008153 0.000000 0.000000 0.000000
# 4 0.000000 0.000000 0.000000 0.028569 0.000000 0.000000
# 5 0.000000 0.000000 0.000000 0.000000 0.099636 0.000001
# 6 0.000000 0.000000 0.000000 0.000000 0.000001 -2.476295
#
#
# Mechanical properties :
#
#
# Convention : Reuss Voigt Hill
#
# Bulk Modulus (GPa) = 29.55543 58.44020 43.99781
# Shear Modulus (GPa) = -2.20278 24.05357 10.92540
#
# Velocity S-wave (km/s) = -1.01204 3.34427 2.25388
# Velocity P-wave (km/s) = 3.51806 6.48730 5.21832
#
# Compressibility (1/GPa) = 0.03383473
#
# Stress axis : x y z
#
# Youngs Moduli (GPa) = 31.69837 93.53154 122.65755
#
# Poissons Ratio (x) = 0.05083 0.40364
# Poissons Ratio (y) = 0.01723 0.54512
# Poissons Ratio (z) = 0.10431 0.41567
#
# Static dielectric constant tensor:
#      x y z
#    x 1.831970 0.000000 0.000000 
#    y 0.000000 1.821210 0.000000 
#    z 0.000000 0.000000 1.869080 
# 
# From -- ./inp_files/48703.got.cif
#   From: 2010.05.17/outbox.cif.g08.bks.cpg/sg74_25_cif.got.tgz:48703.got - 2010.06.03 17:57:02.
