data_PCOD9535484
_publ_section_title
;
Structure prediction by ZEFSAII (Michael W. Deem and Ramdas Pophale) SiO2 
 PCOD9535484
Probable space group: I M M A
;
_chemical_formula_sum "Si O2"
_cell_formula_units_Z 96
_cell_length_a 18.658191
_cell_length_b 24.004647
_cell_length_c 11.255938
_cell_angle_alpha 90.000000
_cell_angle_beta 90.000000
_cell_angle_gamma 90.000000
_cell_volume 5041.346528
_symmetry_space_group_name_H-M "I M M A"
_symmetry_group_IT_number 74
_symmetry_cell_setting 'orthorhombic'
loop_
_space_group_symop_operation_xyz
x,y,z
-x,1/2-y,z
x,-y,-z
-x,1/2+y,-z
-x,-y,-z
x,1/2+y,-z
-x,y,z
x,1/2-y,z
1/2+x,1/2+y,1/2+z
1/2-x,-y,1/2+z
1/2+x,1/2-y,1/2-z
1/2-x,y,1/2-z
1/2-x,1/2-y,1/2-z
1/2+x,y,1/2-z
1/2-x,1/2+y,1/2+z
1/2+x,-y,1/2+z
loop_
_atom_site_type_symbol
_atom_site_label
_atom_site_fract_x
_atom_site_fract_y
_atom_site_fract_z
Si Si1 0.296316 0.185329 0.857237
Si Si2 0.584001 0.534722 0.676612
Si Si3 0.844318 0.312598 0.994105
Si Si4 0.082179 0.817267 0.516616
Si Si5 0.082712 0.581404 0.094579
Si Si6 0.836221 0.359933 0.251844
O O1 0.310545 0.250000 0.822405
O O2 0.250000 0.159963 0.750000
O O3 0.240529 0.186121 0.967025
O O4 0.370407 0.161081 0.905395
O O5 0.500000 0.537259 0.713436
O O6 0.585480 0.557543 0.540673
O O7 0.608882 0.470466 0.673693
O O8 0.634353 0.576916 0.746473
O O9 0.869685 0.250000 0.968689
O O10 0.878383 0.359737 0.910897
O O11 0.859084 0.328622 0.130262
O O12 0.081180 0.750000 0.508386
O O13 0.124923 0.832543 0.636017
O O14 0.000000 0.836935 0.518601
O O15 0.000000 0.590489 0.124663
O O16 0.750000 0.358534 0.250000
#
# Coordination Sequence:
#
# PCOD9535484 Si02
#       6
#    16  16  16  16  16  16
#     4   9  18  34  52  71  99 141 191 235 273 322
#     4   8  15  29  47  67  98 142 185 227 273 326
#     4  10  19  30  49  77 111 146 182 232 294 353
#     4  10  20  33  51  77 112 155 195 231 283 354
#     4   8  15  29  47  68  99 137 178 226 279 331
#     4  11  19  29  49  81 118 150 188 232 292 353
#
# _framework density 19.042531
#
# number of rings (size 3 to 8) (size 9 to 14) (size 15 to 20)
#    0.000    2.667    1.667    2.000    0.000    1.667 
#    0.000    1.667    0.000    3.000    0.000    0.000 
#    0.000    5.333    0.000    0.000    0.000    0.000 
#
# Total GULP energy -267250.251103 kJ/mol
# GULP energy per Si atom -5567.713565 kJ/mol
# Density = 1.899919 g / cm^3
# Si number density = 19.042531 Si / 1000 Ang^3
#
#
#
# Elastic Constant Matrix: (Units=GPa)
#
#
# Indices 1 2 3 4 5 6 
#
# 1 106.9954 41.2263 41.1676 0.0000 0.0000 0.0000
# 2 41.2263 110.5262 3.7818 0.0000 0.0000 0.0000
# 3 41.1676 3.7818 73.3291 0.0000 0.0000 0.0000
# 4 0.0000 0.0000 0.0000 4.4829 0.0000 0.0000
# 5 0.0000 0.0000 0.0000 0.0000 8.9439 0.0000
# 6 0.0000 0.0000 0.0000 0.0000 0.0000 19.2592
#
#
#
# Elastic Compliance Matrix: (Units=1/GPa)
#
#
# Indices 1 2 3 4 5 6 
#
# 1 0.014281 -0.005061 -0.007756 0.000000 0.000000 0.000000
# 2 -0.005061 0.010857 0.002282 0.000000 0.000000 0.000000
# 3 -0.007756 0.002282 0.017874 0.000000 0.000000 0.000000
# 4 0.000000 0.000000 0.000000 0.223071 0.000000 0.000000
# 5 0.000000 0.000000 0.000000 0.000000 0.111808 0.000000
# 6 0.000000 0.000000 0.000000 0.000000 0.000000 0.051923
#
#
# Mechanical properties :
#
#
# Convention : Reuss Voigt Hill
#
# Bulk Modulus (GPa) = 45.57908 51.46691 48.52299
# Shear Modulus (GPa) = 10.91227 20.18219 15.54723
#
# Velocity S-wave (km/s) = 2.39644 3.25906 2.86046
# Velocity P-wave (km/s) = 5.62535 6.42246 6.03708
#
# Compressibility (1/GPa) = 0.02193989
#
# Stress axis : x y z
#
# Youngs Moduli (GPa) = 70.02473 92.10286 55.94745
#
# Poissons Ratio (x) = 0.46616 0.43394
# Poissons Ratio (y) = 0.35442 -0.12764
# Poissons Ratio (z) = 0.54313 -0.21013
#
# Static dielectric constant tensor:
#      x y z
#    x 1.672780 0.000000 0.000000 
#    y 0.000000 1.680650 0.000000 
#    z 0.000000 0.000000 1.687720 
# 
# From -- ./inp_files/22680.got.cif
#   From: 2010.05.17/outbox.cif.g08.bks.cpg/sg74_12_cif.got.tgz:22680.got - 2010.06.03 17:57:02.
