data_PCOD9535320
_publ_section_title
;
Structure prediction by ZEFSAII (Michael W. Deem and Ramdas Pophale) SiO2 
 PCOD9535320
Probable space group: I M M A
;
_chemical_formula_sum "Si O2"
_cell_formula_units_Z 80
_cell_length_a 23.436348
_cell_length_b 14.785098
_cell_length_c 13.739926
_cell_angle_alpha 90.000000
_cell_angle_beta 90.000000
_cell_angle_gamma 90.000000
_cell_volume 4761.003923
_symmetry_space_group_name_H-M "I M M A"
_symmetry_group_IT_number 74
_symmetry_cell_setting 'orthorhombic'
loop_
_space_group_symop_operation_xyz
x,y,z
-x,1/2-y,z
x,-y,-z
-x,1/2+y,-z
-x,-y,-z
x,1/2+y,-z
-x,y,z
x,1/2-y,z
1/2+x,1/2+y,1/2+z
1/2-x,-y,1/2+z
1/2+x,1/2-y,1/2-z
1/2-x,y,1/2-z
1/2-x,1/2-y,1/2-z
1/2+x,y,1/2-z
1/2-x,1/2+y,1/2+z
1/2+x,-y,1/2+z
loop_
_atom_site_type_symbol
_atom_site_label
_atom_site_fract_x
_atom_site_fract_y
_atom_site_fract_z
Si Si1 0.119440 0.952782 0.276405
Si Si2 0.500000 0.353974 0.793348
Si Si3 0.705318 0.650881 0.339514
Si Si4 0.192361 0.398629 0.535047
Si Si5 0.500000 0.108026 0.017708
Si Si6 0.886493 0.849482 0.638322
O O1 0.056773 0.910067 0.265835
O O2 0.158862 0.924349 0.185647
O O3 0.148766 0.906597 0.372840
O O4 0.119384 0.060499 0.295930
O O5 0.500000 0.250000 0.757189
O O6 0.500000 0.350520 0.910865
O O7 0.677718 0.750000 0.340244
O O8 0.750000 0.648179 0.250000
O O9 0.747211 0.639611 0.430533
O O10 0.202212 0.500000 0.500000
O O11 0.162285 0.351112 0.444547
O O12 0.555139 0.135904 0.078542
O O13 0.500000 0.000000 0.000000
O O14 0.886792 0.750000 0.685837
#
# Coordination Sequence:
#
# PCOD9535320 Si02
#       6
#    16   8  16  16   8  16
#     4  10  19  30  41  63  92 117 147 181 218 261
#     4  12  20  27  42  63  91 122 149 180 218 258
#     4   9  17  29  45  63  85 115 148 183 224 264
#     4   9  17  29  45  64  86 113 147 185 222 261
#     4  12  18  29  39  62  93 123 154 182 206 250
#     4  11  19  28  43  63  90 124 155 181 211 256
#
# _framework density 16.803179
#
# number of rings (size 3 to 8) (size 9 to 14) (size 15 to 20)
#    0.000    1.800    4.000    2.700    0.000    1.600 
#    0.000    0.000    0.000   16.200    0.000    0.700 
#    0.000    0.000    0.000    0.000    0.000    0.000 
#
# Total GULP energy -222890.017090 kJ/mol
# GULP energy per Si atom -5572.250427 kJ/mol
# Density = 1.676493 g / cm^3
# Si number density = 16.803179 Si / 1000 Ang^3
#
#
#
# Elastic Constant Matrix: (Units=GPa)
#
#
# Indices 1 2 3 4 5 6 
#
# 1 103.4933 58.0692 33.3692 0.0000 0.0000 0.0000
# 2 58.0692 145.7799 18.0673 0.0000 0.0000 0.0000
# 3 33.3692 18.0673 19.5082 0.0000 0.0000 0.0000
# 4 0.0000 0.0000 0.0000 2.7533 0.0000 0.0000
# 5 0.0000 0.0000 0.0000 0.0000 13.5247 0.0000
# 6 0.0000 0.0000 0.0000 0.0000 0.0000 5.1630
#
#
#
# Elastic Compliance Matrix: (Units=1/GPa)
#
#
# Indices 1 2 3 4 5 6 
#
# 1 0.024572 -0.005173 -0.037241 0.000000 0.000000 0.000000
# 2 -0.005173 0.008838 0.000663 0.000000 0.000000 0.000000
# 3 -0.037241 0.000663 0.114348 0.000000 0.000000 0.000000
# 4 0.000000 0.000000 0.000000 0.363206 0.000000 0.000000
# 5 0.000000 0.000000 0.000000 0.000000 0.073939 0.000000
# 6 0.000000 0.000000 0.000000 0.000000 0.000000 0.193686
#
#
# Mechanical properties :
#
#
# Convention : Reuss Voigt Hill
#
# Bulk Modulus (GPa) = 15.56261 54.19921 34.88091
# Shear Modulus (GPa) = 5.65926 14.90659 10.28292
#
# Velocity S-wave (km/s) = 1.83719 2.98170 2.47647
# Velocity P-wave (km/s) = 3.71244 6.64676 5.38338
#
# Compressibility (1/GPa) = 0.06425655
#
# Stress axis : x y z
#
# Youngs Moduli (GPa) = 40.69629 113.14863 8.74523
#
# Poissons Ratio (x) = 0.58526 0.32568
# Poissons Ratio (y) = 0.21050 -0.00579
# Poissons Ratio (z) = 1.51557 -0.07497
#
# Static dielectric constant tensor:
#      x y z
#    x 1.575410 0.000000 0.000000 
#    y 0.000000 1.621640 0.000000 
#    z 0.000000 0.000000 1.549270 
# 
# From -- ./inp_files/20565.got.cif
#   From: 2010.05.17/outbox.cif.g08.bks.cpg/sg74_11_cif.got.tgz:20565.got - 2010.06.03 17:57:02.
