data_PCOD9535897
_publ_section_title
;
Structure prediction by ZEFSAII (Michael W. Deem and Ramdas Pophale) SiO2 
 PCOD9535897
Probable space group: I M M A
;
_chemical_formula_sum "Si O2"
_cell_formula_units_Z 64
_cell_length_a 7.243903
_cell_length_b 14.653445
_cell_length_c 26.091817
_cell_angle_alpha 90.000000
_cell_angle_beta 90.000000
_cell_angle_gamma 90.000000
_cell_volume 2769.597692
_symmetry_space_group_name_H-M "I M M A"
_symmetry_group_IT_number 74
_symmetry_cell_setting 'orthorhombic'
loop_
_space_group_symop_operation_xyz
x,y,z
-x,1/2-y,z
x,-y,-z
-x,1/2+y,-z
-x,-y,-z
x,1/2+y,-z
-x,y,z
x,1/2-y,z
1/2+x,1/2+y,1/2+z
1/2-x,-y,1/2+z
1/2+x,1/2-y,1/2-z
1/2-x,y,1/2-z
1/2-x,1/2-y,1/2-z
1/2+x,y,1/2-z
1/2-x,1/2+y,1/2+z
1/2+x,-y,1/2+z
loop_
_atom_site_type_symbol
_atom_site_label
_atom_site_fract_x
_atom_site_fract_y
_atom_site_fract_z
Si Si1 0.711644 0.750000 0.936718
Si Si2 0.250000 0.580464 0.750000
Si Si3 0.781365 0.750000 0.311271
Si Si4 0.724898 0.548640 0.947745
Si Si5 0.773084 0.750000 0.817053
Si Si6 0.773579 0.048725 0.658810
O O1 0.500000 0.750000 0.955389
O O2 0.791992 0.652585 0.951118
O O3 0.719160 0.750000 0.875482
O O4 0.307120 0.659500 0.790879
O O5 0.307662 0.507813 0.706487
O O6 0.750000 0.750000 0.250000
O O7 0.716920 0.845568 0.335506
O O8 0.000000 0.750000 0.319370
O O9 0.500000 0.550752 0.945856
O O10 0.778391 0.497131 0.895307
O O11 0.779071 0.500000 0.000000
O O12 0.000000 0.750000 0.812040
O O13 0.000000 0.043035 0.664255
#
# Coordination Sequence:
#
# PCOD9535897 Si02
#       6
#     8   8   8  16   8  16
#     4  10  19  34  56  79 107 142 176 219 267 322
#     4  11  20  33  52  74 110 145 176 215 264 324
#     4  10  20  33  51  76 108 142 178 218 259 308
#     4   9  18  32  52  78 104 134 176 222 266 310
#     4  11  23  33  51  84 113 141 176 218 268 326
#     4  10  19  32  51  77 108 139 175 219 266 314
#
# _framework density 23.108049000000001
#
# number of rings (size 3 to 8) (size 9 to 14) (size 15 to 20)
#    0.000    2.000    3.750    0.750    0.000    3.000 
#    0.000    5.000    0.000    0.750    0.000    1.750 
#    0.000    0.000    0.000    0.000    0.000    0.000 
#
# Total GULP energy -178179.549703 kJ/mol
# GULP energy per Si atom -5568.110928 kJ/mol
# Density = 2.305545 g / cm^3
# Si number density = 23.108049 Si / 1000 Ang^3
#
#
#
# Elastic Constant Matrix: (Units=GPa)
#
#
# Indices 1 2 3 4 5 6 
#
# 1 129.8677 18.5867 0.8012 0.0000 0.0000 0.0000
# 2 18.5867 297.7846 124.1600 0.0000 0.0000 0.0000
# 3 0.8012 124.1600 185.9328 0.0000 0.0000 0.0000
# 4 0.0000 0.0000 0.0000 166.8971 0.0000 0.0000
# 5 0.0000 0.0000 0.0000 0.0000 -0.2406 0.0000
# 6 0.0000 0.0000 0.0000 0.0000 0.0000 -18.2280
#
#
#
# Elastic Compliance Matrix: (Units=1/GPa)
#
#
# Indices 1 2 3 4 5 6 
#
# 1 0.007791 -0.000655 0.000404 0.000000 0.000000 0.000000
# 2 -0.000655 0.004709 -0.003142 0.000000 0.000000 0.000000
# 3 0.000404 -0.003142 0.007474 0.000000 0.000000 0.000000
# 4 0.000000 0.000000 0.000000 0.005992 0.000000 0.000000
# 5 0.000000 0.000000 0.000000 0.000000 -4.156922 0.000000
# 6 0.000000 0.000000 0.000000 0.000000 0.000000 -0.054861
#
#
# Mechanical properties :
#
#
# Convention : Reuss Voigt Hill
#
# Bulk Modulus (GPa) = 75.81891 100.07567 87.94729
# Shear Modulus (GPa) = -1.19771 61.02154 29.91191
#
# Velocity S-wave (km/s) = -0.72072 5.14435 3.60173
# Velocity P-wave (km/s) = 5.67356 8.87060 7.44570
#
# Compressibility (1/GPa) = 0.01318932
#
# Stress axis : x y z
#
# Youngs Moduli (GPa) = 128.34774 212.36523 133.78968
#
# Poissons Ratio (x) = 0.13900 -0.05399
# Poissons Ratio (y) = 0.08401 0.42032
# Poissons Ratio (z) = -0.05179 0.66717
#
# Static dielectric constant tensor:
#      x y z
#    x 2.073790 0.000000 0.000000 
#    y 0.000000 1.863330 0.000000 
#    z 0.000000 0.000000 1.740160 
# 
# From -- ./inp_files/56488.got.cif
#   From: 2010.05.17/outbox.cif.g08.bks.cpg/sg74_29_cif.got.tgz:56488.got - 2010.06.03 17:57:02.
