data_PCOD9535628
_publ_section_title
;
Structure prediction by ZEFSAII (Michael W. Deem and Ramdas Pophale) SiO2 
 PCOD9535628
Probable space group: I M M A
;
_chemical_formula_sum "Si O2"
_cell_formula_units_Z 104
_cell_length_a 26.967329
_cell_length_b 7.672273
_cell_length_c 21.755490
_cell_angle_alpha 90.000000
_cell_angle_beta 90.000000
_cell_angle_gamma 90.000000
_cell_volume 4501.226331
_symmetry_space_group_name_H-M "I M M A"
_symmetry_group_IT_number 74
_symmetry_cell_setting 'orthorhombic'
loop_
_space_group_symop_operation_xyz
x,y,z
-x,1/2-y,z
x,-y,-z
-x,1/2+y,-z
-x,-y,-z
x,1/2+y,-z
-x,y,z
x,1/2-y,z
1/2+x,1/2+y,1/2+z
1/2-x,-y,1/2+z
1/2+x,1/2-y,1/2-z
1/2-x,y,1/2-z
1/2-x,1/2-y,1/2-z
1/2+x,y,1/2-z
1/2-x,1/2+y,1/2+z
1/2+x,-y,1/2+z
loop_
_atom_site_type_symbol
_atom_site_label
_atom_site_fract_x
_atom_site_fract_y
_atom_site_fract_z
Si Si1 0.291097 0.039264 0.433296
Si Si2 0.134071 0.957260 0.429189
Si Si3 0.500000 0.040754 0.427686
Si Si4 0.138144 0.045330 0.761500
Si Si5 0.107283 0.049687 0.105504
Si Si6 0.717222 0.947658 0.834227
Si Si7 0.555423 0.038341 0.836489
O O1 0.291465 0.250000 0.427711
O O2 0.347263 0.968540 0.432203
O O3 0.262318 0.969924 0.373001
O O4 0.268005 0.000000 0.500000
O O5 0.141018 0.750000 0.419617
O O6 0.080452 0.005976 0.401551
O O7 0.138795 0.000000 0.500000
O O8 0.174628 0.048571 0.386691
O O9 0.500000 0.250000 0.417410
O O10 0.447833 0.972537 0.400247
O O11 0.500000 0.000000 0.500000
O O12 0.131430 0.250000 0.772661
O O13 0.094968 0.983566 0.714898
O O14 0.128209 0.952298 0.825391
O O15 0.190523 0.022927 0.726206
O O16 0.102707 0.250000 0.084396
O O17 0.730555 0.750000 0.819053
O O18 0.500000 0.971643 0.828085
O O19 0.553516 0.250000 0.833255
#
# Coordination Sequence:
#
# PCOD9535628 Si02
#       7
#    16  16   8  16  16  16  16
#     4  10  22  38  59  85 114 151 191 235 285 341
#     4  10  19  31  49  74 105 141 184 230 282 338
#     4  10  22  40  64  90 120 156 193 240 293 346
#     4  10  21  36  57  85 113 147 190 234 283 337
#     4  10  22  40  59  85 119 152 189 234 289 347
#     4  10  20  36  57  80 110 149 188 232 286 337
#     4   8  16  31  49  70 100 136 176 226 276 326
#
# _framework density 23.104816
#
# number of rings (size 3 to 8) (size 9 to 14) (size 15 to 20)
#    0.000    2.308    0.000    3.231    1.077    4.615 
#    0.000    3.077    0.000    8.769    0.000    0.000 
#    0.000    0.000    0.000    0.000    0.000    0.000 
#
# Total GULP energy -290314.771879 kJ/mol
# GULP energy per Si atom -5582.976382 kJ/mol
# Density = 2.305223 g / cm^3
# Si number density = 23.104816 Si / 1000 Ang^3
#
#
#
# Elastic Constant Matrix: (Units=GPa)
#
#
# Indices 1 2 3 4 5 6 
#
# 1 155.3341 0.9318 37.9294 0.0000 0.0000 0.0000
# 2 0.9318 54.4636 -12.2192 0.0000 0.0000 0.0000
# 3 37.9294 -12.2192 112.4948 0.0000 0.0000 0.0000
# 4 0.0000 0.0000 0.0000 21.7592 0.0000 0.0000
# 5 0.0000 0.0000 0.0000 0.0000 25.5712 0.0000
# 6 0.0000 0.0000 0.0000 0.0000 0.0000 10.5350
#
#
#
# Elastic Compliance Matrix: (Units=1/GPa)
#
#
# Indices 1 2 3 4 5 6 
#
# 1 0.007039 -0.000669 -0.002446 0.000000 0.000000 0.000000
# 2 -0.000669 0.018883 0.002277 0.000000 0.000000 0.000000
# 3 -0.002446 0.002277 0.009961 0.000000 0.000000 0.000000
# 4 0.000000 0.000000 0.000000 0.045958 0.000000 0.000000
# 5 0.000000 0.000000 0.000000 0.000000 0.039107 0.000000
# 6 0.000000 0.000000 0.000000 0.000000 0.000000 0.094921
#
#
# Mechanical properties :
#
#
# Convention : Reuss Voigt Hill
#
# Bulk Modulus (GPa) = 29.23422 41.73071 35.48247
# Shear Modulus (GPa) = 21.83902 31.28312 26.56107
#
# Velocity S-wave (km/s) = 3.07777 3.68362 3.39424
# Velocity P-wave (km/s) = 5.03096 6.01604 5.54542
#
# Compressibility (1/GPa) = 0.03420649
#
# Stress axis : x y z
#
# Youngs Moduli (GPa) = 142.06533 52.95732 100.38842
#
# Poissons Ratio (x) = 0.03544 0.24555
# Poissons Ratio (y) = 0.09507 -0.22856
# Poissons Ratio (z) = 0.34749 -0.12057
#
# Static dielectric constant tensor:
#      x y z
#    x 1.919090 0.000000 0.000000 
#    y 0.000000 1.893080 0.000000 
#    z 0.000000 0.000000 1.846710 
# 
# From -- ./inp_files/55257.got.cif
#   From: 2010.05.17/outbox.cif.g08.bks.cpg/sg74_28_cif.got.tgz:55257.got - 2010.06.03 17:57:02.
