data_PCOD9535961
_publ_section_title
;
Structure prediction by ZEFSAII (Michael W. Deem and Ramdas Pophale) SiO2 
 PCOD9535961
Probable space group: I M M A
;
_chemical_formula_sum "Si O2"
_cell_formula_units_Z 112
_cell_length_a 18.529196
_cell_length_b 11.768230
_cell_length_c 26.143599
_cell_angle_alpha 90.000000
_cell_angle_beta 90.000000
_cell_angle_gamma 90.000000
_cell_volume 5700.764447
_symmetry_space_group_name_H-M "I M M A"
_symmetry_group_IT_number 74
_symmetry_cell_setting 'orthorhombic'
loop_
_space_group_symop_operation_xyz
x,y,z
-x,1/2-y,z
x,-y,-z
-x,1/2+y,-z
-x,-y,-z
x,1/2+y,-z
-x,y,z
x,1/2-y,z
1/2+x,1/2+y,1/2+z
1/2-x,-y,1/2+z
1/2+x,1/2-y,1/2-z
1/2-x,y,1/2-z
1/2-x,1/2-y,1/2-z
1/2+x,y,1/2-z
1/2-x,1/2+y,1/2+z
1/2+x,-y,1/2+z
loop_
_atom_site_type_symbol
_atom_site_label
_atom_site_fract_x
_atom_site_fract_y
_atom_site_fract_z
Si Si1 0.826440 0.122822 0.733908
Si Si2 0.200685 0.050471 0.623024
Si Si3 0.670458 0.875470 0.637157
Si Si4 0.790132 0.125610 0.511610
Si Si5 0.084484 0.922317 0.761000
Si Si6 0.376130 0.880185 0.525658
Si Si7 0.583863 0.377538 0.144063
O O1 0.827497 0.250000 0.754064
O O2 0.750000 0.067727 0.750000
O O3 0.823522 0.119929 0.672714
O O4 0.893313 0.053710 0.755433
O O5 0.270312 0.973834 0.635588
O O6 0.135509 0.962188 0.614726
O O7 0.216194 0.122078 0.572954
O O8 0.704940 0.750000 0.631984
O O9 0.627543 0.878195 0.690262
O O10 0.619784 0.890175 0.587247
O O11 0.821988 0.250000 0.497010
O O12 0.709863 0.122190 0.487191
O O13 0.823103 0.000000 0.500000
O O14 0.105444 0.877111 0.704518
O O15 0.000000 0.902087 0.767692
O O16 0.402577 0.750000 0.511560
O O17 0.403193 0.000000 0.500000
O O18 0.500000 0.412889 0.142627
O O19 0.589693 0.250000 0.124622
#
# Coordination Sequence:
#
# PCOD9535961 Si02
#       7
#    16  16  16  16  16  16  16
#     4  10  20  34  52  76 107 142 184 232 280 328
#     4  11  19  32  52  81 109 142 183 234 280 332
#     4  11  20  31  52  83 110 140 185 229 274 329
#     4  10  19  32  52  80 113 144 181 229 289 343
#     4  10  21  37  54  77 112 151 187 225 280 339
#     4   9  17  31  49  76 109 141 179 230 282 332
#     4   9  19  34  52  76 110 151 187 224 277 339
#
# _framework density 19.646488000000002
#
# number of rings (size 3 to 8) (size 9 to 14) (size 15 to 20)
#    0.000    2.000    4.286    1.286    0.000    1.714 
#    0.000    2.857    0.000    2.143    0.000    0.000 
#    0.000    0.000    0.000    0.000    0.000    0.143 
#
# Total GULP energy -311833.455149 kJ/mol
# GULP energy per Si atom -5568.454556 kJ/mol
# Density = 1.960177 g / cm^3
# Si number density = 19.646488 Si / 1000 Ang^3
#
#
#
# Elastic Constant Matrix: (Units=GPa)
#
#
# Indices 1 2 3 4 5 6 
#
# 1 25.0455 11.6483 6.3299 0.0000 0.0000 0.0000
# 2 11.6483 132.3593 12.4546 0.0000 0.0000 0.0000
# 3 6.3299 12.4546 80.6816 0.0000 0.0000 0.0000
# 4 0.0000 0.0000 0.0000 -15.6634 0.0000 0.0000
# 5 0.0000 0.0000 0.0000 0.0000 7.7398 0.0000
# 6 0.0000 0.0000 0.0000 0.0000 0.0000 8.7852
#
#
#
# Elastic Compliance Matrix: (Units=1/GPa)
#
#
# Indices 1 2 3 4 5 6 
#
# 1 0.042237 -0.003455 -0.002780 0.000000 0.000000 0.000000
# 2 -0.003455 0.007949 -0.000956 0.000000 0.000000 0.000000
# 3 -0.002780 -0.000956 0.012760 0.000000 0.000000 0.000000
# 4 0.000000 0.000000 0.000000 -0.063843 0.000000 0.000000
# 5 0.000000 0.000000 0.000000 0.000000 0.129202 0.000000
# 6 0.000000 0.000000 0.000000 0.000000 0.000000 0.113828
#
#
# Mechanical properties :
#
#
# Convention : Reuss Voigt Hill
#
# Bulk Modulus (GPa) = 20.59188 33.21690 26.90439
# Shear Modulus (GPa) = 18.33487 14.01590 16.17538
#
# Velocity S-wave (km/s) = 3.05821 2.67386 2.87247
# Velocity P-wave (km/s) = 4.79314 5.14555 4.97247
#
# Compressibility (1/GPa) = 0.04856284
#
# Stress axis : x y z
#
# Youngs Moduli (GPa) = 23.67592 125.79813 78.36927
#
# Poissons Ratio (x) = 0.43469 0.21789
# Poissons Ratio (y) = 0.08181 0.07492
# Poissons Ratio (z) = 0.06583 0.12026
#
# Static dielectric constant tensor:
#      x y z
#    x 1.669960 0.000000 0.000000 
#    y 0.000000 1.763260 0.000000 
#    z 0.000000 0.000000 1.702370 
# 
# From -- ./inp_files/59063.got.cif
#   From: 2010.05.17/outbox.cif.g08.bks.cpg/sg74_30_cif.got.tgz:59063.got - 2010.06.03 17:57:02.
