data_PCOD9535933
_publ_section_title
;
Structure prediction by ZEFSAII (Michael W. Deem and Ramdas Pophale) SiO2 
 PCOD9535933
Probable space group: I M M A
;
_chemical_formula_sum "Si O2"
_cell_formula_units_Z 72
_cell_length_a 14.169457
_cell_length_b 8.295738
_cell_length_c 25.042535
_cell_angle_alpha 90.000000
_cell_angle_beta 90.000000
_cell_angle_gamma 90.000000
_cell_volume 2943.652395
_symmetry_space_group_name_H-M "I M M A"
_symmetry_group_IT_number 74
_symmetry_cell_setting 'orthorhombic'
loop_
_space_group_symop_operation_xyz
x,y,z
-x,1/2-y,z
x,-y,-z
-x,1/2+y,-z
-x,-y,-z
x,1/2+y,-z
-x,y,z
x,1/2-y,z
1/2+x,1/2+y,1/2+z
1/2-x,-y,1/2+z
1/2+x,1/2-y,1/2-z
1/2-x,y,1/2-z
1/2-x,1/2-y,1/2-z
1/2+x,y,1/2-z
1/2-x,1/2+y,1/2+z
1/2+x,-y,1/2+z
loop_
_atom_site_type_symbol
_atom_site_label
_atom_site_fract_x
_atom_site_fract_y
_atom_site_fract_z
Si Si1 0.636516 0.065144 0.943055
Si Si2 0.885187 0.250000 0.256517
Si Si3 0.386583 0.426087 0.695098
Si Si4 0.357471 0.420998 0.567457
Si Si5 0.823599 0.750000 0.622291
Si Si6 0.602211 0.250000 0.416249
O O1 0.603795 0.250000 0.930156
O O2 0.748979 0.083410 0.948339
O O3 0.629461 0.913899 0.902171
O O4 0.601175 0.000000 0.000000
O O5 0.856265 0.413550 0.225778
O O6 0.842151 0.250000 0.315202
O O7 0.000000 0.250000 0.260283
O O8 0.500000 0.423331 0.698550
O O9 0.352128 0.250000 0.714803
O O10 0.362018 0.436431 0.632559
O O11 0.400980 0.250000 0.555838
O O12 0.399040 0.588761 0.549658
O O13 0.710059 0.750000 0.608401
O O14 0.500000 0.250000 0.384489
#
# Coordination Sequence:
#
# PCOD9535933 Si02
#       6
#    16   8  16  16   8   8
#     4  10  19  35  58  84 112 153 198 236 295 352
#     4  10  21  38  60  86 118 152 192 245 301 352
#     4   9  17  31  53  80 113 156 193 229 290 353
#     4   9  18  31  52  82 108 146 198 242 279 343
#     4  10  22  38  59  88 114 150 197 244 291 358
#     4  10  19  32  52  76 108 148 190 233 280 332
#
# _framework density 24.459410999999999
#
# number of rings (size 3 to 8) (size 9 to 14) (size 15 to 20)
#    0.000    2.444    1.111    1.333    0.000    3.111 
#    0.000    8.889    0.000   29.333    0.000    0.000 
#    0.000    0.000    0.000    0.000    0.000    0.000 
#
# Total GULP energy -200930.451717 kJ/mol
# GULP energy per Si atom -5581.401437 kJ/mol
# Density = 2.440374 g / cm^3
# Si number density = 24.459411 Si / 1000 Ang^3
#
#
#
# Elastic Constant Matrix: (Units=GPa)
#
#
# Indices 1 2 3 4 5 6 
#
# 1 118.0361 32.6383 21.3120 0.0000 0.0000 0.0000
# 2 32.6383 340.3262 108.8800 0.0000 0.0000 0.0000
# 3 21.3120 108.8800 155.9533 0.0000 0.0000 0.0000
# 4 0.0000 0.0000 0.0000 20.4427 0.0000 0.0000
# 5 0.0000 0.0000 0.0000 0.0000 36.0674 0.0000
# 6 0.0000 0.0000 0.0000 0.0000 0.0000 -200.2854
#
#
#
# Elastic Compliance Matrix: (Units=1/GPa)
#
#
# Indices 1 2 3 4 5 6 
#
# 1 0.008777 -0.000590 -0.000788 0.000000 0.000000 0.000000
# 2 -0.000590 0.003823 -0.002588 0.000000 0.000000 0.000000
# 3 -0.000788 -0.002588 0.008327 0.000000 0.000000 0.000000
# 4 0.000000 0.000000 0.000000 0.048917 0.000000 0.000000
# 5 0.000000 0.000000 0.000000 0.000000 0.027726 0.000000
# 6 0.000000 0.000000 0.000000 0.000000 0.000000 -0.004993
#
#
# Mechanical properties :
#
#
# Convention : Reuss Voigt Hill
#
# Bulk Modulus (GPa) = 76.95045 104.44181 90.69613
# Shear Modulus (GPa) = 47.69110 1.34396 24.51753
#
# Velocity S-wave (km/s) = 4.42045 0.74206 3.16947
# Velocity P-wave (km/s) = 7.58832 6.59750 7.11019
#
# Compressibility (1/GPa) = 0.01299538
#
# Stress axis : x y z
#
# Youngs Moduli (GPa) = 113.93047 261.57125 120.09119
#
# Poissons Ratio (x) = 0.15426 0.09460
# Poissons Ratio (y) = 0.06719 0.31086
# Poissons Ratio (z) = 0.08975 0.67708
#
# Static dielectric constant tensor:
#      x y z
#    x 1.921180 0.000000 0.000000 
#    y 0.000000 2.023890 0.000000 
#    z 0.000000 0.000000 1.924370 
# 
# From -- ./inp_files/72308.got.cif
#   From: 2010.05.17/outbox.cif.g08.bks.cpg/sg74_37_cif.got.tgz:72308.got - 2010.06.03 17:57:02.
