data_PCOD9535047
_publ_section_title
;
Structure prediction by ZEFSAII (Michael W. Deem and Ramdas Pophale) SiO2 
 PCOD9535047
Probable space group: I M M A
;
_chemical_formula_sum "Si O2"
_cell_formula_units_Z 64
_cell_length_a 25.485602
_cell_length_b 8.572504
_cell_length_c 14.903404
_cell_angle_alpha 90.000000
_cell_angle_beta 90.000000
_cell_angle_gamma 90.000000
_cell_volume 3256.027524
_symmetry_space_group_name_H-M "I M M A"
_symmetry_group_IT_number 74
_symmetry_cell_setting 'orthorhombic'
loop_
_space_group_symop_operation_xyz
x,y,z
-x,1/2-y,z
x,-y,-z
-x,1/2+y,-z
-x,-y,-z
x,1/2+y,-z
-x,y,z
x,1/2-y,z
1/2+x,1/2+y,1/2+z
1/2-x,-y,1/2+z
1/2+x,1/2-y,1/2-z
1/2-x,y,1/2-z
1/2-x,1/2-y,1/2-z
1/2+x,y,1/2-z
1/2-x,1/2+y,1/2+z
1/2+x,-y,1/2+z
loop_
_atom_site_type_symbol
_atom_site_label
_atom_site_fract_x
_atom_site_fract_y
_atom_site_fract_z
Si Si1 0.385070 0.561808 0.398309
Si Si2 0.110120 0.564261 0.398837
Si Si3 0.310839 0.563157 0.753789
Si Si4 0.000000 0.936199 0.602250
Si Si5 0.500000 0.062354 0.601618
O O1 0.380499 0.500000 0.500000
O O2 0.382016 0.750000 0.398137
O O3 0.340781 0.491558 0.335353
O O4 0.443182 0.514104 0.361820
O O5 0.116279 0.500000 0.500000
O O6 0.106762 0.750000 0.402021
O O7 0.157828 0.510584 0.336873
O O8 0.054856 0.499434 0.360191
O O9 0.313367 0.750000 0.761350
O O10 0.250000 0.515948 0.750000
O O11 0.000000 0.750000 0.602385
O O12 0.000000 0.000000 0.500000
O O13 0.500000 0.250000 0.600623
O O14 0.500000 0.000000 0.500000
#
# Coordination Sequence:
#
# PCOD9535047 Si02
#       5
#    16  16  16   8   8
#     4  10  20  37  61  88 119 153 190 235 290 349
#     4  11  22  39  63  90 121 155 194 241 296 354
#     4  11  25  43  60  82 114 154 203 251 294 348
#     4  10  18  33  58  89 123 155 191 234 288 351
#     4   8  16  31  54  85 117 147 181 224 276 339
#
# _framework density 19.655854000000001
#
# number of rings (size 3 to 8) (size 9 to 14) (size 15 to 20)
#    0.000    1.750    0.000    6.375    0.000    5.000 
#    0.000    3.750    0.000    0.000    0.000    0.000 
#    0.000    0.000    0.000    0.000    0.000    0.000 
#
# Total GULP energy -178747.759734 kJ/mol
# GULP energy per Si atom -5585.867492 kJ/mol
# Density = 1.961112 g / cm^3
# Si number density = 19.655854 Si / 1000 Ang^3
#
#
#
# Elastic Constant Matrix: (Units=GPa)
#
#
# Indices 1 2 3 4 5 6 
#
# 1 221.7796 77.3926 82.1279 0.0000 0.0000 0.0000
# 2 77.3926 121.9583 38.3650 0.0000 0.0000 0.0000
# 3 82.1279 38.3650 108.5046 0.0000 0.0000 0.0000
# 4 0.0000 0.0000 0.0000 28.4488 0.0000 0.0000
# 5 0.0000 0.0000 0.0000 0.0000 35.5601 0.0000
# 6 0.0000 0.0000 0.0000 0.0000 0.0000 27.5487
#
#
#
# Elastic Compliance Matrix: (Units=1/GPa)
#
#
# Indices 1 2 3 4 5 6 
#
# 1 0.007244 -0.003232 -0.004340 0.000000 0.000000 0.000000
# 2 -0.003232 0.010667 -0.001326 0.000000 0.000000 0.000000
# 3 -0.004340 -0.001326 0.012970 0.000000 0.000000 0.000000
# 4 0.000000 0.000000 0.000000 0.035151 0.000000 0.000000
# 5 0.000000 0.000000 0.000000 0.000000 0.028121 0.000000
# 6 0.000000 0.000000 0.000000 0.000000 0.000000 0.036299
#
#
# Mechanical properties :
#
#
# Convention : Reuss Voigt Hill
#
# Bulk Modulus (GPa) = 76.41707 94.22371 85.32039
# Shear Modulus (GPa) = 32.76315 35.26865 34.01590
#
# Velocity S-wave (km/s) = 4.08712 4.24052 4.16453
# Velocity P-wave (km/s) = 7.82526 8.48627 8.16246
#
# Compressibility (1/GPa) = 0.01308608
#
# Stress axis : x y z
#
# Youngs Moduli (GPa) = 138.04585 93.74500 77.09944
#
# Poissons Ratio (x) = 0.30294 0.33464
# Poissons Ratio (y) = 0.44610 0.10222
# Poissons Ratio (z) = 0.59918 0.12428
#
# Static dielectric constant tensor:
#      x y z
#    x 1.706790 0.000000 0.000000 
#    y 0.000000 1.610000 0.000000 
#    z 0.000000 0.000000 1.671020 
# 
# From -- ./inp_files/35973.got.cif
#   From: 2010.05.17/outbox.cif.g08.bks.cpg/sg74_18_cif.got.tgz:35973.got - 2010.06.03 17:57:02.
