data_PCOD9535222
_publ_section_title
;
Structure prediction by ZEFSAII (Michael W. Deem and Ramdas Pophale) SiO2 
 PCOD9535222
Probable space group: I M M A
;
_chemical_formula_sum "Si O2"
_cell_formula_units_Z 112
_cell_length_a 32.138824
_cell_length_b 9.904875
_cell_length_c 29.489600
_cell_angle_alpha 90.000000
_cell_angle_beta 90.000000
_cell_angle_gamma 90.000000
_cell_volume 9387.454871
_symmetry_space_group_name_H-M "I M M A"
_symmetry_group_IT_number 74
_symmetry_cell_setting 'orthorhombic'
loop_
_space_group_symop_operation_xyz
x,y,z
-x,1/2-y,z
x,-y,-z
-x,1/2+y,-z
-x,-y,-z
x,1/2+y,-z
-x,y,z
x,1/2-y,z
1/2+x,1/2+y,1/2+z
1/2-x,-y,1/2+z
1/2+x,1/2-y,1/2-z
1/2-x,y,1/2-z
1/2-x,1/2-y,1/2-z
1/2+x,y,1/2-z
1/2-x,1/2+y,1/2+z
1/2+x,-y,1/2+z
loop_
_atom_site_type_symbol
_atom_site_label
_atom_site_fract_x
_atom_site_fract_y
_atom_site_fract_z
Si Si1 0.768459 0.095195 0.177087
Si Si2 0.549260 0.250000 0.569970
Si Si3 0.585758 0.972690 0.602252
Si Si4 0.117557 0.905404 0.236992
Si Si5 0.164848 0.407058 0.860840
Si Si6 0.049292 0.095992 0.199985
Si Si7 0.550472 0.750000 0.536732
Si Si8 0.815671 0.095621 0.274593
O O1 0.771930 0.250000 0.159990
O O2 0.792380 0.093967 0.225658
O O3 0.720393 0.066002 0.188874
O O4 0.791835 0.984564 0.146960
O O5 0.500000 0.250000 0.573144
O O6 0.566583 0.380890 0.594293
O O7 0.559724 0.250000 0.516604
O O8 0.567115 0.913637 0.648794
O O9 0.570708 0.878183 0.561572
O O10 0.634770 0.001455 0.607972
O O11 0.111063 0.750000 0.250074
O O12 0.141059 0.904447 0.187957
O O13 0.075374 0.988639 0.228865
O O14 0.147627 0.987938 0.270633
O O15 0.168768 0.250000 0.875290
O O16 0.056285 0.250000 0.215853
O O17 0.000000 0.069552 0.199462
O O18 0.500000 0.750000 0.542745
O O19 0.830469 0.250000 0.281228
#
# Coordination Sequence:
#
# PCOD9535222 Si02
#       8
#    16   8  16  16  16  16   8  16
#     4   8  14  22  37  53  67  87 109 127 145 178
#     4  11  22  34  46  56  70  83 100 134 172 211
#     4  11  20  32  44  57  69  85 104 132 169 209
#     4   9  17  25  35  51  69  88 109 132 159 189
#     4   9  17  27  36  52  70  86 103 124 157 193
#     4  10  19  29  40  52  66  87 113 139 168 203
#     4  11  22  34  46  58  66  81 108 134 166 211
#     4   8  13  23  35  50  69  89 108 127 151 178
#
# _framework density 11.930816
#
# number of rings (size 3 to 8) (size 9 to 14) (size 15 to 20)
#    0.000    2.571    1.429    3.000    2.000    3.714 
#    0.000    2.857    0.000    0.000    0.000    0.000 
#    0.000    0.000    0.000    0.000    0.000    0.000 
#
# Total GULP energy -311801.322937 kJ/mol
# GULP energy per Si atom -5567.880767 kJ/mol
# Density = 1.190366 g / cm^3
# Si number density = 11.930816 Si / 1000 Ang^3
#
#
#
# Elastic Constant Matrix: (Units=GPa)
#
#
# Indices 1 2 3 4 5 6 
#
# 1 51.1393 37.6036 15.6950 0.0000 0.0000 0.0000
# 2 37.6036 81.5799 10.4758 0.0000 0.0000 0.0000
# 3 15.6950 10.4758 10.3899 0.0000 0.0000 0.0000
# 4 0.0000 0.0000 0.0000 53.7565 0.0000 0.0000
# 5 0.0000 0.0000 0.0000 0.0000 11.1217 0.0000
# 6 0.0000 0.0000 0.0000 0.0000 0.0000 21.5560
#
#
#
# Elastic Compliance Matrix: (Units=1/GPa)
#
#
# Indices 1 2 3 4 5 6 
#
# 1 0.048189 -0.014778 -0.057894 0.000000 0.000000 0.000000
# 2 -0.014778 0.018613 0.003557 0.000000 0.000000 0.000000
# 3 -0.057894 0.003557 0.180116 0.000000 0.000000 0.000000
# 4 0.000000 0.000000 0.000000 0.018602 0.000000 0.000000
# 5 0.000000 0.000000 0.000000 0.000000 0.089914 0.000000
# 6 0.000000 0.000000 0.000000 0.000000 0.000000 0.046391
#
#
# Mechanical properties :
#
#
# Convention : Reuss Voigt Hill
#
# Bulk Modulus (GPa) = 9.20073 30.07311 19.63692
# Shear Modulus (GPa) = 8.67626 22.57581 15.62603
#
# Velocity S-wave (km/s) = 2.69962 4.35469 3.62293
# Velocity P-wave (km/s) = 4.17681 7.10953 5.83057
#
# Compressibility (1/GPa) = 0.10868706
#
# Stress axis : x y z
#
# Youngs Moduli (GPa) = 20.75160 53.72579 5.55199
#
# Poissons Ratio (x) = 0.79396 0.32143
# Poissons Ratio (y) = 0.30667 -0.01975
# Poissons Ratio (z) = 1.20139 -0.19109
#
# Static dielectric constant tensor:
#      x y z
#    x 1.393270 0.000000 0.000000 
#    y 0.000000 1.410680 0.000000 
#    z 0.000000 0.000000 1.358290 
# 
# From -- ./inp_files/74046.got.cif
#   From: 2010.05.17/outbox.cif.g08.bks.cpg/sg74_38_cif.got.tgz:74046.got - 2010.06.03 17:57:02.
