data_PCOD9535325
_publ_section_title
;
Structure prediction by ZEFSAII (Michael W. Deem and Ramdas Pophale) SiO2 
 PCOD9535325
Probable space group: I M M A
;
_chemical_formula_sum "Si O2"
_cell_formula_units_Z 112
_cell_length_a 8.912606
_cell_length_b 32.852152
_cell_length_c 32.255304
_cell_angle_alpha 90.000000
_cell_angle_beta 90.000000
_cell_angle_gamma 90.000000
_cell_volume 9444.297759
_symmetry_space_group_name_H-M "I M M A"
_symmetry_group_IT_number 74
_symmetry_cell_setting 'orthorhombic'
loop_
_space_group_symop_operation_xyz
x,y,z
-x,1/2-y,z
x,-y,-z
-x,1/2+y,-z
-x,-y,-z
x,1/2+y,-z
-x,y,z
x,1/2-y,z
1/2+x,1/2+y,1/2+z
1/2-x,-y,1/2+z
1/2+x,1/2-y,1/2-z
1/2-x,y,1/2-z
1/2-x,1/2-y,1/2-z
1/2+x,y,1/2-z
1/2-x,1/2+y,1/2+z
1/2+x,-y,1/2+z
loop_
_atom_site_type_symbol
_atom_site_label
_atom_site_fract_x
_atom_site_fract_y
_atom_site_fract_z
Si Si1 0.673631 0.973277 0.957421
Si Si2 0.679518 0.332447 0.705548
Si Si3 0.821983 0.250000 0.922837
Si Si4 0.827216 0.402627 0.996452
Si Si5 0.676151 0.615393 0.134619
Si Si6 0.327250 0.955985 0.411499
Si Si7 0.676126 0.331613 0.949608
Si Si8 0.319324 0.750000 0.168745
O O1 0.500000 0.966985 0.946916
O O2 0.754069 0.931080 0.968626
O O3 0.755711 0.000778 0.923244
O O4 0.677505 0.000000 0.000000
O O5 0.500000 0.328622 0.707833
O O6 0.750000 0.342566 0.750000
O O7 0.727759 0.365742 0.671612
O O8 0.752570 0.289946 0.690532
O O9 0.770753 0.290509 0.946626
O O10 0.735425 0.250000 0.878829
O O11 0.000000 0.250000 0.915493
O O12 0.000000 0.393180 0.005825
O O13 0.825774 0.429946 0.954386
O O14 0.735092 0.362455 0.984610
O O15 0.500000 0.614903 0.145198
O O16 0.733271 0.571128 0.120530
O O17 0.693842 0.644804 0.094442
O O18 0.500000 0.959930 0.398560
O O19 0.500000 0.322900 0.954810
O O20 0.500000 0.750000 0.170534
#
# Coordination Sequence:
#
# PCOD9535325 Si02
#       8
#    16  16   8  16  16  16  16   8
#     4   9  15  23  35  52  73  95 117 137 163 195
#     4  12  24  37  50  62  75  91 112 141 179 222
#     4  12  22  31  45  60  74  92 117 146 180 218
#     4   9  16  25  37  53  73  93 116 140 166 199
#     4  10  19  31  45  59  75  92 113 139 171 211
#     4   9  16  25  38  55  74  94 115 137 164 197
#     4  10  19  30  43  56  73  93 115 142 175 211
#     4  12  23  37  50  62  75  88 110 142 180 222
#
# _framework density 11.859007999999999
#
# number of rings (size 3 to 8) (size 9 to 14) (size 15 to 20)
#    0.000    1.857    1.429    4.929    0.000    6.286 
#    0.000    0.000    0.000    0.000    0.000    0.000 
#    0.000    0.000    0.000    0.000    0.000    0.000 
#
# Total GULP energy -312396.958229 kJ/mol
# GULP energy per Si atom -5578.517111 kJ/mol
# Density = 1.183202 g / cm^3
# Si number density = 11.859008 Si / 1000 Ang^3
#
#
#
# Elastic Constant Matrix: (Units=GPa)
#
#
# Indices 1 2 3 4 5 6 
#
# 1 108.1176 40.8683 25.9090 0.0000 0.0000 0.0000
# 2 40.8683 55.7772 33.1864 0.0000 0.0000 0.0000
# 3 25.9090 33.1864 28.3174 0.0000 0.0000 0.0000
# 4 0.0000 0.0000 0.0000 2.2959 0.0000 0.0000
# 5 0.0000 0.0000 0.0000 0.0000 14.9429 0.0000
# 6 0.0000 0.0000 0.0000 0.0000 0.0000 21.5447
#
#
#
# Elastic Compliance Matrix: (Units=1/GPa)
#
#
# Indices 1 2 3 4 5 6 
#
# 1 0.012841 -0.007989 -0.002386 0.000000 0.000000 0.000000
# 2 -0.007989 0.064195 -0.067924 0.000000 0.000000 0.000000
# 3 -0.002386 -0.067924 0.117101 0.000000 0.000000 0.000000
# 4 0.000000 0.000000 0.000000 0.435552 0.000000 0.000000
# 5 0.000000 0.000000 0.000000 0.000000 0.066922 0.000000
# 6 0.000000 0.000000 0.000000 0.000000 0.000000 0.046415
#
#
# Mechanical properties :
#
#
# Convention : Reuss Voigt Hill
#
# Bulk Modulus (GPa) = 26.63936 43.57106 35.10521
# Shear Modulus (GPa) = 5.48164 13.90660 9.69412
#
# Velocity S-wave (km/s) = 2.15230 3.42813 2.86221
# Velocity P-wave (km/s) = 5.35618 7.24500 6.37098
#
# Compressibility (1/GPa) = 0.03753843
#
# Stress axis : x y z
#
# Youngs Moduli (GPa) = 77.87702 15.57750 8.53967
#
# Poissons Ratio (x) = 0.12444 0.02038
# Poissons Ratio (y) = 0.62213 0.58005
# Poissons Ratio (z) = 0.18585 1.05808
#
# Static dielectric constant tensor:
#      x y z
#    x 1.396700 0.000000 0.000000 
#    y 0.000000 1.378690 0.000000 
#    z 0.000000 0.000000 1.358540 
# 
# From -- ./inp_files/71145.got.cif
#   From: 2010.05.17/outbox.cif.g08.bks.cpg/sg74_36_cif.got.tgz:71145.got - 2010.06.03 17:57:02.
