data_PCOD9535667
_publ_section_title
;
Structure prediction by ZEFSAII (Michael W. Deem and Ramdas Pophale) SiO2 
 PCOD9535667
Probable space group: I M M A
;
_chemical_formula_sum "Si O2"
_cell_formula_units_Z 112
_cell_length_a 22.194114
_cell_length_b 26.002805
_cell_length_c 11.062090
_cell_angle_alpha 90.000000
_cell_angle_beta 90.000000
_cell_angle_gamma 90.000000
_cell_volume 6384.034115
_symmetry_space_group_name_H-M "I M M A"
_symmetry_group_IT_number 74
_symmetry_cell_setting 'orthorhombic'
loop_
_space_group_symop_operation_xyz
x,y,z
-x,1/2-y,z
x,-y,-z
-x,1/2+y,-z
-x,-y,-z
x,1/2+y,-z
-x,y,z
x,1/2-y,z
1/2+x,1/2+y,1/2+z
1/2-x,-y,1/2+z
1/2+x,1/2-y,1/2-z
1/2-x,y,1/2-z
1/2-x,1/2-y,1/2-z
1/2+x,y,1/2-z
1/2-x,1/2+y,1/2+z
1/2+x,-y,1/2+z
loop_
_atom_site_type_symbol
_atom_site_label
_atom_site_fract_x
_atom_site_fract_y
_atom_site_fract_z
Si Si1 0.310719 0.145448 0.167145
Si Si2 0.180460 0.974101 0.620748
Si Si3 0.328960 0.364660 0.682706
Si Si4 0.682173 0.515664 0.369821
Si Si5 0.430861 0.189217 0.288245
Si Si6 0.430120 0.307011 0.577328
Si Si7 0.781613 0.309559 0.585097
O O1 0.250000 0.148542 0.250000
O O2 0.316647 0.087197 0.118760
O O3 0.373137 0.160581 0.232691
O O4 0.302175 0.181438 0.050871
O O5 0.153611 0.000000 0.500000
O O6 0.249612 0.994098 0.625083
O O7 0.152850 0.991386 0.749445
O O8 0.314935 0.423411 0.652251
O O9 0.396167 0.350829 0.648544
O O10 0.287161 0.328189 0.599386
O O11 0.314695 0.347008 0.819028
O O12 0.654842 0.500000 0.500000
O O13 0.500000 0.172565 0.255673
O O14 0.426656 0.250000 0.257649
O O15 0.425530 0.185419 0.433432
O O16 0.500000 0.306974 0.607917
O O17 0.405445 0.250000 0.606903
O O18 0.788577 0.250000 0.619743
#
# Coordination Sequence:
#
# PCOD9535667 Si02
#       7
#    16  16  16  16  16  16  16
#     4  12  22  34  58  85 111 144 195 242 282 339
#     4  10  19  34  50  76 112 142 179 233 286 338
#     4  11  20  34  55  75 113 149 181 224 289 347
#     4  10  19  31  50  76 105 140 180 227 281 335
#     4   9  20  37  55  79 114 151 184 228 288 346
#     4   9  18  34  57  81 107 147 193 230 274 339
#     4  11  22  33  49  81 115 145 178 225 292 348
#
# _framework density 17.543766000000002
#
# number of rings (size 3 to 8) (size 9 to 14) (size 15 to 20)
#    0.000    1.714    1.429    8.143    2.000    2.286 
#    0.000    0.714    0.000    4.286    0.000    0.000 
#    0.000    0.000    0.000    0.000    0.000    0.000 
#
# Total GULP energy -312123.376637 kJ/mol
# GULP energy per Si atom -5573.631726 kJ/mol
# Density = 1.750384 g / cm^3
# Si number density = 17.543766 Si / 1000 Ang^3
#
#
#
# Elastic Constant Matrix: (Units=GPa)
#
#
# Indices 1 2 3 4 5 6 
#
# 1 70.3760 27.5845 15.7922 0.0000 0.0000 0.0000
# 2 27.5845 105.4112 27.6089 0.0000 0.0000 0.0000
# 3 15.7922 27.6089 78.6238 0.0000 0.0000 0.0000
# 4 0.0000 0.0000 0.0000 24.7063 0.0000 0.0000
# 5 0.0000 0.0000 0.0000 0.0000 17.8708 0.0000
# 6 0.0000 0.0000 0.0000 0.0000 0.0000 16.5449
#
#
#
# Elastic Compliance Matrix: (Units=1/GPa)
#
#
# Indices 1 2 3 4 5 6 
#
# 1 0.016095 -0.003706 -0.001932 0.000000 0.000000 0.000000
# 2 -0.003706 0.011301 -0.003224 0.000000 0.000000 0.000000
# 3 -0.001932 -0.003224 0.014239 0.000000 0.000000 0.000000
# 4 0.000000 0.000000 0.000000 0.040476 0.000000 0.000000
# 5 0.000000 0.000000 0.000000 0.000000 0.055957 0.000000
# 6 0.000000 0.000000 0.000000 0.000000 0.000000 0.060442
#
#
# Mechanical properties :
#
#
# Convention : Reuss Voigt Hill
#
# Bulk Modulus (GPa) = 41.81968 44.04247 42.93107
# Shear Modulus (GPa) = 22.30117 24.05274 23.17696
#
# Velocity S-wave (km/s) = 3.56922 3.70674 3.63863
# Velocity P-wave (km/s) = 6.39335 6.59384 6.49437
#
# Compressibility (1/GPa) = 0.02391219
#
# Stress axis : x y z
#
# Youngs Moduli (GPa) = 62.12942 88.48879 70.23042
#
# Poissons Ratio (x) = 0.32794 0.13565
# Poissons Ratio (y) = 0.23025 0.22642
# Poissons Ratio (z) = 0.12000 0.28528
#
# Static dielectric constant tensor:
#      x y z
#    x 1.588740 0.000000 0.000000 
#    y 0.000000 1.618160 0.000000 
#    z 0.000000 0.000000 1.653180 
# 
# From -- ./inp_files/24145.got.cif
#   From: 2010.05.17/outbox.cif.g08.bks.cpg/sg74_13_cif.got.tgz:24145.got - 2010.06.03 17:57:02.
