data_PCOD9535211
_publ_section_title
;
Structure prediction by ZEFSAII (Michael W. Deem and Ramdas Pophale) SiO2 
 PCOD9535211
Probable space group: I M M A
;
_chemical_formula_sum "Si O2"
_cell_formula_units_Z 80
_cell_length_a 27.961269
_cell_length_b 9.749190
_cell_length_c 19.085509
_cell_angle_alpha 90.000000
_cell_angle_beta 90.000000
_cell_angle_gamma 90.000000
_cell_volume 5202.704488
_symmetry_space_group_name_H-M "I M M A"
_symmetry_group_IT_number 74
_symmetry_cell_setting 'orthorhombic'
loop_
_space_group_symop_operation_xyz
x,y,z
-x,1/2-y,z
x,-y,-z
-x,1/2+y,-z
-x,-y,-z
x,1/2+y,-z
-x,y,z
x,1/2-y,z
1/2+x,1/2+y,1/2+z
1/2-x,-y,1/2+z
1/2+x,1/2-y,1/2-z
1/2-x,y,1/2-z
1/2-x,1/2-y,1/2-z
1/2+x,y,1/2-z
1/2-x,1/2+y,1/2+z
1/2+x,-y,1/2+z
loop_
_atom_site_type_symbol
_atom_site_label
_atom_site_fract_x
_atom_site_fract_y
_atom_site_fract_z
Si Si1 0.855489 0.406946 0.834018
Si Si2 0.188842 0.598202 0.940000
Si Si3 0.297220 0.908296 0.201359
Si Si4 0.197675 0.093507 0.436153
Si Si5 0.445106 0.588771 0.430213
O O1 0.842360 0.250000 0.855469
O O2 0.821710 0.519221 0.869088
O O3 0.843528 0.413911 0.752152
O O4 0.907532 0.434994 0.867164
O O5 0.167969 0.750000 0.942183
O O6 0.245464 0.608078 0.949955
O O7 0.169051 0.500000 0.000000
O O8 0.291344 0.750000 0.176246
O O9 0.250000 0.936031 0.250000
O O10 0.304319 0.011322 0.137081
O O11 0.178475 0.250000 0.433195
O O12 0.178143 0.000000 0.500000
O O13 0.436269 0.500000 0.500000
O O14 0.500000 0.561732 0.408168
O O15 0.441395 0.750000 0.448400
#
# Coordination Sequence:
#
# PCOD9535211 Si02
#       5
#    16  16  16  16  16
#     4  10  19  30  45  64  87 117 151 187 229 271
#     4  10  19  28  40  59  84 114 150 188 222 260
#     4  10  19  31  46  64  90 120 150 188 229 270
#     4  10  20  32  46  62  85 118 154 188 222 264
#     4   9  18  32  48  66  90 120 155 193 230 268
#
# _framework density 15.376618000000001
#
# number of rings (size 3 to 8) (size 9 to 14) (size 15 to 20)
#    0.000    2.200    2.000    1.800    0.000    5.200 
#    0.000    0.000    0.000    0.000    0.000    0.000 
#    0.000    0.800    0.000    1.400    0.000    2.000 
#
# Total GULP energy -222673.960332 kJ/mol
# GULP energy per Si atom -5566.849008 kJ/mol
# Density = 1.534162 g / cm^3
# Si number density = 15.376618 Si / 1000 Ang^3
#
#
#
# Elastic Constant Matrix: (Units=GPa)
#
#
# Indices 1 2 3 4 5 6 
#
# 1 50.6046 13.4127 20.0722 0.0000 0.0000 0.0000
# 2 13.4127 120.6536 69.3702 0.0000 0.0000 0.0000
# 3 20.0722 69.3702 86.9776 0.0000 0.0000 0.0000
# 4 0.0000 0.0000 0.0000 19.3481 0.0000 0.0000
# 5 0.0000 0.0000 0.0000 0.0000 20.9654 0.0000
# 6 0.0000 0.0000 0.0000 0.0000 0.0000 10.1808
#
#
#
# Elastic Compliance Matrix: (Units=1/GPa)
#
#
# Indices 1 2 3 4 5 6 
#
# 1 0.021801 0.000866 -0.005722 0.000000 0.000000 0.000000
# 2 0.000866 0.015342 -0.012436 0.000000 0.000000 0.000000
# 3 -0.005722 -0.012436 0.022736 0.000000 0.000000 0.000000
# 4 0.000000 0.000000 0.000000 0.051685 0.000000 0.000000
# 5 0.000000 0.000000 0.000000 0.000000 0.047698 0.000000
# 6 0.000000 0.000000 0.000000 0.000000 0.000000 0.098224
#
#
# Mechanical properties :
#
#
# Convention : Reuss Voigt Hill
#
# Bulk Modulus (GPa) = 39.53250 51.54955 45.54103
# Shear Modulus (GPa) = 16.63882 20.45758 18.54820
#
# Velocity S-wave (km/s) = 3.29308 3.65147 3.47689
# Velocity P-wave (km/s) = 6.34227 7.16764 6.76755
#
# Compressibility (1/GPa) = 0.02529564
#
# Stress axis : x y z
#
# Youngs Moduli (GPa) = 45.86934 65.17993 43.98228
#
# Poissons Ratio (x) = -0.05647 0.25167
# Poissons Ratio (y) = -0.03974 0.54698
# Poissons Ratio (z) = 0.26247 0.81060
#
# Static dielectric constant tensor:
#      x y z
#    x 1.528860 0.000000 0.000000 
#    y 0.000000 1.646690 0.000000 
#    z 0.000000 0.000000 1.527110 
# 
# From -- ./inp_files/39740.got.cif
#   From: 2010.05.17/outbox.cif.g08.bks.cpg/sg74_20_cif.got.tgz:39740.got - 2010.06.03 17:57:02.
