data_PCOD9535254
_publ_section_title
;
Structure prediction by ZEFSAII (Michael W. Deem and Ramdas Pophale) SiO2 
 PCOD9535254
Probable space group: I M M A
;
_chemical_formula_sum "Si O2"
_cell_formula_units_Z 96
_cell_length_a 23.146217
_cell_length_b 9.122653
_cell_length_c 26.878912
_cell_angle_alpha 90.000000
_cell_angle_beta 90.000000
_cell_angle_gamma 90.000000
_cell_volume 5675.614135
_symmetry_space_group_name_H-M "I M M A"
_symmetry_group_IT_number 74
_symmetry_cell_setting 'orthorhombic'
loop_
_space_group_symop_operation_xyz
x,y,z
-x,1/2-y,z
x,-y,-z
-x,1/2+y,-z
-x,-y,-z
x,1/2+y,-z
-x,y,z
x,1/2-y,z
1/2+x,1/2+y,1/2+z
1/2-x,-y,1/2+z
1/2+x,1/2-y,1/2-z
1/2-x,y,1/2-z
1/2-x,1/2-y,1/2-z
1/2+x,y,1/2-z
1/2-x,1/2+y,1/2+z
1/2+x,-y,1/2+z
loop_
_atom_site_type_symbol
_atom_site_label
_atom_site_fract_x
_atom_site_fract_y
_atom_site_fract_z
Si Si1 0.068825 0.423404 0.946806
Si Si2 0.756474 0.913814 0.454946
Si Si3 0.069381 0.419110 0.447731
Si Si4 0.165708 0.925171 0.890607
Si Si5 0.760347 0.074442 0.307534
Si Si6 0.646891 0.084875 0.870573
O O1 0.081853 0.250000 0.949752
O O2 0.104957 0.497165 0.902064
O O3 0.000000 0.440733 0.939119
O O4 0.082552 0.500000 0.000000
O O5 0.737313 0.750000 0.468207
O O6 0.802864 0.903266 0.411742
O O7 0.784302 0.000000 0.500000
O O8 0.704725 0.014069 0.435645
O O9 0.082468 0.500000 0.500000
O O10 0.089085 0.250000 0.450658
O O11 0.097507 0.496945 0.399870
O O12 0.000000 0.421155 0.442694
O O13 0.159588 0.750000 0.891744
O O14 0.204242 0.964919 0.841746
O O15 0.767143 0.250000 0.312785
O O16 0.750000 0.038787 0.250000
O O17 0.818962 0.998473 0.326937
O O18 0.628648 0.250000 0.856725
#
# Coordination Sequence:
#
# PCOD9535254 Si02
#       6
#    16  16  16  16  16  16
#     4  10  20  33  49  70  99 134 167 198 233 278
#     4  10  19  29  42  64  95 127 158 192 234 285
#     4  10  20  33  50  73 103 139 174 207 244 290
#     4  10  19  31  49  71  95 124 158 198 242 288
#     4   9  19  36  56  76  98 126 162 206 256 305
#     4  10  20  32  49  73  99 129 164 204 249 297
#
# _framework density 16.914467999999999
#
# number of rings (size 3 to 8) (size 9 to 14) (size 15 to 20)
#    0.000    2.167    0.000    3.500    0.000    6.333 
#    0.000    0.000    0.000    1.000    0.000    2.333 
#    0.000    0.000    0.000    0.000    0.000    0.000 
#
# Total GULP energy -267499.746904 kJ/mol
# GULP energy per Si atom -5572.911394 kJ/mol
# Density = 1.687597 g / cm^3
# Si number density = 16.914468 Si / 1000 Ang^3
#
#
#
# Elastic Constant Matrix: (Units=GPa)
#
#
# Indices 1 2 3 4 5 6 
#
# 1 69.7383 43.6218 34.7723 0.0000 0.0000 0.0000
# 2 43.6218 104.7829 57.2290 0.0000 0.0000 0.0000
# 3 34.7723 57.2290 90.8694 0.0000 0.0000 0.0000
# 4 0.0000 0.0000 0.0000 21.6072 0.0000 0.0000
# 5 0.0000 0.0000 0.0000 0.0000 24.9739 0.0000
# 6 0.0000 0.0000 0.0000 0.0000 0.0000 33.5381
#
#
#
# Elastic Compliance Matrix: (Units=1/GPa)
#
#
# Indices 1 2 3 4 5 6 
#
# 1 0.020174 -0.006375 -0.003705 0.000000 0.000000 0.000000
# 2 -0.006375 0.016562 -0.007991 0.000000 0.000000 0.000000
# 3 -0.003705 -0.007991 0.017455 0.000000 0.000000 0.000000
# 4 0.000000 0.000000 0.000000 0.046281 0.000000 0.000000
# 5 0.000000 0.000000 0.000000 0.000000 0.040042 0.000000
# 6 0.000000 0.000000 0.000000 0.000000 0.000000 0.029817
#
#
# Mechanical properties :
#
#
# Convention : Reuss Voigt Hill
#
# Bulk Modulus (GPa) = 55.40401 59.62631 57.51516
# Shear Modulus (GPa) = 23.53049 24.67501 24.10275
#
# Velocity S-wave (km/s) = 3.73385 3.82358 3.77898
# Velocity P-wave (km/s) = 7.17045 7.40414 7.28823
#
# Compressibility (1/GPa) = 0.01804923
#
# Stress axis : x y z
#
# Youngs Moduli (GPa) = 49.56784 60.37871 57.28914
#
# Poissons Ratio (x) = 0.38493 0.21225
# Poissons Ratio (y) = 0.31601 0.45781
# Poissons Ratio (z) = 0.18364 0.48250
#
# Static dielectric constant tensor:
#      x y z
#    x 1.593640 0.000000 0.000000 
#    y 0.000000 1.606050 0.000000 
#    z 0.000000 0.000000 1.601900 
# 
# From -- ./inp_files/64667.got.cif
#   From: 2010.05.17/outbox.cif.g08.bks.cpg/sg74_33_cif.got.tgz:64667.got - 2010.06.03 17:57:02.
