data_PCOD9535946
_publ_section_title
;
Structure prediction by ZEFSAII (Michael W. Deem and Ramdas Pophale) SiO2 
 PCOD9535946
Probable space group: I M M A
;
_chemical_formula_sum "Si O2"
_cell_formula_units_Z 44
_cell_length_a 5.529716
_cell_length_b 16.178725
_cell_length_c 24.083608
_cell_angle_alpha 90.000000
_cell_angle_beta 90.000000
_cell_angle_gamma 90.000000
_cell_volume 2154.609993
_symmetry_space_group_name_H-M "I M M A"
_symmetry_group_IT_number 74
_symmetry_cell_setting 'orthorhombic'
loop_
_space_group_symop_operation_xyz
x,y,z
-x,1/2-y,z
x,-y,-z
-x,1/2+y,-z
-x,-y,-z
x,1/2+y,-z
-x,y,z
x,1/2-y,z
1/2+x,1/2+y,1/2+z
1/2-x,-y,1/2+z
1/2+x,1/2-y,1/2-z
1/2-x,y,1/2-z
1/2-x,1/2-y,1/2-z
1/2+x,y,1/2-z
1/2-x,1/2+y,1/2+z
1/2+x,-y,1/2+z
loop_
_atom_site_type_symbol
_atom_site_label
_atom_site_fract_x
_atom_site_fract_y
_atom_site_fract_z
Si Si1 0.000000 0.100064 0.629743
Si Si2 0.500000 0.844955 0.426056
Si Si3 0.000000 0.250000 0.715774
Si Si4 0.500000 0.750000 0.646963
Si Si5 0.500000 0.250000 0.153065
Si Si6 0.500000 0.571036 0.905826
Si Si7 0.500000 0.390924 0.447430
O O1 0.249005 0.117548 0.596457
O O2 0.000000 0.166163 0.679232
O O3 0.000000 0.001205 0.640362
O O4 0.500000 0.750000 0.407633
O O5 0.500000 0.849474 0.492653
O O6 0.250000 0.250000 0.750000
O O7 0.257056 0.750000 0.681975
O O8 0.500000 0.673133 0.604163
O O9 0.500000 0.334594 0.116686
O O10 0.252730 0.561396 0.940480
#
# Coordination Sequence:
#
# PCOD9535946 Si02
#       7
#     8   8   4   4   4   8   8
#     4  12  25  41  61  89 116 147 203 262 311 363
#     4  12  22  37  57  82 124 169 205 248 299 340
#     4  12  26  48  72  90 112 152 198 260 342 400
#     4   8  14  26  43  66  96 143 204 223 253 306
#     4   8  16  30  49  72 106 149 182 229 275 322
#     4  10  21  35  55  84 119 159 209 244 279 345
#     4  10  19  32  52  78 115 170 203 235 277 339
#
# _framework density 20.421332
#
# number of rings (size 3 to 8) (size 9 to 14) (size 15 to 20)
#    0.000    1.455    2.727    3.273    0.000    4.364 
#    0.000    0.000    0.000    0.000    0.000    1.273 
#    0.000    0.000    0.000    0.000    0.000    0.000 
#
# Total GULP energy -122536.151219 kJ/mol
# GULP energy per Si atom -5569.825055 kJ/mol
# Density = 2.037485 g / cm^3
# Si number density = 20.421332 Si / 1000 Ang^3
#
#
#
# Elastic Constant Matrix: (Units=GPa)
#
#
# Indices 1 2 3 4 5 6 
#
# 1 247.1959 32.5964 38.0484 0.0000 0.0000 0.0000
# 2 32.5964 150.0195 30.7686 0.0000 0.0000 0.0000
# 3 38.0484 30.7686 61.0554 0.0000 0.0000 0.0000
# 4 0.0000 0.0000 0.0000 12.2234 0.0000 0.0000
# 5 0.0000 0.0000 0.0000 0.0000 32.9846 0.0000
# 6 0.0000 0.0000 0.0000 0.0000 0.0000 -196.0733
#
#
#
# Elastic Compliance Matrix: (Units=1/GPa)
#
#
# Indices 1 2 3 4 5 6 
#
# 1 0.004502 -0.000449 -0.002579 0.000000 0.000000 0.000000
# 2 -0.000449 0.007479 -0.003489 0.000000 0.000000 0.000000
# 3 -0.002579 -0.003489 0.019744 0.000000 0.000000 0.000000
# 4 0.000000 0.000000 0.000000 0.081810 0.000000 0.000000
# 5 0.000000 0.000000 0.000000 0.000000 0.030317 0.000000
# 6 0.000000 0.000000 0.000000 0.000000 0.000000 -0.005100
#
#
# Mechanical properties :
#
#
# Convention : Reuss Voigt Hill
#
# Bulk Modulus (GPa) = 53.50398 73.45531 63.47965
# Shear Modulus (GPa) = 31.64235 -6.38257 12.62989
#
# Velocity S-wave (km/s) = 3.94061 -1.76981 2.48959
# Velocity P-wave (km/s) = 6.85284 5.64550 6.27826
#
# Compressibility (1/GPa) = 0.01869020
#
# Stress axis : x y z
#
# Youngs Moduli (GPa) = 222.14562 133.70763 50.64824
#
# Poissons Ratio (x) = 0.06006 0.13062
# Poissons Ratio (y) = 0.09978 0.17672
# Poissons Ratio (z) = 0.57289 0.46652
#
# Static dielectric constant tensor:
#      x y z
#    x 1.785190 0.000000 0.000000 
#    y 0.000000 1.748500 0.000000 
#    z 0.000000 0.000000 1.662590 
# 
# From -- ./inp_files/55881.got.cif
#   From: 2010.05.17/outbox.cif.g08.bks.cpg/sg74_28_cif.got.tgz:55881.got - 2010.06.03 17:57:02.
