data_PCOD9535982
_publ_section_title
;
Structure prediction by ZEFSAII (Michael W. Deem and Ramdas Pophale) SiO2 
 PCOD9535982
Probable space group: I M M A
;
_chemical_formula_sum "Si O2"
_cell_formula_units_Z 84
_cell_length_a 14.958717
_cell_length_b 24.326151
_cell_length_c 12.696511
_cell_angle_alpha 90.000000
_cell_angle_beta 90.000000
_cell_angle_gamma 90.000000
_cell_volume 4620.108103
_symmetry_space_group_name_H-M "I M M A"
_symmetry_group_IT_number 74
_symmetry_cell_setting 'orthorhombic'
loop_
_space_group_symop_operation_xyz
x,y,z
-x,1/2-y,z
x,-y,-z
-x,1/2+y,-z
-x,-y,-z
x,1/2+y,-z
-x,y,z
x,1/2-y,z
1/2+x,1/2+y,1/2+z
1/2-x,-y,1/2+z
1/2+x,1/2-y,1/2-z
1/2-x,y,1/2-z
1/2-x,1/2-y,1/2-z
1/2+x,y,1/2-z
1/2-x,1/2+y,1/2+z
1/2+x,-y,1/2+z
loop_
_atom_site_type_symbol
_atom_site_label
_atom_site_fract_x
_atom_site_fract_y
_atom_site_fract_z
Si Si1 0.893189 0.585336 0.498907
Si Si2 0.640813 0.839027 0.640883
Si Si3 0.000000 0.250000 0.070174
Si Si4 0.152091 0.687006 0.624100
Si Si5 0.608781 0.034735 0.399250
Si Si6 0.109454 0.503374 0.328297
O O1 0.872475 0.647473 0.528220
O O2 0.861359 0.546643 0.595486
O O3 0.861734 0.558609 0.389365
O O4 0.000000 0.579683 0.498078
O O5 0.577039 0.798373 0.578372
O O6 0.741253 0.816885 0.634244
O O7 0.613763 0.835849 0.764941
O O8 0.637335 0.901705 0.602406
O O9 0.123556 0.750000 0.612626
O O10 0.500000 0.034894 0.399856
O O11 0.639343 0.000000 0.500000
O O12 0.639686 0.006696 0.290318
O O13 0.000000 0.502836 0.325183
#
# Coordination Sequence:
#
# PCOD9535982 Si02
#       6
#    16  16   4  16  16  16
#     4   9  17  29  52  75 101 141 169 207 265 320
#     4  11  21  34  49  77 107 136 173 216 269 322
#     4  12  20  34  58  68 104 156 172 206 272 320
#     4  11  21  33  47  78 110 132 172 226 264 310
#     4  10  19  32  53  78 105 138 179 225 260 308
#     4   8  15  30  49  75 103 133 176 211 256 316
#
# _framework density 18.181394000000001
#
# number of rings (size 3 to 8) (size 9 to 14) (size 15 to 20)
#    0.000    2.095    4.762    1.714    1.333    0.381 
#    3.429    0.000    0.000    0.000    2.476    1.333 
#    0.000    0.000    0.000    0.000    0.000    0.000 
#
# Total GULP energy -233819.265555 kJ/mol
# GULP energy per Si atom -5567.125370 kJ/mol
# Density = 1.814001 g / cm^3
# Si number density = 18.181394 Si / 1000 Ang^3
#
#
#
# Elastic Constant Matrix: (Units=GPa)
#
#
# Indices 1 2 3 4 5 6 
#
# 1 26.0555 1.1882 7.1596 0.0000 0.0000 0.0000
# 2 1.1882 170.2096 74.9413 0.0000 0.0000 0.0000
# 3 7.1596 74.9413 98.3427 0.0000 0.0000 0.0000
# 4 0.0000 0.0000 0.0000 14.8987 0.0000 0.0000
# 5 0.0000 0.0000 0.0000 0.0000 12.7832 0.0000
# 6 0.0000 0.0000 0.0000 0.0000 0.0000 25.2897
#
#
#
# Elastic Compliance Matrix: (Units=1/GPa)
#
#
# Indices 1 2 3 4 5 6 
#
# 1 0.039412 0.001487 -0.004003 0.000000 0.000000 0.000000
# 2 0.001487 0.008898 -0.006889 0.000000 0.000000 0.000000
# 3 -0.004003 -0.006889 0.015709 0.000000 0.000000 0.000000
# 4 0.000000 0.000000 0.000000 0.067120 0.000000 0.000000
# 5 0.000000 0.000000 0.000000 0.000000 0.078227 0.000000
# 6 0.000000 0.000000 0.000000 0.000000 0.000000 0.039542
#
#
# Mechanical properties :
#
#
# Convention : Reuss Voigt Hill
#
# Bulk Modulus (GPa) = 22.11873 51.24287 36.68080
# Shear Modulus (GPa) = 17.68121 24.68226 21.18174
#
# Velocity S-wave (km/s) = 3.12186 3.68850 3.41695
# Velocity P-wave (km/s) = 5.01863 6.81069 5.98215
#
# Compressibility (1/GPa) = 0.04521055
#
# Stress axis : x y z
#
# Youngs Moduli (GPa) = 25.37325 112.38797 63.65612
#
# Poissons Ratio (x) = -0.16714 0.25478
# Poissons Ratio (y) = -0.03773 0.43851
# Poissons Ratio (z) = 0.10156 0.77421
#
# Static dielectric constant tensor:
#      x y z
#    x 1.675140 0.000000 0.000000 
#    y 0.000000 1.617140 0.000000 
#    z 0.000000 0.000000 1.627970 
# 
# From -- ./inp_files/20633.got.cif
#   From: 2010.05.17/outbox.cif.g08.bks.cpg/sg74_11_cif.got.tgz:20633.got - 2010.06.03 17:57:02.
