data_PCOD9535803
_publ_section_title
;
Structure prediction by ZEFSAII (Michael W. Deem and Ramdas Pophale) SiO2 
 PCOD9535803
Probable space group: I M M A
;
_chemical_formula_sum "Si O2"
_cell_formula_units_Z 96
_cell_length_a 16.893267
_cell_length_b 18.486054
_cell_length_c 20.842527
_cell_angle_alpha 90.000000
_cell_angle_beta 90.000000
_cell_angle_gamma 90.000000
_cell_volume 6508.909547
_symmetry_space_group_name_H-M "I M M A"
_symmetry_group_IT_number 74
_symmetry_cell_setting 'orthorhombic'
loop_
_space_group_symop_operation_xyz
x,y,z
-x,1/2-y,z
x,-y,-z
-x,1/2+y,-z
-x,-y,-z
x,1/2+y,-z
-x,y,z
x,1/2-y,z
1/2+x,1/2+y,1/2+z
1/2-x,-y,1/2+z
1/2+x,1/2-y,1/2-z
1/2-x,y,1/2-z
1/2-x,1/2-y,1/2-z
1/2+x,y,1/2-z
1/2-x,1/2+y,1/2+z
1/2+x,-y,1/2+z
loop_
_atom_site_type_symbol
_atom_site_label
_atom_site_fract_x
_atom_site_fract_y
_atom_site_fract_z
Si Si1 0.763995 0.904122 0.893290
Si Si2 0.094994 0.404481 0.601485
Si Si3 0.809807 0.000000 0.500000
Si Si4 0.815546 0.750000 0.594404
Si Si5 0.407458 0.896820 0.695380
Si Si6 0.094497 0.750000 0.458359
Si Si7 0.154588 0.750000 0.738625
Si Si8 0.325463 0.496158 0.790631
O O1 0.744684 0.948562 0.956915
O O2 0.736624 0.822205 0.902892
O O3 0.852891 0.906407 0.867199
O O4 0.710569 0.942425 0.838153
O O5 0.133834 0.453378 0.546017
O O6 0.113982 0.321983 0.582070
O O7 0.133018 0.434716 0.667028
O O8 0.000000 0.412798 0.603245
O O9 0.865075 0.750000 0.528487
O O10 0.862370 0.750000 0.662274
O O11 0.500000 0.895121 0.682144
O O12 0.380255 0.821942 0.729004
O O13 0.385015 0.962175 0.743480
O O14 0.000000 0.750000 0.468878
O O15 0.250000 0.750000 0.750000
O O16 0.250000 0.468886 0.750000
#
# Coordination Sequence:
#
# PCOD9535803 Si02
#       8
#    16  16   8   8  16   8   8  16
#     4  10  19  32  50  67  95 129 161 196 237 286
#     4  10  19  32  49  72  98 125 158 202 240 281
#     4  10  19  32  49  70  92 130 168 194 239 290
#     4  12  18  33  48  65 100 137 160 183 236 288
#     4  11  20  31  47  72  98 127 163 200 237 280
#     4  10  22  34  46  71 103 126 157 196 237 281
#     4  12  19  31  46  68 100 134 160 191 234 283
#     4   9  18  33  50  70  97 127 157 195 241 291
#
# _framework density 14.749014000000001
#
# number of rings (size 3 to 8) (size 9 to 14) (size 15 to 20)
#    0.000    1.667    5.000    1.500    0.000    0.667 
#    0.000    0.833    0.000    0.000    0.000    0.000 
#    0.000    0.000    0.000    0.000    0.000    0.000 
#
# Total GULP energy -267678.051466 kJ/mol
# GULP energy per Si atom -5576.626072 kJ/mol
# Density = 1.471544 g / cm^3
# Si number density = 14.749014 Si / 1000 Ang^3
#
#
#
# Elastic Constant Matrix: (Units=GPa)
#
#
# Indices 1 2 3 4 5 6 
#
# 1 107.4803 55.3508 51.6576 0.0000 0.0000 0.0000
# 2 55.3508 102.2218 60.3016 0.0000 0.0000 0.0000
# 3 51.6576 60.3016 93.3824 0.0000 0.0000 0.0000
# 4 0.0000 0.0000 0.0000 24.2589 0.0000 0.0000
# 5 0.0000 0.0000 0.0000 0.0000 24.3382 0.0000
# 6 0.0000 0.0000 0.0000 0.0000 0.0000 18.8365
#
#
#
# Elastic Compliance Matrix: (Units=1/GPa)
#
#
# Indices 1 2 3 4 5 6 
#
# 1 0.014033 -0.004877 -0.004613 0.000000 0.000000 0.000000
# 2 -0.004877 0.017497 -0.008601 0.000000 0.000000 0.000000
# 3 -0.004613 -0.008601 0.018815 0.000000 0.000000 0.000000
# 4 0.000000 0.000000 0.000000 0.041222 0.000000 0.000000
# 5 0.000000 0.000000 0.000000 0.000000 0.041088 0.000000
# 6 0.000000 0.000000 0.000000 0.000000 0.000000 0.053088
#
#
# Mechanical properties :
#
#
# Convention : Reuss Voigt Hill
#
# Bulk Modulus (GPa) = 70.61078 70.85607 70.73343
# Shear Modulus (GPa) = 22.06078 22.53835 22.29957
#
# Velocity S-wave (km/s) = 3.87168 3.91337 3.89258
# Velocity P-wave (km/s) = 8.24411 8.28038 8.26227
#
# Compressibility (1/GPa) = 0.01416214
#
# Stress axis : x y z
#
# Youngs Moduli (GPa) = 71.26078 57.15192 53.14957
#
# Poissons Ratio (x) = 0.27873 0.24520
# Poissons Ratio (y) = 0.34754 0.45714
# Poissons Ratio (z) = 0.32876 0.49156
#
# Static dielectric constant tensor:
#      x y z
#    x 1.467390 0.000000 0.000000 
#    y 0.000000 1.478820 0.000000 
#    z 0.000000 0.000000 1.487650 
# 
# From -- ./inp_files/53214.got.cif
#   From: 2010.05.17/outbox.cif.g08.bks.cpg/sg74_27_cif.got.tgz:53214.got - 2010.06.03 17:57:02.
