data_PCOD9535794
_publ_section_title
;
Structure prediction by ZEFSAII (Michael W. Deem and Ramdas Pophale) SiO2 
 PCOD9535794
Probable space group: I M M A
;
_chemical_formula_sum "Si O2"
_cell_formula_units_Z 120
_cell_length_a 8.941972
_cell_length_b 29.065060
_cell_length_c 29.152186
_cell_angle_alpha 90.000000
_cell_angle_beta 90.000000
_cell_angle_gamma 90.000000
_cell_volume 7576.622610
_symmetry_space_group_name_H-M "I M M A"
_symmetry_group_IT_number 74
_symmetry_cell_setting 'orthorhombic'
loop_
_space_group_symop_operation_xyz
x,y,z
-x,1/2-y,z
x,-y,-z
-x,1/2+y,-z
-x,-y,-z
x,1/2+y,-z
-x,y,z
x,1/2-y,z
1/2+x,1/2+y,1/2+z
1/2-x,-y,1/2+z
1/2+x,1/2-y,1/2-z
1/2-x,y,1/2-z
1/2-x,1/2-y,1/2-z
1/2+x,y,1/2-z
1/2-x,1/2+y,1/2+z
1/2+x,-y,1/2+z
loop_
_atom_site_type_symbol
_atom_site_label
_atom_site_fract_x
_atom_site_fract_y
_atom_site_fract_z
Si Si1 0.679018 0.651257 0.199593
Si Si2 0.319521 0.303674 0.299920
Si Si3 0.321131 0.750000 0.199495
Si Si4 0.178285 0.566679 0.147815
Si Si5 0.319681 0.112583 0.365075
Si Si6 0.179998 0.027041 0.199748
Si Si7 0.820856 0.563463 0.548635
Si Si8 0.679791 0.454561 0.945839
O O1 0.500000 0.647278 0.202619
O O2 0.750000 0.650743 0.250000
O O3 0.718374 0.701063 0.177702
O O4 0.746704 0.609012 0.172999
O O5 0.500000 0.306544 0.295896
O O6 0.280775 0.250000 0.309725
O O7 0.250000 0.315550 0.250000
O O8 0.274175 0.339580 0.340024
O O9 0.500000 0.750000 0.205147
O O10 0.250000 0.750000 0.250000
O O11 0.225015 0.519002 0.172446
O O12 0.233514 0.567230 0.095932
O O13 0.000000 0.569434 0.150550
O O14 0.500000 0.113207 0.369331
O O15 0.277386 0.071599 0.329953
O O16 0.253561 0.097244 0.414310
O O17 0.250000 0.027907 0.250000
O O18 0.000000 0.026973 0.203873
O O19 0.779845 0.567771 0.494862
O O20 0.785478 0.509327 0.556855
O O21 0.000000 0.568368 0.552428
O O22 0.500000 0.450593 0.940941
#
# Coordination Sequence:
#
# PCOD9535794 Si02
#       8
#    16  16   8  16  16  16  16  16
#     4  10  19  32  49  70  96 127 161 198 237 279
#     4   9  18  32  50  72  99 131 167 206 247 291
#     4   8  16  30  48  68  90 118 156 196 234 272
#     4  11  21  32  46  69  98 129 163 194 236 288
#     4  10  19  32  48  70  98 127 161 201 244 287
#     4  10  21  32  42  62  94 130 162 191 225 274
#     4   9  18  32  51  73  95 121 158 197 241 288
#     4   9  18  33  50  70  96 125 157 199 241 284
#
# _framework density 15.838191999999999
#
# number of rings (size 3 to 8) (size 9 to 14) (size 15 to 20)
#    0.000    2.400    1.333    2.400    0.000    4.267 
#    0.000    1.333    0.000    0.000    1.733    0.000 
#    0.000    0.000    0.000    0.000    0.000    0.000 
#
# Total GULP energy -334260.076267 kJ/mol
# GULP energy per Si atom -5571.001271 kJ/mol
# Density = 1.580214 g / cm^3
# Si number density = 15.838192 Si / 1000 Ang^3
#
#
#
# Elastic Constant Matrix: (Units=GPa)
#
#
# Indices 1 2 3 4 5 6 
#
# 1 19.8884 34.8918 34.7493 0.0000 0.0000 0.0000
# 2 34.8918 118.8882 65.2032 0.0000 0.0000 0.0000
# 3 34.7493 65.2032 109.8061 0.0000 0.0000 0.0000
# 4 0.0000 0.0000 0.0000 13.2734 0.0000 0.0000
# 5 0.0000 0.0000 0.0000 0.0000 30.7983 0.0000
# 6 0.0000 0.0000 0.0000 0.0000 0.0000 20.3637
#
#
#
# Elastic Compliance Matrix: (Units=1/GPa)
#
#
# Indices 1 2 3 4 5 6 
#
# 1 0.157330 -0.027980 -0.033174 0.000000 0.000000 0.000000
# 2 -0.027980 0.017449 -0.001507 0.000000 0.000000 0.000000
# 3 -0.033174 -0.001507 0.020500 0.000000 0.000000 0.000000
# 4 0.000000 0.000000 0.000000 0.075339 0.000000 0.000000
# 5 0.000000 0.000000 0.000000 0.000000 0.032469 0.000000
# 6 0.000000 0.000000 0.000000 0.000000 0.000000 0.049107
#
#
# Mechanical properties :
#
#
# Convention : Reuss Voigt Hill
#
# Bulk Modulus (GPa) = 14.29441 57.58570 35.94005
# Shear Modulus (GPa) = 9.98332 20.46965 15.22648
#
# Velocity S-wave (km/s) = 2.51337 3.59893 3.10397
# Velocity P-wave (km/s) = 4.17942 7.32853 5.96552
#
# Compressibility (1/GPa) = 0.06995743
#
# Stress axis : x y z
#
# Youngs Moduli (GPa) = 6.35608 57.30883 48.77989
#
# Poissons Ratio (x) = 1.60347 1.61824
# Poissons Ratio (y) = 0.17784 0.07351
# Poissons Ratio (z) = 0.21086 0.08637
#
# Static dielectric constant tensor:
#      x y z
#    x 1.529580 0.000000 0.000000 
#    y 0.000000 1.564590 0.000000 
#    z 0.000000 0.000000 1.486660 
# 
# From -- ./inp_files/65153.got.cif
#   From: 2010.05.17/outbox.cif.g08.bks.cpg/sg74_33_cif.got.tgz:65153.got - 2010.06.03 17:57:02.
