data_PCOD9535710
_publ_section_title
;
Structure prediction by ZEFSAII (Michael W. Deem and Ramdas Pophale) SiO2 
 PCOD9535710
Probable space group: I M M A
;
_chemical_formula_sum "Si O2"
_cell_formula_units_Z 104
_cell_length_a 29.564790
_cell_length_b 8.633138
_cell_length_c 24.681410
_cell_angle_alpha 90.000000
_cell_angle_beta 90.000000
_cell_angle_gamma 90.000000
_cell_volume 6299.606872
_symmetry_space_group_name_H-M "I M M A"
_symmetry_group_IT_number 74
_symmetry_cell_setting 'orthorhombic'
loop_
_space_group_symop_operation_xyz
x,y,z
-x,1/2-y,z
x,-y,-z
-x,1/2+y,-z
-x,-y,-z
x,1/2+y,-z
-x,y,z
x,1/2-y,z
1/2+x,1/2+y,1/2+z
1/2-x,-y,1/2+z
1/2+x,1/2-y,1/2-z
1/2-x,y,1/2-z
1/2-x,1/2-y,1/2-z
1/2+x,y,1/2-z
1/2-x,1/2+y,1/2+z
1/2+x,-y,1/2+z
loop_
_atom_site_type_symbol
_atom_site_label
_atom_site_fract_x
_atom_site_fract_y
_atom_site_fract_z
Si Si1 0.373659 0.435873 0.438868
Si Si2 0.413455 0.435396 0.124758
Si Si3 0.824251 0.562644 0.561207
Si Si4 0.000000 0.934828 0.439182
Si Si5 0.774484 0.563369 0.938872
Si Si6 0.052121 0.937024 0.142530
Si Si7 0.053099 0.063840 0.733830
O O1 0.378355 0.500000 0.500000
O O2 0.375182 0.250000 0.441299
O O3 0.323656 0.484403 0.416741
O O4 0.413125 0.496207 0.400474
O O5 0.416391 0.250000 0.120712
O O6 0.366427 0.487394 0.097600
O O7 0.455553 0.507251 0.092260
O O8 0.418080 0.485476 0.187026
O O9 0.829085 0.500000 0.500000
O O10 0.825036 0.750000 0.558555
O O11 0.774582 0.514921 0.583689
O O12 0.000000 0.750000 0.440482
O O13 0.000000 0.000000 0.500000
O O14 0.774552 0.750000 0.939845
O O15 0.774254 0.500000 0.000000
O O16 0.053266 0.750000 0.140328
O O17 0.063894 0.982196 0.204438
O O18 0.000000 0.984431 0.132143
O O19 0.057307 0.250000 0.729787
O O20 0.000000 0.026615 0.724582
#
# Coordination Sequence:
#
# PCOD9535710 Si02
#       7
#    16  16  16   8  16  16  16
#     4  10  19  31  51  77 103 131 161 194 238 288
#     4  11  21  32  49  73  97 125 163 206 248 293
#     4   9  18  31  47  69  97 126 159 200 245 291
#     4  12  24  36  48  66  98 134 165 202 251 300
#     4   8  15  29  47  68  95 126 159 195 236 286
#     4   9  19  35  53  73  99 130 163 199 241 286
#     4   9  18  34  53  70  91 126 166 203 246 290
#
# _framework density 16.508966000000001
#
# number of rings (size 3 to 8) (size 9 to 14) (size 15 to 20)
#    0.000    2.462    0.769    3.000    0.000    4.308 
#    0.000    1.538    0.000    0.923    0.000    6.462 
#    0.000    0.000    0.000    0.000    0.000    0.000 
#
# Total GULP energy -289752.716980 kJ/mol
# GULP energy per Si atom -5572.167634 kJ/mol
# Density = 1.647139 g / cm^3
# Si number density = 16.508966 Si / 1000 Ang^3
#
#
#
# Elastic Constant Matrix: (Units=GPa)
#
#
# Indices 1 2 3 4 5 6 
#
# 1 169.9125 38.4768 91.4360 0.0000 0.0000 0.0000
# 2 38.4768 29.9843 29.1063 0.0000 0.0000 0.0000
# 3 91.4360 29.1063 98.5622 0.0000 0.0000 0.0000
# 4 0.0000 0.0000 0.0000 27.2953 0.0000 0.0000
# 5 0.0000 0.0000 0.0000 0.0000 5.9607 0.0000
# 6 0.0000 0.0000 0.0000 0.0000 0.0000 12.8963
#
#
#
# Elastic Compliance Matrix: (Units=1/GPa)
#
#
# Indices 1 2 3 4 5 6 
#
# 1 0.012669 -0.006797 -0.009746 0.000000 0.000000 0.000000
# 2 -0.006797 0.050399 -0.008578 0.000000 0.000000 0.000000
# 3 -0.009746 -0.008578 0.021720 0.000000 0.000000 0.000000
# 4 0.000000 0.000000 0.000000 0.036636 0.000000 0.000000
# 5 0.000000 0.000000 0.000000 0.000000 0.167767 0.000000
# 6 0.000000 0.000000 0.000000 0.000000 0.000000 0.077541
#
#
# Mechanical properties :
#
#
# Convention : Reuss Voigt Hill
#
# Bulk Modulus (GPa) = 28.94575 68.49967 48.72271
# Shear Modulus (GPa) = 11.66886 18.52646 15.09766
#
# Velocity S-wave (km/s) = 2.66149 3.35357 3.02737
# Velocity P-wave (km/s) = 5.19770 7.52182 6.46505
#
# Compressibility (1/GPa) = 0.03454739
#
# Stress axis : x y z
#
# Youngs Moduli (GPa) = 78.93125 19.84147 46.03967
#
# Poissons Ratio (x) = 0.13486 0.44870
# Poissons Ratio (y) = 0.53649 0.39492
# Poissons Ratio (z) = 0.76927 0.17020
#
# Static dielectric constant tensor:
#      x y z
#    x 1.587220 0.000000 0.000000 
#    y 0.000000 1.561340 0.000000 
#    z 0.000000 0.000000 1.522480 
# 
# From -- ./inp_files/68682.got.cif
#   From: 2010.05.17/outbox.cif.g08.bks.cpg/sg74_35_cif.got.tgz:68682.got - 2010.06.03 17:57:02.
