data_PCOD9535681
_publ_section_title
;
Structure prediction by ZEFSAII (Michael W. Deem and Ramdas Pophale) SiO2 
 PCOD9535681
Probable space group: I M M A
;
_chemical_formula_sum "Si O2"
_cell_formula_units_Z 80
_cell_length_a 21.125683
_cell_length_b 7.767674
_cell_length_c 23.887924
_cell_angle_alpha 90.000000
_cell_angle_beta 90.000000
_cell_angle_gamma 90.000000
_cell_volume 3919.946663
_symmetry_space_group_name_H-M "I M M A"
_symmetry_group_IT_number 74
_symmetry_cell_setting 'orthorhombic'
loop_
_space_group_symop_operation_xyz
x,y,z
-x,1/2-y,z
x,-y,-z
-x,1/2+y,-z
-x,-y,-z
x,1/2+y,-z
-x,y,z
x,1/2-y,z
1/2+x,1/2+y,1/2+z
1/2-x,-y,1/2+z
1/2+x,1/2-y,1/2-z
1/2-x,y,1/2-z
1/2-x,1/2-y,1/2-z
1/2+x,y,1/2-z
1/2-x,1/2+y,1/2+z
1/2+x,-y,1/2+z
loop_
_atom_site_type_symbol
_atom_site_label
_atom_site_fract_x
_atom_site_fract_y
_atom_site_fract_z
Si Si1 0.627582 0.043773 0.368761
Si Si2 0.500000 0.542551 0.934037
Si Si3 0.675559 0.039551 0.249463
Si Si4 0.626338 0.039151 0.129275
Si Si5 0.249028 0.956833 0.935356
Si Si6 0.500000 0.452467 0.565929
O O1 0.633453 0.250000 0.365739
O O2 0.638871 0.981732 0.305304
O O3 0.686202 0.975940 0.405292
O O4 0.562231 0.010521 0.400417
O O5 0.500000 0.750000 0.432796
O O6 0.437451 0.480572 0.901337
O O7 0.500000 0.500000 0.000000
O O8 0.676650 0.250000 0.249015
O O9 0.750000 0.987248 0.250000
O O10 0.639496 0.985445 0.193107
O O11 0.625027 0.250000 0.129175
O O12 0.687219 0.981307 0.094049
O O13 0.248805 0.750000 0.929440
O O14 0.248565 0.000000 0.000000
O O15 0.500000 0.750000 0.930707
O O16 0.500000 0.500000 0.500000
#
# Coordination Sequence:
#
# PCOD9535681 Si02
#       6
#    16   8  16  16  16   8
#     4  10  20  35  59  86 111 144 184 228 282 338
#     4  10  20  33  50  74 108 145 181 220 265 318
#     4   9  15  29  55  85 114 141 177 229 278 322
#     4   9  17  30  50  78 109 142 180 225 270 313
#     4  10  19  31  50  77 107 140 182 228 273 320
#     4  12  26  43  60  80 114 151 187 234 285 340
#
# _framework density 20.408442000000001
#
# number of rings (size 3 to 8) (size 9 to 14) (size 15 to 20)
#    0.000    2.200    2.000    2.100    0.000    3.200 
#    0.000    3.000    0.000    4.200    0.000    0.000 
#    0.000    0.000    0.000    0.000    0.000    0.000 
#
# Total GULP energy -223300.683251 kJ/mol
# GULP energy per Si atom -5582.517081 kJ/mol
# Density = 2.036199 g / cm^3
# Si number density = 20.408442 Si / 1000 Ang^3
#
#
#
# Elastic Constant Matrix: (Units=GPa)
#
#
# Indices 1 2 3 4 5 6 
#
# 1 222.6501 5.4593 146.2039 0.0000 0.0000 0.0000
# 2 5.4593 26.0630 4.1912 0.0000 0.0000 0.0000
# 3 146.2039 4.1912 254.3286 0.0000 0.0000 0.0000
# 4 0.0000 0.0000 0.0000 22.2403 0.0000 0.0000
# 5 0.0000 0.0000 0.0000 0.0000 37.0540 0.0000
# 6 0.0000 0.0000 0.0000 0.0000 0.0000 -9.8383
#
#
#
# Elastic Compliance Matrix: (Units=1/GPa)
#
#
# Indices 1 2 3 4 5 6 
#
# 1 0.007234 -0.000849 -0.004144 0.000000 0.000000 0.000000
# 2 -0.000849 0.038570 -0.000148 0.000000 0.000000 0.000000
# 3 -0.004144 -0.000148 0.006317 0.000000 0.000000 0.000000
# 4 0.000000 0.000000 0.000000 0.044963 0.000000 0.000000
# 5 0.000000 0.000000 0.000000 0.000000 0.026988 0.000000
# 6 0.000000 0.000000 0.000000 0.000000 0.000000 -0.101644
#
#
# Mechanical properties :
#
#
# Convention : Reuss Voigt Hill
#
# Bulk Modulus (GPa) = 23.90119 90.52784 57.21451
# Shear Modulus (GPa) = 107.16924 33.03704 70.10314
#
# Velocity S-wave (km/s) = 7.25439 4.02779 5.86725
# Velocity P-wave (km/s) = 9.05015 8.12927 8.60204
#
# Compressibility (1/GPa) = 0.04183892
#
# Stress axis : x y z
#
# Youngs Moduli (GPa) = 138.24517 25.92681 158.30918
#
# Poissons Ratio (x) = 0.02200 0.65608
# Poissons Ratio (y) = 0.11733 0.02339
# Poissons Ratio (z) = 0.57293 0.00383
#
# Static dielectric constant tensor:
#      x y z
#    x 1.581740 0.000000 0.000000 
#    y 0.000000 1.766920 0.000000 
#    z 0.000000 0.000000 1.711680 
# 
# From -- ./inp_files/41227.got.cif
#   From: 2010.05.17/outbox.cif.g08.bks.cpg/sg74_21_cif.got.tgz:41227.got - 2010.06.03 17:57:02.
