data_PCOD9535872
_publ_section_title
;
Structure prediction by ZEFSAII (Michael W. Deem and Ramdas Pophale) SiO2 
 PCOD9535872
Probable space group: I M M A
;
_chemical_formula_sum "Si O2"
_cell_formula_units_Z 104
_cell_length_a 7.883267
_cell_length_b 19.651618
_cell_length_c 30.087421
_cell_angle_alpha 90.000000
_cell_angle_beta 90.000000
_cell_angle_gamma 90.000000
_cell_volume 4661.111720
_symmetry_space_group_name_H-M "I M M A"
_symmetry_group_IT_number 74
_symmetry_cell_setting 'orthorhombic'
loop_
_space_group_symop_operation_xyz
x,y,z
-x,1/2-y,z
x,-y,-z
-x,1/2+y,-z
-x,-y,-z
x,1/2+y,-z
-x,y,z
x,1/2-y,z
1/2+x,1/2+y,1/2+z
1/2-x,-y,1/2+z
1/2+x,1/2-y,1/2-z
1/2-x,y,1/2-z
1/2-x,1/2-y,1/2-z
1/2+x,y,1/2-z
1/2-x,1/2+y,1/2+z
1/2+x,-y,1/2+z
loop_
_atom_site_type_symbol
_atom_site_label
_atom_site_fract_x
_atom_site_fract_y
_atom_site_fract_z
Si Si1 0.707585 0.827604 0.452986
Si Si2 0.204500 0.646507 0.701281
Si Si3 0.700859 0.007214 0.797179
Si Si4 0.795966 0.069294 0.027063
Si Si5 0.795514 0.325216 0.398960
Si Si6 0.202630 0.624006 0.141274
Si Si7 0.704597 0.250000 0.698909
O O1 0.500000 0.827713 0.453300
O O2 0.763262 0.750000 0.453156
O O3 0.762902 0.870202 0.494865
O O4 0.766451 0.863970 0.408117
O O5 0.250000 0.675558 0.750000
O O6 0.271429 0.568808 0.702158
O O7 0.260194 0.673520 0.653049
O O8 0.000000 0.647799 0.699886
O O9 0.500000 0.002527 0.798717
O O10 0.750000 0.040210 0.750000
O O11 0.759691 0.051784 0.837981
O O12 0.752445 0.104553 0.074977
O O13 0.000000 0.062779 0.028045
O O14 0.738390 0.000000 0.000000
O O15 0.738020 0.250000 0.417404
O O16 0.000000 0.324394 0.399520
O O17 0.268934 0.683131 0.173599
O O18 0.000000 0.631763 0.139403
O O19 0.500000 0.250000 0.695800
O O20 0.750000 0.250000 0.750000
#
# Coordination Sequence:
#
# PCOD9535872 Si02
#       7
#    16  16  16  16  16  16   8
#     4   9  17  33  55  77 108 147 185 230 286 342
#     4   9  20  38  59  86 119 154 193 239 293 354
#     4  10  20  34  51  74 105 141 181 227 282 337
#     4  10  22  38  60  93 122 151 197 250 298 350
#     4  10  22  41  63  88 123 164 201 242 300 366
#     4  10  19  32  51  73  98 137 184 227 277 336
#     4  10  20  32  46  68  98 134 180 224 273 330
#
# _framework density 22.312273999999999
#
# number of rings (size 3 to 8) (size 9 to 14) (size 15 to 20)
#    0.000    2.308    0.769    1.385    2.154    4.615 
#    0.000    0.769    0.000    0.923    0.000    0.000 
#    0.000    0.000    0.000    0.000    0.000    0.000 
#
# Total GULP energy -289840.027716 kJ/mol
# GULP energy per Si atom -5573.846687 kJ/mol
# Density = 2.226149 g / cm^3
# Si number density = 22.312274 Si / 1000 Ang^3
#
#
#
# Elastic Constant Matrix: (Units=GPa)
#
#
# Indices 1 2 3 4 5 6 
#
# 1 21.1046 1.1894 4.8827 0.0000 0.0000 0.0000
# 2 1.1894 116.7205 55.7087 0.0000 0.0000 0.0000
# 3 4.8827 55.7087 141.2748 0.0000 0.0000 0.0000
# 4 0.0000 0.0000 0.0000 36.2713 0.0000 0.0000
# 5 0.0000 0.0000 0.0000 0.0000 16.7999 0.0000
# 6 0.0000 0.0000 0.0000 0.0000 0.0000 -3.9861
#
#
#
# Elastic Compliance Matrix: (Units=1/GPa)
#
#
# Indices 1 2 3 4 5 6 
#
# 1 0.047778 0.000371 -0.001798 0.000000 0.000000 0.000000
# 2 0.000371 0.010557 -0.004176 0.000000 0.000000 0.000000
# 3 -0.001798 -0.004176 0.008787 0.000000 0.000000 0.000000
# 4 0.000000 0.000000 0.000000 0.027570 0.000000 0.000000
# 5 0.000000 0.000000 0.000000 0.000000 0.059524 0.000000
# 6 0.000000 0.000000 0.000000 0.000000 0.000000 -0.250869
#
#
# Mechanical properties :
#
#
# Convention : Reuss Voigt Hill
#
# Bulk Modulus (GPa) = 17.88353 44.74018 31.31185
# Shear Modulus (GPa) = -74.83957 24.30496 -25.26731
#
# Velocity S-wave (km/s) = -5.79782 3.30405 -3.36883
# Velocity P-wave (km/s) = 6.06524 5.88651 1.03346
#
# Compressibility (1/GPa) = 0.05591738
#
# Stress axis : x y z
#
# Youngs Moduli (GPa) = 20.93017 94.72712 113.80325
#
# Poissons Ratio (x) = -0.03515 0.20457
# Poissons Ratio (y) = -0.00777 0.47520
# Poissons Ratio (z) = 0.03762 0.39554
#
# Static dielectric constant tensor:
#      x y z
#    x 1.813210 0.000000 0.000000 
#    y 0.000000 1.889740 0.000000 
#    z 0.000000 0.000000 1.888360 
# 
# From -- ./inp_files/64500.got.cif
#   From: 2010.05.17/outbox.cif.g08.bks.cpg/sg74_33_cif.got.tgz:64500.got - 2010.06.03 17:57:02.
