data_PCOD9535077
_publ_section_title
;
Structure prediction by ZEFSAII (Michael W. Deem and Ramdas Pophale) SiO2 
 PCOD9535077
Probable space group: I M M A
;
_chemical_formula_sum "Si O2"
_cell_formula_units_Z 68
_cell_length_a 7.700094
_cell_length_b 24.824449
_cell_length_c 20.019517
_cell_angle_alpha 90.000000
_cell_angle_beta 90.000000
_cell_angle_gamma 90.000000
_cell_volume 3826.742502
_symmetry_space_group_name_H-M "I M M A"
_symmetry_group_IT_number 74
_symmetry_cell_setting 'orthorhombic'
loop_
_space_group_symop_operation_xyz
x,y,z
-x,1/2-y,z
x,-y,-z
-x,1/2+y,-z
-x,-y,-z
x,1/2+y,-z
-x,y,z
x,1/2-y,z
1/2+x,1/2+y,1/2+z
1/2-x,-y,1/2+z
1/2+x,1/2-y,1/2-z
1/2-x,y,1/2-z
1/2-x,1/2-y,1/2-z
1/2+x,y,1/2-z
1/2-x,1/2+y,1/2+z
1/2+x,-y,1/2+z
loop_
_atom_site_type_symbol
_atom_site_label
_atom_site_fract_x
_atom_site_fract_y
_atom_site_fract_z
Si Si1 0.806799 0.163657 0.462171
Si Si2 0.207975 0.989602 0.175483
Si Si3 0.500000 0.250000 0.484971
Si Si4 0.792022 0.886398 0.825341
Si Si5 0.289571 0.944556 0.462213
O O1 0.653075 0.203248 0.482431
O O2 0.786605 0.149498 0.383586
O O3 0.785169 0.107206 0.501321
O O4 0.000000 0.184769 0.474692
O O5 0.250000 0.970607 0.250000
O O6 0.271575 0.051460 0.168477
O O7 0.000000 0.992625 0.169901
O O8 0.268191 0.952878 0.114401
O O9 0.750000 0.868625 0.750000
O O10 0.000000 0.886228 0.834323
O O11 0.500000 0.939787 0.464616
O O12 0.244789 0.000000 0.500000
#
# Coordination Sequence:
#
# PCOD9535077 Si02
#       5
#    16  16   4  16  16
#     4  12  24  40  64  87 112 158 203 251 303 353
#     4   9  18  30  52  83 126 162 185 227 292 359
#     4  12  26  48  60  78 120 152 210 270 296 332
#     4  10  18  34  55  82 119 160 195 239 290 351
#     4  10  18  35  59  87 124 160 190 236 304 364
#
# _framework density 17.769683000000001
#
# number of rings (size 3 to 8) (size 9 to 14) (size 15 to 20)
#    0.000    1.647    4.706    1.059    0.000    2.353 
#    0.000    0.588    0.000    0.000    0.000    0.824 
#    0.000    0.000    0.000    0.000    0.000    0.000 
#
# Total GULP energy -189297.900719 kJ/mol
# GULP energy per Si atom -5567.585315 kJ/mol
# Density = 1.772924 g / cm^3
# Si number density = 17.769683 Si / 1000 Ang^3
#
#
#
# Elastic Constant Matrix: (Units=GPa)
#
#
# Indices 1 2 3 4 5 6 
#
# 1 115.1769 41.7567 17.0988 0.0000 0.0000 0.0000
# 2 41.7567 92.3590 28.1580 0.0000 0.0000 0.0000
# 3 17.0988 28.1580 72.5509 0.0000 0.0000 0.0000
# 4 0.0000 0.0000 0.0000 -4.7698 0.0000 0.0000
# 5 0.0000 0.0000 0.0000 0.0000 19.6740 0.0000
# 6 0.0000 0.0000 0.0000 0.0000 0.0000 -50.9484
#
#
#
# Elastic Compliance Matrix: (Units=1/GPa)
#
#
# Indices 1 2 3 4 5 6 
#
# 1 0.010417 -0.004493 -0.000711 0.000000 0.000000 0.000000
# 2 -0.004493 0.014218 -0.004459 0.000000 0.000000 0.000000
# 3 -0.000711 -0.004459 0.015682 0.000000 0.000000 0.000000
# 4 0.000000 0.000000 0.000000 -0.209652 0.000000 0.000000
# 5 0.000000 0.000000 0.000000 0.000000 0.050828 0.000000
# 6 0.000000 0.000000 0.000000 0.000000 0.000000 -0.019628
#
#
# Mechanical properties :
#
#
# Convention : Reuss Voigt Hill
#
# Bulk Modulus (GPa) = 47.64220 50.45709 49.04965
# Shear Modulus (GPa) = -44.71806 5.66272 -19.52767
#
# Velocity S-wave (km/s) = -5.02195 1.78708 -3.31861
# Velocity P-wave (km/s) = 2.59952 5.71969 3.60259
#
# Compressibility (1/GPa) = 0.02098979
#
# Stress axis : x y z
#
# Youngs Moduli (GPa) = 95.99988 70.33314 63.76811
#
# Poissons Ratio (x) = 0.31598 0.04536
# Poissons Ratio (y) = 0.43129 0.28437
# Poissons Ratio (z) = 0.06829 0.31364
#
# Static dielectric constant tensor:
#      x y z
#    x 1.647660 0.000000 0.000000 
#    y 0.000000 1.573300 0.000000 
#    z 0.000000 0.000000 1.620760 
# 
# From -- ./inp_files/39202.got.cif
#   From: 2010.05.17/outbox.cif.g08.bks.cpg/sg74_20_cif.got.tgz:39202.got - 2010.06.03 17:57:02.
