data_PCOD9535326
_publ_section_title
;
Structure prediction by ZEFSAII (Michael W. Deem and Ramdas Pophale) SiO2 
 PCOD9535326
Probable space group: I M M A
;
_chemical_formula_sum "Si O2"
_cell_formula_units_Z 120
_cell_length_a 27.652848
_cell_length_b 7.287560
_cell_length_c 30.881978
_cell_angle_alpha 90.000000
_cell_angle_beta 90.000000
_cell_angle_gamma 90.000000
_cell_volume 6223.391454
_symmetry_space_group_name_H-M "I M M A"
_symmetry_group_IT_number 74
_symmetry_cell_setting 'orthorhombic'
loop_
_space_group_symop_operation_xyz
x,y,z
-x,1/2-y,z
x,-y,-z
-x,1/2+y,-z
-x,-y,-z
x,1/2+y,-z
-x,y,z
x,1/2-y,z
1/2+x,1/2+y,1/2+z
1/2-x,-y,1/2+z
1/2+x,1/2-y,1/2-z
1/2-x,y,1/2-z
1/2-x,1/2-y,1/2-z
1/2+x,y,1/2-z
1/2-x,1/2+y,1/2+z
1/2+x,-y,1/2+z
loop_
_atom_site_type_symbol
_atom_site_label
_atom_site_fract_x
_atom_site_fract_y
_atom_site_fract_z
Si Si1 0.500000 0.033861 0.549976
Si Si2 0.160117 0.473511 0.694466
Si Si3 0.199544 0.031147 0.948656
Si Si4 0.447120 0.525808 0.220127
Si Si5 0.402025 0.524635 0.407665
Si Si6 0.304345 0.460016 0.714943
Si Si7 0.416233 0.458560 0.688498
Si Si8 0.258274 0.526271 0.133562
O O1 0.500000 0.250000 0.560348
O O2 0.550570 0.963630 0.567375
O O3 0.500000 0.000000 0.500000
O O4 0.159761 0.250000 0.697233
O O5 0.103995 0.531744 0.698569
O O6 0.192857 0.535955 0.736007
O O7 0.188599 0.525206 0.650968
O O8 0.198707 0.250000 0.944413
O O9 0.147388 0.964748 0.930843
O O10 0.239375 0.965118 0.913490
O O11 0.206746 0.000000 0.000000
O O12 0.500000 0.472667 0.202183
O O13 0.445811 0.750000 0.220352
O O14 0.444035 0.463746 0.270314
O O15 0.399105 0.750000 0.406256
O O16 0.411930 0.460030 0.358870
O O17 0.286971 0.250000 0.717892
O O18 0.360865 0.452553 0.703768
O O19 0.277516 0.535805 0.672591
O O20 0.434814 0.250000 0.682957
O O21 0.256693 0.750000 0.132749
#
# Coordination Sequence:
#
# PCOD9535326 Si02
#       8
#     8  16  16  16  16  16  16  16
#     4  10  20  30  40  52  66  88 120 160 200 230
#     4   8  13  18  27  45  69  96 122 148 182 223
#     4  10  19  30  43  57  75 100 130 163 199 234
#     4   8  13  18  25  40  67 101 129 148 172 215
#     4   9  16  26  38  51  69  94 125 160 195 229
#     4   8  11  17  28  44  67  91 114 142 178 219
#     4   8  12  18  28  44  64  91 123 149 175 213
#     4   9  14  21  33  49  70  95 121 152 189 228
#
# _framework density 19.282091000000001
#
# number of rings (size 3 to 8) (size 9 to 14) (size 15 to 20)
#    0.000    3.333    1.333    2.400    0.933    1.600 
#    0.000    0.000    0.000    0.000    0.000    0.000 
#    0.000    2.667    0.000    0.400    0.000    0.933 
#
# Total GULP energy -334096.241240 kJ/mol
# GULP energy per Si atom -5568.270687 kJ/mol
# Density = 1.923820 g / cm^3
# Si number density = 19.282091 Si / 1000 Ang^3
#
#
#
# Elastic Constant Matrix: (Units=GPa)
#
#
# Indices 1 2 3 4 5 6 
#
# 1 137.0342 4.1572 88.0591 0.0000 0.0000 0.0000
# 2 4.1572 78.2461 5.0979 0.0000 0.0000 0.0000
# 3 88.0591 5.0979 130.6622 0.0000 0.0000 0.0000
# 4 0.0000 0.0000 0.0000 -8.8454 0.0000 0.0000
# 5 0.0000 0.0000 0.0000 0.0000 13.3519 0.0000
# 6 0.0000 0.0000 0.0000 0.0000 0.0000 -16.7155
#
#
#
# Elastic Compliance Matrix: (Units=1/GPa)
#
#
# Indices 1 2 3 4 5 6 
#
# 1 0.012873 -0.000119 -0.008671 0.000000 0.000000 0.000000
# 2 -0.000119 0.012814 -0.000420 0.000000 0.000000 0.000000
# 3 -0.008671 -0.000420 0.013514 0.000000 0.000000 0.000000
# 4 0.000000 0.000000 0.000000 -0.113054 0.000000 0.000000
# 5 0.000000 0.000000 0.000000 0.000000 0.074896 0.000000
# 6 0.000000 0.000000 0.000000 0.000000 0.000000 -0.059825
#
#
# Mechanical properties :
#
#
# Convention : Reuss Voigt Hill
#
# Bulk Modulus (GPa) = 48.12134 60.06343 54.09239
# Shear Modulus (GPa) = -149.54361 14.13343 -67.70509
#
# Velocity S-wave (km/s) = -8.81613 2.71030 -5.93205
# Velocity P-wave (km/s) = 8.86687 6.40404 4.33645
#
# Compressibility (1/GPa) = 0.02078080
#
# Stress axis : x y z
#
# Youngs Moduli (GPa) = 77.68056 78.04052 73.99943
#
# Poissons Ratio (x) = 0.00929 0.64166
# Poissons Ratio (y) = 0.00924 0.03106
# Poissons Ratio (z) = 0.67358 0.03276
#
# Static dielectric constant tensor:
#      x y z
#    x 1.676120 0.000000 0.000000 
#    y 0.000000 2.687250 0.000000 
#    z 0.000000 0.000000 1.696500 
# 
# From -- ./inp_files/66517.got.cif
#   From: 2010.05.17/outbox.cif.g08.bks.cpg/sg74_34_cif.got.tgz:66517.got - 2010.06.03 17:57:02.
