data_PCOD9535792
_publ_section_title
;
Structure prediction by ZEFSAII (Michael W. Deem and Ramdas Pophale) SiO2 
 PCOD9535792
Probable space group: I M M A
;
_chemical_formula_sum "Si O2"
_cell_formula_units_Z 88
_cell_length_a 21.160629
_cell_length_b 7.658355
_cell_length_c 30.315050
_cell_angle_alpha 90.000000
_cell_angle_beta 90.000000
_cell_angle_gamma 90.000000
_cell_volume 4912.723887
_symmetry_space_group_name_H-M "I M M A"
_symmetry_group_IT_number 74
_symmetry_cell_setting 'orthorhombic'
loop_
_space_group_symop_operation_xyz
x,y,z
-x,1/2-y,z
x,-y,-z
-x,1/2+y,-z
-x,-y,-z
x,1/2+y,-z
-x,y,z
x,1/2-y,z
1/2+x,1/2+y,1/2+z
1/2-x,-y,1/2+z
1/2+x,1/2-y,1/2-z
1/2-x,y,1/2-z
1/2-x,1/2-y,1/2-z
1/2+x,y,1/2-z
1/2-x,1/2+y,1/2+z
1/2+x,-y,1/2+z
loop_
_atom_site_type_symbol
_atom_site_label
_atom_site_fract_x
_atom_site_fract_y
_atom_site_fract_z
Si Si1 0.068333 0.541993 0.277798
Si Si2 0.432100 0.538930 0.673904
Si Si3 0.699194 0.545498 0.635963
Si Si4 0.500000 0.459638 0.552414
Si Si5 0.293295 0.545808 0.209906
Si Si6 0.861422 0.042277 0.948579
O O1 0.067016 0.750000 0.286574
O O2 0.069472 0.511928 0.225190
O O3 0.135941 0.470416 0.293814
O O4 0.000000 0.470925 0.293582
O O5 0.500000 0.476237 0.655534
O O6 0.431805 0.750000 0.670756
O O7 0.367799 0.470335 0.653010
O O8 0.701018 0.750000 0.646278
O O9 0.755349 0.465907 0.664315
O O10 0.693440 0.523476 0.583573
O O11 0.500000 0.250000 0.558266
O O12 0.500000 0.500000 0.500000
O O13 0.430942 0.529350 0.566542
O O14 0.302080 0.750000 0.221212
O O15 0.250000 0.471333 0.250000
O O16 0.863829 0.250000 0.944675
O O17 0.852609 0.000000 0.000000
#
# Coordination Sequence:
#
# PCOD9535792 Si02
#       6
#    16  16  16   8  16  16
#     4   9  17  30  48  67  89 122 161 198 236 280
#     4   9  18  30  42  61  90 123 159 198 237 277
#     4  11  22  32  47  69  93 126 163 199 241 286
#     4   8  16  30  48  68  88 118 156 198 244 284
#     4  10  19  32  48  68  96 126 158 198 241 284
#     4  10  20  35  51  68  92 121 158 201 244 286
#
# _framework density 17.912669000000001
#
# number of rings (size 3 to 8) (size 9 to 14) (size 15 to 20)
#    0.000    2.364    1.818    1.091    1.273    2.545 
#    0.000    0.000    0.000    0.000    0.000    0.000 
#    0.000    0.727    0.000    2.000    0.000    2.909 
#
# Total GULP energy -245266.791912 kJ/mol
# GULP energy per Si atom -5574.245271 kJ/mol
# Density = 1.787190 g / cm^3
# Si number density = 17.912669 Si / 1000 Ang^3
#
#
#
# Elastic Constant Matrix: (Units=GPa)
#
#
# Indices 1 2 3 4 5 6 
#
# 1 158.0136 3.6862 53.7552 0.0000 0.0000 0.0000
# 2 3.6862 42.8841 -13.2012 0.0000 0.0000 0.0000
# 3 53.7552 -13.2012 64.0083 0.0000 0.0000 0.0000
# 4 0.0000 0.0000 0.0000 19.7327 0.0000 0.0000
# 5 0.0000 0.0000 0.0000 0.0000 30.1197 0.0000
# 6 0.0000 0.0000 0.0000 0.0000 0.0000 6.8379
#
#
#
# Elastic Compliance Matrix: (Units=1/GPa)
#
#
# Indices 1 2 3 4 5 6 
#
# 1 0.009308 -0.003424 -0.008523 0.000000 0.000000 0.000000
# 2 -0.003424 0.026159 0.008270 0.000000 0.000000 0.000000
# 3 -0.008523 0.008270 0.024486 0.000000 0.000000 0.000000
# 4 0.000000 0.000000 0.000000 0.050677 0.000000 0.000000
# 5 0.000000 0.000000 0.000000 0.000000 0.033201 0.000000
# 6 0.000000 0.000000 0.000000 0.000000 0.000000 0.146244
#
#
# Mechanical properties :
#
#
# Convention : Reuss Voigt Hill
#
# Bulk Modulus (GPa) = 19.01126 39.26515 29.13821
# Shear Modulus (GPa) = 15.87495 26.04910 20.96203
#
# Velocity S-wave (km/s) = 2.98021 3.81757 3.42458
# Velocity P-wave (km/s) = 4.74115 6.43426 5.65147
#
# Compressibility (1/GPa) = 0.05260041
#
# Stress axis : x y z
#
# Youngs Moduli (GPa) = 107.43525 38.22792 40.83884
#
# Poissons Ratio (x) = 0.13088 0.34807
# Poissons Ratio (y) = 0.36784 -0.33775
# Poissons Ratio (z) = 0.91568 -0.31616
#
# Static dielectric constant tensor:
#      x y z
#    x 1.675990 0.000000 0.000000 
#    y 0.000000 1.676530 0.000000 
#    z 0.000000 0.000000 1.599690 
# 
# From -- ./inp_files/61418.got.cif
#   From: 2010.05.17/outbox.cif.g08.bks.cpg/sg74_31_cif.got.tgz:61418.got - 2010.06.03 17:57:02.
