data_PCOD9535507
_publ_section_title
;
Structure prediction by ZEFSAII (Michael W. Deem and Ramdas Pophale) SiO2 
 PCOD9535507
Probable space group: I M M A
;
_chemical_formula_sum "Si O2"
_cell_formula_units_Z 96
_cell_length_a 25.555964
_cell_length_b 24.051648
_cell_length_c 7.017755
_cell_angle_alpha 90.000000
_cell_angle_beta 90.000000
_cell_angle_gamma 90.000000
_cell_volume 4313.554695
_symmetry_space_group_name_H-M "I M M A"
_symmetry_group_IT_number 74
_symmetry_cell_setting 'orthorhombic'
loop_
_space_group_symop_operation_xyz
x,y,z
-x,1/2-y,z
x,-y,-z
-x,1/2+y,-z
-x,-y,-z
x,1/2+y,-z
-x,y,z
x,1/2-y,z
1/2+x,1/2+y,1/2+z
1/2-x,-y,1/2+z
1/2+x,1/2-y,1/2-z
1/2-x,y,1/2-z
1/2-x,1/2-y,1/2-z
1/2+x,y,1/2-z
1/2-x,1/2+y,1/2+z
1/2+x,-y,1/2+z
loop_
_atom_site_type_symbol
_atom_site_label
_atom_site_fract_x
_atom_site_fract_y
_atom_site_fract_z
Si Si1 0.687707 0.991123 0.222691
Si Si2 0.939972 0.812090 0.840959
Si Si3 0.264369 0.811423 0.525134
Si Si4 0.850456 0.894749 0.844047
Si Si5 0.836250 0.870709 0.388906
Si Si6 0.556819 0.186133 0.880241
O O1 0.750000 0.998861 0.250000
O O2 0.673610 0.926322 0.232473
O O3 0.659322 0.038962 0.346205
O O4 0.675906 0.000000 0.000000
O O5 0.918941 0.750000 0.891127
O O6 0.905009 0.864943 0.895436
O O7 0.941630 0.812674 0.610588
O O8 0.000000 0.815731 0.906534
O O9 0.282902 0.750000 0.467142
O O10 0.250000 0.806750 0.750000
O O11 0.307242 0.859641 0.540710
O O12 0.213898 0.830362 0.403364
O O13 0.843143 0.883845 0.615674
O O14 0.890038 0.843287 0.321024
O O15 0.500000 0.161275 0.828534
O O16 0.557613 0.250000 0.816396
#
# Coordination Sequence:
#
# PCOD9535507 Si02
#       6
#    16  16  16  16  16  16
#     4  10  19  31  45  62  89 124 158 191 228 273
#     4   8  13  21  34  54  82 113 142 180 233 280
#     4   9  15  23  39  62  85 111 148 192 229 267
#     4   9  15  24  37  57  83 114 151 183 218 271
#     4   9  16  25  38  58  85 115 145 181 227 272
#     4   8  13  22  37  56  79 110 146 180 218 270
#
# _framework density 22.255427000000001
#
# number of rings (size 3 to 8) (size 9 to 14) (size 15 to 20)
#    0.000    3.167    0.000    4.500    0.000    4.000 
#    0.000    0.833    0.000    7.000    0.000    0.000 
#    0.000   12.000    0.000   21.500    0.000   51.833 
#
# Total GULP energy -267801.993861 kJ/mol
# GULP energy per Si atom -5579.208205 kJ/mol
# Density = 2.220477 g / cm^3
# Si number density = 22.255427 Si / 1000 Ang^3
#
#
#
# Elastic Constant Matrix: (Units=GPa)
#
#
# Indices 1 2 3 4 5 6 
#
# 1 137.1435 102.7169 26.0019 0.0000 0.0000 0.0000
# 2 102.7169 196.8454 47.4841 0.0000 0.0000 0.0000
# 3 26.0019 47.4841 92.3632 0.0000 0.0000 0.0000
# 4 0.0000 0.0000 0.0000 26.9311 0.0000 0.0000
# 5 0.0000 0.0000 0.0000 0.0000 1.2421 0.0000
# 6 0.0000 0.0000 0.0000 0.0000 0.0000 -39.1835
#
#
#
# Elastic Compliance Matrix: (Units=1/GPa)
#
#
# Indices 1 2 3 4 5 6 
#
# 1 0.011972 -0.006204 -0.000181 0.000000 0.000000 0.000000
# 2 -0.006204 0.009014 -0.002888 0.000000 0.000000 0.000000
# 3 -0.000181 -0.002888 0.012362 0.000000 0.000000 0.000000
# 4 0.000000 0.000000 0.000000 0.037132 0.000000 0.000000
# 5 0.000000 0.000000 0.000000 0.000000 0.805094 0.000000
# 6 0.000000 0.000000 0.000000 0.000000 0.000000 -0.025521
#
#
# Mechanical properties :
#
#
# Convention : Reuss Voigt Hill
#
# Bulk Modulus (GPa) = 67.55028 86.52866 77.03947
# Shear Modulus (GPa) = 5.72388 14.47455 10.09922
#
# Velocity S-wave (km/s) = 1.60546 2.55303 2.13254
# Velocity P-wave (km/s) = 5.81849 6.90325 6.38395
#
# Compressibility (1/GPa) = 0.01480379
#
# Stress axis : x y z
#
# Youngs Moduli (GPa) = 83.52575 110.94028 80.89090
#
# Poissons Ratio (x) = 0.68824 0.01465
# Poissons Ratio (y) = 0.51817 0.23358
# Poissons Ratio (z) = 0.01513 0.32035
#
# Static dielectric constant tensor:
#      x y z
#    x 1.791530 0.000000 0.000000 
#    y 0.000000 1.818610 0.000000 
#    z 0.000000 0.000000 1.947120 
# 
# From -- ./inp_files/13920.got.cif
#   From: 2010.05.17/outbox.cif.g08.bks.cpg/sg74_7_cif.got.tgz:13920.got - 2010.06.03 17:57:02.
