data_PCOD9535197
_publ_section_title
;
Structure prediction by ZEFSAII (Michael W. Deem and Ramdas Pophale) SiO2 
 PCOD9535197
Probable space group: I M M A
;
_chemical_formula_sum "Si O2"
_cell_formula_units_Z 72
_cell_length_a 15.538666
_cell_length_b 25.879222
_cell_length_c 7.209212
_cell_angle_alpha 90.000000
_cell_angle_beta 90.000000
_cell_angle_gamma 90.000000
_cell_volume 2899.030235
_symmetry_space_group_name_H-M "I M M A"
_symmetry_group_IT_number 74
_symmetry_cell_setting 'orthorhombic'
loop_
_space_group_symop_operation_xyz
x,y,z
-x,1/2-y,z
x,-y,-z
-x,1/2+y,-z
-x,-y,-z
x,1/2+y,-z
-x,y,z
x,1/2-y,z
1/2+x,1/2+y,1/2+z
1/2-x,-y,1/2+z
1/2+x,1/2-y,1/2-z
1/2-x,y,1/2-z
1/2-x,1/2-y,1/2-z
1/2+x,y,1/2-z
1/2-x,1/2+y,1/2+z
1/2+x,-y,1/2+z
loop_
_atom_site_type_symbol
_atom_site_label
_atom_site_fract_x
_atom_site_fract_y
_atom_site_fract_z
Si Si1 0.599370 0.418919 0.562645
Si Si2 0.397714 0.194462 0.527249
Si Si3 0.733401 0.500000 0.500000
Si Si4 0.335002 0.095190 0.163331
Si Si5 0.100309 0.194987 0.422901
O O1 0.500000 0.426549 0.620913
O O2 0.632404 0.360686 0.603587
O O3 0.665810 0.463990 0.616814
O O4 0.602976 0.418674 0.334896
O O5 0.500000 0.194711 0.567459
O O6 0.361871 0.250000 0.589321
O O7 0.392075 0.193876 0.302504
O O8 0.796344 0.543160 0.581275
O O9 0.250000 0.121389 0.250000
O O10 0.369725 0.137887 0.023674
O O11 0.140042 0.250000 0.482619
O O12 0.000000 0.197243 0.469274
#
# Coordination Sequence:
#
# PCOD9535197 Si02
#       5
#    16  16   8  16  16
#     4   9  16  28  44  59  80 113 146 169 195 239
#     4   7  10  18  35  58  79  98 123 156 192 234
#     4  10  19  28  37  56  86 116 142 172 203 232
#     4   9  17  27  39  58  86 113 135 167 206 240
#     4   8  13  23  39  57  78 105 134 159 190 244
#
# _framework density 24.835892000000001
#
# number of rings (size 3 to 8) (size 9 to 14) (size 15 to 20)
#    0.000    3.556    0.000    3.667    0.000    0.444 
#    0.000    5.556    0.000    0.000    0.000    0.000 
#    0.000   32.000    0.000   55.778    0.000   12.000 
#
# Total GULP energy -200435.915094 kJ/mol
# GULP energy per Si atom -5567.664308 kJ/mol
# Density = 2.477936 g / cm^3
# Si number density = 24.835892 Si / 1000 Ang^3
#
#
#
# Elastic Constant Matrix: (Units=GPa)
#
#
# Indices 1 2 3 4 5 6 
#
# 1 62.3771 58.4525 6.5734 -0.0020 -0.0006 0.0002
# 2 58.4525 275.3194 15.2716 -0.0055 -0.0006 0.0013
# 3 6.5734 15.2716 80.9489 -0.0420 -0.0007 0.0111
# 4 -0.0020 -0.0055 -0.0420 -1.6813 0.0000 0.0014
# 5 -0.0006 -0.0006 -0.0007 0.0000 4.1529 0.0009
# 6 0.0002 0.0013 0.0111 0.0014 0.0009 45.7705
#
#
#
# Elastic Compliance Matrix: (Units=1/GPa)
#
#
# Indices 1 2 3 4 5 6 
#
# 1 0.020069 -0.004214 -0.000835 0.000010 0.000002 0.000000
# 2 -0.004214 0.004556 -0.000517 0.000003 0.000000 0.000000
# 3 -0.000835 -0.000517 0.012519 -0.000310 0.000002 -0.000003
# 4 0.000010 0.000003 -0.000310 -0.594784 0.000005 0.000018
# 5 0.000002 0.000000 0.000002 0.000005 0.240793 -0.000005
# 6 0.000000 0.000000 -0.000003 0.000018 -0.000005 0.021848
#
#
# Mechanical properties :
#
#
# Convention : Reuss Voigt Hill
#
# Bulk Modulus (GPa) = 38.44595 64.36004 51.40299
# Shear Modulus (GPa) = -18.16881 32.20496 7.01807
#
# Velocity S-wave (km/s) = -2.70766 3.60489 1.68283
# Velocity P-wave (km/s) = 2.39549 6.58007 4.95155
#
# Compressibility (1/GPa) = 0.02601054
#
# Stress axis : x y z
#
# Youngs Moduli (GPa) = 49.82861 219.51005 79.88075
#
# Poissons Ratio (x) = 0.92512 0.06667
# Poissons Ratio (y) = 0.21000 0.04132
# Poissons Ratio (z) = 0.04159 0.11353
#
# Static dielectric constant tensor:
#      x y z
#    x 1.935580 0.000000 0.000000 
#    y 0.000000 2.051790 0.000000 
#    z 0.000000 0.000000 2.137170 
# 
# From -- ./inp_files/22574.got.cif
#   From: 2010.05.17/outbox.cif.g08.bks.cpg/sg74_12_cif.got.tgz:22574.got - 2010.06.03 17:57:02.
