data_PCOD9535539
_publ_section_title
;
Structure prediction by ZEFSAII (Michael W. Deem and Ramdas Pophale) SiO2 
 PCOD9535539
Probable space group: I M M A
;
_chemical_formula_sum "Si O2"
_cell_formula_units_Z 112
_cell_length_a 14.701571
_cell_length_b 28.543627
_cell_length_c 16.356311
_cell_angle_alpha 90.000000
_cell_angle_beta 90.000000
_cell_angle_gamma 90.000000
_cell_volume 6863.699522
_symmetry_space_group_name_H-M "I M M A"
_symmetry_group_IT_number 74
_symmetry_cell_setting 'orthorhombic'
loop_
_space_group_symop_operation_xyz
x,y,z
-x,1/2-y,z
x,-y,-z
-x,1/2+y,-z
-x,-y,-z
x,1/2+y,-z
-x,y,z
x,1/2-y,z
1/2+x,1/2+y,1/2+z
1/2-x,-y,1/2+z
1/2+x,1/2-y,1/2-z
1/2-x,y,1/2-z
1/2-x,1/2-y,1/2-z
1/2+x,y,1/2-z
1/2-x,1/2+y,1/2+z
1/2+x,-y,1/2+z
loop_
_atom_site_type_symbol
_atom_site_label
_atom_site_fract_x
_atom_site_fract_y
_atom_site_fract_z
Si Si1 0.103220 0.974670 0.191579
Si Si2 0.900546 0.872513 0.114665
Si Si3 0.641502 0.196202 0.760872
Si Si4 0.739546 0.527223 0.580946
Si Si5 0.393709 0.303529 0.951168
Si Si6 0.775147 0.615631 0.486376
Si Si7 0.607546 0.459336 0.882605
O O1 0.107661 0.926825 0.140183
O O2 0.118257 0.958663 0.284771
O O3 0.000000 0.993572 0.185799
O O4 0.176994 0.010455 0.155670
O O5 0.896196 0.840266 0.195366
O O6 0.813607 0.864113 0.058593
O O7 0.000000 0.865397 0.076084
O O8 0.610836 0.250000 0.746340
O O9 0.750000 0.195242 0.750000
O O10 0.618141 0.184233 0.854576
O O11 0.702972 0.500000 0.500000
O O12 0.744363 0.581664 0.559434
O O13 0.841633 0.507278 0.592360
O O14 0.500000 0.305456 0.969583
O O15 0.361406 0.250000 0.960079
O O16 0.338965 0.340569 0.004283
O O17 0.834054 0.581477 0.426063
O O18 0.500000 0.457043 0.902338
#
# Coordination Sequence:
#
# PCOD9535539 Si02
#       7
#    16  16  16  16  16  16  16
#     4  10  20  33  49  68  93 125 162 204 241 286
#     4  11  21  30  45  65  89 124 164 201 240 280
#     4  10  19  31  47  66  92 124 162 210 245 272
#     4  10  20  32  47  67  93 127 157 199 239 288
#     4  10  20  33  49  68  93 126 161 198 243 287
#     4  11  21  33  48  70  95 126 164 203 241 284
#     4  10  20  32  49  70  92 123 159 199 244 286
#
# _framework density 16.317730999999998
#
# number of rings (size 3 to 8) (size 9 to 14) (size 15 to 20)
#    0.000    1.714    4.286    2.143    0.000    6.000 
#    0.000    0.000    0.000    0.000    0.000    0.000 
#    0.000    2.286    0.000    3.143    0.000    0.000 
#
# Total GULP energy -312330.563488 kJ/mol
# GULP energy per Si atom -5577.331491 kJ/mol
# Density = 1.628059 g / cm^3
# Si number density = 16.317731 Si / 1000 Ang^3
#
#
#
# Elastic Constant Matrix: (Units=GPa)
#
#
# Indices 1 2 3 4 5 6 
#
# 1 87.9022 22.8002 14.2337 0.0000 0.0000 0.0000
# 2 22.8002 76.1628 5.0220 -0.0001 0.0000 0.0000
# 3 14.2337 5.0220 14.7803 0.0000 0.0000 0.0000
# 4 0.0000 -0.0001 0.0000 30.1347 0.0000 0.0000
# 5 0.0000 0.0000 0.0000 0.0000 12.1797 0.0000
# 6 0.0000 0.0000 0.0000 0.0000 0.0000 16.8994
#
#
#
# Elastic Compliance Matrix: (Units=1/GPa)
#
#
# Indices 1 2 3 4 5 6 
#
# 1 0.014314 -0.003454 -0.012611 0.000000 0.000000 0.000000
# 2 -0.003454 0.014264 -0.001521 0.000000 0.000000 0.000000
# 3 -0.012611 -0.001521 0.080319 0.000000 0.000000 0.000000
# 4 0.000000 0.000000 0.000000 0.033184 0.000000 0.000000
# 5 0.000000 0.000000 0.000000 0.000000 0.082104 0.000000
# 6 0.000000 0.000000 0.000000 0.000000 0.000000 0.059174
#
#
# Mechanical properties :
#
#
# Convention : Reuss Voigt Hill
#
# Bulk Modulus (GPa) = 13.56370 29.21745 21.39057
# Shear Modulus (GPa) = 14.57276 20.96205 17.76741
#
# Velocity S-wave (km/s) = 2.99166 3.58805 3.30334
# Velocity P-wave (km/s) = 4.50152 5.92534 5.26181
#
# Compressibility (1/GPa) = 0.07372618
#
# Stress axis : x y z
#
# Youngs Moduli (GPa) = 69.86068 70.10704 12.45029
#
# Poissons Ratio (x) = 0.24212 0.15702
# Poissons Ratio (y) = 0.24127 0.01893
# Poissons Ratio (z) = 0.88104 0.10661
#
# Static dielectric constant tensor:
#      x y z
#    x 1.589140 0.000000 0.000000 
#    y 0.000000 1.559150 0.000000 
#    z 0.000000 0.000000 1.552380 
# 
# From -- ./inp_files/33176.got.cif
#   From: 2010.05.17/outbox.cif.g08.bks.cpg/sg74_17_cif.got.tgz:33176.got - 2010.06.03 17:57:02.
