data_PCOD9535335
_publ_section_title
;
Structure prediction by ZEFSAII (Michael W. Deem and Ramdas Pophale) SiO2 
 PCOD9535335
Probable space group: I M M A
;
_chemical_formula_sum "Si O2"
_cell_formula_units_Z 80
_cell_length_a 17.457202
_cell_length_b 7.232214
_cell_length_c 29.526269
_cell_angle_alpha 90.000000
_cell_angle_beta 90.000000
_cell_angle_gamma 90.000000
_cell_volume 3727.816083
_symmetry_space_group_name_H-M "I M M A"
_symmetry_group_IT_number 74
_symmetry_cell_setting 'orthorhombic'
loop_
_space_group_symop_operation_xyz
x,y,z
-x,1/2-y,z
x,-y,-z
-x,1/2+y,-z
-x,-y,-z
x,1/2+y,-z
-x,y,z
x,1/2-y,z
1/2+x,1/2+y,1/2+z
1/2-x,-y,1/2+z
1/2+x,1/2-y,1/2-z
1/2-x,y,1/2-z
1/2-x,1/2-y,1/2-z
1/2+x,y,1/2-z
1/2-x,1/2+y,1/2+z
1/2+x,-y,1/2+z
loop_
_atom_site_type_symbol
_atom_site_label
_atom_site_fract_x
_atom_site_fract_y
_atom_site_fract_z
Si Si1 0.329030 0.469934 0.450304
Si Si2 0.911280 0.525106 0.685123
Si Si3 0.650696 0.025070 0.282792
Si Si4 0.500000 0.970291 0.561057
Si Si5 0.264414 0.475158 0.138513
Si Si6 0.500000 0.029433 0.332843
O O1 0.293407 0.500000 0.500000
O O2 0.336387 0.250000 0.443168
O O3 0.416597 0.543933 0.453009
O O4 0.280435 0.536918 0.406846
O O5 0.914137 0.750000 0.686040
O O6 0.868760 0.468226 0.731727
O O7 0.853214 0.471464 0.644884
O O8 0.000000 0.463913 0.683192
O O9 0.656183 0.250000 0.280956
O O10 0.720238 0.968307 0.315286
O O11 0.576493 0.962921 0.310258
O O12 0.500000 0.750000 0.550575
O O13 0.500000 0.998832 0.614474
O O14 0.262173 0.250000 0.137687
O O15 0.500000 0.250000 0.325098
#
# Coordination Sequence:
#
# PCOD9535335 Si02
#       6
#    16  16  16   8  16   8
#     4  10  19  30  44  61  82 109 140 173 208 244
#     4   9  15  21  31  50  77 107 135 163 199 244
#     4   9  13  19  31  49  76 108 136 158 190 240
#     4   9  15  25  40  58  82 112 140 165 199 244
#     4   9  16  24  35  52  76 107 137 165 201 245
#     4   9  12  17  31  50  76 110 135 153 187 238
#
# _framework density 21.460286
#
# number of rings (size 3 to 8) (size 9 to 14) (size 15 to 20)
#    0.000    2.800    3.000    0.900    0.000    2.400 
#    0.000    0.000    0.000    0.600    0.000    0.000 
#    0.000    3.200    0.000    1.200    0.000    0.400 
#
# Total GULP energy -223005.444263 kJ/mol
# GULP energy per Si atom -5575.136107 kJ/mol
# Density = 2.141144 g / cm^3
# Si number density = 21.460286 Si / 1000 Ang^3
#
#
#
# Elastic Constant Matrix: (Units=GPa)
#
#
# Indices 1 2 3 4 5 6 
#
# 1 182.3389 9.1571 98.5197 0.0000 0.0000 0.0000
# 2 9.1571 106.1974 -13.6333 0.0000 0.0000 0.0000
# 3 98.5197 -13.6333 179.3406 0.0000 0.0000 0.0000
# 4 0.0000 0.0000 0.0000 -3.7588 0.0000 0.0000
# 5 0.0000 0.0000 0.0000 0.0000 18.5594 0.0000
# 6 0.0000 0.0000 0.0000 0.0000 0.0000 -67.9570
#
#
#
# Elastic Compliance Matrix: (Units=1/GPa)
#
#
# Indices 1 2 3 4 5 6 
#
# 1 0.007963 -0.001260 -0.004470 0.000000 0.000000 0.000000
# 2 -0.001260 0.009709 0.001430 0.000000 0.000000 0.000000
# 3 -0.004470 0.001430 0.008140 0.000000 0.000000 0.000000
# 4 0.000000 0.000000 0.000000 -0.266045 0.000000 0.000000
# 5 0.000000 0.000000 0.000000 0.000000 0.053881 0.000000
# 6 0.000000 0.000000 0.000000 0.000000 0.000000 -0.014715
#
#
# Mechanical properties :
#
#
# Convention : Reuss Voigt Hill
#
# Bulk Modulus (GPa) = 58.10011 72.88489 65.49250
# Shear Modulus (GPa) = -26.77678 14.29095 -6.24291
#
# Velocity S-wave (km/s) = -3.53616 2.58335 -1.70745
# Velocity P-wave (km/s) = 3.23411 6.55246 5.16692
#
# Compressibility (1/GPa) = 0.01721167
#
# Stress axis : x y z
#
# Youngs Moduli (GPa) = 125.58261 102.99986 122.84412
#
# Poissons Ratio (x) = 0.12983 0.54914
# Poissons Ratio (y) = 0.15829 -0.17573
# Poissons Ratio (z) = 0.56138 -0.14734
#
# Static dielectric constant tensor:
#      x y z
#    x 1.777230 0.000000 0.000000 
#    y 0.000000 1.888060 0.000000 
#    z 0.000000 0.000000 1.743830 
# 
# From -- ./inp_files/66072.got.cif
#   From: 2010.05.17/outbox.cif.g08.bks.cpg/sg74_34_cif.got.tgz:66072.got - 2010.06.03 17:57:02.
