data_PCOD9535648
_publ_section_title
;
Structure prediction by ZEFSAII (Michael W. Deem and Ramdas Pophale) SiO2 
 PCOD9535648
Probable space group: I M M A
;
_chemical_formula_sum "Si O2"
_cell_formula_units_Z 80
_cell_length_a 27.534513
_cell_length_b 8.508950
_cell_length_c 18.648580
_cell_angle_alpha 90.000000
_cell_angle_beta 90.000000
_cell_angle_gamma 90.000000
_cell_volume 4369.171974
_symmetry_space_group_name_H-M "I M M A"
_symmetry_group_IT_number 74
_symmetry_cell_setting 'orthorhombic'
loop_
_space_group_symop_operation_xyz
x,y,z
-x,1/2-y,z
x,-y,-z
-x,1/2+y,-z
-x,-y,-z
x,1/2+y,-z
-x,y,z
x,1/2-y,z
1/2+x,1/2+y,1/2+z
1/2-x,-y,1/2+z
1/2+x,1/2-y,1/2-z
1/2-x,y,1/2-z
1/2-x,1/2-y,1/2-z
1/2+x,y,1/2-z
1/2-x,1/2+y,1/2+z
1/2+x,-y,1/2+z
loop_
_atom_site_type_symbol
_atom_site_label
_atom_site_fract_x
_atom_site_fract_y
_atom_site_fract_z
Si Si1 0.249624 0.939938 0.332217
Si Si2 0.552118 0.060150 0.417991
Si Si3 0.654423 0.438242 0.918500
Si Si4 0.052806 0.938381 0.582034
Si Si5 0.341841 0.061251 0.418421
O O1 0.249606 0.750000 0.333085
O O2 0.250000 0.993090 0.250000
O O3 0.200787 0.992253 0.373037
O O4 0.297354 0.997510 0.372836
O O5 0.500000 0.008836 0.385658
O O6 0.552081 0.250000 0.418546
O O7 0.604818 0.011003 0.388710
O O8 0.551977 0.000000 0.500000
O O9 0.653801 0.250000 0.921004
O O10 0.602825 0.495361 0.886849
O O11 0.658777 0.500000 0.000000
O O12 0.055592 0.750000 0.580986
O O13 0.000000 0.983428 0.613796
O O14 0.052249 0.000000 0.500000
O O15 0.340048 0.250000 0.419749
O O16 0.337824 0.000000 0.500000
#
# Coordination Sequence:
#
# PCOD9535648 Si02
#       5
#    16  16  16  16  16
#     4  10  22  38  52  68  95 130 166 207 252 292
#     4   8  14  25  42  67  98 126 153 189 233 280
#     4  10  19  31  50  73  96 125 159 197 240 286
#     4   9  16  26  43  69  99 126 152 188 234 281
#     4  10  19  31  51  77 101 129 164 201 242 288
#
# _framework density 18.310106000000001
#
# number of rings (size 3 to 8) (size 9 to 14) (size 15 to 20)
#    0.000    2.600    0.000    3.600    0.000    5.600 
#    0.000    0.000    0.000    1.200    0.000    5.600 
#    0.000    0.000    0.000    0.000    0.000    0.000 
#
# Total GULP energy -222776.672996 kJ/mol
# GULP energy per Si atom -5569.416825 kJ/mol
# Density = 1.826843 g / cm^3
# Si number density = 18.310106 Si / 1000 Ang^3
#
#
#
# Elastic Constant Matrix: (Units=GPa)
#
#
# Indices 1 2 3 4 5 6 
#
# 1 248.4165 32.3302 69.8130 0.0000 0.0000 0.0000
# 2 32.3302 24.4732 12.7341 0.0000 0.0000 0.0000
# 3 69.8130 12.7341 54.5394 0.0000 0.0000 0.0000
# 4 0.0000 0.0000 0.0000 12.8219 0.0000 0.0000
# 5 0.0000 0.0000 0.0000 0.0000 -4.2404 0.0000
# 6 0.0000 0.0000 0.0000 0.0000 0.0000 259.5173
#
#
#
# Elastic Compliance Matrix: (Units=1/GPa)
#
#
# Indices 1 2 3 4 5 6 
#
# 1 0.006798 -0.005068 -0.007518 0.000000 0.000000 0.000000
# 2 -0.005068 0.050291 -0.005254 0.000000 0.000000 0.000000
# 3 -0.007518 -0.005254 0.029186 0.000000 0.000000 0.000000
# 4 0.000000 0.000000 0.000000 0.077992 0.000000 0.000000
# 5 0.000000 0.000000 0.000000 0.000000 -0.235827 0.000000
# 6 0.000000 0.000000 0.000000 0.000000 0.000000 0.003853
#
#
# Mechanical properties :
#
#
# Convention : Reuss Voigt Hill
#
# Bulk Modulus (GPa) = 19.76577 61.90933 40.83755
# Shear Modulus (GPa) = -329.80733 67.78986 -131.00873
#
# Velocity S-wave (km/s) = -13.43556 6.09127 -8.46790
# Velocity P-wave (km/s) = 15.16137 9.12997 8.55893
#
# Compressibility (1/GPa) = 0.05059252
#
# Stress axis : x y z
#
# Youngs Moduli (GPa) = 147.10089 19.88443 34.26287
#
# Poissons Ratio (x) = 0.10078 0.25760
# Poissons Ratio (y) = 0.74558 0.18002
# Poissons Ratio (z) = 1.10597 0.10448
#
# Static dielectric constant tensor:
#      x y z
#    x 1.706360 0.000000 0.000000 
#    y 0.000000 1.626630 0.000000 
#    z 0.000000 0.000000 1.586640 
# 
# From -- ./inp_files/46496.got.cif
#   From: 2010.05.17/outbox.cif.g08.bks.cpg/sg74_24_cif.got.tgz:46496.got - 2010.06.03 17:57:02.
