data_PCOD9535870
_publ_section_title
;
Structure prediction by ZEFSAII (Michael W. Deem and Ramdas Pophale) SiO2 
 PCOD9535870
Probable space group: I M M A
;
_chemical_formula_sum "Si O2"
_cell_formula_units_Z 72
_cell_length_a 23.249984
_cell_length_b 7.374537
_cell_length_c 18.112202
_cell_angle_alpha 90.000000
_cell_angle_beta 90.000000
_cell_angle_gamma 90.000000
_cell_volume 3105.479526
_symmetry_space_group_name_H-M "I M M A"
_symmetry_group_IT_number 74
_symmetry_cell_setting 'orthorhombic'
loop_
_space_group_symop_operation_xyz
x,y,z
-x,1/2-y,z
x,-y,-z
-x,1/2+y,-z
-x,-y,-z
x,1/2+y,-z
-x,y,z
x,1/2-y,z
1/2+x,1/2+y,1/2+z
1/2-x,-y,1/2+z
1/2+x,1/2-y,1/2-z
1/2-x,y,1/2-z
1/2-x,1/2-y,1/2-z
1/2+x,y,1/2-z
1/2-x,1/2+y,1/2+z
1/2+x,-y,1/2+z
loop_
_atom_site_type_symbol
_atom_site_label
_atom_site_fract_x
_atom_site_fract_y
_atom_site_fract_z
Si Si1 0.836962 0.528225 0.806990
Si Si2 0.240185 0.033886 0.417999
Si Si3 0.564530 0.466188 0.416158
Si Si4 0.876043 0.471377 0.356271
Si Si5 0.500000 0.966614 0.912275
O O1 0.834558 0.750000 0.805706
O O2 0.779731 0.467350 0.850304
O O3 0.889608 0.467245 0.858156
O O4 0.852098 0.474072 0.724063
O O5 0.238545 0.250000 0.409423
O O6 0.174523 0.968452 0.411549
O O7 0.263952 0.000000 0.500000
O O8 0.582864 0.500000 0.500000
O O9 0.500000 0.538973 0.406942
O O10 0.561660 0.250000 0.406298
O O11 0.878603 0.250000 0.357092
O O12 0.940070 0.534836 0.376939
O O13 0.500000 0.750000 0.901010
O O14 0.500000 0.000000 0.000000
#
# Coordination Sequence:
#
# PCOD9535870 Si02
#       5
#    16  16  16  16   8
#     4   9  17  29  48  72  96 122 160 202 238 277
#     4  10  19  32  51  73  98 128 160 198 242 288
#     4   9  17  28  44  66  92 123 157 195 235 279
#     4   9  18  31  50  75  98 124 162 205 242 278
#     4  10  20  34  54  76  99 128 162 200 241 286
#
# _framework density 23.184826000000001
#
# number of rings (size 3 to 8) (size 9 to 14) (size 15 to 20)
#    0.000    2.667    0.000    2.000    1.556    2.667 
#    0.000    0.000    0.000    6.667    0.000    0.000 
#    0.000    0.000    0.000    0.000    0.000    0.000 
#
# Total GULP energy -201046.371151 kJ/mol
# GULP energy per Si atom -5584.621421 kJ/mol
# Density = 2.313206 g / cm^3
# Si number density = 23.184826 Si / 1000 Ang^3
#
#
#
# Elastic Constant Matrix: (Units=GPa)
#
#
# Indices 1 2 3 4 5 6 
#
# 1 154.9173 6.1643 102.7414 0.0000 0.0000 0.0000
# 2 6.1643 82.8255 -7.5657 0.0000 0.0000 0.0000
# 3 102.7414 -7.5657 135.6797 0.0000 0.0000 0.0000
# 4 0.0000 0.0000 0.0000 18.7292 0.0000 0.0000
# 5 0.0000 0.0000 0.0000 0.0000 87.8627 0.0000
# 6 0.0000 0.0000 0.0000 0.0000 0.0000 146.1308
#
#
#
# Elastic Compliance Matrix: (Units=1/GPa)
#
#
# Indices 1 2 3 4 5 6 
#
# 1 0.013262 -0.001914 -0.010149 0.000000 0.000000 0.000000
# 2 -0.001914 0.012412 0.002142 0.000000 0.000000 0.000000
# 3 -0.010149 0.002142 0.015175 0.000000 0.000000 0.000000
# 4 0.000000 0.000000 0.000000 0.053393 0.000000 0.000000
# 5 0.000000 0.000000 0.000000 0.000000 0.011381 0.000000
# 6 0.000000 0.000000 0.000000 0.000000 0.000000 0.006843
#
#
# Mechanical properties :
#
#
# Convention : Reuss Voigt Hill
#
# Bulk Modulus (GPa) = 47.60737 64.01137 55.80937
# Shear Modulus (GPa) = 35.89058 68.68337 52.28697
#
# Velocity S-wave (km/s) = 3.93876 5.44872 4.75407
# Velocity P-wave (km/s) = 6.42367 8.20085 7.36605
#
# Compressibility (1/GPa) = 0.02100515
#
# Stress axis : x y z
#
# Youngs Moduli (GPa) = 75.40128 80.56943 65.89674
#
# Poissons Ratio (x) = 0.15422 0.66882
# Poissons Ratio (y) = 0.14433 -0.14112
# Poissons Ratio (z) = 0.76528 -0.17254
#
# Static dielectric constant tensor:
#      x y z
#    x 1.871420 0.000000 0.000000 
#    y 0.000000 1.893160 0.000000 
#    z 0.000000 0.000000 1.827940 
# 
# From -- ./inp_files/30592.got.cif
#   From: 2010.05.17/outbox.cif.g08.bks.cpg/sg74_16_cif.got.tgz:30592.got - 2010.06.03 17:57:02.
