data_PCOD9535269
_publ_section_title
;
Structure prediction by ZEFSAII (Michael W. Deem and Ramdas Pophale) SiO2 
 PCOD9535269
Probable space group: I M M A
;
_chemical_formula_sum "Si O2"
_cell_formula_units_Z 96
_cell_length_a 21.843152
_cell_length_b 8.655200
_cell_length_c 22.763959
_cell_angle_alpha 90.000000
_cell_angle_beta 90.000000
_cell_angle_gamma 90.000000
_cell_volume 4303.682364
_symmetry_space_group_name_H-M "I M M A"
_symmetry_group_IT_number 74
_symmetry_cell_setting 'orthorhombic'
loop_
_space_group_symop_operation_xyz
x,y,z
-x,1/2-y,z
x,-y,-z
-x,1/2+y,-z
-x,-y,-z
x,1/2+y,-z
-x,y,z
x,1/2-y,z
1/2+x,1/2+y,1/2+z
1/2-x,-y,1/2+z
1/2+x,1/2-y,1/2-z
1/2-x,y,1/2-z
1/2-x,1/2-y,1/2-z
1/2+x,y,1/2-z
1/2-x,1/2+y,1/2+z
1/2+x,-y,1/2+z
loop_
_atom_site_type_symbol
_atom_site_label
_atom_site_fract_x
_atom_site_fract_y
_atom_site_fract_z
Si Si1 0.426853 0.921716 0.319916
Si Si2 0.934567 0.570637 0.580927
Si Si3 0.206375 0.935926 0.562101
Si Si4 0.424981 0.427188 0.438702
Si Si5 0.111890 0.922154 0.705668
Si Si6 0.768535 0.573454 0.314807
O O1 0.500000 0.912905 0.324479
O O2 0.404092 0.750000 0.305243
O O3 0.403143 0.976884 0.382756
O O4 0.413028 0.044596 0.269706
O O5 0.934873 0.750000 0.561008
O O6 0.866184 0.511696 0.565227
O O7 0.934350 0.573309 0.651837
O O8 0.000000 0.497636 0.562998
O O9 0.206988 0.750000 0.562154
O O10 0.230697 0.000000 0.500000
O O11 0.240866 0.992387 0.621687
O O12 0.405307 0.500000 0.500000
O O13 0.500000 0.429488 0.438351
O O14 0.405875 0.250000 0.433901
O O15 0.140795 0.750000 0.702917
O O16 0.158904 0.057491 0.691875
O O17 0.747170 0.750000 0.317762
O O18 0.750000 0.507501 0.250000
#
# Coordination Sequence:
#
# PCOD9535269 Si02
#       6
#    16  16  16  16  16  16
#     4  10  19  29  43  66  97 132 168 206 250 304
#     4   8  15  28  46  71 106 147 186 221 259 305
#     4  10  20  34  55  83 115 151 190 233 278 330
#     4   9  16  26  40  58  82 115 157 202 246 294
#     4  10  19  31  50  75 103 135 172 217 266 318
#     4  10  21  38  60  83 107 137 176 226 282 337
#
# _framework density 22.306479
#
# number of rings (size 3 to 8) (size 9 to 14) (size 15 to 20)
#    0.000    2.500    0.000    4.000    0.000    5.333 
#    0.000    0.000    0.000   10.500    0.000    2.333 
#    0.000    0.000    0.000    0.000    0.000    0.000 
#
# Total GULP energy -267299.503124 kJ/mol
# GULP energy per Si atom -5568.739648 kJ/mol
# Density = 2.225571 g / cm^3
# Si number density = 22.306479 Si / 1000 Ang^3
#
#
#
# Elastic Constant Matrix: (Units=GPa)
#
#
# Indices 1 2 3 4 5 6 
#
# 1 33.7320 3.4640 6.2553 0.0000 0.0000 0.0000
# 2 3.4640 63.6136 42.1141 0.0000 0.0000 0.0000
# 3 6.2553 42.1141 202.8456 0.0000 0.0000 0.0000
# 4 0.0000 0.0000 0.0000 26.7123 0.0000 0.0000
# 5 0.0000 0.0000 0.0000 0.0000 -6.3199 0.0000
# 6 0.0000 0.0000 0.0000 0.0000 0.0000 6.2534
#
#
#
# Elastic Compliance Matrix: (Units=1/GPa)
#
#
# Indices 1 2 3 4 5 6 
#
# 1 0.029892 -0.001180 -0.000677 0.000000 0.000000 0.000000
# 2 -0.001180 0.018271 -0.003757 0.000000 0.000000 0.000000
# 3 -0.000677 -0.003757 0.005731 0.000000 0.000000 0.000000
# 4 0.000000 0.000000 0.000000 0.037436 0.000000 0.000000
# 5 0.000000 0.000000 0.000000 0.000000 -0.158230 0.000000
# 6 0.000000 0.000000 0.000000 0.000000 0.000000 0.159913
#
#
# Mechanical properties :
#
#
# Convention : Reuss Voigt Hill
#
# Bulk Modulus (GPa) = 23.43723 44.87310 34.15517
# Shear Modulus (GPa) = 42.20752 21.88634 32.04693
#
# Velocity S-wave (km/s) = 4.35462 3.13575 3.79445
# Velocity P-wave (km/s) = 5.98443 5.76809 5.87726
#
# Compressibility (1/GPa) = 0.04266715
#
# Stress axis : x y z
#
# Youngs Moduli (GPa) = 33.45363 54.73020 174.49685
#
# Poissons Ratio (x) = 0.06456 0.11812
# Poissons Ratio (y) = 0.03946 0.65560
# Poissons Ratio (z) = 0.02264 0.20563
#
# Static dielectric constant tensor:
#      x y z
#    x 1.899560 0.000000 0.000000 
#    y 0.000000 1.842090 0.000000 
#    z 0.000000 0.000000 1.855660 
# 
# From -- ./inp_files/55077.got.cif
#   From: 2010.05.17/outbox.cif.g08.bks.cpg/sg74_28_cif.got.tgz:55077.got - 2010.06.03 17:57:02.
