data_PCOD9535583
_publ_section_title
;
Structure prediction by ZEFSAII (Michael W. Deem and Ramdas Pophale) SiO2 
 PCOD9535583
Probable space group: I M M A
;
_chemical_formula_sum "Si O2"
_cell_formula_units_Z 72
_cell_length_a 25.455863
_cell_length_b 14.462225
_cell_length_c 11.287852
_cell_angle_alpha 90.000000
_cell_angle_beta 90.000000
_cell_angle_gamma 90.000000
_cell_volume 4155.604860
_symmetry_space_group_name_H-M "I M M A"
_symmetry_group_IT_number 74
_symmetry_cell_setting 'orthorhombic'
loop_
_space_group_symop_operation_xyz
x,y,z
-x,1/2-y,z
x,-y,-z
-x,1/2+y,-z
-x,-y,-z
x,1/2+y,-z
-x,y,z
x,1/2-y,z
1/2+x,1/2+y,1/2+z
1/2-x,-y,1/2+z
1/2+x,1/2-y,1/2-z
1/2-x,y,1/2-z
1/2-x,1/2-y,1/2-z
1/2+x,y,1/2-z
1/2-x,1/2+y,1/2+z
1/2+x,-y,1/2+z
loop_
_atom_site_type_symbol
_atom_site_label
_atom_site_fract_x
_atom_site_fract_y
_atom_site_fract_z
Si Si1 0.090886 0.355555 0.187653
Si Si2 0.437601 0.141541 0.571949
Si Si3 0.800991 0.643427 0.674573
Si Si4 0.559846 0.033828 0.810867
Si Si5 0.854178 0.500000 0.500000
O O1 0.070510 0.250000 0.191661
O O2 0.149950 0.355496 0.235489
O O3 0.060604 0.426378 0.271879
O O4 0.088328 0.387435 0.051455
O O5 0.500000 0.129526 0.553223
O O6 0.426731 0.250000 0.589659
O O7 0.424734 0.087779 0.691301
O O8 0.793158 0.750000 0.632758
O O9 0.750000 0.615157 0.750000
O O10 0.818493 0.573616 0.570776
O O11 0.500000 0.059678 0.846280
O O12 0.604839 0.047588 0.908290
#
# Coordination Sequence:
#
# PCOD9535583 Si02
#       5
#    16  16  16  16   8
#     4   9  17  30  50  74  99 131 172 211 246 295
#     4   9  17  29  46  71 103 135 166 202 246 296
#     4   9  19  38  58  74  98 133 171 215 264 306
#     4  10  19  31  48  72 106 140 167 201 250 304
#     4  10  21  36  52  78 100 132 173 214 252 312
#
# _framework density 17.325997999999998
#
# number of rings (size 3 to 8) (size 9 to 14) (size 15 to 20)
#    0.000    2.667    0.000    1.667    0.000    4.000 
#    8.000    0.000    0.000    4.667    0.000    0.000 
#    0.000    0.000    0.000    0.000    0.000    0.000 
#
# Total GULP energy -200566.666574 kJ/mol
# GULP energy per Si atom -5571.296294 kJ/mol
# Density = 1.728656 g / cm^3
# Si number density = 17.325998 Si / 1000 Ang^3
#
#
#
# Elastic Constant Matrix: (Units=GPa)
#
#
# Indices 1 2 3 4 5 6 
#
# 1 75.1424 34.7276 50.4452 0.0000 0.0000 0.0000
# 2 34.7276 56.9897 54.4724 0.0000 0.0000 0.0000
# 3 50.4452 54.4724 106.4024 0.0000 0.0000 0.0000
# 4 0.0000 0.0000 0.0000 28.7990 0.0000 0.0000
# 5 0.0000 0.0000 0.0000 0.0000 -13.8396 0.0000
# 6 0.0000 0.0000 0.0000 0.0000 0.0000 16.8552
#
#
#
# Elastic Compliance Matrix: (Units=1/GPa)
#
#
# Indices 1 2 3 4 5 6 
#
# 1 0.020617 -0.006307 -0.006546 0.000000 0.000000 0.000000
# 2 -0.006307 0.036290 -0.015589 0.000000 0.000000 0.000000
# 3 -0.006546 -0.015589 0.020482 0.000000 0.000000 0.000000
# 4 0.000000 0.000000 0.000000 0.034723 0.000000 0.000000
# 5 0.000000 0.000000 0.000000 0.000000 -0.072256 0.000000
# 6 0.000000 0.000000 0.000000 0.000000 0.000000 0.059329
#
#
# Mechanical properties :
#
#
# Convention : Reuss Voigt Hill
#
# Bulk Modulus (GPa) = 48.76343 57.53611 53.14977
# Shear Modulus (GPa) = 30.69290 12.95552 21.82421
#
# Velocity S-wave (km/s) = 4.21348 2.73747 3.55297
# Velocity P-wave (km/s) = 7.20257 6.57812 6.89741
#
# Compressibility (1/GPa) = 0.02050717
#
# Stress axis : x y z
#
# Youngs Moduli (GPa) = 48.50321 27.55562 48.82275
#
# Poissons Ratio (x) = 0.17378 0.31959
# Poissons Ratio (y) = 0.30589 0.76108
# Poissons Ratio (z) = 0.31750 0.42956
#
# Static dielectric constant tensor:
#      x y z
#    x 1.578940 0.000000 0.000000 
#    y 0.000000 1.630410 0.000000 
#    z 0.000000 0.000000 1.586970 
# 
# From -- ./inp_files/10809.got.cif
#   From: 2010.05.17/outbox.cif.g08.bks.cpg/sg74_6_cif.got.tgz:10809.got - 2010.06.03 17:57:02.
