data_PCOD9535209
_publ_section_title
;
Structure prediction by ZEFSAII (Michael W. Deem and Ramdas Pophale) SiO2 
 PCOD9535209
Probable space group: I M M A
;
_chemical_formula_sum "Si O2"
_cell_formula_units_Z 128
_cell_length_a 16.676920
_cell_length_b 21.395460
_cell_length_c 22.233224
_cell_angle_alpha 90.000000
_cell_angle_beta 90.000000
_cell_angle_gamma 90.000000
_cell_volume 7933.044988
_symmetry_space_group_name_H-M "I M M A"
_symmetry_group_IT_number 74
_symmetry_cell_setting 'orthorhombic'
loop_
_space_group_symop_operation_xyz
x,y,z
-x,1/2-y,z
x,-y,-z
-x,1/2+y,-z
-x,-y,-z
x,1/2+y,-z
-x,y,z
x,1/2-y,z
1/2+x,1/2+y,1/2+z
1/2-x,-y,1/2+z
1/2+x,1/2-y,1/2-z
1/2-x,y,1/2-z
1/2-x,1/2-y,1/2-z
1/2+x,y,1/2-z
1/2-x,1/2+y,1/2+z
1/2+x,-y,1/2+z
loop_
_atom_site_type_symbol
_atom_site_label
_atom_site_fract_x
_atom_site_fract_y
_atom_site_fract_z
Si Si1 0.819161 0.117667 0.880243
Si Si2 0.816083 0.576491 0.303904
Si Si3 0.906882 0.678397 0.013807
Si Si4 0.098017 0.680939 0.746491
Si Si5 0.094504 0.320869 0.770399
Si Si6 0.597238 0.854564 0.619693
Si Si7 0.907074 0.454717 0.288501
Si Si8 0.092152 0.989752 0.853105
O O1 0.727674 0.107823 0.860647
O O2 0.845857 0.139853 0.945521
O O3 0.858410 0.164793 0.831809
O O4 0.858487 0.050433 0.867820
O O5 0.750000 0.568590 0.250000
O O6 0.879107 0.625636 0.276267
O O7 0.853905 0.508955 0.317948
O O8 0.906279 0.750000 0.034436
O O9 0.000000 0.655632 0.019446
O O10 0.884276 0.676918 0.943417
O O11 0.122619 0.750000 0.724509
O O12 0.123966 0.673925 0.816584
O O13 0.122681 0.617441 0.711745
O O14 0.000000 0.679270 0.745995
O O15 0.112276 0.250000 0.749945
O O16 0.000000 0.326082 0.782071
O O17 0.500000 0.854740 0.624217
O O18 0.623218 0.926635 0.616539
O O19 0.907325 0.474673 0.217980
O O20 0.000000 0.456498 0.308931
O O21 0.000000 0.000318 0.870975
#
# Coordination Sequence:
#
# PCOD9535209 Si02
#       8
#    16  16  16  16  16  16  16  16
#     4  11  20  27  38  56  78 108 142 175 209 241
#     4  10  19  28  40  56  75 106 142 177 212 247
#     4  10  19  29  40  55  80 113 145 178 213 245
#     4   8  13  22  40  65  86 104 134 173 205 236
#     4  10  19  30  43  56  72  98 137 181 217 250
#     4   8  15  25  39  59  81 107 138 172 203 233
#     4   9  15  26  43  60  80 107 138 171 209 252
#     4   9  15  25  41  59  78 103 136 173 206 240
#
# _framework density 16.13504
#
# number of rings (size 3 to 8) (size 9 to 14) (size 15 to 20)
#    0.000    2.625    2.500    3.750    0.000    5.750 
#    0.000    1.875    0.000    0.375    0.000    0.000 
#    0.000    0.000    0.000    9.000    1.000    2.000 
#
# Total GULP energy -356307.317062 kJ/mol
# GULP energy per Si atom -5567.301829 kJ/mol
# Density = 1.609832 g / cm^3
# Si number density = 16.135040 Si / 1000 Ang^3
#
#
#
# Elastic Constant Matrix: (Units=GPa)
#
#
# Indices 1 2 3 4 5 6 
#
# 1 30.9624 24.7303 12.7783 0.0000 0.0000 0.0000
# 2 24.7303 103.4921 11.6474 0.0000 0.0000 0.0000
# 3 12.7783 11.6474 23.3368 0.0000 0.0000 0.0000
# 4 0.0000 0.0000 0.0000 16.3164 0.0000 0.0000
# 5 0.0000 0.0000 0.0000 0.0000 36.7497 0.0000
# 6 0.0000 0.0000 0.0000 0.0000 0.0000 -6.4060
#
#
#
# Elastic Compliance Matrix: (Units=1/GPa)
#
#
# Indices 1 2 3 4 5 6 
#
# 1 0.048740 -0.009158 -0.022117 0.000000 0.000000 0.000000
# 2 -0.009158 0.011958 -0.000954 0.000000 0.000000 0.000000
# 3 -0.022117 -0.000954 0.055438 0.000000 0.000000 0.000000
# 4 0.000000 0.000000 0.000000 0.061288 0.000000 0.000000
# 5 0.000000 0.000000 0.000000 0.000000 0.027211 0.000000
# 6 0.000000 0.000000 0.000000 0.000000 0.000000 -0.156102
#
#
# Mechanical properties :
#
#
# Convention : Reuss Voigt Hill
#
# Bulk Modulus (GPa) = 19.35077 28.45590 23.90334
# Shear Modulus (GPa) = 38.39783 16.57436 27.48609
#
# Velocity S-wave (km/s) = 4.88359 3.20852 4.13183
# Velocity P-wave (km/s) = 6.61954 5.60361 6.13265
#
# Compressibility (1/GPa) = 0.05167753
#
# Stress axis : x y z
#
# Youngs Moduli (GPa) = 20.51723 83.62452 18.03830
#
# Poissons Ratio (x) = 0.76579 0.39896
# Poissons Ratio (y) = 0.18789 0.01721
# Poissons Ratio (z) = 0.45379 0.07978
#
# Static dielectric constant tensor:
#      x y z
#    x 1.558660 0.000000 0.000000 
#    y 0.000000 1.588450 0.000000 
#    z 0.000000 0.000000 1.534780 
# 
# From -- ./inp_files/61186.got.cif
#   From: 2010.05.17/outbox.cif.g08.bks.cpg/sg74_31_cif.got.tgz:61186.got - 2010.06.03 17:57:02.
