data_PCOD9535723
_publ_section_title
;
Structure prediction by ZEFSAII (Michael W. Deem and Ramdas Pophale) SiO2 
 PCOD9535723
Probable space group: I M M A
;
_chemical_formula_sum "Si O2"
_cell_formula_units_Z 72
_cell_length_a 16.418849
_cell_length_b 10.148882
_cell_length_c 23.383400
_cell_angle_alpha 90.000000
_cell_angle_beta 90.000000
_cell_angle_gamma 90.000000
_cell_volume 3896.445182
_symmetry_space_group_name_H-M "I M M A"
_symmetry_group_IT_number 74
_symmetry_cell_setting 'orthorhombic'
loop_
_space_group_symop_operation_xyz
x,y,z
-x,1/2-y,z
x,-y,-z
-x,1/2+y,-z
-x,-y,-z
x,1/2+y,-z
-x,y,z
x,1/2-y,z
1/2+x,1/2+y,1/2+z
1/2-x,-y,1/2+z
1/2+x,1/2-y,1/2-z
1/2-x,y,1/2-z
1/2-x,1/2-y,1/2-z
1/2+x,y,1/2-z
1/2-x,1/2+y,1/2+z
1/2+x,-y,1/2+z
loop_
_atom_site_type_symbol
_atom_site_label
_atom_site_fract_x
_atom_site_fract_y
_atom_site_fract_z
Si Si1 0.357150 0.000000 0.500000
Si Si2 0.908052 0.595698 0.554255
Si Si3 0.178665 0.406516 0.795776
Si Si4 0.500000 0.590365 0.293544
Si Si5 0.000000 0.599681 0.078941
Si Si6 0.738744 0.598907 0.606076
O O1 0.420102 0.925975 0.458350
O O2 0.301399 0.916936 0.543085
O O3 0.898570 0.500000 0.500000
O O4 0.900996 0.750000 0.536761
O O5 0.834760 0.571101 0.597948
O O6 0.000000 0.576502 0.576967
O O7 0.175871 0.250000 0.811283
O O8 0.250000 0.424160 0.750000
O O9 0.089662 0.446065 0.771173
O O10 0.199295 0.495410 0.850579
O O11 0.500000 0.750000 0.289665
O O12 0.500000 0.533662 0.358930
O O13 0.000000 0.750000 0.094349
O O14 0.727296 0.750000 0.625147
#
# Coordination Sequence:
#
# PCOD9535723 Si02
#       6
#     8  16  16   8   8  16
#     4  11  20  32  51  84 118 154 187 220 278 349
#     4   9  18  33  52  76 109 148 184 221 268 324
#     4  10  22  41  62  82 108 148 194 239 286 339
#     4   9  17  35  61  83 110 149 191 235 284 334
#     4  10  19  31  51  80 118 154 183 222 274 340
#     4  11  22  35  56  85 117 149 185 234 284 338
#
# _framework density 18.478380999999999
#
# number of rings (size 3 to 8) (size 9 to 14) (size 15 to 20)
#    0.000    2.000    3.333    0.667    0.000    2.222 
#    2.000    1.667    0.000    0.000    0.000    0.000 
#    0.000    0.000    0.000    0.000    0.000    0.000 
#
# Total GULP energy -200444.443748 kJ/mol
# GULP energy per Si atom -5567.901215 kJ/mol
# Density = 1.843632 g / cm^3
# Si number density = 18.478381 Si / 1000 Ang^3
#
#
#
# Elastic Constant Matrix: (Units=GPa)
#
#
# Indices 1 2 3 4 5 6 
#
# 1 170.4380 35.7197 35.8194 0.0000 0.0000 0.0000
# 2 35.7197 46.5438 16.9756 0.0000 0.0000 0.0000
# 3 35.8194 16.9756 37.3295 0.0000 0.0000 0.0000
# 4 0.0000 0.0000 0.0000 18.4684 0.0000 0.0000
# 5 0.0000 0.0000 0.0000 0.0000 25.1745 0.0000
# 6 0.0000 0.0000 0.0000 0.0000 0.0000 8.4222
#
#
#
# Elastic Compliance Matrix: (Units=1/GPa)
#
#
# Indices 1 2 3 4 5 6 
#
# 1 0.007915 -0.003961 -0.005793 0.000000 0.000000 0.000000
# 2 -0.003961 0.027740 -0.008814 0.000000 0.000000 0.000000
# 3 -0.005793 -0.008814 0.036355 0.000000 0.000000 0.000000
# 4 0.000000 0.000000 0.000000 0.054147 0.000000 0.000000
# 5 0.000000 0.000000 0.000000 0.000000 0.039723 0.000000
# 6 0.000000 0.000000 0.000000 0.000000 0.000000 0.118734
#
#
# Mechanical properties :
#
#
# Convention : Reuss Voigt Hill
#
# Bulk Modulus (GPa) = 28.67493 47.92671 38.30082
# Shear Modulus (GPa) = 14.99815 21.46612 18.23214
#
# Velocity S-wave (km/s) = 2.85205 3.41205 3.14454
# Velocity P-wave (km/s) = 5.13784 6.44327 5.82723
#
# Compressibility (1/GPa) = 0.03487367
#
# Stress axis : x y z
#
# Youngs Moduli (GPa) = 126.34287 36.04935 27.50616
#
# Poissons Ratio (x) = 0.14280 0.15935
# Poissons Ratio (y) = 0.50048 0.24243
# Poissons Ratio (z) = 0.73195 0.31772
#
# Static dielectric constant tensor:
#      x y z
#    x 1.684390 0.000000 0.000000 
#    y 0.000000 1.622800 0.000000 
#    z 0.000000 0.000000 1.620490 
# 
# From -- ./inp_files/59663.got.cif
#   From: 2010.05.17/outbox.cif.g08.bks.cpg/sg74_30_cif.got.tgz:59663.got - 2010.06.03 17:57:02.
