data_PCOD9535809
_publ_section_title
;
Structure prediction by ZEFSAII (Michael W. Deem and Ramdas Pophale) SiO2 
 PCOD9535809
Probable space group: I M M A
;
_chemical_formula_sum "Si O2"
_cell_formula_units_Z 88
_cell_length_a 9.038376
_cell_length_b 23.014572
_cell_length_c 25.211971
_cell_angle_alpha 90.000000
_cell_angle_beta 90.000000
_cell_angle_gamma 90.000000
_cell_volume 5244.451891
_symmetry_space_group_name_H-M "I M M A"
_symmetry_group_IT_number 74
_symmetry_cell_setting 'orthorhombic'
loop_
_space_group_symop_operation_xyz
x,y,z
-x,1/2-y,z
x,-y,-z
-x,1/2+y,-z
-x,-y,-z
x,1/2+y,-z
-x,y,z
x,1/2-y,z
1/2+x,1/2+y,1/2+z
1/2-x,-y,1/2+z
1/2+x,1/2-y,1/2-z
1/2-x,y,1/2-z
1/2-x,1/2-y,1/2-z
1/2+x,y,1/2-z
1/2-x,1/2+y,1/2+z
1/2+x,-y,1/2+z
loop_
_atom_site_type_symbol
_atom_site_label
_atom_site_fract_x
_atom_site_fract_y
_atom_site_fract_z
Si Si1 0.678358 0.750000 0.308039
Si Si2 0.322292 0.181935 0.983802
Si Si3 0.822478 0.967382 0.193751
Si Si4 0.677053 0.602029 0.693277
Si Si5 0.177356 0.818775 0.604482
Si Si6 0.678112 0.138300 0.620664
O O1 0.500000 0.750000 0.302416
O O2 0.750000 0.750000 0.250000
O O3 0.720533 0.807163 0.341817
O O4 0.500000 0.177893 0.980017
O O5 0.282470 0.250000 0.976769
O O6 0.247744 0.146427 0.936964
O O7 0.280697 0.165266 0.043934
O O8 0.750000 0.952302 0.250000
O O9 0.776521 0.921214 0.149449
O O10 0.000000 0.963595 0.199235
O O11 0.785472 0.034397 0.181416
O O12 0.500000 0.607061 0.697130
O O13 0.750000 0.616293 0.750000
O O14 0.739680 0.643245 0.647751
O O15 0.207532 0.750000 0.611239
O O16 0.000000 0.826441 0.609660
O O17 0.500000 0.139163 0.616038
#
# Coordination Sequence:
#
# PCOD9535809 Si02
#       6
#     8  16  16  16  16  16
#     4  10  20  30  44  70 100 130 167 212 255 294
#     4   9  18  33  52  74 100 132 169 208 253 301
#     4   9  19  34  51  72 101 135 171 210 251 298
#     4  10  20  35  55  78 103 134 168 203 249 302
#     4   9  19  36  56  78 104 131 163 207 253 299
#     4  10  19  32  49  72 101 133 171 212 254 298
#
# _framework density 16.779637000000001
#
# number of rings (size 3 to 8) (size 9 to 14) (size 15 to 20)
#    0.000    2.545    0.909    2.182    0.000    3.636 
#    0.000    2.727    0.000    5.455    0.000    0.000 
#    0.000    0.000    0.000    0.000    0.000    0.000 
#
# Total GULP energy -245416.500432 kJ/mol
# GULP energy per Si atom -5577.647737 kJ/mol
# Density = 1.674145 g / cm^3
# Si number density = 16.779637 Si / 1000 Ang^3
#
#
#
# Elastic Constant Matrix: (Units=GPa)
#
#
# Indices 1 2 3 4 5 6 
#
# 1 27.6655 42.9646 59.8767 0.0000 0.0000 0.0000
# 2 42.9646 85.7406 103.7679 0.0000 0.0000 0.0000
# 3 59.8767 103.7679 182.7798 0.0000 0.0000 0.0000
# 4 0.0000 0.0000 0.0000 28.8610 0.0000 0.0000
# 5 0.0000 0.0000 0.0000 0.0000 37.5432 0.0000
# 6 0.0000 0.0000 0.0000 0.0000 0.0000 18.9546
#
#
#
# Elastic Compliance Matrix: (Units=1/GPa)
#
#
# Indices 1 2 3 4 5 6 
#
# 1 0.197994 -0.066206 -0.027274 0.000000 0.000000 0.000000
# 2 -0.066206 0.059411 -0.012040 0.000000 0.000000 0.000000
# 3 -0.027274 -0.012040 0.021241 0.000000 0.000000 0.000000
# 4 0.000000 0.000000 0.000000 0.034649 0.000000 0.000000
# 5 0.000000 0.000000 0.000000 0.000000 0.026636 0.000000
# 6 0.000000 0.000000 0.000000 0.000000 0.000000 0.052758
#
#
# Mechanical properties :
#
#
# Convention : Reuss Voigt Hill
#
# Bulk Modulus (GPa) = 14.79180 78.82271 46.80726
# Shear Modulus (GPa) = 7.98384 23.04353 15.51369
#
# Velocity S-wave (km/s) = 2.18366 3.70983 3.04395
# Velocity P-wave (km/s) = 3.89773 8.08874 6.34901
#
# Compressibility (1/GPa) = 0.06760501
#
# Stress axis : x y z
#
# Youngs Moduli (GPa) = 5.05066 16.83196 47.07793
#
# Poissons Ratio (x) = 1.11438 1.28401
# Poissons Ratio (y) = 0.33438 0.56684
# Poissons Ratio (z) = 0.13775 0.20266
#
# Static dielectric constant tensor:
#      x y z
#    x 1.558410 0.000000 0.000000 
#    y 0.000000 1.562050 0.000000 
#    z 0.000000 0.000000 1.537690 
# 
# From -- ./inp_files/48760.got.cif
#   From: 2010.05.17/outbox.cif.g08.bks.cpg/sg74_25_cif.got.tgz:48760.got - 2010.06.03 17:57:02.
