data_PCOD9535190
_publ_section_title
;
Structure prediction by ZEFSAII (Michael W. Deem and Ramdas Pophale) SiO2 
 PCOD9535190
Probable space group: I M M A
;
_chemical_formula_sum "Si O2"
_cell_formula_units_Z 92
_cell_length_a 14.445464
_cell_length_b 20.682977
_cell_length_c 19.925081
_cell_angle_alpha 90.000000
_cell_angle_beta 90.000000
_cell_angle_gamma 90.000000
_cell_volume 5953.120054
_symmetry_space_group_name_H-M "I M M A"
_symmetry_group_IT_number 74
_symmetry_cell_setting 'orthorhombic'
loop_
_space_group_symop_operation_xyz
x,y,z
-x,1/2-y,z
x,-y,-z
-x,1/2+y,-z
-x,-y,-z
x,1/2+y,-z
-x,y,z
x,1/2-y,z
1/2+x,1/2+y,1/2+z
1/2-x,-y,1/2+z
1/2+x,1/2-y,1/2-z
1/2-x,y,1/2-z
1/2-x,1/2-y,1/2-z
1/2+x,y,1/2-z
1/2-x,1/2+y,1/2+z
1/2+x,-y,1/2+z
loop_
_atom_site_type_symbol
_atom_site_label
_atom_site_fract_x
_atom_site_fract_y
_atom_site_fract_z
Si Si1 0.500000 0.408807 0.215271
Si Si2 0.185645 0.980051 0.690953
Si Si3 0.000000 0.672742 0.840843
Si Si4 0.250000 0.750000 0.750000
Si Si5 0.316556 0.178083 0.004427
Si Si6 0.000000 0.319153 0.406292
Si Si7 0.794863 0.357012 0.134011
Si Si8 0.611408 0.447962 0.939385
O O1 0.593872 0.448513 0.224268
O O2 0.500000 0.346244 0.262474
O O3 0.500000 0.381178 0.140245
O O4 0.250000 0.008611 0.750000
O O5 0.245607 0.923225 0.655970
O O6 0.148220 0.024446 0.630978
O O7 0.094252 0.642471 0.868045
O O8 0.000000 0.750000 0.849314
O O9 0.234327 0.805920 0.808416
O O10 0.303178 0.250000 0.974745
O O11 0.410640 0.179680 0.047888
O O12 0.240232 0.164135 0.060940
O O13 0.333599 0.117867 0.955836
O O14 0.000000 0.250000 0.368219
O O15 0.500000 0.436984 0.936224
O O16 0.626332 0.500000 0.000000
#
# Coordination Sequence:
#
# PCOD9535190 Si02
#       8
#     8  16   8   4  16   8  16  16
#     4  12  19  31  48  74 108 150 190 218 257 327
#     4  12  23  36  52  77 113 152 189 233 277 333
#     4  12  23  32  45  71 110 157 192 221 250 320
#     4  12  20  34  48  76 116 154 192 214 266 322
#     4  11  21  35  53  82 115 145 179 230 283 336
#     4  10  19  25  45  78 114 140 169 214 270 327
#     4  12  22  32  50  75 111 155 193 220 260 325
#     4  11  21  35  58  85 114 148 189 232 287 338
#
# _framework density 15.454081
#
# number of rings (size 3 to 8) (size 9 to 14) (size 15 to 20)
#    0.000    0.522    9.565    0.261    0.000    0.000 
#    0.000    0.000    0.000    3.652    0.000    0.000 
#    0.000    0.000    0.000    0.000    0.000    0.000 
#
# Total GULP energy -256142.204814 kJ/mol
# GULP energy per Si atom -5568.308800 kJ/mol
# Density = 1.541891 g / cm^3
# Si number density = 15.454081 Si / 1000 Ang^3
#
#
#
# Elastic Constant Matrix: (Units=GPa)
#
#
# Indices 1 2 3 4 5 6 
#
# 1 93.0744 25.6603 22.4804 0.0000 0.0000 0.0000
# 2 25.6603 77.1469 32.4129 0.0000 0.0000 0.0000
# 3 22.4804 32.4129 49.9590 0.0000 0.0000 0.0000
# 4 0.0000 0.0000 0.0000 21.9460 0.0000 0.0000
# 5 0.0000 0.0000 0.0000 0.0000 21.2259 0.0000
# 6 0.0000 0.0000 0.0000 0.0000 0.0000 12.4962
#
#
#
# Elastic Compliance Matrix: (Units=1/GPa)
#
#
# Indices 1 2 3 4 5 6 
#
# 1 0.012380 -0.002443 -0.003986 0.000000 0.000000 0.000000
# 2 -0.002443 0.018302 -0.010775 0.000000 0.000000 0.000000
# 3 -0.003986 -0.010775 0.028800 0.000000 0.000000 0.000000
# 4 0.000000 0.000000 0.000000 0.045566 0.000000 0.000000
# 5 0.000000 0.000000 0.000000 0.000000 0.047112 0.000000
# 6 0.000000 0.000000 0.000000 0.000000 0.000000 0.080024
#
#
# Mechanical properties :
#
#
# Convention : Reuss Voigt Hill
#
# Bulk Modulus (GPa) = 39.87983 42.36526 41.12254
# Shear Modulus (GPa) = 18.18504 20.44208 19.31356
#
# Velocity S-wave (km/s) = 3.43405 3.64093 3.53900
# Velocity P-wave (km/s) = 6.44864 6.71925 6.58533
#
# Compressibility (1/GPa) = 0.02507534
#
# Stress axis : x y z
#
# Youngs Moduli (GPa) = 80.77292 54.63923 34.72183
#
# Poissons Ratio (x) = 0.13350 0.13839
# Poissons Ratio (y) = 0.19736 0.37411
# Poissons Ratio (z) = 0.32193 0.58872
#
# Static dielectric constant tensor:
#      x y z
#    x 1.539700 0.000000 0.000000 
#    y 0.000000 1.553840 0.000000 
#    z 0.000000 0.000000 1.502110 
# 
# From -- ./inp_files/42976.got.cif
#   From: 2010.05.17/outbox.cif.g08.bks.cpg/sg74_22_cif.got.tgz:42976.got - 2010.06.03 17:57:02.
