data_PCOD9535741
_publ_section_title
;
Structure prediction by ZEFSAII (Michael W. Deem and Ramdas Pophale) SiO2 
 PCOD9535741
Probable space group: I M M A
;
_chemical_formula_sum "Si O2"
_cell_formula_units_Z 120
_cell_length_a 7.732871
_cell_length_b 27.557333
_cell_length_c 28.786151
_cell_angle_alpha 90.000000
_cell_angle_beta 90.000000
_cell_angle_gamma 90.000000
_cell_volume 6134.251090
_symmetry_space_group_name_H-M "I M M A"
_symmetry_group_IT_number 74
_symmetry_cell_setting 'orthorhombic'
loop_
_space_group_symop_operation_xyz
x,y,z
-x,1/2-y,z
x,-y,-z
-x,1/2+y,-z
-x,-y,-z
x,1/2+y,-z
-x,y,z
x,1/2-y,z
1/2+x,1/2+y,1/2+z
1/2-x,-y,1/2+z
1/2+x,1/2-y,1/2-z
1/2-x,y,1/2-z
1/2-x,1/2-y,1/2-z
1/2+x,y,1/2-z
1/2-x,1/2+y,1/2+z
1/2+x,-y,1/2+z
loop_
_atom_site_type_symbol
_atom_site_label
_atom_site_fract_x
_atom_site_fract_y
_atom_site_fract_z
Si Si1 0.205980 0.452749 0.303144
Si Si2 0.702896 0.597690 0.604771
Si Si3 0.207896 0.155186 0.858720
Si Si4 0.790170 0.306085 0.954138
Si Si5 0.792372 0.952641 0.355698
Si Si6 0.288554 0.695020 0.559145
Si Si7 0.791828 0.750000 0.195935
Si Si8 0.298453 0.501264 0.948019
O O1 0.250000 0.443195 0.250000
O O2 0.274910 0.415242 0.341298
O O3 0.269940 0.505792 0.320342
O O4 0.000000 0.452276 0.307566
O O5 0.500000 0.595660 0.593222
O O6 0.767931 0.651155 0.591794
O O7 0.787984 0.554928 0.574370
O O8 0.272446 0.161398 0.911735
O O9 0.250447 0.101764 0.841310
O O10 0.272532 0.200774 0.828740
O O11 0.000000 0.158916 0.859806
O O12 0.746307 0.250000 0.943795
O O13 0.000000 0.308666 0.954995
O O14 0.732747 0.317007 0.006319
O O15 0.000000 0.956671 0.357756
O O16 0.724039 0.966454 0.407426
O O17 0.500000 0.696319 0.559572
O O18 0.231647 0.750000 0.570266
O O19 0.750000 0.750000 0.250000
O O20 0.000000 0.750000 0.190882
O O21 0.500000 0.487503 0.952997
O O22 0.221833 0.500000 0.000000
#
# Coordination Sequence:
#
# PCOD9535741 Si02
#       8
#    16  16  16  16  16  16   8  16
#     4  10  21  39  60  78 102 135 172 215 267 318
#     4  10  19  31  52  83 111 136 175 218 257 310
#     4  10  19  32  52  73  97 128 171 220 261 307
#     4   8  13  25  45  68  97 133 169 208 250 292
#     4   9  20  35  50  73 102 133 168 209 263 316
#     4   8  15  27  46  76 112 144 171 205 254 304
#     4  10  22  38  52  72  96 130 172 216 271 320
#     4   9  19  35  50  68 104 150 182 212 264 318
#
# _framework density 19.562290000000001
#
# number of rings (size 3 to 8) (size 9 to 14) (size 15 to 20)
#    0.000    2.800    0.667    2.400    1.867    4.000 
#    0.000    2.667    0.000    2.000    0.000    3.733 
#    0.000    0.000    0.000    0.000    0.000    0.000 
#
# Total GULP energy -334559.189205 kJ/mol
# GULP energy per Si atom -5575.986487 kJ/mol
# Density = 1.951777 g / cm^3
# Si number density = 19.562290 Si / 1000 Ang^3
#
#
#
# Elastic Constant Matrix: (Units=GPa)
#
#
# Indices 1 2 3 4 5 6 
#
# 1 27.7837 -6.9690 -7.3858 0.0000 0.0000 0.0000
# 2 -6.9690 127.0673 63.7739 0.0000 0.0000 0.0000
# 3 -7.3858 63.7739 113.7020 0.0000 0.0000 0.0000
# 4 0.0000 0.0000 0.0000 -0.0252 0.0000 0.0000
# 5 0.0000 0.0000 0.0000 0.0000 13.2794 0.0000
# 6 0.0000 0.0000 0.0000 0.0000 0.0000 17.4296
#
#
#
# Elastic Compliance Matrix: (Units=1/GPa)
#
#
# Indices 1 2 3 4 5 6 
#
# 1 0.036743 0.001137 0.001749 -0.000005 0.000000 0.000000
# 2 0.001137 0.010988 -0.006089 0.000001 0.000000 0.000000
# 3 0.001749 -0.006089 0.012324 -0.000007 0.000000 0.000000
# 4 -0.000005 0.000001 -0.000007-39.660733 0.000001 0.000001
# 5 0.000000 0.000000 0.000000 0.000001 0.075305 0.000000
# 6 0.000000 0.000000 0.000000 0.000001 0.000000 0.057374
#
#
# Mechanical properties :
#
#
# Convention : Reuss Voigt Hill
#
# Bulk Modulus (GPa) = 18.63981 40.82123 29.73052
# Shear Modulus (GPa) = -0.12676 20.74568 10.30946
#
# Velocity S-wave (km/s) = -0.25483 3.26006 2.29815
# Velocity P-wave (km/s) = 3.07612 5.92311 4.71942
#
# Compressibility (1/GPa) = 0.05364861
#
# Stress axis : x y z
#
# Youngs Moduli (GPa) = 27.21639 91.00477 81.14276
#
# Poissons Ratio (x) = -0.10352 -0.14189
# Poissons Ratio (y) = -0.03096 0.49411
# Poissons Ratio (z) = -0.04759 0.55416
#
# Static dielectric constant tensor:
#      x y z
#    x 1.728760 0.000000 0.000000 
#    y 0.000000 1.683930 0.000000 
#    z 0.000000 0.000000 1.543080 
# 
# From -- ./inp_files/65050.got.cif
#   From: 2010.05.17/outbox.cif.g08.bks.cpg/sg74_33_cif.got.tgz:65050.got - 2010.06.03 17:57:02.
