data_PCOD9535121
_publ_section_title
;
Structure prediction by ZEFSAII (Michael W. Deem and Ramdas Pophale) SiO2 
 PCOD9535121
Probable space group: I M M A
;
_chemical_formula_sum "Si O2"
_cell_formula_units_Z 104
_cell_length_a 15.447917
_cell_length_b 25.078150
_cell_length_c 12.588798
_cell_angle_alpha 90.000000
_cell_angle_beta 90.000000
_cell_angle_gamma 90.000000
_cell_volume 4876.965552
_symmetry_space_group_name_H-M "I M M A"
_symmetry_group_IT_number 74
_symmetry_cell_setting 'orthorhombic'
loop_
_space_group_symop_operation_xyz
x,y,z
-x,1/2-y,z
x,-y,-z
-x,1/2+y,-z
-x,-y,-z
x,1/2+y,-z
-x,y,z
x,1/2-y,z
1/2+x,1/2+y,1/2+z
1/2-x,-y,1/2+z
1/2+x,1/2-y,1/2-z
1/2-x,y,1/2-z
1/2-x,1/2-y,1/2-z
1/2+x,y,1/2-z
1/2-x,1/2+y,1/2+z
1/2+x,-y,1/2+z
loop_
_atom_site_type_symbol
_atom_site_label
_atom_site_fract_x
_atom_site_fract_y
_atom_site_fract_z
Si Si1 0.000000 0.514400 0.686964
Si Si2 0.900270 0.854338 0.614995
Si Si3 0.875091 0.933563 0.425148
Si Si4 0.172918 0.559407 0.027673
Si Si5 0.646866 0.632393 0.278082
Si Si6 0.396421 0.750000 0.003034
Si Si7 0.838897 0.424768 0.210104
Si Si8 0.146271 0.750000 0.249552
O O1 0.074389 0.484996 0.612804
O O2 0.077009 0.540764 0.761554
O O3 0.902431 0.903864 0.532875
O O4 0.863736 0.803501 0.553342
O O5 0.848285 0.872590 0.716965
O O6 0.000000 0.844522 0.646063
O O7 0.773349 0.945016 0.437690
O O8 0.892677 0.891720 0.329187
O O9 0.130308 0.592646 0.123488
O O10 0.139958 0.500000 0.000000
O O11 0.167984 0.587995 0.913956
O O12 0.750000 0.633660 0.250000
O O13 0.618071 0.693209 0.298555
O O14 0.500000 0.750000 0.991493
O O15 0.378647 0.750000 0.127064
O O16 0.750000 0.452549 0.250000
O O17 0.250000 0.750000 0.250000
#
# Coordination Sequence:
#
# PCOD9535121 Si02
#       8
#     8  16  16  16  16   8  16   8
#     4  12  26  41  69 102 134 184 247 285 353 420
#     4  11  22  41  67  98 134 173 225 294 361 418
#     4  11  21  37  65  97 129 170 228 289 345 416
#     4  11  23  41  61  89 139 189 224 280 354 424
#     4   9  20  38  62  96 129 174 228 283 350 421
#     4  10  22  40  68 100 136 170 221 304 379 413
#     4  12  25  43  65  97 142 185 232 298 348 425
#     4  10  18  34  67 100 133 166 220 298 361 422
#
# _framework density 21.324733999999999
#
# number of rings (size 3 to 8) (size 9 to 14) (size 15 to 20)
#    0.000    1.231    4.615    1.846    0.000    1.846 
#    0.000    4.615    0.000    0.000    0.000    0.000 
#    0.000    0.000    0.000    0.000    0.000    0.000 
#
# Total GULP energy -289563.181903 kJ/mol
# GULP energy per Si atom -5568.522729 kJ/mol
# Density = 2.127620 g / cm^3
# Si number density = 21.324734 Si / 1000 Ang^3
#
#
#
# Elastic Constant Matrix: (Units=GPa)
#
#
# Indices 1 2 3 4 5 6 
#
# 1 78.5173 9.2464 17.2142 0.0000 0.0000 0.0000
# 2 9.2464 138.6129 53.6472 0.0001 0.0000 0.0000
# 3 17.2142 53.6472 125.4977 0.0005 0.0000 -0.0002
# 4 0.0000 0.0001 0.0005 40.8688 0.0000 -0.0001
# 5 0.0000 0.0000 0.0000 0.0000 23.4819 0.0000
# 6 0.0000 0.0000 -0.0002 -0.0001 0.0000 11.0523
#
#
#
# Elastic Compliance Matrix: (Units=1/GPa)
#
#
# Indices 1 2 3 4 5 6 
#
# 1 0.013136 -0.000214 -0.001710 0.000000 0.000000 0.000000
# 2 -0.000214 0.008648 -0.003667 0.000000 0.000000 0.000000
# 3 -0.001710 -0.003667 0.009771 0.000000 0.000000 0.000000
# 4 0.000000 0.000000 0.000000 0.024469 0.000000 0.000000
# 5 0.000000 0.000000 0.000000 0.000000 0.042586 0.000000
# 6 0.000000 0.000000 0.000000 0.000000 0.000000 0.090479
#
#
# Mechanical properties :
#
#
# Convention : Reuss Voigt Hill
#
# Bulk Modulus (GPa) = 49.08977 55.87150 52.48063
# Shear Modulus (GPa) = 24.14730 32.58194 28.36462
#
# Velocity S-wave (km/s) = 3.36871 3.91307 3.65105
# Velocity P-wave (km/s) = 6.18070 6.83179 6.51438
#
# Compressibility (1/GPa) = 0.02037084
#
# Stress axis : x y z
#
# Youngs Moduli (GPa) = 76.12526 115.63322 102.34792
#
# Poissons Ratio (x) = 0.02479 0.17504
# Poissons Ratio (y) = 0.01632 0.37535
# Poissons Ratio (z) = 0.13019 0.42408
#
# Static dielectric constant tensor:
#      x y z
#    x 1.696670 0.000000 0.000000 
#    y 0.000000 1.853570 0.000000 
#    z 0.000000 0.000000 1.747220 
# 
# From -- ./inp_files/22793.got.cif
#   From: 2010.05.17/outbox.cif.g08.bks.cpg/sg74_12_cif.got.tgz:22793.got - 2010.06.03 17:57:02.
