data_PCOD9535479
_publ_section_title
;
Structure prediction by ZEFSAII (Michael W. Deem and Ramdas Pophale) SiO2 
 PCOD9535479
Probable space group: I M M A
;
_chemical_formula_sum "Si O2"
_cell_formula_units_Z 96
_cell_length_a 7.334221
_cell_length_b 16.199780
_cell_length_c 33.491886
_cell_angle_alpha 90.000000
_cell_angle_beta 90.000000
_cell_angle_gamma 90.000000
_cell_volume 3979.263637
_symmetry_space_group_name_H-M "I M M A"
_symmetry_group_IT_number 74
_symmetry_cell_setting 'orthorhombic'
loop_
_space_group_symop_operation_xyz
x,y,z
-x,1/2-y,z
x,-y,-z
-x,1/2+y,-z
-x,-y,-z
x,1/2+y,-z
-x,y,z
x,1/2-y,z
1/2+x,1/2+y,1/2+z
1/2-x,-y,1/2+z
1/2+x,1/2-y,1/2-z
1/2-x,y,1/2-z
1/2-x,1/2-y,1/2-z
1/2+x,y,1/2-z
1/2-x,1/2+y,1/2+z
1/2+x,-y,1/2+z
loop_
_atom_site_type_symbol
_atom_site_label
_atom_site_fract_x
_atom_site_fract_y
_atom_site_fract_z
Si Si1 0.718808 0.340138 0.077404
Si Si2 0.282687 0.250000 0.703020
Si Si3 0.289977 0.021437 0.924788
Si Si4 0.721426 0.412207 0.658417
Si Si5 0.279669 0.659507 0.017588
Si Si6 0.782523 0.925821 0.797380
Si Si7 0.282620 0.750000 0.701928
O O1 0.500000 0.337760 0.083923
O O2 0.787874 0.250000 0.092496
O O3 0.786323 0.431963 0.089236
O O4 0.755003 0.341986 0.029673
O O5 0.500000 0.250000 0.697595
O O6 0.250000 0.250000 0.750000
O O7 0.213627 0.167925 0.681755
O O8 0.500000 0.003636 0.936163
O O9 0.282665 0.081290 0.886898
O O10 0.210530 0.077209 0.960438
O O11 0.500000 0.412417 0.658747
O O12 0.788220 0.494184 0.680716
O O13 0.500000 0.658701 0.022175
O O14 0.216866 0.750000 0.032785
O O15 0.750000 0.931747 0.750000
O O16 0.710096 0.837655 0.812822
O O17 0.000000 0.924329 0.802795
O O18 0.500000 0.750000 0.696043
O O19 0.250000 0.750000 0.750000
#
# Coordination Sequence:
#
# PCOD9535479 Si02
#       7
#    16   8  16  16  16  16   8
#     4   8  14  27  47  72 103 135 168 210 257 296
#     4  10  22  40  60  78 100 133 172 211 257 312
#     4  10  19  30  49  76 102 131 170 212 249 294
#     4  10  22  37  50  71 103 136 163 196 252 309
#     4   8  14  25  45  73 101 129 165 212 258 294
#     4   9  17  31  51  71  93 120 156 196 236 285
#     4   8  14  26  46  70  90 111 142 185 229 268
#
# _framework density 24.125064999999999
#
# number of rings (size 3 to 8) (size 9 to 14) (size 15 to 20)
#    0.000    3.000    0.000    2.000    1.167    3.333 
#    1.500    0.000    0.000    2.000    0.000    2.333 
#    0.000    0.000    0.000    0.000    0.000    0.000 
#
# Total GULP energy -267918.661727 kJ/mol
# GULP energy per Si atom -5581.638786 kJ/mol
# Density = 2.407016 g / cm^3
# Si number density = 24.125065 Si / 1000 Ang^3
#
#
#
# Elastic Constant Matrix: (Units=GPa)
#
#
# Indices 1 2 3 4 5 6 
#
# 1 99.1847 12.4489 -8.8947 0.0000 0.0000 0.0000
# 2 12.4489 185.1728 31.4912 0.0000 0.0000 0.0000
# 3 -8.8947 31.4912 40.0232 0.0000 0.0000 0.0000
# 4 0.0000 0.0000 0.0000 -26.5120 0.0000 0.0000
# 5 0.0000 0.0000 0.0000 0.0000 69.3791 0.0000
# 6 0.0000 0.0000 0.0000 0.0000 0.0000 34.7528
#
#
#
# Elastic Compliance Matrix: (Units=1/GPa)
#
#
# Indices 1 2 3 4 5 6 
#
# 1 0.010543 -0.001278 0.003349 0.000000 0.000000 0.000000
# 2 -0.001278 0.006390 -0.005312 0.000000 0.000000 0.000000
# 3 0.003349 -0.005312 0.029909 0.000000 0.000000 0.000000
# 4 0.000000 0.000000 0.000000 -0.037719 0.000000 0.000000
# 5 0.000000 0.000000 0.000000 0.000000 0.014414 0.000000
# 6 0.000000 0.000000 0.000000 0.000000 0.000000 0.028775
#
#
# Mechanical properties :
#
#
# Convention : Reuss Voigt Hill
#
# Bulk Modulus (GPa) = 24.77730 43.83016 34.30373
# Shear Modulus (GPa) = 69.20776 34.81301 52.01038
#
# Velocity S-wave (km/s) = 5.36184 3.80283 4.64817
# Velocity P-wave (km/s) = 6.97317 6.12286 6.56180
#
# Compressibility (1/GPa) = 0.04035952
#
# Stress axis : x y z
#
# Youngs Moduli (GPa) = 94.85002 156.50411 33.43474
#
# Poissons Ratio (x) = 0.20006 -0.11197
# Poissons Ratio (y) = 0.12125 0.17759
# Poissons Ratio (z) = -0.31764 0.83128
#
# Static dielectric constant tensor:
#      x y z
#    x 1.913810 0.000000 0.000000 
#    y 0.000000 1.984020 0.000000 
#    z 0.000000 0.000000 1.885260 
# 
# From -- ./inp_files/71799.got.cif
#   From: 2010.05.17/outbox.cif.g08.bks.cpg/sg74_36_cif.got.tgz:71799.got - 2010.06.03 17:57:02.
