data_PCOD9535696
_publ_section_title
;
Structure prediction by ZEFSAII (Michael W. Deem and Ramdas Pophale) SiO2 
 PCOD9535696
Probable space group: I M M A
;
_chemical_formula_sum "Si O2"
_cell_formula_units_Z 104
_cell_length_a 8.077962
_cell_length_b 27.834496
_cell_length_c 23.296837
_cell_angle_alpha 90.000000
_cell_angle_beta 90.000000
_cell_angle_gamma 90.000000
_cell_volume 5238.200635
_symmetry_space_group_name_H-M "I M M A"
_symmetry_group_IT_number 74
_symmetry_cell_setting 'orthorhombic'
loop_
_space_group_symop_operation_xyz
x,y,z
-x,1/2-y,z
x,-y,-z
-x,1/2+y,-z
-x,-y,-z
x,1/2+y,-z
-x,y,z
x,1/2-y,z
1/2+x,1/2+y,1/2+z
1/2-x,-y,1/2+z
1/2+x,1/2-y,1/2-z
1/2-x,y,1/2-z
1/2-x,1/2-y,1/2-z
1/2+x,y,1/2-z
1/2-x,1/2+y,1/2+z
1/2+x,-y,1/2+z
loop_
_atom_site_type_symbol
_atom_site_label
_atom_site_fract_x
_atom_site_fract_y
_atom_site_fract_z
Si Si1 0.303212 0.750000 0.315571
Si Si2 0.302534 0.949746 0.814303
Si Si3 0.697571 0.883544 0.581036
Si Si4 0.809923 0.946858 0.024020
Si Si5 0.810547 0.945904 0.350959
Si Si6 0.198309 0.345686 0.620605
Si Si7 0.199389 0.694659 0.500712
O O1 0.500000 0.750000 0.320666
O O2 0.250000 0.750000 0.250000
O O3 0.233633 0.702778 0.345888
O O4 0.500000 0.952994 0.817613
O O5 0.250000 0.937015 0.750000
O O6 0.251089 0.909494 0.860526
O O7 0.234730 0.003875 0.828568
O O8 0.500000 0.885419 0.580250
O O9 0.760508 0.915744 0.527915
O O10 0.751408 0.830681 0.560485
O O11 0.698427 0.948415 0.080049
O O12 0.000000 0.931931 0.038892
O O13 0.821594 0.000000 0.000000
O O14 0.734741 0.892370 0.344752
O O15 0.000000 0.944734 0.329635
O O16 0.260018 0.335734 0.555218
O O17 0.000000 0.352732 0.616673
O O18 0.256950 0.750000 0.496565
O O19 0.000000 0.695223 0.497436
#
# Coordination Sequence:
#
# PCOD9535696 Si02
#       7
#     8  16  16  16  16  16  16
#     4  12  26  42  60  80 108 154 207 252 297 350
#     4  11  24  41  60  84 116 158 202 244 291 352
#     4  11  22  36  58  88 120 155 195 242 294 353
#     4  10  19  31  50  81 119 152 184 228 280 333
#     4  10  21  35  57  86 117 153 193 236 288 344
#     4  10  20  38  60  86 120 155 196 247 297 346
#     4  10  20  36  60  89 122 157 191 240 301 357
#
# _framework density 19.854144999999999
#
# number of rings (size 3 to 8) (size 9 to 14) (size 15 to 20)
#    0.000    1.538    3.846    1.615    0.000    3.692 
#    0.000    1.538    0.000    0.462    0.000    0.000 
#    0.000    0.000    0.000    0.000    0.000    0.000 
#
# Total GULP energy -289968.640351 kJ/mol
# GULP energy per Si atom -5576.320007 kJ/mol
# Density = 1.980896 g / cm^3
# Si number density = 19.854145 Si / 1000 Ang^3
#
#
#
# Elastic Constant Matrix: (Units=GPa)
#
#
# Indices 1 2 3 4 5 6 
#
# 1 21.6538 7.8294 -3.8283 0.0000 0.0000 0.0000
# 2 7.8294 95.5986 40.5217 0.0000 0.0000 0.0000
# 3 -3.8283 40.5217 102.6602 0.0000 0.0000 0.0000
# 4 0.0000 0.0000 0.0000 13.8627 0.0000 0.0000
# 5 0.0000 0.0000 0.0000 0.0000 0.3936 0.0000
# 6 0.0000 0.0000 0.0000 0.0000 0.0000 14.4976
#
#
#
# Elastic Compliance Matrix: (Units=1/GPa)
#
#
# Indices 1 2 3 4 5 6 
#
# 1 0.048983 -0.005748 0.004095 0.000000 0.000000 0.000000
# 2 -0.005748 0.013237 -0.005439 0.000000 0.000000 0.000000
# 3 0.004095 -0.005439 0.012040 0.000000 0.000000 0.000000
# 4 0.000000 0.000000 0.000000 0.072136 0.000001 0.000000
# 5 0.000000 0.000000 0.000000 0.000001 2.540505 0.000000
# 6 0.000000 0.000000 0.000000 0.000000 0.000000 0.068977
#
#
# Mechanical properties :
#
#
# Convention : Reuss Voigt Hill
#
# Bulk Modulus (GPa) = 16.64505 34.32867 25.48686
# Shear Modulus (GPa) = 1.79206 17.44345 9.61775
#
# Velocity S-wave (km/s) = 0.95109 2.96730 2.20334
# Velocity P-wave (km/s) = 3.09967 5.39146 4.39749
#
# Compressibility (1/GPa) = 0.06007792
#
# Stress axis : x y z
#
# Youngs Moduli (GPa) = 20.41506 75.54820 83.05323
#
# Poissons Ratio (x) = 0.43422 -0.34013
# Poissons Ratio (y) = 0.11734 0.45173
# Poissons Ratio (z) = -0.08361 0.41091
#
# Static dielectric constant tensor:
#      x y z
#    x 1.717030 0.000000 0.000000 
#    y 0.000000 1.792410 0.000000 
#    z 0.000000 0.000000 1.688130 
# 
# From -- ./inp_files/49263.got.cif
#   From: 2010.05.17/outbox.cif.g08.bks.cpg/sg74_25_cif.got.tgz:49263.got - 2010.06.03 17:57:02.
