data_PCOD9535023
_publ_section_title
;
Structure prediction by ZEFSAII (Michael W. Deem and Ramdas Pophale) SiO2 
 PCOD9535023
Probable space group: I M M A
;
_chemical_formula_sum "Si O2"
_cell_formula_units_Z 80
_cell_length_a 16.724824
_cell_length_b 29.014582
_cell_length_c 7.646832
_cell_angle_alpha 90.000000
_cell_angle_beta 90.000000
_cell_angle_gamma 90.000000
_cell_volume 3710.730581
_symmetry_space_group_name_H-M "I M M A"
_symmetry_group_IT_number 74
_symmetry_cell_setting 'orthorhombic'
loop_
_space_group_symop_operation_xyz
x,y,z
-x,1/2-y,z
x,-y,-z
-x,1/2+y,-z
-x,-y,-z
x,1/2+y,-z
-x,y,z
x,1/2-y,z
1/2+x,1/2+y,1/2+z
1/2-x,-y,1/2+z
1/2+x,1/2-y,1/2-z
1/2-x,y,1/2-z
1/2-x,1/2-y,1/2-z
1/2+x,y,1/2-z
1/2-x,1/2+y,1/2+z
1/2+x,-y,1/2+z
loop_
_atom_site_type_symbol
_atom_site_label
_atom_site_fract_x
_atom_site_fract_y
_atom_site_fract_z
Si Si1 0.403750 0.624891 0.404985
Si Si2 0.402648 0.697517 0.699755
Si Si3 0.410996 0.468019 0.169177
Si Si4 0.902646 0.126982 0.493716
Si Si5 0.691979 0.037605 0.605839
O O1 0.500000 0.618082 0.415210
O O2 0.382131 0.667829 0.527799
O O3 0.357210 0.579717 0.472557
O O4 0.383230 0.630649 0.199152
O O5 0.500000 0.698831 0.704631
O O6 0.373800 0.750000 0.694821
O O7 0.376873 0.669527 0.872648
O O8 0.500000 0.456821 0.237296
O O9 0.373594 0.420199 0.099011
O O10 0.368002 0.500853 0.306678
O O11 0.420155 0.500000 0.000000
O O12 0.000000 0.124699 0.489240
O O13 0.750000 0.058246 0.750000
O O14 0.743840 0.000000 0.500000
#
# Coordination Sequence:
#
# PCOD9535023 Si02
#       5
#    16  16  16  16  16
#     4  10  20  36  58  83 110 148 192 230 277 340
#     4   9  18  32  52  84 118 142 179 235 287 335
#     4  10  18  33  56  80 110 145 184 229 273 335
#     4   9  17  30  53  80 109 144 180 223 277 331
#     4  12  25  37  52  78 115 152 191 235 283 336
#
# _framework density 21.559097000000001
#
# number of rings (size 3 to 8) (size 9 to 14) (size 15 to 20)
#    0.000    2.000    2.000    2.400    0.000    4.000 
#    0.000    4.000    0.000    0.600    0.000    1.400 
#    0.000    0.000    0.000    0.000    0.000    0.000 
#
# Total GULP energy -223212.532214 kJ/mol
# GULP energy per Si atom -5580.313305 kJ/mol
# Density = 2.151003 g / cm^3
# Si number density = 21.559097 Si / 1000 Ang^3
#
#
#
# Elastic Constant Matrix: (Units=GPa)
#
#
# Indices 1 2 3 4 5 6 
#
# 1 26.9091 21.7746 10.7357 -0.0004 0.0071 0.0094
# 2 21.7746 200.6703 65.2450 -0.0006 0.0054 0.0106
# 3 10.7357 65.2450 94.2455 -0.0036 -0.0331 -0.0455
# 4 -0.0004 -0.0006 -0.0036 33.0964 -0.0111 -0.0126
# 5 0.0071 0.0054 -0.0331 -0.0111 -20.4485 0.1656
# 6 0.0094 0.0106 -0.0455 -0.0126 0.1656 49.6802
#
#
#
# Elastic Compliance Matrix: (Units=1/GPa)
#
#
# Indices 1 2 3 4 5 6 
#
# 1 0.041045 -0.003786 -0.002055 0.000000 0.000016 -0.000009
# 2 -0.003786 0.006780 -0.004262 0.000000 0.000007 -0.000005
# 3 -0.002055 -0.004262 0.013795 0.000001 -0.000024 0.000014
# 4 0.000000 0.000000 0.000001 0.030215 -0.000016 0.000008
# 5 0.000016 0.000007 -0.000024 -0.000016 -0.048902 0.000163
# 6 -0.000009 -0.000005 0.000014 0.000008 0.000163 0.020128
#
#
# Mechanical properties :
#
#
# Convention : Reuss Voigt Hill
#
# Bulk Modulus (GPa) = 24.14586 57.48171 40.81378
# Shear Modulus (GPa) = 51.50784 27.40360 39.45572
#
# Velocity S-wave (km/s) = 4.89319 3.56911 4.28263
# Velocity P-wave (km/s) = 6.56876 6.61097 6.58990
#
# Compressibility (1/GPa) = 0.04141498
#
# Stress axis : x y z
#
# Youngs Moduli (GPa) = 24.36329 147.49366 72.48751
#
# Poissons Ratio (x) = 0.55837 0.14894
# Poissons Ratio (y) = 0.09223 0.30897
# Poissons Ratio (z) = 0.05006 0.62868
#
# Static dielectric constant tensor:
#      x y z
#    x 1.829670 0.000000 0.000000 
#    y 0.000000 1.749180 0.000010 
#    z 0.000000 0.000010 2.092550 
# 
# From -- ./inp_files/10971.got.cif
#   From: 2010.05.17/outbox.cif.g08.bks.cpg/sg74_6_cif.got.tgz:10971.got - 2010.06.03 17:57:02.
