data_PCOD9535749
_publ_section_title
;
Structure prediction by ZEFSAII (Michael W. Deem and Ramdas Pophale) SiO2 
 PCOD9535749
Probable space group: I M M A
;
_chemical_formula_sum "Si O2"
_cell_formula_units_Z 96
_cell_length_a 14.474877
_cell_length_b 29.799542
_cell_length_c 10.272958
_cell_angle_alpha 90.000000
_cell_angle_beta 90.000000
_cell_angle_gamma 90.000000
_cell_volume 4431.186039
_symmetry_space_group_name_H-M "I M M A"
_symmetry_group_IT_number 74
_symmetry_cell_setting 'orthorhombic'
loop_
_space_group_symop_operation_xyz
x,y,z
-x,1/2-y,z
x,-y,-z
-x,1/2+y,-z
-x,-y,-z
x,1/2+y,-z
-x,y,z
x,1/2-y,z
1/2+x,1/2+y,1/2+z
1/2-x,-y,1/2+z
1/2+x,1/2-y,1/2-z
1/2-x,y,1/2-z
1/2-x,1/2-y,1/2-z
1/2+x,y,1/2-z
1/2-x,1/2+y,1/2+z
1/2+x,-y,1/2+z
loop_
_atom_site_type_symbol
_atom_site_label
_atom_site_fract_x
_atom_site_fract_y
_atom_site_fract_z
Si Si1 0.886478 0.377745 0.204152
Si Si2 0.387943 0.965648 0.115838
Si Si3 0.112974 0.021263 0.135435
Si Si4 0.141945 0.199452 0.722146
Si Si5 0.110529 0.627093 0.497118
Si Si6 0.606492 0.199182 0.487842
O O1 0.857112 0.427543 0.159871
O O2 0.857654 0.369431 0.353601
O O3 0.000000 0.377920 0.200067
O O4 0.853310 0.338481 0.107160
O O5 0.500000 0.961915 0.126040
O O6 0.351194 0.917013 0.075616
O O7 0.357254 0.988440 0.248869
O O8 0.369023 0.000000 0.000000
O O9 0.000000 0.022252 0.135689
O O10 0.143262 0.000000 0.000000
O O11 0.107151 0.250000 0.700315
O O12 0.250000 0.201369 0.750000
O O13 0.125477 0.168947 0.597578
O O14 0.104683 0.183251 0.862012
O O15 0.000000 0.620930 0.507870
O O16 0.500000 0.203965 0.447610
O O17 0.647932 0.250000 0.484181
#
# Coordination Sequence:
#
# PCOD9535749 Si02
#       6
#    16  16  16  16  16  16
#     4   9  17  29  46  76 112 138 167 209 259 311
#     4   9  15  26  43  71 109 137 162 203 254 302
#     4   9  16  24  38  67 107 142 167 199 243 298
#     4  10  22  39  55  74 101 136 179 222 266 318
#     4  10  19  31  53  82 107 137 174 216 266 314
#     4   9  18  33  53  77 105 134 165 210 264 311
#
# _framework density 21.664629999999999
#
# number of rings (size 3 to 8) (size 9 to 14) (size 15 to 20)
#    0.000    2.667    1.667    0.500    2.333    1.667 
#    0.000    2.500    0.000    3.000    4.333    0.000 
#    0.000    0.000    0.000    0.000    0.000    0.000 
#
# Total GULP energy -267965.189003 kJ/mol
# GULP energy per Si atom -5582.608104 kJ/mol
# Density = 2.161532 g / cm^3
# Si number density = 21.664630 Si / 1000 Ang^3
#
#
#
# Elastic Constant Matrix: (Units=GPa)
#
#
# Indices 1 2 3 4 5 6 
#
# 1 48.0534 0.2168 -6.0122 -0.0001 0.0002 0.0000
# 2 0.2168 157.0203 137.0976 0.0002 0.0003 -0.0001
# 3 -6.0122 137.0976 233.6785 0.0006 0.0031 -0.0001
# 4 -0.0001 0.0002 0.0006 19.0268 0.0009 -0.0001
# 5 0.0002 0.0003 0.0031 0.0009 -35.1880 0.0000
# 6 0.0000 -0.0001 -0.0001 -0.0001 0.0000 6.5683
#
#
#
# Elastic Compliance Matrix: (Units=1/GPa)
#
#
# Indices 1 2 3 4 5 6 
#
# 1 0.020957 -0.001025 0.001140 0.000000 0.000000 0.000000
# 2 -0.001025 0.013107 -0.007716 0.000000 -0.000001 0.000000
# 3 0.001140 -0.007716 0.008836 0.000000 0.000001 0.000000
# 4 0.000000 0.000000 0.000000 0.052558 0.000001 0.000001
# 5 0.000000 -0.000001 0.000001 0.000001 -0.028419 0.000000
# 6 0.000000 0.000000 0.000000 0.000001 0.000000 0.152246
#
#
# Mechanical properties :
#
#
# Convention : Reuss Voigt Hill
#
# Bulk Modulus (GPa) = 36.10177 77.92850 57.01513
# Shear Modulus (GPa) = 20.51538 18.57807 19.54672
#
# Velocity S-wave (km/s) = 3.08060 2.93154 3.00699
# Velocity P-wave (km/s) = 5.41789 6.89253 6.19922
#
# Compressibility (1/GPa) = 0.02769947
#
# Stress axis : x y z
#
# Youngs Moduli (GPa) = 47.71565 76.29337 113.17545
#
# Poissons Ratio (x) = 0.07817 -0.12905
# Poissons Ratio (y) = 0.04889 0.87330
# Poissons Ratio (z) = -0.05441 0.58870
#
# Static dielectric constant tensor:
#      x y z
#    x 1.509760 0.000000 0.000000 
#    y 0.000000 1.786440 0.000000 
#    z 0.000000 0.000000 1.761060 
# 
# From -- ./inp_files/12613.got.cif
#   From: 2010.05.17/outbox.cif.g08.bks.cpg/sg74_7_cif.got.tgz:12613.got - 2010.06.03 17:57:02.
