data_PCOD9535061
_publ_section_title
;
Structure prediction by ZEFSAII (Michael W. Deem and Ramdas Pophale) SiO2 
 PCOD9535061
Probable space group: I M M A
;
_chemical_formula_sum "Si O2"
_cell_formula_units_Z 80
_cell_length_a 23.071913
_cell_length_b 32.252705
_cell_length_c 6.062082
_cell_angle_alpha 90.000000
_cell_angle_beta 90.000000
_cell_angle_gamma 90.000000
_cell_volume 4510.986801
_symmetry_space_group_name_H-M "I M M A"
_symmetry_group_IT_number 74
_symmetry_cell_setting 'orthorhombic'
loop_
_space_group_symop_operation_xyz
x,y,z
-x,1/2-y,z
x,-y,-z
-x,1/2+y,-z
-x,-y,-z
x,1/2+y,-z
-x,y,z
x,1/2-y,z
1/2+x,1/2+y,1/2+z
1/2-x,-y,1/2+z
1/2+x,1/2-y,1/2-z
1/2-x,y,1/2-z
1/2-x,1/2-y,1/2-z
1/2+x,y,1/2-z
1/2-x,1/2+y,1/2+z
1/2+x,-y,1/2+z
loop_
_atom_site_type_symbol
_atom_site_label
_atom_site_fract_x
_atom_site_fract_y
_atom_site_fract_z
Si Si1 0.934492 0.201563 0.651293
Si Si2 0.433975 0.372816 0.178805
Si Si3 0.750000 0.643859 0.750000
Si Si4 0.848606 0.849276 0.055296
Si Si5 0.832570 0.589396 0.438830
Si Si6 0.220287 0.000000 0.500000
O O1 0.928142 0.250000 0.602366
O O2 0.932748 0.172419 0.436799
O O3 0.882437 0.184969 0.802795
O O4 0.000000 0.195614 0.748916
O O5 0.500000 0.385286 0.211534
O O6 0.397691 0.368839 0.400129
O O7 0.398385 0.402790 0.016848
O O8 0.705337 0.667270 0.588829
O O9 0.791688 0.614992 0.604853
O O10 0.825775 0.886924 0.207130
O O11 0.815140 0.541896 0.452093
O O12 0.250000 0.993134 0.750000
#
# Coordination Sequence:
#
# PCOD9535061 Si02
#       6
#    16  16   8  16  16   8
#     4   9  18  33  53  79 108 141 187 239 286 337
#     4   9  19  35  55  80 110 148 189 233 285 346
#     4  10  18  34  51  78 108 146 184 232 281 342
#     4  10  19  32  55  78 110 147 187 231 290 344
#     4  10  21  36  57  82 113 146 189 236 288 341
#     4  12  24  38  63  92 125 150 198 252 302 346
#
# _framework density 17.734477999999999
#
# number of rings (size 3 to 8) (size 9 to 14) (size 15 to 20)
#    0.000    2.200    1.000    2.400    2.800    1.600 
#    0.000    3.000    0.000   16.800    0.000    0.000 
#    0.000    0.000    0.000    0.000    0.000    0.000 
#
# Total GULP energy -222675.275331 kJ/mol
# GULP energy per Si atom -5566.881883 kJ/mol
# Density = 1.769411 g / cm^3
# Si number density = 17.734478 Si / 1000 Ang^3
#
#
#
# Elastic Constant Matrix: (Units=GPa)
#
#
# Indices 1 2 3 4 5 6 
#
# 1 113.0747 34.0935 46.0376 0.0000 0.0000 0.0000
# 2 34.0935 100.4168 28.0781 0.0000 0.0000 0.0000
# 3 46.0376 28.0781 84.5969 0.0000 0.0000 0.0000
# 4 0.0000 0.0000 0.0000 -0.1444 0.0000 0.0000
# 5 0.0000 0.0000 0.0000 0.0000 34.7984 0.0000
# 6 0.0000 0.0000 0.0000 0.0000 0.0000 3.6238
#
#
#
# Elastic Compliance Matrix: (Units=1/GPa)
#
#
# Indices 1 2 3 4 5 6 
#
# 1 0.011886 -0.002455 -0.005653 0.000000 0.000000 0.000000
# 2 -0.002455 0.011484 -0.002476 0.000000 0.000000 0.000000
# 3 -0.005653 -0.002476 0.015719 0.000000 0.000000 0.000000
# 4 0.000000 0.000000 0.000000 -6.925603 0.000000 0.000000
# 5 0.000000 0.000000 0.000000 0.000000 0.028737 0.000000
# 6 0.000000 0.000000 0.000000 0.000000 0.000000 0.275953
#
#
# Mechanical properties :
#
#
# Convention : Reuss Voigt Hill
#
# Bulk Modulus (GPa) = 55.80022 57.16741 56.48381
# Shear Modulus (GPa) = -0.76281 20.31418 9.77568
#
# Velocity S-wave (km/s) = -0.65655 3.38814 2.35036
# Velocity P-wave (km/s) = 5.56397 6.90008 6.26773
#
# Compressibility (1/GPa) = 0.01792108
#
# Stress axis : x y z
#
# Youngs Moduli (GPa) = 84.13570 87.07641 63.61684
#
# Poissons Ratio (x) = 0.21374 0.35965
# Poissons Ratio (y) = 0.20652 0.15751
# Poissons Ratio (z) = 0.47566 0.21559
#
# Static dielectric constant tensor:
#      x y z
#    x 1.638310 0.000000 0.000000 
#    y 0.000000 1.553090 0.000000 
#    z 0.000000 0.000000 1.675610 
# 
# From -- ./inp_files/3872.got.cif
#   From: 2010.05.17/outbox.cif.g08.bks.cpg/sg74_2_cif.got.tgz:3872.got - 2010.06.03 17:57:02.
