data_PCOD9535764
_publ_section_title
;
Structure prediction by ZEFSAII (Michael W. Deem and Ramdas Pophale) SiO2 
 PCOD9535764
Probable space group: I M M A
;
_chemical_formula_sum "Si O2"
_cell_formula_units_Z 64
_cell_length_a 15.196528
_cell_length_b 22.037279
_cell_length_c 11.016340
_cell_angle_alpha 90.000000
_cell_angle_beta 90.000000
_cell_angle_gamma 90.000000
_cell_volume 3689.263506
_symmetry_space_group_name_H-M "I M M A"
_symmetry_group_IT_number 74
_symmetry_cell_setting 'orthorhombic'
loop_
_space_group_symop_operation_xyz
x,y,z
-x,1/2-y,z
x,-y,-z
-x,1/2+y,-z
-x,-y,-z
x,1/2+y,-z
-x,y,z
x,1/2-y,z
1/2+x,1/2+y,1/2+z
1/2-x,-y,1/2+z
1/2+x,1/2-y,1/2-z
1/2-x,y,1/2-z
1/2-x,1/2-y,1/2-z
1/2+x,y,1/2-z
1/2-x,1/2+y,1/2+z
1/2+x,-y,1/2+z
loop_
_atom_site_type_symbol
_atom_site_label
_atom_site_fract_x
_atom_site_fract_y
_atom_site_fract_z
Si Si1 0.500000 0.180564 0.677475
Si Si2 0.676212 0.819728 0.160838
Si Si3 0.849010 0.002073 0.702680
Si Si4 0.895101 0.593488 0.517219
Si Si5 0.500000 0.043600 0.615610
O O1 0.500000 0.250000 0.622969
O O2 0.585453 0.177121 0.763846
O O3 0.500000 0.117458 0.600246
O O4 0.701139 0.750000 0.141987
O O5 0.750000 0.847989 0.250000
O O6 0.659213 0.849155 0.030246
O O7 0.750000 0.004388 0.750000
O O8 0.869740 0.046434 0.589996
O O9 0.915133 0.024089 0.806209
O O10 0.870018 0.936086 0.645436
O O11 0.000000 0.603541 0.514185
O O12 0.500000 0.000000 0.500000
#
# Coordination Sequence:
#
# PCOD9535764 Si02
#       5
#     8  16  16  16   8
#     4  10  20  35  53  78 112 143 181 238 286 332
#     4  10  19  31  55  86 112 142 187 236 284 334
#     4  11  22  35  52  83 110 145 183 227 293 340
#     4  11  19  36  59  75 115 145 184 243 274 342
#     4  12  24  36  54  83 117 146 190 235 287 358
#
# _framework density 17.347636000000001
#
# number of rings (size 3 to 8) (size 9 to 14) (size 15 to 20)
#    0.000    1.250    6.250    1.500    3.500    0.000 
#    0.000    0.000    0.000    2.250    0.000    0.000 
#    0.000    0.000    0.000    0.000    0.000    0.000 
#
# Total GULP energy -178263.472838 kJ/mol
# GULP energy per Si atom -5570.733526 kJ/mol
# Density = 1.730815 g / cm^3
# Si number density = 17.347636 Si / 1000 Ang^3
#
#
#
# Elastic Constant Matrix: (Units=GPa)
#
#
# Indices 1 2 3 4 5 6 
#
# 1 121.8634 15.5465 22.5772 0.0000 0.0000 0.0000
# 2 15.5465 116.2959 44.1278 0.0000 0.0000 0.0000
# 3 22.5772 44.1278 53.3198 0.0000 0.0000 0.0000
# 4 0.0000 0.0000 0.0000 30.3275 0.0000 0.0000
# 5 0.0000 0.0000 0.0000 0.0000 3.8606 0.0000
# 6 0.0000 0.0000 0.0000 0.0000 0.0000 19.5969
#
#
#
# Elastic Compliance Matrix: (Units=1/GPa)
#
#
# Indices 1 2 3 4 5 6 
#
# 1 0.008914 0.000351 -0.004065 0.000000 0.000000 0.000000
# 2 0.000351 0.012549 -0.010534 0.000000 0.000000 0.000000
# 3 -0.004065 -0.010534 0.029194 0.000000 0.000000 0.000000
# 4 0.000000 0.000000 0.000000 0.032973 0.000000 0.000000
# 5 0.000000 0.000000 0.000000 0.000000 0.259029 0.000000
# 6 0.000000 0.000000 0.000000 0.000000 0.000000 0.051029
#
#
# Mechanical properties :
#
#
# Convention : Reuss Voigt Hill
#
# Bulk Modulus (GPa) = 45.12470 50.66466 47.89468
# Shear Modulus (GPa) = 11.63951 24.70550 18.17251
#
# Velocity S-wave (km/s) = 2.59309 3.77787 3.24010
# Velocity P-wave (km/s) = 5.91895 6.94973 6.45495
#
# Compressibility (1/GPa) = 0.02216081
#
# Stress axis : x y z
#
# Youngs Moduli (GPa) = 112.18006 79.68781 34.25365
#
# Poissons Ratio (x) = -0.02795 0.13923
# Poissons Ratio (y) = -0.03934 0.36083
# Poissons Ratio (z) = 0.45599 0.83944
#
# Static dielectric constant tensor:
#      x y z
#    x 1.549280 0.000000 0.000000 
#    y 0.000000 1.721360 0.000000 
#    z 0.000000 0.000000 1.573050 
# 
# From -- ./inp_files/8876.got.cif
#   From: 2010.05.17/outbox.cif.g08.bks.cpg/sg74_5_cif.got.tgz:8876.got - 2010.06.03 17:57:02.
