data_PCOD9535059
_publ_section_title
;
Structure prediction by ZEFSAII (Michael W. Deem and Ramdas Pophale) SiO2 
 PCOD9535059
Probable space group: I M M A
;
_chemical_formula_sum "Si O2"
_cell_formula_units_Z 80
_cell_length_a 10.627156
_cell_length_b 23.422437
_cell_length_c 16.667573
_cell_angle_alpha 90.000000
_cell_angle_beta 90.000000
_cell_angle_gamma 90.000000
_cell_volume 4148.790464
_symmetry_space_group_name_H-M "I M M A"
_symmetry_group_IT_number 74
_symmetry_cell_setting 'orthorhombic'
loop_
_space_group_symop_operation_xyz
x,y,z
-x,1/2-y,z
x,-y,-z
-x,1/2+y,-z
-x,-y,-z
x,1/2+y,-z
-x,y,z
x,1/2-y,z
1/2+x,1/2+y,1/2+z
1/2-x,-y,1/2+z
1/2+x,1/2-y,1/2-z
1/2-x,y,1/2-z
1/2-x,1/2-y,1/2-z
1/2+x,y,1/2-z
1/2-x,1/2+y,1/2+z
1/2+x,-y,1/2+z
loop_
_atom_site_type_symbol
_atom_site_label
_atom_site_fract_x
_atom_site_fract_y
_atom_site_fract_z
Si Si1 0.142747 0.250000 0.593285
Si Si2 0.643840 0.982634 0.684780
Si Si3 0.851235 0.250000 0.045088
Si Si4 0.720277 0.448752 0.946929
Si Si5 0.353764 0.375951 0.419554
Si Si6 0.136635 0.368246 0.689039
O O1 0.254717 0.250000 0.529092
O O2 0.152094 0.306577 0.647427
O O3 0.000000 0.250000 0.557631
O O4 0.500000 0.990505 0.712351
O O5 0.750000 0.995765 0.750000
O O6 0.662871 0.917231 0.656256
O O7 0.670372 0.020380 0.605325
O O8 0.000000 0.250000 0.020603
O O9 0.828843 0.190919 0.092062
O O10 0.640616 0.415431 0.880941
O O11 0.661658 0.500000 0.000000
O O12 0.771887 0.401857 0.008578
O O13 0.500000 0.381897 0.443167
O O14 0.250000 0.376917 0.750000
O O15 0.000000 0.370084 0.729862
#
# Coordination Sequence:
#
# PCOD9535059 Si02
#       6
#     8  16   8  16  16  16
#     4  10  21  39  57  81 115 147 179 223 277 328
#     4  10  21  37  56  80 113 148 184 227 275 329
#     4  10  18  33  62  89 106 135 184 233 274 326
#     4  10  20  35  57  83 111 144 186 231 278 322
#     4   9  18  34  57  85 111 140 181 229 278 327
#     4  11  24  39  57  82 116 151 185 226 273 329
#
# _framework density 19.282729
#
# number of rings (size 3 to 8) (size 9 to 14) (size 15 to 20)
#    0.000    2.000    2.000    1.500    0.000    7.600 
#    0.000    4.500    0.000    0.000    0.000    0.000 
#    0.000    0.000    0.000    0.000    0.000    0.000 
#
# Total GULP energy -223109.557351 kJ/mol
# GULP energy per Si atom -5577.738934 kJ/mol
# Density = 1.923884 g / cm^3
# Si number density = 19.282729 Si / 1000 Ang^3
#
#
#
# Elastic Constant Matrix: (Units=GPa)
#
#
# Indices 1 2 3 4 5 6 
#
# 1 99.8818 27.5443 31.7461 0.0000 0.0000 0.0000
# 2 27.5443 147.2707 23.2592 0.0000 0.0000 0.0000
# 3 31.7461 23.2592 41.7319 0.0000 0.0000 0.0000
# 4 0.0000 0.0000 0.0000 24.6579 0.0000 0.0000
# 5 0.0000 0.0000 0.0000 0.0000 22.2261 0.0000
# 6 0.0000 0.0000 0.0000 0.0000 0.0000 -76.6486
#
#
#
# Elastic Compliance Matrix: (Units=1/GPa)
#
#
# Indices 1 2 3 4 5 6 
#
# 1 0.013332 -0.000978 -0.009597 0.000000 0.000000 0.000000
# 2 -0.000978 0.007517 -0.003446 0.000000 0.000000 0.000000
# 3 -0.009597 -0.003446 0.033183 0.000000 0.000000 0.000000
# 4 0.000000 0.000000 0.000000 0.040555 0.000000 0.000000
# 5 0.000000 0.000000 0.000000 0.000000 0.044992 0.000000
# 6 0.000000 0.000000 0.000000 0.000000 0.000000 -0.013047
#
#
# Mechanical properties :
#
#
# Convention : Reuss Voigt Hill
#
# Bulk Modulus (GPa) = 38.47393 50.44263 44.45828
# Shear Modulus (GPa) = 30.63024 7.80273 19.21648
#
# Velocity S-wave (km/s) = 3.98990 2.01377 3.16027
# Velocity P-wave (km/s) = 6.42040 5.62346 6.03510
#
# Compressibility (1/GPa) = 0.02599163
#
# Stress axis : x y z
#
# Youngs Moduli (GPa) = 75.00967 133.02593 30.13562
#
# Poissons Ratio (x) = 0.13007 0.28920
# Poissons Ratio (y) = 0.07334 0.10385
# Poissons Ratio (z) = 0.71984 0.45840
#
# Static dielectric constant tensor:
#      x y z
#    x 1.674380 0.000000 0.000000 
#    y 0.000000 1.710150 0.000000 
#    z 0.000000 0.000000 1.647640 
# 
# From -- ./inp_files/30748.got.cif
#   From: 2010.05.17/outbox.cif.g08.bks.cpg/sg74_16_cif.got.tgz:30748.got - 2010.06.03 17:57:02.
