data_PCOD9535656
_publ_section_title
;
Structure prediction by ZEFSAII (Michael W. Deem and Ramdas Pophale) SiO2 
 PCOD9535656
Probable space group: I M M A
;
_chemical_formula_sum "Si O2"
_cell_formula_units_Z 112
_cell_length_a 21.842682
_cell_length_b 22.150218
_cell_length_c 12.842813
_cell_angle_alpha 90.000000
_cell_angle_beta 90.000000
_cell_angle_gamma 90.000000
_cell_volume 6213.611943
_symmetry_space_group_name_H-M "I M M A"
_symmetry_group_IT_number 74
_symmetry_cell_setting 'orthorhombic'
loop_
_space_group_symop_operation_xyz
x,y,z
-x,1/2-y,z
x,-y,-z
-x,1/2+y,-z
-x,-y,-z
x,1/2+y,-z
-x,y,z
x,1/2-y,z
1/2+x,1/2+y,1/2+z
1/2-x,-y,1/2+z
1/2+x,1/2-y,1/2-z
1/2-x,y,1/2-z
1/2-x,1/2-y,1/2-z
1/2+x,y,1/2-z
1/2-x,1/2+y,1/2+z
1/2+x,-y,1/2+z
loop_
_atom_site_type_symbol
_atom_site_label
_atom_site_fract_x
_atom_site_fract_y
_atom_site_fract_z
Si Si1 0.314625 0.318692 0.811527
Si Si2 0.428358 0.979411 0.700677
Si Si3 0.691184 0.563521 0.812936
Si Si4 0.247581 0.613540 0.494321
Si Si5 0.930191 0.640641 0.934993
Si Si6 0.132834 0.398496 0.866198
Si Si7 0.679985 0.318049 0.322481
O O1 0.337673 0.250000 0.821907
O O2 0.250000 0.315294 0.750000
O O3 0.298028 0.349007 0.921294
O O4 0.355521 0.361890 0.739629
O O5 0.500000 0.979880 0.735302
O O6 0.374179 0.965466 0.784385
O O7 0.423584 0.927292 0.612510
O O8 0.407979 0.042885 0.652887
O O9 0.750000 0.536348 0.750000
O O10 0.686228 0.632203 0.767892
O O11 0.710980 0.567131 0.932680
O O12 0.301386 0.586792 0.420750
O O13 0.282329 0.656877 0.577615
O O14 0.889837 0.680183 0.858987
O O15 0.000000 0.657578 0.935498
O O16 0.902135 0.641938 0.049492
O O17 0.695370 0.250000 0.296020
#
# Coordination Sequence:
#
# PCOD9535656 Si02
#       7
#    16  16  16  16  16  16  16
#     4   9  18  32  49  72 102 134 170 211 254 302
#     4  10  20  36  56  77 105 138 173 214 261 316
#     4   9  19  33  51  79 108 133 168 215 261 307
#     4   9  18  32  50  72 101 136 169 206 256 309
#     4   9  18  31  48  71  99 132 166 204 255 310
#     4  10  19  31  50  75 100 133 173 211 254 305
#     4   9  17  29  47  74 104 130 162 207 258 310
#
# _framework density 18.024944000000001
#
# number of rings (size 3 to 8) (size 9 to 14) (size 15 to 20)
#    0.000    2.714    0.000    2.143    0.000    9.714 
#    0.000    5.000    0.000    3.857    0.000    0.000 
#    0.000    0.000    0.000    0.000    0.000    0.000 
#
# Total GULP energy -312005.514036 kJ/mol
# GULP energy per Si atom -5571.527036 kJ/mol
# Density = 1.798392 g / cm^3
# Si number density = 18.024944 Si / 1000 Ang^3
#
#
#
# Elastic Constant Matrix: (Units=GPa)
#
#
# Indices 1 2 3 4 5 6 
#
# 1 110.6300 24.5329 38.6728 0.0000 0.0000 0.0000
# 2 24.5329 44.4108 10.2781 0.0000 0.0000 0.0000
# 3 38.6728 10.2781 78.4792 0.0000 0.0000 0.0000
# 4 0.0000 0.0000 0.0000 3.0873 0.0000 0.0000
# 5 0.0000 0.0000 0.0000 0.0000 16.1903 0.0000
# 6 0.0000 0.0000 0.0000 0.0000 0.0000 0.0846
#
#
#
# Elastic Compliance Matrix: (Units=1/GPa)
#
#
# Indices 1 2 3 4 5 6 
#
# 1 0.012081 -0.005462 -0.005238 0.000000 0.000000 0.000000
# 2 -0.005462 0.025690 -0.000673 0.000000 0.000000 0.000000
# 3 -0.005238 -0.000673 0.015412 0.000000 0.000000 0.000000
# 4 0.000000 0.000000 0.000000 0.323906 0.000000 0.000000
# 5 0.000000 0.000000 0.000000 0.000000 0.061766 0.000000
# 6 0.000000 0.000000 0.000000 0.000000 0.000000 11.813370
#
#
# Mechanical properties :
#
#
# Convention : Reuss Voigt Hill
#
# Bulk Modulus (GPa) = 32.85463 42.27641 37.56552
# Shear Modulus (GPa) = 0.40700 14.54151 7.47425
#
# Velocity S-wave (km/s) = 0.47570 2.84340 2.03853
# Velocity P-wave (km/s) = 4.30913 5.85536 5.14071
#
# Compressibility (1/GPa) = 0.03043711
#
# Stress axis : x y z
#
# Youngs Moduli (GPa) = 82.77198 38.92580 64.88603
#
# Poissons Ratio (x) = 0.21260 0.33988
# Poissons Ratio (y) = 0.45207 0.04368
# Poissons Ratio (z) = 0.43357 0.02620
#
# Static dielectric constant tensor:
#      x y z
#    x 1.636280 0.000000 0.000000 
#    y 0.000000 1.636550 0.000000 
#    z 0.000000 0.000000 1.621630 
# 
# From -- ./inp_files/24168.got.cif
#   From: 2010.05.17/outbox.cif.g08.bks.cpg/sg74_13_cif.got.tgz:24168.got - 2010.06.03 17:57:02.
