data_PCOD9535833
_publ_section_title
;
Structure prediction by ZEFSAII (Michael W. Deem and Ramdas Pophale) SiO2 
 PCOD9535833
Probable space group: I M M A
;
_chemical_formula_sum "Si O2"
_cell_formula_units_Z 72
_cell_length_a 17.054199
_cell_length_b 7.532895
_cell_length_c 23.415668
_cell_angle_alpha 90.000000
_cell_angle_beta 90.000000
_cell_angle_gamma 90.000000
_cell_volume 3008.152103
_symmetry_space_group_name_H-M "I M M A"
_symmetry_group_IT_number 74
_symmetry_cell_setting 'orthorhombic'
loop_
_space_group_symop_operation_xyz
x,y,z
-x,1/2-y,z
x,-y,-z
-x,1/2+y,-z
-x,-y,-z
x,1/2+y,-z
-x,y,z
x,1/2-y,z
1/2+x,1/2+y,1/2+z
1/2-x,-y,1/2+z
1/2+x,1/2-y,1/2-z
1/2-x,y,1/2-z
1/2-x,1/2-y,1/2-z
1/2+x,y,1/2-z
1/2-x,1/2+y,1/2+z
1/2+x,-y,1/2+z
loop_
_atom_site_type_symbol
_atom_site_label
_atom_site_fract_x
_atom_site_fract_y
_atom_site_fract_z
Si Si1 0.000000 0.968089 0.773170
Si Si2 0.000000 0.036604 0.431498
Si Si3 0.500000 0.952417 0.408961
Si Si4 0.168907 0.039360 0.432844
Si Si5 0.161605 0.541910 0.113431
Si Si6 0.833878 0.551010 0.758862
O O1 0.918946 0.024690 0.743231
O O2 0.000000 0.750000 0.774738
O O3 0.000000 0.035275 0.838923
O O4 0.084729 0.971402 0.409486
O O5 0.000000 0.250000 0.424156
O O6 0.000000 0.000000 0.500000
O O7 0.500000 0.750000 0.429791
O O8 0.586671 0.025463 0.423392
O O9 0.170738 0.250000 0.423545
O O10 0.167659 0.000000 0.500000
O O11 0.251280 0.968825 0.410631
O O12 0.146101 0.750000 0.125238
O O13 0.160876 0.439608 0.172843
O O14 0.828733 0.750000 0.733211
O O15 0.750000 0.459776 0.750000
#
# Coordination Sequence:
#
# PCOD9535833 Si02
#       6
#     8   8   8  16  16  16
#     4   8  14  26  45  66  87 117 157 194 230 278
#     4   8  16  30  49  70  93 123 157 191 229 278
#     4   8  16  30  47  66  91 124 160 195 233 280
#     4  10  19  33  52  74  98 125 158 195 236 281
#     4  10  19  32  50  72  97 126 160 198 239 282
#     4   9  17  30  48  69  93 122 157 196 237 281
#
# _framework density 23.934958000000002
#
# number of rings (size 3 to 8) (size 9 to 14) (size 15 to 20)
#    0.000    2.889    0.000    1.333    0.000    2.222 
#    0.000    1.667    0.000    4.000    0.000    0.000 
#    0.000    0.000    0.000    0.000    0.000    0.000 
#
# Total GULP energy -200434.816952 kJ/mol
# GULP energy per Si atom -5567.633804 kJ/mol
# Density = 2.388048 g / cm^3
# Si number density = 23.934958 Si / 1000 Ang^3
#
#
#
# Elastic Constant Matrix: (Units=GPa)
#
#
# Indices 1 2 3 4 5 6 
#
# 1 323.9318 12.8872 19.7930 0.0000 0.0000 0.0000
# 2 12.8872 85.5337 -5.0695 0.0000 0.0000 0.0000
# 3 19.7930 -5.0695 20.3566 0.0000 0.0000 0.0000
# 4 0.0000 0.0000 0.0000 9.6512 0.0000 0.0000
# 5 0.0000 0.0000 0.0000 0.0000 32.7293 0.0000
# 6 0.0000 0.0000 0.0000 0.0000 0.0000 5.2881
#
#
#
# Elastic Compliance Matrix: (Units=1/GPa)
#
#
# Indices 1 2 3 4 5 6 
#
# 1 0.003323 -0.000703 -0.003406 0.000000 0.000000 0.000000
# 2 -0.000703 0.012015 0.003675 0.000000 0.000000 0.000000
# 3 -0.003406 0.003675 0.053351 0.000000 0.000000 0.000000
# 4 0.000000 0.000000 0.000000 0.103614 0.000000 0.000000
# 5 0.000000 0.000000 0.000000 0.000000 0.030554 0.000000
# 6 0.000000 0.000000 0.000000 0.000000 0.000000 0.189102
#
#
# Mechanical properties :
#
#
# Convention : Reuss Voigt Hill
#
# Bulk Modulus (GPa) = 14.74439 53.89373 34.31906
# Shear Modulus (GPa) = 12.03562 36.34782 24.19172
#
# Velocity S-wave (km/s) = 2.24486 3.90116 3.18264
# Velocity P-wave (km/s) = 3.59065 6.54658 5.27970
#
# Compressibility (1/GPa) = 0.06782240
#
# Stress axis : x y z
#
# Youngs Moduli (GPa) = 300.92021 83.22944 18.74374
#
# Poissons Ratio (x) = 0.05847 0.06384
# Poissons Ratio (y) = 0.21142 -0.06889
# Poissons Ratio (z) = 1.02496 -0.30589
#
# Static dielectric constant tensor:
#      x y z
#    x 2.089000 0.000000 0.000000 
#    y 0.000000 2.045000 0.000000 
#    z 0.000000 0.000000 1.879780 
# 
# From -- ./inp_files/63688.got.cif
#   From: 2010.05.17/outbox.cif.g08.bks.cpg/sg74_32_cif.got.tgz:63688.got - 2010.06.03 17:57:02.
