data_PCOD9535892
_publ_section_title
;
Structure prediction by ZEFSAII (Michael W. Deem and Ramdas Pophale) SiO2 
 PCOD9535892
Probable space group: I M M A
;
_chemical_formula_sum "Si O2"
_cell_formula_units_Z 80
_cell_length_a 9.761147
_cell_length_b 28.230573
_cell_length_c 16.733724
_cell_angle_alpha 90.000000
_cell_angle_beta 90.000000
_cell_angle_gamma 90.000000
_cell_volume 4611.191387
_symmetry_space_group_name_H-M "I M M A"
_symmetry_group_IT_number 74
_symmetry_cell_setting 'orthorhombic'
loop_
_space_group_symop_operation_xyz
x,y,z
-x,1/2-y,z
x,-y,-z
-x,1/2+y,-z
-x,-y,-z
x,1/2+y,-z
-x,y,z
x,1/2-y,z
1/2+x,1/2+y,1/2+z
1/2-x,-y,1/2+z
1/2+x,1/2-y,1/2-z
1/2-x,y,1/2-z
1/2-x,1/2-y,1/2-z
1/2+x,y,1/2-z
1/2-x,1/2+y,1/2+z
1/2+x,-y,1/2+z
loop_
_atom_site_type_symbol
_atom_site_label
_atom_site_fract_x
_atom_site_fract_y
_atom_site_fract_z
Si Si1 0.210525 0.693845 0.056558
Si Si2 0.842308 0.534063 0.421976
Si Si3 0.846397 0.601338 0.984527
Si Si4 0.000000 0.307121 0.806516
Si Si5 0.663432 0.960759 0.672928
Si Si6 0.000000 0.693259 0.372726
O O1 0.189910 0.750000 0.040732
O O2 0.366641 0.683414 0.076577
O O3 0.129074 0.681345 0.138020
O O4 0.162131 0.658016 0.988567
O O5 0.848294 0.500000 0.500000
O O6 0.764783 0.580203 0.454542
O O7 0.743831 0.507215 0.359546
O O8 0.000000 0.541554 0.395099
O O9 0.825519 0.578029 0.897970
O O10 0.000000 0.586689 0.010361
O O11 0.000000 0.250000 0.800172
O O12 0.000000 0.327229 0.717217
O O13 0.500000 0.968489 0.687792
O O14 0.750000 0.945193 0.750000
O O15 0.000000 0.750000 0.361384
#
# Coordination Sequence:
#
# PCOD9535892 Si02
#       6
#    16  16  16   8  16   8
#     4  10  19  32  51  76 106 142 183 221 260 309
#     4   9  18  33  55  79 102 132 168 211 264 317
#     4  10  20  34  54  79 107 142 180 218 262 314
#     4   9  16  30  50  68  94 133 175 215 256 304
#     4  10  20  36  57  80 106 136 175 221 269 321
#     4   9  18  30  46  70  98 133 175 221 266 302
#
# _framework density 17.349094999999998
#
# number of rings (size 3 to 8) (size 9 to 14) (size 15 to 20)
#    0.000    2.400    1.000    1.800    1.400    5.600 
#    0.000    2.000    0.000    0.600    0.000    0.000 
#    0.000    0.000    0.000    0.000    0.000    0.000 
#
# Total GULP energy -222744.928306 kJ/mol
# GULP energy per Si atom -5568.623208 kJ/mol
# Density = 1.730961 g / cm^3
# Si number density = 17.349095 Si / 1000 Ang^3
#
#
#
# Elastic Constant Matrix: (Units=GPa)
#
#
# Indices 1 2 3 4 5 6 
#
# 1 147.9806 35.8895 43.1666 0.0000 0.0000 0.0000
# 2 35.8895 80.5612 33.1133 0.0000 0.0000 0.0000
# 3 43.1666 33.1133 54.9102 0.0001 -0.0001 -0.0003
# 4 0.0000 0.0000 0.0001 16.7789 0.0000 -0.0002
# 5 0.0000 0.0000 -0.0001 0.0000 41.6229 0.0001
# 6 0.0000 0.0000 -0.0003 -0.0002 0.0001 -25.7478
#
#
#
# Elastic Compliance Matrix: (Units=1/GPa)
#
#
# Indices 1 2 3 4 5 6 
#
# 1 0.008893 -0.001447 -0.006119 0.000000 0.000000 0.000000
# 2 -0.001447 0.016739 -0.008957 0.000000 0.000000 0.000000
# 3 -0.006119 -0.008957 0.028423 0.000000 0.000000 0.000000
# 4 0.000000 0.000000 0.000000 0.059599 0.000000 0.000000
# 5 0.000000 0.000000 0.000000 0.000000 0.024025 0.000000
# 6 0.000000 0.000000 0.000000 0.000000 0.000000 -0.038838
#
#
# Mechanical properties :
#
#
# Convention : Reuss Voigt Hill
#
# Bulk Modulus (GPa) = 47.59569 56.42119 52.00844
# Shear Modulus (GPa) = 35.99963 17.94964 26.97463
#
# Velocity S-wave (km/s) = 4.56017 3.22003 3.94739
# Velocity P-wave (km/s) = 7.43106 6.81297 7.12871
#
# Compressibility (1/GPa) = 0.02101031
#
# Stress axis : x y z
#
# Youngs Moduli (GPa) = 112.44219 59.74032 35.18257
#
# Poissons Ratio (x) = 0.08644 0.21528
# Poissons Ratio (y) = 0.16270 0.31513
# Poissons Ratio (z) = 0.68802 0.53509
#
# Static dielectric constant tensor:
#      x y z
#    x 1.633860 0.000000 0.000000 
#    y 0.000000 1.611140 0.000000 
#    z 0.000000 0.000000 1.581190 
# 
# From -- ./inp_files/40008.got.cif
#   From: 2010.05.17/outbox.cif.g08.bks.cpg/sg74_21_cif.got.tgz:40008.got - 2010.06.03 17:57:02.
