data_PCOD9535682
_publ_section_title
;
Structure prediction by ZEFSAII (Michael W. Deem and Ramdas Pophale) SiO2 
 PCOD9535682
Probable space group: I M M A
;
_chemical_formula_sum "Si O2"
_cell_formula_units_Z 64
_cell_length_a 10.327034
_cell_length_b 9.046543
_cell_length_c 39.347396
_cell_angle_alpha 90.000000
_cell_angle_beta 90.000000
_cell_angle_gamma 90.000000
_cell_volume 3675.989438
_symmetry_space_group_name_H-M "I M M A"
_symmetry_group_IT_number 74
_symmetry_cell_setting 'orthorhombic'
loop_
_space_group_symop_operation_xyz
x,y,z
-x,1/2-y,z
x,-y,-z
-x,1/2+y,-z
-x,-y,-z
x,1/2+y,-z
-x,y,z
x,1/2-y,z
1/2+x,1/2+y,1/2+z
1/2-x,-y,1/2+z
1/2+x,1/2-y,1/2-z
1/2-x,y,1/2-z
1/2-x,1/2-y,1/2-z
1/2+x,y,1/2-z
1/2-x,1/2+y,1/2+z
1/2+x,-y,1/2+z
loop_
_atom_site_type_symbol
_atom_site_label
_atom_site_fract_x
_atom_site_fract_y
_atom_site_fract_z
Si Si1 0.000000 0.423711 0.280619
Si Si2 0.500000 0.926266 0.292014
Si Si3 0.657677 0.079402 0.034587
Si Si4 0.344099 0.924729 0.104884
Si Si5 0.747180 0.074065 0.327029
O O1 0.873358 0.450282 0.303441
O O2 0.000000 0.250000 0.270516
O O3 0.000000 0.521920 0.247101
O O4 0.500000 0.750000 0.294365
O O5 0.625927 0.993934 0.310078
O O6 0.500000 0.078543 0.033982
O O7 0.698871 0.250000 0.035703
O O8 0.695663 0.992759 0.068626
O O9 0.701117 0.000000 0.000000
O O10 0.500000 0.944494 0.108123
O O11 0.317545 0.750000 0.106016
O O12 0.277468 0.008223 0.136001
O O13 0.725122 0.250000 0.329045
#
# Coordination Sequence:
#
# PCOD9535682 Si02
#       5
#     8   8  16  16  16
#     4  10  22  40  62  84 107 140 183 228 276 332
#     4  12  26  40  56  82 113 144 181 228 280 330
#     4   9  16  26  42  67 102 141 180 221 269 321
#     4  10  19  31  50  77 109 142 179 224 274 326
#     4  11  22  39  60  82 109 145 186 227 274 329
#
# _framework density 17.410277000000001
#
# number of rings (size 3 to 8) (size 9 to 14) (size 15 to 20)
#    0.000    1.750    1.250    4.125    0.000    9.000 
#    0.000    0.000    0.000    0.000    0.000    0.875 
#    0.000    0.000    0.000    0.000    0.000    0.000 
#
# Total GULP energy -178737.738206 kJ/mol
# GULP energy per Si atom -5585.554319 kJ/mol
# Density = 1.737065 g / cm^3
# Si number density = 17.410277 Si / 1000 Ang^3
#
#
#
# Elastic Constant Matrix: (Units=GPa)
#
#
# Indices 1 2 3 4 5 6 
#
# 1 80.9853 72.3097 55.1046 0.0000 0.0000 0.0000
# 2 72.3097 158.1077 118.9070 0.0000 0.0000 0.0000
# 3 55.1046 118.9070 185.2472 0.0000 0.0000 0.0000
# 4 0.0000 0.0000 0.0000 40.9468 0.0000 0.0000
# 5 0.0000 0.0000 0.0000 0.0000 -1.2161 0.0000
# 6 0.0000 0.0000 0.0000 0.0000 0.0000 21.7560
#
#
#
# Elastic Compliance Matrix: (Units=1/GPa)
#
#
# Indices 1 2 3 4 5 6 
#
# 1 0.020873 -0.009428 -0.000158 0.000000 0.000000 0.000000
# 2 -0.009428 0.016486 -0.007777 0.000000 0.000000 0.000000
# 3 -0.000158 -0.007777 0.010437 0.000000 0.000000 0.000000
# 4 0.000000 0.000000 0.000000 0.024422 0.000000 0.000000
# 5 0.000000 0.000000 0.000000 0.000000 -0.822303 0.000000
# 6 0.000000 0.000000 0.000000 0.000000 0.000000 0.045964
#
#
# Mechanical properties :
#
#
# Convention : Reuss Voigt Hill
#
# Bulk Modulus (GPa) = 76.50805 101.88697 89.19751
# Shear Modulus (GPa) = -7.51835 24.16527 8.32346
#
# Velocity S-wave (km/s) = -2.08032 3.72961 2.18887
# Velocity P-wave (km/s) = 6.18622 8.78606 7.59816
#
# Compressibility (1/GPa) = 0.01307052
#
# Stress axis : x y z
#
# Youngs Moduli (GPa) = 47.90941 60.65914 95.81065
#
# Poissons Ratio (x) = 0.57187 0.01509
# Poissons Ratio (y) = 0.45167 0.74516
# Poissons Ratio (z) = 0.00755 0.47177
#
# Static dielectric constant tensor:
#      x y z
#    x 1.567920 0.000000 0.000000 
#    y 0.000000 1.578580 0.000000 
#    z 0.000000 0.000000 1.568920 
# 
# From -- ./inp_files/71308.got.cif
#   From: 2010.05.17/outbox.cif.g08.bks.cpg/sg74_36_cif.got.tgz:71308.got - 2010.06.03 17:57:02.
