data_PCOD9535003
_publ_section_title
;
Structure prediction by ZEFSAII (Michael W. Deem and Ramdas Pophale) SiO2 
 PCOD9535003
Probable space group: I M M A
;
_chemical_formula_sum "Si O2"
_cell_formula_units_Z 88
_cell_length_a 14.235922
_cell_length_b 18.895376
_cell_length_c 18.503080
_cell_angle_alpha 90.000000
_cell_angle_beta 90.000000
_cell_angle_gamma 90.000000
_cell_volume 4977.200828
_symmetry_space_group_name_H-M "I M M A"
_symmetry_group_IT_number 74
_symmetry_cell_setting 'orthorhombic'
loop_
_space_group_symop_operation_xyz
x,y,z
-x,1/2-y,z
x,-y,-z
-x,1/2+y,-z
-x,-y,-z
x,1/2+y,-z
-x,y,z
x,1/2-y,z
1/2+x,1/2+y,1/2+z
1/2-x,-y,1/2+z
1/2+x,1/2-y,1/2-z
1/2-x,y,1/2-z
1/2-x,1/2-y,1/2-z
1/2+x,y,1/2-z
1/2-x,1/2+y,1/2+z
1/2+x,-y,1/2+z
loop_
_atom_site_type_symbol
_atom_site_label
_atom_site_fract_x
_atom_site_fract_y
_atom_site_fract_z
Si Si1 0.173045 0.250000 0.184516
Si Si2 0.604983 0.595030 0.893848
Si Si3 0.203290 0.521142 0.899572
Si Si4 0.605223 0.750000 0.965085
Si Si5 0.604152 0.403686 0.278969
Si Si6 0.609936 0.398658 0.528868
Si Si7 0.805195 0.750000 0.988988
O O1 0.250000 0.250000 0.250000
O O2 0.117803 0.177252 0.196321
O O3 0.201598 0.250000 0.099542
O O4 0.500000 0.570091 0.914642
O O5 0.692054 0.547295 0.919747
O O6 0.612579 0.676646 0.919866
O O7 0.611365 0.595310 0.807149
O O8 0.178713 0.548105 0.820079
O O9 0.176618 0.440226 0.914627
O O10 0.132699 0.563305 0.952677
O O11 0.500000 0.750000 0.997356
O O12 0.696988 0.750000 0.014750
O O13 0.500000 0.428353 0.299168
O O14 0.500000 0.404884 0.546556
O O15 0.641177 0.318660 0.516543
#
# Coordination Sequence:
#
# PCOD9535003 Si02
#       7
#     8  16  16   8  16  16   8
#     4  12  21  29  46  72 109 144 174 202 244 299
#     4  10  20  33  52  78 105 139 175 213 253 307
#     4  11  20  35  50  71 105 137 171 214 259 301
#     4  10  18  33  49  72 109 141 171 206 245 296
#     4  11  20  30  49  75 105 138 172 205 253 308
#     4  11  23  36  52  72 100 136 177 217 257 304
#     4  12  21  36  54  74 102 138 183 215 252 300
#
# _framework density 17.680620999999999
#
# number of rings (size 3 to 8) (size 9 to 14) (size 15 to 20)
#    0.000    1.091    3.636    6.000    0.000    2.182 
#    0.000    2.727    0.000    0.000    0.000    2.545 
#    0.000    2.909    0.000    0.000    0.000    0.000 
#
# Total GULP energy -245433.058812 kJ/mol
# GULP energy per Si atom -5578.024064 kJ/mol
# Density = 1.764038 g / cm^3
# Si number density = 17.680621 Si / 1000 Ang^3
#
#
#
# Elastic Constant Matrix: (Units=GPa)
#
#
# Indices 1 2 3 4 5 6 
#
# 1 147.5279 46.0014 13.2329 0.0000 0.0000 0.0000
# 2 46.0014 101.7095 21.4704 0.0000 0.0000 0.0000
# 3 13.2329 21.4704 24.1593 0.0000 0.0000 0.0000
# 4 0.0000 0.0000 0.0000 14.1670 0.0000 0.0000
# 5 0.0000 0.0000 0.0000 0.0000 16.5588 0.0000
# 6 0.0000 0.0000 0.0000 0.0000 0.0000 33.5068
#
#
#
# Elastic Compliance Matrix: (Units=1/GPa)
#
#
# Indices 1 2 3 4 5 6 
#
# 1 0.007931 -0.003287 -0.001423 0.000000 0.000000 0.000000
# 2 -0.003287 0.013464 -0.010166 0.000000 0.000000 0.000000
# 3 -0.001423 -0.010166 0.051206 0.000000 0.000000 0.000000
# 4 0.000000 0.000000 0.000000 0.070587 0.000000 0.000000
# 5 0.000000 0.000000 0.000000 0.000000 0.060391 0.000000
# 6 0.000000 0.000000 0.000000 0.000000 0.000000 0.029845
#
#
# Mechanical properties :
#
#
# Convention : Reuss Voigt Hill
#
# Bulk Modulus (GPa) = 23.33723 48.31181 35.82452
# Shear Modulus (GPa) = 18.02082 25.69264 21.85673
#
# Velocity S-wave (km/s) = 3.19602 3.81616 3.51977
# Velocity P-wave (km/s) = 5.18145 6.84116 6.06831
#
# Compressibility (1/GPa) = 0.04284999
#
# Stress axis : x y z
#
# Youngs Moduli (GPa) = 126.09009 74.27069 19.52913
#
# Poissons Ratio (x) = 0.24409 0.02780
# Poissons Ratio (y) = 0.41440 0.19852
# Poissons Ratio (z) = 0.17946 0.75500
#
# Static dielectric constant tensor:
#      x y z
#    x 1.676750 0.000000 0.000000 
#    y 0.000000 1.600940 0.000000 
#    z 0.000000 0.000000 1.608890 
# 
# From -- ./inp_files/42831.got.cif
#   From: 2010.05.17/outbox.cif.g08.bks.cpg/sg74_22_cif.got.tgz:42831.got - 2010.06.03 17:57:02.
