data_PCOD9535796
_publ_section_title
;
Structure prediction by ZEFSAII (Michael W. Deem and Ramdas Pophale) SiO2 
 PCOD9535796
Probable space group: I M M A
;
_chemical_formula_sum "Si O2"
_cell_formula_units_Z 80
_cell_length_a 21.260767
_cell_length_b 11.289577
_cell_length_c 19.033788
_cell_angle_alpha 90.000000
_cell_angle_beta 90.000000
_cell_angle_gamma 90.000000
_cell_volume 4568.586223
_symmetry_space_group_name_H-M "I M M A"
_symmetry_group_IT_number 74
_symmetry_cell_setting 'orthorhombic'
loop_
_space_group_symop_operation_xyz
x,y,z
-x,1/2-y,z
x,-y,-z
-x,1/2+y,-z
-x,-y,-z
x,1/2+y,-z
-x,y,z
x,1/2-y,z
1/2+x,1/2+y,1/2+z
1/2-x,-y,1/2+z
1/2+x,1/2-y,1/2-z
1/2-x,y,1/2-z
1/2-x,1/2-y,1/2-z
1/2+x,y,1/2-z
1/2-x,1/2+y,1/2+z
1/2+x,-y,1/2+z
loop_
_atom_site_type_symbol
_atom_site_label
_atom_site_fract_x
_atom_site_fract_y
_atom_site_fract_z
Si Si1 0.234085 0.955233 0.570536
Si Si2 0.568456 0.750000 0.697065
Si Si3 0.094301 0.883139 0.542316
Si Si4 0.195678 0.890155 0.304907
Si Si5 0.067713 0.031029 0.302423
Si Si6 0.284519 0.750000 0.671194
O O1 0.170046 0.893021 0.543618
O O2 0.263824 0.864010 0.625747
O O3 0.268805 0.000000 0.500000
O O4 0.215686 0.067783 0.617806
O O5 0.500000 0.750000 0.657428
O O6 0.567351 0.633518 0.745085
O O7 0.639655 0.750000 0.668994
O O8 0.076255 0.750000 0.518590
O O9 0.073932 0.904628 0.622351
O O10 0.072387 0.000000 0.500000
O O11 0.189416 0.750000 0.301044
O O12 0.250000 0.927456 0.250000
O O13 0.128710 0.951002 0.290991
O O14 0.000000 0.967578 0.300607
O O15 0.250000 0.750000 0.750000
#
# Coordination Sequence:
#
# PCOD9535796 Si02
#       6
#    16   8  16  16  16   8
#     4  10  21  32  54  81 113 140 182 233 287 332
#     4  10  20  34  56  80 106 133 182 245 290 325
#     4  10  19  32  48  72 108 149 186 225 278 332
#     4  10  21  36  54  77 110 147 179 223 278 346
#     4  10  20  34  52  74 103 139 183 232 276 322
#     4  12  20  34  62  88 111 147 196 237 280 345
#
# _framework density 17.510888999999999
#
# number of rings (size 3 to 8) (size 9 to 14) (size 15 to 20)
#    0.000    1.800    2.000    4.200    1.400    5.600 
#    0.000    0.000    0.000    0.600    0.000    0.000 
#    0.000    0.000    0.000    0.000    0.000    0.000 
#
# Total GULP energy -222796.327928 kJ/mol
# GULP energy per Si atom -5569.908198 kJ/mol
# Density = 1.747103 g / cm^3
# Si number density = 17.510889 Si / 1000 Ang^3
#
#
#
# Elastic Constant Matrix: (Units=GPa)
#
#
# Indices 1 2 3 4 5 6 
#
# 1 128.1530 47.5912 42.1242 0.0000 0.0000 0.0000
# 2 47.5912 106.2327 37.6755 0.0000 0.0000 0.0000
# 3 42.1242 37.6755 74.9537 0.0000 0.0000 0.0000
# 4 0.0000 0.0000 0.0000 24.8528 0.0000 0.0000
# 5 0.0000 0.0000 0.0000 0.0000 9.6647 0.0000
# 6 0.0000 0.0000 0.0000 0.0000 0.0000 -3.6765
#
#
#
# Elastic Compliance Matrix: (Units=1/GPa)
#
#
# Indices 1 2 3 4 5 6 
#
# 1 0.010364 -0.003136 -0.004248 0.000000 0.000000 0.000000
# 2 -0.003136 0.012405 -0.004472 0.000000 0.000000 0.000000
# 3 -0.004248 -0.004472 0.017977 0.000000 0.000000 0.000000
# 4 0.000000 0.000000 0.000000 0.040237 0.000000 0.000000
# 5 0.000000 0.000000 0.000000 0.000000 0.103470 0.000000
# 6 0.000000 0.000000 0.000000 0.000000 0.000000 -0.272001
#
#
# Mechanical properties :
#
#
# Convention : Reuss Voigt Hill
#
# Bulk Modulus (GPa) = 58.71387 62.68013 60.69700
# Shear Modulus (GPa) = -85.97494 18.29811 -33.83841
#
# Velocity S-wave (km/s) = -7.01460 3.23608 -4.40070
# Velocity P-wave (km/s) = 5.65715 7.05944 2.98599
#
# Compressibility (1/GPa) = 0.01703175
#
# Stress axis : x y z
#
# Youngs Moduli (GPa) = 96.48462 80.61551 55.62613
#
# Poissons Ratio (x) = 0.25285 0.23631
# Poissons Ratio (y) = 0.30262 0.24878
# Poissons Ratio (z) = 0.40989 0.36055
#
# Static dielectric constant tensor:
#      x y z
#    x 1.669770 0.000000 0.000000 
#    y 0.000000 1.509370 0.000000 
#    z 0.000000 0.000000 1.604040 
# 
# From -- ./inp_files/36189.got.cif
#   From: 2010.05.17/outbox.cif.g08.bks.cpg/sg74_19_cif.got.tgz:36189.got - 2010.06.03 17:57:02.
