data_PCOD9535775
_publ_section_title
;
Structure prediction by ZEFSAII (Michael W. Deem and Ramdas Pophale) SiO2 
 PCOD9535775
Probable space group: I M M A
;
_chemical_formula_sum "Si O2"
_cell_formula_units_Z 72
_cell_length_a 7.306372
_cell_length_b 18.252195
_cell_length_c 23.356386
_cell_angle_alpha 90.000000
_cell_angle_beta 90.000000
_cell_angle_gamma 90.000000
_cell_volume 3114.745193
_symmetry_space_group_name_H-M "I M M A"
_symmetry_group_IT_number 74
_symmetry_cell_setting 'orthorhombic'
loop_
_space_group_symop_operation_xyz
x,y,z
-x,1/2-y,z
x,-y,-z
-x,1/2+y,-z
-x,-y,-z
x,1/2+y,-z
-x,y,z
x,1/2-y,z
1/2+x,1/2+y,1/2+z
1/2-x,-y,1/2+z
1/2+x,1/2-y,1/2-z
1/2-x,y,1/2-z
1/2-x,1/2-y,1/2-z
1/2+x,y,1/2-z
1/2-x,1/2+y,1/2+z
1/2+x,-y,1/2+z
loop_
_atom_site_type_symbol
_atom_site_label
_atom_site_fract_x
_atom_site_fract_y
_atom_site_fract_z
Si Si1 0.276797 0.665836 0.059459
Si Si2 0.776201 0.460930 0.639102
Si Si3 0.219539 0.168515 0.169384
Si Si4 0.750000 0.958587 0.750000
Si Si5 0.214258 0.091396 0.443728
O O1 0.500000 0.666909 0.056612
O O2 0.216316 0.750000 0.058955
O O3 0.228763 0.618774 0.115321
O O4 0.212422 0.620307 0.003751
O O5 0.693739 0.485159 0.699798
O O6 0.718121 0.519359 0.589841
O O7 0.000000 0.465152 0.645473
O O8 0.274608 0.250000 0.186111
O O9 0.315126 0.104355 0.204814
O O10 0.260858 0.155189 0.103014
O O11 0.000000 0.160107 0.177646
O O12 0.000000 0.076691 0.453110
#
# Coordination Sequence:
#
# PCOD9535775 Si02
#       5
#    16  16  16   8  16
#     4   9  16  27  46  72  96 116 147 195 242 277
#     4   9  17  29  46  67  91 121 156 194 233 273
#     4  10  20  32  47  70  99 127 154 188 232 280
#     4  10  19  32  47  62  88 126 166 196 225 270
#     4   9  17  30  50  74  98 123 152 187 230 283
#
# _framework density 23.115853999999999
#
# number of rings (size 3 to 8) (size 9 to 14) (size 15 to 20)
#    0.000    2.667    0.000    2.333    0.000    4.889 
#    0.000    0.556    0.000   12.000    0.000    0.000 
#    0.000    0.000    0.000    0.000    0.000    0.000 
#
# Total GULP energy -200472.560546 kJ/mol
# GULP energy per Si atom -5568.682237 kJ/mol
# Density = 2.306324 g / cm^3
# Si number density = 23.115854 Si / 1000 Ang^3
#
#
#
# Elastic Constant Matrix: (Units=GPa)
#
#
# Indices 1 2 3 4 5 6 
#
# 1 109.0989 9.6806 13.0320 0.0000 0.0000 0.0000
# 2 9.6806 140.6025 100.9426 0.0000 0.0000 0.0000
# 3 13.0320 100.9426 172.6250 0.0000 0.0000 0.0000
# 4 0.0000 0.0000 0.0000 6.3759 0.0000 0.0000
# 5 0.0000 0.0000 0.0000 0.0000 -3.4334 0.0000
# 6 0.0000 0.0000 0.0000 0.0000 0.0000 -30.0964
#
#
#
# Elastic Compliance Matrix: (Units=1/GPa)
#
#
# Indices 1 2 3 4 5 6 
#
# 1 0.009254 -0.000234 -0.000562 0.000000 0.000000 0.000000
# 2 -0.000234 0.012264 -0.007154 0.000000 0.000000 0.000000
# 3 -0.000562 -0.007154 0.010019 0.000000 0.000000 0.000000
# 4 0.000000 0.000000 0.000000 0.156841 0.000000 0.000000
# 5 0.000000 0.000000 0.000000 0.000000 -0.291255 0.000000
# 6 0.000000 0.000000 0.000000 0.000000 0.000000 -0.033227
#
#
# Mechanical properties :
#
#
# Convention : Reuss Voigt Hill
#
# Bulk Modulus (GPa) = 63.94828 74.40406 69.17617
# Shear Modulus (GPa) = -43.48141 14.48063 -14.50039
#
# Velocity S-wave (km/s) = -4.34178 2.50559 -2.50730
# Velocity P-wave (km/s) = 1.60922 6.37401 4.64852
#
# Compressibility (1/GPa) = 0.01563764
#
# Stress axis : x y z
#
# Youngs Moduli (GPa) = 108.06306 81.53698 99.81423
#
# Poissons Ratio (x) = 0.01905 0.05609
# Poissons Ratio (y) = 0.02525 0.71407
# Poissons Ratio (z) = 0.06073 0.58331
#
# Static dielectric constant tensor:
#      x y z
#    x 2.038210 0.000000 0.000000 
#    y 0.000000 1.823970 0.000000 
#    z 0.000000 0.000000 1.852480 
# 
# From -- ./inp_files/43719.got.cif
#   From: 2010.05.17/outbox.cif.g08.bks.cpg/sg74_22_cif.got.tgz:43719.got - 2010.06.03 17:57:02.
