data_PCOD9535709
_publ_section_title
;
Structure prediction by ZEFSAII (Michael W. Deem and Ramdas Pophale) SiO2 
 PCOD9535709
Probable space group: I M M A
;
_chemical_formula_sum "Si O2"
_cell_formula_units_Z 104
_cell_length_a 28.366068
_cell_length_b 8.542624
_cell_length_c 24.587687
_cell_angle_alpha 90.000000
_cell_angle_beta 90.000000
_cell_angle_gamma 90.000000
_cell_volume 5958.104377
_symmetry_space_group_name_H-M "I M M A"
_symmetry_group_IT_number 74
_symmetry_cell_setting 'orthorhombic'
loop_
_space_group_symop_operation_xyz
x,y,z
-x,1/2-y,z
x,-y,-z
-x,1/2+y,-z
-x,-y,-z
x,1/2+y,-z
-x,y,z
x,1/2-y,z
1/2+x,1/2+y,1/2+z
1/2-x,-y,1/2+z
1/2+x,1/2-y,1/2-z
1/2-x,y,1/2-z
1/2-x,1/2-y,1/2-z
1/2+x,y,1/2-z
1/2-x,1/2+y,1/2+z
1/2+x,-y,1/2+z
loop_
_atom_site_type_symbol
_atom_site_label
_atom_site_fract_x
_atom_site_fract_y
_atom_site_fract_z
Si Si1 0.198601 0.437464 0.734777
Si Si2 0.104420 0.062225 0.061000
Si Si3 0.874339 0.566010 0.167855
Si Si4 0.000000 0.061569 0.061230
Si Si5 0.553818 0.937413 0.938862
Si Si6 0.617445 0.434996 0.843276
Si Si7 0.554714 0.433699 0.251429
O O1 0.203831 0.250000 0.725423
O O2 0.250000 0.502514 0.750000
O O3 0.167181 0.457028 0.788691
O O4 0.166919 0.495720 0.683460
O O5 0.106367 0.250000 0.059963
O O6 0.051553 0.010244 0.080332
O O7 0.137427 0.993106 0.107645
O O8 0.112307 0.000000 0.000000
O O9 0.885783 0.750000 0.166729
O O10 0.917296 0.468816 0.193599
O O11 0.000000 0.250000 0.063563
O O12 0.000000 0.000000 0.000000
O O13 0.500000 0.987187 0.922127
O O14 0.554025 0.750000 0.939870
O O15 0.594063 0.992736 0.897103
O O16 0.561409 0.000000 0.000000
O O17 0.622474 0.250000 0.851869
O O18 0.579610 0.467279 0.795558
O O19 0.500000 0.471890 0.256958
O O20 0.558943 0.250000 0.237521
#
# Coordination Sequence:
#
# PCOD9535709 Si02
#       7
#    16  16  16   8  16  16  16
#     4   8  16  33  55  76  98 125 160 204 255 308
#     4  10  19  32  48  67  95 129 165 200 238 283
#     4  10  20  32  49  74  97 123 162 204 250 297
#     4   8  16  28  42  60  84 120 160 190 221 262
#     4  10  20  33  50  74 107 146 181 210 245 294
#     4  10  19  31  51  77 102 130 167 209 254 301
#     4  10  20  32  46  66  97 135 168 200 242 291
#
# _framework density 17.455216
#
# number of rings (size 3 to 8) (size 9 to 14) (size 15 to 20)
#    0.000    2.462    0.000    3.692    1.077    4.615 
#    0.000    0.000    0.000   17.538    0.000    0.000 
#    0.000    0.000    0.000    0.000    0.000    0.000 
#
# Total GULP energy -289570.320309 kJ/mol
# GULP energy per Si atom -5568.660006 kJ/mol
# Density = 1.741549 g / cm^3
# Si number density = 17.455216 Si / 1000 Ang^3
#
#
#
# Elastic Constant Matrix: (Units=GPa)
#
#
# Indices 1 2 3 4 5 6 
#
# 1 87.9949 24.9047 34.1441 0.0000 0.0000 0.0000
# 2 24.9047 28.0118 19.2080 0.0000 0.0000 0.0000
# 3 34.1441 19.2080 97.5964 0.0000 0.0000 0.0000
# 4 0.0000 0.0000 0.0000 30.5602 0.0000 0.0000
# 5 0.0000 0.0000 0.0000 0.0000 10.5666 0.0000
# 6 0.0000 0.0000 0.0000 0.0000 0.0000 5.5598
#
#
#
# Elastic Compliance Matrix: (Units=1/GPa)
#
#
# Indices 1 2 3 4 5 6 
#
# 1 0.016025 -0.012026 -0.003239 0.000000 0.000000 0.000000
# 2 -0.012026 0.050294 -0.005691 0.000000 0.000000 0.000000
# 3 -0.003239 -0.005691 0.012500 0.000000 0.000000 0.000000
# 4 0.000000 0.000000 0.000000 0.032722 0.000000 0.000000
# 5 0.000000 0.000000 0.000000 0.000000 0.094638 0.000000
# 6 0.000000 0.000000 0.000000 0.000000 0.000000 0.179862
#
#
# Mechanical properties :
#
#
# Convention : Reuss Voigt Hill
#
# Bulk Modulus (GPa) = 27.09640 41.12407 34.11023
# Shear Modulus (GPa) = 11.35705 18.36041 14.85873
#
# Velocity S-wave (km/s) = 2.55353 3.24675 2.92078
# Velocity P-wave (km/s) = 4.92454 6.13727 5.56405
#
# Compressibility (1/GPa) = 0.03690527
#
# Stress axis : x y z
#
# Youngs Moduli (GPa) = 62.40258 19.88315 80.00223
#
# Poissons Ratio (x) = 0.23912 0.25917
# Poissons Ratio (y) = 0.75046 0.45529
# Poissons Ratio (z) = 0.20215 0.11315
#
# Static dielectric constant tensor:
#      x y z
#    x 1.632970 0.000000 0.000000 
#    y 0.000000 1.596620 0.000000 
#    z 0.000000 0.000000 1.597330 
# 
# From -- ./inp_files/57829.got.cif
#   From: 2010.05.17/outbox.cif.g08.bks.cpg/sg74_29_cif.got.tgz:57829.got - 2010.06.03 17:57:02.
