data_PCOD9535616
_publ_section_title
;
Structure prediction by ZEFSAII (Michael W. Deem and Ramdas Pophale) SiO2 
 PCOD9535616
Probable space group: I M M A
;
_chemical_formula_sum "Si O2"
_cell_formula_units_Z 128
_cell_length_a 17.829968
_cell_length_b 21.889780
_cell_length_c 17.662381
_cell_angle_alpha 90.000000
_cell_angle_beta 90.000000
_cell_angle_gamma 90.000000
_cell_volume 6893.522689
_symmetry_space_group_name_H-M "I M M A"
_symmetry_group_IT_number 74
_symmetry_cell_setting 'orthorhombic'
loop_
_space_group_symop_operation_xyz
x,y,z
-x,1/2-y,z
x,-y,-z
-x,1/2+y,-z
-x,-y,-z
x,1/2+y,-z
-x,y,z
x,1/2-y,z
1/2+x,1/2+y,1/2+z
1/2-x,-y,1/2+z
1/2+x,1/2-y,1/2-z
1/2-x,y,1/2-z
1/2-x,1/2-y,1/2-z
1/2+x,y,1/2-z
1/2-x,1/2+y,1/2+z
1/2+x,-y,1/2+z
loop_
_atom_site_type_symbol
_atom_site_label
_atom_site_fract_x
_atom_site_fract_y
_atom_site_fract_z
Si Si1 0.314564 0.404514 0.947015
Si Si2 0.668507 0.438240 0.284720
Si Si3 0.414885 0.627806 0.325213
Si Si4 0.338708 0.025223 0.573461
Si Si5 0.737002 0.181720 0.670135
Si Si6 0.589647 0.177802 0.059920
Si Si7 0.086767 0.539757 0.316974
Si Si8 0.089541 0.681006 0.740348
O O1 0.238925 0.444496 0.957293
O O2 0.281580 0.350637 0.895196
O O3 0.370000 0.443671 0.893666
O O4 0.359717 0.371331 0.014656
O O5 0.750000 0.429542 0.250000
O O6 0.675604 0.472504 0.364885
O O7 0.623723 0.483651 0.228210
O O8 0.627981 0.373071 0.286443
O O9 0.500000 0.646729 0.338224
O O10 0.387877 0.575056 0.382577
O O11 0.352306 0.678896 0.337622
O O12 0.410478 0.597154 0.241567
O O13 0.379694 0.000000 0.500000
O O14 0.765692 0.250000 0.675808
O O15 0.750000 0.147808 0.750000
O O16 0.500000 0.167941 0.045882
O O17 0.605054 0.250000 0.040545
O O18 0.602823 0.171543 0.150178
O O19 0.000000 0.526159 0.332305
O O20 0.114872 0.750000 0.759591
O O21 0.000000 0.678432 0.751060
#
# Coordination Sequence:
#
# PCOD9535616 Si02
#       8
#    16  16  16  16  16  16  16  16
#     4  11  19  32  54  77 115 154 186 227 279 338
#     4  11  21  36  59  82 114 148 187 233 279 338
#     4   9  19  35  54  72 102 143 184 232 280 323
#     4  10  23  37  55  84 114 145 183 234 286 335
#     4  10  19  31  49  73 105 142 186 233 279 326
#     4   9  19  35  55  83 119 155 191 233 282 341
#     4  10  19  32  51  79 108 145 187 227 274 330
#     4   9  20  40  63  87 116 148 185 234 291 348
#
# _framework density 18.568155999999998
#
# number of rings (size 3 to 8) (size 9 to 14) (size 15 to 20)
#    0.000    2.125    2.500    1.875    1.750    1.250 
#    0.000    0.000    0.000    3.750    0.000    0.000 
#    0.000    0.000    0.000    0.000    0.000    0.000 
#
# Total GULP energy -356742.627617 kJ/mol
# GULP energy per Si atom -5574.103557 kJ/mol
# Density = 1.852589 g / cm^3
# Si number density = 18.568156 Si / 1000 Ang^3
#
#
#
# Elastic Constant Matrix: (Units=GPa)
#
#
# Indices 1 2 3 4 5 6 
#
# 1 74.0528 6.0684 -7.0785 0.0000 0.0000 0.0000
# 2 6.0684 71.9551 11.3136 0.0000 0.0000 0.0000
# 3 -7.0785 11.3136 26.5742 0.0000 0.0000 0.0000
# 4 0.0000 0.0000 0.0000 1.5986 0.0000 0.0000
# 5 0.0000 0.0000 0.0000 0.0000 2.2943 0.0000
# 6 0.0000 0.0000 0.0000 0.0000 0.0000 -0.4857
#
#
#
# Elastic Compliance Matrix: (Units=1/GPa)
#
#
# Indices 1 2 3 4 5 6 
#
# 1 0.014097 -0.001907 0.004567 0.000000 0.000000 0.000000
# 2 -0.001907 0.015153 -0.006959 0.000000 0.000000 0.000000
# 3 0.004567 -0.006959 0.041810 0.000000 0.000000 0.000000
# 4 0.000000 0.000000 0.000000 0.625549 0.000000 0.000004
# 5 0.000000 0.000000 0.000000 0.000000 0.435872 -0.000001
# 6 0.000000 0.000000 0.000000 0.000004 -0.000001 -2.058694
#
#
# Mechanical properties :
#
#
# Convention : Reuss Voigt Hill
#
# Bulk Modulus (GPa) = 16.01010 21.46547 18.73778
# Shear Modulus (GPa) = -5.57540 11.49999 2.96229
#
# Velocity S-wave (km/s) = -1.73470 2.49135 1.26445
# Velocity P-wave (km/s) = 2.15147 4.45660 3.49929
#
# Compressibility (1/GPa) = 0.06246057
#
# Stress axis : x y z
#
# Youngs Moduli (GPa) = 70.93880 65.99550 23.91794
#
# Poissons Ratio (x) = 0.12585 -0.10923
# Poissons Ratio (y) = 0.13527 0.16644
# Poissons Ratio (z) = -0.32396 0.45926
#
# Static dielectric constant tensor:
#      x y z
#    x 1.642910 0.000000 0.000000 
#    y 0.000000 1.650440 0.000000 
#    z 0.000000 0.000000 1.703630 
# 
# From -- ./inp_files/44606.got.cif
#   From: 2010.05.17/outbox.cif.g08.bks.cpg/sg74_23_cif.got.tgz:44606.got - 2010.06.03 17:57:02.
