data_PCOD9535482
_publ_section_title
;
Structure prediction by ZEFSAII (Michael W. Deem and Ramdas Pophale) SiO2 
 PCOD9535482
Probable space group: I M M A
;
_chemical_formula_sum "Si O2"
_cell_formula_units_Z 104
_cell_length_a 31.508518
_cell_length_b 8.682924
_cell_length_c 21.262482
_cell_angle_alpha 90.000000
_cell_angle_beta 90.000000
_cell_angle_gamma 90.000000
_cell_volume 5817.118828
_symmetry_space_group_name_H-M "I M M A"
_symmetry_group_IT_number 74
_symmetry_cell_setting 'orthorhombic'
loop_
_space_group_symop_operation_xyz
x,y,z
-x,1/2-y,z
x,-y,-z
-x,1/2+y,-z
-x,-y,-z
x,1/2+y,-z
-x,y,z
x,1/2-y,z
1/2+x,1/2+y,1/2+z
1/2-x,-y,1/2+z
1/2+x,1/2-y,1/2-z
1/2-x,y,1/2-z
1/2-x,1/2-y,1/2-z
1/2+x,y,1/2-z
1/2-x,1/2+y,1/2+z
1/2+x,-y,1/2+z
loop_
_atom_site_type_symbol
_atom_site_label
_atom_site_fract_x
_atom_site_fract_y
_atom_site_fract_z
Si Si1 0.000000 0.567073 0.431707
Si Si2 0.817219 0.066351 0.934451
Si Si3 0.289173 0.565380 0.296693
Si Si4 0.908757 0.065581 0.103198
Si Si5 0.377407 0.430946 0.257064
Si Si6 0.562646 0.568353 0.175078
Si Si7 0.000000 0.573155 0.771833
Si Si8 0.000000 0.928998 0.095173
O O1 0.000000 0.500000 0.500000
O O2 0.958262 0.525087 0.391060
O O3 0.000000 0.750000 0.436741
O O4 0.820357 0.250000 0.938887
O O5 0.789223 0.029781 0.872015
O O6 0.865382 0.001504 0.925833
O O7 0.800167 0.000000 0.000000
O O8 0.297191 0.750000 0.292588
O O9 0.250000 0.532467 0.250000
O O10 0.329278 0.471198 0.272429
O O11 0.908953 0.250000 0.096614
O O12 0.902764 0.028694 0.177910
O O13 0.954003 0.002376 0.077611
O O14 0.382942 0.250000 0.245986
O O15 0.390196 0.528627 0.195475
O O16 0.554061 0.750000 0.184788
O O17 0.538500 0.463875 0.225820
O O18 0.000000 0.750000 0.794382
O O19 0.000000 0.457919 0.829746
O O20 0.000000 0.750000 0.078417
#
# Coordination Sequence:
#
# PCOD9535482 Si02
#       8
#     8  16  16  16  16  16   8   8
#     4   9  20  34  48  69  95 132 176 220 265 313
#     4  10  20  36  58  82 109 143 182 219 267 324
#     4   9  19  36  58  83 111 141 175 218 268 323
#     4  10  20  33  49  73 106 140 180 223 263 306
#     4  10  19  30  49  77 106 134 167 212 266 316
#     4  10  19  31  47  69  97 131 172 214 262 320
#     4  11  19  27  41  66  97 129 168 213 258 302
#     4  12  21  29  45  69 102 141 178 219 266 309
#
# _framework density 17.878267000000001
#
# number of rings (size 3 to 8) (size 9 to 14) (size 15 to 20)
#    0.000    2.000    1.538    3.692    0.000    4.000 
#    0.000    0.385    0.000    0.923    0.000    2.154 
#    0.000    0.000    0.000    0.000    0.000    0.000 
#
# Total GULP energy -289622.478487 kJ/mol
# GULP energy per Si atom -5569.663048 kJ/mol
# Density = 1.783758 g / cm^3
# Si number density = 17.878267 Si / 1000 Ang^3
#
#
#
# Elastic Constant Matrix: (Units=GPa)
#
#
# Indices 1 2 3 4 5 6 
#
# 1 61.4872 34.8294 39.1465 0.0000 0.0000 0.0000
# 2 34.8294 52.1839 37.5803 0.0000 0.0000 0.0000
# 3 39.1465 37.5803 126.2138 0.0000 0.0000 0.0000
# 4 0.0000 0.0000 0.0000 26.4646 0.0000 0.0000
# 5 0.0000 0.0000 0.0000 0.0000 16.7896 0.0000
# 6 0.0000 0.0000 0.0000 0.0000 0.0000 23.5292
#
#
#
# Elastic Compliance Matrix: (Units=1/GPa)
#
#
# Indices 1 2 3 4 5 6 
#
# 1 0.027589 -0.015596 -0.003913 0.000000 0.000000 0.000000
# 2 -0.015596 0.033210 -0.005051 0.000000 0.000000 0.000000
# 3 -0.003913 -0.005051 0.010641 0.000000 0.000000 0.000000
# 4 0.000000 0.000000 0.000000 0.037786 0.000000 0.000000
# 5 0.000000 0.000000 0.000000 0.000000 0.059561 0.000000
# 6 0.000000 0.000000 0.000000 0.000000 0.000000 0.042500
#
#
# Mechanical properties :
#
#
# Convention : Reuss Voigt Hill
#
# Bulk Modulus (GPa) = 44.80436 51.44414 48.12425
# Shear Modulus (GPa) = 18.66734 21.91193 20.28964
#
# Velocity S-wave (km/s) = 3.23481 3.50468 3.37245
# Velocity P-wave (km/s) = 6.25038 6.72415 6.49159
#
# Compressibility (1/GPa) = 0.02231926
#
# Stress axis : x y z
#
# Youngs Moduli (GPa) = 36.24590 30.11170 93.97797
#
# Poissons Ratio (x) = 0.46962 0.36778
# Poissons Ratio (y) = 0.56529 0.47468
# Poissons Ratio (z) = 0.14185 0.15209
#
# Static dielectric constant tensor:
#      x y z
#    x 1.763800 0.000000 0.000000 
#    y 0.000000 1.597500 0.000000 
#    z 0.000000 0.000000 1.658640 
# 
# From -- ./inp_files/55705.got.cif
#   From: 2010.05.17/outbox.cif.g08.bks.cpg/sg74_28_cif.got.tgz:55705.got - 2010.06.03 17:57:02.
