data_PCOD9535243
_publ_section_title
;
Structure prediction by ZEFSAII (Michael W. Deem and Ramdas Pophale) SiO2 
 PCOD9535243
Probable space group: I M M A
;
_chemical_formula_sum "Si O2"
_cell_formula_units_Z 96
_cell_length_a 25.378253
_cell_length_b 14.385981
_cell_length_c 11.060549
_cell_angle_alpha 90.000000
_cell_angle_beta 90.000000
_cell_angle_gamma 90.000000
_cell_volume 4038.107619
_symmetry_space_group_name_H-M "I M M A"
_symmetry_group_IT_number 74
_symmetry_cell_setting 'orthorhombic'
loop_
_space_group_symop_operation_xyz
x,y,z
-x,1/2-y,z
x,-y,-z
-x,1/2+y,-z
-x,-y,-z
x,1/2+y,-z
-x,y,z
x,1/2-y,z
1/2+x,1/2+y,1/2+z
1/2-x,-y,1/2+z
1/2+x,1/2-y,1/2-z
1/2-x,y,1/2-z
1/2-x,1/2-y,1/2-z
1/2+x,y,1/2-z
1/2-x,1/2+y,1/2+z
1/2+x,-y,1/2+z
loop_
_atom_site_type_symbol
_atom_site_label
_atom_site_fract_x
_atom_site_fract_y
_atom_site_fract_z
Si Si1 0.191680 0.469040 0.781464
Si Si2 0.157183 0.141410 0.561147
Si Si3 0.766517 0.855830 0.000459
Si Si4 0.858106 0.849120 0.820515
Si Si5 0.059207 0.137942 0.689391
Si Si6 0.939484 0.108609 0.969806
O O1 0.250000 0.504382 0.750000
O O2 0.181423 0.383275 0.691927
O O3 0.200213 0.423630 0.912869
O O4 0.146854 0.548097 0.763378
O O5 0.151260 0.250000 0.538020
O O6 0.206418 0.110009 0.479011
O O7 0.098442 0.103562 0.583651
O O8 0.763429 0.750000 0.051489
O O9 0.800768 0.847146 0.881493
O O10 0.865789 0.750000 0.753074
O O11 0.900509 0.850524 0.929571
O O12 0.057249 0.250000 0.678516
O O13 0.000000 0.100210 0.678493
O O14 0.076621 0.121872 0.829484
O O15 0.000000 0.143033 0.980203
O O16 0.940104 0.000000 0.000000
#
# Coordination Sequence:
#
# PCOD9535243 Si02
#       6
#    16  16  16  16  16  16
#     4  10  19  30  44  61  84 111 143 182 221 256
#     4   9  16  27  44  65  87 110 140 176 215 260
#     4   9  17  28  44  65  84 106 138 178 222 261
#     4  11  21  31  44  61  87 121 151 179 211 255
#     4   9  16  25  38  58  86 115 136 161 204 255
#     4  10  19  29  42  60  83 113 148 182 213 248
#
# _framework density 23.773510999999999
#
# number of rings (size 3 to 8) (size 9 to 14) (size 15 to 20)
#    0.000    2.333    0.000    4.500    0.000    6.000 
#    0.000    0.000    0.000    0.000    0.000    0.000 
#    0.000   12.000    0.000    8.000    0.000    4.500 
#
# Total GULP energy -267411.657281 kJ/mol
# GULP energy per Si atom -5571.076193 kJ/mol
# Density = 2.371940 g / cm^3
# Si number density = 23.773511 Si / 1000 Ang^3
#
#
#
# Elastic Constant Matrix: (Units=GPa)
#
#
# Indices 1 2 3 4 5 6 
#
# 1 112.0611 -1.3169 24.3137 0.0000 0.0000 0.0000
# 2 -1.3169 105.7506 15.9767 0.0000 0.0000 0.0000
# 3 24.3137 15.9767 35.5257 0.0000 0.0000 0.0000
# 4 0.0000 0.0000 0.0000 13.4059 0.0000 0.0000
# 5 0.0000 0.0000 0.0000 0.0000 29.1700 0.0000
# 6 0.0000 0.0000 0.0000 0.0000 0.0000 3.9106
#
#
#
# Elastic Compliance Matrix: (Units=1/GPa)
#
#
# Indices 1 2 3 4 5 6 
#
# 1 0.010650 0.001324 -0.007884 0.000000 0.000000 0.000000
# 2 0.001324 0.010310 -0.005543 0.000000 0.000000 0.000000
# 3 -0.007884 -0.005543 0.036037 0.000000 0.000000 0.000000
# 4 0.000000 0.000000 0.000000 0.074594 0.000000 0.000000
# 5 0.000000 0.000000 0.000000 0.000000 0.034282 0.000000
# 6 0.000000 0.000000 0.000000 0.000000 0.000000 0.255712
#
#
# Mechanical properties :
#
#
# Convention : Reuss Voigt Hill
#
# Bulk Modulus (GPa) = 30.49604 36.80939 33.65272
# Shear Modulus (GPa) = 10.94760 23.58824 17.26792
#
# Velocity S-wave (km/s) = 2.14824 3.15335 2.69801
# Velocity P-wave (km/s) = 4.35992 5.36424 4.88794
#
# Compressibility (1/GPa) = 0.03279114
#
# Stress axis : x y z
#
# Youngs Moduli (GPa) = 93.89804 96.99261 27.74920
#
# Poissons Ratio (x) = -0.12839 0.21878
# Poissons Ratio (y) = -0.12430 0.15380
# Poissons Ratio (z) = 0.74030 0.53759
#
# Static dielectric constant tensor:
#      x y z
#    x 1.981450 0.000000 0.000000 
#    y 0.000000 2.053840 0.000000 
#    z 0.000000 0.000000 1.908740 
# 
# From -- ./inp_files/46200.got.cif
#   From: 2010.05.17/outbox.cif.g08.bks.cpg/sg74_24_cif.got.tgz:46200.got - 2010.06.03 17:57:02.
