data_PCOD9535983
_publ_section_title
;
Structure prediction by ZEFSAII (Michael W. Deem and Ramdas Pophale) SiO2 
 PCOD9535983
Probable space group: I M M A
;
_chemical_formula_sum "Si O2"
_cell_formula_units_Z 88
_cell_length_a 9.097033
_cell_length_b 23.824830
_cell_length_c 23.679442
_cell_angle_alpha 90.000000
_cell_angle_beta 90.000000
_cell_angle_gamma 90.000000
_cell_volume 5132.170131
_symmetry_space_group_name_H-M "I M M A"
_symmetry_group_IT_number 74
_symmetry_cell_setting 'orthorhombic'
loop_
_space_group_symop_operation_xyz
x,y,z
-x,1/2-y,z
x,-y,-z
-x,1/2+y,-z
-x,-y,-z
x,1/2+y,-z
-x,y,z
x,1/2-y,z
1/2+x,1/2+y,1/2+z
1/2-x,-y,1/2+z
1/2+x,1/2-y,1/2-z
1/2-x,y,1/2-z
1/2-x,1/2-y,1/2-z
1/2+x,y,1/2-z
1/2-x,1/2+y,1/2+z
1/2+x,-y,1/2+z
loop_
_atom_site_type_symbol
_atom_site_label
_atom_site_fract_x
_atom_site_fract_y
_atom_site_fract_z
Si Si1 0.165990 0.097922 0.915560
Si Si2 0.174576 0.437248 0.194636
Si Si3 0.670449 0.815741 0.008285
Si Si4 0.162599 0.905054 0.587469
Si Si5 0.751342 0.000000 0.000000
Si Si6 0.175515 0.940144 0.306035
O O1 0.220611 0.151516 0.950431
O O2 0.276126 0.089127 0.863708
O O3 0.000000 0.103841 0.894537
O O4 0.170059 0.043992 0.957811
O O5 0.250000 0.410414 0.250000
O O6 0.216183 0.408483 0.135792
O O7 0.251775 0.498134 0.189695
O O8 0.000000 0.442659 0.201791
O O9 0.500000 0.822558 0.027557
O O10 0.701413 0.750000 0.003392
O O11 0.679152 0.849037 0.949298
O O12 0.000000 0.906861 0.613883
O O13 0.171250 0.957367 0.543397
O O14 0.250000 0.914215 0.250000
O O15 0.000000 0.943520 0.300427
#
# Coordination Sequence:
#
# PCOD9535983 Si02
#       6
#    16  16  16  16   8  16
#     4  11  21  33  52  79 110 141 175 218 262 311
#     4  11  21  33  50  74 107 142 176 214 259 313
#     4   9  20  38  57  78 105 140 180 220 265 314
#     4  10  19  32  53  78 106 139 175 216 263 315
#     4  10  20  30  50  74 112 138 174 208 264 312
#     4  11  21  34  52  75 107 143 178 214 258 314
#
# _framework density 17.146743000000001
#
# number of rings (size 3 to 8) (size 9 to 14) (size 15 to 20)
#    0.000    1.636    1.818    5.455    0.000    4.727 
#    0.000    0.000    0.000    1.091    0.000    0.000 
#    0.000    0.000    0.000    0.000    0.000    0.000 
#
# Total GULP energy -245295.846144 kJ/mol
# GULP energy per Si atom -5574.905594 kJ/mol
# Density = 1.710772 g / cm^3
# Si number density = 17.146743 Si / 1000 Ang^3
#
#
#
# Elastic Constant Matrix: (Units=GPa)
#
#
# Indices 1 2 3 4 5 6 
#
# 1 145.7881 28.2909 48.6564 0.0000 0.0000 0.0000
# 2 28.2909 88.6386 22.8055 0.0000 0.0000 0.0000
# 3 48.6564 22.8055 86.8015 0.0000 0.0000 0.0000
# 4 0.0000 0.0000 0.0000 10.5991 0.0000 0.0000
# 5 0.0000 0.0000 0.0000 0.0000 27.0587 0.0000
# 6 0.0000 0.0000 0.0000 0.0000 0.0000 14.1920
#
#
#
# Elastic Compliance Matrix: (Units=1/GPa)
#
#
# Indices 1 2 3 4 5 6 
#
# 1 0.008650 -0.001623 -0.004422 0.000000 0.000000 0.000000
# 2 -0.001623 0.012404 -0.002349 0.000000 0.000000 0.000000
# 3 -0.004422 -0.002349 0.014617 0.000000 0.000000 0.000000
# 4 0.000000 0.000000 0.000000 0.094347 0.000000 0.000000
# 5 0.000000 0.000000 0.000000 0.000000 0.036957 0.000000
# 6 0.000000 0.000000 0.000000 0.000000 0.000000 0.070462
#
#
# Mechanical properties :
#
#
# Convention : Reuss Voigt Hill
#
# Bulk Modulus (GPa) = 52.96101 57.85930 55.41015
# Shear Modulus (GPa) = 19.19234 25.13500 22.16367
#
# Velocity S-wave (km/s) = 3.34922 3.83283 3.59916
# Velocity P-wave (km/s) = 6.77572 7.30783 7.04680
#
# Compressibility (1/GPa) = 0.01888182
#
# Stress axis : x y z
#
# Youngs Moduli (GPa) = 115.60416 80.61780 68.41478
#
# Poissons Ratio (x) = 0.13085 0.30256
# Poissons Ratio (y) = 0.18763 0.16072
# Poissons Ratio (z) = 0.51125 0.18938
#
# Static dielectric constant tensor:
#      x y z
#    x 1.599960 0.000000 0.000000 
#    y 0.000000 1.553390 0.000000 
#    z 0.000000 0.000000 1.622550 
# 
# From -- ./inp_files/56953.got.cif
#   From: 2010.05.17/outbox.cif.g08.bks.cpg/sg74_29_cif.got.tgz:56953.got - 2010.06.03 17:57:02.
