data_PCOD9535745
_publ_section_title
;
Structure prediction by ZEFSAII (Michael W. Deem and Ramdas Pophale) SiO2 
 PCOD9535745
Probable space group: I M M A
;
_chemical_formula_sum "Si O2"
_cell_formula_units_Z 88
_cell_length_a 7.655902
_cell_length_b 17.495927
_cell_length_c 29.183154
_cell_angle_alpha 90.000000
_cell_angle_beta 90.000000
_cell_angle_gamma 90.000000
_cell_volume 3908.998920
_symmetry_space_group_name_H-M "I M M A"
_symmetry_group_IT_number 74
_symmetry_cell_setting 'orthorhombic'
loop_
_space_group_symop_operation_xyz
x,y,z
-x,1/2-y,z
x,-y,-z
-x,1/2+y,-z
-x,-y,-z
x,1/2+y,-z
-x,y,z
x,1/2-y,z
1/2+x,1/2+y,1/2+z
1/2-x,-y,1/2+z
1/2+x,1/2-y,1/2-z
1/2-x,y,1/2-z
1/2-x,1/2-y,1/2-z
1/2+x,y,1/2-z
1/2-x,1/2+y,1/2+z
1/2+x,-y,1/2+z
loop_
_atom_site_type_symbol
_atom_site_label
_atom_site_fract_x
_atom_site_fract_y
_atom_site_fract_z
Si Si1 0.792152 0.065674 0.303244
Si Si2 0.206579 0.592245 0.344864
Si Si3 0.292544 0.164105 0.388491
Si Si4 0.787219 0.921628 0.976632
Si Si5 0.710016 0.334516 0.565056
Si Si6 0.790119 0.250000 0.696670
O O1 0.750000 0.076436 0.250000
O O2 0.731293 0.131269 0.337727
O O3 0.000000 0.063303 0.307349
O O4 0.720205 0.984395 0.322221
O O5 0.231052 0.601256 0.399158
O O6 0.280763 0.671359 0.324592
O O7 0.000000 0.592201 0.335145
O O8 0.500000 0.168951 0.396808
O O9 0.220967 0.250000 0.393345
O O10 0.223696 0.104558 0.426713
O O11 0.000000 0.928295 0.974304
O O12 0.743385 0.856058 0.013427
O O13 0.724357 0.000000 0.000000
O O14 0.500000 0.332971 0.567364
O O15 0.777220 0.250000 0.577687
O O16 0.750000 0.250000 0.750000
O O17 0.000000 0.250000 0.689750
#
# Coordination Sequence:
#
# PCOD9535745 Si02
#       6
#    16  16  16  16  16   8
#     4  11  24  41  62  87 114 148 192 244 300 355
#     4  10  21  37  55  79 114 153 191 236 292 351
#     4  10  21  39  63  89 119 156 195 238 290 345
#     4   9  17  31  54  85 119 153 189 233 283 335
#     4  10  19  31  52  83 115 150 193 236 277 332
#     4  10  20  34  52  74 106 146 190 236 283 338
#
# _framework density 22.512156000000001
#
# number of rings (size 3 to 8) (size 9 to 14) (size 15 to 20)
#    0.000    2.000    0.909    2.727    0.000    6.545 
#    0.000    0.909    0.000    5.455    0.000    0.000 
#    0.000    0.000    0.000    0.000    0.000    0.000 
#
# Total GULP energy -245813.473691 kJ/mol
# GULP energy per Si atom -5586.669857 kJ/mol
# Density = 2.246092 g / cm^3
# Si number density = 22.512156 Si / 1000 Ang^3
#
#
#
# Elastic Constant Matrix: (Units=GPa)
#
#
# Indices 1 2 3 4 5 6 
#
# 1 40.2876 11.6235 -12.0285 0.0000 0.0000 0.0000
# 2 11.6235 132.9748 59.6914 0.0000 0.0000 0.0000
# 3 -12.0285 59.6914 140.0187 0.0000 0.0000 0.0000
# 4 0.0000 0.0000 0.0000 32.7649 0.0000 0.0000
# 5 0.0000 0.0000 0.0000 0.0000 14.1450 0.0000
# 6 0.0000 0.0000 0.0000 0.0000 0.0000 9.8521
#
#
#
# Elastic Compliance Matrix: (Units=1/GPa)
#
#
# Indices 1 2 3 4 5 6 
#
# 1 0.027289 -0.004251 0.004157 0.000000 0.000000 0.000000
# 2 -0.004251 0.009962 -0.004612 0.000000 0.000000 0.000000
# 3 0.004157 -0.004612 0.009465 0.000000 0.000000 0.000000
# 4 0.000000 0.000000 0.000000 0.030520 0.000000 0.000000
# 5 0.000000 0.000000 0.000000 0.000000 0.070696 0.000000
# 6 0.000000 0.000000 0.000000 0.000000 0.000000 0.101502
#
#
# Mechanical properties :
#
#
# Convention : Reuss Voigt Hill
#
# Bulk Modulus (GPa) = 26.80754 47.98378 37.39566
# Shear Modulus (GPa) = 18.43094 28.28537 23.35815
#
# Velocity S-wave (km/s) = 2.86442 3.54849 3.22464
# Velocity P-wave (km/s) = 4.78265 6.17656 5.52375
#
# Compressibility (1/GPa) = 0.03730293
#
# Stress axis : x y z
#
# Youngs Moduli (GPa) = 36.64463 100.37931 105.64999
#
# Poissons Ratio (x) = 0.42674 -0.43915
# Poissons Ratio (y) = 0.15579 0.48728
# Poissons Ratio (z) = -0.15232 0.46297
#
# Static dielectric constant tensor:
#      x y z
#    x 1.851880 0.000000 0.000000 
#    y 0.000000 1.853090 0.000000 
#    z 0.000000 0.000000 1.652570 
# 
# From -- ./inp_files/70204.got.cif
#   From: 2010.05.17/outbox.cif.g08.bks.cpg/sg74_36_cif.got.tgz:70204.got - 2010.06.03 17:57:02.
