data_PCOD9535604
_publ_section_title
;
Structure prediction by ZEFSAII (Michael W. Deem and Ramdas Pophale) SiO2 
 PCOD9535604
Probable space group: I M M A
;
_chemical_formula_sum "Si O2"
_cell_formula_units_Z 96
_cell_length_a 9.327948
_cell_length_b 21.608970
_cell_length_c 21.279475
_cell_angle_alpha 90.000000
_cell_angle_beta 90.000000
_cell_angle_gamma 90.000000
_cell_volume 4289.247353
_symmetry_space_group_name_H-M "I M M A"
_symmetry_group_IT_number 74
_symmetry_cell_setting 'orthorhombic'
loop_
_space_group_symop_operation_xyz
x,y,z
-x,1/2-y,z
x,-y,-z
-x,1/2+y,-z
-x,-y,-z
x,1/2+y,-z
-x,y,z
x,1/2-y,z
1/2+x,1/2+y,1/2+z
1/2-x,-y,1/2+z
1/2+x,1/2-y,1/2-z
1/2-x,y,1/2-z
1/2-x,1/2-y,1/2-z
1/2+x,y,1/2-z
1/2-x,1/2+y,1/2+z
1/2+x,-y,1/2+z
loop_
_atom_site_type_symbol
_atom_site_label
_atom_site_fract_x
_atom_site_fract_y
_atom_site_fract_z
Si Si1 0.338459 0.493121 0.930609
Si Si2 0.162591 0.504894 0.188486
Si Si3 0.336411 0.675518 0.562231
Si Si4 0.664782 0.843845 0.312581
Si Si5 0.664743 0.674474 0.812823
Si Si6 0.162307 0.846514 0.434448
O O1 0.500000 0.520261 0.930478
O O2 0.241970 0.516392 0.874311
O O3 0.351444 0.419681 0.921901
O O4 0.274954 0.500000 0.000000
O O5 0.250000 0.486996 0.250000
O O6 0.160730 0.580509 0.187298
O O7 0.000000 0.483132 0.191296
O O8 0.500000 0.651295 0.560104
O O9 0.345625 0.750000 0.565283
O O10 0.249998 0.656153 0.624390
O O11 0.248078 0.660968 0.499216
O O12 0.500000 0.823407 0.311796
O O13 0.750000 0.825502 0.250000
O O14 0.747483 0.822614 0.375086
O O15 0.500000 0.652620 0.812847
O O16 0.660138 0.750000 0.812710
O O17 0.750000 0.656339 0.750000
O O18 0.000000 0.821801 0.438829
#
# Coordination Sequence:
#
# PCOD9535604 Si02
#       6
#    16  16  16  16  16  16
#     4   9  18  32  49  70  97 127 157 192 235 281
#     4   9  16  26  43  67  93 121 155 195 235 275
#     4  10  20  33  49  70  97 128 160 195 236 281
#     4   9  16  27  44  67  94 122 155 195 235 276
#     4   9  16  27  45  69  95 122 155 195 236 278
#     4  10  19  31  49  72  97 126 159 195 236 281
#
# _framework density 22.381549
#
# number of rings (size 3 to 8) (size 9 to 14) (size 15 to 20)
#    0.000    2.667    0.000    2.500    0.000    8.000 
#    0.000    0.000    0.000    1.500    0.000    4.667 
#    0.000    0.000    0.000    0.000    0.000    0.000 
#
# Total GULP energy -268303.723328 kJ/mol
# GULP energy per Si atom -5589.660903 kJ/mol
# Density = 2.233061 g / cm^3
# Si number density = 22.381549 Si / 1000 Ang^3
#
#
#
# Elastic Constant Matrix: (Units=GPa)
#
#
# Indices 1 2 3 4 5 6 
#
# 1 252.6196 6.9396 171.0211 0.0000 0.0000 0.0000
# 2 6.9396 66.8836 -6.1769 0.0000 0.0000 0.0000
# 3 171.0211 -6.1769 270.8308 0.0000 0.0000 0.0000
# 4 0.0000 0.0000 0.0000 16.2000 0.0000 0.0000
# 5 0.0000 0.0000 0.0000 0.0000 30.0157 0.0000
# 6 0.0000 0.0000 0.0000 0.0000 0.0000 16.5287
#
#
#
# Elastic Compliance Matrix: (Units=1/GPa)
#
#
# Indices 1 2 3 4 5 6 
#
# 1 0.007000 -0.001137 -0.004446 0.000000 0.000000 0.000000
# 2 -0.001137 0.015168 0.001064 0.000000 0.000000 0.000000
# 3 -0.004446 0.001064 0.006524 0.000000 0.000000 0.000000
# 4 0.000000 0.000000 0.000000 0.061728 0.000000 0.000000
# 5 0.000000 0.000000 0.000000 0.000000 0.033316 0.000000
# 6 0.000000 0.000000 0.000000 0.000000 0.000000 0.060501
#
#
# Mechanical properties :
#
#
# Convention : Reuss Voigt Hill
#
# Bulk Modulus (GPa) = 50.88214 103.76683 77.32449
# Shear Modulus (GPa) = 25.02181 40.45221 32.73701
#
# Velocity S-wave (km/s) = 3.34723 4.25595 3.82865
# Velocity P-wave (km/s) = 6.14182 8.40322 7.35989
#
# Compressibility (1/GPa) = 0.01965326
#
# Stress axis : x y z
#
# Youngs Moduli (GPa) = 142.86466 65.93020 153.27794
#
# Poissons Ratio (x) = 0.07495 0.68147
# Poissons Ratio (y) = 0.16242 -0.16306
# Poissons Ratio (z) = 0.63517 -0.07014
#
# Static dielectric constant tensor:
#      x y z
#    x 1.792450 0.000000 0.000000 
#    y 0.000000 1.911300 0.000000 
#    z 0.000000 0.000000 1.765700 
# 
# From -- ./inp_files/49070.got.cif
#   From: 2010.05.17/outbox.cif.g08.bks.cpg/sg74_25_cif.got.tgz:49070.got - 2010.06.03 17:57:02.
