data_PCOD9535253
_publ_section_title
;
Structure prediction by ZEFSAII (Michael W. Deem and Ramdas Pophale) SiO2 
 PCOD9535253
Probable space group: I M M A
;
_chemical_formula_sum "Si O2"
_cell_formula_units_Z 96
_cell_length_a 9.125557
_cell_length_b 23.344531
_cell_length_c 27.288908
_cell_angle_alpha 90.000000
_cell_angle_beta 90.000000
_cell_angle_gamma 90.000000
_cell_volume 5813.406509
_symmetry_space_group_name_H-M "I M M A"
_symmetry_group_IT_number 74
_symmetry_cell_setting 'orthorhombic'
loop_
_space_group_symop_operation_xyz
x,y,z
-x,1/2-y,z
x,-y,-z
-x,1/2+y,-z
-x,-y,-z
x,1/2+y,-z
-x,y,z
x,1/2-y,z
1/2+x,1/2+y,1/2+z
1/2-x,-y,1/2+z
1/2+x,1/2-y,1/2-z
1/2-x,y,1/2-z
1/2-x,1/2-y,1/2-z
1/2+x,y,1/2-z
1/2-x,1/2+y,1/2+z
1/2+x,-y,1/2+z
loop_
_atom_site_type_symbol
_atom_site_label
_atom_site_fract_x
_atom_site_fract_y
_atom_site_fract_z
Si Si1 0.824790 0.421522 0.635106
Si Si2 0.835288 0.894493 0.876640
Si Si3 0.175851 0.683355 0.301636
Si Si4 0.168990 0.318852 0.301159
Si Si5 0.664214 0.006705 0.295956
Si Si6 0.176992 0.995686 0.942602
O O1 0.786308 0.356911 0.651952
O O2 0.764170 0.457738 0.680912
O O3 0.749736 0.452897 0.588674
O O4 0.000000 0.426147 0.630241
O O5 0.740169 0.846684 0.849543
O O6 0.000000 0.873150 0.887810
O O7 0.847091 0.943681 0.835582
O O8 0.776930 0.932863 0.921869
O O9 0.214307 0.750000 0.310165
O O10 0.250000 0.665730 0.250000
O O11 0.000000 0.679281 0.295308
O O12 0.175132 0.250000 0.305397
O O13 0.250000 0.333546 0.250000
O O14 0.000000 0.337105 0.297183
O O15 0.500000 0.986403 0.284298
O O16 0.750000 0.030194 0.250000
O O17 0.000000 0.998904 0.935405
O O18 0.208802 0.000000 0.000000
#
# Coordination Sequence:
#
# PCOD9535253 Si02
#       6
#    16  16  16  16  16  16
#     4  10  19  30  47  70  94 123 158 194 235 284
#     4   9  18  31  48  69  91 120 155 190 233 282
#     4   9  18  31  46  67  97 131 164 195 227 268
#     4  10  20  32  47  69  98 131 163 194 228 269
#     4  10  19  29  42  64  95 126 155 190 233 280
#     4   9  19  36  55  73  94 120 152 196 248 293
#
# _framework density 16.513553999999999
#
# number of rings (size 3 to 8) (size 9 to 14) (size 15 to 20)
#    0.000    2.500    0.000    3.500    0.000    8.667 
#    0.000    0.000    0.000    1.000    0.000    4.667 
#    0.000    0.000    0.000    0.000    0.000    0.000 
#
# Total GULP energy -267235.038589 kJ/mol
# GULP energy per Si atom -5567.396637 kJ/mol
# Density = 1.647597 g / cm^3
# Si number density = 16.513554 Si / 1000 Ang^3
#
#
#
# Elastic Constant Matrix: (Units=GPa)
#
#
# Indices 1 2 3 4 5 6 
#
# 1 57.6187 31.7539 40.2669 0.0000 0.0000 0.0000
# 2 31.7539 65.5730 37.6254 0.0000 0.0000 0.0000
# 3 40.2669 37.6254 92.3580 0.0000 0.0000 0.0000
# 4 0.0000 0.0000 0.0000 23.8318 0.0000 0.0000
# 5 0.0000 0.0000 0.0000 0.0000 19.1450 0.0000
# 6 0.0000 0.0000 0.0000 0.0000 0.0000 -16.4460
#
#
#
# Elastic Compliance Matrix: (Units=1/GPa)
#
#
# Indices 1 2 3 4 5 6 
#
# 1 0.028270 -0.008636 -0.008807 0.000000 0.000000 0.000000
# 2 -0.008636 0.022541 -0.005418 0.000000 0.000000 0.000000
# 3 -0.008807 -0.005418 0.016874 0.000000 0.000000 0.000000
# 4 0.000000 0.000000 0.000000 0.041961 0.000000 0.000000
# 5 0.000000 0.000000 0.000000 0.000000 0.052233 0.000000
# 6 0.000000 0.000000 0.000000 0.000000 0.000000 -0.060805
#
#
# Mechanical properties :
#
#
# Convention : Reuss Voigt Hill
#
# Bulk Modulus (GPa) = 45.53066 48.31579 46.92323
# Shear Modulus (GPa) = 32.44315 12.36641 22.40478
#
# Velocity S-wave (km/s) = 4.43723 2.73951 3.68741
# Velocity P-wave (km/s) = 7.34054 6.27123 6.82686
#
# Compressibility (1/GPa) = 0.02196322
#
# Stress axis : x y z
#
# Youngs Moduli (GPa) = 35.37357 44.36383 59.26221
#
# Poissons Ratio (x) = 0.38314 0.52192
# Poissons Ratio (y) = 0.30550 0.32105
# Poissons Ratio (z) = 0.31153 0.24034
#
# Static dielectric constant tensor:
#      x y z
#    x 1.583100 0.000000 0.000000 
#    y 0.000000 1.584820 0.000000 
#    z 0.000000 0.000000 1.586100 
# 
# From -- ./inp_files/64689.got.cif
#   From: 2010.05.17/outbox.cif.g08.bks.cpg/sg74_33_cif.got.tgz:64689.got - 2010.06.03 17:57:02.
