data_PCOD9535331
_publ_section_title
;
Structure prediction by ZEFSAII (Michael W. Deem and Ramdas Pophale) SiO2 
 PCOD9535331
Probable space group: I M M A
;
_chemical_formula_sum "Si O2"
_cell_formula_units_Z 112
_cell_length_a 27.759492
_cell_length_b 13.802858
_cell_length_c 16.230257
_cell_angle_alpha 90.000000
_cell_angle_beta 90.000000
_cell_angle_gamma 90.000000
_cell_volume 6218.790567
_symmetry_space_group_name_H-M "I M M A"
_symmetry_group_IT_number 74
_symmetry_cell_setting 'orthorhombic'
loop_
_space_group_symop_operation_xyz
x,y,z
-x,1/2-y,z
x,-y,-z
-x,1/2+y,-z
-x,-y,-z
x,1/2+y,-z
-x,y,z
x,1/2-y,z
1/2+x,1/2+y,1/2+z
1/2-x,-y,1/2+z
1/2+x,1/2-y,1/2-z
1/2-x,y,1/2-z
1/2-x,1/2-y,1/2-z
1/2+x,y,1/2-z
1/2-x,1/2+y,1/2+z
1/2+x,-y,1/2+z
loop_
_atom_site_type_symbol
_atom_site_label
_atom_site_fract_x
_atom_site_fract_y
_atom_site_fract_z
Si Si1 0.282204 0.135656 0.126059
Si Si2 0.219545 0.540717 0.171536
Si Si3 0.648249 0.637893 0.223299
Si Si4 0.610018 0.360185 0.163234
Si Si5 0.445576 0.139949 0.996239
Si Si6 0.055431 0.549272 0.321345
Si Si7 0.291645 0.365457 0.937815
O O1 0.270320 0.250000 0.128101
O O2 0.332890 0.122746 0.173491
O O3 0.238723 0.068286 0.157121
O O4 0.295349 0.104400 0.032580
O O5 0.250000 0.578771 0.250000
O O6 0.167307 0.569600 0.203027
O O7 0.239713 0.599903 0.094479
O O8 0.662676 0.750000 0.236102
O O9 0.591286 0.627260 0.216735
O O10 0.670241 0.604146 0.133595
O O11 0.599253 0.250000 0.189969
O O12 0.577873 0.444983 0.200428
O O13 0.594696 0.364084 0.066341
O O14 0.500000 0.129472 0.032504
O O15 0.443107 0.250000 0.961793
O O16 0.441273 0.067249 0.920392
O O17 0.000000 0.558028 0.298656
O O18 0.295133 0.250000 0.939250
#
# Coordination Sequence:
#
# PCOD9535331 Si02
#       7
#    16  16  16  16  16  16  16
#     4  10  20  32  48  70  96 127 163 201 237 278
#     4  10  19  31  47  67  94 127 160 194 237 287
#     4  10  20  34  51  71  96 126 160 198 244 294
#     4  10  19  30  43  62  91 126 160 194 233 275
#     4   9  17  28  42  62  89 121 159 203 244 277
#     4  11  21  31  45  64  87 120 162 204 241 277
#     4   9  17  30  49  72  96 124 160 200 239 282
#
# _framework density 18.009931999999999
#
# number of rings (size 3 to 8) (size 9 to 14) (size 15 to 20)
#    0.000    2.143    0.000    4.714    0.000    8.286 
#    0.000    0.714    0.000    0.000    0.000    0.000 
#    0.000    2.286    0.000    3.429    0.000    2.143 
#
# Total GULP energy -312192.190030 kJ/mol
# GULP energy per Si atom -5574.860536 kJ/mol
# Density = 1.796894 g / cm^3
# Si number density = 18.009932 Si / 1000 Ang^3
#
#
#
# Elastic Constant Matrix: (Units=GPa)
#
#
# Indices 1 2 3 4 5 6 
#
# 1 96.2174 28.5201 27.9317 0.0000 0.0000 0.0000
# 2 28.5201 83.0823 10.8220 0.0000 0.0000 0.0000
# 3 27.9317 10.8220 28.9154 0.0000 0.0000 0.0000
# 4 0.0000 0.0000 0.0000 22.9470 0.0000 0.0000
# 5 0.0000 0.0000 0.0000 0.0000 22.0660 0.0000
# 6 0.0000 0.0000 0.0000 0.0000 0.0000 24.9311
#
#
#
# Elastic Compliance Matrix: (Units=1/GPa)
#
#
# Indices 1 2 3 4 5 6 
#
# 1 0.015360 -0.003511 -0.013523 0.000000 0.000000 0.000000
# 2 -0.003511 0.013456 -0.001644 0.000000 0.000000 0.000000
# 3 -0.013523 -0.001644 0.048262 0.000000 0.000000 0.000000
# 4 0.000000 0.000000 0.000000 0.043579 0.000000 0.000000
# 5 0.000000 0.000000 0.000000 0.000000 0.045319 0.000000
# 6 0.000000 0.000000 0.000000 0.000000 0.000000 0.040110
#
#
# Mechanical properties :
#
#
# Convention : Reuss Voigt Hill
#
# Bulk Modulus (GPa) = 25.17593 38.08475 31.63034
# Shear Modulus (GPa) = 19.47937 23.38492 21.43215
#
# Velocity S-wave (km/s) = 3.29232 3.60730 3.45341
# Velocity P-wave (km/s) = 5.33496 6.20827 5.78811
#
# Compressibility (1/GPa) = 0.03972048
#
# Stress axis : x y z
#
# Youngs Moduli (GPa) = 65.10605 74.31785 20.72026
#
# Poissons Ratio (x) = 0.26094 0.28020
# Poissons Ratio (y) = 0.22859 0.03407
# Poissons Ratio (z) = 0.88043 0.12220
#
# Static dielectric constant tensor:
#      x y z
#    x 1.665350 0.000000 0.000000 
#    y 0.000000 1.714950 0.000000 
#    z 0.000000 0.000000 1.629760 
# 
# From -- ./inp_files/32984.got.cif
#   From: 2010.05.17/outbox.cif.g08.bks.cpg/sg74_17_cif.got.tgz:32984.got - 2010.06.03 17:57:02.
