data_PCOD9535975
_publ_section_title
;
Structure prediction by ZEFSAII (Michael W. Deem and Ramdas Pophale) SiO2 
 PCOD9535975
Probable space group: I M M A
;
_chemical_formula_sum "Si O2"
_cell_formula_units_Z 48
_cell_length_a 12.539235
_cell_length_b 11.067840
_cell_length_c 14.001584
_cell_angle_alpha 90.000000
_cell_angle_beta 90.000000
_cell_angle_gamma 90.000000
_cell_volume 1943.171285
_symmetry_space_group_name_H-M "I M M A"
_symmetry_group_IT_number 74
_symmetry_cell_setting 'orthorhombic'
loop_
_space_group_symop_operation_xyz
x,y,z
-x,1/2-y,z
x,-y,-z
-x,1/2+y,-z
-x,-y,-z
x,1/2+y,-z
-x,y,z
x,1/2-y,z
1/2+x,1/2+y,1/2+z
1/2-x,-y,1/2+z
1/2+x,1/2-y,1/2-z
1/2-x,y,1/2-z
1/2-x,1/2-y,1/2-z
1/2+x,y,1/2-z
1/2-x,1/2+y,1/2+z
1/2+x,-y,1/2+z
loop_
_atom_site_type_symbol
_atom_site_label
_atom_site_fract_x
_atom_site_fract_y
_atom_site_fract_z
Si Si1 0.120996 0.250000 0.845262
Si Si2 0.377746 0.516323 0.668760
Si Si3 0.312976 0.250000 0.993292
Si Si4 0.378696 0.750000 0.801773
Si Si5 0.207635 0.500000 0.500000
O O1 0.133133 0.378256 0.791104
O O2 0.203327 0.250000 0.933097
O O3 0.000000 0.250000 0.882886
O O4 0.500000 0.525535 0.631331
O O5 0.366936 0.627152 0.741532
O O6 0.289585 0.524004 0.586745
O O7 0.360111 0.381850 0.974010
O O8 0.303634 0.250000 0.107392
O O9 0.500000 0.750000 0.839168
#
# Coordination Sequence:
#
# PCOD9535975 Si02
#       5
#     8  16   8   8   8
#     4   8  16  33  57  85 114 142 174 218 278 339
#     4   9  17  30  51  80 110 139 174 220 275 326
#     4  10  21  36  54  81 111 145 185 221 270 325
#     4  10  21  37  57  82 111 143 183 230 272 313
#     4  10  19  32  53  76 108 144 178 220 268 328
#
# _framework density 24.701889000000001
#
# number of rings (size 3 to 8) (size 9 to 14) (size 15 to 20)
#    0.000    2.667    0.000    1.500    0.000    4.000 
#    0.000    7.500    0.000    6.000    0.000    9.333 
#    0.000    0.000    0.000    0.000    0.000    0.000 
#
# Total GULP energy -133864.479769 kJ/mol
# GULP energy per Si atom -5577.686657 kJ/mol
# Density = 2.464567 g / cm^3
# Si number density = 24.701889 Si / 1000 Ang^3
#
#
#
# Elastic Constant Matrix: (Units=GPa)
#
#
# Indices 1 2 3 4 5 6 
#
# 1 64.0960 27.5145 0.2638 0.0000 0.0000 0.0000
# 2 27.5145 275.3228 47.7819 0.0000 0.0000 0.0000
# 3 0.2638 47.7819 61.3007 0.0000 0.0000 0.0000
# 4 0.0000 0.0000 0.0000 5.1129 0.0000 0.0000
# 5 0.0000 0.0000 0.0000 0.0000 9.3883 0.0000
# 6 0.0000 0.0000 0.0000 0.0000 0.0000 221.7234
#
#
#
# Elastic Compliance Matrix: (Units=1/GPa)
#
#
# Indices 1 2 3 4 5 6 
#
# 1 0.016404 -0.001882 0.001396 0.000000 0.000000 0.000000
# 2 -0.001882 0.004416 -0.003434 0.000000 0.000000 0.000000
# 3 0.001396 -0.003434 0.018984 0.000000 0.000000 0.000000
# 4 0.000000 0.000000 0.000000 0.195583 0.000000 0.000000
# 5 0.000000 0.000000 0.000000 0.000000 0.106516 0.000000
# 6 0.000000 0.000000 0.000000 0.000000 0.000000 0.004510
#
#
# Mechanical properties :
#
#
# Convention : Reuss Voigt Hill
#
# Bulk Modulus (GPa) = 31.28505 61.31554 46.30030
# Shear Modulus (GPa) = 13.70216 68.92220 41.31218
#
# Velocity S-wave (km/s) = 2.35776 5.28793 4.09397
# Velocity P-wave (km/s) = 4.48382 7.88410 6.41341
#
# Compressibility (1/GPa) = 0.03196415
#
# Stress axis : x y z
#
# Youngs Moduli (GPa) = 60.96237 226.44283 52.67643
#
# Poissons Ratio (x) = 0.42607 -0.07354
# Poissons Ratio (y) = 0.11471 0.18090
# Poissons Ratio (z) = -0.08511 0.77763
#
# Static dielectric constant tensor:
#      x y z
#    x 1.920630 0.000000 0.000000 
#    y 0.000000 2.112460 0.000000 
#    z 0.000000 0.000000 1.920080 
# 
# From -- ./inp_files/21414.got.cif
#   From: 2010.05.17/outbox.cif.g08.bks.cpg/sg74_11_cif.got.tgz:21414.got - 2010.06.03 17:57:02.
