data_PCOD9535858
_publ_section_title
;
Structure prediction by ZEFSAII (Michael W. Deem and Ramdas Pophale) SiO2 
 PCOD9535858
Probable space group: I M M A
;
_chemical_formula_sum "Si O2"
_cell_formula_units_Z 104
_cell_length_a 23.097724
_cell_length_b 7.703066
_cell_length_c 27.572583
_cell_angle_alpha 90.000000
_cell_angle_beta 90.000000
_cell_angle_gamma 90.000000
_cell_volume 4905.804748
_symmetry_space_group_name_H-M "I M M A"
_symmetry_group_IT_number 74
_symmetry_cell_setting 'orthorhombic'
loop_
_space_group_symop_operation_xyz
x,y,z
-x,1/2-y,z
x,-y,-z
-x,1/2+y,-z
-x,-y,-z
x,1/2+y,-z
-x,y,z
x,1/2-y,z
1/2+x,1/2+y,1/2+z
1/2-x,-y,1/2+z
1/2+x,1/2-y,1/2-z
1/2-x,y,1/2-z
1/2-x,1/2-y,1/2-z
1/2+x,y,1/2-z
1/2-x,1/2+y,1/2+z
1/2+x,-y,1/2+z
loop_
_atom_site_type_symbol
_atom_site_label
_atom_site_fract_x
_atom_site_fract_y
_atom_site_fract_z
Si Si1 0.000000 0.457348 0.055198
Si Si2 0.175065 0.449176 0.382350
Si Si3 0.720076 0.459228 0.443372
Si Si4 0.934580 0.043171 0.324406
Si Si5 0.106353 0.040319 0.115855
Si Si6 0.610323 0.546497 0.282005
Si Si7 0.233685 0.948856 0.194197
O O1 0.940816 0.522987 0.077791
O O2 0.000000 0.250000 0.062791
O O3 0.000000 0.500000 0.000000
O O4 0.162225 0.250000 0.396000
O O5 0.216781 0.524686 0.424435
O O6 0.115206 0.527172 0.360932
O O7 0.218646 0.452610 0.336416
O O8 0.709492 0.500000 0.500000
O O9 0.721557 0.250000 0.439138
O O10 0.669051 0.518323 0.406202
O O11 0.936634 0.250000 0.332316
O O12 0.000000 0.973748 0.330733
O O13 0.915293 0.020239 0.268130
O O14 0.108613 0.250000 0.117263
O O15 0.078797 0.978054 0.167202
O O16 0.621211 0.750000 0.273150
O O17 0.670909 0.466080 0.300957
O O18 0.231183 0.750000 0.175466
O O19 0.250000 0.937869 0.250000
#
# Coordination Sequence:
#
# PCOD9535858 Si02
#       7
#     8  16  16  16  16  16  16
#     4  10  22  38  56  74 100 142 188 232 273 316
#     4  10  20  35  56  80 106 139 182 225 269 324
#     4  10  21  36  56  81 107 136 176 228 280 329
#     4  10  22  38  56  78 108 148 187 224 269 323
#     4  10  21  37  54  77 110 146 184 225 270 319
#     4  11  22  34  52  80 112 145 180 218 264 318
#     4  10  19  32  50  77 111 141 170 210 261 312
#
# _framework density 21.199376999999998
#
# number of rings (size 3 to 8) (size 9 to 14) (size 15 to 20)
#    0.000    1.846    3.077    0.923    1.077    3.077 
#    0.000    0.000    0.000    0.462    0.000    0.000 
#    0.000    0.000    0.000    0.000    0.000    0.000 
#
# Total GULP energy -289634.118786 kJ/mol
# GULP energy per Si atom -5569.886900 kJ/mol
# Density = 2.115113 g / cm^3
# Si number density = 21.199377 Si / 1000 Ang^3
#
#
#
# Elastic Constant Matrix: (Units=GPa)
#
#
# Indices 1 2 3 4 5 6 
#
# 1 132.5445 10.3810 27.9571 0.0000 0.0000 0.0000
# 2 10.3810 41.3871 1.9946 0.0000 0.0000 0.0000
# 3 27.9571 1.9946 76.7974 0.0000 0.0000 0.0000
# 4 0.0000 0.0000 0.0000 22.4127 0.0000 0.0000
# 5 0.0000 0.0000 0.0000 0.0000 35.7842 0.0000
# 6 0.0000 0.0000 0.0000 0.0000 0.0000 -7.4027
#
#
#
# Elastic Compliance Matrix: (Units=1/GPa)
#
#
# Indices 1 2 3 4 5 6 
#
# 1 0.008326 -0.001945 -0.002980 0.000000 0.000000 0.000000
# 2 -0.001945 0.024647 0.000068 0.000000 0.000000 0.000000
# 3 -0.002980 0.000068 0.014104 0.000000 0.000000 0.000000
# 4 0.000000 0.000000 0.000000 0.044618 0.000000 0.000000
# 5 0.000000 0.000000 0.000000 0.000000 0.027945 0.000000
# 6 0.000000 0.000000 0.000000 0.000000 0.000000 -0.135087
#
#
# Mechanical properties :
#
#
# Convention : Reuss Voigt Hill
#
# Bulk Modulus (GPa) = 26.76492 36.82159 31.79326
# Shear Modulus (GPa) = 743.89030 24.18526 384.03778
#
# Velocity S-wave (km/s) = 18.75270 3.38131 13.47399
# Velocity P-wave (km/s) = 21.94397 5.71412 16.03417
#
# Compressibility (1/GPa) = 0.03736234
#
# Stress axis : x y z
#
# Youngs Moduli (GPa) = 120.11200 40.57353 70.89964
#
# Poissons Ratio (x) = 0.07890 0.21130
# Poissons Ratio (y) = 0.23358 -0.00481
# Poissons Ratio (z) = 0.35797 -0.00275
#
# Static dielectric constant tensor:
#      x y z
#    x 1.577740 0.000000 0.000000 
#    y 0.000000 1.559950 0.000000 
#    z 0.000000 0.000000 2.008760 
# 
# From -- ./inp_files/64475.got.cif
#   From: 2010.05.17/outbox.cif.g08.bks.cpg/sg74_33_cif.got.tgz:64475.got - 2010.06.03 17:57:02.
