data_PCOD9535850
_publ_section_title
;
Structure prediction by ZEFSAII (Michael W. Deem and Ramdas Pophale) SiO2 
 PCOD9535850
Probable space group: I M M A
;
_chemical_formula_sum "Si O2"
_cell_formula_units_Z 96
_cell_length_a 8.798786
_cell_length_b 22.292250
_cell_length_c 28.222909
_cell_angle_alpha 90.000000
_cell_angle_beta 90.000000
_cell_angle_gamma 90.000000
_cell_volume 5535.775069
_symmetry_space_group_name_H-M "I M M A"
_symmetry_group_IT_number 74
_symmetry_cell_setting 'orthorhombic'
loop_
_space_group_symop_operation_xyz
x,y,z
-x,1/2-y,z
x,-y,-z
-x,1/2+y,-z
-x,-y,-z
x,1/2+y,-z
-x,y,z
x,1/2-y,z
1/2+x,1/2+y,1/2+z
1/2-x,-y,1/2+z
1/2+x,1/2-y,1/2-z
1/2-x,y,1/2-z
1/2-x,1/2-y,1/2-z
1/2+x,y,1/2-z
1/2-x,1/2+y,1/2+z
1/2+x,-y,1/2+z
loop_
_atom_site_type_symbol
_atom_site_label
_atom_site_fract_x
_atom_site_fract_y
_atom_site_fract_z
Si Si1 0.181179 0.750000 0.524837
Si Si2 0.182886 0.503175 0.699406
Si Si3 0.679445 0.866441 0.474922
Si Si4 0.677404 0.435304 0.894487
Si Si5 0.317639 0.881176 0.651106
Si Si6 0.821622 0.564709 0.557137
Si Si7 0.817140 0.750000 0.868887
O O1 0.239757 0.691926 0.496467
O O2 0.245230 0.750000 0.578556
O O3 0.000000 0.750000 0.527088
O O4 0.250000 0.486268 0.750000
O O5 0.228323 0.456868 0.657617
O O6 0.244025 0.569185 0.685105
O O7 0.000000 0.505264 0.700117
O O8 0.500000 0.858711 0.477532
O O9 0.730539 0.884797 0.422220
O O10 0.733704 0.919873 0.509584
O O11 0.500000 0.418051 0.892334
O O12 0.686727 0.496472 0.925325
O O13 0.500000 0.887800 0.652301
O O14 0.254387 0.896943 0.598994
O O15 0.277643 0.811393 0.658377
O O16 0.000000 0.579971 0.551678
O O17 0.000000 0.750000 0.875582
#
# Coordination Sequence:
#
# PCOD9535850 Si02
#       7
#     8  16  16  16  16  16   8
#     4  12  24  36  54  73 104 151 188 220 261 310
#     4  10  21  38  59  81 106 134 173 223 275 330
#     4  12  23  34  50  76 109 141 180 221 260 311
#     4   9  20  36  53  76 106 138 174 217 265 320
#     4  10  19  32  52  76 106 140 179 226 271 315
#     4  10  19  32  50  74 106 143 180 217 260 313
#     4  10  20  34  51  75 106 141 184 228 264 310
#
# _framework density 17.341745
#
# number of rings (size 3 to 8) (size 9 to 14) (size 15 to 20)
#    0.000    1.667    1.667    5.250    0.000    6.667 
#    0.000    0.417    0.000    0.000    0.000    0.583 
#    0.000    0.000    0.000    0.000    0.000    0.000 
#
# Total GULP energy -267956.185466 kJ/mol
# GULP energy per Si atom -5582.420531 kJ/mol
# Density = 1.730227 g / cm^3
# Si number density = 17.341745 Si / 1000 Ang^3
#
#
#
# Elastic Constant Matrix: (Units=GPa)
#
#
# Indices 1 2 3 4 5 6 
#
# 1 64.2540 11.6538 23.7272 0.0000 0.0000 0.0000
# 2 11.6538 20.3934 20.4696 0.0000 0.0000 0.0000
# 3 23.7272 20.4696 88.5978 0.0000 0.0000 0.0000
# 4 0.0000 0.0000 0.0000 15.7878 0.0000 0.0000
# 5 0.0000 0.0000 0.0000 0.0000 27.2813 0.0000
# 6 0.0000 0.0000 0.0000 0.0000 0.0000 51.6610
#
#
#
# Elastic Compliance Matrix: (Units=1/GPa)
#
#
# Indices 1 2 3 4 5 6 
#
# 1 0.018028 -0.007103 -0.003187 0.000000 0.000000 0.000000
# 2 -0.007103 0.066639 -0.013494 0.000000 0.000000 0.000000
# 3 -0.003187 -0.013494 0.015258 0.000000 0.000000 0.000000
# 4 0.000000 0.000000 0.000000 0.063340 0.000000 0.000000
# 5 0.000000 0.000000 0.000000 0.000000 0.036655 0.000000
# 6 0.000000 0.000000 0.000000 0.000000 0.000000 0.019357
#
#
# Mechanical properties :
#
#
# Convention : Reuss Voigt Hill
#
# Bulk Modulus (GPa) = 19.09970 31.66069 25.38019
# Shear Modulus (GPa) = 17.58716 26.77232 22.17974
#
# Velocity S-wave (km/s) = 3.18803 3.93339 3.58016
# Velocity P-wave (km/s) = 4.95873 6.23902 5.63535
#
# Compressibility (1/GPa) = 0.05235685
#
# Stress axis : x y z
#
# Youngs Moduli (GPa) = 55.46791 15.00628 65.53912
#
# Poissons Ratio (x) = 0.10660 0.20887
# Poissons Ratio (y) = 0.39401 0.88437
# Poissons Ratio (z) = 0.17678 0.20249
#
# Static dielectric constant tensor:
#      x y z
#    x 1.579190 0.000000 0.000000 
#    y 0.000000 1.624340 0.000000 
#    z 0.000000 0.000000 1.618490 
# 
# From -- ./inp_files/64728.got.cif
#   From: 2010.05.17/outbox.cif.g08.bks.cpg/sg74_33_cif.got.tgz:64728.got - 2010.06.03 17:57:02.
