data_PCOD9535599
_publ_section_title
;
Structure prediction by ZEFSAII (Michael W. Deem and Ramdas Pophale) SiO2 
 PCOD9535599
Probable space group: I M M A
;
_chemical_formula_sum "Si O2"
_cell_formula_units_Z 72
_cell_length_a 32.677210
_cell_length_b 9.517422
_cell_length_c 13.267329
_cell_angle_alpha 90.000000
_cell_angle_beta 90.000000
_cell_angle_gamma 90.000000
_cell_volume 4126.176432
_symmetry_space_group_name_H-M "I M M A"
_symmetry_group_IT_number 74
_symmetry_cell_setting 'orthorhombic'
loop_
_space_group_symop_operation_xyz
x,y,z
-x,1/2-y,z
x,-y,-z
-x,1/2+y,-z
-x,-y,-z
x,1/2+y,-z
-x,y,z
x,1/2-y,z
1/2+x,1/2+y,1/2+z
1/2-x,-y,1/2+z
1/2+x,1/2-y,1/2-z
1/2-x,y,1/2-z
1/2-x,1/2-y,1/2-z
1/2+x,y,1/2-z
1/2-x,1/2+y,1/2+z
1/2+x,-y,1/2+z
loop_
_atom_site_type_symbol
_atom_site_label
_atom_site_fract_x
_atom_site_fract_y
_atom_site_fract_z
Si Si1 0.797947 0.087566 0.230370
Si Si2 0.349525 0.593465 0.409083
Si Si3 0.000000 0.919713 0.107731
Si Si4 0.576980 0.590517 0.250647
Si Si5 0.131348 0.417602 0.395318
O O1 0.805368 0.250000 0.201224
O O2 0.750000 0.070561 0.250000
O O3 0.827867 0.061352 0.326111
O O4 0.811675 0.984422 0.142106
O O5 0.365135 0.500000 0.500000
O O6 0.339320 0.750000 0.442596
O O7 0.384606 0.599623 0.325742
O O8 0.960921 0.952781 0.178610
O O9 0.000000 0.750000 0.089212
O O10 0.000000 0.000000 0.000000
O O11 0.568994 0.750000 0.211649
O O12 0.592647 0.484562 0.164713
O O13 0.135920 0.500000 0.500000
O O14 0.126377 0.250000 0.409789
#
# Coordination Sequence:
#
# PCOD9535599 Si02
#       5
#    16  16   8  16  16
#     4   9  19  35  52  73 101 131 167 211 256 303
#     4  10  19  31  49  72 100 133 166 202 246 298
#     4  10  20  34  55  82 111 140 169 208 256 308
#     4   9  19  35  53  76 105 135 170 210 252 301
#     4  10  20  35  56  77 101 136 175 216 260 307
#
# _framework density 17.449569
#
# number of rings (size 3 to 8) (size 9 to 14) (size 15 to 20)
#    0.000    2.444    0.000    2.000    0.000    4.000 
#    0.000    2.778    0.000    0.000    0.000    0.000 
#    0.000    0.000    0.000    0.000    0.000    0.000 
#
# Total GULP energy -200569.351366 kJ/mol
# GULP energy per Si atom -5571.370871 kJ/mol
# Density = 1.740985 g / cm^3
# Si number density = 17.449569 Si / 1000 Ang^3
#
#
#
# Elastic Constant Matrix: (Units=GPa)
#
#
# Indices 1 2 3 4 5 6 
#
# 1 82.6297 35.0576 17.5325 0.0000 0.0000 0.0000
# 2 35.0576 97.3567 47.6679 0.0000 0.0000 0.0000
# 3 17.5325 47.6679 62.2741 0.0000 0.0000 0.0000
# 4 0.0000 0.0000 0.0000 454.3085 0.0000 0.0000
# 5 0.0000 0.0000 0.0000 0.0000 11.1094 0.0000
# 6 0.0000 0.0000 0.0000 0.0000 0.0000 25.7395
#
#
#
# Elastic Compliance Matrix: (Units=1/GPa)
#
#
# Indices 1 2 3 4 5 6 
#
# 1 0.014285 -0.005078 -0.000135 0.000000 0.000000 0.000000
# 2 -0.005078 0.018234 -0.012527 0.000000 0.000000 0.000000
# 3 -0.000135 -0.012527 0.025685 0.000000 0.000000 0.000000
# 4 0.000000 0.000000 0.000000 0.002201 0.000000 0.000000
# 5 0.000000 0.000000 0.000000 0.000000 0.090014 0.000000
# 6 0.000000 0.000000 0.000000 0.000000 0.000000 0.038851
#
#
# Mechanical properties :
#
#
# Convention : Reuss Voigt Hill
#
# Bulk Modulus (GPa) = 44.00714 49.19739 46.60226
# Shear Modulus (GPa) = 21.52154 107.69831 64.60992
#
# Velocity S-wave (km/s) = 3.51573 7.86472 6.09155
# Velocity P-wave (km/s) = 6.46180 10.52269 8.73160
#
# Compressibility (1/GPa) = 0.02272359
#
# Stress axis : x y z
#
# Youngs Moduli (GPa) = 70.00223 54.84334 38.93297
#
# Poissons Ratio (x) = 0.27849 0.00525
# Poissons Ratio (y) = 0.35547 0.48773
# Poissons Ratio (z) = 0.00944 0.68705
#
# Static dielectric constant tensor:
#      x y z
#    x 1.768410 0.000000 0.000000 
#    y 0.000000 1.613380 0.000000 
#    z 0.000000 0.000000 1.584110 
# 
# From -- ./inp_files/29397.got.cif
#   From: 2010.05.17/outbox.cif.g08.bks.cpg/sg74_15_cif.got.tgz:29397.got - 2010.06.03 17:57:02.
