data_PCOD9535305
_publ_section_title
;
Structure prediction by ZEFSAII (Michael W. Deem and Ramdas Pophale) SiO2 
 PCOD9535305
Probable space group: I M M A
;
_chemical_formula_sum "Si O2"
_cell_formula_units_Z 112
_cell_length_a 26.206385
_cell_length_b 18.159150
_cell_length_c 15.686304
_cell_angle_alpha 90.000000
_cell_angle_beta 90.000000
_cell_angle_gamma 90.000000
_cell_volume 7464.887386
_symmetry_space_group_name_H-M "I M M A"
_symmetry_group_IT_number 74
_symmetry_cell_setting 'orthorhombic'
loop_
_space_group_symop_operation_xyz
x,y,z
-x,1/2-y,z
x,-y,-z
-x,1/2+y,-z
-x,-y,-z
x,1/2+y,-z
-x,y,z
x,1/2-y,z
1/2+x,1/2+y,1/2+z
1/2-x,-y,1/2+z
1/2+x,1/2-y,1/2-z
1/2-x,y,1/2-z
1/2-x,1/2-y,1/2-z
1/2+x,y,1/2-z
1/2-x,1/2+y,1/2+z
1/2+x,-y,1/2+z
loop_
_atom_site_type_symbol
_atom_site_label
_atom_site_fract_x
_atom_site_fract_y
_atom_site_fract_z
Si Si1 0.297590 0.955829 0.420301
Si Si2 0.780939 0.336335 0.607055
Si Si3 0.654106 0.335872 0.060546
Si Si4 0.214264 0.055331 0.331328
Si Si5 0.442533 0.586381 0.987314
Si Si6 0.058767 0.837817 0.326826
Si Si7 0.155151 0.924587 0.260047
O O1 0.268466 0.877976 0.430615
O O2 0.333410 0.941254 0.338774
O O3 0.321419 0.000000 0.500000
O O4 0.250654 0.009066 0.393701
O O5 0.771807 0.250000 0.618573
O O6 0.824915 0.346747 0.535809
O O7 0.801994 0.372416 0.694509
O O8 0.648422 0.250000 0.075019
O O9 0.694169 0.372447 0.123824
O O10 0.600625 0.376938 0.069059
O O11 0.250000 0.069174 0.250000
O O12 0.166862 0.002360 0.306437
O O13 0.500000 0.592548 0.953028
O O14 0.441058 0.629405 0.077486
O O15 0.431523 0.500000 0.000000
O O16 0.071102 0.750000 0.327825
O O17 0.101346 0.884883 0.276728
O O18 0.000000 0.845555 0.295436
#
# Coordination Sequence:
#
# PCOD9535305 Si02
#       7
#    16  16  16  16  16  16  16
#     4  10  19  32  48  66  94 126 155 198 243 283
#     4  10  19  29  45  72  98 125 156 193 242 291
#     4  11  20  29  47  68  94 130 160 198 241 281
#     4   9  19  33  48  66  91 128 166 199 236 280
#     4  10  20  31  46  69  97 132 168 198 234 287
#     4  10  19  31  47  69 100 131 157 195 248 301
#     4  10  19  30  49  70  90 125 164 196 235 287
#
# _framework density 15.003576000000001
#
# number of rings (size 3 to 8) (size 9 to 14) (size 15 to 20)
#    0.000    2.000    2.857    3.000    2.000    2.857 
#    0.000    0.000    0.000    0.429    0.000    0.000 
#    0.000    0.000    0.000    2.857    0.000    0.000 
#
# Total GULP energy -311945.361509 kJ/mol
# GULP energy per Si atom -5570.452884 kJ/mol
# Density = 1.496943 g / cm^3
# Si number density = 15.003576 Si / 1000 Ang^3
#
#
#
# Elastic Constant Matrix: (Units=GPa)
#
#
# Indices 1 2 3 4 5 6 
#
# 1 65.1298 38.7268 17.7524 0.0000 0.0000 0.0000
# 2 38.7268 60.5026 39.4263 0.0000 0.0000 0.0000
# 3 17.7524 39.4263 58.7015 0.0000 0.0000 0.0000
# 4 0.0000 0.0000 0.0000 18.9883 0.0000 0.0000
# 5 0.0000 0.0000 0.0000 0.0000 14.0811 0.0000
# 6 0.0000 0.0000 0.0000 0.0000 0.0000 13.7654
#
#
#
# Elastic Compliance Matrix: (Units=1/GPa)
#
#
# Indices 1 2 3 4 5 6 
#
# 1 0.025877 -0.020386 0.005867 0.000000 0.000000 0.000000
# 2 -0.020386 0.045453 -0.024363 0.000000 0.000000 0.000000
# 3 0.005867 -0.024363 0.031624 0.000000 0.000000 0.000000
# 4 0.000000 0.000000 0.000000 0.052664 0.000000 0.000000
# 5 0.000000 0.000000 0.000000 0.000000 0.071017 0.000000
# 6 0.000000 0.000000 0.000000 0.000000 0.000000 0.072646
#
#
# Mechanical properties :
#
#
# Convention : Reuss Voigt Hill
#
# Bulk Modulus (GPa) = 39.69984 41.79384 40.74684
# Shear Modulus (GPa) = 12.97208 15.26219 14.11714
#
# Velocity S-wave (km/s) = 2.94360 3.19288 3.07077
# Velocity P-wave (km/s) = 6.17015 6.44275 6.30792
#
# Compressibility (1/GPa) = 0.02518902
#
# Stress axis : x y z
#
# Youngs Moduli (GPa) = 38.64470 22.00061 31.62116
#
# Poissons Ratio (x) = 0.44851 -0.18551
# Poissons Ratio (y) = 0.78782 0.77039
# Poissons Ratio (z) = -0.22672 0.53600
#
# Static dielectric constant tensor:
#      x y z
#    x 1.514200 0.000000 0.000000 
#    y 0.000000 1.500500 0.000000 
#    z 0.000000 0.000000 1.511270 
# 
# From -- ./inp_files/46255.got.cif
#   From: 2010.05.17/outbox.cif.g08.bks.cpg/sg74_24_cif.got.tgz:46255.got - 2010.06.03 17:57:02.
