data_PCOD9535755
_publ_section_title
;
Structure prediction by ZEFSAII (Michael W. Deem and Ramdas Pophale) SiO2 
 PCOD9535755
Probable space group: I M M A
;
_chemical_formula_sum "Si O2"
_cell_formula_units_Z 68
_cell_length_a 17.988186
_cell_length_b 15.991629
_cell_length_c 9.751953
_cell_angle_alpha 90.000000
_cell_angle_beta 90.000000
_cell_angle_gamma 90.000000
_cell_volume 2805.250670
_symmetry_space_group_name_H-M "I M M A"
_symmetry_group_IT_number 74
_symmetry_cell_setting 'orthorhombic'
loop_
_space_group_symop_operation_xyz
x,y,z
-x,1/2-y,z
x,-y,-z
-x,1/2+y,-z
-x,-y,-z
x,1/2+y,-z
-x,y,z
x,1/2-y,z
1/2+x,1/2+y,1/2+z
1/2-x,-y,1/2+z
1/2+x,1/2-y,1/2-z
1/2-x,y,1/2-z
1/2-x,1/2-y,1/2-z
1/2+x,y,1/2-z
1/2-x,1/2+y,1/2+z
1/2+x,-y,1/2+z
loop_
_atom_site_type_symbol
_atom_site_label
_atom_site_fract_x
_atom_site_fract_y
_atom_site_fract_z
Si Si1 0.080491 0.147994 0.293877
Si Si2 0.294122 0.153833 0.004411
Si Si3 0.500000 0.000000 0.000000
Si Si4 0.126385 0.647750 0.010359
Si Si5 0.579378 0.116314 0.804075
O O1 0.079171 0.250000 0.304080
O O2 0.152928 0.120523 0.375741
O O3 0.000000 0.119455 0.356338
O O4 0.088323 0.127788 0.134441
O O5 0.279261 0.250000 0.042443
O O6 0.212154 0.117934 0.991096
O O7 0.345829 0.153646 0.869317
O O8 0.564209 0.033694 0.889928
O O9 0.122495 0.750000 0.027365
O O10 0.088932 0.608435 0.142926
O O11 0.500000 0.162608 0.828339
#
# Coordination Sequence:
#
# PCOD9535755 Si02
#       5
#    16  16   4  16  16
#     4   9  17  29  47  79 124 165 191 217 275 363
#     4  10  19  31  53  88 122 152 183 232 307 375
#     4   8  24  40  54  74  96 156 210 252 304 336
#     4  10  19  31  53  88 124 152 187 243 303 361
#     4  10  20  36  55  75 106 151 200 248 295 349
#
# _framework density 24.240258000000001
#
# number of rings (size 3 to 8) (size 9 to 14) (size 15 to 20)
#    0.706    1.647    0.000    3.529    0.000    8.471 
#    0.000    0.000    0.000    8.471    0.000    0.000 
#    0.000    0.000    0.000    0.118    0.000    0.000 
#
# Total GULP energy -189436.303381 kJ/mol
# GULP energy per Si atom -5571.655982 kJ/mol
# Density = 2.418509 g / cm^3
# Si number density = 24.240258 Si / 1000 Ang^3
#
#
#
# Elastic Constant Matrix: (Units=GPa)
#
#
# Indices 1 2 3 4 5 6 
#
# 1 169.5483 5.8817 45.1684 0.0000 0.0000 0.0000
# 2 5.8817 47.1086 -6.0137 0.0000 0.0000 0.0000
# 3 45.1684 -6.0137 160.0258 0.0000 0.0000 0.0000
# 4 0.0000 0.0000 0.0000 10.3465 0.0000 0.0000
# 5 0.0000 0.0000 0.0000 0.0000 28.3747 0.0000
# 6 0.0000 0.0000 0.0000 0.0000 0.0000 15.7570
#
#
#
# Elastic Compliance Matrix: (Units=1/GPa)
#
#
# Indices 1 2 3 4 5 6 
#
# 1 0.006428 -0.001039 -0.001853 0.000000 0.000000 0.000000
# 2 -0.001039 0.021498 0.001101 0.000000 0.000000 0.000000
# 3 -0.001853 0.001101 0.006813 0.000000 0.000000 0.000000
# 4 0.000000 0.000000 0.000000 0.096651 0.000000 0.000000
# 5 0.000000 0.000000 0.000000 0.000000 0.035243 0.000000
# 6 0.000000 0.000000 0.000000 0.000000 0.000000 0.063464
#
#
# Mechanical properties :
#
#
# Convention : Reuss Voigt Hill
#
# Bulk Modulus (GPa) = 32.09594 51.86171 41.97882
# Shear Modulus (GPa) = 20.48637 33.00538 26.74588
#
# Velocity S-wave (km/s) = 2.91028 3.69398 3.32530
# Velocity P-wave (km/s) = 4.95605 6.29566 5.66559
#
# Compressibility (1/GPa) = 0.03115659
#
# Stress axis : x y z
#
# Youngs Moduli (GPa) = 155.57401 46.51623 146.76756
#
# Poissons Ratio (x) = 0.04834 0.27201
# Poissons Ratio (y) = 0.16166 -0.16162
# Poissons Ratio (z) = 0.28833 -0.05122
#
# Static dielectric constant tensor:
#      x y z
#    x 1.915510 0.000000 0.000000 
#    y 0.000000 2.051090 0.000000 
#    z 0.000000 0.000000 1.855740 
# 
# From -- ./inp_files/10651.got.cif
#   From: 2010.05.17/outbox.cif.g08.bks.cpg/sg74_6_cif.got.tgz:10651.got - 2010.06.03 17:57:02.
