data_PCOD9535540
_publ_section_title
;
Structure prediction by ZEFSAII (Michael W. Deem and Ramdas Pophale) SiO2 
 PCOD9535540
Probable space group: I M M A
;
_chemical_formula_sum "Si O2"
_cell_formula_units_Z 96
_cell_length_a 7.465060
_cell_length_b 22.206836
_cell_length_c 31.079710
_cell_angle_alpha 90.000000
_cell_angle_beta 90.000000
_cell_angle_gamma 90.000000
_cell_volume 5152.250212
_symmetry_space_group_name_H-M "I M M A"
_symmetry_group_IT_number 74
_symmetry_cell_setting 'orthorhombic'
loop_
_space_group_symop_operation_xyz
x,y,z
-x,1/2-y,z
x,-y,-z
-x,1/2+y,-z
-x,-y,-z
x,1/2+y,-z
-x,y,z
x,1/2-y,z
1/2+x,1/2+y,1/2+z
1/2-x,-y,1/2+z
1/2+x,1/2-y,1/2-z
1/2-x,y,1/2-z
1/2-x,1/2-y,1/2-z
1/2+x,y,1/2-z
1/2-x,1/2+y,1/2+z
1/2+x,-y,1/2+z
loop_
_atom_site_type_symbol
_atom_site_label
_atom_site_fract_x
_atom_site_fract_y
_atom_site_fract_z
Si Si1 0.283730 0.982962 0.110484
Si Si2 0.717951 0.314418 0.817103
Si Si3 0.793581 0.315001 0.007691
Si Si4 0.208228 0.054656 0.028996
Si Si5 0.286092 0.446785 0.796773
Si Si6 0.284251 0.847892 0.086777
O O1 0.500000 0.985906 0.110212
O O2 0.217045 0.033785 0.078330
O O3 0.222442 0.980840 0.160237
O O4 0.232621 0.918081 0.090542
O O5 0.500000 0.314616 0.814029
O O6 0.782282 0.250000 0.799891
O O7 0.783458 0.377563 0.797717
O O8 0.763539 0.318561 0.867736
O O9 0.713589 0.250000 0.020028
O O10 0.791857 0.319123 0.955906
O O11 0.000000 0.314369 0.022694
O O12 0.711982 0.378872 0.022366
O O13 0.000000 0.059696 0.015524
O O14 0.286504 0.000000 0.000000
O O15 0.500000 0.442727 0.801627
O O16 0.250000 0.473642 0.750000
O O17 0.500000 0.844767 0.083551
#
# Coordination Sequence:
#
# PCOD9535540 Si02
#       6
#    16  16  16  16  16  16
#     4   9  18  31  47  67  89 115 150 191 228 263
#     4   8  14  25  40  57  80 111 146 184 223 261
#     4  10  20  31  42  61  92 122 147 184 228 262
#     4  10  19  31  47  67  90 120 156 186 218 268
#     4   9  18  31  45  63  85 110 143 184 229 270
#     4   9  16  27  44  63  83 113 154 191 222 259
#
# _framework density 18.632636000000002
#
# number of rings (size 3 to 8) (size 9 to 14) (size 15 to 20)
#    0.000    2.833    1.667    2.500    0.000    3.000 
#    0.000    2.500    0.000    1.000    0.000    0.000 
#    0.000    0.667    0.000    1.500    0.000    2.333 
#
# Total GULP energy -267642.698714 kJ/mol
# GULP energy per Si atom -5575.889557 kJ/mol
# Density = 1.859023 g / cm^3
# Si number density = 18.632636 Si / 1000 Ang^3
#
#
#
# Elastic Constant Matrix: (Units=GPa)
#
#
# Indices 1 2 3 4 5 6 
#
# 1 54.0653 6.9043 -4.6832 0.0000 0.0000 0.0000
# 2 6.9043 131.6935 55.3903 0.0000 0.0000 0.0000
# 3 -4.6832 55.3903 101.8692 0.0000 0.0000 0.0000
# 4 0.0000 0.0000 0.0000 -2.3173 0.0000 0.0000
# 5 0.0000 0.0000 0.0000 0.0000 14.8836 0.0000
# 6 0.0000 0.0000 0.0000 0.0000 0.0000 9.2321
#
#
#
# Elastic Compliance Matrix: (Units=1/GPa)
#
#
# Indices 1 2 3 4 5 6 
#
# 1 0.018878 -0.001756 0.001823 0.000000 0.000000 0.000000
# 2 -0.001756 0.010008 -0.005523 0.000000 0.000000 0.000000
# 3 0.001823 -0.005523 0.012903 0.000000 0.000000 0.000000
# 4 0.000000 0.000000 0.000000 -0.431541 0.000000 0.000000
# 5 0.000000 0.000000 0.000000 0.000000 0.067188 0.000000
# 6 0.000000 0.000000 0.000000 0.000000 0.000000 0.108318
#
#
# Mechanical properties :
#
#
# Convention : Reuss Voigt Hill
#
# Bulk Modulus (GPa) = 32.38601 44.76120 38.57360
# Shear Modulus (GPa) = -25.90136 19.69412 -3.10362
#
# Velocity S-wave (km/s) = -3.73246 3.25463 -1.29202
# Velocity P-wave (km/s) = 1.07514 6.18051 4.30365
#
# Compressibility (1/GPa) = 0.03087753
#
# Stress axis : x y z
#
# Youngs Moduli (GPa) = 52.97069 99.91696 77.50008
#
# Poissons Ratio (x) = 0.17550 -0.14128
# Poissons Ratio (y) = 0.09304 0.42801
# Poissons Ratio (z) = -0.09656 0.55181
#
# Static dielectric constant tensor:
#      x y z
#    x 1.778710 0.000000 0.000000 
#    y 0.000000 1.677690 0.000000 
#    z 0.000000 0.000000 1.650320 
# 
# From -- ./inp_files/64657.got.cif
#   From: 2010.05.17/outbox.cif.g08.bks.cpg/sg74_33_cif.got.tgz:64657.got - 2010.06.03 17:57:02.
