data_PCOD9535585
_publ_section_title
;
Structure prediction by ZEFSAII (Michael W. Deem and Ramdas Pophale) SiO2 
 PCOD9535585
Probable space group: I M M A
;
_chemical_formula_sum "Si O2"
_cell_formula_units_Z 72
_cell_length_a 7.478117
_cell_length_b 17.028877
_cell_length_c 23.194449
_cell_angle_alpha 90.000000
_cell_angle_beta 90.000000
_cell_angle_gamma 90.000000
_cell_volume 2953.672396
_symmetry_space_group_name_H-M "I M M A"
_symmetry_group_IT_number 74
_symmetry_cell_setting 'orthorhombic'
loop_
_space_group_symop_operation_xyz
x,y,z
-x,1/2-y,z
x,-y,-z
-x,1/2+y,-z
-x,-y,-z
x,1/2+y,-z
-x,y,z
x,1/2-y,z
1/2+x,1/2+y,1/2+z
1/2-x,-y,1/2+z
1/2+x,1/2-y,1/2-z
1/2-x,y,1/2-z
1/2-x,1/2-y,1/2-z
1/2+x,y,1/2-z
1/2-x,1/2+y,1/2+z
1/2+x,-y,1/2+z
loop_
_atom_site_type_symbol
_atom_site_label
_atom_site_fract_x
_atom_site_fract_y
_atom_site_fract_z
Si Si1 0.789091 0.915716 0.867568
Si Si2 0.712386 0.750000 0.857025
Si Si3 0.214365 0.250000 0.819180
Si Si4 0.279558 0.750000 0.990492
Si Si5 0.200636 0.415121 0.496486
Si Si6 0.713749 0.919007 0.317983
O O1 0.767652 0.834683 0.831980
O O2 0.690902 0.902953 0.927919
O O3 0.000000 0.923843 0.879031
O O4 0.721130 0.998116 0.842590
O O5 0.500000 0.750000 0.858471
O O6 0.783049 0.750000 0.923576
O O7 0.250000 0.250000 0.750000
O O8 0.283867 0.334667 0.840599
O O9 0.000000 0.250000 0.826948
O O10 0.500000 0.750000 0.990994
O O11 0.220273 0.667360 0.017998
O O12 0.291866 0.500000 0.500000
O O13 0.000000 0.422964 0.521242
O O14 0.500000 0.918412 0.326738
O O15 0.750000 0.920514 0.250000
#
# Coordination Sequence:
#
# PCOD9535585 Si02
#       6
#    16   8   8   8  16  16
#     4  10  19  31  48  72  98 123 155 197 242 285
#     4   9  17  31  50  69  90 123 161 193 231 284
#     4   8  14  28  47  66  90 122 157 189 225 272
#     4   7  12  25  44  63  83 111 150 190 225 264
#     4   9  17  30  48  68  91 123 161 196 231 275
#     4   9  18  31  49  71  95 124 158 196 237 282
#
# _framework density 24.376435000000001
#
# number of rings (size 3 to 8) (size 9 to 14) (size 15 to 20)
#    0.000    3.111    0.000    2.333    0.000    2.222 
#    0.000    1.667    0.000    0.000    0.000    0.000 
#    0.000    0.000    0.000    0.000    0.000    0.000 
#
# Total GULP energy -200501.685073 kJ/mol
# GULP energy per Si atom -5569.491252 kJ/mol
# Density = 2.432095 g / cm^3
# Si number density = 24.376435 Si / 1000 Ang^3
#
#
#
# Elastic Constant Matrix: (Units=GPa)
#
#
# Indices 1 2 3 4 5 6 
#
# 1 94.9854 11.3109 -7.3957 0.0000 0.0000 0.0000
# 2 11.3109 326.3973 23.2810 0.0000 0.0000 0.0000
# 3 -7.3957 23.2810 31.2422 0.0000 0.0000 0.0000
# 4 0.0000 0.0000 0.0000 35.9277 0.0000 0.0000
# 5 0.0000 0.0000 0.0000 0.0000 14.6828 0.0000
# 6 0.0000 0.0000 0.0000 0.0000 0.0000 114.1244
#
#
#
# Elastic Compliance Matrix: (Units=1/GPa)
#
#
# Indices 1 2 3 4 5 6 
#
# 1 0.010832 -0.000590 0.003004 0.000000 0.000000 0.000000
# 2 -0.000590 0.003268 -0.002575 0.000000 0.000000 0.000000
# 3 0.003004 -0.002575 0.034638 0.000000 0.000000 0.000000
# 4 0.000000 0.000000 0.000000 0.027834 0.000000 0.000000
# 5 0.000000 0.000000 0.000000 0.000000 0.068107 0.000000
# 6 0.000000 0.000000 0.000000 0.000000 0.000000 0.008762
#
#
# Mechanical properties :
#
#
# Convention : Reuss Voigt Hill
#
# Bulk Modulus (GPa) = 20.65436 56.33525 38.49480
# Shear Modulus (GPa) = 29.42902 61.30891 45.36896
#
# Velocity S-wave (km/s) = 3.47835 5.02051 4.31882
# Velocity P-wave (km/s) = 4.96220 7.53446 6.37932
#
# Compressibility (1/GPa) = 0.04841593
#
# Stress axis : x y z
#
# Youngs Moduli (GPa) = 92.31897 306.01357 28.87036
#
# Poissons Ratio (x) = 0.18043 -0.08671
# Poissons Ratio (y) = 0.05443 0.07433
# Poissons Ratio (z) = -0.27728 0.78789
#
# Static dielectric constant tensor:
#      x y z
#    x 1.911710 0.000000 0.000000 
#    y 0.000000 2.168150 0.000000 
#    z 0.000000 0.000000 1.918260 
# 
# From -- ./inp_files/69998.got.cif
#   From: 2010.05.17/outbox.cif.g08.bks.cpg/sg74_35_cif.got.tgz:69998.got - 2010.06.03 17:57:02.
