data_PCOD9535388
_publ_section_title
;
Structure prediction by ZEFSAII (Michael W. Deem and Ramdas Pophale) SiO2 
 PCOD9535388
Probable space group: I M M A
;
_chemical_formula_sum "Si O2"
_cell_formula_units_Z 104
_cell_length_a 28.999073
_cell_length_b 9.287827
_cell_length_c 28.179872
_cell_angle_alpha 90.000000
_cell_angle_beta 90.000000
_cell_angle_gamma 90.000000
_cell_volume 7589.920881
_symmetry_space_group_name_H-M "I M M A"
_symmetry_group_IT_number 74
_symmetry_cell_setting 'orthorhombic'
loop_
_space_group_symop_operation_xyz
x,y,z
-x,1/2-y,z
x,-y,-z
-x,1/2+y,-z
-x,-y,-z
x,1/2+y,-z
-x,y,z
x,1/2-y,z
1/2+x,1/2+y,1/2+z
1/2-x,-y,1/2+z
1/2+x,1/2-y,1/2-z
1/2-x,y,1/2-z
1/2-x,1/2-y,1/2-z
1/2+x,y,1/2-z
1/2-x,1/2+y,1/2+z
1/2+x,-y,1/2+z
loop_
_atom_site_type_symbol
_atom_site_label
_atom_site_fract_x
_atom_site_fract_y
_atom_site_fract_z
Si Si1 0.000000 0.414440 0.452095
Si Si2 0.576149 0.592350 0.092430
Si Si3 0.786082 0.584898 0.206304
Si Si4 0.785841 0.422715 0.356709
Si Si5 0.054548 0.414409 0.703300
Si Si6 0.321116 0.080622 0.949390
Si Si7 0.143065 0.921448 0.730021
O O1 0.000000 0.500000 0.500000
O O2 0.955238 0.462987 0.424055
O O3 0.000000 0.250000 0.461894
O O4 0.557557 0.750000 0.077166
O O5 0.572440 0.591291 0.149022
O O6 0.626127 0.578310 0.069459
O O7 0.795578 0.750000 0.191723
O O8 0.750000 0.591401 0.250000
O O9 0.759581 0.492577 0.166723
O O10 0.829972 0.504096 0.228241
O O11 0.782121 0.250000 0.361113
O O12 0.794668 0.497796 0.407211
O O13 0.828125 0.451355 0.319176
O O14 0.058419 0.250000 0.721875
O O15 0.090919 0.520662 0.727446
O O16 0.000000 0.453472 0.704133
O O17 0.307948 0.250000 0.953272
O O18 0.317370 0.000000 0.000000
O O19 0.144690 0.750000 0.736849
#
# Coordination Sequence:
#
# PCOD9535388 Si02
#       7
#     8  16  16  16  16  16  16
#     4  12  24  34  46  58  72  94 130 178 228 274
#     4  10  20  35  49  60  77 103 138 181 225 268
#     4   9  17  29  47  68  88 111 139 169 212 263
#     4  10  19  31  47  67  90 111 138 177 221 264
#     4  10  19  32  48  63  83 112 145 180 222 269
#     4  11  22  34  48  63  83 111 145 181 223 269
#     4  10  19  30  46  67  90 111 138 178 221 263
#
# _framework density 13.702382
#
# number of rings (size 3 to 8) (size 9 to 14) (size 15 to 20)
#    0.000    1.846    2.308    3.000    0.000    6.462 
#    0.000    0.000    0.000    0.000    0.000    0.000 
#    0.000    0.000    0.000    0.000    0.000    0.769 
#
# Total GULP energy -289779.828160 kJ/mol
# GULP energy per Si atom -5572.689003 kJ/mol
# Density = 1.367120 g / cm^3
# Si number density = 13.702382 Si / 1000 Ang^3
#
#
#
# Elastic Constant Matrix: (Units=GPa)
#
#
# Indices 1 2 3 4 5 6 
#
# 1 67.4848 53.3868 45.7589 0.0000 0.0000 0.0000
# 2 53.3868 118.0749 48.2649 0.0000 0.0000 0.0000
# 3 45.7589 48.2649 62.2765 0.0000 0.0000 0.0000
# 4 0.0000 0.0000 0.0000 21.9575 0.0000 0.0000
# 5 0.0000 0.0000 0.0000 0.0000 21.1146 0.0000
# 6 0.0000 0.0000 0.0000 0.0000 0.0000 4.6238
#
#
#
# Elastic Compliance Matrix: (Units=1/GPa)
#
#
# Indices 1 2 3 4 5 6 
#
# 1 0.033467 -0.007436 -0.018828 0.000000 0.000000 0.000000
# 2 -0.007436 0.014048 -0.005424 0.000000 0.000000 0.000000
# 3 -0.018828 -0.005424 0.034095 0.000000 0.000000 0.000000
# 4 0.000000 0.000000 0.000000 0.045542 0.000000 0.000000
# 5 0.000000 0.000000 0.000000 0.000000 0.047361 0.000000
# 6 0.000000 0.000000 0.000000 0.000000 0.000000 0.216272
#
#
# Mechanical properties :
#
#
# Convention : Reuss Voigt Hill
#
# Bulk Modulus (GPa) = 54.83837 60.29526 57.56681
# Shear Modulus (GPa) = 10.86392 16.23423 13.54908
#
# Velocity S-wave (km/s) = 2.81881 3.44579 3.14795
# Velocity P-wave (km/s) = 7.12055 7.74147 7.43749
#
# Compressibility (1/GPa) = 0.01823541
#
# Stress axis : x y z
#
# Youngs Moduli (GPa) = 29.88025 71.18252 29.32957
#
# Poissons Ratio (x) = 0.52929 0.55221
# Poissons Ratio (y) = 0.22218 0.15909
# Poissons Ratio (z) = 0.56258 0.38610
#
# Static dielectric constant tensor:
#      x y z
#    x 1.448050 0.000000 0.000000 
#    y 0.000000 1.466140 0.000000 
#    z 0.000000 0.000000 1.453200 
# 
# From -- ./inp_files/57836.got.cif
#   From: 2010.05.17/outbox.cif.g08.bks.cpg/sg74_29_cif.got.tgz:57836.got - 2010.06.03 17:57:02.
