data_PCOD9535051
_publ_section_title
;
Structure prediction by ZEFSAII (Michael W. Deem and Ramdas Pophale) SiO2 
 PCOD9535051
Probable space group: I M M A
;
_chemical_formula_sum "Si O2"
_cell_formula_units_Z 112
_cell_length_a 19.751365
_cell_length_b 17.296066
_cell_length_c 18.116118
_cell_angle_alpha 90.000000
_cell_angle_beta 90.000000
_cell_angle_gamma 90.000000
_cell_volume 6188.844764
_symmetry_space_group_name_H-M "I M M A"
_symmetry_group_IT_number 74
_symmetry_cell_setting 'orthorhombic'
loop_
_space_group_symop_operation_xyz
x,y,z
-x,1/2-y,z
x,-y,-z
-x,1/2+y,-z
-x,-y,-z
x,1/2+y,-z
-x,y,z
x,1/2-y,z
1/2+x,1/2+y,1/2+z
1/2-x,-y,1/2+z
1/2+x,1/2-y,1/2-z
1/2-x,y,1/2-z
1/2-x,1/2-y,1/2-z
1/2+x,y,1/2-z
1/2-x,1/2+y,1/2+z
1/2+x,-y,1/2+z
loop_
_atom_site_type_symbol
_atom_site_label
_atom_site_fract_x
_atom_site_fract_y
_atom_site_fract_z
Si Si1 0.327400 0.910695 0.725246
Si Si2 0.303815 0.157796 0.848830
Si Si3 0.078615 0.657365 0.066421
Si Si4 0.658793 0.407694 0.699335
Si Si5 0.820889 0.343184 0.064617
Si Si6 0.828578 0.343978 0.487412
Si Si7 0.578517 0.843664 0.853487
O O1 0.250000 0.894923 0.750000
O O2 0.338712 0.873596 0.645180
O O3 0.377903 0.876915 0.786195
O O4 0.337500 0.002132 0.716769
O O5 0.293141 0.250000 0.850964
O O6 0.347397 0.136263 0.777304
O O7 0.230650 0.118945 0.835825
O O8 0.334344 0.132281 0.927191
O O9 0.088381 0.750000 0.076814
O O10 0.102381 0.615074 0.140444
O O11 0.000000 0.643617 0.050297
O O12 0.126229 0.632785 0.998438
O O13 0.820710 0.250000 0.066549
O O14 0.745175 0.368795 0.042243
O O15 0.828930 0.250000 0.487183
O O16 0.886008 0.368815 0.430136
O O17 0.500000 0.866413 0.849933
O O18 0.581724 0.750000 0.850183
#
# Coordination Sequence:
#
# PCOD9535051 Si02
#       7
#    16  16  16  16  16  16  16
#     4  12  23  36  56  87 121 156 196 237 284 344
#     4  10  18  33  59  86 112 145 194 246 284 332
#     4  10  21  39  61  85 117 154 193 239 293 349
#     4  11  21  35  53  87 119 154 189 234 286 340
#     4  10  20  35  57  82 108 145 199 247 284 335
#     4   9  17  32  58  85 107 140 191 249 291 328
#     4  10  22  40  61  85 116 154 194 241 296 346
#
# _framework density 18.097076999999999
#
# number of rings (size 3 to 8) (size 9 to 14) (size 15 to 20)
#    0.000    1.714    4.286    2.143    0.000    2.286 
#    0.000    5.000    0.000    3.429    0.000    0.000 
#    0.000    0.000    0.000    0.000    0.000    0.000 
#
# Total GULP energy -312628.370349 kJ/mol
# GULP energy per Si atom -5582.649471 kJ/mol
# Density = 1.805589 g / cm^3
# Si number density = 18.097077 Si / 1000 Ang^3
#
#
#
# Elastic Constant Matrix: (Units=GPa)
#
#
# Indices 1 2 3 4 5 6 
#
# 1 131.3666 32.0808 83.1287 0.0000 0.0000 0.0000
# 2 32.0808 30.8498 30.1303 0.0000 0.0000 0.0000
# 3 83.1287 30.1303 177.6885 0.0000 0.0000 0.0000
# 4 0.0000 0.0000 0.0000 -10.1523 0.0000 0.0000
# 5 0.0000 0.0000 0.0000 0.0000 27.4743 0.0000
# 6 0.0000 0.0000 0.0000 0.0000 0.0000 -34.1731
#
#
#
# Elastic Compliance Matrix: (Units=1/GPa)
#
#
# Indices 1 2 3 4 5 6 
#
# 1 0.012514 -0.008743 -0.004372 0.000000 0.000000 0.000000
# 2 -0.008743 0.044958 -0.003533 0.000000 0.000000 0.000000
# 3 -0.004372 -0.003533 0.008272 0.000000 0.000000 0.000000
# 4 0.000000 0.000000 0.000000 -0.098500 0.000000 0.000000
# 5 0.000000 0.000000 0.000000 0.000000 0.036398 0.000000
# 6 0.000000 0.000000 0.000000 0.000000 0.000000 -0.029263
#
#
# Mechanical properties :
#
#
# Convention : Reuss Voigt Hill
#
# Bulk Modulus (GPa) = 30.81882 70.06494 50.44188
# Shear Modulus (GPa) = 270.39072 9.60080 139.99576
#
# Velocity S-wave (km/s) = 12.23665 2.30579 8.80489
# Velocity P-wave (km/s) = 14.72122 6.77415 11.45869
#
# Compressibility (1/GPa) = 0.03244770
#
# Stress axis : x y z
#
# Youngs Moduli (GPa) = 79.91030 22.24296 120.88662
#
# Poissons Ratio (x) = 0.19448 0.52850
# Poissons Ratio (y) = 0.69869 0.42709
# Poissons Ratio (z) = 0.34936 0.07858
#
# Static dielectric constant tensor:
#      x y z
#    x 1.605970 0.000000 0.000000 
#    y 0.000000 1.611590 0.000000 
#    z 0.000000 0.000000 1.618530 
# 
# From -- ./inp_files/45471.got.cif
#   From: 2010.05.17/outbox.cif.g08.bks.cpg/sg74_23_cif.got.tgz:45471.got - 2010.06.03 17:57:02.
