data_PCOD9535087
_publ_section_title
;
Structure prediction by ZEFSAII (Michael W. Deem and Ramdas Pophale) SiO2 
 PCOD9535087
Probable space group: I M M A
;
_chemical_formula_sum "Si O2"
_cell_formula_units_Z 56
_cell_length_a 28.830398
_cell_length_b 13.908403
_cell_length_c 7.367366
_cell_angle_alpha 90.000000
_cell_angle_beta 90.000000
_cell_angle_gamma 90.000000
_cell_volume 2954.201738
_symmetry_space_group_name_H-M "I M M A"
_symmetry_group_IT_number 74
_symmetry_cell_setting 'orthorhombic'
loop_
_space_group_symop_operation_xyz
x,y,z
-x,1/2-y,z
x,-y,-z
-x,1/2+y,-z
-x,-y,-z
x,1/2+y,-z
-x,y,z
x,1/2-y,z
1/2+x,1/2+y,1/2+z
1/2-x,-y,1/2+z
1/2+x,1/2-y,1/2-z
1/2-x,y,1/2-z
1/2-x,1/2-y,1/2-z
1/2+x,y,1/2-z
1/2-x,1/2+y,1/2+z
1/2+x,-y,1/2+z
loop_
_atom_site_type_symbol
_atom_site_label
_atom_site_fract_x
_atom_site_fract_y
_atom_site_fract_z
Si Si1 0.096508 0.139375 0.494320
Si Si2 0.796018 0.363478 0.566035
Si Si3 0.750000 0.478834 0.250000
Si Si4 0.444349 0.000348 0.710390
O O1 0.084782 0.250000 0.505154
O O2 0.152116 0.128606 0.489190
O O3 0.077587 0.086099 0.672468
O O4 0.073713 0.092436 0.317936
O O5 0.787950 0.250000 0.605555
O O6 0.760115 0.407113 0.417661
O O7 0.791240 0.440959 0.730361
O O8 0.500000 0.005628 0.722268
O O9 0.430933 0.000000 0.500000
#
# Coordination Sequence:
#
# PCOD9535087 Si02
#       4
#    16  16   8  16
#     4  10  21  40  60  83 118 155 191 238 289 343
#     4  10  21  37  55  83 113 145 194 237 285 349
#     4  10  18  34  58  74 106 150 176 234 286 328
#     4  10  21  37  59  88 119 151 192 237 284 345
#
# _framework density 18.956050000000001
#
# number of rings (size 3 to 8) (size 9 to 14) (size 15 to 20)
#    0.000    2.000    0.000    6.000    0.000    3.429 
#   20.571    2.857    0.000    0.000    0.000    0.000 
#    0.000    0.000    0.000    0.000    0.000    0.000 
#
# Total GULP energy -155889.028232 kJ/mol
# GULP energy per Si atom -5567.465294 kJ/mol
# Density = 1.891291 g / cm^3
# Si number density = 18.956050 Si / 1000 Ang^3
#
#
#
# Elastic Constant Matrix: (Units=GPa)
#
#
# Indices 1 2 3 4 5 6 
#
# 1 49.1096 36.6073 55.8077 0.0000 0.0000 0.0000
# 2 36.6073 187.5390 77.8474 0.0000 0.0000 0.0000
# 3 55.8077 77.8474 166.8273 0.0000 0.0000 0.0000
# 4 0.0000 0.0000 0.0000 1.1871 0.0000 0.0000
# 5 0.0000 0.0000 0.0000 0.0000 -24.7981 0.0000
# 6 0.0000 0.0000 0.0000 0.0000 0.0000 45.7681
#
#
#
# Elastic Compliance Matrix: (Units=1/GPa)
#
#
# Indices 1 2 3 4 5 6 
#
# 1 0.033667 -0.002352 -0.010165 0.000000 0.000000 0.000000
# 2 -0.002352 0.006778 -0.002376 0.000000 0.000000 0.000000
# 3 -0.010165 -0.002376 0.010503 0.000000 0.000000 0.000000
# 4 0.000000 0.000000 0.000000 0.842396 0.000000 0.000000
# 5 0.000000 0.000000 0.000000 0.000000 -0.040326 0.000000
# 6 0.000000 0.000000 0.000000 0.000000 0.000000 0.021849
#
#
# Mechanical properties :
#
#
# Convention : Reuss Voigt Hill
#
# Bulk Modulus (GPa) = 47.25391 82.66675 64.96033
# Shear Modulus (GPa) = 5.48421 19.97897 12.73159
#
# Velocity S-wave (km/s) = 1.70276 3.25000 2.59441
# Velocity P-wave (km/s) = 5.37105 7.60182 6.58163
#
# Compressibility (1/GPa) = 0.02116227
#
# Stress axis : x y z
#
# Youngs Moduli (GPa) = 29.70230 147.54557 95.20905
#
# Poissons Ratio (x) = 0.34708 0.96779
# Poissons Ratio (y) = 0.06987 0.22619
# Poissons Ratio (z) = 0.30192 0.35053
#
# Static dielectric constant tensor:
#      x y z
#    x 1.626670 0.000000 0.000000 
#    y 0.000000 1.682120 0.000000 
#    z 0.000000 0.000000 1.705720 
# 
# From -- ./inp_files/14584.got.cif
#   From: 2010.05.17/outbox.cif.g08.bks.cpg/sg74_8_cif.got.tgz:14584.got - 2010.06.03 17:57:02.
