data_PCOD9535726
_publ_section_title
;
Structure prediction by ZEFSAII (Michael W. Deem and Ramdas Pophale) SiO2 
 PCOD9535726
Probable space group: I M M A
;
_chemical_formula_sum "Si O2"
_cell_formula_units_Z 88
_cell_length_a 24.540742
_cell_length_b 15.092372
_cell_length_c 13.552834
_cell_angle_alpha 90.000000
_cell_angle_beta 90.000000
_cell_angle_gamma 90.000000
_cell_volume 5019.671652
_symmetry_space_group_name_H-M "I M M A"
_symmetry_group_IT_number 74
_symmetry_cell_setting 'orthorhombic'
loop_
_space_group_symop_operation_xyz
x,y,z
-x,1/2-y,z
x,-y,-z
-x,1/2+y,-z
-x,-y,-z
x,1/2+y,-z
-x,y,z
x,1/2-y,z
1/2+x,1/2+y,1/2+z
1/2-x,-y,1/2+z
1/2+x,1/2-y,1/2-z
1/2-x,y,1/2-z
1/2-x,1/2-y,1/2-z
1/2+x,y,1/2-z
1/2-x,1/2+y,1/2+z
1/2+x,-y,1/2+z
loop_
_atom_site_type_symbol
_atom_site_label
_atom_site_fract_x
_atom_site_fract_y
_atom_site_fract_z
Si Si1 0.062576 0.497230 0.619500
Si Si2 0.680690 0.960352 0.601239
Si Si3 0.787991 0.146535 0.430143
Si Si4 0.125104 0.144721 0.265972
Si Si5 0.349016 0.352487 0.876598
Si Si6 0.750000 0.585345 0.250000
O O1 0.064913 0.500000 0.500000
O O2 0.081952 0.589062 0.669703
O O3 0.103897 0.420233 0.654662
O O4 0.000000 0.478805 0.646433
O O5 0.730504 0.899225 0.566013
O O6 0.637104 0.903921 0.663161
O O7 0.657286 0.000000 0.500000
O O8 0.712555 0.028324 0.674223
O O9 0.780158 0.250000 0.446747
O O10 0.817982 0.134684 0.326211
O O11 0.828716 0.116024 0.515569
O O12 0.113478 0.250000 0.258798
O O13 0.367230 0.250000 0.881124
O O14 0.294887 0.360307 0.810646
#
# Coordination Sequence:
#
# PCOD9535726 Si02
#       6
#    16  16  16  16  16   8
#     4  11  23  39  61  90 121 153 196 246 295 354
#     4  12  21  32  55  83 119 157 200 247 297 358
#     4  10  19  31  51  81 118 157 196 238 287 351
#     4  11  22  38  58  83 117 158 203 250 299 353
#     4  11  22  37  56  85 122 161 198 234 287 355
#     4  12  21  34  57  82 120 158 193 238 297 358
#
# _framework density 17.531027000000002
#
# number of rings (size 3 to 8) (size 9 to 14) (size 15 to 20)
#    0.000    0.909    7.273    0.818    0.000    2.182 
#    0.000    1.818    0.000    0.545    0.000    0.000 
#    0.000    0.000    0.000    0.000    0.000    0.000 
#
# Total GULP energy -245502.607131 kJ/mol
# GULP energy per Si atom -5579.604708 kJ/mol
# Density = 1.749113 g / cm^3
# Si number density = 17.531027 Si / 1000 Ang^3
#
#
#
# Elastic Constant Matrix: (Units=GPa)
#
#
# Indices 1 2 3 4 5 6 
#
# 1 72.2760 45.6907 22.1446 0.0000 0.0000 0.0000
# 2 45.6907 77.3622 46.3033 0.0000 0.0000 0.0000
# 3 22.1446 46.3033 95.7000 0.0000 0.0000 0.0000
# 4 0.0000 0.0000 0.0000 28.2600 0.0000 0.0000
# 5 0.0000 0.0000 0.0000 0.0000 8.6610 0.0000
# 6 0.0000 0.0000 0.0000 0.0000 0.0000 8.9526
#
#
#
# Elastic Compliance Matrix: (Units=1/GPa)
#
#
# Indices 1 2 3 4 5 6 
#
# 1 0.022275 -0.014176 0.001705 0.000000 0.000000 0.000000
# 2 -0.014176 0.027217 -0.009888 0.000000 0.000000 0.000000
# 3 0.001705 -0.009888 0.014839 0.000000 0.000000 0.000000
# 4 0.000000 0.000000 0.000000 0.035386 0.000000 0.000000
# 5 0.000000 0.000000 0.000000 0.000000 0.115460 0.000000
# 6 0.000000 0.000000 0.000000 0.000000 0.000000 0.111699
#
#
# Mechanical properties :
#
#
# Convention : Reuss Voigt Hill
#
# Bulk Modulus (GPa) = 50.98984 52.62394 51.80689
# Shear Modulus (GPa) = 13.22281 17.92136 15.57209
#
# Velocity S-wave (km/s) = 2.74934 3.20076 2.98360
# Velocity P-wave (km/s) = 6.26316 6.61382 6.44087
#
# Compressibility (1/GPa) = 0.01961175
#
# Stress axis : x y z
#
# Youngs Moduli (GPa) = 44.89255 36.74133 67.38867
#
# Poissons Ratio (x) = 0.52085 -0.11487
# Poissons Ratio (y) = 0.63641 0.66637
# Poissons Ratio (z) = -0.07652 0.36331
#
# Static dielectric constant tensor:
#      x y z
#    x 1.565880 0.000000 0.000000 
#    y 0.000000 1.632940 0.000000 
#    z 0.000000 0.000000 1.807130 
# 
# From -- ./inp_files/24974.got.cif
#   From: 2010.05.17/outbox.cif.g08.bks.cpg/sg74_13_cif.got.tgz:24974.got - 2010.06.03 17:57:02.
