data_PCOD9535212
_publ_section_title
;
Structure prediction by ZEFSAII (Michael W. Deem and Ramdas Pophale) SiO2 
 PCOD9535212
Probable space group: I M M A
;
_chemical_formula_sum "Si O2"
_cell_formula_units_Z 80
_cell_length_a 25.134308
_cell_length_b 7.754770
_cell_length_c 24.669806
_cell_angle_alpha 90.000000
_cell_angle_beta 90.000000
_cell_angle_gamma 90.000000
_cell_volume 4808.411072
_symmetry_space_group_name_H-M "I M M A"
_symmetry_group_IT_number 74
_symmetry_cell_setting 'orthorhombic'
loop_
_space_group_symop_operation_xyz
x,y,z
-x,1/2-y,z
x,-y,-z
-x,1/2+y,-z
-x,-y,-z
x,1/2+y,-z
-x,y,z
x,1/2-y,z
1/2+x,1/2+y,1/2+z
1/2-x,-y,1/2+z
1/2+x,1/2-y,1/2-z
1/2-x,y,1/2-z
1/2-x,1/2-y,1/2-z
1/2+x,y,1/2-z
1/2-x,1/2+y,1/2+z
1/2+x,-y,1/2+z
loop_
_atom_site_type_symbol
_atom_site_label
_atom_site_fract_x
_atom_site_fract_y
_atom_site_fract_z
Si Si1 0.440987 0.953788 0.224420
Si Si2 0.764888 0.960682 0.663950
Si Si3 0.558991 0.048190 0.100816
Si Si4 0.832371 0.457219 0.230687
Si Si5 0.170783 0.957670 0.560563
O O1 0.500000 0.008865 0.242681
O O2 0.442018 0.750000 0.214537
O O3 0.431043 0.037771 0.165567
O O4 0.393428 0.990319 0.265530
O O5 0.764650 0.750000 0.663194
O O6 0.803815 0.013001 0.713248
O O7 0.705756 0.016733 0.681842
O O8 0.789353 0.020631 0.607381
O O9 0.500000 0.972394 0.090286
O O10 0.556165 0.250000 0.086272
O O11 0.610868 0.973638 0.071591
O O12 0.831014 0.250000 0.230481
O O13 0.168285 0.750000 0.566036
O O14 0.187755 0.000000 0.500000
#
# Coordination Sequence:
#
# PCOD9535212 Si02
#       5
#    16  16  16  16  16
#     4  10  19  28  40  63  93 116 136 172 219 258
#     4   8  15  28  46  65  83 106 142 181 216 249
#     4   9  17  30  46  59  76 111 156 189 211 244
#     4   9  15  28  49  65  80 109 144 177 211 255
#     4  10  19  31  44  61  85 112 144 183 218 252
#
# _framework density 16.637512999999998
#
# number of rings (size 3 to 8) (size 9 to 14) (size 15 to 20)
#    0.000    2.800    2.000    1.800    0.000    2.400 
#    0.000    3.000    0.000    0.000    0.000    0.000 
#    0.000    0.800    0.000    1.800    0.000    3.200 
#
# Total GULP energy -222871.287930 kJ/mol
# GULP energy per Si atom -5571.782198 kJ/mol
# Density = 1.659965 g / cm^3
# Si number density = 16.637513 Si / 1000 Ang^3
#
#
#
# Elastic Constant Matrix: (Units=GPa)
#
#
# Indices 1 2 3 4 5 6 
#
# 1 104.5523 -0.1589 61.1674 0.0000 0.0000 0.0000
# 2 -0.1589 21.2890 2.2392 0.0000 0.0000 0.0000
# 3 61.1674 2.2392 93.4501 0.0000 0.0000 0.0000
# 4 0.0000 0.0000 0.0000 8.7803 0.0000 0.0000
# 5 0.0000 0.0000 0.0000 0.0000 22.6713 0.0000
# 6 0.0000 0.0000 0.0000 0.0000 0.0000 60.9513
#
#
#
# Elastic Compliance Matrix: (Units=1/GPa)
#
#
# Indices 1 2 3 4 5 6 
#
# 1 0.015530 0.001188 -0.010194 0.000000 0.000000 0.000000
# 2 0.001188 0.047182 -0.001908 0.000000 0.000000 0.000000
# 3 -0.010194 -0.001908 0.017419 0.000000 0.000000 0.000000
# 4 0.000000 0.000000 0.000000 0.113891 0.000000 0.000000
# 5 0.000000 0.000000 0.000000 0.000000 0.044109 0.000000
# 6 0.000000 0.000000 0.000000 0.000000 0.000000 0.016407
#
#
# Mechanical properties :
#
#
# Convention : Reuss Voigt Hill
#
# Bulk Modulus (GPa) = 17.15159 38.42076 27.78617
# Shear Modulus (GPa) = 16.90335 28.88349 22.89342
#
# Velocity S-wave (km/s) = 3.19090 4.17111 3.71349
# Velocity P-wave (km/s) = 4.88949 6.80739 5.92654
#
# Compressibility (1/GPa) = 0.05830365
#
# Stress axis : x y z
#
# Youngs Moduli (GPa) = 64.39104 21.19441 57.40907
#
# Poissons Ratio (x) = -0.02518 0.58521
# Poissons Ratio (y) = -0.07650 0.10955
# Poissons Ratio (z) = 0.65638 0.04044
#
# Static dielectric constant tensor:
#      x y z
#    x 1.607660 0.000000 0.000000 
#    y 0.000000 1.623450 0.000000 
#    z 0.000000 0.000000 1.536730 
# 
# From -- ./inp_files/63969.got.cif
#   From: 2010.05.17/outbox.cif.g08.bks.cpg/sg74_32_cif.got.tgz:63969.got - 2010.06.03 17:57:02.
