data_PCOD9535036
_publ_section_title
;
Structure prediction by ZEFSAII (Michael W. Deem and Ramdas Pophale) SiO2 
 PCOD9535036
Probable space group: I M M A
;
_chemical_formula_sum "Si O2"
_cell_formula_units_Z 68
_cell_length_a 7.495933
_cell_length_b 17.052640
_cell_length_c 23.345626
_cell_angle_alpha 90.000000
_cell_angle_beta 90.000000
_cell_angle_gamma 90.000000
_cell_volume 2984.165077
_symmetry_space_group_name_H-M "I M M A"
_symmetry_group_IT_number 74
_symmetry_cell_setting 'orthorhombic'
loop_
_space_group_symop_operation_xyz
x,y,z
-x,1/2-y,z
x,-y,-z
-x,1/2+y,-z
-x,-y,-z
x,1/2+y,-z
-x,y,z
x,1/2-y,z
1/2+x,1/2+y,1/2+z
1/2-x,-y,1/2+z
1/2+x,1/2-y,1/2-z
1/2-x,y,1/2-z
1/2-x,1/2-y,1/2-z
1/2+x,y,1/2-z
1/2-x,1/2+y,1/2+z
1/2+x,-y,1/2+z
loop_
_atom_site_type_symbol
_atom_site_label
_atom_site_fract_x
_atom_site_fract_y
_atom_site_fract_z
Si Si1 0.788870 0.159177 0.454156
Si Si2 0.285335 0.339901 0.581071
Si Si3 0.212782 0.559758 0.187653
Si Si4 0.794688 0.115613 0.168751
Si Si5 0.500000 0.750000 0.807040
O O1 0.724876 0.250000 0.453645
O O2 0.758645 0.127876 0.517952
O O3 0.703261 0.116109 0.400736
O O4 0.000000 0.161089 0.443138
O O5 0.500000 0.336995 0.584766
O O6 0.219035 0.250000 0.583803
O O7 0.217309 0.390779 0.634058
O O8 0.250000 0.595207 0.250000
O O9 0.273778 0.469827 0.186779
O O10 0.000000 0.555230 0.180813
O O11 0.658184 0.182023 0.188110
O O12 0.000000 0.130201 0.187982
#
# Coordination Sequence:
#
# PCOD9535036 Si02
#       5
#    16  16  16  16   4
#     4  10  18  33  57  91 128 161 202 251 304 371
#     4   9  19  37  61  91 123 164 207 250 311 379
#     4  10  24  42  62  85 121 164 209 264 319 364
#     4  11  22  39  64  92 128 166 206 256 314 371
#     4  12  22  40  66  96 124 164 216 244 314 382
#
# _framework density 22.786942
#
# number of rings (size 3 to 8) (size 9 to 14) (size 15 to 20)
#    0.000    1.882    2.353    1.059    1.647    3.294 
#    0.000    5.294    0.000    0.000    0.000    0.000 
#    0.000    0.000    0.000    0.000    0.000    0.000 
#
# Total GULP energy -189611.636072 kJ/mol
# GULP energy per Si atom -5576.812826 kJ/mol
# Density = 2.273508 g / cm^3
# Si number density = 22.786942 Si / 1000 Ang^3
#
#
#
# Elastic Constant Matrix: (Units=GPa)
#
#
# Indices 1 2 3 4 5 6 
#
# 1 109.9628 22.8622 3.7892 0.0000 0.0000 0.0000
# 2 22.8622 58.0473 46.2149 0.0000 0.0000 0.0000
# 3 3.7892 46.2149 184.2780 0.0000 0.0000 0.0000
# 4 0.0000 0.0000 0.0000 42.4274 0.0000 0.0000
# 5 0.0000 0.0000 0.0000 0.0000 26.8684 0.0000
# 6 0.0000 0.0000 0.0000 0.0000 0.0000 5.6909
#
#
#
# Elastic Compliance Matrix: (Units=1/GPa)
#
#
# Indices 1 2 3 4 5 6 
#
# 1 0.010045 -0.004738 0.000982 0.000000 0.000000 0.000000
# 2 -0.004738 0.023760 -0.005861 0.000000 0.000000 0.000000
# 3 0.000982 -0.005861 0.006876 0.000000 0.000000 0.000000
# 4 0.000000 0.000000 0.000000 0.023570 0.000000 0.000000
# 5 0.000000 0.000000 0.000000 0.000000 0.037219 0.000000
# 6 0.000000 0.000000 0.000000 0.000000 0.000000 0.175718
#
#
# Mechanical properties :
#
#
# Convention : Reuss Voigt Hill
#
# Bulk Modulus (GPa) = 46.62797 55.33565 50.98181
# Shear Modulus (GPa) = 16.47060 33.62546 25.04803
#
# Velocity S-wave (km/s) = 2.69143 3.84558 3.31906
# Velocity P-wave (km/s) = 5.49230 6.63737 6.09180
#
# Compressibility (1/GPa) = 0.02144636
#
# Stress axis : x y z
#
# Youngs Moduli (GPa) = 99.54993 42.08770 145.42606
#
# Poissons Ratio (x) = 0.19941 -0.14276
# Poissons Ratio (y) = 0.47166 0.85239
# Poissons Ratio (z) = -0.09772 0.24669
#
# Static dielectric constant tensor:
#      x y z
#    x 1.841450 0.000000 0.000000 
#    y 0.000000 1.818440 0.000000 
#    z 0.000000 0.000000 1.901810 
# 
# From -- ./inp_files/48129.got.cif
#   From: 2010.05.17/outbox.cif.g08.bks.cpg/sg74_25_cif.got.tgz:48129.got - 2010.06.03 17:57:02.
