data_PCOD9535675
_publ_section_title
;
Structure prediction by ZEFSAII (Michael W. Deem and Ramdas Pophale) SiO2 
 PCOD9535675
Probable space group: I M M A
;
_chemical_formula_sum "Si O2"
_cell_formula_units_Z 96
_cell_length_a 14.452561
_cell_length_b 15.139901
_cell_length_c 23.508896
_cell_angle_alpha 90.000000
_cell_angle_beta 90.000000
_cell_angle_gamma 90.000000
_cell_volume 5143.989591
_symmetry_space_group_name_H-M "I M M A"
_symmetry_group_IT_number 74
_symmetry_cell_setting 'orthorhombic'
loop_
_space_group_symop_operation_xyz
x,y,z
-x,1/2-y,z
x,-y,-z
-x,1/2+y,-z
-x,-y,-z
x,1/2+y,-z
-x,y,z
x,1/2-y,z
1/2+x,1/2+y,1/2+z
1/2-x,-y,1/2+z
1/2+x,1/2-y,1/2-z
1/2-x,y,1/2-z
1/2-x,1/2-y,1/2-z
1/2+x,y,1/2-z
1/2-x,1/2+y,1/2+z
1/2+x,-y,1/2+z
loop_
_atom_site_type_symbol
_atom_site_label
_atom_site_fract_x
_atom_site_fract_y
_atom_site_fract_z
Si Si1 0.856988 0.351797 0.231922
Si Si2 0.394708 0.520944 0.339624
Si Si3 0.389138 0.250000 0.078932
Si Si4 0.896082 0.917599 0.644168
Si Si5 0.103940 0.652131 0.265679
Si Si6 0.710074 0.901110 0.127482
Si Si7 0.111531 0.750000 0.443828
O O1 0.885751 0.250000 0.221191
O O2 0.750000 0.350842 0.250000
O O3 0.872455 0.420502 0.180381
O O4 0.901098 0.390824 0.289644
O O5 0.500000 0.525267 0.361328
O O6 0.390521 0.576742 0.280969
O O7 0.317212 0.570275 0.377368
O O8 0.500000 0.250000 0.091041
O O9 0.351729 0.336495 0.109965
O O10 0.377924 0.250000 0.011756
O O11 0.000000 0.931640 0.622948
O O12 0.841692 0.005991 0.632600
O O13 0.108178 0.750000 0.239677
O O14 0.183956 0.643091 0.311953
O O15 0.000000 0.644474 0.292749
O O16 0.663667 0.835524 0.082157
O O17 0.000000 0.750000 0.430812
#
# Coordination Sequence:
#
# PCOD9535675 Si02
#       7
#    16  16   8  16  16  16   8
#     4  11  20  33  55  84 121 161 195 227 275 339
#     4  11  23  36  50  80 120 157 196 234 272 332
#     4   9  22  40  59  87 115 145 186 237 289 355
#     4  11  20  34  57  84 118 152 185 227 287 344
#     4  10  19  31  50  76 111 153 189 227 280 339
#     4  12  22  35  55  82 112 154 190 236 282 340
#     4  11  24  42  62  85 113 145 192 243 295 347
#
# _framework density 18.662557
#
# number of rings (size 3 to 8) (size 9 to 14) (size 15 to 20)
#    0.000    1.167    5.000    2.500    1.167    2.333 
#    0.000    2.500    0.000    0.000    0.000    3.500 
#    0.000    0.000    0.000    0.000    0.000    0.000 
#
# Total GULP energy -267764.926561 kJ/mol
# GULP energy per Si atom -5578.435970 kJ/mol
# Density = 1.862008 g / cm^3
# Si number density = 18.662557 Si / 1000 Ang^3
#
#
#
# Elastic Constant Matrix: (Units=GPa)
#
#
# Indices 1 2 3 4 5 6 
#
# 1 116.1373 33.4417 7.0677 0.0000 0.0000 0.0000
# 2 33.4417 147.9346 23.1760 0.0000 0.0000 0.0000
# 3 7.0677 23.1760 35.4230 0.0000 0.0000 0.0000
# 4 0.0000 0.0000 0.0000 9.8803 0.0000 0.0000
# 5 0.0000 0.0000 0.0000 0.0000 -3.5400 0.0000
# 6 0.0000 0.0000 0.0000 0.0000 0.0000 -3.2099
#
#
#
# Elastic Compliance Matrix: (Units=1/GPa)
#
#
# Indices 1 2 3 4 5 6 
#
# 1 0.009219 -0.002001 -0.000530 0.000000 0.000000 0.000000
# 2 -0.002001 0.007966 -0.004813 0.000000 0.000000 0.000000
# 3 -0.000530 -0.004813 0.031485 0.000000 0.000000 0.000000
# 4 0.000000 0.000000 0.000000 0.101211 0.000000 0.000000
# 5 0.000000 0.000000 0.000000 0.000000 -0.282490 0.000000
# 6 0.000000 0.000000 0.000000 0.000000 0.000000 -0.311540
#
#
# Mechanical properties :
#
#
# Convention : Reuss Voigt Hill
#
# Bulk Modulus (GPa) = 29.42724 47.42951 38.42837
# Shear Modulus (GPa) = -11.95791 16.34673 2.19441
#
# Velocity S-wave (km/s) = -2.53404 2.96279 1.08554
# Velocity P-wave (km/s) = 2.69082 6.09702 4.71244
#
# Compressibility (1/GPa) = 0.03398212
#
# Stress axis : x y z
#
# Youngs Moduli (GPa) = 108.47238 125.53281 31.76132
#
# Poissons Ratio (x) = 0.25118 0.01684
# Poissons Ratio (y) = 0.21705 0.15286
# Poissons Ratio (z) = 0.05752 0.60415
#
# Static dielectric constant tensor:
#      x y z
#    x 1.741890 0.000000 0.000000 
#    y 0.000000 1.762770 0.000000 
#    z 0.000000 0.000000 1.610930 
# 
# From -- ./inp_files/60046.got.cif
#   From: 2010.05.17/outbox.cif.g08.bks.cpg/sg74_31_cif.got.tgz:60046.got - 2010.06.03 17:57:02.
