data_PCOD9535842
_publ_section_title
;
Structure prediction by ZEFSAII (Michael W. Deem and Ramdas Pophale) SiO2 
 PCOD9535842
Probable space group: I M M A
;
_chemical_formula_sum "Si O2"
_cell_formula_units_Z 72
_cell_length_a 34.003703
_cell_length_b 8.678546
_cell_length_c 15.009426
_cell_angle_alpha 90.000000
_cell_angle_beta 90.000000
_cell_angle_gamma 90.000000
_cell_volume 4429.322148
_symmetry_space_group_name_H-M "I M M A"
_symmetry_group_IT_number 74
_symmetry_cell_setting 'orthorhombic'
loop_
_space_group_symop_operation_xyz
x,y,z
-x,1/2-y,z
x,-y,-z
-x,1/2+y,-z
-x,-y,-z
x,1/2+y,-z
-x,y,z
x,1/2-y,z
1/2+x,1/2+y,1/2+z
1/2-x,-y,1/2+z
1/2+x,1/2-y,1/2-z
1/2-x,y,1/2-z
1/2-x,1/2-y,1/2-z
1/2+x,y,1/2-z
1/2-x,1/2+y,1/2+z
1/2+x,-y,1/2+z
loop_
_atom_site_type_symbol
_atom_site_label
_atom_site_fract_x
_atom_site_fract_y
_atom_site_fract_z
Si Si1 0.726561 0.065739 0.903901
Si Si2 0.500000 0.564887 0.099826
Si Si3 0.157894 0.934376 0.715151
Si Si4 0.185840 0.934357 0.905662
Si Si5 0.586505 0.564539 0.100777
O O1 0.726592 0.250000 0.906061
O O2 0.696805 0.004296 0.830118
O O3 0.770735 0.004488 0.889802
O O4 0.713474 0.000000 0.000000
O O5 0.500000 0.750000 0.096585
O O6 0.542815 0.519319 0.136498
O O7 0.500000 0.500000 0.000000
O O8 0.159034 0.750000 0.705436
O O9 0.159392 0.971541 0.820135
O O10 0.120476 0.000122 0.663453
O O11 0.189867 0.750000 0.912457
O O12 0.171524 0.000000 0.000000
O O13 0.589112 0.750000 0.096722
O O14 0.590749 0.500000 0.000000
#
# Coordination Sequence:
#
# PCOD9535842 Si02
#       5
#    16   8  16  16  16
#     4  11  21  33  50  70  95 127 161 197 237 282
#     4   8  16  30  48  70  97 128 157 186 225 274
#     4  11  22  34  48  70  98 126 158 197 239 280
#     4  10  21  36  52  68  91 123 160 202 243 283
#     4  10  19  32  50  73 101 130 159 191 229 277
#
# _framework density 16.255307999999999
#
# number of rings (size 3 to 8) (size 9 to 14) (size 15 to 20)
#    0.000    1.778    0.000    6.667    0.000    7.111 
#    0.000    0.000    0.000    0.000    0.000    0.778 
#    0.000    0.000    0.000    0.000    0.000    0.000 
#
# Total GULP energy -200917.740051 kJ/mol
# GULP energy per Si atom -5581.048335 kJ/mol
# Density = 1.621831 g / cm^3
# Si number density = 16.255308 Si / 1000 Ang^3
#
#
#
# Elastic Constant Matrix: (Units=GPa)
#
#
# Indices 1 2 3 4 5 6 
#
# 1 70.7005 37.5242 67.1524 0.0000 0.0000 0.0000
# 2 37.5242 81.5638 53.5538 0.0000 0.0000 0.0000
# 3 67.1524 53.5538 120.7327 0.0000 0.0000 0.0000
# 4 0.0000 0.0000 0.0000 25.3745 0.0000 0.0000
# 5 0.0000 0.0000 0.0000 0.0000 13.9016 0.0000
# 6 0.0000 0.0000 0.0000 0.0000 0.0000 -307.2788
#
#
#
# Elastic Compliance Matrix: (Units=1/GPa)
#
#
# Indices 1 2 3 4 5 6 
#
# 1 0.030946 -0.004142 -0.015375 0.000000 0.000000 0.000000
# 2 -0.004142 0.017853 -0.005615 0.000000 0.000000 0.000000
# 3 -0.015375 -0.005615 0.019325 0.000000 0.000000 0.000000
# 4 0.000000 0.000000 0.000000 0.039410 0.000000 0.000000
# 5 0.000000 0.000000 0.000000 0.000000 0.071934 0.000000
# 6 0.000000 0.000000 0.000000 0.000000 0.000000 -0.003254
#
#
# Mechanical properties :
#
#
# Convention : Reuss Voigt Hill
#
# Bulk Modulus (GPa) = 55.99258 65.49530 60.74394
# Shear Modulus (GPa) = 21.51171 -45.94942 -12.21886
#
# Velocity S-wave (km/s) = 3.64176 -5.32247 -2.74466
# Velocity P-wave (km/s) = 7.22521 1.61478 5.23504
#
# Compressibility (1/GPa) = 0.01785951
#
# Stress axis : x y z
#
# Youngs Moduli (GPa) = 32.31422 56.01371 51.74534
#
# Poissons Ratio (x) = 0.23200 0.79560
# Poissons Ratio (y) = 0.13384 0.29057
# Poissons Ratio (z) = 0.49684 0.31453
#
# Static dielectric constant tensor:
#      x y z
#    x 1.551380 0.000000 0.000000 
#    y 0.000000 1.544690 0.000000 
#    z 0.000000 0.000000 1.540300 
# 
# From -- ./inp_files/29412.got.cif
#   From: 2010.05.17/outbox.cif.g08.bks.cpg/sg74_15_cif.got.tgz:29412.got - 2010.06.03 17:57:02.
