data_PCOD9535062
_publ_section_title
;
Structure prediction by ZEFSAII (Michael W. Deem and Ramdas Pophale) SiO2 
 PCOD9535062
Probable space group: I M M A
;
_chemical_formula_sum "Si O2"
_cell_formula_units_Z 84
_cell_length_a 11.075079
_cell_length_b 14.584254
_cell_length_c 29.274029
_cell_angle_alpha 90.000000
_cell_angle_beta 90.000000
_cell_angle_gamma 90.000000
_cell_volume 4728.392839
_symmetry_space_group_name_H-M "I M M A"
_symmetry_group_IT_number 74
_symmetry_cell_setting 'orthorhombic'
loop_
_space_group_symop_operation_xyz
x,y,z
-x,1/2-y,z
x,-y,-z
-x,1/2+y,-z
-x,-y,-z
x,1/2+y,-z
-x,y,z
x,1/2-y,z
1/2+x,1/2+y,1/2+z
1/2-x,-y,1/2+z
1/2+x,1/2-y,1/2-z
1/2-x,y,1/2-z
1/2-x,1/2-y,1/2-z
1/2+x,y,1/2-z
1/2-x,1/2+y,1/2+z
1/2+x,-y,1/2+z
loop_
_atom_site_type_symbol
_atom_site_label
_atom_site_fract_x
_atom_site_fract_y
_atom_site_fract_z
Si Si1 0.358574 0.945969 0.620145
Si Si2 0.500000 0.105453 0.985926
Si Si3 0.257222 0.928137 0.457539
Si Si4 0.360084 0.046335 0.713590
Si Si5 0.738787 0.750000 0.591716
Si Si6 0.000000 0.250000 0.433023
Si Si7 0.366244 0.750000 0.493377
Si Si8 0.635449 0.750000 0.283282
O O1 0.500000 0.956024 0.608504
O O2 0.319142 0.842043 0.611124
O O3 0.284250 0.013198 0.587122
O O4 0.342219 0.976050 0.672399
O O5 0.376015 0.116868 0.958712
O O6 0.500000 0.164418 0.032049
O O7 0.500000 0.000000 0.000000
O O8 0.345622 0.842692 0.465276
O O9 0.267857 0.000000 0.500000
O O10 0.500000 0.034842 0.731303
O O11 0.250000 0.038695 0.750000
O O12 0.356637 0.150702 0.693195
O O13 0.721968 0.750000 0.536750
O O14 0.881882 0.750000 0.597771
O O15 0.500000 0.750000 0.513239
O O16 0.500000 0.750000 0.261378
O O17 0.750000 0.750000 0.250000
#
# Coordination Sequence:
#
# PCOD9535062 Si02
#       8
#    16   8  16  16   8   4   8   8
#     4  11  23  38  58  86 118 149 192 240 291 346
#     4  10  18  34  52  72 104 144 186 230 276 318
#     4  11  21  35  53  80 111 149 187 231 280 334
#     4   9  19  38  61  88 120 153 191 240 293 347
#     4  12  22  38  58  81 109 155 200 235 286 344
#     4  12  20  40  58  74 112 156 204 238 280 338
#     4  12  22  33  54  80 114 152 189 232 278 340
#     4   8  14  29  58  84 109 144 178 216 277 343
#
# _framework density 17.765021000000001
#
# number of rings (size 3 to 8) (size 9 to 14) (size 15 to 20)
#    0.000    1.524    3.810    2.571    0.000    1.524 
#    3.429    2.381    0.000    0.000    0.000    0.000 
#    0.000    0.000    0.000    0.000    0.000    0.000 
#
# Total GULP energy -234043.439112 kJ/mol
# GULP energy per Si atom -5572.462836 kJ/mol
# Density = 1.772459 g / cm^3
# Si number density = 17.765021 Si / 1000 Ang^3
#
#
#
# Elastic Constant Matrix: (Units=GPa)
#
#
# Indices 1 2 3 4 5 6 
#
# 1 86.8906 4.3263 25.0290 0.0000 0.0000 0.0000
# 2 4.3263 103.8301 30.8402 0.0000 0.0000 0.0000
# 3 25.0290 30.8402 51.9839 0.0000 0.0000 0.0000
# 4 0.0000 0.0000 0.0000 16.7497 0.0000 0.0000
# 5 0.0000 0.0000 0.0000 0.0000 22.3558 0.0000
# 6 0.0000 0.0000 0.0000 0.0000 0.0000 149.0765
#
#
#
# Elastic Compliance Matrix: (Units=1/GPa)
#
#
# Indices 1 2 3 4 5 6 
#
# 1 0.013597 0.001673 -0.007539 0.000000 0.000000 0.000000
# 2 0.001673 0.011897 -0.007863 0.000000 0.000000 0.000000
# 3 -0.007539 -0.007863 0.027532 0.000000 0.000000 0.000000
# 4 0.000000 0.000000 0.000000 0.059702 0.000000 0.000000
# 5 0.000000 0.000000 0.000000 0.000000 0.044731 0.000000
# 6 0.000000 0.000000 0.000000 0.000000 0.000000 0.006708
#
#
# Mechanical properties :
#
#
# Convention : Reuss Voigt Hill
#
# Bulk Modulus (GPa) = 39.11402 40.34395 39.72898
# Shear Modulus (GPa) = 24.98138 49.80367 37.39253
#
# Velocity S-wave (km/s) = 3.75402 5.30052 4.59283
# Velocity P-wave (km/s) = 6.39182 7.76014 7.10898
#
# Compressibility (1/GPa) = 0.02556628
#
# Stress axis : x y z
#
# Youngs Moduli (GPa) = 73.54519 84.05433 36.32177
#
# Poissons Ratio (x) = -0.14060 0.27383
# Poissons Ratio (y) = -0.12302 0.28562
# Poissons Ratio (z) = 0.55446 0.66096
#
# Static dielectric constant tensor:
#      x y z
#    x 1.687100 0.000000 0.000000 
#    y 0.000000 1.615850 0.000000 
#    z 0.000000 0.000000 1.561640 
# 
# From -- ./inp_files/58702.got.cif
#   From: 2010.05.17/outbox.cif.g08.bks.cpg/sg74_30_cif.got.tgz:58702.got - 2010.06.03 17:57:02.
