data_PCOD9535917
_publ_section_title
;
Structure prediction by ZEFSAII (Michael W. Deem and Ramdas Pophale) SiO2 
 PCOD9535917
Probable space group: I M M A
;
_chemical_formula_sum "Si O2"
_cell_formula_units_Z 96
_cell_length_a 32.571945
_cell_length_b 8.888786
_cell_length_c 19.952748
_cell_angle_alpha 90.000000
_cell_angle_beta 90.000000
_cell_angle_gamma 90.000000
_cell_volume 5776.820337
_symmetry_space_group_name_H-M "I M M A"
_symmetry_group_IT_number 74
_symmetry_cell_setting 'orthorhombic'
loop_
_space_group_symop_operation_xyz
x,y,z
-x,1/2-y,z
x,-y,-z
-x,1/2+y,-z
-x,-y,-z
x,1/2+y,-z
-x,y,z
x,1/2-y,z
1/2+x,1/2+y,1/2+z
1/2-x,-y,1/2+z
1/2+x,1/2-y,1/2-z
1/2-x,y,1/2-z
1/2-x,1/2-y,1/2-z
1/2+x,y,1/2-z
1/2-x,1/2+y,1/2+z
1/2+x,-y,1/2+z
loop_
_atom_site_type_symbol
_atom_site_label
_atom_site_fract_x
_atom_site_fract_y
_atom_site_fract_z
Si Si1 0.451451 0.418054 0.065101
Si Si2 0.292333 0.069952 0.712792
Si Si3 0.667402 0.069432 0.071394
Si Si4 0.242577 0.930027 0.070136
Si Si5 0.869974 0.570614 0.713845
Si Si6 0.046127 0.429240 0.708128
O O1 0.500000 0.398423 0.052480
O O2 0.433916 0.250000 0.075737
O O3 0.450095 0.519039 0.130893
O O4 0.434278 0.500000 0.000000
O O5 0.296792 0.250000 0.722347
O O6 0.250000 0.024940 0.750000
O O7 0.285949 0.039794 0.634030
O O8 0.331462 0.989453 0.744166
O O9 0.669785 0.250000 0.066029
O O10 0.639601 0.029945 0.135681
O O11 0.712866 0.002734 0.084203
O O12 0.654849 0.000000 0.000000
O O13 0.247486 0.750000 0.063511
O O14 0.227918 0.000000 0.000000
O O15 0.871968 0.750000 0.717489
O O16 0.913112 0.502414 0.738900
O O17 0.048093 0.250000 0.713492
O O18 0.000000 0.477684 0.730629
#
# Coordination Sequence:
#
# PCOD9535917 Si02
#       6
#    16  16  16  16  16  16
#     4   9  16  27  44  64  86 114 153 202 254 304
#     4  10  20  35  54  76 105 140 173 208 253 304
#     4  10  20  32  47  69  97 131 171 212 256 302
#     4  10  19  32  52  75 102 137 172 208 251 296
#     4  11  23  35  51  75 101 132 171 217 263 308
#     4  10  21  36  52  68  90 124 165 211 261 311
#
# _framework density 16.618138999999999
#
# number of rings (size 3 to 8) (size 9 to 14) (size 15 to 20)
#    0.000    2.000    1.667    3.500    0.000    7.333 
#    0.000    1.667    0.000    0.000    0.000    0.000 
#    0.000    0.667    0.000    2.167    0.000    2.667 
#
# Total GULP energy -267813.863687 kJ/mol
# GULP energy per Si atom -5579.455493 kJ/mol
# Density = 1.658032 g / cm^3
# Si number density = 16.618139 Si / 1000 Ang^3
#
#
#
# Elastic Constant Matrix: (Units=GPa)
#
#
# Indices 1 2 3 4 5 6 
#
# 1 141.9427 52.0268 49.4714 0.0000 0.0000 0.0000
# 2 52.0268 65.7497 36.0813 0.0000 0.0000 0.0000
# 3 49.4714 36.0813 65.4053 0.0000 0.0000 0.0000
# 4 0.0000 0.0000 0.0000 20.9114 0.0000 0.0000
# 5 0.0000 0.0000 0.0000 0.0000 0.3454 0.0000
# 6 0.0000 0.0000 0.0000 0.0000 0.0000 16.5934
#
#
#
# Elastic Compliance Matrix: (Units=1/GPa)
#
#
# Indices 1 2 3 4 5 6 
#
# 1 0.010968 -0.005918 -0.005031 0.000000 0.000000 0.000000
# 2 -0.005918 0.025005 -0.009318 0.000000 0.000000 0.000000
# 3 -0.005031 -0.009318 0.024235 0.000000 0.000000 0.000000
# 4 0.000000 0.000000 0.000000 0.047821 0.000000 0.000000
# 5 0.000000 0.000000 0.000000 0.000000 2.895196 0.000000
# 6 0.000000 0.000000 0.000000 0.000000 0.000000 0.060265
#
#
# Mechanical properties :
#
#
# Convention : Reuss Voigt Hill
#
# Bulk Modulus (GPa) = 50.82880 60.91740 55.87310
# Shear Modulus (GPa) = 1.60742 16.60457 9.10599
#
# Velocity S-wave (km/s) = 0.98456 3.16442 2.34338
# Velocity P-wave (km/s) = 5.65201 7.07730 6.40443
#
# Compressibility (1/GPa) = 0.01967389
#
# Stress axis : x y z
#
# Youngs Moduli (GPa) = 91.17743 39.99153 41.26192
#
# Poissons Ratio (x) = 0.23665 0.20760
# Poissons Ratio (y) = 0.53955 0.38450
# Poissons Ratio (z) = 0.45874 0.37266
#
# Static dielectric constant tensor:
#      x y z
#    x 1.604640 0.000000 0.000000 
#    y 0.000000 1.518410 0.000000 
#    z 0.000000 0.000000 1.555610 
# 
# From -- ./inp_files/62268.got.cif
#   From: 2010.05.17/outbox.cif.g08.bks.cpg/sg74_32_cif.got.tgz:62268.got - 2010.06.03 17:57:02.
