data_PCOD9535279
_publ_section_title
;
Structure prediction by ZEFSAII (Michael W. Deem and Ramdas Pophale) SiO2 
 PCOD9535279
Probable space group: I M M A
;
_chemical_formula_sum "Si O2"
_cell_formula_units_Z 116
_cell_length_a 31.485050
_cell_length_b 7.632195
_cell_length_c 27.968587
_cell_angle_alpha 90.000000
_cell_angle_beta 90.000000
_cell_angle_gamma 90.000000
_cell_volume 6720.852608
_symmetry_space_group_name_H-M "I M M A"
_symmetry_group_IT_number 74
_symmetry_cell_setting 'orthorhombic'
loop_
_space_group_symop_operation_xyz
x,y,z
-x,1/2-y,z
x,-y,-z
-x,1/2+y,-z
-x,-y,-z
x,1/2+y,-z
-x,y,z
x,1/2-y,z
1/2+x,1/2+y,1/2+z
1/2-x,-y,1/2+z
1/2+x,1/2-y,1/2-z
1/2-x,y,1/2-z
1/2-x,1/2-y,1/2-z
1/2+x,y,1/2-z
1/2-x,1/2+y,1/2+z
1/2+x,-y,1/2+z
loop_
_atom_site_type_symbol
_atom_site_label
_atom_site_fract_x
_atom_site_fract_y
_atom_site_fract_z
Si Si1 0.452306 0.962169 0.330684
Si Si2 0.659750 0.453204 0.200953
Si Si3 0.228014 0.949426 0.369608
Si Si4 0.701241 0.954293 0.703956
Si Si5 0.935003 0.452115 0.719403
Si Si6 0.705017 0.039679 0.555674
Si Si7 0.500000 0.750000 0.810818
Si Si8 0.367114 0.962937 0.373530
O O1 0.500000 0.028363 0.339200
O O2 0.453645 0.750000 0.333897
O O3 0.439253 0.000736 0.275887
O O4 0.415517 0.022365 0.366770
O O5 0.652593 0.250000 0.212693
O O6 0.685851 0.465780 0.151892
O O7 0.689918 0.523037 0.243683
O O8 0.613946 0.540363 0.203187
O O9 0.216919 0.750000 0.381288
O O10 0.254380 0.028400 0.414144
O O11 0.262766 0.953227 0.326991
O O12 0.713981 0.750000 0.706976
O O13 0.658673 0.973688 0.672784
O O14 0.949558 0.250000 0.714776
O O15 0.963132 0.594589 0.692296
O O16 0.705902 0.250000 0.561512
O O17 0.661467 0.978844 0.581473
O O18 0.706461 0.000000 0.500000
O O19 0.367056 0.750000 0.373031
#
# Coordination Sequence:
#
# PCOD9535279 Si02
#       8
#    16  16  16  16  16  16   4  16
#     4   9  16  28  47  68  91 123 167 207 254 306
#     4  11  21  32  46  71 104 135 168 206 250 296
#     4  10  21  34  48  69  94 127 168 204 249 308
#     4  10  19  29  44  66  97 131 164 204 244 293
#     4  11  21  33  51  71  98 142 180 216 259 295
#     4   9  19  34  52  70  90 120 162 209 260 311
#     4  12  22  36  48  70 102 136 190 224 244 298
#     4   9  17  30  47  68  92 120 162 209 250 304
#
# _framework density 17.259715
#
# number of rings (size 3 to 8) (size 9 to 14) (size 15 to 20)
#    0.000    2.069    2.759    2.690    0.000    6.069 
#    0.000    0.000    0.000    0.414    0.000    0.000 
#    0.000    0.000    0.000    0.621    3.862    1.517 
#
# Total GULP energy -322885.895371 kJ/mol
# GULP energy per Si atom -5566.998196 kJ/mol
# Density = 1.722043 g / cm^3
# Si number density = 17.259715 Si / 1000 Ang^3
#
#
#
# Elastic Constant Matrix: (Units=GPa)
#
#
# Indices 1 2 3 4 5 6 
#
# 1 90.2459 6.2712 67.4062 0.0000 0.0000 0.0000
# 2 6.2712 55.6511 2.5019 0.0000 0.0000 0.0000
# 3 67.4062 2.5019 76.4892 0.0000 0.0000 0.0000
# 4 0.0000 0.0000 0.0000 12.8842 0.0000 0.0000
# 5 0.0000 0.0000 0.0000 0.0000 0.8004 0.0000
# 6 0.0000 0.0000 0.0000 0.0000 0.0000 24.2909
#
#
#
# Elastic Compliance Matrix: (Units=1/GPa)
#
#
# Indices 1 2 3 4 5 6 
#
# 1 0.032737 -0.002396 -0.028771 0.000000 0.000000 0.000000
# 2 -0.002396 0.018171 0.001517 0.000000 0.000000 0.000000
# 3 -0.028771 0.001517 0.038379 0.000000 0.000000 0.000000
# 4 0.000000 0.000000 0.000000 0.077615 0.000000 0.000000
# 5 0.000000 0.000000 0.000000 0.000000 1.249363 0.000000
# 6 0.000000 0.000000 0.000000 0.000000 0.000000 0.041168
#
#
# Mechanical properties :
#
#
# Convention : Reuss Voigt Hill
#
# Bulk Modulus (GPa) = 33.34818 41.63831 37.49325
# Shear Modulus (GPa) = 3.27498 17.34224 10.30861
#
# Velocity S-wave (km/s) = 1.37898 3.17327 2.44655
# Velocity P-wave (km/s) = 4.67961 6.13214 5.45444
#
# Compressibility (1/GPa) = 0.02998664
#
# Stress axis : x y z
#
# Youngs Moduli (GPa) = 30.54660 55.03313 26.05616
#
# Poissons Ratio (x) = 0.13184 0.74966
# Poissons Ratio (y) = 0.07318 -0.03952
# Poissons Ratio (z) = 0.87886 -0.08347
#
# Static dielectric constant tensor:
#      x y z
#    x 1.617650 0.000000 0.000000 
#    y 0.000000 1.627660 0.000000 
#    z 0.000000 0.000000 1.565680 
# 
# From -- ./inp_files/69220.got.cif
#   From: 2010.05.17/outbox.cif.g08.bks.cpg/sg74_35_cif.got.tgz:69220.got - 2010.06.03 17:57:02.
