data_PCOD9535481
_publ_section_title
;
Structure prediction by ZEFSAII (Michael W. Deem and Ramdas Pophale) SiO2 
 PCOD9535481
Probable space group: I M M A
;
_chemical_formula_sum "Si O2"
_cell_formula_units_Z 80
_cell_length_a 17.745928
_cell_length_b 16.493752
_cell_length_c 16.023086
_cell_angle_alpha 90.000000
_cell_angle_beta 90.000000
_cell_angle_gamma 90.000000
_cell_volume 4689.908169
_symmetry_space_group_name_H-M "I M M A"
_symmetry_group_IT_number 74
_symmetry_cell_setting 'orthorhombic'
loop_
_space_group_symop_operation_xyz
x,y,z
-x,1/2-y,z
x,-y,-z
-x,1/2+y,-z
-x,-y,-z
x,1/2+y,-z
-x,y,z
x,1/2-y,z
1/2+x,1/2+y,1/2+z
1/2-x,-y,1/2+z
1/2+x,1/2-y,1/2-z
1/2-x,y,1/2-z
1/2-x,1/2-y,1/2-z
1/2+x,y,1/2-z
1/2-x,1/2+y,1/2+z
1/2+x,-y,1/2+z
loop_
_atom_site_type_symbol
_atom_site_label
_atom_site_fract_x
_atom_site_fract_y
_atom_site_fract_z
Si Si1 0.311424 0.343984 0.998522
Si Si2 0.291125 0.430053 0.164173
Si Si3 0.910204 0.340418 0.795767
Si Si4 0.822551 0.554488 0.074082
Si Si5 0.089701 0.937248 0.369055
O O1 0.325325 0.250000 0.979608
O O2 0.307374 0.359845 0.097517
O O3 0.231466 0.375924 0.963572
O O4 0.372502 0.402998 0.953797
O O5 0.250000 0.405448 0.250000
O O6 0.232538 0.493135 0.122418
O O7 0.368010 0.482956 0.166084
O O8 0.879575 0.250000 0.809483
O O9 0.877791 0.403720 0.861470
O O10 0.894541 0.369891 0.701937
O O11 0.000000 0.338239 0.804597
O O12 0.857292 0.500000 0.000000
O O13 0.000000 0.948563 0.378081
#
# Coordination Sequence:
#
# PCOD9535481 Si02
#       5
#    16  16  16  16  16
#     4  10  21  33  51  78 105 136 171 215 265 308
#     4  10  19  35  54  74 101 137 181 214 250 313
#     4  10  19  30  49  77 105 133 167 212 266 317
#     4   9  18  33  51  71 100 134 172 214 255 312
#     4  10  20  35  54  78 109 140 171 215 271 326
#
# _framework density 17.057905000000002
#
# number of rings (size 3 to 8) (size 9 to 14) (size 15 to 20)
#    0.000    2.200    2.000    3.000    0.000    3.600 
#    0.000    3.000    0.000    0.000    0.000    0.000 
#    0.000    0.000    0.000    0.000    0.000    0.000 
#
# Total GULP energy -222853.065186 kJ/mol
# GULP energy per Si atom -5571.326630 kJ/mol
# Density = 1.701908 g / cm^3
# Si number density = 17.057905 Si / 1000 Ang^3
#
#
#
# Elastic Constant Matrix: (Units=GPa)
#
#
# Indices 1 2 3 4 5 6 
#
# 1 34.8969 16.2821 37.8717 0.0000 0.0000 0.0000
# 2 16.2821 31.8902 12.8789 0.0000 0.0000 0.0000
# 3 37.8717 12.8789 100.8218 0.0000 0.0000 0.0000
# 4 0.0000 0.0000 0.0000 11.2101 0.0000 0.0000
# 5 0.0000 0.0000 0.0000 0.0000 23.5708 0.0000
# 6 0.0000 0.0000 0.0000 0.0000 0.0000 14.8699
#
#
#
# Elastic Compliance Matrix: (Units=1/GPa)
#
#
# Indices 1 2 3 4 5 6 
#
# 1 0.061197 -0.023156 -0.020029 0.000000 0.000000 0.000000
# 2 -0.023156 0.041825 0.003355 0.000000 0.000000 0.000000
# 3 -0.020029 0.003355 0.017014 0.000000 0.000000 0.000000
# 4 0.000000 0.000000 0.000000 0.089205 0.000000 0.000000
# 5 0.000000 0.000000 0.000000 0.000000 0.042425 0.000000
# 6 0.000000 0.000000 0.000000 0.000000 0.000000 0.067250
#
#
# Mechanical properties :
#
#
# Convention : Reuss Voigt Hill
#
# Bulk Modulus (GPa) = 24.76765 33.51938 29.14352
# Shear Modulus (GPa) = 12.13487 16.63524 14.38506
#
# Velocity S-wave (km/s) = 2.67009 3.12624 2.90713
# Velocity P-wave (km/s) = 4.90480 5.72051 5.32829
#
# Compressibility (1/GPa) = 0.04037525
#
# Stress axis : x y z
#
# Youngs Moduli (GPa) = 16.34070 23.90890 58.77673
#
# Poissons Ratio (x) = 0.55364 1.17727
# Poissons Ratio (y) = 0.37839 -0.19722
# Poissons Ratio (z) = 0.32730 -0.08023
#
# Static dielectric constant tensor:
#      x y z
#    x 1.569480 0.000000 0.000000 
#    y 0.000000 1.572080 0.000000 
#    z 0.000000 0.000000 1.609790 
# 
# From -- ./inp_files/32121.got.cif
#   From: 2010.05.17/outbox.cif.g08.bks.cpg/sg74_17_cif.got.tgz:32121.got - 2010.06.03 17:57:02.
