data_PCOD9535126
_publ_section_title
;
Structure prediction by ZEFSAII (Michael W. Deem and Ramdas Pophale) SiO2 
 PCOD9535126
Probable space group: I M M A
;
_chemical_formula_sum "Si O2"
_cell_formula_units_Z 116
_cell_length_a 14.504071
_cell_length_b 23.826647
_cell_length_c 20.268277
_cell_angle_alpha 90.000000
_cell_angle_beta 90.000000
_cell_angle_gamma 90.000000
_cell_volume 7004.379668
_symmetry_space_group_name_H-M "I M M A"
_symmetry_group_IT_number 74
_symmetry_cell_setting 'orthorhombic'
loop_
_space_group_symop_operation_xyz
x,y,z
-x,1/2-y,z
x,-y,-z
-x,1/2+y,-z
-x,-y,-z
x,1/2+y,-z
-x,y,z
x,1/2-y,z
1/2+x,1/2+y,1/2+z
1/2-x,-y,1/2+z
1/2+x,1/2-y,1/2-z
1/2-x,y,1/2-z
1/2-x,1/2-y,1/2-z
1/2+x,y,1/2-z
1/2-x,1/2+y,1/2+z
1/2+x,-y,1/2+z
loop_
_atom_site_type_symbol
_atom_site_label
_atom_site_fract_x
_atom_site_fract_y
_atom_site_fract_z
Si Si1 0.356759 0.351722 0.232193
Si Si2 0.717255 0.889686 0.142103
Si Si3 0.155957 0.967517 0.793745
Si Si4 0.892329 0.392484 0.415169
Si Si5 0.604417 0.093337 0.724623
Si Si6 0.893219 0.316536 0.543121
Si Si7 0.000000 0.250000 0.248226
Si Si8 0.750550 0.991960 0.573728
O O1 0.250000 0.341520 0.250000
O O2 0.385915 0.408988 0.270223
O O3 0.364039 0.366039 0.154647
O O4 0.420146 0.299482 0.249027
O O5 0.649304 0.893048 0.204734
O O6 0.821225 0.884789 0.170814
O O7 0.679217 0.841572 0.094775
O O8 0.715791 0.948476 0.102529
O O9 0.250000 0.972777 0.750000
O O10 0.181717 0.967704 0.870901
O O11 0.103991 0.025491 0.780666
O O12 0.879316 0.347812 0.473630
O O13 0.833648 0.447801 0.429621
O O14 0.000000 0.406816 0.411670
O O15 0.500000 0.114231 0.717361
O O16 0.883593 0.250000 0.535827
O O17 0.000000 0.328184 0.563835
O O18 0.712346 0.000000 0.500000
#
# Coordination Sequence:
#
# PCOD9535126 Si02
#       8
#    16  16  16  16  16  16   4  16
#     4  11  22  38  56  79 113 152 193 240 288 322
#     4  10  19  35  54  83 115 144 183 226 281 343
#     4  10  18  35  53  80 115 151 184 226 286 346
#     4  11  21  33  55  85 116 147 185 232 283 352
#     4  10  19  32  57  85 111 142 180 231 285 339
#     4  10  22  36  54  80 115 153 184 222 280 348
#     4  12  26  36  56  86 108 152 210 254 262 342
#     4  11  19  33  55  85 116 147 182 230 289 349
#
# _framework density 16.561067000000001
#
# number of rings (size 3 to 8) (size 9 to 14) (size 15 to 20)
#    0.000    1.517    7.586    0.621    1.931    2.483 
#    0.000    1.379    0.000    7.862    8.966    0.000 
#    0.000    0.000    0.000    0.000    0.000    0.000 
#
# Total GULP energy -322928.556674 kJ/mol
# GULP energy per Si atom -5567.733736 kJ/mol
# Density = 1.652337 g / cm^3
# Si number density = 16.561067 Si / 1000 Ang^3
#
#
#
# Elastic Constant Matrix: (Units=GPa)
#
#
# Indices 1 2 3 4 5 6 
#
# 1 98.6070 23.1045 41.5261 0.0000 0.0000 0.0000
# 2 23.1045 38.8068 27.2499 0.0000 0.0000 0.0000
# 3 41.5261 27.2499 113.2111 0.0000 0.0000 0.0000
# 4 0.0000 0.0000 0.0000 5.6753 0.0000 0.0000
# 5 0.0000 0.0000 0.0000 0.0000 11.7981 0.0000
# 6 0.0000 0.0000 0.0000 0.0000 0.0000 16.4584
#
#
#
# Elastic Compliance Matrix: (Units=1/GPa)
#
#
# Indices 1 2 3 4 5 6 
#
# 1 0.012813 -0.005209 -0.003446 0.000000 0.000000 0.000000
# 2 -0.005209 0.033127 -0.006063 0.000000 0.000000 0.000000
# 3 -0.003446 -0.006063 0.011556 0.000000 0.000000 0.000000
# 4 0.000000 0.000000 0.000000 0.176201 0.000000 0.000000
# 5 0.000000 0.000000 0.000000 0.000000 0.084759 0.000000
# 6 0.000000 0.000000 0.000000 0.000000 0.000000 0.060759
#
#
# Mechanical properties :
#
#
# Convention : Reuss Voigt Hill
#
# Bulk Modulus (GPa) = 35.63679 48.26511 41.95095
# Shear Modulus (GPa) = 11.96154 17.36933 14.66544
#
# Velocity S-wave (km/s) = 2.69042 3.24204 2.97903
# Velocity P-wave (km/s) = 5.58715 6.57430 6.10073
#
# Compressibility (1/GPa) = 0.02806089
#
# Stress axis : x y z
#
# Youngs Moduli (GPa) = 78.04609 30.18654 86.53139
#
# Poissons Ratio (x) = 0.15723 0.29820
# Poissons Ratio (y) = 0.40652 0.52466
# Poissons Ratio (z) = 0.26895 0.18303
#
# Static dielectric constant tensor:
#      x y z
#    x 1.564470 0.000000 0.000000 
#    y 0.000000 1.542430 0.000000 
#    z 0.000000 0.000000 1.560450 
# 
# From -- ./inp_files/43190.got.cif
#   From: 2010.05.17/outbox.cif.g08.bks.cpg/sg74_22_cif.got.tgz:43190.got - 2010.06.03 17:57:02.
