data_PCOD9535947
_publ_section_title
;
Structure prediction by ZEFSAII (Michael W. Deem and Ramdas Pophale) SiO2 
 PCOD9535947
Probable space group: I M M A
;
_chemical_formula_sum "Si O2"
_cell_formula_units_Z 60
_cell_length_a 7.342264
_cell_length_b 20.632846
_cell_length_c 16.765183
_cell_angle_alpha 90.000000
_cell_angle_beta 90.000000
_cell_angle_gamma 90.000000
_cell_volume 2539.787790
_symmetry_space_group_name_H-M "I M M A"
_symmetry_group_IT_number 74
_symmetry_cell_setting 'orthorhombic'
loop_
_space_group_symop_operation_xyz
x,y,z
-x,1/2-y,z
x,-y,-z
-x,1/2+y,-z
-x,-y,-z
x,1/2+y,-z
-x,y,z
x,1/2-y,z
1/2+x,1/2+y,1/2+z
1/2-x,-y,1/2+z
1/2+x,1/2-y,1/2-z
1/2-x,y,1/2-z
1/2-x,1/2-y,1/2-z
1/2+x,y,1/2-z
1/2-x,1/2+y,1/2+z
1/2+x,-y,1/2+z
loop_
_atom_site_type_symbol
_atom_site_label
_atom_site_fract_x
_atom_site_fract_y
_atom_site_fract_z
Si Si1 0.716594 0.490607 0.160937
Si Si2 0.777421 0.127162 0.443550
Si Si3 0.250000 0.750000 0.250000
Si Si4 0.216935 0.250000 0.343636
Si Si5 0.777872 0.864820 0.372948
O O1 0.500000 0.495310 0.149399
O O2 0.750000 0.464674 0.250000
O O3 0.784283 0.441010 0.093994
O O4 0.784906 0.564129 0.155279
O O5 0.715619 0.185315 0.386792
O O6 0.725173 0.140059 0.534497
O O7 0.000000 0.125439 0.443084
O O8 0.285487 0.693037 0.317129
O O9 0.250000 0.250000 0.250000
O O10 0.000000 0.250000 0.355419
O O11 0.000000 0.861117 0.368665
#
# Coordination Sequence:
#
# PCOD9535947 Si02
#       5
#    16  16   4   8  16
#     4  10  19  34  56  82 110 143 182 226 272 324
#     4   9  18  33  55  79 104 138 183 228 268 316
#     4  12  20  32  52  78 106 138 172 230 290 324
#     4  10  19  32  52  79 106 136 174 220 271 324
#     4  10  20  34  53  77 105 140 185 229 269 322
#
# _framework density 23.624022
#
# number of rings (size 3 to 8) (size 9 to 14) (size 15 to 20)
#    0.000    2.133    1.333    2.800    0.000    5.333 
#    0.000    0.000    0.000   14.400    0.000    0.000 
#    0.000    0.000    0.000    0.000    0.000    0.000 
#
# Total GULP energy -167288.611315 kJ/mol
# GULP energy per Si atom -5576.287044 kJ/mol
# Density = 2.357025 g / cm^3
# Si number density = 23.624022 Si / 1000 Ang^3
#
#
#
# Elastic Constant Matrix: (Units=GPa)
#
#
# Indices 1 2 3 4 5 6 
#
# 1 89.9426 10.8370 -5.7691 0.0000 0.0000 0.0000
# 2 10.8370 224.8036 123.6762 0.0000 0.0000 0.0000
# 3 -5.7691 123.6762 230.4922 0.0000 0.0000 0.0000
# 4 0.0000 0.0000 0.0000 11.4484 0.0000 0.0000
# 5 0.0000 0.0000 0.0000 0.0000 -4.6163 0.0000
# 6 0.0000 0.0000 0.0000 0.0000 0.0000 -22.2255
#
#
#
# Elastic Compliance Matrix: (Units=1/GPa)
#
#
# Indices 1 2 3 4 5 6 
#
# 1 0.011290 -0.000993 0.000815 0.000000 0.000000 0.000000
# 2 -0.000993 0.006399 -0.003458 0.000000 0.000000 0.000000
# 3 0.000815 -0.003458 0.006215 0.000000 0.000000 0.000000
# 4 0.000000 0.000000 0.000000 0.087349 0.000000 0.000000
# 5 0.000000 0.000000 0.000000 0.000000 -0.216625 0.000000
# 6 0.000000 0.000000 0.000000 0.000000 0.000000 -0.044993
#
#
# Mechanical properties :
#
#
# Convention : Reuss Voigt Hill
#
# Bulk Modulus (GPa) = 60.12535 89.19184 74.65860
# Shear Modulus (GPa) = -36.35029 24.68761 -5.83134
#
# Velocity S-wave (km/s) = -3.92688 3.23619 -1.57282
# Velocity P-wave (km/s) = 2.22388 7.19726 5.32664
#
# Compressibility (1/GPa) = 0.01663192
#
# Stress axis : x y z
#
# Youngs Moduli (GPa) = 88.57305 156.28045 160.91246
#
# Poissons Ratio (x) = 0.15515 -0.13119
# Poissons Ratio (y) = 0.08793 0.55648
# Poissons Ratio (z) = -0.07221 0.54046
#
# Static dielectric constant tensor:
#      x y z
#    x 1.963120 0.000000 0.000000 
#    y 0.000000 1.846050 0.000000 
#    z 0.000000 0.000000 1.831890 
# 
# From -- ./inp_files/18470.got.cif
#   From: 2010.05.17/outbox.cif.g08.bks.cpg/sg74_10_cif.got.tgz:18470.got - 2010.06.03 17:57:02.
