data_PCOD9535939
_publ_section_title
;
Structure prediction by ZEFSAII (Michael W. Deem and Ramdas Pophale) SiO2 
 PCOD9535939
Probable space group: I M M A
;
_chemical_formula_sum "Si O2"
_cell_formula_units_Z 104
_cell_length_a 28.540416
_cell_length_b 8.675089
_cell_length_c 23.441126
_cell_angle_alpha 90.000000
_cell_angle_beta 90.000000
_cell_angle_gamma 90.000000
_cell_volume 5803.803597
_symmetry_space_group_name_H-M "I M M A"
_symmetry_group_IT_number 74
_symmetry_cell_setting 'orthorhombic'
loop_
_space_group_symop_operation_xyz
x,y,z
-x,1/2-y,z
x,-y,-z
-x,1/2+y,-z
-x,-y,-z
x,1/2+y,-z
-x,y,z
x,1/2-y,z
1/2+x,1/2+y,1/2+z
1/2-x,-y,1/2+z
1/2+x,1/2-y,1/2-z
1/2-x,y,1/2-z
1/2-x,1/2-y,1/2-z
1/2+x,y,1/2-z
1/2-x,1/2+y,1/2+z
1/2+x,-y,1/2+z
loop_
_atom_site_type_symbol
_atom_site_label
_atom_site_fract_x
_atom_site_fract_y
_atom_site_fract_z
Si Si1 0.000000 0.935234 0.064166
Si Si2 0.304601 0.564174 0.763746
Si Si3 0.231094 0.935386 0.560882
Si Si4 0.100395 0.065567 0.936289
Si Si5 0.554504 0.435143 0.063875
Si Si6 0.355494 0.066052 0.876220
Si Si7 0.817213 0.064948 0.138399
O O1 0.950196 0.981381 0.089800
O O2 0.000000 0.750000 0.060716
O O3 0.000000 0.000000 0.000000
O O4 0.305585 0.750000 0.772563
O O5 0.250000 0.525381 0.750000
O O6 0.331859 0.490238 0.816728
O O7 0.327021 0.519258 0.703291
O O8 0.228752 0.750000 0.558946
O O9 0.267356 0.981991 0.610992
O O10 0.247562 0.000000 0.500000
O O11 0.180719 0.004344 0.576065
O O12 0.103199 0.250000 0.938464
O O13 0.142702 0.998798 0.901259
O O14 0.102483 0.000000 0.000000
O O15 0.500000 0.474671 0.078045
O O16 0.558340 0.250000 0.062395
O O17 0.593306 0.500339 0.107556
O O18 0.563637 0.500000 0.000000
O O19 0.357127 0.250000 0.876920
O O20 0.816731 0.250000 0.137494
#
# Coordination Sequence:
#
# PCOD9535939 Si02
#       7
#     8  16  16  16  16  16  16
#     4   8  16  30  48  72 100 136 172 210 257 312
#     4  10  20  40  62  80 106 147 191 233 278 328
#     4  11  22  37  54  79 114 150 185 226 278 333
#     4  10  19  32  52  77 108 140 177 220 271 327
#     4  10  21  39  64  92 122 156 193 238 293 352
#     4  12  24  37  58  87 117 151 191 236 283 339
#     4  10  21  36  56  79 106 141 182 228 278 328
#
# _framework density 17.919283
#
# number of rings (size 3 to 8) (size 9 to 14) (size 15 to 20)
#    0.000    1.692    1.538    3.692    0.000    4.923 
#    0.000    0.000    1.692    0.000    0.000    0.000 
#    0.000    0.000    0.000    0.000    0.000    0.000 
#
# Total GULP energy -290044.669274 kJ/mol
# GULP energy per Si atom -5577.782101 kJ/mol
# Density = 1.787850 g / cm^3
# Si number density = 17.919283 Si / 1000 Ang^3
#
#
#
# Elastic Constant Matrix: (Units=GPa)
#
#
# Indices 1 2 3 4 5 6 
#
# 1 125.3817 30.9362 50.0838 0.0000 0.0000 0.0000
# 2 30.9362 38.0035 36.9239 0.0000 0.0000 0.0000
# 3 50.0838 36.9239 99.6695 0.0000 0.0000 0.0000
# 4 0.0000 0.0000 0.0000 28.1355 0.0000 0.0000
# 5 0.0000 0.0000 0.0000 0.0000 16.2864 0.0000
# 6 0.0000 0.0000 0.0000 0.0000 0.0000 20.7139
#
#
#
# Elastic Compliance Matrix: (Units=1/GPa)
#
#
# Indices 1 2 3 4 5 6 
#
# 1 0.010648 -0.005420 -0.003343 0.000000 0.000000 0.000000
# 2 -0.005420 0.043870 -0.013529 0.000000 0.000000 0.000000
# 3 -0.003343 -0.013529 0.016725 0.000000 0.000000 0.000000
# 4 0.000000 0.000000 0.000000 0.035542 0.000000 0.000000
# 5 0.000000 0.000000 0.000000 0.000000 0.061401 0.000000
# 6 0.000000 0.000000 0.000000 0.000000 0.000000 0.048277
#
#
# Mechanical properties :
#
#
# Convention : Reuss Voigt Hill
#
# Bulk Modulus (GPa) = 37.50966 55.43808 46.47387
# Shear Modulus (GPa) = 18.52315 22.70122 20.61218
#
# Velocity S-wave (km/s) = 3.21861 3.56316 3.39526
# Velocity P-wave (km/s) = 5.89835 6.92336 6.43131
#
# Compressibility (1/GPa) = 0.02665980
#
# Stress axis : x y z
#
# Youngs Moduli (GPa) = 93.91181 22.79465 59.79179
#
# Poissons Ratio (x) = 0.12355 0.19987
# Poissons Ratio (y) = 0.50903 0.80889
# Poissons Ratio (z) = 0.31392 0.30838
#
# Static dielectric constant tensor:
#      x y z
#    x 1.644830 0.000000 0.000000 
#    y 0.000000 1.606220 0.000000 
#    z 0.000000 0.000000 1.612460 
# 
# From -- ./inp_files/62343.got.cif
#   From: 2010.05.17/outbox.cif.g08.bks.cpg/sg74_32_cif.got.tgz:62343.got - 2010.06.03 17:57:02.
