data_PCOD9535936
_publ_section_title
;
Structure prediction by ZEFSAII (Michael W. Deem and Ramdas Pophale) SiO2 
 PCOD9535936
Probable space group: I M M A
;
_chemical_formula_sum "Si O2"
_cell_formula_units_Z 96
_cell_length_a 7.688944
_cell_length_b 17.220015
_cell_length_c 30.619411
_cell_angle_alpha 90.000000
_cell_angle_beta 90.000000
_cell_angle_gamma 90.000000
_cell_volume 4054.124258
_symmetry_space_group_name_H-M "I M M A"
_symmetry_group_IT_number 74
_symmetry_cell_setting 'orthorhombic'
loop_
_space_group_symop_operation_xyz
x,y,z
-x,1/2-y,z
x,-y,-z
-x,1/2+y,-z
-x,-y,-z
x,1/2+y,-z
-x,y,z
x,1/2-y,z
1/2+x,1/2+y,1/2+z
1/2-x,-y,1/2+z
1/2+x,1/2-y,1/2-z
1/2-x,y,1/2-z
1/2-x,1/2-y,1/2-z
1/2+x,y,1/2-z
1/2-x,1/2+y,1/2+z
1/2+x,-y,1/2+z
loop_
_atom_site_type_symbol
_atom_site_label
_atom_site_fract_x
_atom_site_fract_y
_atom_site_fract_z
Si Si1 0.792068 0.940330 0.796657
Si Si2 0.288826 0.338828 0.376858
Si Si3 0.699999 0.542427 0.946238
Si Si4 0.792035 0.609400 0.395633
Si Si5 0.288457 0.165438 0.988529
Si Si6 0.204890 0.615277 0.202384
O O1 0.750000 0.905093 0.750000
O O2 0.728261 0.887690 0.835416
O O3 0.000000 0.946319 0.801051
O O4 0.717560 0.027629 0.797419
O O5 0.500000 0.344300 0.380663
O O6 0.242049 0.250000 0.372611
O O7 0.205505 0.379151 0.418101
O O8 0.500000 0.518808 0.954129
O O9 0.774145 0.475954 0.913236
O O10 0.773295 0.582588 0.990792
O O11 0.745868 0.661936 0.437117
O O12 0.741047 0.640621 0.347654
O O13 0.000000 0.603786 0.393076
O O14 0.500000 0.164144 0.992279
O O15 0.227744 0.250000 0.005983
O O16 0.250000 0.652091 0.250000
O O17 0.000000 0.610648 0.204529
#
# Coordination Sequence:
#
# PCOD9535936 Si02
#       6
#    16  16  16  16  16  16
#     4   9  18  31  46  65  92 127 167 209 256 304
#     4  10  20  33  47  66  98 137 173 213 262 311
#     4  10  19  32  52  77 104 135 177 220 257 302
#     4  10  19  32  54  82 108 138 177 219 262 310
#     4   9  18  33  53  78 109 142 176 217 264 312
#     4  10  19  33  54  79 108 138 172 217 266 315
#
# _framework density 23.679590999999999
#
# number of rings (size 3 to 8) (size 9 to 14) (size 15 to 20)
#    0.000    2.333    1.667    1.500    0.000    4.667 
#    0.000    0.833    0.000    4.000    0.000    0.000 
#    0.000    0.000    0.000    0.000    0.000    0.000 
#
# Total GULP energy -267424.690624 kJ/mol
# GULP energy per Si atom -5571.347721 kJ/mol
# Density = 2.362569 g / cm^3
# Si number density = 23.679591 Si / 1000 Ang^3
#
#
#
# Elastic Constant Matrix: (Units=GPa)
#
#
# Indices 1 2 3 4 5 6 
#
# 1 40.7478 2.7570 3.0827 0.0000 0.0000 0.0000
# 2 2.7570 81.0558 1.4811 0.0000 0.0000 0.0000
# 3 3.0827 1.4811 145.5857 0.0000 0.0000 0.0000
# 4 0.0000 0.0000 0.0000 17.5779 0.0000 0.0000
# 5 0.0000 0.0000 0.0000 0.0000 19.2177 0.0000
# 6 0.0000 0.0000 0.0000 0.0000 0.0000 10.9919
#
#
#
# Elastic Compliance Matrix: (Units=1/GPa)
#
#
# Indices 1 2 3 4 5 6 
#
# 1 0.024636 -0.000829 -0.000513 0.000000 0.000000 0.000000
# 2 -0.000829 0.012367 -0.000108 0.000000 0.000000 0.000000
# 3 -0.000513 -0.000108 0.006881 0.000000 0.000000 0.000000
# 4 0.000000 0.000000 0.000000 0.056890 0.000000 0.000000
# 5 0.000000 0.000000 0.000000 0.000000 0.052035 0.000000
# 6 0.000000 0.000000 0.000000 0.000000 0.000000 0.090976
#
#
# Mechanical properties :
#
#
# Convention : Reuss Voigt Hill
#
# Bulk Modulus (GPa) = 24.39974 31.33676 27.86825
# Shear Modulus (GPa) = 19.20515 26.89541 23.05028
#
# Velocity S-wave (km/s) = 2.85097 3.37383 3.12336
# Velocity P-wave (km/s) = 4.60042 5.33285 4.98012
#
# Compressibility (1/GPa) = 0.04098405
#
# Stress axis : x y z
#
# Youngs Moduli (GPa) = 40.59085 80.85808 145.33248
#
# Poissons Ratio (x) = 0.06700 0.07459
# Poissons Ratio (y) = 0.03363 0.01574
# Poissons Ratio (z) = 0.02083 0.00875
#
# Static dielectric constant tensor:
#      x y z
#    x 1.826560 0.000000 0.000000 
#    y 0.000000 1.924190 0.000000 
#    z 0.000000 0.000000 2.015770 
# 
# From -- ./inp_files/64318.got.cif
#   From: 2010.05.17/outbox.cif.g08.bks.cpg/sg74_33_cif.got.tgz:64318.got - 2010.06.03 17:57:02.
