data_PCOD9535172
_publ_section_title
;
Structure prediction by ZEFSAII (Michael W. Deem and Ramdas Pophale) SiO2 
 PCOD9535172
Probable space group: I M M A
;
_chemical_formula_sum "Si O2"
_cell_formula_units_Z 72
_cell_length_a 27.461757
_cell_length_b 14.687069
_cell_length_c 9.634700
_cell_angle_alpha 90.000000
_cell_angle_beta 90.000000
_cell_angle_gamma 90.000000
_cell_volume 3885.989757
_symmetry_space_group_name_H-M "I M M A"
_symmetry_group_IT_number 74
_symmetry_cell_setting 'orthorhombic'
loop_
_space_group_symop_operation_xyz
x,y,z
-x,1/2-y,z
x,-y,-z
-x,1/2+y,-z
-x,-y,-z
x,1/2+y,-z
-x,y,z
x,1/2-y,z
1/2+x,1/2+y,1/2+z
1/2-x,-y,1/2+z
1/2+x,1/2-y,1/2-z
1/2-x,y,1/2-z
1/2-x,1/2-y,1/2-z
1/2+x,y,1/2-z
1/2-x,1/2+y,1/2+z
1/2+x,-y,1/2+z
loop_
_atom_site_type_symbol
_atom_site_label
_atom_site_fract_x
_atom_site_fract_y
_atom_site_fract_z
Si Si1 0.692476 0.250000 0.223867
Si Si2 0.307083 0.750000 0.219489
Si Si3 0.055493 0.597009 0.073222
Si Si4 0.444842 0.859588 0.109578
Si Si5 0.657357 0.394407 0.002975
Si Si6 0.630265 0.250000 0.501341
O O1 0.750000 0.250000 0.250000
O O2 0.663782 0.250000 0.367352
O O3 0.676864 0.338398 0.134476
O O4 0.250000 0.750000 0.250000
O O5 0.322279 0.837906 0.128716
O O6 0.336705 0.750000 0.361573
O O7 0.063045 0.594989 0.239724
O O8 0.094912 0.663524 0.008466
O O9 0.000000 0.631343 0.054224
O O10 0.058982 0.500000 0.000000
O O11 0.500000 0.880046 0.062024
O O12 0.441641 0.750000 0.130894
O O13 0.401396 0.887184 0.008092
O O14 0.671506 0.500000 0.000000
#
# Coordination Sequence:
#
# PCOD9535172 Si02
#       6
#     8   8  16  16  16   8
#     4  11  27  46  60  90 131 159 201 277 325 357
#     4  11  23  44  67  88 116 164 217 260 311 376
#     4  10  20  34  58  94 129 160 200 250 302 364
#     4  10  18  37  65  90 125 171 209 244 301 377
#     4  11  23  43  66  94 126 163 206 256 316 375
#     4  12  21  38  67  88 117 167 207 251 311 368
#
# _framework density 18.528099000000001
#
# number of rings (size 3 to 8) (size 9 to 14) (size 15 to 20)
#    0.000    1.333    5.556    1.667    3.111    1.333 
#    0.000    4.444    0.000    0.000    0.000    0.000 
#    0.000    0.000    0.000    0.000    0.000    0.000 
#
# Total GULP energy -201121.984402 kJ/mol
# GULP energy per Si atom -5586.721789 kJ/mol
# Density = 1.848593 g / cm^3
# Si number density = 18.528099 Si / 1000 Ang^3
#
#
#
# Elastic Constant Matrix: (Units=GPa)
#
#
# Indices 1 2 3 4 5 6 
#
# 1 174.2696 58.2961 76.7546 0.0000 0.0000 0.0000
# 2 58.2961 134.2550 61.2504 0.0000 0.0000 0.0000
# 3 76.7546 61.2504 124.5643 0.0000 0.0000 0.0000
# 4 0.0000 0.0000 0.0000 4.6488 0.0000 0.0000
# 5 0.0000 0.0000 0.0000 0.0000 -38.7034 0.0000
# 6 0.0000 0.0000 0.0000 0.0000 0.0000 3.5730
#
#
#
# Elastic Compliance Matrix: (Units=1/GPa)
#
#
# Indices 1 2 3 4 5 6 
#
# 1 0.008136 -0.001606 -0.004223 0.000000 0.000000 0.000000
# 2 -0.001606 0.009920 -0.003888 0.000000 0.000000 0.000000
# 3 -0.004223 -0.003888 0.012542 0.000000 0.000000 0.000000
# 4 0.000000 0.000000 0.000000 0.215110 0.000000 0.000000
# 5 0.000000 0.000000 0.000000 0.000000 -0.025837 0.000000
# 6 0.000000 0.000000 0.000000 0.000000 0.000000 0.279880
#
#
# Mechanical properties :
#
#
# Convention : Reuss Voigt Hill
#
# Bulk Modulus (GPa) = 89.58417 91.74347 90.66382
# Shear Modulus (GPa) = 9.56194 9.68951 9.62573
#
# Velocity S-wave (km/s) = 2.27420 2.28932 2.28177
# Velocity P-wave (km/s) = 7.43985 7.52405 7.48207
#
# Compressibility (1/GPa) = 0.01116269
#
# Stress axis : x y z
#
# Youngs Moduli (GPa) = 122.91759 100.80974 79.73034
#
# Poissons Ratio (x) = 0.16188 0.33673
# Poissons Ratio (y) = 0.19738 0.31001
# Poissons Ratio (z) = 0.51913 0.39197
#
# Static dielectric constant tensor:
#      x y z
#    x 1.644690 0.000000 0.000000 
#    y 0.000000 1.629690 0.000000 
#    z 0.000000 0.000000 1.622220 
# 
# From -- ./inp_files/9197.got.cif
#   From: 2010.05.17/outbox.cif.g08.bks.cpg/sg74_5_cif.got.tgz:9197.got - 2010.06.03 17:57:02.
