data_PCOD9535677
_publ_section_title
;
Structure prediction by ZEFSAII (Michael W. Deem and Ramdas Pophale) SiO2 
 PCOD9535677
Probable space group: I M M A
;
_chemical_formula_sum "Si O2"
_cell_formula_units_Z 72
_cell_length_a 7.534892
_cell_length_b 15.166792
_cell_length_c 30.410817
_cell_angle_alpha 90.000000
_cell_angle_beta 90.000000
_cell_angle_gamma 90.000000
_cell_volume 3475.352415
_symmetry_space_group_name_H-M "I M M A"
_symmetry_group_IT_number 74
_symmetry_cell_setting 'orthorhombic'
loop_
_space_group_symop_operation_xyz
x,y,z
-x,1/2-y,z
x,-y,-z
-x,1/2+y,-z
-x,-y,-z
x,1/2+y,-z
-x,y,z
x,1/2-y,z
1/2+x,1/2+y,1/2+z
1/2-x,-y,1/2+z
1/2+x,1/2-y,1/2-z
1/2-x,y,1/2-z
1/2-x,1/2-y,1/2-z
1/2+x,y,1/2-z
1/2-x,1/2+y,1/2+z
1/2+x,-y,1/2+z
loop_
_atom_site_type_symbol
_atom_site_label
_atom_site_fract_x
_atom_site_fract_y
_atom_site_fract_z
Si Si1 0.208549 0.438248 0.620451
Si Si2 0.783401 0.559266 0.542113
Si Si3 0.289384 0.058688 0.301657
Si Si4 0.282919 0.250000 0.910256
Si Si5 0.716462 0.750000 0.986790
Si Si6 0.212491 0.250000 0.197650
O O1 0.281071 0.509254 0.585561
O O2 0.225407 0.478738 0.668641
O O3 0.280283 0.340263 0.612385
O O4 0.000000 0.431766 0.610273
O O5 0.734929 0.500000 0.500000
O O6 0.722907 0.659576 0.535758
O O7 0.000000 0.562457 0.542938
O O8 0.500000 0.061809 0.306204
O O9 0.250000 0.048899 0.250000
O O10 0.217965 0.154747 0.317796
O O11 0.500000 0.250000 0.908636
O O12 0.233841 0.250000 0.961720
O O13 0.500000 0.750000 0.985943
O O14 0.250000 0.250000 0.250000
O O15 0.000000 0.250000 0.191176
#
# Coordination Sequence:
#
# PCOD9535677 Si02
#       6
#    16  16  16   8   8   8
#     4  10  19  31  50  77 105 136 175 217 260 305
#     4   9  15  24  41  68 100 131 166 209 252 295
#     4  10  20  36  56  78 104 135 169 210 257 309
#     4   9  16  28  47  71 102 140 178 213 254 304
#     4   9  14  23  41  69 103 136 171 213 256 296
#     4   8  16  31  52  74  97 128 161 194 245 306
#
# _framework density 20.717321999999999
#
# number of rings (size 3 to 8) (size 9 to 14) (size 15 to 20)
#    0.000    2.667    2.222    0.667    0.000    1.778 
#    0.000    2.222    0.000    0.667    0.000    0.000 
#    0.000    0.000    0.000    0.000    0.000    0.000 
#
# Total GULP energy -200818.753572 kJ/mol
# GULP energy per Si atom -5578.298710 kJ/mol
# Density = 2.067017 g / cm^3
# Si number density = 20.717322 Si / 1000 Ang^3
#
#
#
# Elastic Constant Matrix: (Units=GPa)
#
#
# Indices 1 2 3 4 5 6 
#
# 1 50.0205 10.0071 -6.9773 0.0000 0.0000 0.0000
# 2 10.0071 241.5398 89.2369 0.0000 0.0000 0.0000
# 3 -6.9773 89.2369 85.3236 0.0000 0.0000 0.0000
# 4 0.0000 0.0000 0.0000 30.3719 0.0000 0.0000
# 5 0.0000 0.0000 0.0000 0.0000 -5.7741 0.0000
# 6 0.0000 0.0000 0.0000 0.0000 0.0000 -7.6132
#
#
#
# Elastic Compliance Matrix: (Units=1/GPa)
#
#
# Indices 1 2 3 4 5 6 
#
# 1 0.021084 -0.002462 0.004299 0.000000 0.000000 0.000000
# 2 -0.002462 0.007035 -0.007559 0.000000 0.000000 0.000000
# 3 0.004299 -0.007559 0.019977 0.000000 0.000000 0.000000
# 4 0.000000 0.000000 0.000000 0.032925 0.000000 0.000000
# 5 0.000000 0.000000 0.000000 0.000000 -0.173187 0.000000
# 6 0.000000 0.000000 0.000000 0.000000 0.000000 -0.131351
#
#
# Mechanical properties :
#
#
# Convention : Reuss Voigt Hill
#
# Bulk Modulus (GPa) = 27.28344 62.37970 44.83157
# Shear Modulus (GPa) = -25.01789 22.37140 -1.32325
#
# Velocity S-wave (km/s) = -3.47880 3.28966 -0.80006
# Velocity P-wave (km/s) = 1.71409 6.67865 4.56434
#
# Compressibility (1/GPa) = 0.03665227
#
# Stress axis : x y z
#
# Youngs Moduli (GPa) = 47.42957 142.15472 50.05808
#
# Poissons Ratio (x) = 0.34994 -0.21518
# Poissons Ratio (y) = 0.11676 0.37837
# Poissons Ratio (z) = -0.20388 1.07448
#
# Static dielectric constant tensor:
#      x y z
#    x 1.819440 0.000000 0.000000 
#    y 0.000000 1.773020 0.000000 
#    z 0.000000 0.000000 1.693440 
# 
# From -- ./inp_files/70029.got.cif
#   From: 2010.05.17/outbox.cif.g08.bks.cpg/sg74_36_cif.got.tgz:70029.got - 2010.06.03 17:57:02.
