data_PCOD9535582
_publ_section_title
;
Structure prediction by ZEFSAII (Michael W. Deem and Ramdas Pophale) SiO2 
 PCOD9535582
Probable space group: I M M A
;
_chemical_formula_sum "Si O2"
_cell_formula_units_Z 116
_cell_length_a 7.600684
_cell_length_b 27.783715
_cell_length_c 28.213574
_cell_angle_alpha 90.000000
_cell_angle_beta 90.000000
_cell_angle_gamma 90.000000
_cell_volume 5958.008206
_symmetry_space_group_name_H-M "I M M A"
_symmetry_group_IT_number 74
_symmetry_cell_setting 'orthorhombic'
loop_
_space_group_symop_operation_xyz
x,y,z
-x,1/2-y,z
x,-y,-z
-x,1/2+y,-z
-x,-y,-z
x,1/2+y,-z
-x,y,z
x,1/2-y,z
1/2+x,1/2+y,1/2+z
1/2-x,-y,1/2+z
1/2+x,1/2-y,1/2-z
1/2-x,y,1/2-z
1/2-x,1/2-y,1/2-z
1/2+x,y,1/2-z
1/2-x,1/2+y,1/2+z
1/2+x,-y,1/2+z
loop_
_atom_site_type_symbol
_atom_site_label
_atom_site_fract_x
_atom_site_fract_y
_atom_site_fract_z
Si Si1 0.790109 0.434969 0.195224
Si Si2 0.710193 0.834851 0.567368
Si Si3 0.500000 0.750000 0.792127
Si Si4 0.787577 0.324169 0.174367
Si Si5 0.706879 0.093987 0.942289
Si Si6 0.702817 0.058554 0.041689
Si Si7 0.698206 0.011546 0.622291
Si Si8 0.207735 0.198230 0.536130
O O1 0.750000 0.443189 0.250000
O O2 0.740435 0.380375 0.181916
O O3 0.715902 0.477727 0.162373
O O4 0.000000 0.435601 0.187544
O O5 0.500000 0.840000 0.564023
O O6 0.746335 0.812683 0.618681
O O7 0.789799 0.888191 0.563983
O O8 0.772988 0.807173 0.520775
O O9 0.655784 0.708395 0.796291
O O10 0.000000 0.317142 0.183474
O O11 0.500000 0.099094 0.953086
O O12 0.780091 0.148317 0.942209
O O13 0.723949 0.061724 0.895885
O O14 0.776554 0.065789 0.988727
O O15 0.500000 0.041703 0.039877
O O16 0.801073 0.022750 0.076208
O O17 0.500000 0.022739 0.637109
O O18 0.284073 0.250000 0.550444
O O19 0.000000 0.199571 0.547143
#
# Coordination Sequence:
#
# PCOD9535582 Si02
#       8
#    16  16   4  16  16  16  16  16
#     4  10  23  42  63  82 106 134 175 227 281 345
#     4  10  19  31  48  72 105 137 175 229 274 308
#     4  12  26  36  66  82 102 146 186 218 308 338
#     4  10  23  41  57  82 110 135 182 240 279 344
#     4   9  19  33  47  75 110 142 179 221 255 306
#     4  10  19  31  50  73 104 141 179 215 256 322
#     4  11  21  34  53  80 107 135 169 216 273 331
#     4   9  19  33  50  71 103 146 191 225 253 305
#
# _framework density 19.469594000000001
#
# number of rings (size 3 to 8) (size 9 to 14) (size 15 to 20)
#    0.000    2.069    1.379    2.690    3.862    5.793 
#    0.000    0.345    0.000    0.000    0.000    0.000 
#    0.000    0.552    0.000    1.241    0.000    1.931 
#
# Total GULP energy -323232.246982 kJ/mol
# GULP energy per Si atom -5572.969776 kJ/mol
# Density = 1.942528 g / cm^3
# Si number density = 19.469594 Si / 1000 Ang^3
#
#
#
# Elastic Constant Matrix: (Units=GPa)
#
#
# Indices 1 2 3 4 5 6 
#
# 1 52.6368 7.7639 10.4276 0.0000 0.0000 0.0000
# 2 7.7639 129.1924 63.5418 0.0000 0.0000 0.0000
# 3 10.4276 63.5418 66.7890 0.0000 0.0000 0.0000
# 4 0.0000 0.0000 0.0000 -49.2866 0.0000 0.0000
# 5 0.0000 0.0000 0.0000 0.0000 14.5057 0.0000
# 6 0.0000 0.0000 0.0000 0.0000 0.0000 14.1504
#
#
#
# Elastic Compliance Matrix: (Units=1/GPa)
#
#
# Indices 1 2 3 4 5 6 
#
# 1 0.019631 0.000616 -0.003651 0.000000 0.000000 0.000000
# 2 0.000616 0.014567 -0.013955 0.000000 0.000000 0.000000
# 3 -0.003651 -0.013955 0.028819 0.000000 0.000000 0.000000
# 4 0.000000 0.000000 0.000000 -0.020290 0.000000 0.000000
# 5 0.000000 0.000000 0.000000 0.000000 0.068938 0.000000
# 6 0.000000 0.000000 0.000000 0.000000 0.000000 0.070669
#
#
# Mechanical properties :
#
#
# Convention : Reuss Voigt Hill
#
# Bulk Modulus (GPa) = 34.43906 45.78720 40.11313
# Shear Modulus (GPa) = 22.12457 6.99957 14.56207
#
# Velocity S-wave (km/s) = 3.37466 1.89814 2.73781
# Velocity P-wave (km/s) = 5.73685 5.32656 5.53551
#
# Compressibility (1/GPa) = 0.02903680
#
# Stress axis : x y z
#
# Youngs Moduli (GPa) = 50.94109 68.64872 34.69942
#
# Poissons Ratio (x) = -0.04228 0.12668
# Poissons Ratio (y) = -0.03138 0.48423
# Poissons Ratio (z) = 0.18598 0.95798
#
# Static dielectric constant tensor:
#      x y z
#    x 1.724920 0.000000 0.000000 
#    y 0.000000 1.726200 0.000000 
#    z 0.000000 0.000000 2.216710 
# 
# From -- ./inp_files/65041.got.cif
#   From: 2010.05.17/outbox.cif.g08.bks.cpg/sg74_33_cif.got.tgz:65041.got - 2010.06.03 17:57:02.
