data_PCOD9535547
_publ_section_title
;
Structure prediction by ZEFSAII (Michael W. Deem and Ramdas Pophale) SiO2 
 PCOD9535547
Probable space group: I M M A
;
_chemical_formula_sum "Si O2"
_cell_formula_units_Z 96
_cell_length_a 30.155972
_cell_length_b 9.309180
_cell_length_c 19.519587
_cell_angle_alpha 90.000000
_cell_angle_beta 90.000000
_cell_angle_gamma 90.000000
_cell_volume 5479.682350
_symmetry_space_group_name_H-M "I M M A"
_symmetry_group_IT_number 74
_symmetry_cell_setting 'orthorhombic'
loop_
_space_group_symop_operation_xyz
x,y,z
-x,1/2-y,z
x,-y,-z
-x,1/2+y,-z
-x,-y,-z
x,1/2+y,-z
-x,y,z
x,1/2-y,z
1/2+x,1/2+y,1/2+z
1/2-x,-y,1/2+z
1/2+x,1/2-y,1/2-z
1/2-x,y,1/2-z
1/2-x,1/2-y,1/2-z
1/2+x,y,1/2-z
1/2-x,1/2+y,1/2+z
1/2+x,-y,1/2+z
loop_
_atom_site_type_symbol
_atom_site_label
_atom_site_fract_x
_atom_site_fract_y
_atom_site_fract_z
Si Si1 0.631643 0.077474 0.780340
Si Si2 0.605265 0.584193 0.569897
Si Si3 0.854868 0.415691 0.567408
Si Si4 0.747852 0.583126 0.430705
Si Si5 0.949275 0.079916 0.820781
Si Si6 0.310684 0.916927 0.672490
O O1 0.640417 0.250000 0.779203
O O2 0.628588 0.030373 0.859066
O O3 0.585933 0.051087 0.739658
O O4 0.670414 0.995097 0.739748
O O5 0.612871 0.500000 0.500000
O O6 0.595192 0.750000 0.555795
O O7 0.566627 0.509846 0.613873
O O8 0.648859 0.577962 0.617717
O O9 0.869115 0.500000 0.500000
O O10 0.868116 0.250000 0.560335
O O11 0.801197 0.420654 0.571003
O O12 0.733733 0.500000 0.500000
O O13 0.733538 0.750000 0.433098
O O14 0.728320 0.503687 0.364590
O O15 0.945923 0.250000 0.836467
O O16 0.000000 0.048029 0.802200
O O17 0.299515 0.750000 0.684877
#
# Coordination Sequence:
#
# PCOD9535547 Si02
#       6
#    16  16  16  16  16  16
#     4   9  18  34  53  72  96 125 157 195 240 287
#     4  10  20  32  47  68  96 130 165 199 234 274
#     4   9  19  34  52  73  96 125 159 195 238 287
#     4  10  19  31  47  68  96 130 167 203 238 276
#     4   9  18  33  53  74  94 120 156 196 238 284
#     4  10  20  32  47  70  98 130 167 202 238 277
#
# _framework density 17.519264
#
# number of rings (size 3 to 8) (size 9 to 14) (size 15 to 20)
#    0.000    2.500    0.000    2.000    0.000    6.000 
#    0.000    3.333    0.000    0.500    0.000    0.000 
#    0.000    0.000    0.000    0.000    0.000    0.000 
#
# Total GULP energy -267818.134483 kJ/mol
# GULP energy per Si atom -5579.544468 kJ/mol
# Density = 1.747939 g / cm^3
# Si number density = 17.519264 Si / 1000 Ang^3
#
#
#
# Elastic Constant Matrix: (Units=GPa)
#
#
# Indices 1 2 3 4 5 6 
#
# 1 10.3247 12.7619 0.1394 0.0000 0.0000 0.0000
# 2 12.7619 75.1531 49.0217 0.0000 0.0000 0.0000
# 3 0.1394 49.0217 116.6581 0.0000 0.0000 0.0000
# 4 0.0000 0.0000 0.0000 29.8616 0.0000 0.0000
# 5 0.0000 0.0000 0.0000 0.0000 5.6007 0.0000
# 6 0.0000 0.0000 0.0000 0.0000 0.0000 16.2151
#
#
#
# Elastic Compliance Matrix: (Units=1/GPa)
#
#
# Indices 1 2 3 4 5 6 
#
# 1 0.135752 -0.031611 0.013121 0.000000 0.000000 0.000000
# 2 -0.031611 0.025692 -0.010758 0.000000 0.000000 0.000000
# 3 0.013121 -0.010758 0.013077 0.000000 0.000000 0.000000
# 4 0.000000 0.000000 0.000000 0.033488 0.000000 0.000000
# 5 0.000000 0.000000 0.000000 0.000000 0.178548 0.000000
# 6 0.000000 0.000000 0.000000 0.000000 0.000000 0.061671
#
#
# Mechanical properties :
#
#
# Convention : Reuss Voigt Hill
#
# Bulk Modulus (GPa) = 8.61888 36.22019 22.41954
# Shear Modulus (GPa) = 9.16761 19.68300 14.42530
#
# Velocity S-wave (km/s) = 2.29003 3.35551 2.87260
# Velocity P-wave (km/s) = 3.45292 5.97762 4.88132
#
# Compressibility (1/GPa) = 0.11602429
#
# Stress axis : x y z
#
# Youngs Moduli (GPa) = 7.36639 38.92309 76.46890
#
# Poissons Ratio (x) = 1.23041 -1.00338
# Poissons Ratio (y) = 0.23286 0.82268
# Poissons Ratio (z) = -0.09666 0.41875
#
# Static dielectric constant tensor:
#      x y z
#    x 1.589340 0.000000 0.000000 
#    y 0.000000 1.594460 0.000000 
#    z 0.000000 0.000000 1.587350 
# 
# From -- ./inp_files/55063.got.cif
#   From: 2010.05.17/outbox.cif.g08.bks.cpg/sg74_28_cif.got.tgz:55063.got - 2010.06.03 17:57:02.
