data_PCOD9535457
_publ_section_title
;
Structure prediction by ZEFSAII (Michael W. Deem and Ramdas Pophale) SiO2 
 PCOD9535457
Probable space group: I M M A
;
_chemical_formula_sum "Si O2"
_cell_formula_units_Z 116
_cell_length_a 15.473952
_cell_length_b 15.357244
_cell_length_c 26.163440
_cell_angle_alpha 90.000000
_cell_angle_beta 90.000000
_cell_angle_gamma 90.000000
_cell_volume 6217.408102
_symmetry_space_group_name_H-M "I M M A"
_symmetry_group_IT_number 74
_symmetry_cell_setting 'orthorhombic'
loop_
_space_group_symop_operation_xyz
x,y,z
-x,1/2-y,z
x,-y,-z
-x,1/2+y,-z
-x,-y,-z
x,1/2+y,-z
-x,y,z
x,1/2-y,z
1/2+x,1/2+y,1/2+z
1/2-x,-y,1/2+z
1/2+x,1/2-y,1/2-z
1/2-x,y,1/2-z
1/2-x,1/2-y,1/2-z
1/2+x,y,1/2-z
1/2-x,1/2+y,1/2+z
1/2+x,-y,1/2+z
loop_
_atom_site_type_symbol
_atom_site_label
_atom_site_fract_x
_atom_site_fract_y
_atom_site_fract_z
Si Si1 0.149601 0.083522 0.257276
Si Si2 0.098395 0.355455 0.370020
Si Si3 0.598524 0.088666 0.624724
Si Si4 0.844497 0.378615 0.767245
Si Si5 0.000000 0.750000 0.257089
Si Si6 0.262953 0.848008 0.571310
Si Si7 0.099522 0.644290 0.010385
Si Si8 0.906544 0.382717 0.148373
O O1 0.250000 0.107316 0.250000
O O2 0.117477 0.110643 0.312916
O O3 0.100109 0.125049 0.209275
O O4 0.143466 0.979464 0.249243
O O5 0.104960 0.250000 0.368650
O O6 0.173030 0.388151 0.409001
O O7 0.000000 0.378251 0.384547
O O8 0.500000 0.120537 0.632124
O O9 0.652550 0.127221 0.671087
O O10 0.622518 0.114447 0.567553
O O11 0.598312 0.984989 0.633410
O O12 0.750000 0.350965 0.750000
O O13 0.923609 0.324674 0.745501
O O14 0.242587 0.750000 0.553106
O O15 0.327329 0.888102 0.528942
O O16 0.324668 0.842614 0.620775
O O17 0.098189 0.750000 0.008148
O O18 0.000000 0.615150 0.999190
O O19 0.000000 0.350060 0.130327
#
# Coordination Sequence:
#
# PCOD9535457 Si02
#       8
#    16  16  16  16   4  16  16  16
#     4  10  19  35  53  76 110 142 183 223 265 320
#     4  10  21  35  54  77 103 143 193 229 263 317
#     4   9  18  33  52  79 107 141 176 213 258 320
#     4  10  22  35  55  84 111 143 182 219 268 326
#     4  12  22  36  56  82 114 150 172 228 268 324
#     4  10  20  34  49  74 105 136 176 222 270 309
#     4   9  18  31  52  78 106 137 174 216 267 327
#     4  10  19  30  48  73 106 138 170 210 263 318
#
# _framework density 18.657292000000002
#
# number of rings (size 3 to 8) (size 9 to 14) (size 15 to 20)
#    0.000    2.207    2.069    1.034    2.897    2.207 
#    0.000    2.069    0.000    0.000    1.793    0.966 
#    0.000    0.000    0.000    0.000    0.000    0.000 
#
# Total GULP energy -322958.906782 kJ/mol
# GULP energy per Si atom -5568.257013 kJ/mol
# Density = 1.861483 g / cm^3
# Si number density = 18.657292 Si / 1000 Ang^3
#
#
#
# Elastic Constant Matrix: (Units=GPa)
#
#
# Indices 1 2 3 4 5 6 
#
# 1 166.3397 22.4401 69.3066 0.0000 0.0000 0.0000
# 2 22.4401 24.3341 11.6440 0.0000 0.0000 0.0000
# 3 69.3066 11.6440 120.6199 0.0000 0.0000 0.0000
# 4 0.0000 0.0000 0.0000 31.5845 0.0000 0.0000
# 5 0.0000 0.0000 0.0000 0.0000 33.7003 0.0000
# 6 0.0000 0.0000 0.0000 0.0000 0.0000 19.5544
#
#
#
# Elastic Compliance Matrix: (Units=1/GPa)
#
#
# Indices 1 2 3 4 5 6 
#
# 1 0.008633 -0.005858 -0.004395 0.000000 0.000000 0.000000
# 2 -0.005858 0.047060 -0.001177 0.000000 0.000000 0.000000
# 3 -0.004395 -0.001177 0.010929 0.000000 0.000000 0.000000
# 4 0.000000 0.000000 0.000000 0.031661 0.000000 0.000000
# 5 0.000000 0.000000 0.000000 0.000000 0.029673 0.000000
# 6 0.000000 0.000000 0.000000 0.000000 0.000000 0.051139
#
#
# Mechanical properties :
#
#
# Convention : Reuss Voigt Hill
#
# Bulk Modulus (GPa) = 22.85062 57.56390 40.20726
# Shear Modulus (GPa) = 23.08993 30.82805 26.95899
#
# Velocity S-wave (km/s) = 3.52174 4.06930 3.80538
# Velocity P-wave (km/s) = 5.36759 7.28006 6.39571
#
# Compressibility (1/GPa) = 0.04376248
#
# Stress axis : x y z
#
# Youngs Moduli (GPa) = 115.82986 21.24942 91.49579
#
# Poissons Ratio (x) = 0.12449 0.40213
# Poissons Ratio (y) = 0.67857 0.10768
# Poissons Ratio (z) = 0.50908 0.02501
#
# Static dielectric constant tensor:
#      x y z
#    x 1.655770 0.000000 0.000000 
#    y 0.000000 1.691820 0.000000 
#    z 0.000000 0.000000 1.650720 
# 
# From -- ./inp_files/60343.got.cif
#   From: 2010.05.17/outbox.cif.g08.bks.cpg/sg74_31_cif.got.tgz:60343.got - 2010.06.03 17:57:02.
