data_PCOD9535011
_publ_section_title
;
Structure prediction by ZEFSAII (Michael W. Deem and Ramdas Pophale) SiO2 
 PCOD9535011
Probable space group: I M M A
;
_chemical_formula_sum "Si O2"
_cell_formula_units_Z 80
_cell_length_a 25.444630
_cell_length_b 9.051051
_cell_length_c 20.413342
_cell_angle_alpha 90.000000
_cell_angle_beta 90.000000
_cell_angle_gamma 90.000000
_cell_volume 4701.205805
_symmetry_space_group_name_H-M "I M M A"
_symmetry_group_IT_number 74
_symmetry_cell_setting 'orthorhombic'
loop_
_space_group_symop_operation_xyz
x,y,z
-x,1/2-y,z
x,-y,-z
-x,1/2+y,-z
-x,-y,-z
x,1/2+y,-z
-x,y,z
x,1/2-y,z
1/2+x,1/2+y,1/2+z
1/2-x,-y,1/2+z
1/2+x,1/2-y,1/2-z
1/2-x,y,1/2-z
1/2-x,1/2-y,1/2-z
1/2+x,y,1/2-z
1/2-x,1/2+y,1/2+z
1/2+x,-y,1/2+z
loop_
_atom_site_type_symbol
_atom_site_label
_atom_site_fract_x
_atom_site_fract_y
_atom_site_fract_z
Si Si1 0.281256 0.575082 0.318246
Si Si2 0.108988 0.574080 0.392357
Si Si3 0.606739 0.924967 0.264874
Si Si4 0.282922 0.926322 0.933552
Si Si5 0.500000 0.581301 0.735853
Si Si6 0.000000 0.921514 0.604493
O O1 0.280165 0.750000 0.336043
O O2 0.250000 0.561913 0.250000
O O3 0.340957 0.528369 0.302991
O O4 0.252477 0.480906 0.373237
O O5 0.110989 0.750000 0.405142
O O6 0.113562 0.551981 0.313447
O O7 0.158483 0.490867 0.422775
O O8 0.053387 0.505700 0.414761
O O9 0.600865 0.750000 0.273675
O O10 0.553399 0.003451 0.285853
O O11 0.284432 0.750000 0.937957
O O12 0.262213 0.000000 0.000000
O O13 0.500000 0.750000 0.715402
O O14 0.500000 0.576404 0.815653
O O15 0.000000 0.750000 0.583602
#
# Coordination Sequence:
#
# PCOD9535011 Si02
#       6
#    16  16  16  16   8   8
#     4  10  19  36  58  82 109 140 179 224 270 322
#     4  10  18  33  53  75 103 141 182 222 268 319
#     4   9  17  30  52  77 106 141 175 213 264 320
#     4  12  25  39  55  77 107 144 182 226 273 324
#     4   9  17  27  43  72 111 140 171 218 261 305
#     4   9  17  29  46  74 105 138 178 224 268 311
#
# _framework density 17.016911
#
# number of rings (size 3 to 8) (size 9 to 14) (size 15 to 20)
#    0.000    2.000    2.000    3.000    0.000    4.400 
#    0.000    0.500    0.000    0.000    0.000    0.700 
#    0.000    0.000    0.000    0.000    0.000    0.000 
#
# Total GULP energy -223340.565461 kJ/mol
# GULP energy per Si atom -5583.514137 kJ/mol
# Density = 1.697818 g / cm^3
# Si number density = 17.016911 Si / 1000 Ang^3
#
#
#
# Elastic Constant Matrix: (Units=GPa)
#
#
# Indices 1 2 3 4 5 6 
#
# 1 133.1209 60.9851 39.7155 0.0000 0.0000 0.0000
# 2 60.9851 103.1986 52.0574 0.0000 0.0000 0.0000
# 3 39.7155 52.0574 57.6561 0.0000 0.0000 0.0000
# 4 0.0000 0.0000 0.0000 19.8217 0.0000 0.0000
# 5 0.0000 0.0000 0.0000 0.0000 0.4489 0.0000
# 6 0.0000 0.0000 0.0000 0.0000 0.0000 28.7436
#
#
#
# Elastic Compliance Matrix: (Units=1/GPa)
#
#
# Indices 1 2 3 4 5 6 
#
# 1 0.010579 -0.004730 -0.003016 0.000000 0.000000 0.000000
# 2 -0.004730 0.019910 -0.014718 0.000000 0.000000 0.000000
# 3 -0.003016 -0.014718 0.032711 0.000000 0.000000 0.000000
# 4 0.000000 0.000000 0.000000 0.050450 0.000000 0.000000
# 5 0.000000 0.000000 0.000000 0.000000 2.227914 0.000000
# 6 0.000000 0.000000 0.000000 0.000000 0.000000 0.034790
#
#
# Mechanical properties :
#
#
# Convention : Reuss Voigt Hill
#
# Bulk Modulus (GPa) = 54.73334 66.61018 60.67176
# Shear Modulus (GPa) = 2.05984 19.21733 10.63859
#
# Velocity S-wave (km/s) = 1.10141 3.36416 2.50307
# Velocity P-wave (km/s) = 5.81819 7.37012 6.63965
#
# Compressibility (1/GPa) = 0.01827040
#
# Stress axis : x y z
#
# Youngs Moduli (GPa) = 94.52919 50.22706 30.57080
#
# Poissons Ratio (x) = 0.23757 0.09221
# Poissons Ratio (y) = 0.44711 0.44995
# Poissons Ratio (z) = 0.28514 0.73925
#
# Static dielectric constant tensor:
#      x y z
#    x 1.575550 0.000000 0.000000 
#    y 0.000000 1.563600 0.000000 
#    z 0.000000 0.000000 1.580280 
# 
# From -- ./inp_files/39840.got.cif
#   From: 2010.05.17/outbox.cif.g08.bks.cpg/sg74_20_cif.got.tgz:39840.got - 2010.06.03 17:57:02.
