data_PCOD9535522
_publ_section_title
;
Structure prediction by ZEFSAII (Michael W. Deem and Ramdas Pophale) SiO2 
 PCOD9535522
Probable space group: I M M A
;
_chemical_formula_sum "Si O2"
_cell_formula_units_Z 96
_cell_length_a 8.489775
_cell_length_b 31.520640
_cell_length_c 21.594862
_cell_angle_alpha 90.000000
_cell_angle_beta 90.000000
_cell_angle_gamma 90.000000
_cell_volume 5778.852911
_symmetry_space_group_name_H-M "I M M A"
_symmetry_group_IT_number 74
_symmetry_cell_setting 'orthorhombic'
loop_
_space_group_symop_operation_xyz
x,y,z
-x,1/2-y,z
x,-y,-z
-x,1/2+y,-z
-x,-y,-z
x,1/2+y,-z
-x,y,z
x,1/2-y,z
1/2+x,1/2+y,1/2+z
1/2-x,-y,1/2+z
1/2+x,1/2-y,1/2-z
1/2-x,y,1/2-z
1/2-x,1/2-y,1/2-z
1/2+x,y,1/2-z
1/2-x,1/2+y,1/2+z
1/2+x,-y,1/2+z
loop_
_atom_site_type_symbol
_atom_site_label
_atom_site_fract_x
_atom_site_fract_y
_atom_site_fract_z
Si Si1 0.690514 0.409528 0.153107
Si Si2 0.311656 0.886649 0.986738
Si Si3 0.811420 0.203376 0.049789
Si Si4 0.188679 0.498041 0.685257
Si Si5 0.689195 0.316521 0.185514
Si Si6 0.812039 0.966702 0.053823
O O1 0.500000 0.410060 0.156906
O O2 0.731840 0.405370 0.080909
O O3 0.750633 0.453304 0.180512
O O4 0.743657 0.365802 0.183421
O O5 0.500000 0.888032 0.992740
O O6 0.258159 0.837642 0.984972
O O7 0.234817 0.919076 0.034520
O O8 0.766528 0.250000 0.024731
O O9 0.753775 0.201679 0.121207
O O10 0.000000 0.199935 0.049274
O O11 0.250000 0.479361 0.750000
O O12 0.241855 0.477138 0.621009
O O13 0.000000 0.498422 0.686880
O O14 0.500000 0.314293 0.183712
O O15 0.750000 0.298060 0.250000
O O16 0.000000 0.970692 0.056962
O O17 0.755759 0.000000 0.000000
#
# Coordination Sequence:
#
# PCOD9535522 Si02
#       6
#    16  16  16  16  16  16
#     4   8  16  29  46  68  94 128 168 212 258 303
#     4  10  19  34  55  77 100 131 171 215 262 309
#     4  10  21  36  52  71  96 126 162 210 264 314
#     4  11  21  34  50  72 105 141 179 220 264 310
#     4  10  19  31  46  66  91 126 169 213 261 311
#     4  11  22  35  53  79 107 140 180 218 260 313
#
# _framework density 16.612293000000001
#
# number of rings (size 3 to 8) (size 9 to 14) (size 15 to 20)
#    0.000    2.000    1.667    4.000    0.000    2.333 
#    0.000    1.667    0.000    0.000    0.000    0.000 
#    0.000    0.667    0.000    2.500    0.000    3.833 
#
# Total GULP energy -267762.136412 kJ/mol
# GULP energy per Si atom -5578.377842 kJ/mol
# Density = 1.657448 g / cm^3
# Si number density = 16.612293 Si / 1000 Ang^3
#
#
#
# Elastic Constant Matrix: (Units=GPa)
#
#
# Indices 1 2 3 4 5 6 
#
# 1 47.3014 17.5002 27.8846 0.0000 0.0000 0.0000
# 2 17.5002 99.8497 53.0582 0.0000 0.0000 0.0000
# 3 27.8846 53.0582 98.9097 0.0000 0.0000 0.0000
# 4 0.0000 0.0000 0.0000 -4.0978 0.0000 0.0000
# 5 0.0000 0.0000 0.0000 0.0000 24.1286 0.0000
# 6 0.0000 0.0000 0.0000 0.0000 0.0000 18.1971
#
#
#
# Elastic Compliance Matrix: (Units=1/GPa)
#
#
# Indices 1 2 3 4 5 6 
#
# 1 0.025413 -0.000905 -0.006679 0.000000 0.000000 0.000000
# 2 -0.000905 0.014040 -0.007276 0.000000 0.000000 0.000000
# 3 -0.006679 -0.007276 0.015897 0.000000 0.000000 0.000000
# 4 0.000000 0.000000 0.000000 -0.244033 0.000000 0.000000
# 5 0.000000 0.000000 0.000000 0.000000 0.041445 0.000000
# 6 0.000000 0.000000 0.000000 0.000000 0.000000 0.054954
#
#
# Mechanical properties :
#
#
# Convention : Reuss Voigt Hill
#
# Bulk Modulus (GPa) = 39.01828 49.21630 44.11729
# Shear Modulus (GPa) = -92.55769 17.48676 -37.53546
#
# Velocity S-wave (km/s) = -7.47244 3.24796 -4.75858
# Velocity P-wave (km/s) = 7.13521 6.61486 1.89140
#
# Compressibility (1/GPa) = 0.02562901
#
# Stress axis : x y z
#
# Youngs Moduli (GPa) = 39.34959 71.22387 62.90684
#
# Poissons Ratio (x) = 0.06445 0.42016
# Poissons Ratio (y) = 0.03561 0.45774
# Poissons Ratio (z) = 0.26282 0.51826
#
# Static dielectric constant tensor:
#      x y z
#    x 1.555440 0.000000 0.000000 
#    y 0.000000 1.593090 0.000000 
#    z 0.000000 0.000000 1.552360 
# 
# From -- ./inp_files/55048.got.cif
#   From: 2010.05.17/outbox.cif.g08.bks.cpg/sg74_28_cif.got.tgz:55048.got - 2010.06.03 17:57:02.
