data_PCOD9535044
_publ_section_title
;
Structure prediction by ZEFSAII (Michael W. Deem and Ramdas Pophale) SiO2 
 PCOD9535044
Probable space group: I M M A
;
_chemical_formula_sum "Si O2"
_cell_formula_units_Z 80
_cell_length_a 19.105971
_cell_length_b 13.932846
_cell_length_c 15.922234
_cell_angle_alpha 90.000000
_cell_angle_beta 90.000000
_cell_angle_gamma 90.000000
_cell_volume 4238.507474
_symmetry_space_group_name_H-M "I M M A"
_symmetry_group_IT_number 74
_symmetry_cell_setting 'orthorhombic'
loop_
_space_group_symop_operation_xyz
x,y,z
-x,1/2-y,z
x,-y,-z
-x,1/2+y,-z
-x,-y,-z
x,1/2+y,-z
-x,y,z
x,1/2-y,z
1/2+x,1/2+y,1/2+z
1/2-x,-y,1/2+z
1/2+x,1/2-y,1/2-z
1/2-x,y,1/2-z
1/2-x,1/2-y,1/2-z
1/2+x,y,1/2-z
1/2-x,1/2+y,1/2+z
1/2+x,-y,1/2+z
loop_
_atom_site_type_symbol
_atom_site_label
_atom_site_fract_x
_atom_site_fract_y
_atom_site_fract_z
Si Si1 0.080275 0.486391 0.759473
Si Si2 0.694900 0.634349 0.172768
Si Si3 0.723003 0.634681 0.496130
Si Si4 0.807958 0.361953 0.178347
Si Si5 0.074392 0.635574 0.072165
O O1 0.126629 0.429198 0.691281
O O2 0.125442 0.576113 0.793371
O O3 0.076260 0.414294 0.838247
O O4 0.000000 0.509349 0.734588
O O5 0.680814 0.750000 0.173603
O O6 0.750000 0.617210 0.250000
O O7 0.728949 0.607363 0.082905
O O8 0.728453 0.750000 0.496122
O O9 0.730174 0.604195 0.592544
O O10 0.643191 0.607330 0.476605
O O11 0.828560 0.250000 0.167013
O O12 0.750000 0.367700 0.250000
O O13 0.077937 0.750000 0.084209
O O14 0.000000 0.613270 0.029614
#
# Coordination Sequence:
#
# PCOD9535044 Si02
#       5
#    16  16  16  16  16
#     4  11  22  35  54  84 120 154 186 224 286 352
#     4  10  18  33  58  87 117 147 182 227 286 353
#     4   9  18  34  58  83 108 147 191 235 285 332
#     4  10  23  42  59  77 105 147 203 252 282 322
#     4   9  17  30  50  82 121 148 169 209 274 351
#
# _framework density 18.874569999999999
#
# number of rings (size 3 to 8) (size 9 to 14) (size 15 to 20)
#    0.000    2.200    2.000    1.200    0.000    3.200 
#    0.000    4.000    0.000    2.400    0.000    5.600 
#    0.000    0.000    0.000    0.000    0.000    0.000 
#
# Total GULP energy -223085.790293 kJ/mol
# GULP energy per Si atom -5577.144757 kJ/mol
# Density = 1.883161 g / cm^3
# Si number density = 18.874570 Si / 1000 Ang^3
#
#
#
# Elastic Constant Matrix: (Units=GPa)
#
#
# Indices 1 2 3 4 5 6 
#
# 1 94.2203 42.3899 71.3212 0.0000 0.0000 0.0000
# 2 42.3899 113.1643 33.1593 0.0000 0.0000 0.0000
# 3 71.3212 33.1593 133.1456 0.0000 0.0000 0.0000
# 4 0.0000 0.0000 0.0000 -7.1295 0.0000 0.0000
# 5 0.0000 0.0000 0.0000 0.0000 4.9063 0.0000
# 6 0.0000 0.0000 0.0000 0.0000 0.0000 -4.0167
#
#
#
# Elastic Compliance Matrix: (Units=1/GPa)
#
#
# Indices 1 2 3 4 5 6 
#
# 1 0.019907 -0.004673 -0.009499 0.000000 0.000000 0.000000
# 2 -0.004673 0.010629 -0.000144 0.000000 0.000000 0.000000
# 3 -0.009499 -0.000144 0.012635 0.000000 0.000000 0.000000
# 4 0.000000 0.000000 0.000000 -0.140263 0.000000 0.000000
# 5 0.000000 0.000000 0.000000 0.000000 0.203819 0.000000
# 6 0.000000 0.000000 0.000000 0.000000 0.000000 -0.248960
#
#
# Mechanical properties :
#
#
# Convention : Reuss Voigt Hill
#
# Bulk Modulus (GPa) = 68.78620 70.47455 69.63038
# Shear Modulus (GPa) = -45.97550 11.66269 -17.15641
#
# Velocity S-wave (km/s) = -4.94078 2.48847 -3.01818
# Velocity P-wave (km/s) = 1.99363 6.75840 4.98250
#
# Compressibility (1/GPa) = 0.01453780
#
# Stress axis : x y z
#
# Youngs Moduli (GPa) = 50.23463 94.07845 79.14605
#
# Poissons Ratio (x) = 0.43965 0.75184
# Poissons Ratio (y) = 0.23476 0.01139
# Poissons Ratio (z) = 0.47720 0.01354
#
# Static dielectric constant tensor:
#      x y z
#    x 1.660670 0.000000 0.000000 
#    y 0.000000 1.705690 0.000000 
#    z 0.000000 0.000000 1.693530 
# 
# From -- ./inp_files/43854.got.cif
#   From: 2010.05.17/outbox.cif.g08.bks.cpg/sg74_22_cif.got.tgz:43854.got - 2010.06.03 17:57:02.
