data_PCOD9535718
_publ_section_title
;
Structure prediction by ZEFSAII (Michael W. Deem and Ramdas Pophale) SiO2 
 PCOD9535718
Probable space group: I M M A
;
_chemical_formula_sum "Si O2"
_cell_formula_units_Z 96
_cell_length_a 21.273144
_cell_length_b 14.910339
_cell_length_c 18.048970
_cell_angle_alpha 90.000000
_cell_angle_beta 90.000000
_cell_angle_gamma 90.000000
_cell_volume 5724.948979
_symmetry_space_group_name_H-M "I M M A"
_symmetry_group_IT_number 74
_symmetry_cell_setting 'orthorhombic'
loop_
_space_group_symop_operation_xyz
x,y,z
-x,1/2-y,z
x,-y,-z
-x,1/2+y,-z
-x,-y,-z
x,1/2+y,-z
-x,y,z
x,1/2-y,z
1/2+x,1/2+y,1/2+z
1/2-x,-y,1/2+z
1/2+x,1/2-y,1/2-z
1/2-x,y,1/2-z
1/2-x,1/2-y,1/2-z
1/2+x,y,1/2-z
1/2-x,1/2+y,1/2+z
1/2+x,-y,1/2+z
loop_
_atom_site_type_symbol
_atom_site_label
_atom_site_fract_x
_atom_site_fract_y
_atom_site_fract_z
Si Si1 0.877556 0.357468 0.797674
Si Si2 0.568868 0.356028 0.862077
Si Si3 0.194711 0.356097 0.042852
Si Si4 0.186507 0.080741 0.553312
Si Si5 0.227518 0.993650 0.828360
Si Si6 0.431485 0.357319 0.542895
O O1 0.860365 0.250000 0.795304
O O2 0.909754 0.384060 0.720458
O O3 0.819992 0.424693 0.811551
O O4 0.921577 0.369933 0.869367
O O5 0.500000 0.394474 0.880901
O O6 0.562552 0.250000 0.855645
O O7 0.623675 0.370452 0.921612
O O8 0.190305 0.250000 0.059727
O O9 0.201943 0.418154 0.115287
O O10 0.131546 0.387054 0.999659
O O11 0.255788 0.370084 0.989451
O O12 0.215600 0.039525 0.627729
O O13 0.168182 0.000000 0.500000
O O14 0.250000 0.955030 0.750000
O O15 0.500000 0.392857 0.519452
O O16 0.432688 0.250000 0.531230
#
# Coordination Sequence:
#
# PCOD9535718 Si02
#       6
#    16  16  16  16  16  16
#     4  10  19  31  51  78 109 141 168 206 259 315
#     4  10  20  33  51  77 106 137 173 210 261 324
#     4  10  21  36  55  78 106 139 179 221 261 307
#     4  10  20  34  54  76 104 134 171 224 265 309
#     4  11  21  35  54  77 107 136 182 219 258 312
#     4   9  17  31  52  78 109 141 171 208 255 308
#
# _framework density 16.768709000000001
#
# number of rings (size 3 to 8) (size 9 to 14) (size 15 to 20)
#    0.000    2.000    3.333    1.000    0.000    3.667 
#    0.000    2.500    0.000    0.000    0.000    0.000 
#    0.000    0.000    0.000    0.000    0.000    0.000 
#
# Total GULP energy -267299.815870 kJ/mol
# GULP energy per Si atom -5568.746164 kJ/mol
# Density = 1.673054 g / cm^3
# Si number density = 16.768709 Si / 1000 Ang^3
#
#
#
# Elastic Constant Matrix: (Units=GPa)
#
#
# Indices 1 2 3 4 5 6 
#
# 1 126.5808 31.9432 72.4872 0.0000 0.0000 0.0000
# 2 31.9432 49.8269 26.2152 0.0000 0.0000 0.0000
# 3 72.4872 26.2152 83.0121 0.0000 0.0000 0.0000
# 4 0.0000 0.0000 0.0000 18.2900 0.0000 0.0000
# 5 0.0000 0.0000 0.0000 0.0000 25.8552 0.0000
# 6 0.0000 0.0000 0.0000 0.0000 0.0000 -18.3105
#
#
#
# Elastic Compliance Matrix: (Units=1/GPa)
#
#
# Indices 1 2 3 4 5 6 
#
# 1 0.016310 -0.003553 -0.013120 0.000000 0.000000 0.000000
# 2 -0.003553 0.024843 -0.004742 0.000000 0.000000 0.000000
# 3 -0.013120 -0.004742 0.025001 0.000000 0.000000 0.000000
# 4 0.000000 0.000000 0.000000 0.054675 0.000000 0.000000
# 5 0.000000 0.000000 0.000000 0.000000 0.038677 0.000000
# 6 0.000000 0.000000 0.000000 0.000000 0.000000 -0.054614
#
#
# Mechanical properties :
#
#
# Convention : Reuss Voigt Hill
#
# Bulk Modulus (GPa) = 42.87854 57.85681 50.36768
# Shear Modulus (GPa) = 32.15499 13.75189 22.95344
#
# Velocity S-wave (km/s) = 4.38375 2.86683 3.70378
# Velocity P-wave (km/s) = 7.15884 6.74804 6.95647
#
# Compressibility (1/GPa) = 0.02332169
#
# Stress axis : x y z
#
# Youngs Moduli (GPa) = 61.31199 40.25342 39.99897
#
# Poissons Ratio (x) = 0.14303 0.52479
# Poissons Ratio (y) = 0.21786 0.18969
# Poissons Ratio (z) = 0.80441 0.19090
#
# Static dielectric constant tensor:
#      x y z
#    x 1.619430 0.000000 0.000000 
#    y 0.000000 1.566260 0.000000 
#    z 0.000000 0.000000 1.576630 
# 
# From -- ./inp_files/32399.got.cif
#   From: 2010.05.17/outbox.cif.g08.bks.cpg/sg74_17_cif.got.tgz:32399.got - 2010.06.03 17:57:02.
