data_PCOD9535517
_publ_section_title
;
Structure prediction by ZEFSAII (Michael W. Deem and Ramdas Pophale) SiO2 
 PCOD9535517
Probable space group: I M M A
;
_chemical_formula_sum "Si O2"
_cell_formula_units_Z 112
_cell_length_a 7.296189
_cell_length_b 20.062658
_cell_length_c 34.178061
_cell_angle_alpha 90.000000
_cell_angle_beta 90.000000
_cell_angle_gamma 90.000000
_cell_volume 5003.016854
_symmetry_space_group_name_H-M "I M M A"
_symmetry_group_IT_number 74
_symmetry_cell_setting 'orthorhombic'
loop_
_space_group_symop_operation_xyz
x,y,z
-x,1/2-y,z
x,-y,-z
-x,1/2+y,-z
-x,-y,-z
x,1/2+y,-z
-x,y,z
x,1/2-y,z
1/2+x,1/2+y,1/2+z
1/2-x,-y,1/2+z
1/2+x,1/2-y,1/2-z
1/2-x,y,1/2-z
1/2-x,1/2-y,1/2-z
1/2+x,y,1/2-z
1/2-x,1/2+y,1/2+z
1/2+x,-y,1/2+z
loop_
_atom_site_type_symbol
_atom_site_label
_atom_site_fract_x
_atom_site_fract_y
_atom_site_fract_z
Si Si1 0.776480 0.826261 0.524786
Si Si2 0.777014 0.546109 0.573221
Si Si3 0.776047 0.043710 0.336639
Si Si4 0.718173 0.590024 0.204502
Si Si5 0.723633 0.825973 0.131438
Si Si6 0.723037 0.402027 0.946756
Si Si7 0.718457 0.176936 0.203842
O O1 0.716620 0.750000 0.531421
O O2 0.717926 0.883273 0.555437
O O3 0.720667 0.854916 0.482421
O O4 0.000000 0.824886 0.525501
O O5 0.722705 0.536645 0.618276
O O6 0.720126 0.479264 0.550276
O O7 0.000000 0.547092 0.572142
O O8 0.711556 0.113899 0.319650
O O9 0.000000 0.043616 0.335974
O O10 0.714600 0.982405 0.309675
O O11 0.500000 0.588387 0.199920
O O12 0.750000 0.603599 0.250000
O O13 0.784657 0.643655 0.172834
O O14 0.500000 0.826111 0.131215
O O15 0.782103 0.750000 0.126282
O O16 0.779687 0.871511 0.094886
O O17 0.500000 0.402225 0.947199
O O18 0.500000 0.178606 0.197799
O O19 0.790495 0.250000 0.192814
O O20 0.750000 0.167606 0.250000
#
# Coordination Sequence:
#
# PCOD9535517 Si02
#       7
#    16  16  16  16  16  16  16
#     4   9  16  22  30  49  76 106 140 175 210 249
#     4   9  15  23  35  50  72 103 139 175 209 248
#     4   9  16  27  41  57  78 107 142 178 215 257
#     4  10  19  31  46  64  86 113 146 182 220 261
#     4   9  16  26  41  59  79 106 141 177 212 254
#     4   9  14  23  36  51  73 105 142 176 207 248
#     4   9  17  28  42  60  81 107 141 179 217 258
#
# _framework density 22.386493999999999
#
# number of rings (size 3 to 8) (size 9 to 14) (size 15 to 20)
#    0.000    2.857    1.429    1.286    0.000    4.286 
#    0.000    2.857    0.000    0.000    0.000    0.000 
#    0.000    0.000    0.000    3.857    0.000   13.000 
#
# Total GULP energy -312776.961218 kJ/mol
# GULP energy per Si atom -5585.302879 kJ/mol
# Density = 2.233554 g / cm^3
# Si number density = 22.386494 Si / 1000 Ang^3
#
#
#
# Elastic Constant Matrix: (Units=GPa)
#
#
# Indices 1 2 3 4 5 6 
#
# 1 93.0302 2.6723 -6.6869 0.0000 0.0000 0.0000
# 2 2.6723 166.4873 34.6259 0.0000 0.0000 0.0000
# 3 -6.6869 34.6259 70.0535 0.0000 0.0000 0.0000
# 4 0.0000 0.0000 0.0000 40.9159 0.0000 0.0000
# 5 0.0000 0.0000 0.0000 0.0000 -0.2723 0.0000
# 6 0.0000 0.0000 0.0000 0.0000 0.0000 -18.5506
#
#
#
# Elastic Compliance Matrix: (Units=1/GPa)
#
#
# Indices 1 2 3 4 5 6 
#
# 1 0.010852 -0.000434 0.001250 0.000000 0.000000 0.000000
# 2 -0.000434 0.006712 -0.003359 0.000000 0.000000 0.000000
# 3 0.001250 -0.003359 0.016054 0.000000 0.000000 0.000000
# 4 0.000000 0.000000 0.000000 0.024440 0.000000 0.000000
# 5 0.000000 0.000000 0.000000 0.000000 -3.671999 0.000000
# 6 0.000000 0.000000 0.000000 0.000000 0.000000 -0.053907
#
#
# Mechanical properties :
#
#
# Convention : Reuss Voigt Hill
#
# Bulk Modulus (GPa) = 35.04792 43.42153 39.23473
# Shear Modulus (GPa) = -1.36864 24.34923 11.49029
#
# Velocity S-wave (km/s) = -0.78275 3.30157 2.26800
# Velocity P-wave (km/s) = 3.85654 5.82857 4.94192
#
# Compressibility (1/GPa) = 0.02853236
#
# Stress axis : x y z
#
# Youngs Moduli (GPa) = 92.15276 148.98568 62.28787
#
# Poissons Ratio (x) = 0.06470 -0.07789
# Poissons Ratio (y) = 0.04002 0.20923
# Poissons Ratio (z) = -0.11523 0.50045
#
# Static dielectric constant tensor:
#      x y z
#    x 1.905820 0.000000 0.000000 
#    y 0.000000 1.798650 0.000000 
#    z 0.000000 0.000000 1.778130 
# 
# From -- ./inp_files/66346.got.cif
#   From: 2010.05.17/outbox.cif.g08.bks.cpg/sg74_34_cif.got.tgz:66346.got - 2010.06.03 17:57:02.
