data_PCOD9535958
_publ_section_title
;
Structure prediction by ZEFSAII (Michael W. Deem and Ramdas Pophale) SiO2 
 PCOD9535958
Probable space group: I M M A
;
_chemical_formula_sum "Si O2"
_cell_formula_units_Z 72
_cell_length_a 13.165673
_cell_length_b 8.777307
_cell_length_c 31.453634
_cell_angle_alpha 90.000000
_cell_angle_beta 90.000000
_cell_angle_gamma 90.000000
_cell_volume 3634.755328
_symmetry_space_group_name_H-M "I M M A"
_symmetry_group_IT_number 74
_symmetry_cell_setting 'orthorhombic'
loop_
_space_group_symop_operation_xyz
x,y,z
-x,1/2-y,z
x,-y,-z
-x,1/2+y,-z
-x,-y,-z
x,1/2+y,-z
-x,y,z
x,1/2-y,z
1/2+x,1/2+y,1/2+z
1/2-x,-y,1/2+z
1/2+x,1/2-y,1/2-z
1/2-x,y,1/2-z
1/2-x,1/2-y,1/2-z
1/2+x,y,1/2-z
1/2-x,1/2+y,1/2+z
1/2+x,-y,1/2+z
loop_
_atom_site_type_symbol
_atom_site_label
_atom_site_fract_x
_atom_site_fract_y
_atom_site_fract_z
Si Si1 0.622813 0.423195 0.721090
Si Si2 0.121877 0.576375 0.690310
Si Si3 0.000000 0.432470 0.452829
Si Si4 0.682777 0.569577 0.102170
Si Si5 0.117407 0.931864 0.870124
O O1 0.500000 0.415403 0.723219
O O2 0.660515 0.250000 0.716250
O O3 0.653262 0.499476 0.765531
O O4 0.642988 0.518703 0.678450
O O5 0.160662 0.750000 0.686168
O O6 0.149029 0.475833 0.649782
O O7 0.000000 0.586141 0.691292
O O8 0.000000 0.500000 0.500000
O O9 0.100727 0.490911 0.428461
O O10 0.000000 0.250000 0.453222
O O11 0.680017 0.750000 0.096158
O O12 0.798128 0.507586 0.099814
O O13 0.122901 0.750000 0.873496
O O14 0.000000 0.978826 0.878238
#
# Coordination Sequence:
#
# PCOD9535958 Si02
#       5
#    16  16   8  16  16
#     4   9  17  30  49  76 114 159 208 262 313 361
#     4  10  19  32  52  79 116 160 207 259 312 368
#     4  12  26  48  74 102 132 160 196 246 310 380
#     4  12  24  39  63  93 124 160 203 252 310 371
#     4  10  21  38  59  85 121 166 215 260 306 362
#
# _framework density 19.808759999999999
#
# number of rings (size 3 to 8) (size 9 to 14) (size 15 to 20)
#    0.000    1.556    1.111    5.000    0.000    5.778 
#    0.000    4.444    0.000    0.667    0.000    0.000 
#    0.000    0.000    0.000    0.000    0.000    0.000 
#
# Total GULP energy -201308.283002 kJ/mol
# GULP energy per Si atom -5591.896750 kJ/mol
# Density = 1.976367 g / cm^3
# Si number density = 19.808760 Si / 1000 Ang^3
#
#
#
# Elastic Constant Matrix: (Units=GPa)
#
#
# Indices 1 2 3 4 5 6 
#
# 1 147.6119 65.1191 76.9750 0.0000 0.0000 0.0000
# 2 65.1191 159.7168 48.9481 0.0000 0.0000 0.0000
# 3 76.9750 48.9481 90.4636 0.0000 0.0000 0.0000
# 4 0.0000 0.0000 0.0000 28.0847 0.0000 0.0000
# 5 0.0000 0.0000 0.0000 0.0000 16.4969 0.0000
# 6 0.0000 0.0000 0.0000 0.0000 0.0000 32.6064
#
#
#
# Elastic Compliance Matrix: (Units=1/GPa)
#
#
# Indices 1 2 3 4 5 6 
#
# 1 0.012824 -0.002259 -0.009689 0.000000 0.000000 0.000000
# 2 -0.002259 0.007904 -0.002354 0.000000 0.000000 0.000000
# 3 -0.009689 -0.002354 0.020573 0.000000 0.000000 0.000000
# 4 0.000000 0.000000 0.000000 0.035607 0.000000 0.000000
# 5 0.000000 0.000000 0.000000 0.000000 0.060617 0.000000
# 6 0.000000 0.000000 0.000000 0.000000 0.000000 0.030669
#
#
# Mechanical properties :
#
#
# Convention : Reuss Voigt Hill
#
# Bulk Modulus (GPa) = 78.77313 86.65299 82.71306
# Shear Modulus (GPa) = 24.87189 29.22094 27.04641
#
# Velocity S-wave (km/s) = 3.54729 3.84494 3.69911
# Velocity P-wave (km/s) = 7.52535 7.97190 7.75184
#
# Compressibility (1/GPa) = 0.01269468
#
# Stress axis : x y z
#
# Youngs Moduli (GPa) = 77.97997 126.52404 48.60796
#
# Poissons Ratio (x) = 0.28581 0.47098
# Poissons Ratio (y) = 0.17615 0.11444
# Poissons Ratio (z) = 0.75558 0.29788
#
# Static dielectric constant tensor:
#      x y z
#    x 1.800700 0.000000 0.000000 
#    y 0.000000 1.679910 0.000000 
#    z 0.000000 0.000000 1.639500 
# 
# From -- ./inp_files/72276.got.cif
#   From: 2010.05.17/outbox.cif.g08.bks.cpg/sg74_37_cif.got.tgz:72276.got - 2010.06.03 17:57:02.
