data_PCOD9535647
_publ_section_title
;
Structure prediction by ZEFSAII (Michael W. Deem and Ramdas Pophale) SiO2 
 PCOD9535647
Probable space group: I M M A
;
_chemical_formula_sum "Si O2"
_cell_formula_units_Z 64
_cell_length_a 14.217868
_cell_length_b 14.668035
_cell_length_c 12.190436
_cell_angle_alpha 90.000000
_cell_angle_beta 90.000000
_cell_angle_gamma 90.000000
_cell_volume 2542.293308
_symmetry_space_group_name_H-M "I M M A"
_symmetry_group_IT_number 74
_symmetry_cell_setting 'orthorhombic'
loop_
_space_group_symop_operation_xyz
x,y,z
-x,1/2-y,z
x,-y,-z
-x,1/2+y,-z
-x,-y,-z
x,1/2+y,-z
-x,y,z
x,1/2-y,z
1/2+x,1/2+y,1/2+z
1/2-x,-y,1/2+z
1/2+x,1/2-y,1/2-z
1/2-x,y,1/2-z
1/2-x,1/2-y,1/2-z
1/2+x,y,1/2-z
1/2-x,1/2+y,1/2+z
1/2+x,-y,1/2+z
loop_
_atom_site_type_symbol
_atom_site_label
_atom_site_fract_x
_atom_site_fract_y
_atom_site_fract_z
Si Si1 0.610899 0.152675 0.790994
Si Si2 0.101363 0.358934 0.033386
Si Si3 0.108530 0.444756 0.273836
Si Si4 0.690162 0.395870 0.011906
O O1 0.500000 0.152159 0.770960
O O2 0.645664 0.250000 0.741380
O O3 0.643327 0.049927 0.760553
O O4 0.632175 0.156315 0.920761
O O5 0.101240 0.250000 0.037953
O O6 0.106077 0.399690 0.155035
O O7 0.200089 0.387152 0.981576
O O8 0.000000 0.387996 0.983556
O O9 0.167840 0.383291 0.359615
O O10 0.000000 0.448135 0.314619
O O11 0.660366 0.500000 0.000000
#
# Coordination Sequence:
#
# PCOD9535647 Si02
#       4
#    16  16  16  16
#     4   9  17  30  51  78 104 129 157 194 245 300
#     4  10  21  35  51  72  98 131 170 207 242 284
#     4   9  18  32  49  73 103 130 161 202 245 291
#     4  10  19  31  50  73 101 132 162 199 246 293
#
# _framework density 25.174122000000001
#
# number of rings (size 3 to 8) (size 9 to 14) (size 15 to 20)
#    0.000    2.500    0.000    2.250    0.000    6.500 
#    0.000    2.500    0.000   13.500    0.000    3.500 
#    0.000    0.000    0.000    0.000    0.000    0.000 
#
# Total GULP energy -178687.790082 kJ/mol
# GULP energy per Si atom -5583.993440 kJ/mol
# Density = 2.511682 g / cm^3
# Si number density = 25.174122 Si / 1000 Ang^3
#
#
#
# Elastic Constant Matrix: (Units=GPa)
#
#
# Indices 1 2 3 4 5 6 
#
# 1 127.8258 -4.6176 26.9227 0.0000 0.0000 0.0000
# 2 -4.6176 101.1449 21.1099 0.0000 0.0000 0.0000
# 3 26.9227 21.1099 102.1253 0.0000 0.0000 0.0000
# 4 0.0000 0.0000 0.0000 22.9062 0.0000 0.0000
# 5 0.0000 0.0000 0.0000 0.0000 20.3519 0.0000
# 6 0.0000 0.0000 0.0000 0.0000 0.0000 -9.9858
#
#
#
# Elastic Compliance Matrix: (Units=1/GPa)
#
#
# Indices 1 2 3 4 5 6 
#
# 1 0.008357 0.000879 -0.002385 0.000000 0.000000 0.000000
# 2 0.000879 0.010425 -0.002387 0.000000 0.000000 0.000000
# 3 -0.002385 -0.002387 0.010914 0.000000 0.000000 0.000000
# 4 0.000000 0.000000 0.000000 0.043656 0.000000 0.000000
# 5 0.000000 0.000000 0.000000 0.000000 0.049136 0.000000
# 6 0.000000 0.000000 0.000000 0.000000 0.000000 -0.100143
#
#
# Mechanical properties :
#
#
# Convention : Reuss Voigt Hill
#
# Bulk Modulus (GPa) = 45.63804 46.43624 46.03714
# Shear Modulus (GPa) = 133.56806 25.83319 79.70062
#
# Velocity S-wave (km/s) = 7.29197 3.20688 5.63280
# Velocity P-wave (km/s) = 9.43745 5.67434 7.78664
#
# Compressibility (1/GPa) = 0.02191154
#
# Stress axis : x y z
#
# Youngs Moduli (GPa) = 119.65701 95.92247 91.62570
#
# Poissons Ratio (x) = -0.08434 0.21852
# Poissons Ratio (y) = -0.10521 0.21869
# Poissons Ratio (z) = 0.28537 0.22894
#
# Static dielectric constant tensor:
#      x y z
#    x 2.039160 0.000000 0.000000 
#    y 0.000000 1.953100 0.000000 
#    z 0.000000 0.000000 2.056390 
# 
# From -- ./inp_files/19948.got.cif
#   From: 2010.05.17/outbox.cif.g08.bks.cpg/sg74_10_cif.got.tgz:19948.got - 2010.06.03 17:57:02.
