data_PCOD9535031
_publ_section_title
;
Structure prediction by ZEFSAII (Michael W. Deem and Ramdas Pophale) SiO2 
 PCOD9535031
Probable space group: I M M A
;
_chemical_formula_sum "Si O2"
_cell_formula_units_Z 96
_cell_length_a 19.808433
_cell_length_b 16.751572
_cell_length_c 15.531395
_cell_angle_alpha 90.000000
_cell_angle_beta 90.000000
_cell_angle_gamma 90.000000
_cell_volume 5153.664634
_symmetry_space_group_name_H-M "I M M A"
_symmetry_group_IT_number 74
_symmetry_cell_setting 'orthorhombic'
loop_
_space_group_symop_operation_xyz
x,y,z
-x,1/2-y,z
x,-y,-z
-x,1/2+y,-z
-x,-y,-z
x,1/2+y,-z
-x,y,z
x,1/2-y,z
1/2+x,1/2+y,1/2+z
1/2-x,-y,1/2+z
1/2+x,1/2-y,1/2-z
1/2-x,y,1/2-z
1/2-x,1/2-y,1/2-z
1/2+x,y,1/2-z
1/2-x,1/2+y,1/2+z
1/2+x,-y,1/2+z
loop_
_atom_site_type_symbol
_atom_site_label
_atom_site_fract_x
_atom_site_fract_y
_atom_site_fract_z
Si Si1 0.922163 0.652675 0.314062
Si Si2 0.321703 0.346360 0.294657
Si Si3 0.661407 0.846291 0.022692
Si Si4 0.422697 0.153691 0.619263
Si Si5 0.422476 0.347510 0.144759
Si Si6 0.311160 0.093695 0.487172
O O1 0.920518 0.750000 0.314447
O O2 0.872426 0.624332 0.388785
O O3 0.904849 0.627346 0.216816
O O4 0.000000 0.630257 0.332229
O O5 0.324022 0.250000 0.304592
O O6 0.250000 0.365373 0.250000
O O7 0.381127 0.371094 0.229697
O O8 0.326182 0.384228 0.388423
O O9 0.657713 0.750000 0.023203
O O10 0.617955 0.873824 0.940268
O O11 0.738903 0.869358 0.012046
O O12 0.500000 0.128164 0.601562
O O13 0.422412 0.250000 0.619459
O O14 0.369882 0.125081 0.549290
O O15 0.500000 0.374145 0.144667
O O16 0.422741 0.250000 0.143449
O O17 0.306191 0.000000 0.500000
#
# Coordination Sequence:
#
# PCOD9535031 Si02
#       6
#    16  16  16  16  16  16
#     4   8  15  30  55  85 112 138 174 226 280 325
#     4  10  19  37  61  81 108 148 192 239 289 333
#     4  10  18  33  57  84 114 146 183 227 280 339
#     4   9  19  38  61  83 108 142 189 237 278 329
#     4   9  17  30  56  91 114 136 183 243 290 333
#     4  12  25  38  53  81 116 152 187 229 283 343
#
# _framework density 18.627521000000002
#
# number of rings (size 3 to 8) (size 9 to 14) (size 15 to 20)
#    0.000    2.333    1.667    3.000    0.000    3.667 
#    3.000    4.167    0.000    4.000    0.000    0.000 
#    0.000    0.000    0.000    0.000    0.000    0.000 
#
# Total GULP energy -267870.242760 kJ/mol
# GULP energy per Si atom -5580.630057 kJ/mol
# Density = 1.858512 g / cm^3
# Si number density = 18.627521 Si / 1000 Ang^3
#
#
#
# Elastic Constant Matrix: (Units=GPa)
#
#
# Indices 1 2 3 4 5 6 
#
# 1 154.2280 15.0428 122.6563 0.0000 0.0000 0.0000
# 2 15.0428 9.8711 28.0210 0.0000 0.0000 0.0000
# 3 122.6563 28.0210 201.5799 0.0000 0.0000 0.0000
# 4 0.0000 0.0000 0.0000 -4.1544 0.0000 0.0000
# 5 0.0000 0.0000 0.0000 0.0000 41.4985 0.0000
# 6 0.0000 0.0000 0.0000 0.0000 0.0000 -11.3217
#
#
#
# Elastic Compliance Matrix: (Units=1/GPa)
#
#
# Indices 1 2 3 4 5 6 
#
# 1 0.012671 0.004256 -0.008302 0.000000 0.000000 0.000000
# 2 0.004256 0.168767 -0.026050 0.000000 0.000000 0.000000
# 3 -0.008302 -0.026050 0.013633 0.000000 0.000000 0.000000
# 4 0.000000 0.000000 0.000000 -0.240709 0.000000 0.000000
# 5 0.000000 0.000000 0.000000 0.000000 0.024097 0.000000
# 6 0.000000 0.000000 0.000000 0.000000 0.000000 -0.088326
#
#
# Mechanical properties :
#
#
# Convention : Reuss Voigt Hill
#
# Bulk Modulus (GPa) = 7.41392 77.45771 42.43581
# Shear Modulus (GPa) = -1060.43997 18.53506 -520.95246
#
# Velocity S-wave (km/s) = -23.88561 3.15784 -16.74142
# Velocity P-wave (km/s) = 27.50833 7.41408 18.73152
#
# Compressibility (1/GPa) = 0.13488141
#
# Stress axis : x y z
#
# Youngs Moduli (GPa) = 78.92053 5.92531 73.35040
#
# Poissons Ratio (x) = -0.02522 0.60892
# Poissons Ratio (y) = -0.33589 1.91075
# Poissons Ratio (z) = 0.65517 0.15435
#
# Static dielectric constant tensor:
#      x y z
#    x 1.628600 0.000000 0.000000 
#    y 0.000000 1.615860 0.000000 
#    z 0.000000 0.000000 1.634740 
# 
# From -- ./inp_files/32328.got.cif
#   From: 2010.05.17/outbox.cif.g08.bks.cpg/sg74_17_cif.got.tgz:32328.got - 2010.06.03 17:57:02.
