data_PCOD9535492
_publ_section_title
;
Structure prediction by ZEFSAII (Michael W. Deem and Ramdas Pophale) SiO2 
 PCOD9535492
Probable space group: I M M A
;
_chemical_formula_sum "Si O2"
_cell_formula_units_Z 104
_cell_length_a 23.667769
_cell_length_b 24.735226
_cell_length_c 9.254713
_cell_angle_alpha 90.000000
_cell_angle_beta 90.000000
_cell_angle_gamma 90.000000
_cell_volume 5417.964560
_symmetry_space_group_name_H-M "I M M A"
_symmetry_group_IT_number 74
_symmetry_cell_setting 'orthorhombic'
loop_
_space_group_symop_operation_xyz
x,y,z
-x,1/2-y,z
x,-y,-z
-x,1/2+y,-z
-x,-y,-z
x,1/2+y,-z
-x,y,z
x,1/2-y,z
1/2+x,1/2+y,1/2+z
1/2-x,-y,1/2+z
1/2+x,1/2-y,1/2-z
1/2-x,y,1/2-z
1/2-x,1/2-y,1/2-z
1/2+x,y,1/2-z
1/2-x,1/2+y,1/2+z
1/2+x,-y,1/2+z
loop_
_atom_site_type_symbol
_atom_site_label
_atom_site_fract_x
_atom_site_fract_y
_atom_site_fract_z
Si Si1 0.382444 0.188801 0.847703
Si Si2 0.844468 0.393529 0.855451
Si Si3 0.432521 0.187851 0.164475
Si Si4 0.750000 0.658072 0.750000
Si Si5 0.748237 0.308351 0.936001
Si Si6 0.864099 0.594865 0.817215
Si Si7 0.689266 0.997463 0.174432
O O1 0.397884 0.250000 0.806311
O O2 0.389859 0.145802 0.720591
O O3 0.314992 0.186533 0.877564
O O4 0.412242 0.176798 0.000046
O O5 0.789112 0.357272 0.893895
O O6 0.827822 0.439516 0.740949
O O7 0.865455 0.415160 0.010642
O O8 0.500000 0.187821 0.169975
O O9 0.413001 0.250000 0.200473
O O10 0.408346 0.140198 0.265019
O O11 0.758854 0.691346 0.606754
O O12 0.804539 0.622428 0.778512
O O13 0.773161 0.250000 0.893972
O O14 0.858824 0.539445 0.727723
O O15 0.750000 0.010065 0.250000
O O16 0.695091 0.000000 0.000000
#
# Coordination Sequence:
#
# PCOD9535492 Si02
#       7
#    16  16  16   8  16  16  16
#     4  10  19  34  55  82 117 157 199 243 296 360
#     4  11  23  35  56  87 125 160 199 246 308 370
#     4  10  22  41  65  89 118 161 209 254 301 361
#     4  10  19  30  52  84 120 156 191 234 294 366
#     4  10  19  30  50  82 122 158 189 230 293 363
#     4  11  22  38  59  87 121 158 204 252 308 366
#     4  12  24  37  59  85 123 167 209 253 301 369
#
# _framework density 19.195399999999999
#
# number of rings (size 3 to 8) (size 9 to 14) (size 15 to 20)
#    0.000    1.385    2.308    4.385    2.154    4.308 
#    0.000    0.769    0.000    7.846    0.000    0.000 
#    0.000    0.000    0.000    0.000    0.000    0.000 
#
# Total GULP energy -290149.175841 kJ/mol
# GULP energy per Si atom -5579.791843 kJ/mol
# Density = 1.915171 g / cm^3
# Si number density = 19.195400 Si / 1000 Ang^3
#
#
#
# Elastic Constant Matrix: (Units=GPa)
#
#
# Indices 1 2 3 4 5 6 
#
# 1 35.9578 17.1376 15.8330 0.0000 0.0000 0.0000
# 2 17.1376 109.5029 62.8033 0.0000 0.0000 0.0000
# 3 15.8330 62.8033 173.1350 0.0000 0.0000 0.0000
# 4 0.0000 0.0000 0.0000 -26.0831 0.0000 0.0000
# 5 0.0000 0.0000 0.0000 0.0000 14.5037 0.0000
# 6 0.0000 0.0000 0.0000 0.0000 0.0000 11.5959
#
#
#
# Elastic Compliance Matrix: (Units=1/GPa)
#
#
# Indices 1 2 3 4 5 6 
#
# 1 0.030291 -0.003980 -0.001326 0.000000 0.000000 0.000000
# 2 -0.003980 0.012054 -0.004009 0.000000 0.000000 0.000000
# 3 -0.001326 -0.004009 0.007351 0.000000 0.000000 0.000000
# 4 0.000000 0.000000 0.000000 -0.038339 0.000000 0.000000
# 5 0.000000 0.000000 0.000000 0.000000 0.068948 0.000000
# 6 0.000000 0.000000 0.000000 0.000000 0.000000 0.086237
#
#
# Mechanical properties :
#
#
# Convention : Reuss Voigt Hill
#
# Bulk Modulus (GPa) = 32.18880 56.68262 44.43571
# Shear Modulus (GPa) = 25.57180 14.85810 20.21495
#
# Velocity S-wave (km/s) = 3.65387 2.78518 3.24869
# Velocity P-wave (km/s) = 5.88272 6.31952 6.10503
#
# Compressibility (1/GPa) = 0.03106670
#
# Stress axis : x y z
#
# Youngs Moduli (GPa) = 33.01281 82.95946 136.03207
#
# Poissons Ratio (x) = 0.33018 0.18043
# Poissons Ratio (y) = 0.13139 0.54529
# Poissons Ratio (z) = 0.04379 0.33255
#
# Static dielectric constant tensor:
#      x y z
#    x 1.637190 0.000000 0.000000 
#    y 0.000000 1.739370 0.000000 
#    z 0.000000 0.000000 1.774760 
# 
# From -- ./inp_files/15366.got.cif
#   From: 2010.05.17/outbox.cif.g08.bks.cpg/sg74_8_cif.got.tgz:15366.got - 2010.06.03 17:57:02.
