data_PCOD9535826
_publ_section_title
;
Structure prediction by ZEFSAII (Michael W. Deem and Ramdas Pophale) SiO2 
 PCOD9535826
Probable space group: I M M A
;
_chemical_formula_sum "Si O2"
_cell_formula_units_Z 96
_cell_length_a 16.369901
_cell_length_b 9.687442
_cell_length_c 29.549479
_cell_angle_alpha 90.000000
_cell_angle_beta 90.000000
_cell_angle_gamma 90.000000
_cell_volume 4686.029263
_symmetry_space_group_name_H-M "I M M A"
_symmetry_group_IT_number 74
_symmetry_cell_setting 'orthorhombic'
loop_
_space_group_symop_operation_xyz
x,y,z
-x,1/2-y,z
x,-y,-z
-x,1/2+y,-z
-x,-y,-z
x,1/2+y,-z
-x,y,z
x,1/2-y,z
1/2+x,1/2+y,1/2+z
1/2-x,-y,1/2+z
1/2+x,1/2-y,1/2-z
1/2-x,y,1/2-z
1/2-x,1/2-y,1/2-z
1/2+x,y,1/2-z
1/2-x,1/2+y,1/2+z
1/2+x,-y,1/2+z
loop_
_atom_site_type_symbol
_atom_site_label
_atom_site_fract_x
_atom_site_fract_y
_atom_site_fract_z
Si Si1 0.667843 0.587493 0.855942
Si Si2 0.192767 0.909649 0.194240
Si Si3 0.358772 0.593671 0.958197
Si Si4 0.662494 0.402631 0.460919
Si Si5 0.406699 0.589818 0.761180
Si Si6 0.095266 0.399913 0.891155
O O1 0.694056 0.750000 0.860617
O O2 0.739832 0.492024 0.835384
O O3 0.634587 0.544939 0.905648
O O4 0.602325 0.582739 0.815477
O O5 0.217418 0.750000 0.202194
O O6 0.113910 0.904802 0.161602
O O7 0.160418 0.991747 0.237917
O O8 0.391618 0.750000 0.961164
O O9 0.260407 0.602198 0.964604
O O10 0.389449 0.500000 0.000000
O O11 0.629020 0.500000 0.500000
O O12 0.629092 0.250000 0.464248
O O13 0.640217 0.475000 0.414593
O O14 0.500000 0.555927 0.748517
O O15 0.390258 0.750000 0.748111
O O16 0.127101 0.250000 0.907961
O O17 0.000000 0.407520 0.900527
#
# Coordination Sequence:
#
# PCOD9535826 Si02
#       6
#    16  16  16  16  16  16
#     4  10  20  37  59  84 113 145 186 231 271 323
#     4  11  22  36  56  82 112 145 184 228 276 325
#     4   9  18  32  53  80 109 139 175 222 274 322
#     4  10  19  32  50  71  97 132 175 221 272 322
#     4  10  22  39  59  82 111 149 188 227 275 329
#     4  10  21  35  49  68  99 139 179 221 268 318
#
# _framework density 20.486429000000001
#
# number of rings (size 3 to 8) (size 9 to 14) (size 15 to 20)
#    0.000    2.000    1.667    2.000    0.000    6.333 
#    0.000    0.000    0.000    0.500    0.000    0.000 
#    0.000    0.000    0.000    0.000    0.000    0.000 
#
# Total GULP energy -267610.551178 kJ/mol
# GULP energy per Si atom -5575.219816 kJ/mol
# Density = 2.043980 g / cm^3
# Si number density = 20.486429 Si / 1000 Ang^3
#
#
#
# Elastic Constant Matrix: (Units=GPa)
#
#
# Indices 1 2 3 4 5 6 
#
# 1 36.6416 23.2281 2.9646 0.0000 0.0000 0.0000
# 2 23.2281 109.7579 57.5569 0.0000 0.0000 0.0000
# 3 2.9646 57.5569 135.5352 0.0000 0.0000 0.0000
# 4 0.0000 0.0000 0.0000 33.0778 0.0000 0.0000
# 5 0.0000 0.0000 0.0000 0.0000 11.9677 0.0000
# 6 0.0000 0.0000 0.0000 0.0000 0.0000 7.4092
#
#
#
# Elastic Compliance Matrix: (Units=1/GPa)
#
#
# Indices 1 2 3 4 5 6 
#
# 1 0.032342 -0.008328 0.002829 0.000000 0.000000 0.000000
# 2 -0.008328 0.013866 -0.005706 0.000000 0.000000 0.000000
# 3 0.002829 -0.005706 0.009739 0.000000 0.000000 0.000000
# 4 0.000000 0.000000 0.000000 0.030232 0.000000 0.000000
# 5 0.000000 0.000000 0.000000 0.000000 0.083558 0.000000
# 6 0.000000 0.000000 0.000000 0.000000 0.000000 0.134967
#
#
# Mechanical properties :
#
#
# Convention : Reuss Voigt Hill
#
# Bulk Modulus (GPa) = 29.81776 49.93710 39.87743
# Shear Modulus (GPa) = 14.78010 23.70329 19.24169
#
# Velocity S-wave (km/s) = 2.68891 3.40520 3.06803
# Velocity P-wave (km/s) = 4.92207 6.31578 5.66197
#
# Compressibility (1/GPa) = 0.03353706
#
# Stress axis : x y z
#
# Youngs Moduli (GPa) = 30.91958 72.12022 102.67517
#
# Poissons Ratio (x) = 0.60063 -0.29050
# Poissons Ratio (y) = 0.25750 0.58588
# Poissons Ratio (z) = -0.08748 0.41153
#
# Static dielectric constant tensor:
#      x y z
#    x 1.722280 0.000000 0.000000 
#    y 0.000000 1.742950 0.000000 
#    z 0.000000 0.000000 1.771320 
# 
# From -- ./inp_files/68120.got.cif
#   From: 2010.05.17/outbox.cif.g08.bks.cpg/sg74_35_cif.got.tgz:68120.got - 2010.06.03 17:57:02.
