data_PCOD9535589
_publ_section_title
;
Structure prediction by ZEFSAII (Michael W. Deem and Ramdas Pophale) SiO2 
 PCOD9535589
Probable space group: I M M A
;
_chemical_formula_sum "Si O2"
_cell_formula_units_Z 96
_cell_length_a 8.648857
_cell_length_b 32.402908
_cell_length_c 19.879880
_cell_angle_alpha 90.000000
_cell_angle_beta 90.000000
_cell_angle_gamma 90.000000
_cell_volume 5571.298950
_symmetry_space_group_name_H-M "I M M A"
_symmetry_group_IT_number 74
_symmetry_cell_setting 'orthorhombic'
loop_
_space_group_symop_operation_xyz
x,y,z
-x,1/2-y,z
x,-y,-z
-x,1/2+y,-z
-x,-y,-z
x,1/2+y,-z
-x,y,z
x,1/2-y,z
1/2+x,1/2+y,1/2+z
1/2-x,-y,1/2+z
1/2+x,1/2-y,1/2-z
1/2-x,y,1/2-z
1/2-x,1/2-y,1/2-z
1/2+x,y,1/2-z
1/2-x,1/2+y,1/2+z
1/2+x,-y,1/2+z
loop_
_atom_site_type_symbol
_atom_site_label
_atom_site_fract_x
_atom_site_fract_y
_atom_site_fract_z
Si Si1 0.682520 0.704784 0.425337
Si Si2 0.186140 0.115877 0.080318
Si Si3 0.315317 0.118269 0.929716
Si Si4 0.816707 0.705718 0.911761
Si Si5 0.686352 0.450888 0.824171
Si Si6 0.814472 0.454824 0.324535
O O1 0.500000 0.701031 0.410368
O O2 0.736638 0.750000 0.401145
O O3 0.769473 0.663717 0.403033
O O4 0.695913 0.705540 0.506853
O O5 0.243341 0.160624 0.108623
O O6 0.249142 0.078318 0.123724
O O7 0.000000 0.116296 0.081488
O O8 0.240511 0.112595 0.003118
O O9 0.500000 0.116032 0.937007
O O10 0.262603 0.082649 0.878706
O O11 0.750500 0.750000 0.888066
O O12 0.000000 0.706339 0.896165
O O13 0.500000 0.449653 0.821356
O O14 0.750000 0.441897 0.750000
O O15 0.731232 0.497958 0.842129
O O16 0.750000 0.446525 0.250000
O O17 0.000000 0.452651 0.323615
#
# Coordination Sequence:
#
# PCOD9535589 Si02
#       6
#    16  16  16  16  16  16
#     4   8  14  26  44  67  96 129 162 195 235 285
#     4  10  19  31  49  75 102 129 162 199 241 288
#     4  10  19  31  48  74 103 128 159 202 248 288
#     4   7  11  22  41  64  91 122 154 188 226 270
#     4   9  20  36  53  71  94 127 164 202 246 296
#     4  10  20  36  54  71  94 126 163 202 246 296
#
# _framework density 17.231169000000001
#
# number of rings (size 3 to 8) (size 9 to 14) (size 15 to 20)
#    0.000    3.000    0.000    3.500    0.000    3.000 
#    0.000    3.333    0.000    2.500    0.000    0.000 
#    0.000    0.000    0.000    0.000    0.000    0.000 
#
# Total GULP energy -267211.992567 kJ/mol
# GULP energy per Si atom -5566.916512 kJ/mol
# Density = 1.719195 g / cm^3
# Si number density = 17.231169 Si / 1000 Ang^3
#
#
#
# Elastic Constant Matrix: (Units=GPa)
#
#
# Indices 1 2 3 4 5 6 
#
# 1 35.2358 41.6073 21.4236 0.0000 0.0000 0.0000
# 2 41.6073 185.9296 85.3060 0.0000 0.0000 0.0000
# 3 21.4236 85.3060 55.2466 -0.0003 0.0000 0.0000
# 4 0.0000 0.0000 -0.0003 -9.2248 0.0000 0.0000
# 5 0.0000 0.0000 0.0000 0.0000 21.5174 0.0000
# 6 0.0000 0.0000 0.0000 0.0000 0.0000 27.4644
#
#
#
# Elastic Compliance Matrix: (Units=1/GPa)
#
#
# Indices 1 2 3 4 5 6 
#
# 1 0.039083 -0.006148 -0.005663 0.000000 0.000000 0.000000
# 2 -0.006148 0.019414 -0.027593 0.000001 0.000000 0.000000
# 3 -0.005663 -0.027593 0.062903 -0.000002 0.000000 0.000000
# 4 0.000000 0.000001 -0.000002 -0.108404 0.000000 0.000000
# 5 0.000000 0.000000 0.000000 0.000000 0.046474 0.000000
# 6 0.000000 0.000000 0.000000 0.000000 0.000000 0.036411
#
#
# Mechanical properties :
#
#
# Convention : Reuss Voigt Hill
#
# Bulk Modulus (GPa) = 23.47837 63.67619 43.57728
# Shear Modulus (GPa) = 26.47106 16.48975 21.48041
#
# Velocity S-wave (km/s) = 3.92373 3.09685 3.53456
# Velocity P-wave (km/s) = 5.84659 7.05844 6.48091
#
# Compressibility (1/GPa) = 0.04259239
#
# Stress axis : x y z
#
# Youngs Moduli (GPa) = 25.58676 51.50897 15.89751
#
# Poissons Ratio (x) = 0.31667 0.09002
# Poissons Ratio (y) = 0.15730 0.43866
# Poissons Ratio (z) = 0.14489 1.42130
#
# Static dielectric constant tensor:
#      x y z
#    x 1.586040 0.000000 0.000000 
#    y 0.000000 1.642480 0.000000 
#    z 0.000000 0.000000 1.543310 
# 
# From -- ./inp_files/49159.got.cif
#   From: 2010.05.17/outbox.cif.g08.bks.cpg/sg74_25_cif.got.tgz:49159.got - 2010.06.03 17:57:02.
