data_PCOD9535996
_publ_section_title
;
Structure prediction by ZEFSAII (Michael W. Deem and Ramdas Pophale) SiO2 
 PCOD9535996
Probable space group: I M M A
;
_chemical_formula_sum "Si O2"
_cell_formula_units_Z 64
_cell_length_a 14.754338
_cell_length_b 18.326175
_cell_length_c 9.913538
_cell_angle_alpha 90.000000
_cell_angle_beta 90.000000
_cell_angle_gamma 90.000000
_cell_volume 2680.527292
_symmetry_space_group_name_H-M "I M M A"
_symmetry_group_IT_number 74
_symmetry_cell_setting 'orthorhombic'
loop_
_space_group_symop_operation_xyz
x,y,z
-x,1/2-y,z
x,-y,-z
-x,1/2+y,-z
-x,-y,-z
x,1/2+y,-z
-x,y,z
x,1/2-y,z
1/2+x,1/2+y,1/2+z
1/2-x,-y,1/2+z
1/2+x,1/2-y,1/2-z
1/2-x,y,1/2-z
1/2-x,1/2-y,1/2-z
1/2+x,y,1/2-z
1/2-x,1/2+y,1/2+z
1/2+x,-y,1/2+z
loop_
_atom_site_type_symbol
_atom_site_label
_atom_site_fract_x
_atom_site_fract_y
_atom_site_fract_z
Si Si1 0.165951 0.021145 0.847921
Si Si2 0.697062 0.666354 0.438736
Si Si3 0.401536 0.631336 0.703809
Si Si4 0.099910 0.836106 0.480134
O O1 0.250000 0.013438 0.750000
O O2 0.137200 0.105481 0.862629
O O3 0.099786 0.956687 0.804244
O O4 0.193721 0.000000 0.000000
O O5 0.685767 0.750000 0.394922
O O6 0.671154 0.660619 0.597003
O O7 0.802178 0.641778 0.421422
O O8 0.500000 0.658334 0.658460
O O9 0.389827 0.653599 0.858309
O O10 0.095435 0.750000 0.452985
O O11 0.000000 0.868008 0.443044
#
# Coordination Sequence:
#
# PCOD9535996 Si02
#       4
#    16  16  16  16
#     4  10  21  37  57  79 109 145 184 226 271 320
#     4  10  20  33  52  78 110 145 180 221 271 328
#     4  10  19  32  53  80 110 145 185 228 272 318
#     4   9  17  31  54  83 111 140 178 226 278 327
#
# _framework density 23.875897999999999
#
# number of rings (size 3 to 8) (size 9 to 14) (size 15 to 20)
#    0.000    2.250    0.000    4.500    0.000    8.500 
#    0.000    1.250    0.000   10.500    0.000    7.000 
#    0.000    0.000    0.000    0.000    0.000    0.000 
#
# Total GULP energy -178565.211090 kJ/mol
# GULP energy per Si atom -5580.162847 kJ/mol
# Density = 2.382156 g / cm^3
# Si number density = 23.875898 Si / 1000 Ang^3
#
#
#
# Elastic Constant Matrix: (Units=GPa)
#
#
# Indices 1 2 3 4 5 6 
#
# 1 78.6481 31.5069 0.1803 0.0000 0.0000 0.0000
# 2 31.5069 106.7013 -11.4522 0.0000 0.0000 0.0000
# 3 0.1803 -11.4522 32.5131 0.0000 0.0000 0.0000
# 4 0.0000 0.0000 0.0000 5.3249 0.0000 0.0000
# 5 0.0000 0.0000 0.0000 0.0000 -45.3426 0.0000
# 6 0.0000 0.0000 0.0000 0.0000 0.0000 12.4864
#
#
#
# Elastic Compliance Matrix: (Units=1/GPa)
#
#
# Indices 1 2 3 4 5 6 
#
# 1 0.014506 -0.004460 -0.001652 0.000000 0.000000 0.000000
# 2 -0.004460 0.011112 0.003939 0.000000 0.000000 0.000000
# 3 -0.001652 0.003939 0.032153 0.000000 0.000000 0.000000
# 4 0.000000 0.000000 0.000000 0.187796 0.000000 0.000000
# 5 0.000000 0.000000 0.000000 0.000000 -0.022054 0.000000
# 6 0.000000 0.000000 0.000000 0.000000 0.000000 0.080087
#
#
# Mechanical properties :
#
#
# Convention : Reuss Voigt Hill
#
# Bulk Modulus (GPa) = 18.71817 28.70360 23.71089
# Shear Modulus (GPa) = 15.34899 7.66892 11.50895
#
# Velocity S-wave (km/s) = 2.53823 1.79415 2.19791
# Velocity P-wave (km/s) = 4.05548 4.04228 4.04889
#
# Compressibility (1/GPa) = 0.05342402
#
# Stress axis : x y z
#
# Youngs Moduli (GPa) = 68.93912 89.99443 31.10093
#
# Poissons Ratio (x) = 0.40142 0.05137
# Poissons Ratio (y) = 0.30750 -0.12250
# Poissons Ratio (z) = 0.11386 -0.35446
#
# Static dielectric constant tensor:
#      x y z
#    x 2.898740 0.000000 0.000000 
#    y 0.000000 1.958510 0.000000 
#    z 0.000000 0.000000 1.887290 
# 
# From -- ./inp_files/8783.got.cif
#   From: 2010.05.17/outbox.cif.g08.bks.cpg/sg74_5_cif.got.tgz:8783.got - 2010.06.03 17:57:02.
