data_PCOD9535774
_publ_section_title
;
Structure prediction by ZEFSAII (Michael W. Deem and Ramdas Pophale) SiO2 
 PCOD9535774
Probable space group: I M M A
;
_chemical_formula_sum "Si O2"
_cell_formula_units_Z 72
_cell_length_a 17.168403
_cell_length_b 13.106765
_cell_length_c 21.256925
_cell_angle_alpha 90.000000
_cell_angle_beta 90.000000
_cell_angle_gamma 90.000000
_cell_volume 4783.280529
_symmetry_space_group_name_H-M "I M M A"
_symmetry_group_IT_number 74
_symmetry_cell_setting 'orthorhombic'
loop_
_space_group_symop_operation_xyz
x,y,z
-x,1/2-y,z
x,-y,-z
-x,1/2+y,-z
-x,-y,-z
x,1/2+y,-z
-x,y,z
x,1/2-y,z
1/2+x,1/2+y,1/2+z
1/2-x,-y,1/2+z
1/2+x,1/2-y,1/2-z
1/2-x,y,1/2-z
1/2-x,1/2-y,1/2-z
1/2+x,y,1/2-z
1/2-x,1/2+y,1/2+z
1/2+x,-y,1/2+z
loop_
_atom_site_type_symbol
_atom_site_label
_atom_site_fract_x
_atom_site_fract_y
_atom_site_fract_z
Si Si1 0.175335 0.998538 0.710910
Si Si2 0.592897 0.870878 0.105660
Si Si3 0.090235 0.630294 0.815706
Si Si4 0.738651 0.369980 0.394308
Si Si5 0.181098 0.000000 0.500000
O O1 0.250000 0.039035 0.750000
O O2 0.117768 0.942627 0.759336
O O3 0.210349 0.913685 0.663502
O O4 0.132962 0.081717 0.667790
O O5 0.500000 0.886930 0.108249
O O6 0.607845 0.750000 0.100940
O O7 0.628712 0.930353 0.045947
O O8 0.100102 0.750000 0.797418
O O9 0.149329 0.612629 0.873443
O O10 0.000000 0.613897 0.831054
O O11 0.751531 0.250000 0.401721
O O12 0.765673 0.429861 0.455648
#
# Coordination Sequence:
#
# PCOD9535774 Si02
#       5
#    16  16  16  16   8
#     4   9  17  29  46  67  90 115 141 171 211 259
#     4  10  20  32  46  65  88 114 144 178 214 252
#     4   9  16  27  45  68  91 113 139 175 218 258
#     4   9  17  29  45  65  88 114 145 179 213 252
#     4  10  19  32  47  62  84 116 150 180 213 252
#
# _framework density 15.052431
#
# number of rings (size 3 to 8) (size 9 to 14) (size 15 to 20)
#    0.000    2.667    0.000    2.333    0.000    3.111 
#    0.000    0.556    0.000   10.667    0.000    0.000 
#    0.000    0.000    0.000    0.000    0.000    0.000 
#
# Total GULP energy -200596.787021 kJ/mol
# GULP energy per Si atom -5572.132973 kJ/mol
# Density = 1.501817 g / cm^3
# Si number density = 15.052431 Si / 1000 Ang^3
#
#
#
# Elastic Constant Matrix: (Units=GPa)
#
#
# Indices 1 2 3 4 5 6 
#
# 1 122.6790 77.7513 67.8052 0.0000 0.0000 0.0000
# 2 77.7513 107.5746 71.8059 0.0000 0.0000 0.0000
# 3 67.8052 71.8059 110.6406 0.0000 0.0000 0.0000
# 4 0.0000 0.0000 0.0000 17.9669 0.0000 0.0000
# 5 0.0000 0.0000 0.0000 0.0000 14.8830 0.0000
# 6 0.0000 0.0000 0.0000 0.0000 0.0000 23.1397
#
#
#
# Elastic Compliance Matrix: (Units=1/GPa)
#
#
# Indices 1 2 3 4 5 6 
#
# 1 0.016013 -0.008863 -0.004062 0.000000 0.000000 0.000000
# 2 -0.008863 0.021306 -0.008396 0.000000 0.000000 0.000000
# 3 -0.004062 -0.008396 0.016977 0.000000 0.000000 0.000000
# 4 0.000000 0.000000 0.000000 0.055658 0.000000 0.000000
# 5 0.000000 0.000000 0.000000 0.000000 0.067191 0.000000
# 6 0.000000 0.000000 0.000000 0.000000 0.000000 0.043216
#
#
# Mechanical properties :
#
#
# Convention : Reuss Voigt Hill
#
# Bulk Modulus (GPa) = 85.80238 86.17989 85.99114
# Shear Modulus (GPa) = 18.73460 19.43338 19.08399
#
# Velocity S-wave (km/s) = 3.53175 3.59701 3.56453
# Velocity P-wave (km/s) = 8.58819 8.63879 8.61353
#
# Compressibility (1/GPa) = 0.01165469
#
# Stress axis : x y z
#
# Youngs Moduli (GPa) = 62.44833 46.93538 58.90469
#
# Poissons Ratio (x) = 0.41597 0.23926
# Poissons Ratio (y) = 0.55346 0.49457
# Poissons Ratio (z) = 0.25365 0.39408
#
# Static dielectric constant tensor:
#      x y z
#    x 1.492180 0.000000 0.000000 
#    y 0.000000 1.478240 0.000000 
#    z 0.000000 0.000000 1.479000 
# 
# From -- ./inp_files/40958.got.cif
#   From: 2010.05.17/outbox.cif.g08.bks.cpg/sg74_21_cif.got.tgz:40958.got - 2010.06.03 17:57:02.
