data_PCOD9535824
_publ_section_title
;
Structure prediction by ZEFSAII (Michael W. Deem and Ramdas Pophale) SiO2 
 PCOD9535824
Probable space group: I M M A
;
_chemical_formula_sum "Si O2"
_cell_formula_units_Z 96
_cell_length_a 7.614112
_cell_length_b 20.650968
_cell_length_c 30.814712
_cell_angle_alpha 90.000000
_cell_angle_beta 90.000000
_cell_angle_gamma 90.000000
_cell_volume 4845.267821
_symmetry_space_group_name_H-M "I M M A"
_symmetry_group_IT_number 74
_symmetry_cell_setting 'orthorhombic'
loop_
_space_group_symop_operation_xyz
x,y,z
-x,1/2-y,z
x,-y,-z
-x,1/2+y,-z
-x,-y,-z
x,1/2+y,-z
-x,y,z
x,1/2-y,z
1/2+x,1/2+y,1/2+z
1/2-x,-y,1/2+z
1/2+x,1/2-y,1/2-z
1/2-x,y,1/2-z
1/2-x,1/2-y,1/2-z
1/2+x,y,1/2-z
1/2-x,1/2+y,1/2+z
1/2+x,-y,1/2+z
loop_
_atom_site_type_symbol
_atom_site_label
_atom_site_fract_x
_atom_site_fract_y
_atom_site_fract_z
Si Si1 0.211476 0.048864 0.123809
Si Si2 0.715238 0.961300 0.456737
Si Si3 0.707021 0.321797 0.077494
Si Si4 0.711200 0.039348 0.699226
Si Si5 0.203445 0.822055 0.021305
Si Si6 0.210882 0.180613 0.801635
O O1 0.259573 0.121680 0.111473
O O2 0.000000 0.046881 0.124041
O O3 0.271246 0.001940 0.084914
O O4 0.275928 0.018392 0.168806
O O5 0.500000 0.959403 0.457052
O O6 0.778842 0.887068 0.457622
O O7 0.768543 0.000000 0.500000
O O8 0.500000 0.320428 0.068704
O O9 0.762676 0.250000 0.092167
O O10 0.793646 0.334365 0.030676
O O11 0.500000 0.041459 0.695489
O O12 0.750000 0.031292 0.750000
O O13 0.776713 0.110345 0.683418
O O14 0.280770 0.750000 0.028582
O O15 0.000000 0.818515 0.035025
O O16 0.277753 0.250000 0.819085
O O17 0.250000 0.180873 0.750000
O O18 0.000000 0.180975 0.807372
#
# Coordination Sequence:
#
# PCOD9535824 Si02
#       6
#    16  16  16  16  16  16
#     4  10  19  32  50  71  95 126 161 194 235 286
#     4   9  15  26  45  69  96 123 153 194 231 266
#     4  10  20  32  47  70  97 122 153 196 239 279
#     4   9  18  31  48  70  95 125 161 201 242 282
#     4   9  16  28  47  68  93 130 167 194 229 278
#     4   8  13  23  40  62  87 115 148 185 224 265
#
# _framework density 19.813147000000001
#
# number of rings (size 3 to 8) (size 9 to 14) (size 15 to 20)
#    0.000    2.833    1.667    0.500    0.000    1.667 
#    0.000    2.500    0.000    5.500    0.000    0.000 
#    0.000    6.667    0.000    0.000    0.000    0.000 
#
# Total GULP energy -267486.388821 kJ/mol
# GULP energy per Si atom -5572.633100 kJ/mol
# Density = 1.976805 g / cm^3
# Si number density = 19.813147 Si / 1000 Ang^3
#
#
#
# Elastic Constant Matrix: (Units=GPa)
#
#
# Indices 1 2 3 4 5 6 
#
# 1 43.8921 4.1872 0.2347 0.0000 0.0000 0.0000
# 2 4.1872 182.6229 54.8260 0.0000 0.0000 0.0000
# 3 0.2347 54.8260 53.5021 0.0000 0.0000 0.0000
# 4 0.0000 0.0000 0.0000 24.8907 0.0000 0.0000
# 5 0.0000 0.0000 0.0000 0.0000 -19.6584 0.0000
# 6 0.0000 0.0000 0.0000 0.0000 0.0000 -174.3945
#
#
#
# Elastic Compliance Matrix: (Units=1/GPa)
#
#
# Indices 1 2 3 4 5 6 
#
# 1 0.022848 -0.000713 0.000631 0.000000 0.000000 0.000000
# 2 -0.000713 0.007931 -0.008124 0.000000 0.000000 0.000000
# 3 0.000631 -0.008124 0.027013 0.000000 0.000000 0.000000
# 4 0.000000 0.000000 0.000000 0.040176 0.000000 0.000000
# 5 0.000000 0.000000 0.000000 0.000000 -0.050869 0.000000
# 6 0.000000 0.000000 0.000000 0.000000 0.000000 -0.005734
#
#
# Mechanical properties :
#
#
# Convention : Reuss Voigt Hill
#
# Bulk Modulus (GPa) = 24.16706 44.27920 34.22313
# Shear Modulus (GPa) = 69.86011 -19.11449 25.37281
#
# Velocity S-wave (km/s) = 5.94441 -3.10939 3.58244
# Velocity P-wave (km/s) = 7.70316 3.08315 5.86705
#
# Compressibility (1/GPa) = 0.04137863
#
# Stress axis : x y z
#
# Youngs Moduli (GPa) = 43.76791 126.08537 37.01867
#
# Poissons Ratio (x) = 0.08992 -0.02334
# Poissons Ratio (y) = 0.03121 0.30075
# Poissons Ratio (z) = -0.02760 1.02435
#
# Static dielectric constant tensor:
#      x y z
#    x 1.830800 0.000000 0.000000 
#    y 0.000000 1.750390 0.000000 
#    z 0.000000 0.000000 1.581440 
# 
# From -- ./inp_files/64322.got.cif
#   From: 2010.05.17/outbox.cif.g08.bks.cpg/sg74_33_cif.got.tgz:64322.got - 2010.06.03 17:57:02.
