data_PCOD9535825
_publ_section_title
;
Structure prediction by ZEFSAII (Michael W. Deem and Ramdas Pophale) SiO2 
 PCOD9535825
Probable space group: I M M A
;
_chemical_formula_sum "Si O2"
_cell_formula_units_Z 96
_cell_length_a 8.736631
_cell_length_b 25.825245
_cell_length_c 25.320146
_cell_angle_alpha 90.000000
_cell_angle_beta 90.000000
_cell_angle_gamma 90.000000
_cell_volume 5712.874046
_symmetry_space_group_name_H-M "I M M A"
_symmetry_group_IT_number 74
_symmetry_cell_setting 'orthorhombic'
loop_
_space_group_symop_operation_xyz
x,y,z
-x,1/2-y,z
x,-y,-z
-x,1/2+y,-z
-x,-y,-z
x,1/2+y,-z
-x,y,z
x,1/2-y,z
1/2+x,1/2+y,1/2+z
1/2-x,-y,1/2+z
1/2+x,1/2-y,1/2-z
1/2-x,y,1/2-z
1/2-x,1/2-y,1/2-z
1/2+x,y,1/2-z
1/2-x,1/2+y,1/2+z
1/2+x,-y,1/2+z
loop_
_atom_site_type_symbol
_atom_site_label
_atom_site_fract_x
_atom_site_fract_y
_atom_site_fract_z
Si Si1 0.185498 0.078847 0.011483
Si Si2 0.672029 0.142720 0.696923
Si Si3 0.318702 0.306731 0.487571
Si Si4 0.817117 0.015135 0.580456
Si Si5 0.827209 0.809010 0.400371
Si Si6 0.326682 0.481280 0.695610
O O1 0.235231 0.136330 0.030330
O O2 0.244560 0.063221 0.952701
O O3 0.000000 0.076166 0.011150
O O4 0.254463 0.035352 0.049759
O O5 0.500000 0.163201 0.690197
O O6 0.750000 0.163324 0.750000
O O7 0.773334 0.155252 0.646539
O O8 0.663001 0.080831 0.701675
O O9 0.500000 0.305407 0.477938
O O10 0.255461 0.250000 0.469944
O O11 0.284838 0.309893 0.549974
O O12 0.764902 0.011105 0.641177
O O13 0.000000 0.018356 0.576758
O O14 0.827327 0.750000 0.380164
O O15 0.000000 0.821441 0.418207
O O16 0.500000 0.501493 0.690088
O O17 0.250000 0.500980 0.750000
#
# Coordination Sequence:
#
# PCOD9535825 Si02
#       6
#    16  16  16  16  16  16
#     4  10  19  32  50  71  97 128 161 198 239 283
#     4  10  20  32  46  61  79 107 143 185 229 272
#     4   9  18  32  49  68  90 118 152 189 230 276
#     4  11  21  32  48  71  99 129 161 197 237 282
#     4  10  20  31  43  60  82 110 145 185 228 272
#     4  10  20  34  50  69  92 119 153 190 232 280
#
# _framework density 16.804151999999998
#
# number of rings (size 3 to 8) (size 9 to 14) (size 15 to 20)
#    0.000    2.000    0.000    5.500    0.000    8.667 
#    0.000    0.000    0.000    0.000    0.000    0.000 
#    0.000    0.667    0.000    1.833    0.000    2.667 
#
# Total GULP energy -267491.961987 kJ/mol
# GULP energy per Si atom -5572.749208 kJ/mol
# Density = 1.676590 g / cm^3
# Si number density = 16.804152 Si / 1000 Ang^3
#
#
#
# Elastic Constant Matrix: (Units=GPa)
#
#
# Indices 1 2 3 4 5 6 
#
# 1 67.9269 18.5620 23.1074 0.0000 0.0000 0.0000
# 2 18.5620 77.3826 4.0105 0.0000 0.0000 0.0000
# 3 23.1074 4.0105 58.7332 0.0000 0.0000 0.0000
# 4 0.0000 0.0000 0.0000 3.8019 0.0000 0.0000
# 5 0.0000 0.0000 0.0000 0.0000 24.5488 0.0000
# 6 0.0000 0.0000 0.0000 0.0000 0.0000 9.4447
#
#
#
# Elastic Compliance Matrix: (Units=1/GPa)
#
#
# Indices 1 2 3 4 5 6 
#
# 1 0.018151 -0.003998 -0.006868 0.000000 0.000000 0.000000
# 2 -0.003998 0.013849 0.000627 0.000000 0.000000 0.000000
# 3 -0.006868 0.000627 0.019685 0.000000 0.000000 0.000000
# 4 0.000000 0.000000 0.000000 0.263028 0.000000 0.000000
# 5 0.000000 0.000000 0.000000 0.000000 0.040735 0.000000
# 6 0.000000 0.000000 0.000000 0.000000 0.000000 0.105880
#
#
# Mechanical properties :
#
#
# Convention : Reuss Voigt Hill
#
# Bulk Modulus (GPa) = 32.04315 32.82249 32.43282
# Shear Modulus (GPa) = 10.15830 18.11658 14.13744
#
# Velocity S-wave (km/s) = 2.46135 3.28701 2.90367
# Velocity P-wave (km/s) = 5.21418 5.82929 5.53029
#
# Compressibility (1/GPa) = 0.03120792
#
# Stress axis : x y z
#
# Youngs Moduli (GPa) = 55.09476 72.20586 50.79911
#
# Poissons Ratio (x) = 0.28867 0.34889
# Poissons Ratio (y) = 0.22026 -0.03186
# Poissons Ratio (z) = 0.37839 -0.04529
#
# Static dielectric constant tensor:
#      x y z
#    x 1.591360 0.000000 0.000000 
#    y 0.000000 1.620300 0.000000 
#    z 0.000000 0.000000 1.538420 
# 
# From -- ./inp_files/55026.got.cif
#   From: 2010.05.17/outbox.cif.g08.bks.cpg/sg74_28_cif.got.tgz:55026.got - 2010.06.03 17:57:02.
