data_PCOD9535366
_publ_section_title
;
Structure prediction by ZEFSAII (Michael W. Deem and Ramdas Pophale) SiO2 
 PCOD9535366
Probable space group: I M M A
;
_chemical_formula_sum "Si O2"
_cell_formula_units_Z 112
_cell_length_a 10.257352
_cell_length_b 25.508169
_cell_length_c 26.969770
_cell_angle_alpha 90.000000
_cell_angle_beta 90.000000
_cell_angle_gamma 90.000000
_cell_volume 7056.539678
_symmetry_space_group_name_H-M "I M M A"
_symmetry_group_IT_number 74
_symmetry_cell_setting 'orthorhombic'
loop_
_space_group_symop_operation_xyz
x,y,z
-x,1/2-y,z
x,-y,-z
-x,1/2+y,-z
-x,-y,-z
x,1/2+y,-z
-x,y,z
x,1/2-y,z
1/2+x,1/2+y,1/2+z
1/2-x,-y,1/2+z
1/2+x,1/2-y,1/2-z
1/2-x,y,1/2-z
1/2-x,1/2-y,1/2-z
1/2+x,y,1/2-z
1/2-x,1/2+y,1/2+z
1/2+x,-y,1/2+z
loop_
_atom_site_type_symbol
_atom_site_label
_atom_site_fract_x
_atom_site_fract_y
_atom_site_fract_z
Si Si1 0.232890 0.554946 0.519047
Si Si2 0.849667 0.810114 0.874049
Si Si3 0.343805 0.903999 0.702889
Si Si4 0.655475 0.512747 0.621023
Si Si5 0.347696 0.809100 0.072377
Si Si6 0.641970 0.166296 0.041546
Si Si7 0.653556 0.596949 0.417764
O O1 0.173012 0.500000 0.500000
O O2 0.304527 0.541203 0.570119
O O3 0.142846 0.603994 0.531204
O O4 0.324610 0.575551 0.474192
O O5 0.834369 0.750000 0.857040
O O6 0.826524 0.852123 0.830843
O O7 0.753553 0.820173 0.919704
O O8 0.000000 0.817141 0.890517
O O9 0.500000 0.907961 0.714562
O O10 0.250000 0.901762 0.750000
O O11 0.303413 0.953185 0.668123
O O12 0.500000 0.511950 0.622075
O O13 0.696660 0.452133 0.616481
O O14 0.500000 0.822210 0.083111
O O15 0.321507 0.750000 0.090448
O O16 0.246292 0.853101 0.089945
O O17 0.336212 0.809037 0.012453
O O18 0.500000 0.182610 0.060403
O O19 0.500000 0.608171 0.410860
#
# Coordination Sequence:
#
# PCOD9535366 Si02
#       7
#    16  16  16  16  16  16  16
#     4   9  16  27  44  68  96 124 154 189 233 284
#     4  10  21  36  53  70  89 118 157 201 248 293
#     4  10  21  37  54  71  94 121 154 195 244 293
#     4   9  16  30  49  69  95 123 148 189 242 285
#     4   9  18  31  43  60  96 139 166 188 227 272
#     4  10  19  30  45  67  94 125 161 198 236 277
#     4   9  17  27  46  73  94 119 160 196 226 271
#
# _framework density 15.871801
#
# number of rings (size 3 to 8) (size 9 to 14) (size 15 to 20)
#    0.000    2.571    1.429    0.857    0.000    6.286 
#    0.000    2.857    0.000    0.000    0.000    0.000 
#    0.000    0.571    0.000    1.286    0.000    2.286 
#
# Total GULP energy -311833.964091 kJ/mol
# GULP energy per Si atom -5568.463644 kJ/mol
# Density = 1.583568 g / cm^3
# Si number density = 15.871801 Si / 1000 Ang^3
#
#
#
# Elastic Constant Matrix: (Units=GPa)
#
#
# Indices 1 2 3 4 5 6 
#
# 1 71.3982 61.3178 36.1321 0.0000 0.0000 0.0000
# 2 61.3178 129.6208 27.8932 0.0000 0.0000 0.0000
# 3 36.1321 27.8932 45.0893 0.0000 0.0000 0.0000
# 4 0.0000 0.0000 0.0000 8.0361 0.0000 0.0000
# 5 0.0000 0.0000 0.0000 0.0000 21.0549 0.0000
# 6 0.0000 0.0000 0.0000 0.0000 0.0000 -1.6940
#
#
#
# Elastic Compliance Matrix: (Units=1/GPa)
#
#
# Indices 1 2 3 4 5 6 
#
# 1 0.034564 -0.011986 -0.020283 0.000000 0.000000 0.000000
# 2 -0.011986 0.013056 0.001528 0.000000 0.000000 0.000000
# 3 -0.020283 0.001528 0.037487 0.000000 0.000000 0.000000
# 4 0.000000 0.000000 0.000000 0.124438 0.000000 0.000000
# 5 0.000000 0.000000 0.000000 0.000000 0.047495 0.000000
# 6 0.000000 0.000000 0.000000 0.000000 0.000000 -0.590309
#
#
# Mechanical properties :
#
#
# Convention : Reuss Voigt Hill
#
# Bulk Modulus (GPa) = 42.32794 55.19938 48.76366
# Shear Modulus (GPa) = -18.94573 13.53041 -2.70766
#
# Velocity S-wave (km/s) = -3.45870 2.92290 -1.30754
# Velocity P-wave (km/s) = 3.28274 6.80036 5.33953
#
# Compressibility (1/GPa) = 0.02362505
#
# Stress axis : x y z
#
# Youngs Moduli (GPa) = 28.93144 76.59292 26.67614
#
# Poissons Ratio (x) = 0.91805 0.54108
# Poissons Ratio (y) = 0.34678 -0.04077
# Poissons Ratio (z) = 0.58682 -0.11706
#
# Static dielectric constant tensor:
#      x y z
#    x 1.529080 0.000000 0.000000 
#    y 0.000000 1.584780 0.000000 
#    z 0.000000 0.000000 1.496080 
# 
# From -- ./inp_files/50979.got.cif
#   From: 2010.05.17/outbox.cif.g08.bks.cpg/sg74_26_cif.got.tgz:50979.got - 2010.06.03 17:57:02.
