data_PCOD9535449
_publ_section_title
;
Structure prediction by ZEFSAII (Michael W. Deem and Ramdas Pophale) SiO2 
 PCOD9535449
Probable space group: I M M A
;
_chemical_formula_sum "Si O2"
_cell_formula_units_Z 56
_cell_length_a 13.760104
_cell_length_b 8.752266
_cell_length_c 24.259470
_cell_angle_alpha 90.000000
_cell_angle_beta 90.000000
_cell_angle_gamma 90.000000
_cell_volume 2921.618684
_symmetry_space_group_name_H-M "I M M A"
_symmetry_group_IT_number 74
_symmetry_cell_setting 'orthorhombic'
loop_
_space_group_symop_operation_xyz
x,y,z
-x,1/2-y,z
x,-y,-z
-x,1/2+y,-z
-x,-y,-z
x,1/2+y,-z
-x,y,z
x,1/2-y,z
1/2+x,1/2+y,1/2+z
1/2-x,-y,1/2+z
1/2+x,1/2-y,1/2-z
1/2-x,y,1/2-z
1/2-x,1/2-y,1/2-z
1/2+x,y,1/2-z
1/2-x,1/2+y,1/2+z
1/2+x,-y,1/2+z
loop_
_atom_site_type_symbol
_atom_site_label
_atom_site_fract_x
_atom_site_fract_y
_atom_site_fract_z
Si Si1 0.113360 0.573454 0.732428
Si Si2 0.183684 0.569581 0.375945
Si Si3 0.108330 0.934071 0.145709
Si Si4 0.000000 0.068629 0.439048
O O1 0.144714 0.750000 0.728859
O O2 0.168993 0.470527 0.688550
O O3 0.117635 0.513188 0.794626
O O4 0.000000 0.567999 0.716294
O O5 0.172347 0.750000 0.384681
O O6 0.295425 0.524423 0.388848
O O7 0.097885 0.486050 0.408275
O O8 0.111720 0.750000 0.153427
O O9 0.000000 0.972155 0.123925
O O10 0.000000 0.250000 0.440927
O O11 0.000000 0.000000 0.500000
#
# Coordination Sequence:
#
# PCOD9535449 Si02
#       4
#    16  16  16   8
#     4  10  19  30  47  76 114 154 192 231 273 324
#     4  11  21  35  57  81 109 147 187 230 280 333
#     4   9  19  34  52  78 114 154 191 225 267 326
#     4  12  26  44  64  86 110 138 180 236 291 340
#
# _framework density 19.167456000000001
#
# number of rings (size 3 to 8) (size 9 to 14) (size 15 to 20)
#    0.000    1.714    1.429    3.857    0.000    6.857 
#    0.000    0.000    0.000    0.857    0.000    0.000 
#    0.000    0.000    0.000    0.000    0.000    0.000 
#
# Total GULP energy -156262.527555 kJ/mol
# GULP energy per Si atom -5580.804556 kJ/mol
# Density = 1.912383 g / cm^3
# Si number density = 19.167456 Si / 1000 Ang^3
#
#
#
# Elastic Constant Matrix: (Units=GPa)
#
#
# Indices 1 2 3 4 5 6 
#
# 1 194.8358 58.8546 52.0599 0.0000 0.0000 0.0000
# 2 58.8546 73.1038 20.0611 0.0000 0.0000 0.0000
# 3 52.0599 20.0611 33.6079 0.0000 0.0000 0.0000
# 4 0.0000 0.0000 0.0000 23.3095 0.0000 0.0000
# 5 0.0000 0.0000 0.0000 0.0000 11.6332 0.0000
# 6 0.0000 0.0000 0.0000 0.0000 0.0000 -1.2728
#
#
#
# Elastic Compliance Matrix: (Units=1/GPa)
#
#
# Indices 1 2 3 4 5 6 
#
# 1 0.009846 -0.004474 -0.012580 0.000000 0.000000 0.000000
# 2 -0.004474 0.018392 -0.004048 0.000000 0.000000 0.000000
# 3 -0.012580 -0.004048 0.051659 0.000000 0.000000 0.000000
# 4 0.000000 0.000000 0.000000 0.042901 0.000000 0.000000
# 5 0.000000 0.000000 0.000000 0.000000 0.085961 0.000000
# 6 0.000000 0.000000 0.000000 0.000000 0.000000 -0.785673
#
#
# Mechanical properties :
#
#
# Convention : Reuss Voigt Hill
#
# Bulk Modulus (GPa) = 26.53123 62.61095 44.57109
# Shear Modulus (GPa) = -9.57585 18.10545 4.26480
#
# Velocity S-wave (km/s) = -2.23757 3.07676 1.49327
# Velocity P-wave (km/s) = 2.68258 6.73484 5.12612
#
# Compressibility (1/GPa) = 0.03769143
#
# Stress axis : x y z
#
# Youngs Moduli (GPa) = 101.56923 54.37126 19.35784
#
# Poissons Ratio (x) = 0.24327 0.24353
# Poissons Ratio (y) = 0.45444 0.07836
# Poissons Ratio (z) = 1.27778 0.22009
#
# Static dielectric constant tensor:
#      x y z
#    x 1.768470 0.000000 0.000000 
#    y 0.000000 1.642870 0.000000 
#    z 0.000000 0.000000 1.626300 
# 
# From -- ./inp_files/47825.got.cif
#   From: 2010.05.17/outbox.cif.g08.bks.cpg/sg74_24_cif.got.tgz:47825.got - 2010.06.03 17:57:02.
