data_PCOD9535818
_publ_section_title
;
Structure prediction by ZEFSAII (Michael W. Deem and Ramdas Pophale) SiO2 
 PCOD9535818
Probable space group: I M M A
;
_chemical_formula_sum "Si O2"
_cell_formula_units_Z 112
_cell_length_a 15.799832
_cell_length_b 14.155461
_cell_length_c 28.686467
_cell_angle_alpha 90.000000
_cell_angle_beta 90.000000
_cell_angle_gamma 90.000000
_cell_volume 6415.840385
_symmetry_space_group_name_H-M "I M M A"
_symmetry_group_IT_number 74
_symmetry_cell_setting 'orthorhombic'
loop_
_space_group_symop_operation_xyz
x,y,z
-x,1/2-y,z
x,-y,-z
-x,1/2+y,-z
-x,-y,-z
x,1/2+y,-z
-x,y,z
x,1/2-y,z
1/2+x,1/2+y,1/2+z
1/2-x,-y,1/2+z
1/2+x,1/2-y,1/2-z
1/2-x,y,1/2-z
1/2-x,1/2-y,1/2-z
1/2+x,y,1/2-z
1/2-x,1/2+y,1/2+z
1/2+x,-y,1/2+z
loop_
_atom_site_type_symbol
_atom_site_label
_atom_site_fract_x
_atom_site_fract_y
_atom_site_fract_z
Si Si1 0.408664 0.136722 0.875830
Si Si2 0.831939 0.356828 0.783350
Si Si3 0.098140 0.990222 0.054447
Si Si4 0.763783 0.857207 0.694650
Si Si5 0.275821 0.861574 0.390178
Si Si6 0.406416 0.507911 0.212410
Si Si7 0.095840 0.362962 0.135454
O O1 0.500000 0.109761 0.897113
O O2 0.405503 0.250000 0.872969
O O3 0.320714 0.105285 0.898523
O O4 0.407496 0.094042 0.824179
O O5 0.869967 0.250000 0.781684
O O6 0.750000 0.354857 0.750000
O O7 0.801780 0.375251 0.835981
O O8 0.885540 0.442196 0.761594
O O9 0.158925 0.915024 0.077854
O O10 0.000000 0.960762 0.058043
O O11 0.106965 0.084111 0.086185
O O12 0.117804 0.000000 0.000000
O O13 0.786391 0.750000 0.678814
O O14 0.750000 0.852104 0.750000
O O15 0.676144 0.884956 0.668777
O O16 0.838170 0.934199 0.692296
O O17 0.279246 0.750000 0.398766
O O18 0.500000 0.464459 0.214108
O O19 0.096703 0.250000 0.129594
O O20 0.000000 0.388118 0.152925
#
# Coordination Sequence:
#
# PCOD9535818 Si02
#       7
#    16  16  16  16  16  16  16
#     4   9  17  30  49  77 110 141 174 206 244 307
#     4  10  19  32  49  74 111 149 181 214 255 311
#     4  10  22  38  56  80 109 139 176 228 283 330
#     4  10  22  37  51  71 101 136 178 228 271 311
#     4  10  20  34  55  79 108 145 180 218 264 319
#     4  11  21  30  47  72 103 147 183 211 254 306
#     4   9  19  37  60  80 100 135 182 226 272 326
#
# _framework density 17.456793999999999
#
# number of rings (size 3 to 8) (size 9 to 14) (size 15 to 20)
#    0.000    2.143    1.429    1.714    2.000    3.143 
#    0.000    4.286    0.000    0.429    0.000    0.000 
#    0.000    2.286    0.000    0.000    0.000    0.000 
#
# Total GULP energy -312042.241524 kJ/mol
# GULP energy per Si atom -5572.182884 kJ/mol
# Density = 1.741706 g / cm^3
# Si number density = 17.456794 Si / 1000 Ang^3
#
#
#
# Elastic Constant Matrix: (Units=GPa)
#
#
# Indices 1 2 3 4 5 6 
#
# 1 131.0984 59.0798 80.1721 0.0000 0.0000 0.0000
# 2 59.0798 50.0299 33.5847 0.0000 0.0000 0.0000
# 3 80.1721 33.5847 89.4984 0.0000 0.0000 0.0000
# 4 0.0000 0.0000 0.0000 -49.0005 0.0000 0.0000
# 5 0.0000 0.0000 0.0000 0.0000 25.1226 0.0000
# 6 0.0000 0.0000 0.0000 0.0000 0.0000 -2.0136
#
#
#
# Elastic Compliance Matrix: (Units=1/GPa)
#
#
# Indices 1 2 3 4 5 6 
#
# 1 0.027160 -0.021041 -0.016434 0.000000 0.000000 0.000000
# 2 -0.021041 0.043019 0.002705 0.000000 0.000000 0.000000
# 3 -0.016434 0.002705 0.024880 0.000000 0.000000 0.000000
# 4 0.000000 0.000000 0.000000 -0.020408 0.000000 0.000000
# 5 0.000000 0.000000 0.000000 0.000000 0.039805 0.000000
# 6 0.000000 0.000000 0.000000 0.000000 0.000000 -0.496611
#
#
# Mechanical properties :
#
#
# Convention : Reuss Voigt Hill
#
# Bulk Modulus (GPa) = 39.18595 68.47777 53.83186
# Shear Modulus (GPa) = -16.44152 1.34104 -7.55024
#
# Velocity S-wave (km/s) = -3.07227 0.87742 -2.08194
# Velocity P-wave (km/s) = 3.14817 6.35127 5.01247
#
# Compressibility (1/GPa) = 0.02551935
#
# Stress axis : x y z
#
# Youngs Moduli (GPa) = 36.81847 23.24539 40.19320
#
# Poissons Ratio (x) = 0.48911 0.66054
# Poissons Ratio (y) = 0.77470 -0.10874
# Poissons Ratio (z) = 0.60508 -0.06289
#
# Static dielectric constant tensor:
#      x y z
#    x 1.650980 0.000000 0.000000 
#    y 0.000000 1.628280 0.000000 
#    z 0.000000 0.000000 1.563750 
# 
# From -- ./inp_files/67155.got.cif
#   From: 2010.05.17/outbox.cif.g08.bks.cpg/sg74_34_cif.got.tgz:67155.got - 2010.06.03 17:57:02.
