data_PCOD9535530
_publ_section_title
;
Structure prediction by ZEFSAII (Michael W. Deem and Ramdas Pophale) SiO2 
 PCOD9535530
Probable space group: I M M A
;
_chemical_formula_sum "Si O2"
_cell_formula_units_Z 88
_cell_length_a 9.886580
_cell_length_b 18.333755
_cell_length_c 30.056127
_cell_angle_alpha 90.000000
_cell_angle_beta 90.000000
_cell_angle_gamma 90.000000
_cell_volume 5447.917541
_symmetry_space_group_name_H-M "I M M A"
_symmetry_group_IT_number 74
_symmetry_cell_setting 'orthorhombic'
loop_
_space_group_symop_operation_xyz
x,y,z
-x,1/2-y,z
x,-y,-z
-x,1/2+y,-z
-x,-y,-z
x,1/2+y,-z
-x,y,z
x,1/2-y,z
1/2+x,1/2+y,1/2+z
1/2-x,-y,1/2+z
1/2+x,1/2-y,1/2-z
1/2-x,y,1/2-z
1/2-x,1/2-y,1/2-z
1/2+x,y,1/2-z
1/2-x,1/2+y,1/2+z
1/2+x,-y,1/2+z
loop_
_atom_site_type_symbol
_atom_site_label
_atom_site_fract_x
_atom_site_fract_y
_atom_site_fract_z
Si Si1 0.161484 0.835215 0.393731
Si Si2 0.155486 0.836007 0.498546
Si Si3 0.340585 0.250000 0.294186
Si Si4 0.161544 0.533820 0.132837
Si Si5 0.654730 0.552611 0.542820
Si Si6 0.839133 0.089239 0.205448
O O1 0.189175 0.750000 0.383431
O O2 0.192229 0.846183 0.446416
O O3 0.250532 0.892745 0.366661
O O4 0.000000 0.846865 0.387996
O O5 0.163325 0.750000 0.507176
O O6 0.249163 0.880888 0.531182
O O7 0.000000 0.859644 0.503423
O O8 0.500000 0.250000 0.282659
O O9 0.250000 0.250000 0.250000
O O10 0.315008 0.329585 0.315672
O O11 0.192428 0.492272 0.086614
O O12 0.191757 0.476623 0.172065
O O13 0.000000 0.549749 0.133303
O O14 0.660326 0.500000 0.500000
O O15 0.500000 0.577472 0.548523
O O16 0.750000 0.084043 0.250000
O O17 0.000000 0.085274 0.215819
#
# Coordination Sequence:
#
# PCOD9535530 Si02
#       6
#    16  16   8  16  16  16
#     4   9  18  32  50  72  96 127 168 207 243 288
#     4   9  18  32  48  66  92 128 169 207 241 280
#     4   8  14  28  50  72  94 124 158 192 234 280
#     4  10  20  33  49  74 103 129 162 202 245 293
#     4  10  19  31  46  69 100 131 163 197 235 288
#     4   9  18  33  53  75  99 127 161 201 242 287
#
# _framework density 16.152961000000001
#
# number of rings (size 3 to 8) (size 9 to 14) (size 15 to 20)
#    0.000    2.727    1.818    1.091    0.000    2.545 
#    1.636    1.818    0.000    0.545    0.000    0.000 
#    0.000    0.000    0.000    0.000    0.000    0.000 
#
# Total GULP energy -244992.063434 kJ/mol
# GULP energy per Si atom -5568.001442 kJ/mol
# Density = 1.611620 g / cm^3
# Si number density = 16.152961 Si / 1000 Ang^3
#
#
#
# Elastic Constant Matrix: (Units=GPa)
#
#
# Indices 1 2 3 4 5 6 
#
# 1 43.3435 66.8649 29.8545 0.0000 0.0000 0.0000
# 2 66.8649 128.8398 51.0577 0.0000 0.0000 0.0000
# 3 29.8545 51.0577 56.9549 0.0000 0.0000 0.0000
# 4 0.0000 0.0000 0.0000 26.8543 0.0000 0.0000
# 5 0.0000 0.0000 0.0000 0.0000 20.3102 0.0000
# 6 0.0000 0.0000 0.0000 0.0000 0.0000 26.6518
#
#
#
# Elastic Compliance Matrix: (Units=1/GPa)
#
#
# Indices 1 2 3 4 5 6 
#
# 1 0.119971 -0.057916 -0.010967 0.000000 0.000000 0.000000
# 2 -0.057916 0.039998 -0.005498 0.000000 0.000000 0.000000
# 3 -0.010967 -0.005498 0.028235 0.000000 0.000000 0.000000
# 4 0.000000 0.000000 0.000000 0.037238 0.000000 0.000000
# 5 0.000000 0.000000 0.000000 0.000000 0.049236 0.000000
# 6 0.000000 0.000000 0.000000 0.000000 0.000000 0.037521
#
#
# Mechanical properties :
#
#
# Convention : Reuss Voigt Hill
#
# Bulk Modulus (GPa) = 25.35360 58.29915 41.82637
# Shear Modulus (GPa) = 10.54613 20.18733 15.36673
#
# Velocity S-wave (km/s) = 2.55795 3.53903 3.08770
# Velocity P-wave (km/s) = 4.94511 7.27117 6.21788
#
# Compressibility (1/GPa) = 0.03944214
#
# Stress axis : x y z
#
# Youngs Moduli (GPa) = 8.33531 25.00154 35.41756
#
# Poissons Ratio (x) = 1.44800 0.38841
# Poissons Ratio (y) = 0.48275 0.19471
# Poissons Ratio (z) = 0.09141 0.13745
#
# Static dielectric constant tensor:
#      x y z
#    x 1.539900 0.000000 0.000000 
#    y 0.000000 1.556090 0.000000 
#    z 0.000000 0.000000 1.517460 
# 
# From -- ./inp_files/57018.got.cif
#   From: 2010.05.17/outbox.cif.g08.bks.cpg/sg74_29_cif.got.tgz:57018.got - 2010.06.03 17:57:02.
