data_PCOD9535557
_publ_section_title
;
Structure prediction by ZEFSAII (Michael W. Deem and Ramdas Pophale) SiO2 
 PCOD9535557
Probable space group: I M M A
;
_chemical_formula_sum "Si O2"
_cell_formula_units_Z 96
_cell_length_a 9.297922
_cell_length_b 24.189688
_cell_length_c 24.675057
_cell_angle_alpha 90.000000
_cell_angle_beta 90.000000
_cell_angle_gamma 90.000000
_cell_volume 5549.761630
_symmetry_space_group_name_H-M "I M M A"
_symmetry_group_IT_number 74
_symmetry_cell_setting 'orthorhombic'
loop_
_space_group_symop_operation_xyz
x,y,z
-x,1/2-y,z
x,-y,-z
-x,1/2+y,-z
-x,-y,-z
x,1/2+y,-z
-x,y,z
x,1/2-y,z
1/2+x,1/2+y,1/2+z
1/2-x,-y,1/2+z
1/2+x,1/2-y,1/2-z
1/2-x,y,1/2-z
1/2-x,1/2-y,1/2-z
1/2+x,y,1/2-z
1/2-x,1/2+y,1/2+z
1/2+x,-y,1/2+z
loop_
_atom_site_type_symbol
_atom_site_label
_atom_site_fract_x
_atom_site_fract_y
_atom_site_fract_z
Si Si1 0.169857 0.686121 0.095612
Si Si2 0.327328 0.314073 0.018806
Si Si3 0.833854 0.608660 0.898203
Si Si4 0.670819 0.108027 0.694368
Si Si5 0.827956 0.522424 0.807245
Si Si6 0.163600 0.811677 0.797885
O O1 0.182681 0.750000 0.113502
O O2 0.215338 0.645171 0.143463
O O3 0.000000 0.676212 0.083388
O O4 0.262324 0.679728 0.041325
O O5 0.500000 0.317600 0.019023
O O6 0.289451 0.250000 0.036462
O O7 0.260318 0.363632 0.054702
O O8 0.783231 0.556615 0.861217
O O9 0.834754 0.656451 0.853175
O O10 0.000000 0.598566 0.916023
O O11 0.500000 0.115721 0.701764
O O12 0.750000 0.122807 0.750000
O O13 0.695235 0.042888 0.683555
O O14 0.750000 0.535622 0.750000
O O15 0.000000 0.533072 0.800846
O O16 0.222417 0.750000 0.806061
O O17 0.250000 0.839751 0.750000
O O18 0.000000 0.808259 0.779443
#
# Coordination Sequence:
#
# PCOD9535557 Si02
#       6
#    16  16  16  16  16  16
#     4   9  18  34  55  76 100 132 166 199 241 296
#     4  10  21  35  51  73  99 127 163 209 256 296
#     4  10  19  31  48  68  92 128 170 204 240 292
#     4   9  18  33  53  78 106 133 162 198 242 293
#     4   9  18  32  50  73 101 133 168 206 248 292
#     4   9  17  27  39  58  84 113 148 193 241 284
#
# _framework density 17.298038999999999
#
# number of rings (size 3 to 8) (size 9 to 14) (size 15 to 20)
#    0.000    2.667    0.000    1.500    0.000    4.000 
#    0.000    2.500    0.000    5.000    0.000    0.000 
#    0.000    0.000    0.000    0.000    0.000    0.000 
#
# Total GULP energy -267218.187059 kJ/mol
# GULP energy per Si atom -5567.045564 kJ/mol
# Density = 1.725867 g / cm^3
# Si number density = 17.298039 Si / 1000 Ang^3
#
#
#
# Elastic Constant Matrix: (Units=GPa)
#
#
# Indices 1 2 3 4 5 6 
#
# 1 43.5075 37.8214 50.2334 0.0000 0.0000 0.0000
# 2 37.8214 81.7218 66.3598 0.0000 0.0000 0.0000
# 3 50.2334 66.3598 104.8209 0.0000 0.0000 0.0000
# 4 0.0000 0.0000 0.0000 39.0988 0.0000 0.0000
# 5 0.0000 0.0000 0.0000 0.0000 31.2390 0.0000
# 6 0.0000 0.0000 0.0000 0.0000 0.0000 16.9842
#
#
#
# Elastic Compliance Matrix: (Units=1/GPa)
#
#
# Indices 1 2 3 4 5 6 
#
# 1 0.053991 -0.008184 -0.020693 0.000000 0.000000 0.000000
# 2 -0.008184 0.026423 -0.012805 0.000000 0.000000 0.000000
# 3 -0.020693 -0.012805 0.027563 0.000000 0.000000 0.000000
# 4 0.000000 0.000000 0.000000 0.025576 0.000000 0.000000
# 5 0.000000 0.000000 0.000000 0.000000 0.032011 0.000000
# 6 0.000000 0.000000 0.000000 0.000000 0.000000 0.058878
#
#
# Mechanical properties :
#
#
# Convention : Reuss Voigt Hill
#
# Bulk Modulus (GPa) = 40.63056 59.87549 50.25303
# Shear Modulus (GPa) = 15.82218 22.50679 19.16448
#
# Velocity S-wave (km/s) = 3.02765 3.61101 3.33212
# Velocity P-wave (km/s) = 5.98011 7.21631 6.62710
#
# Compressibility (1/GPa) = 0.02461202
#
# Stress axis : x y z
#
# Youngs Moduli (GPa) = 18.52160 37.84630 36.27989
#
# Poissons Ratio (x) = 0.30975 0.75073
# Poissons Ratio (y) = 0.15159 0.46458
# Poissons Ratio (z) = 0.38326 0.48464
#
# Static dielectric constant tensor:
#      x y z
#    x 1.596610 0.000000 0.000000 
#    y 0.000000 1.623020 0.000000 
#    z 0.000000 0.000000 1.564210 
# 
# From -- ./inp_files/57306.got.cif
#   From: 2010.05.17/outbox.cif.g08.bks.cpg/sg74_29_cif.got.tgz:57306.got - 2010.06.03 17:57:02.
