data_PCOD9535670
_publ_section_title
;
Structure prediction by ZEFSAII (Michael W. Deem and Ramdas Pophale) SiO2 
 PCOD9535670
Probable space group: I M M A
;
_chemical_formula_sum "Si O2"
_cell_formula_units_Z 112
_cell_length_a 20.166997
_cell_length_b 26.540653
_cell_length_c 12.515407
_cell_angle_alpha 90.000000
_cell_angle_beta 90.000000
_cell_angle_gamma 90.000000
_cell_volume 6698.812392
_symmetry_space_group_name_H-M "I M M A"
_symmetry_group_IT_number 74
_symmetry_cell_setting 'orthorhombic'
loop_
_space_group_symop_operation_xyz
x,y,z
-x,1/2-y,z
x,-y,-z
-x,1/2+y,-z
-x,-y,-z
x,1/2+y,-z
-x,y,z
x,1/2-y,z
1/2+x,1/2+y,1/2+z
1/2-x,-y,1/2+z
1/2+x,1/2-y,1/2-z
1/2-x,y,1/2-z
1/2-x,1/2-y,1/2-z
1/2+x,y,1/2-z
1/2-x,1/2+y,1/2+z
1/2+x,-y,1/2+z
loop_
_atom_site_type_symbol
_atom_site_label
_atom_site_fract_x
_atom_site_fract_y
_atom_site_fract_z
Si Si1 0.872061 0.513724 0.383398
Si Si2 0.818548 0.091333 0.312791
Si Si3 0.329946 0.307678 0.768389
Si Si4 0.926271 0.022318 0.842699
Si Si5 0.850339 0.882132 0.081603
Si Si6 0.422044 0.405799 0.371493
Si Si7 0.692722 0.381786 0.950471
O O1 0.900799 0.500000 0.500000
O O2 0.824521 0.467614 0.347365
O O3 0.922745 0.517841 0.285863
O O4 0.833415 0.565798 0.400650
O O5 0.750000 0.099408 0.250000
O O6 0.878713 0.104261 0.233717
O O7 0.823463 0.120486 0.424404
O O8 0.352489 0.250000 0.770653
O O9 0.250000 0.307522 0.750000
O O10 0.361591 0.340011 0.672204
O O11 0.337930 0.337335 0.879397
O O12 0.872471 0.063520 0.873909
O O13 0.000000 0.038993 0.876120
O O14 0.914007 0.966499 0.888711
O O15 0.772270 0.881708 0.058091
O O16 0.891504 0.876818 0.972396
O O17 0.500000 0.396348 0.357700
#
# Coordination Sequence:
#
# PCOD9535670 Si02
#       7
#    16  16  16  16  16  16  16
#     4   9  19  29  45  72 101 137 176 213 259 300
#     4  10  19  31  50  76 107 140 175 217 252 312
#     4   9  19  34  54  79 104 130 167 220 275 316
#     4  10  20  31  45  70 106 144 177 209 254 316
#     4  11  19  30  53  74 103 136 172 215 260 321
#     4  10  21  34  49  76 111 145 174 207 259 319
#     4  10  19  32  51  77 102 134 176 219 268 308
#
# _framework density 16.719380999999998
#
# number of rings (size 3 to 8) (size 9 to 14) (size 15 to 20)
#    0.000    2.143    2.857    0.857    4.000    2.571 
#    0.000    2.143    0.000    3.000    0.000    0.000 
#    0.000    0.000    0.000    0.000    0.000    0.000 
#
# Total GULP energy -312185.178579 kJ/mol
# GULP energy per Si atom -5574.735332 kJ/mol
# Density = 1.668133 g / cm^3
# Si number density = 16.719381 Si / 1000 Ang^3
#
#
#
# Elastic Constant Matrix: (Units=GPa)
#
#
# Indices 1 2 3 4 5 6 
#
# 1 68.9485 35.8293 48.0856 0.0000 0.0000 0.0000
# 2 35.8293 74.1035 62.1199 0.0000 0.0000 0.0000
# 3 48.0856 62.1199 148.3608 0.0000 0.0000 0.0000
# 4 0.0000 0.0000 0.0000 17.0212 0.0000 0.0000
# 5 0.0000 0.0000 0.0000 0.0000 12.9563 0.0000
# 6 0.0000 0.0000 0.0000 0.0000 0.0000 8.3439
#
#
#
# Elastic Compliance Matrix: (Units=1/GPa)
#
#
# Indices 1 2 3 4 5 6 
#
# 1 0.020729 -0.006765 -0.003886 0.000000 0.000000 0.000000
# 2 -0.006765 0.023001 -0.007438 0.000000 0.000000 0.000000
# 3 -0.003886 -0.007438 0.011114 0.000000 0.000000 0.000000
# 4 0.000000 0.000000 0.000000 0.058750 0.000000 0.000000
# 5 0.000000 0.000000 0.000000 0.000000 0.077183 0.000000
# 6 0.000000 0.000000 0.000000 0.000000 0.000000 0.119848
#
#
# Mechanical properties :
#
#
# Convention : Reuss Voigt Hill
#
# Bulk Modulus (GPa) = 53.57323 64.83137 59.20230
# Shear Modulus (GPa) = 14.16330 17.35615 15.75972
#
# Velocity S-wave (km/s) = 2.91369 3.22543 3.07351
# Velocity P-wave (km/s) = 6.59026 7.26165 6.93409
#
# Compressibility (1/GPa) = 0.01866604
#
# Stress axis : x y z
#
# Youngs Moduli (GPa) = 48.24103 43.47693 89.97538
#
# Poissons Ratio (x) = 0.29413 0.34965
# Poissons Ratio (y) = 0.32635 0.66923
# Poissons Ratio (z) = 0.18747 0.32338
#
# Static dielectric constant tensor:
#      x y z
#    x 1.545270 0.000000 0.000000 
#    y 0.000000 1.542760 0.000000 
#    z 0.000000 0.000000 1.601370 
# 
# From -- ./inp_files/24339.got.cif
#   From: 2010.05.17/outbox.cif.g08.bks.cpg/sg74_13_cif.got.tgz:24339.got - 2010.06.03 17:57:02.
