data_PCOD9535498
_publ_section_title
;
Structure prediction by ZEFSAII (Michael W. Deem and Ramdas Pophale) SiO2 
 PCOD9535498
Probable space group: I M M A
;
_chemical_formula_sum "Si O2"
_cell_formula_units_Z 112
_cell_length_a 32.091018
_cell_length_b 14.656405
_cell_length_c 12.188470
_cell_angle_alpha 90.000000
_cell_angle_beta 90.000000
_cell_angle_gamma 90.000000
_cell_volume 5732.712263
_symmetry_space_group_name_H-M "I M M A"
_symmetry_group_IT_number 74
_symmetry_cell_setting 'orthorhombic'
loop_
_space_group_symop_operation_xyz
x,y,z
-x,1/2-y,z
x,-y,-z
-x,1/2+y,-z
-x,-y,-z
x,1/2+y,-z
-x,y,z
x,1/2-y,z
1/2+x,1/2+y,1/2+z
1/2-x,-y,1/2+z
1/2+x,1/2-y,1/2-z
1/2-x,y,1/2-z
1/2-x,1/2-y,1/2-z
1/2+x,y,1/2-z
1/2-x,1/2+y,1/2+z
1/2+x,-y,1/2+z
loop_
_atom_site_type_symbol
_atom_site_label
_atom_site_fract_x
_atom_site_fract_y
_atom_site_fract_z
Si Si1 0.680948 0.860154 0.492939
Si Si2 0.153635 0.481611 0.619592
Si Si3 0.545688 0.852297 0.701676
Si Si4 0.047637 0.402263 0.957125
Si Si5 0.359479 0.639057 0.727074
Si Si6 0.618967 0.144389 0.701042
Si Si7 0.735053 0.141787 0.877003
O O1 0.680076 0.750000 0.493094
O O2 0.661055 0.886190 0.609479
O O3 0.651870 0.887764 0.391457
O O4 0.727764 0.885877 0.459885
O O5 0.135690 0.500000 0.500000
O O6 0.161941 0.577687 0.680432
O O7 0.124031 0.420147 0.695644
O O8 0.195463 0.422042 0.607333
O O9 0.500000 0.896018 0.726177
O O10 0.544237 0.750000 0.747235
O O11 0.547969 0.846133 0.569408
O O12 0.591339 0.888386 0.732438
O O13 0.000000 0.413333 0.921345
O O14 0.063530 0.500000 0.000000
O O15 0.075253 0.363145 0.861047
O O16 0.356537 0.750000 0.739343
O O17 0.627898 0.250000 0.728597
O O18 0.725829 0.250000 0.893660
O O19 0.750000 0.133286 0.750000
#
# Coordination Sequence:
#
# PCOD9535498 Si02
#       7
#    16  16  16  16  16  16  16
#     4   9  18  35  62  93 117 148 189 240 310 372
#     4  12  27  41  58  84 114 163 219 259 310 361
#     4   9  16  29  54  88 123 155 187 230 294 370
#     4  10  19  30  51  90 132 160 184 230 303 381
#     4  10  21  39  62  91 127 160 197 251 314 377
#     4  11  21  37  62  89 120 159 203 251 305 370
#     4  10  20  40  65  90 120 151 194 252 312 378
#
# _framework density 19.536999000000002
#
# number of rings (size 3 to 8) (size 9 to 14) (size 15 to 20)
#    0.000    1.857    2.857    1.714    0.000    3.143 
#    0.000    0.000    0.000    4.714    0.000    2.000 
#    0.000    0.000    0.000    0.000    0.000    0.000 
#
# Total GULP energy -312337.606684 kJ/mol
# GULP energy per Si atom -5577.457262 kJ/mol
# Density = 1.949253 g / cm^3
# Si number density = 19.536999 Si / 1000 Ang^3
#
#
#
# Elastic Constant Matrix: (Units=GPa)
#
#
# Indices 1 2 3 4 5 6 
#
# 1 92.5441 23.0612 15.6404 0.0000 0.0000 0.0000
# 2 23.0612 96.6816 37.5098 0.0000 0.0000 0.0000
# 3 15.6404 37.5098 87.8380 0.0000 0.0000 0.0000
# 4 0.0000 0.0000 0.0000 16.1462 0.0000 0.0000
# 5 0.0000 0.0000 0.0000 0.0000 9.5704 0.0000
# 6 0.0000 0.0000 0.0000 0.0000 0.0000 16.6992
#
#
#
# Elastic Compliance Matrix: (Units=1/GPa)
#
#
# Indices 1 2 3 4 5 6 
#
# 1 0.011570 -0.002350 -0.001057 0.000000 0.000000 0.000000
# 2 -0.002350 0.012874 -0.005079 0.000000 0.000000 0.000000
# 3 -0.001057 -0.005079 0.013742 0.000000 0.000000 0.000000
# 4 0.000000 0.000000 0.000000 0.061934 0.000000 0.000000
# 5 0.000000 0.000000 0.000000 0.000000 0.104489 0.000000
# 6 0.000000 0.000000 0.000000 0.000000 0.000000 0.059883
#
#
# Mechanical properties :
#
#
# Convention : Reuss Voigt Hill
#
# Bulk Modulus (GPa) = 47.13800 47.72074 47.42937
# Shear Modulus (GPa) = 17.32890 21.87331 19.60111
#
# Velocity S-wave (km/s) = 2.98145 3.34965 3.17090
# Velocity P-wave (km/s) = 6.00267 6.28005 6.14292
#
# Compressibility (1/GPa) = 0.02121431
#
# Stress axis : x y z
#
# Youngs Moduli (GPa) = 86.43209 77.67364 72.77047
#
# Poissons Ratio (x) = 0.18251 0.07690
# Poissons Ratio (y) = 0.20309 0.36963
# Poissons Ratio (z) = 0.09133 0.39454
#
# Static dielectric constant tensor:
#      x y z
#    x 1.747140 0.000000 0.000000 
#    y 0.000000 1.535350 0.000000 
#    z 0.000000 0.000000 1.651950 
# 
# From -- ./inp_files/27215.got.cif
#   From: 2010.05.17/outbox.cif.g08.bks.cpg/sg74_14_cif.got.tgz:27215.got - 2010.06.03 17:57:02.
