data_PCOD9535161
_publ_section_title
;
Structure prediction by ZEFSAII (Michael W. Deem and Ramdas Pophale) SiO2 
 PCOD9535161
Probable space group: I M M A
;
_chemical_formula_sum "Si O2"
_cell_formula_units_Z 104
_cell_length_a 23.221006
_cell_length_b 22.394721
_cell_length_c 10.341450
_cell_angle_alpha 90.000000
_cell_angle_beta 90.000000
_cell_angle_gamma 90.000000
_cell_volume 5377.843051
_symmetry_space_group_name_H-M "I M M A"
_symmetry_group_IT_number 74
_symmetry_cell_setting 'orthorhombic'
loop_
_space_group_symop_operation_xyz
x,y,z
-x,1/2-y,z
x,-y,-z
-x,1/2+y,-z
-x,-y,-z
x,1/2+y,-z
-x,y,z
x,1/2-y,z
1/2+x,1/2+y,1/2+z
1/2-x,-y,1/2+z
1/2+x,1/2-y,1/2-z
1/2-x,y,1/2-z
1/2-x,1/2-y,1/2-z
1/2+x,y,1/2-z
1/2-x,1/2+y,1/2+z
1/2+x,-y,1/2+z
loop_
_atom_site_type_symbol
_atom_site_label
_atom_site_fract_x
_atom_site_fract_y
_atom_site_fract_z
Si Si1 0.137862 0.181675 0.962577
Si Si2 0.725417 0.415787 0.609860
Si Si3 0.181815 0.500000 0.500000
Si Si4 0.432115 0.365200 0.773244
Si Si5 0.069923 0.681078 0.554145
Si Si6 0.876604 0.490770 0.773820
Si Si7 0.569068 0.384539 0.318252
O O1 0.152958 0.250000 0.984604
O O2 0.192706 0.138300 0.957235
O O3 0.104873 0.173338 0.826496
O O4 0.094829 0.157236 0.071296
O O5 0.750000 0.396712 0.750000
O O6 0.776264 0.444009 0.526412
O O7 0.678101 0.466715 0.645367
O O8 0.144754 0.493394 0.370658
O O9 0.500000 0.352887 0.760336
O O10 0.418834 0.434118 0.739977
O O11 0.413500 0.350102 0.919561
O O12 0.089670 0.750000 0.559404
O O13 0.086731 0.643373 0.679785
O O14 0.000000 0.682470 0.554775
O O15 0.905932 0.548929 0.832712
O O16 0.500000 0.386245 0.324974
#
# Coordination Sequence:
#
# PCOD9535161 Si02
#       7
#    16  16   8  16  16  16  16
#     4  11  23  38  58  84 112 150 197 234 278 343
#     4   9  20  37  58  83 109 142 185 242 300 337
#     4  10  18  36  61  80 107 144 186 236 290 346
#     4  10  20  35  56  83 115 148 187 233 276 329
#     4   9  18  32  49  71 105 151 192 222 260 312
#     4  10  20  34  56  85 112 145 188 230 284 348
#     4  11  22  35  54  83 122 157 184 225 278 337
#
# _framework density 19.338608000000001
#
# number of rings (size 3 to 8) (size 9 to 14) (size 15 to 20)
#    0.000    2.000    0.000    3.692    0.000    4.615 
#    0.000    6.923    0.000    2.769    0.000    0.000 
#    0.000    0.000    0.000    0.000    0.000    0.000 
#
# Total GULP energy -290573.729465 kJ/mol
# GULP energy per Si atom -5587.956336 kJ/mol
# Density = 1.929459 g / cm^3
# Si number density = 19.338608 Si / 1000 Ang^3
#
#
#
# Elastic Constant Matrix: (Units=GPa)
#
#
# Indices 1 2 3 4 5 6 
#
# 1 36.3931 -4.2089 0.6279 0.0000 0.0000 0.0000
# 2 -4.2089 77.3787 15.3963 0.0000 0.0000 0.0000
# 3 0.6279 15.3963 63.5035 0.0000 0.0000 0.0000
# 4 0.0000 0.0000 0.0000 22.2772 0.0000 0.0000
# 5 0.0000 0.0000 0.0000 0.0000 23.4857 0.0000
# 6 0.0000 0.0000 0.0000 0.0000 0.0000 7.3991
#
#
#
# Elastic Compliance Matrix: (Units=1/GPa)
#
#
# Indices 1 2 3 4 5 6 
#
# 1 0.027679 0.001639 -0.000671 0.000000 0.000000 0.000000
# 2 0.001639 0.013676 -0.003332 0.000000 0.000000 0.000000
# 3 -0.000671 -0.003332 0.016562 0.000000 0.000000 0.000000
# 4 0.000000 0.000000 0.000000 0.044889 0.000000 0.000000
# 5 0.000000 0.000000 0.000000 0.000000 0.042579 0.000000
# 6 0.000000 0.000000 0.000000 0.000000 0.000000 0.135151
#
#
# Mechanical properties :
#
#
# Convention : Reuss Voigt Hill
#
# Bulk Modulus (GPa) = 18.80109 22.32288 20.56198
# Shear Modulus (GPa) = 16.50208 21.66307 19.08258
#
# Velocity S-wave (km/s) = 2.92434 3.35057 3.14468
# Velocity P-wave (km/s) = 4.59842 5.15137 4.88273
#
# Compressibility (1/GPa) = 0.05318842
#
# Stress axis : x y z
#
# Youngs Moduli (GPa) = 36.12859 73.12316 60.38069
#
# Poissons Ratio (x) = -0.11986 0.04052
# Poissons Ratio (y) = -0.05922 0.20118
# Poissons Ratio (z) = 0.02425 0.24363
#
# Static dielectric constant tensor:
#      x y z
#    x 1.653990 0.000000 0.000000 
#    y 0.000000 1.662190 0.000000 
#    z 0.000000 0.000000 1.678870 
# 
# From -- ./inp_files/15213.got.cif
#   From: 2010.05.17/outbox.cif.g08.bks.cpg/sg74_8_cif.got.tgz:15213.got - 2010.06.03 17:57:02.
