data_PCOD9535380
_publ_section_title
;
Structure prediction by ZEFSAII (Michael W. Deem and Ramdas Pophale) SiO2 
 PCOD9535380
Probable space group: I M M A
;
_chemical_formula_sum "Si O2"
_cell_formula_units_Z 112
_cell_length_a 15.401981
_cell_length_b 15.236996
_cell_length_c 28.212221
_cell_angle_alpha 90.000000
_cell_angle_beta 90.000000
_cell_angle_gamma 90.000000
_cell_volume 6620.841849
_symmetry_space_group_name_H-M "I M M A"
_symmetry_group_IT_number 74
_symmetry_cell_setting 'orthorhombic'
loop_
_space_group_symop_operation_xyz
x,y,z
-x,1/2-y,z
x,-y,-z
-x,1/2+y,-z
-x,-y,-z
x,1/2+y,-z
-x,y,z
x,1/2-y,z
1/2+x,1/2+y,1/2+z
1/2-x,-y,1/2+z
1/2+x,1/2-y,1/2-z
1/2-x,y,1/2-z
1/2-x,1/2-y,1/2-z
1/2+x,y,1/2-z
1/2-x,1/2+y,1/2+z
1/2+x,-y,1/2+z
loop_
_atom_site_type_symbol
_atom_site_label
_atom_site_fract_x
_atom_site_fract_y
_atom_site_fract_z
Si Si1 0.899102 0.350553 0.514327
Si Si2 0.399168 0.087231 0.083402
Si Si3 0.841700 0.348501 0.721928
Si Si4 0.593145 0.645897 0.672832
Si Si5 0.102578 0.611841 0.381955
Si Si6 0.595521 0.040161 0.229539
Si Si7 0.215113 0.348479 0.337380
O O1 0.896350 0.250000 0.497558
O O2 0.866781 0.409616 0.470956
O O3 0.863311 0.352402 0.567655
O O4 0.000000 0.377333 0.521883
O O5 0.500000 0.113795 0.082008
O O6 0.342877 0.149293 0.116029
O O7 0.394583 0.992164 0.108012
O O8 0.877015 0.250000 0.731435
O O9 0.750000 0.352926 0.750000
O O10 0.843737 0.359831 0.664362
O O11 0.892508 0.436366 0.736996
O O12 0.500000 0.626126 0.648744
O O13 0.592322 0.750000 0.683382
O O14 0.595611 0.591185 0.721124
O O15 0.685906 0.628582 0.649201
O O16 0.000000 0.636573 0.374223
O O17 0.500000 0.054881 0.206778
O O18 0.672333 0.082406 0.198698
O O19 0.212926 0.250000 0.316372
#
# Coordination Sequence:
#
# PCOD9535380 Si02
#       7
#    16  16  16  16  16  16  16
#     4   9  17  29  46  69 100 136 171 207 248 302
#     4  10  19  30  45  72 106 138 170 204 245 301
#     4  11  23  36  50  69  95 130 177 227 261 293
#     4   9  19  34  50  69  95 130 172 213 255 309
#     4  10  19  33  51  70  95 135 178 211 253 311
#     4  11  21  33  49  70  96 130 169 210 260 315
#     4  11  20  30  48  72 101 135 167 207 257 307
#
# _framework density 16.916278999999999
#
# number of rings (size 3 to 8) (size 9 to 14) (size 15 to 20)
#    0.000    1.857    1.429    3.857    0.000    6.857 
#    0.000    0.000    0.000    0.000    0.000    0.000 
#    0.000    4.571    0.000   10.286    0.000    0.000 
#
# Total GULP energy -311758.956570 kJ/mol
# GULP energy per Si atom -5567.124224 kJ/mol
# Density = 1.687778 g / cm^3
# Si number density = 16.916279 Si / 1000 Ang^3
#
#
#
# Elastic Constant Matrix: (Units=GPa)
#
#
# Indices 1 2 3 4 5 6 
#
# 1 88.2676 32.2163 27.6699 0.0000 0.0000 0.0000
# 2 32.2163 50.3353 8.3824 0.0000 0.0000 0.0000
# 3 27.6699 8.3824 72.2212 0.0000 0.0000 0.0000
# 4 0.0000 0.0000 0.0000 22.6289 0.0000 0.0000
# 5 0.0000 0.0000 0.0000 0.0000 17.8913 0.0000
# 6 0.0000 0.0000 0.0000 0.0000 0.0000 15.6414
#
#
#
# Elastic Compliance Matrix: (Units=1/GPa)
#
#
# Indices 1 2 3 4 5 6 
#
# 1 0.016495 -0.009692 -0.005195 0.000000 0.000000 0.000000
# 2 -0.009692 0.025953 0.000701 0.000000 0.000000 0.000000
# 3 -0.005195 0.000701 0.015755 0.000000 0.000000 0.000000
# 4 0.000000 0.000000 0.000000 0.044191 0.000000 0.000000
# 5 0.000000 0.000000 0.000000 0.000000 0.055893 0.000000
# 6 0.000000 0.000000 0.000000 0.000000 0.000000 0.063933
#
#
# Mechanical properties :
#
#
# Convention : Reuss Voigt Hill
#
# Bulk Modulus (GPa) = 33.52134 38.59572 36.05853
# Shear Modulus (GPa) = 19.19110 20.73601 19.96355
#
# Velocity S-wave (km/s) = 3.37185 3.50494 3.43904
# Velocity P-wave (km/s) = 5.91762 6.26456 6.09356
#
# Compressibility (1/GPa) = 0.02983174
#
# Stress axis : x y z
#
# Youngs Moduli (GPa) = 60.62359 38.53047 63.47094
#
# Poissons Ratio (x) = 0.37345 0.32972
# Poissons Ratio (y) = 0.58759 -0.04450
# Poissons Ratio (z) = 0.31493 -0.02701
#
# Static dielectric constant tensor:
#      x y z
#    x 1.592760 0.000000 0.000000 
#    y 0.000000 1.637330 0.000000 
#    z 0.000000 0.000000 1.596560 
# 
# From -- ./inp_files/67200.got.cif
#   From: 2010.05.17/outbox.cif.g08.bks.cpg/sg74_34_cif.got.tgz:67200.got - 2010.06.03 17:57:02.
