data_PCOD9535239
_publ_section_title
;
Structure prediction by ZEFSAII (Michael W. Deem and Ramdas Pophale) SiO2 
 PCOD9535239
Probable space group: I M M A
;
_chemical_formula_sum "Si O2"
_cell_formula_units_Z 80
_cell_length_a 24.604924
_cell_length_b 8.774141
_cell_length_c 26.669409
_cell_angle_alpha 90.000000
_cell_angle_beta 90.000000
_cell_angle_gamma 90.000000
_cell_volume 5757.580634
_symmetry_space_group_name_H-M "I M M A"
_symmetry_group_IT_number 74
_symmetry_cell_setting 'orthorhombic'
loop_
_space_group_symop_operation_xyz
x,y,z
-x,1/2-y,z
x,-y,-z
-x,1/2+y,-z
-x,-y,-z
x,1/2+y,-z
-x,y,z
x,1/2-y,z
1/2+x,1/2+y,1/2+z
1/2-x,-y,1/2+z
1/2+x,1/2-y,1/2-z
1/2-x,y,1/2-z
1/2-x,1/2-y,1/2-z
1/2+x,y,1/2-z
1/2-x,1/2+y,1/2+z
1/2+x,-y,1/2+z
loop_
_atom_site_type_symbol
_atom_site_label
_atom_site_fract_x
_atom_site_fract_y
_atom_site_fract_z
Si Si1 0.890136 0.932816 0.554607
Si Si2 0.000000 0.935084 0.280404
Si Si3 0.000000 0.433629 0.601947
Si Si4 0.881230 0.065180 0.743768
Si Si5 0.681791 0.931110 0.851322
Si Si6 0.281602 0.426877 0.696422
O O1 0.894920 0.750000 0.551857
O O2 0.843404 0.971553 0.594957
O O3 0.879101 0.000000 0.500000
O O4 0.946456 0.001091 0.575551
O O5 0.943713 0.985498 0.255220
O O6 0.000000 0.750000 0.279280
O O7 0.000000 0.978006 0.339205
O O8 0.000000 0.250000 0.598895
O O9 0.879354 0.250000 0.743289
O O10 0.841649 0.015367 0.789052
O O11 0.854882 0.008910 0.691758
O O12 0.678011 0.750000 0.844860
O O13 0.743548 0.983252 0.841751
O O14 0.284313 0.250000 0.681151
O O15 0.250000 0.431981 0.750000
#
# Coordination Sequence:
#
# PCOD9535239 Si02
#       6
#    16   8   8  16  16  16
#     4  11  23  35  45  59  79 105 139 180 216 250
#     4   9  16  26  44  63  81 108 139 169 200 233
#     4  11  20  32  49  61  76 108 142 177 215 247
#     4   9  16  28  43  61  81 105 136 164 196 240
#     4  10  19  29  42  59  79 101 131 171 209 242
#     4   8  15  26  42  60  79 102 130 162 196 241
#
# _framework density 13.894724999999999
#
# number of rings (size 3 to 8) (size 9 to 14) (size 15 to 20)
#    0.000    2.400    2.000    3.000    0.000    6.000 
#    0.000    0.500    0.000    0.000    0.000    0.000 
#    0.000    0.000    0.000    0.900    0.000    9.400 
#
# Total GULP energy -222870.333723 kJ/mol
# GULP energy per Si atom -5571.758343 kJ/mol
# Density = 1.386310 g / cm^3
# Si number density = 13.894725 Si / 1000 Ang^3
#
#
#
# Elastic Constant Matrix: (Units=GPa)
#
#
# Indices 1 2 3 4 5 6 
#
# 1 129.6339 28.4097 64.6673 0.0000 0.0000 0.0000
# 2 28.4097 29.0779 27.8076 0.0000 0.0000 0.0000
# 3 64.6673 27.8076 65.3239 0.0000 0.0000 0.0000
# 4 0.0000 0.0000 0.0000 17.1132 0.0000 0.0000
# 5 0.0000 0.0000 0.0000 0.0000 13.5003 0.0000
# 6 0.0000 0.0000 0.0000 0.0000 0.0000 15.9198
#
#
#
# Elastic Compliance Matrix: (Units=1/GPa)
#
#
# Indices 1 2 3 4 5 6 
#
# 1 0.015251 -0.000780 -0.014765 0.000000 0.000000 0.000000
# 2 -0.000780 0.058043 -0.023936 0.000000 0.000000 0.000000
# 3 -0.014765 -0.023936 0.040114 0.000000 0.000000 0.000000
# 4 0.000000 0.000000 0.000000 0.058435 0.000000 0.000000
# 5 0.000000 0.000000 0.000000 0.000000 0.074072 0.000000
# 6 0.000000 0.000000 0.000000 0.000000 0.000000 0.062815
#
#
# Mechanical properties :
#
#
# Convention : Reuss Voigt Hill
#
# Bulk Modulus (GPa) = 29.03149 51.75609 40.39379
# Shear Modulus (GPa) = 12.52589 16.18340 14.35465
#
# Velocity S-wave (km/s) = 3.00573 3.41649 3.21767
# Velocity P-wave (km/s) = 5.74327 7.27275 6.55279
#
# Compressibility (1/GPa) = 0.03444535
#
# Stress axis : x y z
#
# Youngs Moduli (GPa) = 65.57145 17.22873 24.92870
#
# Poissons Ratio (x) = 0.01344 0.36808
# Poissons Ratio (y) = 0.05114 0.59669
# Poissons Ratio (z) = 0.96818 0.41239
#
# Static dielectric constant tensor:
#      x y z
#    x 1.487490 0.000000 0.000000 
#    y 0.000000 1.466780 0.000000 
#    z 0.000000 0.000000 1.431040 
# 
# From -- ./inp_files/54978.got.cif
#   From: 2010.05.17/outbox.cif.g08.bks.cpg/sg74_28_cif.got.tgz:54978.got - 2010.06.03 17:57:02.
