data_PCOD9535851
_publ_section_title
;
Structure prediction by ZEFSAII (Michael W. Deem and Ramdas Pophale) SiO2 
 PCOD9535851
Probable space group: I M M A
;
_chemical_formula_sum "Si O2"
_cell_formula_units_Z 64
_cell_length_a 13.225113
_cell_length_b 8.068927
_cell_length_c 24.941456
_cell_angle_alpha 90.000000
_cell_angle_beta 90.000000
_cell_angle_gamma 90.000000
_cell_volume 2661.564409
_symmetry_space_group_name_H-M "I M M A"
_symmetry_group_IT_number 74
_symmetry_cell_setting 'orthorhombic'
loop_
_space_group_symop_operation_xyz
x,y,z
-x,1/2-y,z
x,-y,-z
-x,1/2+y,-z
-x,-y,-z
x,1/2+y,-z
-x,y,z
x,1/2-y,z
1/2+x,1/2+y,1/2+z
1/2-x,-y,1/2+z
1/2+x,1/2-y,1/2-z
1/2-x,y,1/2-z
1/2-x,1/2-y,1/2-z
1/2+x,y,1/2-z
1/2-x,1/2+y,1/2+z
1/2+x,-y,1/2+z
loop_
_atom_site_type_symbol
_atom_site_label
_atom_site_fract_x
_atom_site_fract_y
_atom_site_fract_z
Si Si1 0.606515 0.050576 0.438673
Si Si2 0.887620 0.443288 0.210813
Si Si3 0.665191 0.948293 0.939323
Si Si4 0.328778 0.057690 0.825222
O O1 0.500000 0.994687 0.412791
O O2 0.610351 0.250000 0.432912
O O3 0.719726 0.988062 0.429857
O O4 0.595859 0.000000 0.500000
O O5 0.884231 0.250000 0.194903
O O6 0.793089 0.528318 0.181365
O O7 0.870630 0.456691 0.274610
O O8 0.000000 0.509262 0.200643
O O9 0.661873 0.750000 0.939539
O O10 0.622139 0.008155 0.882292
O O11 0.632495 0.000000 0.000000
O O12 0.348613 0.250000 0.815560
#
# Coordination Sequence:
#
# PCOD9535851 Si02
#       4
#    16  16  16  16
#     4   8  14  24  38  57  84 122 167 212 256 304
#     4  10  21  39  63  87 112 146 189 239 292 341
#     4  10  19  32  50  74 108 149 192 233 278 334
#     4  11  22  36  57  86 119 152 189 234 285 344
#
# _framework density 24.046009999999999
#
# number of rings (size 3 to 8) (size 9 to 14) (size 15 to 20)
#    0.000    2.250    0.000    5.250    0.000    4.000 
#    0.000    2.500    0.000    3.750    0.000    0.000 
#    0.000    0.000    0.000    0.000    0.000    0.000 
#
# Total GULP energy -178274.851770 kJ/mol
# GULP energy per Si atom -5571.089118 kJ/mol
# Density = 2.399128 g / cm^3
# Si number density = 24.046010 Si / 1000 Ang^3
#
#
#
# Elastic Constant Matrix: (Units=GPa)
#
#
# Indices 1 2 3 4 5 6 
#
# 1 83.0435 -6.0588 12.8948 0.0000 0.0000 0.0000
# 2 -6.0588 58.0254 14.5649 0.0000 0.0000 0.0000
# 3 12.8948 14.5649 203.2089 0.0000 0.0000 0.0000
# 4 0.0000 0.0000 0.0000 19.5658 0.0000 0.0000
# 5 0.0000 0.0000 0.0000 0.0000 -15.2280 0.0000
# 6 0.0000 0.0000 0.0000 0.0000 0.0000 183.8370
#
#
#
# Elastic Compliance Matrix: (Units=1/GPa)
#
#
# Indices 1 2 3 4 5 6 
#
# 1 0.012290 0.001506 -0.000888 0.000000 0.000000 0.000000
# 2 0.001506 0.017734 -0.001367 0.000000 0.000000 0.000000
# 3 -0.000888 -0.001367 0.005075 0.000000 0.000000 0.000000
# 4 0.000000 0.000000 0.000000 0.051110 0.000000 0.000000
# 5 0.000000 0.000000 0.000000 0.000000 -0.065668 0.000000
# 6 0.000000 0.000000 0.000000 0.000000 0.000000 0.005440
#
#
# Mechanical properties :
#
#
# Convention : Reuss Voigt Hill
#
# Bulk Modulus (GPa) = 29.75980 43.00883 36.38431
# Shear Modulus (GPa) = 129.27433 59.16009 94.21721
#
# Velocity S-wave (km/s) = 7.34016 4.96551 6.26635
# Velocity P-wave (km/s) = 9.17825 7.12741 8.21706
#
# Compressibility (1/GPa) = 0.03360238
#
# Stress axis : x y z
#
# Youngs Moduli (GPa) = 81.36946 56.38839 197.03134
#
# Poissons Ratio (x) = -0.08493 0.17492
# Poissons Ratio (y) = -0.12255 0.26927
# Poissons Ratio (z) = 0.07224 0.07706
#
# Static dielectric constant tensor:
#      x y z
#    x 2.174760 0.000000 0.000000 
#    y 0.000000 1.795340 0.000000 
#    z 0.000000 0.000000 1.919200 
# 
# From -- ./inp_files/59500.got.cif
#   From: 2010.05.17/outbox.cif.g08.bks.cpg/sg74_30_cif.got.tgz:59500.got - 2010.06.03 17:57:02.
