data_PCOD9535776
_publ_section_title
;
Structure prediction by ZEFSAII (Michael W. Deem and Ramdas Pophale) SiO2 
 PCOD9535776
Probable space group: I M M A
;
_chemical_formula_sum "Si O2"
_cell_formula_units_Z 80
_cell_length_a 8.826627
_cell_length_b 24.242215
_cell_length_c 26.360176
_cell_angle_alpha 90.000000
_cell_angle_beta 90.000000
_cell_angle_gamma 90.000000
_cell_volume 5640.471102
_symmetry_space_group_name_H-M "I M M A"
_symmetry_group_IT_number 74
_symmetry_cell_setting 'orthorhombic'
loop_
_space_group_symop_operation_xyz
x,y,z
-x,1/2-y,z
x,-y,-z
-x,1/2+y,-z
-x,-y,-z
x,1/2+y,-z
-x,y,z
x,1/2-y,z
1/2+x,1/2+y,1/2+z
1/2-x,-y,1/2+z
1/2+x,1/2-y,1/2-z
1/2-x,y,1/2-z
1/2-x,1/2-y,1/2-z
1/2+x,y,1/2-z
1/2-x,1/2+y,1/2+z
1/2+x,-y,1/2+z
loop_
_atom_site_type_symbol
_atom_site_label
_atom_site_fract_x
_atom_site_fract_y
_atom_site_fract_z
Si Si1 0.180603 0.250000 0.638062
Si Si2 0.181154 0.865027 0.305806
Si Si3 0.680464 0.750000 0.473721
Si Si4 0.820241 0.430643 0.896666
Si Si5 0.317417 0.133909 0.993086
Si Si6 0.674292 0.531198 0.945487
O O1 0.214489 0.195240 0.670177
O O2 0.270476 0.250000 0.585483
O O3 0.000000 0.250000 0.626219
O O4 0.250000 0.868934 0.250000
O O5 0.252309 0.909352 0.344054
O O6 0.000000 0.871252 0.304095
O O7 0.500000 0.750000 0.477717
O O8 0.750480 0.694668 0.497412
O O9 0.746994 0.393401 0.941467
O O10 0.774781 0.493638 0.909166
O O11 0.000000 0.423755 0.897754
O O12 0.500000 0.135121 0.989209
O O13 0.277096 0.092867 0.039458
O O14 0.500000 0.531452 0.927587
O O15 0.674845 0.500000 0.000000
#
# Coordination Sequence:
#
# PCOD9535776 Si02
#       6
#     8  16   8  16  16  16
#     4  10  21  35  49  60  82 119 151 187 233 273
#     4  11  22  35  49  64  85 115 153 193 234 274
#     4  12  22  29  45  68  91 117 150 189 226 265
#     4  11  20  30  46  67  88 111 144 186 228 268
#     4  10  19  32  47  63  87 117 149 180 220 269
#     4   8  16  30  47  64  83 112 144 177 219 268
#
# _framework density 14.183211999999999
#
# number of rings (size 3 to 8) (size 9 to 14) (size 15 to 20)
#    0.000    1.800    2.000    5.400    0.000    5.200 
#    0.000    0.000    0.000    0.000    0.000    0.000 
#    0.000    0.000    0.000    0.900    0.000   11.800 
#
# Total GULP energy -223204.257894 kJ/mol
# GULP energy per Si atom -5580.106447 kJ/mol
# Density = 1.415093 g / cm^3
# Si number density = 14.183212 Si / 1000 Ang^3
#
#
#
# Elastic Constant Matrix: (Units=GPa)
#
#
# Indices 1 2 3 4 5 6 
#
# 1 83.6885 58.4015 42.0710 0.0000 0.0000 0.0000
# 2 58.4015 126.3567 54.5202 0.0000 0.0000 0.0000
# 3 42.0710 54.5202 53.9932 0.0000 0.0000 0.0000
# 4 0.0000 0.0000 0.0000 12.2717 0.0000 0.0000
# 5 0.0000 0.0000 0.0000 0.0000 20.7182 0.0000
# 6 0.0000 0.0000 0.0000 0.0000 0.0000 18.1689
#
#
#
# Elastic Compliance Matrix: (Units=1/GPa)
#
#
# Indices 1 2 3 4 5 6 
#
# 1 0.021118 -0.004715 -0.011694 0.000000 0.000000 0.000000
# 2 -0.004715 0.015077 -0.011550 0.000000 0.000000 0.000000
# 3 -0.011694 -0.011550 0.039296 0.000000 0.000000 0.000000
# 4 0.000000 0.000000 0.000000 0.081488 0.000000 0.000000
# 5 0.000000 0.000000 0.000000 0.000000 0.048267 0.000000
# 6 0.000000 0.000000 0.000000 0.000000 0.000000 0.055039
#
#
# Mechanical properties :
#
#
# Convention : Reuss Voigt Hill
#
# Bulk Modulus (GPa) = 51.09268 63.78041 57.43654
# Shear Modulus (GPa) = 15.49292 17.50147 16.49720
#
# Velocity S-wave (km/s) = 3.30865 3.51658 3.41420
# Velocity P-wave (km/s) = 7.12023 7.84570 7.49175
#
# Compressibility (1/GPa) = 0.01957227
#
# Stress axis : x y z
#
# Youngs Moduli (GPa) = 47.35284 66.32585 25.44796
#
# Poissons Ratio (x) = 0.31272 0.29759
# Poissons Ratio (y) = 0.22327 0.29393
# Poissons Ratio (z) = 0.55374 0.76609
#
# Static dielectric constant tensor:
#      x y z
#    x 1.469460 0.000000 0.000000 
#    y 0.000000 1.490830 0.000000 
#    z 0.000000 0.000000 1.434120 
# 
# From -- ./inp_files/64199.got.cif
#   From: 2010.05.17/outbox.cif.g08.bks.cpg/sg74_33_cif.got.tgz:64199.got - 2010.06.03 17:57:02.
