data_PCOD9535806
_publ_section_title
;
Structure prediction by ZEFSAII (Michael W. Deem and Ramdas Pophale) SiO2 
 PCOD9535806
Probable space group: I M M A
;
_chemical_formula_sum "Si O2"
_cell_formula_units_Z 96
_cell_length_a 20.858841
_cell_length_b 8.842829
_cell_length_c 30.797260
_cell_angle_alpha 90.000000
_cell_angle_beta 90.000000
_cell_angle_gamma 90.000000
_cell_volume 5680.590458
_symmetry_space_group_name_H-M "I M M A"
_symmetry_group_IT_number 74
_symmetry_cell_setting 'orthorhombic'
loop_
_space_group_symop_operation_xyz
x,y,z
-x,1/2-y,z
x,-y,-z
-x,1/2+y,-z
-x,-y,-z
x,1/2+y,-z
-x,y,z
x,1/2-y,z
1/2+x,1/2+y,1/2+z
1/2-x,-y,1/2+z
1/2+x,1/2-y,1/2-z
1/2-x,y,1/2-z
1/2-x,1/2-y,1/2-z
1/2+x,y,1/2-z
1/2-x,1/2+y,1/2+z
1/2+x,-y,1/2+z
loop_
_atom_site_type_symbol
_atom_site_label
_atom_site_fract_x
_atom_site_fract_y
_atom_site_fract_z
Si Si1 0.751331 0.070003 0.865074
Si Si2 0.310709 0.430193 0.281560
Si Si3 0.745676 0.925472 0.544914
Si Si4 0.901867 0.923876 0.544412
Si Si5 0.427992 0.070620 0.770596
Si Si6 0.891050 0.933072 0.639257
O O1 0.742706 0.250000 0.863869
O O2 0.796986 0.014025 0.826661
O O3 0.774606 0.016741 0.912456
O O4 0.682674 0.988168 0.858245
O O5 0.314200 0.250000 0.288290
O O6 0.250000 0.460188 0.250000
O O7 0.374115 0.490257 0.258073
O O8 0.727235 0.750000 0.547952
O O9 0.823835 0.929616 0.544164
O O10 0.723698 0.000000 0.500000
O O11 0.921446 0.750000 0.542901
O O12 0.918732 0.984207 0.592363
O O13 0.924030 0.000000 0.500000
O O14 0.500000 0.047967 0.753462
O O15 0.414997 0.250000 0.772708
O O16 0.424579 0.002112 0.818966
O O17 0.892637 0.750000 0.640332
#
# Coordination Sequence:
#
# PCOD9535806 Si02
#       6
#    16  16  16  16  16  16
#     4  11  20  30  49  75 104 136 172 215 262 307
#     4  11  22  36  56  79 104 136 175 218 261 312
#     4   9  16  27  42  65 100 136 171 208 254 308
#     4   8  15  25  40  63  91 122 160 205 251 299
#     4  11  24  39  55  77 103 133 171 215 264 319
#     4  10  19  32  49  71  98 131 171 213 257 310
#
# _framework density 16.899650999999999
#
# number of rings (size 3 to 8) (size 9 to 14) (size 15 to 20)
#    0.000    2.000    1.667    4.500    0.000    6.667 
#    0.000    0.000    0.000    0.500    0.000    0.000 
#    0.000    0.667    0.000    2.500    0.000    4.000 
#
# Total GULP energy -267894.476775 kJ/mol
# GULP energy per Si atom -5581.134933 kJ/mol
# Density = 1.686119 g / cm^3
# Si number density = 16.899651 Si / 1000 Ang^3
#
#
#
# Elastic Constant Matrix: (Units=GPa)
#
#
# Indices 1 2 3 4 5 6 
#
# 1 51.6065 22.3269 35.8972 0.0000 0.0000 0.0000
# 2 22.3269 71.6388 35.5246 0.0000 0.0000 0.0000
# 3 35.8972 35.5246 119.1836 0.0000 0.0000 0.0000
# 4 0.0000 0.0000 0.0000 34.1567 0.0000 0.0000
# 5 0.0000 0.0000 0.0000 0.0000 3.2202 0.0000
# 6 0.0000 0.0000 0.0000 0.0000 0.0000 6.6389
#
#
#
# Elastic Compliance Matrix: (Units=1/GPa)
#
#
# Indices 1 2 3 4 5 6 
#
# 1 0.025920 -0.004937 -0.006336 0.000000 0.000000 0.000000
# 2 -0.004937 0.017320 -0.003676 0.000000 0.000000 0.000000
# 3 -0.006336 -0.003676 0.011394 0.000000 0.000000 0.000000
# 4 0.000000 0.000000 0.000000 0.029277 0.000000 0.000000
# 5 0.000000 0.000000 0.000000 0.000000 0.310542 0.000000
# 6 0.000000 0.000000 0.000000 0.000000 0.000000 0.150627
#
#
# Mechanical properties :
#
#
# Convention : Reuss Voigt Hill
#
# Bulk Modulus (GPa) = 40.42212 47.76959 44.09585
# Shear Modulus (GPa) = 8.57307 18.71519 13.64413
#
# Velocity S-wave (km/s) = 2.25476 3.33142 2.84449
# Velocity P-wave (km/s) = 5.54522 6.56702 6.07763
#
# Compressibility (1/GPa) = 0.02473893
#
# Stress axis : x y z
#
# Youngs Moduli (GPa) = 38.58014 57.73620 87.76382
#
# Poissons Ratio (x) = 0.28502 0.55603
# Poissons Ratio (y) = 0.19045 0.32259
# Poissons Ratio (z) = 0.24442 0.21222
#
# Static dielectric constant tensor:
#      x y z
#    x 1.563340 0.000000 0.000000 
#    y 0.000000 1.564050 0.000000 
#    z 0.000000 0.000000 1.589190 
# 
# From -- ./inp_files/68134.got.cif
#   From: 2010.05.17/outbox.cif.g08.bks.cpg/sg74_35_cif.got.tgz:68134.got - 2010.06.03 17:57:02.
