data_PCOD9535393
_publ_section_title
;
Structure prediction by ZEFSAII (Michael W. Deem and Ramdas Pophale) SiO2 
 PCOD9535393
Probable space group: I M M A
;
_chemical_formula_sum "Si O2"
_cell_formula_units_Z 96
_cell_length_a 9.356490
_cell_length_b 21.892328
_cell_length_c 21.982126
_cell_angle_alpha 90.000000
_cell_angle_beta 90.000000
_cell_angle_gamma 90.000000
_cell_volume 4502.716429
_symmetry_space_group_name_H-M "I M M A"
_symmetry_group_IT_number 74
_symmetry_cell_setting 'orthorhombic'
loop_
_space_group_symop_operation_xyz
x,y,z
-x,1/2-y,z
x,-y,-z
-x,1/2+y,-z
-x,-y,-z
x,1/2+y,-z
-x,y,z
x,1/2-y,z
1/2+x,1/2+y,1/2+z
1/2-x,-y,1/2+z
1/2+x,1/2-y,1/2-z
1/2-x,y,1/2-z
1/2-x,1/2-y,1/2-z
1/2+x,y,1/2-z
1/2-x,1/2+y,1/2+z
1/2+x,-y,1/2+z
loop_
_atom_site_type_symbol
_atom_site_label
_atom_site_fract_x
_atom_site_fract_y
_atom_site_fract_z
Si Si1 0.328505 0.448604 0.315075
Si Si2 0.329006 0.184393 0.315142
Si Si3 0.664405 0.682789 0.493015
Si Si4 0.664389 0.181408 0.655523
Si Si5 0.159309 0.066280 0.648819
Si Si6 0.659708 0.567530 0.005104
O O1 0.500000 0.455338 0.310276
O O2 0.250000 0.447716 0.250000
O O3 0.296349 0.381752 0.343627
O O4 0.258748 0.507056 0.346291
O O5 0.500000 0.183893 0.305101
O O6 0.294196 0.250000 0.345392
O O7 0.250000 0.184984 0.250000
O O8 0.500000 0.679254 0.513714
O O9 0.722277 0.750000 0.508735
O O10 0.661934 0.680440 0.418841
O O11 0.750879 0.625083 0.516807
O O12 0.500000 0.172184 0.675070
O O13 0.710588 0.250000 0.673170
O O14 0.765171 0.126272 0.675837
O O15 0.144640 0.077981 0.577100
O O16 0.000000 0.055652 0.674289
O O17 0.500000 0.564895 0.977318
O O18 0.726160 0.500000 0.000000
#
# Coordination Sequence:
#
# PCOD9535393 Si02
#       6
#    16  16  16  16  16  16
#     4  10  19  31  48  69  94 122 152 186 226 272
#     4   8  14  25  42  64  87 111 142 181 221 259
#     4   8  14  25  42  65  90 114 145 187 230 270
#     4   8  14  26  44  65  89 116 147 185 227 269
#     4  10  19  30  46  68  94 122 153 189 227 269
#     4   9  18  31  46  66  92 122 155 190 227 268
#
# _framework density 21.320464000000001
#
# number of rings (size 3 to 8) (size 9 to 14) (size 15 to 20)
#    0.000    3.167    0.000    2.000    0.000    2.333 
#    0.000    3.333    0.000    1.500    0.000    4.667 
#    0.000    0.000    0.000    0.000    0.000    0.000 
#
# Total GULP energy -267404.064745 kJ/mol
# GULP energy per Si atom -5570.918016 kJ/mol
# Density = 2.127194 g / cm^3
# Si number density = 21.320464 Si / 1000 Ang^3
#
#
#
# Elastic Constant Matrix: (Units=GPa)
#
#
# Indices 1 2 3 4 5 6 
#
# 1 88.9109 98.1326 10.3971 0.0000 0.0000 0.0000
# 2 98.1326 231.2307 1.5903 0.0000 0.0000 0.0000
# 3 10.3971 1.5903 43.4730 0.0000 0.0000 0.0000
# 4 0.0000 0.0000 0.0000 12.6219 0.0000 0.0000
# 5 0.0000 0.0000 0.0000 0.0000 6.0331 0.0000
# 6 0.0000 0.0000 0.0000 0.0000 0.0000 34.6641
#
#
#
# Elastic Compliance Matrix: (Units=1/GPa)
#
#
# Indices 1 2 3 4 5 6 
#
# 1 0.022178 -0.009378 -0.004961 0.000000 0.000000 0.000000
# 2 -0.009378 0.008291 0.001940 0.000000 0.000000 0.000000
# 3 -0.004961 0.001940 0.024118 0.000000 0.000000 0.000000
# 4 0.000000 0.000000 0.000000 0.079228 0.000000 0.000000
# 5 0.000000 0.000000 0.000000 0.000000 0.165753 0.000000
# 6 0.000000 0.000000 0.000000 0.000000 0.000000 0.028848
#
#
# Mechanical properties :
#
#
# Convention : Reuss Voigt Hill
#
# Bulk Modulus (GPa) = 33.56995 64.87273 49.22134
# Shear Modulus (GPa) = 13.76858 27.56345 20.66601
#
# Velocity S-wave (km/s) = 2.54400 3.59948 3.11674
# Velocity P-wave (km/s) = 4.94053 6.91147 6.00738
#
# Compressibility (1/GPa) = 0.02978855
#
# Stress axis : x y z
#
# Youngs Moduli (GPa) = 45.08938 120.60753 41.46223
#
# Poissons Ratio (x) = 1.13107 0.20570
# Poissons Ratio (y) = 0.42285 -0.08042
# Poissons Ratio (z) = 0.22369 -0.23393
#
# Static dielectric constant tensor:
#      x y z
#    x 1.751410 0.000000 0.000000 
#    y 0.000000 1.814770 0.000000 
#    z 0.000000 0.000000 1.843930 
# 
# From -- ./inp_files/64298.got.cif
#   From: 2010.05.17/outbox.cif.g08.bks.cpg/sg74_33_cif.got.tgz:64298.got - 2010.06.03 17:57:02.
