data_PCOD9535515
_publ_section_title
;
Structure prediction by ZEFSAII (Michael W. Deem and Ramdas Pophale) SiO2 
 PCOD9535515
Probable space group: I M M A
;
_chemical_formula_sum "Si O2"
_cell_formula_units_Z 48
_cell_length_a 27.280903
_cell_length_b 5.664544
_cell_length_c 11.880238
_cell_angle_alpha 90.000000
_cell_angle_beta 90.000000
_cell_angle_gamma 90.000000
_cell_volume 1835.899219
_symmetry_space_group_name_H-M "I M M A"
_symmetry_group_IT_number 74
_symmetry_cell_setting 'orthorhombic'
loop_
_space_group_symop_operation_xyz
x,y,z
-x,1/2-y,z
x,-y,-z
-x,1/2+y,-z
-x,-y,-z
x,1/2+y,-z
-x,y,z
x,1/2-y,z
1/2+x,1/2+y,1/2+z
1/2-x,-y,1/2+z
1/2+x,1/2-y,1/2-z
1/2-x,y,1/2-z
1/2-x,1/2-y,1/2-z
1/2+x,y,1/2-z
1/2-x,1/2+y,1/2+z
1/2+x,-y,1/2+z
loop_
_atom_site_type_symbol
_atom_site_label
_atom_site_fract_x
_atom_site_fract_y
_atom_site_fract_z
Si Si1 0.940043 0.750000 0.557693
Si Si2 0.057633 0.250000 0.815933
Si Si3 0.941643 0.250000 0.177976
Si Si4 0.780157 0.750000 0.496684
Si Si5 0.656630 0.750000 0.229539
Si Si6 0.308626 0.750000 0.759523
O O1 0.925033 0.500000 0.500000
O O2 0.925291 0.750000 0.690494
O O3 0.000000 0.750000 0.555351
O O4 0.068865 0.496927 0.875294
O O5 0.098184 0.250000 0.718082
O O6 0.000000 0.250000 0.780958
O O7 0.000000 0.250000 0.183229
O O8 0.752446 0.500000 0.500000
O O9 0.812052 0.750000 0.384289
O O10 0.815967 0.750000 0.604785
O O11 0.671623 0.499439 0.285819
O O12 0.250000 0.750000 0.750000
#
# Coordination Sequence:
#
# PCOD9535515 Si02
#       6
#     8   8   8   8   8   8
#     4   9  15  23  32  41  57  82 117 168 221 253
#     4  10  19  31  46  62  86 124 164 195 223 261
#     4   9  17  28  39  52  72 103 148 193 223 248
#     4   8  16  30  47  65  91 121 149 189 247 295
#     4  10  19  33  50  70  98 126 159 203 246 286
#     4  10  19  33  53  72  89 118 163 206 249 299
#
# _framework density 26.145226999999998
#
# number of rings (size 3 to 8) (size 9 to 14) (size 15 to 20)
#    0.000    2.667    0.000    2.500    0.000    4.000 
#    0.000   15.000    0.000   27.000    0.000    0.000 
#    0.000    0.000    0.000    0.000    0.000  150.000 
#
# Total GULP energy -133763.802713 kJ/mol
# GULP energy per Si atom -5573.491780 kJ/mol
# Density = 2.608572 g / cm^3
# Si number density = 26.145227 Si / 1000 Ang^3
#
#
#
# Elastic Constant Matrix: (Units=GPa)
#
#
# Indices 1 2 3 4 5 6 
#
# 1 126.5309 35.9845 19.0552 0.0000 0.0000 0.0000
# 2 35.9845 395.6766 34.2763 0.0000 0.0000 0.0000
# 3 19.0552 34.2763 78.7705 0.0000 0.0000 0.0000
# 4 0.0000 0.0000 0.0000 -80.5824 0.0000 0.0000
# 5 0.0000 0.0000 0.0000 0.0000 -15.4090 0.0000
# 6 0.0000 0.0000 0.0000 0.0000 0.0000 26.0229
#
#
#
# Elastic Compliance Matrix: (Units=1/GPa)
#
#
# Indices 1 2 3 4 5 6 
#
# 1 0.008340 -0.000607 -0.001754 0.000000 0.000000 0.000000
# 2 -0.000607 0.002670 -0.001015 0.000000 0.000000 0.000000
# 3 -0.001754 -0.001015 0.013561 0.000000 0.000000 0.000000
# 4 0.000000 0.000000 0.000000 -0.012410 0.000000 0.000000
# 5 0.000000 0.000000 0.000000 0.000000 -0.064897 0.000000
# 6 0.000000 0.000000 0.000000 0.000000 0.000000 0.038428
#
#
# Mechanical properties :
#
#
# Convention : Reuss Voigt Hill
#
# Bulk Modulus (GPa) = 56.11486 86.62332 71.36909
# Shear Modulus (GPa) = -3092.16208 20.11710 -1536.02249
#
# Velocity S-wave (km/s) = -34.42753 2.77688 -24.26462
# Velocity P-wave (km/s) = 39.48202 6.59431 27.52585
#
# Compressibility (1/GPa) = 0.01782059
#
# Stress axis : x y z
#
# Youngs Moduli (GPa) = 119.90718 374.47157 73.74037
#
# Poissons Ratio (x) = 0.22714 0.12931
# Poissons Ratio (y) = 0.07273 0.07487
# Poissons Ratio (z) = 0.21026 0.38019
#
# Static dielectric constant tensor:
#      x y z
#    x 1.995110 0.000000 0.000000 
#    y 0.000000 2.257610 0.000000 
#    z 0.000000 0.000000 2.016950 
# 
# From -- ./inp_files/37566.got.cif
#   From: 2010.05.17/outbox.cif.g08.bks.cpg/sg74_19_cif.got.tgz:37566.got - 2010.06.03 17:57:02.
