data_PCOD9535690
_publ_section_title
;
Structure prediction by ZEFSAII (Michael W. Deem and Ramdas Pophale) SiO2 
 PCOD9535690
Probable space group: I M M A
;
_chemical_formula_sum "Si O2"
_cell_formula_units_Z 64
_cell_length_a 13.340217
_cell_length_b 11.045126
_cell_length_c 20.630763
_cell_angle_alpha 90.000000
_cell_angle_beta 90.000000
_cell_angle_gamma 90.000000
_cell_volume 3039.826934
_symmetry_space_group_name_H-M "I M M A"
_symmetry_group_IT_number 74
_symmetry_cell_setting 'orthorhombic'
loop_
_space_group_symop_operation_xyz
x,y,z
-x,1/2-y,z
x,-y,-z
-x,1/2+y,-z
-x,-y,-z
x,1/2+y,-z
-x,y,z
x,1/2-y,z
1/2+x,1/2+y,1/2+z
1/2-x,-y,1/2+z
1/2+x,1/2-y,1/2-z
1/2-x,y,1/2-z
1/2-x,1/2-y,1/2-z
1/2+x,y,1/2-z
1/2-x,1/2+y,1/2+z
1/2+x,-y,1/2+z
loop_
_atom_site_type_symbol
_atom_site_label
_atom_site_fract_x
_atom_site_fract_y
_atom_site_fract_z
Si Si1 0.688107 0.750000 0.457046
Si Si2 0.878863 0.391793 0.387221
Si Si3 0.883303 0.250000 0.813915
Si Si4 0.893498 0.250000 0.614685
Si Si5 0.256180 0.500000 0.500000
Si Si6 0.385628 0.956125 0.224379
O O1 0.628990 0.750000 0.389832
O O2 0.804542 0.750000 0.435090
O O3 0.677156 0.879152 0.491190
O O4 0.861772 0.250000 0.399275
O O5 0.816232 0.469077 0.439268
O O6 0.844948 0.427791 0.313852
O O7 0.000000 0.413480 0.392353
O O8 0.841809 0.375024 0.783024
O O9 0.000000 0.250000 0.794804
O O10 0.889064 0.361400 0.664405
O O11 0.000000 0.250000 0.579889
O O12 0.500000 0.987501 0.244039
#
# Coordination Sequence:
#
# PCOD9535690 Si02
#       6
#     8  16   8   8   8  16
#     4  12  24  37  60  80 115 154 195 239 291 332
#     4  10  19  31  50  78 120 165 188 217 279 344
#     4   9  20  40  64  86 102 135 199 260 295 333
#     4   9  16  28  48  78 110 139 170 213 267 329
#     4  12  23  36  47  82 118 156 200 234 258 344
#     4   8  15  30  53  81 109 132 177 236 280 335
#
# _framework density 21.053829
#
# number of rings (size 3 to 8) (size 9 to 14) (size 15 to 20)
#    0.000    2.250    3.750    1.875    0.000    3.000 
#    0.000    0.625    2.750    1.500    0.000    0.000 
#    0.000    0.000    0.000    0.000    0.000    0.000 
#
# Total GULP energy -178309.182769 kJ/mol
# GULP energy per Si atom -5572.161962 kJ/mol
# Density = 2.100591 g / cm^3
# Si number density = 21.053829 Si / 1000 Ang^3
#
#
#
# Elastic Constant Matrix: (Units=GPa)
#
#
# Indices 1 2 3 4 5 6 
#
# 1 27.9854 0.4360 2.1127 0.0000 0.0000 0.0000
# 2 0.4360 130.1053 32.6627 0.0000 0.0000 0.0000
# 3 2.1127 32.6627 70.3572 0.0000 0.0000 0.0000
# 4 0.0000 0.0000 0.0000 26.8016 0.0000 0.0000
# 5 0.0000 0.0000 0.0000 0.0000 26.3522 0.0000
# 6 0.0000 0.0000 0.0000 0.0000 0.0000 2.6166
#
#
#
# Elastic Compliance Matrix: (Units=1/GPa)
#
#
# Indices 1 2 3 4 5 6 
#
# 1 0.035817 0.000170 -0.001154 0.000000 0.000000 0.000000
# 2 0.000170 0.008701 -0.004044 0.000000 0.000000 0.000000
# 3 -0.001154 -0.004044 0.016125 0.000000 0.000000 0.000000
# 4 0.000000 0.000000 0.000000 0.037311 0.000000 0.000000
# 5 0.000000 0.000000 0.000000 0.000000 0.037948 0.000000
# 6 0.000000 0.000000 0.000000 0.000000 0.000000 0.382176
#
#
# Mechanical properties :
#
#
# Convention : Reuss Voigt Hill
#
# Bulk Modulus (GPa) = 19.76839 33.20784 26.48812
# Shear Modulus (GPa) = 9.17433 24.03652 16.60543
#
# Velocity S-wave (km/s) = 2.08974 3.38253 2.81145
# Velocity P-wave (km/s) = 3.90289 5.57336 4.81118
#
# Compressibility (1/GPa) = 0.05058581
#
# Stress axis : x y z
#
# Youngs Moduli (GPa) = 27.91935 114.93136 62.01392
#
# Poissons Ratio (x) = -0.01951 0.07158
# Poissons Ratio (y) = -0.00474 0.25081
# Poissons Ratio (z) = 0.03223 0.46483
#
# Static dielectric constant tensor:
#      x y z
#    x 1.803330 0.000000 0.000000 
#    y 0.000000 1.886500 0.000000 
#    z 0.000000 0.000000 1.766610 
# 
# From -- ./inp_files/52701.got.cif
#   From: 2010.05.17/outbox.cif.g08.bks.cpg/sg74_27_cif.got.tgz:52701.got - 2010.06.03 17:57:02.
