data_PCOD9535118
_publ_section_title
;
Structure prediction by ZEFSAII (Michael W. Deem and Ramdas Pophale) SiO2 
 PCOD9535118
Probable space group: I M M A
;
_chemical_formula_sum "Si O2"
_cell_formula_units_Z 52
_cell_length_a 16.246710
_cell_length_b 15.630209
_cell_length_c 9.319161
_cell_angle_alpha 90.000000
_cell_angle_beta 90.000000
_cell_angle_gamma 90.000000
_cell_volume 2366.502832
_symmetry_space_group_name_H-M "I M M A"
_symmetry_group_IT_number 74
_symmetry_cell_setting 'orthorhombic'
loop_
_space_group_symop_operation_xyz
x,y,z
-x,1/2-y,z
x,-y,-z
-x,1/2+y,-z
-x,-y,-z
x,1/2+y,-z
-x,y,z
x,1/2-y,z
1/2+x,1/2+y,1/2+z
1/2-x,-y,1/2+z
1/2+x,1/2-y,1/2-z
1/2-x,y,1/2-z
1/2-x,1/2-y,1/2-z
1/2+x,y,1/2-z
1/2-x,1/2+y,1/2+z
1/2+x,-y,1/2+z
loop_
_atom_site_type_symbol
_atom_site_label
_atom_site_fract_x
_atom_site_fract_y
_atom_site_fract_z
Si Si1 0.281525 0.421676 0.409352
Si Si2 0.173120 0.647988 0.354632
Si Si3 0.000000 0.250000 0.390038
Si Si4 0.000000 0.846337 0.323330
Si Si5 0.842912 0.750000 0.817169
O O1 0.316964 0.500000 0.500000
O O2 0.250000 0.444019 0.250000
O O3 0.200323 0.393268 0.497101
O O4 0.340688 0.338851 0.404026
O O5 0.161103 0.750000 0.376796
O O6 0.250000 0.638481 0.250000
O O7 0.087720 0.612385 0.292854
O O8 0.000000 0.328708 0.503514
O O9 0.081737 0.250000 0.293195
O O10 0.000000 0.750000 0.256559
O O11 0.750000 0.750000 0.750000
#
# Coordination Sequence:
#
# PCOD9535118 Si02
#       5
#    16  16   4   8   8
#     4  11  22  38  62  94 127 169 220 261 319 380
#     4  10  19  35  61  90 124 163 205 263 319 373
#     4  10  18  34  62  96 118 172 222 246 310 396
#     4   8  16  30  56  91 120 156 217 249 303 384
#     4  10  20  38  64  89 124 165 209 265 313 369
#
# _framework density 21.973351000000001
#
# number of rings (size 3 to 8) (size 9 to 14) (size 15 to 20)
#    0.462    1.538    1.538    4.615    0.000    0.000 
#    0.000    3.077    0.000    7.385    0.000    0.000 
#    0.000    0.000    0.000    0.000    0.000    0.000 
#
# Total GULP energy -145057.628404 kJ/mol
# GULP energy per Si atom -5579.139554 kJ/mol
# Density = 2.192334 g / cm^3
# Si number density = 21.973351 Si / 1000 Ang^3
#
#
#
# Elastic Constant Matrix: (Units=GPa)
#
#
# Indices 1 2 3 4 5 6 
#
# 1 161.1025 4.8075 38.2892 0.0000 0.0000 0.0000
# 2 4.8075 116.4116 37.9964 0.0000 0.0000 0.0000
# 3 38.2892 37.9964 96.3714 0.0000 0.0000 0.0000
# 4 0.0000 0.0000 0.0000 31.0765 0.0000 0.0000
# 5 0.0000 0.0000 0.0000 0.0000 33.4493 0.0000
# 6 0.0000 0.0000 0.0000 0.0000 0.0000 -0.7546
#
#
#
# Elastic Compliance Matrix: (Units=1/GPa)
#
#
# Indices 1 2 3 4 5 6 
#
# 1 0.006904 0.000700 -0.003019 0.000000 0.000000 0.000000
# 2 0.000700 0.009930 -0.004193 0.000000 0.000000 0.000000
# 3 -0.003019 -0.004193 0.013229 0.000000 0.000000 0.000000
# 4 0.000000 0.000000 0.000000 0.032179 0.000000 0.000000
# 5 0.000000 0.000000 0.000000 0.000000 0.029896 0.000000
# 6 0.000000 0.000000 0.000000 0.000000 0.000000 -1.325141
#
#
# Mechanical properties :
#
#
# Convention : Reuss Voigt Hill
#
# Bulk Modulus (GPa) = 58.68897 59.56351 59.12624
# Shear Modulus (GPa) = -4.11760 32.27373 14.07806
#
# Velocity S-wave (km/s) = -1.37039 3.83661 2.53393
# Velocity P-wave (km/s) = 4.92577 6.84047 5.96051
#
# Compressibility (1/GPa) = 0.01703898
#
# Stress axis : x y z
#
# Youngs Moduli (GPa) = 144.84615 100.70518 75.58956
#
# Poissons Ratio (x) = -0.07052 0.22821
# Poissons Ratio (y) = -0.10144 0.31697
# Poissons Ratio (z) = 0.43730 0.42229
#
# Static dielectric constant tensor:
#      x y z
#    x 1.841560 0.000000 0.000000 
#    y 0.000000 1.904560 0.000000 
#    z 0.000000 0.000000 1.854340 
# 
# From -- ./inp_files/9945.got.cif
#   From: 2010.05.17/outbox.cif.g08.bks.cpg/sg74_5_cif.got.tgz:9945.got - 2010.06.03 17:57:02.
