data_PCOD9535401
_publ_section_title
;
Structure prediction by ZEFSAII (Michael W. Deem and Ramdas Pophale) SiO2 
 PCOD9535401
Probable space group: I M M A
;
_chemical_formula_sum "Si O2"
_cell_formula_units_Z 80
_cell_length_a 17.838345
_cell_length_b 27.860792
_cell_length_c 7.267840
_cell_angle_alpha 90.000000
_cell_angle_beta 90.000000
_cell_angle_gamma 90.000000
_cell_volume 3612.046852
_symmetry_space_group_name_H-M "I M M A"
_symmetry_group_IT_number 74
_symmetry_cell_setting 'orthorhombic'
loop_
_space_group_symop_operation_xyz
x,y,z
-x,1/2-y,z
x,-y,-z
-x,1/2+y,-z
-x,-y,-z
x,1/2+y,-z
-x,y,z
x,1/2-y,z
1/2+x,1/2+y,1/2+z
1/2-x,-y,1/2+z
1/2+x,1/2-y,1/2-z
1/2-x,y,1/2-z
1/2-x,1/2-y,1/2-z
1/2+x,y,1/2-z
1/2-x,1/2+y,1/2+z
1/2+x,-y,1/2+z
loop_
_atom_site_type_symbol
_atom_site_label
_atom_site_fract_x
_atom_site_fract_y
_atom_site_fract_z
Si Si1 0.589509 0.750000 0.825175
Si Si2 0.838797 0.146379 0.729238
Si Si3 0.340983 0.250000 0.763810
Si Si4 0.412623 0.450762 0.772502
Si Si5 0.162146 0.153331 0.290915
Si Si6 0.088168 0.555539 0.719018
O O1 0.500000 0.750000 0.845903
O O2 0.618064 0.701058 0.731532
O O3 0.630299 0.750000 0.025244
O O4 0.750000 0.142923 0.750000
O O5 0.865033 0.197712 0.810233
O O6 0.874726 0.097408 0.799433
O O7 0.851940 0.149633 0.510227
O O8 0.250000 0.250000 0.750000
O O9 0.500000 0.449899 0.724104
O O10 0.383245 0.503327 0.716190
O O11 0.408047 0.447618 0.995586
O O12 0.250000 0.159230 0.250000
O O13 0.132583 0.102402 0.217823
O O14 0.000000 0.560362 0.764908
#
# Coordination Sequence:
#
# PCOD9535401 Si02
#       6
#     8  16   8  16  16  16
#     4  10  19  31  50  73  93 122 164 200 229 279
#     4   9  17  29  45  65  90 119 148 184 229 280
#     4   8  16  29  44  67  96 120 146 194 244 277
#     4   8  14  25  43  65  88 114 150 193 230 264
#     4  10  19  30  46  70  95 120 151 192 235 274
#     4   8  14  26  43  64  89 117 150 191 231 269
#
# _framework density 22.148105999999999
#
# number of rings (size 3 to 8) (size 9 to 14) (size 15 to 20)
#    0.000    3.200    0.000    2.100    0.000    5.600 
#    0.000    0.000    0.000    2.400    0.000   33.600 
#    0.000    0.000    0.000    0.000    0.000    0.000 
#
# Total GULP energy -223012.267468 kJ/mol
# GULP energy per Si atom -5575.306687 kJ/mol
# Density = 2.209770 g / cm^3
# Si number density = 22.148106 Si / 1000 Ang^3
#
#
#
# Elastic Constant Matrix: (Units=GPa)
#
#
# Indices 1 2 3 4 5 6 
#
# 1 66.6557 92.8870 7.7419 0.0000 0.0000 0.0000
# 2 92.8870 302.9861 15.3568 0.0000 0.0000 0.0000
# 3 7.7419 15.3568 95.1809 -0.0008 -0.0013 0.0000
# 4 0.0000 0.0000 -0.0008 -14.3638 -0.0002 0.0000
# 5 0.0000 0.0000 -0.0013 -0.0002 8.3797 0.0000
# 6 0.0000 0.0000 0.0000 0.0000 0.0000 48.7280
#
#
#
# Elastic Compliance Matrix: (Units=1/GPa)
#
#
# Indices 1 2 3 4 5 6 
#
# 1 0.026259 -0.008008 -0.000844 0.000000 0.000000 0.000000
# 2 -0.008008 0.005770 -0.000280 0.000000 0.000000 0.000000
# 3 -0.000844 -0.000280 0.010620 -0.000001 0.000002 0.000000
# 4 0.000000 0.000000 -0.000001 -0.069620 -0.000002 0.000000
# 5 0.000000 0.000000 0.000002 -0.000002 0.119336 0.000000
# 6 0.000000 0.000000 0.000000 0.000000 0.000000 0.020522
#
#
# Mechanical properties :
#
#
# Convention : Reuss Voigt Hill
#
# Bulk Modulus (GPa) = 41.00580 77.42159 59.21370
# Shear Modulus (GPa) = 35.89923 31.80458 33.85190
#
# Velocity S-wave (km/s) = 4.03037 3.79356 3.91376
# Velocity P-wave (km/s) = 6.34138 7.36345 6.87144
#
# Compressibility (1/GPa) = 0.02438679
#
# Stress axis : x y z
#
# Youngs Moduli (GPa) = 38.08163 173.32341 94.16146
#
# Poissons Ratio (x) = 1.38791 0.07947
# Poissons Ratio (y) = 0.30494 0.02632
# Poissons Ratio (z) = 0.03214 0.04845
#
# Static dielectric constant tensor:
#      x y z
#    x 1.719260 0.000000 0.000000 
#    y 0.000000 1.877490 0.000000 
#    z 0.000000 0.000000 1.811300 
# 
# From -- ./inp_files/20816.got.cif
#   From: 2010.05.17/outbox.cif.g08.bks.cpg/sg74_11_cif.got.tgz:20816.got - 2010.06.03 17:57:02.
