data_PCOD9535856
_publ_section_title
;
Structure prediction by ZEFSAII (Michael W. Deem and Ramdas Pophale) SiO2 
 PCOD9535856
Probable space group: I M M A
;
_chemical_formula_sum "Si O2"
_cell_formula_units_Z 116
_cell_length_a 21.750927
_cell_length_b 9.218080
_cell_length_c 28.787070
_cell_angle_alpha 90.000000
_cell_angle_beta 90.000000
_cell_angle_gamma 90.000000
_cell_volume 5771.858925
_symmetry_space_group_name_H-M "I M M A"
_symmetry_group_IT_number 74
_symmetry_cell_setting 'orthorhombic'
loop_
_space_group_symop_operation_xyz
x,y,z
-x,1/2-y,z
x,-y,-z
-x,1/2+y,-z
-x,-y,-z
x,1/2+y,-z
-x,y,z
x,1/2-y,z
1/2+x,1/2+y,1/2+z
1/2-x,-y,1/2+z
1/2+x,1/2-y,1/2-z
1/2-x,y,1/2-z
1/2-x,1/2-y,1/2-z
1/2+x,y,1/2-z
1/2-x,1/2+y,1/2+z
1/2+x,-y,1/2+z
loop_
_atom_site_type_symbol
_atom_site_label
_atom_site_fract_x
_atom_site_fract_y
_atom_site_fract_z
Si Si1 0.432234 0.577543 0.883682
Si Si2 0.427957 0.594499 0.207136
Si Si3 0.000000 0.750000 0.799119
Si Si4 0.069583 0.414060 0.906770
Si Si5 0.734668 0.577424 0.304301
Si Si6 0.397867 0.995610 0.306209
Si Si7 0.316140 0.577142 0.549300
Si Si8 0.799763 0.075216 0.384776
O O1 0.500000 0.517157 0.897508
O O2 0.436199 0.750000 0.888219
O O3 0.422874 0.533800 0.829707
O O4 0.366865 0.533725 0.905483
O O5 0.500000 0.598179 0.219125
O O6 0.411475 0.750000 0.184968
O O7 0.395144 0.580739 0.256128
O O8 0.054650 0.874143 0.799915
O O9 0.077740 0.250000 0.924481
O O10 0.077194 0.412058 0.851073
O O11 0.121818 0.516990 0.927042
O O12 0.000000 0.463105 0.917530
O O13 0.724046 0.750000 0.313605
O O14 0.750000 0.561946 0.250000
O O15 0.674230 0.482343 0.316350
O O16 0.787152 0.514639 0.337777
O O17 0.309516 0.500000 0.500000
O O18 0.320294 0.750000 0.544112
O O19 0.256640 0.543978 0.580889
O O20 0.800340 0.250000 0.375723
#
# Coordination Sequence:
#
# PCOD9535856 Si02
#       8
#    16  16   4  16  16  16  16  16
#     4   9  19  35  58  86 121 161 203 250 303 362
#     4  10  19  32  50  76 115 159 207 252 295 348
#     4  12  28  36  56  88 122 164 222 260 324 352
#     4  11  23  40  64  91 122 158 202 253 312 368
#     4  11  24  40  60  88 124 168 212 257 310 366
#     4  12  23  37  56  82 120 164 211 255 308 364
#     4  11  25  44  68  92 121 156 203 255 316 379
#     4  10  22  40  61  91 122 159 205 255 307 371
#
# _framework density 20.09751
#
# number of rings (size 3 to 8) (size 9 to 14) (size 15 to 20)
#    0.000    1.379    2.759    2.483    2.897    4.138 
#    0.000    0.000    0.000    0.414    0.000    0.000 
#    0.000    0.000    0.000    0.000    0.000    0.138 
#
# Total GULP energy -322905.107330 kJ/mol
# GULP energy per Si atom -5567.329437 kJ/mol
# Density = 2.005177 g / cm^3
# Si number density = 20.097510 Si / 1000 Ang^3
#
#
#
# Elastic Constant Matrix: (Units=GPa)
#
#
# Indices 1 2 3 4 5 6 
#
# 1 192.6290 42.6364 25.9246 0.0000 0.0000 0.0000
# 2 42.6364 57.0749 20.5139 0.0000 0.0000 0.0000
# 3 25.9246 20.5139 54.3423 0.0000 0.0000 0.0000
# 4 0.0000 0.0000 0.0000 57.6960 0.0000 0.0000
# 5 0.0000 0.0000 0.0000 0.0000 12.7708 0.0000
# 6 0.0000 0.0000 0.0000 0.0000 0.0000 18.0277
#
#
#
# Elastic Compliance Matrix: (Units=1/GPa)
#
#
# Indices 1 2 3 4 5 6 
#
# 1 0.006314 -0.004204 -0.001425 0.000000 0.000000 0.000000
# 2 -0.004204 0.023071 -0.006703 0.000000 0.000000 0.000000
# 3 -0.001425 -0.006703 0.021612 0.000000 0.000000 0.000000
# 4 0.000000 0.000000 0.000000 0.017332 0.000000 0.000000
# 5 0.000000 0.000000 0.000000 0.000000 0.078304 0.000000
# 6 0.000000 0.000000 0.000000 0.000000 0.000000 0.055470
#
#
# Mechanical properties :
#
#
# Convention : Reuss Voigt Hill
#
# Bulk Modulus (GPa) = 37.97741 53.57734 45.77737
# Shear Modulus (GPa) = 21.22735 32.03032 26.62884
#
# Velocity S-wave (km/s) = 3.25348 3.99651 3.64398
# Velocity P-wave (km/s) = 5.74901 6.92912 6.36646
#
# Compressibility (1/GPa) = 0.02633144
#
# Stress axis : x y z
#
# Youngs Moduli (GPa) = 158.38624 43.34462 46.27038
#
# Poissons Ratio (x) = 0.18224 0.06593
# Poissons Ratio (y) = 0.66591 0.31017
# Poissons Ratio (z) = 0.22568 0.29056
#
# Static dielectric constant tensor:
#      x y z
#    x 1.774610 0.000000 0.000000 
#    y 0.000000 1.700220 0.000000 
#    z 0.000000 0.000000 1.682450 
# 
# From -- ./inp_files/73736.got.cif
#   From: 2010.05.17/outbox.cif.g08.bks.cpg/sg74_37_cif.got.tgz:73736.got - 2010.06.03 17:57:02.
