data_PCOD9535444
_publ_section_title
;
Structure prediction by ZEFSAII (Michael W. Deem and Ramdas Pophale) SiO2 
 PCOD9535444
Probable space group: I M M A
;
_chemical_formula_sum "Si O2"
_cell_formula_units_Z 96
_cell_length_a 21.398840
_cell_length_b 24.524092
_cell_length_c 9.539135
_cell_angle_alpha 90.000000
_cell_angle_beta 90.000000
_cell_angle_gamma 90.000000
_cell_volume 5006.015192
_symmetry_space_group_name_H-M "I M M A"
_symmetry_group_IT_number 74
_symmetry_cell_setting 'orthorhombic'
loop_
_space_group_symop_operation_xyz
x,y,z
-x,1/2-y,z
x,-y,-z
-x,1/2+y,-z
-x,-y,-z
x,1/2+y,-z
-x,y,z
x,1/2-y,z
1/2+x,1/2+y,1/2+z
1/2-x,-y,1/2+z
1/2+x,1/2-y,1/2-z
1/2-x,y,1/2-z
1/2-x,1/2-y,1/2-z
1/2+x,y,1/2-z
1/2-x,1/2+y,1/2+z
1/2+x,-y,1/2+z
loop_
_atom_site_type_symbol
_atom_site_label
_atom_site_fract_x
_atom_site_fract_y
_atom_site_fract_z
Si Si1 0.175900 0.185592 0.234264
Si Si2 0.144786 0.904532 0.986492
Si Si3 0.771271 0.544992 0.395751
Si Si4 0.107095 0.907790 0.293663
Si Si5 0.428967 0.968958 0.742026
Si Si6 0.429743 0.137667 0.072183
O O1 0.172144 0.250000 0.209388
O O2 0.250000 0.171792 0.250000
O O3 0.128787 0.170447 0.362458
O O4 0.151523 0.149476 0.105407
O O5 0.211911 0.927502 0.032727
O O6 0.107253 0.893427 0.129810
O O7 0.114136 0.949969 0.886176
O O8 0.797721 0.500000 0.500000
O O9 0.750000 0.517384 0.250000
O O10 0.821887 0.589113 0.350381
O O11 0.073079 0.869756 0.404874
O O12 0.084873 0.970703 0.296421
O O13 0.500000 0.967419 0.691323
O O14 0.422749 0.923189 0.862150
O O15 0.500000 0.157327 0.112538
#
# Coordination Sequence:
#
# PCOD9535444 Si02
#       6
#    16  16  16  16  16  16
#     4  10  22  42  65  82 100 137 189 241 290 337
#     4  10  21  35  52  79 111 144 185 230 273 322
#     4  10  19  30  47  74 110 149 184 219 262 312
#     4  11  20  31  51  81 117 150 179 218 267 324
#     4  10  20  34  52  78 115 156 190 215 249 312
#     4  10  21  36  57  84 113 147 185 227 274 325
#
# _framework density 19.176929999999999
#
# number of rings (size 3 to 8) (size 9 to 14) (size 15 to 20)
#    0.000    1.833    0.000    5.500    0.000    7.000 
#    0.000    0.833    0.000    6.500    0.000    0.000 
#    0.000    0.000    0.000    0.000    0.000    0.000 
#
# Total GULP energy -267915.403200 kJ/mol
# GULP energy per Si atom -5581.570900 kJ/mol
# Density = 1.913328 g / cm^3
# Si number density = 19.176930 Si / 1000 Ang^3
#
#
#
# Elastic Constant Matrix: (Units=GPa)
#
#
# Indices 1 2 3 4 5 6 
#
# 1 89.6302 15.4022 11.3741 0.0000 0.0000 0.0000
# 2 15.4022 56.7745 16.8134 0.0000 0.0000 0.0000
# 3 11.3741 16.8134 82.4360 0.0000 0.0000 0.0000
# 4 0.0000 0.0000 0.0000 9.4722 0.0000 0.0000
# 5 0.0000 0.0000 0.0000 0.0000 20.2698 0.0000
# 6 0.0000 0.0000 0.0000 0.0000 0.0000 45.3792
#
#
#
# Elastic Compliance Matrix: (Units=1/GPa)
#
#
# Indices 1 2 3 4 5 6 
#
# 1 0.011785 -0.002890 -0.001037 0.000000 0.000000 0.000000
# 2 -0.002890 0.019455 -0.003569 0.000000 0.000000 0.000000
# 3 -0.001037 -0.003569 0.013002 0.000000 0.000000 0.000000
# 4 0.000000 0.000000 0.000000 0.105572 0.000000 0.000000
# 5 0.000000 0.000000 0.000000 0.000000 0.049334 0.000000
# 6 0.000000 0.000000 0.000000 0.000000 0.000000 0.022037
#
#
# Mechanical properties :
#
#
# Convention : Reuss Voigt Hill
#
# Bulk Modulus (GPa) = 34.18857 35.11334 34.65095
# Shear Modulus (GPa) = 20.33129 27.37432 23.85281
#
# Velocity S-wave (km/s) = 3.25960 3.78227 3.53062
# Velocity P-wave (km/s) = 5.65980 6.11752 5.89311
#
# Compressibility (1/GPa) = 0.02924954
#
# Stress axis : x y z
#
# Youngs Moduli (GPa) = 84.85260 51.40180 76.91369
#
# Poissons Ratio (x) = 0.14856 0.07973
# Poissons Ratio (y) = 0.24524 0.27451
# Poissons Ratio (z) = 0.08796 0.18346
#
# Static dielectric constant tensor:
#      x y z
#    x 1.755410 0.000000 0.000000 
#    y 0.000000 1.627930 0.000000 
#    z 0.000000 0.000000 1.997550 
# 
# From -- ./inp_files/12666.got.cif
#   From: 2010.05.17/outbox.cif.g08.bks.cpg/sg74_7_cif.got.tgz:12666.got - 2010.06.03 17:57:02.
