data_PCOD9535293
_publ_section_title
;
Structure prediction by ZEFSAII (Michael W. Deem and Ramdas Pophale) SiO2 
 PCOD9535293
Probable space group: I M M A
;
_chemical_formula_sum "Si O2"
_cell_formula_units_Z 96
_cell_length_a 23.586822
_cell_length_b 9.926395
_cell_length_c 32.841388
_cell_angle_alpha 90.000000
_cell_angle_beta 90.000000
_cell_angle_gamma 90.000000
_cell_volume 7689.223532
_symmetry_space_group_name_H-M "I M M A"
_symmetry_group_IT_number 74
_symmetry_cell_setting 'orthorhombic'
loop_
_space_group_symop_operation_xyz
x,y,z
-x,1/2-y,z
x,-y,-z
-x,1/2+y,-z
-x,-y,-z
x,1/2+y,-z
-x,y,z
x,1/2-y,z
1/2+x,1/2+y,1/2+z
1/2-x,-y,1/2+z
1/2+x,1/2-y,1/2-z
1/2-x,y,1/2-z
1/2-x,1/2-y,1/2-z
1/2+x,y,1/2-z
1/2-x,1/2+y,1/2+z
1/2+x,-y,1/2+z
loop_
_atom_site_type_symbol
_atom_site_label
_atom_site_fract_x
_atom_site_fract_y
_atom_site_fract_z
Si Si1 0.283454 0.094278 0.793073
Si Si2 0.395363 0.996762 0.399359
Si Si3 0.000000 0.412071 0.843444
Si Si4 0.432477 0.750000 0.549034
Si Si5 0.069697 0.250000 0.952512
Si Si6 0.000000 0.903072 0.766111
Si Si7 0.189328 0.910817 0.831565
Si Si8 0.372778 0.404229 0.244560
O O1 0.290596 0.250000 0.806573
O O2 0.250000 0.099227 0.750000
O O3 0.244483 0.000223 0.821546
O O4 0.340960 0.014222 0.782676
O O5 0.408321 0.123548 0.427292
O O6 0.341519 0.028418 0.371145
O O7 0.445616 0.964674 0.367704
O O8 0.400113 0.874583 0.430803
O O9 0.000000 0.250000 0.841415
O O10 0.000000 0.482251 0.799931
O O11 0.500000 0.750000 0.553787
O O12 0.421599 0.750000 0.500848
O O13 0.000000 0.250000 0.945378
O O14 0.059347 0.914683 0.742565
O O15 0.000000 0.750000 0.784371
O O16 0.200354 0.750000 0.836291
O O17 0.148197 0.922921 0.791591
O O18 0.356010 0.250000 0.233621
#
# Coordination Sequence:
#
# PCOD9535293 Si02
#       8
#    16  16   8   8   8   8  16  16
#     4   9  18  30  43  59  81 106 130 163 209 251
#     4  12  20  32  45  62  79 103 138 178 217 261
#     4  12  22  30  39  62  85 105 132 180 224 251
#     4  11  22  32  50  58  77 108 140 173 214 267
#     4  11  22  36  42  60  83 108 134 171 224 267
#     4  10  20  30  46  63  85 113 141 169 207 251
#     4  10  19  29  45  62  77 103 136 174 211 244
#     4   9  17  29  43  61  84 106 135 167 201 246
#
# _framework density 12.485006
#
# number of rings (size 3 to 8) (size 9 to 14) (size 15 to 20)
#    0.000    1.667    5.000    1.000    2.333    4.000 
#    0.000    0.000    0.000    0.000    0.000    0.000 
#    0.000    0.000    0.000    0.000    0.000    0.000 
#
# Total GULP energy -267367.285188 kJ/mol
# GULP energy per Si atom -5570.151775 kJ/mol
# Density = 1.245659 g / cm^3
# Si number density = 12.485006 Si / 1000 Ang^3
#
#
#
# Elastic Constant Matrix: (Units=GPa)
#
#
# Indices 1 2 3 4 5 6 
#
# 1 66.0033 52.4012 35.9214 0.0000 0.0000 0.0000
# 2 52.4012 130.2579 50.3868 0.0000 0.0000 0.0000
# 3 35.9214 50.3868 60.3157 0.0000 0.0000 0.0000
# 4 0.0000 0.0000 0.0000 27.8091 0.0000 0.0000
# 5 0.0000 0.0000 0.0000 0.0000 22.8217 0.0000
# 6 0.0000 0.0000 0.0000 0.0000 0.0000 15.5664
#
#
#
# Elastic Compliance Matrix: (Units=1/GPa)
#
#
# Indices 1 2 3 4 5 6 
#
# 1 0.025692 -0.006525 -0.009850 0.000000 0.000000 0.000000
# 2 -0.006525 0.013000 -0.006973 0.000000 0.000000 0.000000
# 3 -0.009850 -0.006973 0.028271 0.000000 0.000000 0.000000
# 4 0.000000 0.000000 0.000000 0.035959 0.000000 0.000000
# 5 0.000000 0.000000 0.000000 0.000000 0.043818 0.000000
# 6 0.000000 0.000000 0.000000 0.000000 0.000000 0.064241
#
#
# Mechanical properties :
#
#
# Convention : Reuss Voigt Hill
#
# Bulk Modulus (GPa) = 49.34528 59.33285 54.33907
# Shear Modulus (GPa) = 18.90834 21.09728 20.00281
#
# Velocity S-wave (km/s) = 3.89586 4.11519 4.00703
# Velocity P-wave (km/s) = 7.73605 8.37891 8.06389
#
# Compressibility (1/GPa) = 0.02026536
#
# Stress axis : x y z
#
# Youngs Moduli (GPa) = 38.92252 76.92492 35.37181
#
# Poissons Ratio (x) = 0.50197 0.34841
# Poissons Ratio (y) = 0.25399 0.24666
# Poissons Ratio (z) = 0.38338 0.53643
#
# Static dielectric constant tensor:
#      x y z
#    x 1.399120 0.000000 0.000000 
#    y 0.000000 1.426670 0.000000 
#    z 0.000000 0.000000 1.380180 
# 
# From -- ./inp_files/68622.got.cif
#   From: 2010.05.17/outbox.cif.g08.bks.cpg/sg74_35_cif.got.tgz:68622.got - 2010.06.03 17:57:02.
