data_PCOD9535363
_publ_section_title
;
Structure prediction by ZEFSAII (Michael W. Deem and Ramdas Pophale) SiO2 
 PCOD9535363
Probable space group: I M M A
;
_chemical_formula_sum "Si O2"
_cell_formula_units_Z 64
_cell_length_a 7.554205
_cell_length_b 13.335920
_cell_length_c 25.225136
_cell_angle_alpha 90.000000
_cell_angle_beta 90.000000
_cell_angle_gamma 90.000000
_cell_volume 2541.237551
_symmetry_space_group_name_H-M "I M M A"
_symmetry_group_IT_number 74
_symmetry_cell_setting 'orthorhombic'
loop_
_space_group_symop_operation_xyz
x,y,z
-x,1/2-y,z
x,-y,-z
-x,1/2+y,-z
-x,-y,-z
x,1/2+y,-z
-x,y,z
x,1/2-y,z
1/2+x,1/2+y,1/2+z
1/2-x,-y,1/2+z
1/2+x,1/2-y,1/2-z
1/2-x,y,1/2-z
1/2-x,1/2-y,1/2-z
1/2+x,y,1/2-z
1/2-x,1/2+y,1/2+z
1/2+x,-y,1/2+z
loop_
_atom_site_type_symbol
_atom_site_label
_atom_site_fract_x
_atom_site_fract_y
_atom_site_fract_z
Si Si1 0.207365 0.576790 0.190487
Si Si2 0.712301 0.355577 0.312274
Si Si3 0.288202 0.428146 0.921631
Si Si4 0.283623 0.859446 0.962273
O O1 0.250000 0.615189 0.250000
O O2 0.290533 0.466534 0.179243
O O3 0.241959 0.626295 0.133524
O O4 0.000000 0.563177 0.193763
O O5 0.500000 0.356776 0.321540
O O6 0.783832 0.250000 0.335217
O O7 0.750000 0.347668 0.250000
O O8 0.500000 0.431464 0.923634
O O9 0.222126 0.543891 0.928920
O O10 0.232269 0.376003 0.976320
O O11 0.500000 0.859860 0.960054
O O12 0.219858 0.750000 0.945862
#
# Coordination Sequence:
#
# PCOD9535363 Si02
#       4
#    16  16  16  16
#     4  10  19  30  45  66  96 132 165 199 241 288
#     4   8  14  24  36  51  75 110 150 186 220 263
#     4   9  17  30  50  75  99 125 162 202 239 287
#     4   8  15  30  52  75  98 126 160 199 244 292
#
# _framework density 25.184581000000001
#
# number of rings (size 3 to 8) (size 9 to 14) (size 15 to 20)
#    0.000    3.250    0.000    2.250    0.000    2.000 
#    0.000    2.500    0.000    9.000    0.000    0.000 
#    0.000    0.000    0.000    0.000    0.000    0.000 
#
# Total GULP energy -178149.982149 kJ/mol
# GULP energy per Si atom -5567.186942 kJ/mol
# Density = 2.512726 g / cm^3
# Si number density = 25.184581 Si / 1000 Ang^3
#
#
#
# Elastic Constant Matrix: (Units=GPa)
#
#
# Indices 1 2 3 4 5 6 
#
# 1 73.5732 -1.5395 -4.4512 0.0000 0.0000 0.0000
# 2 -1.5395 79.3472 20.0844 0.0000 0.0000 0.0000
# 3 -4.4512 20.0844 242.0324 0.0000 0.0000 0.0000
# 4 0.0000 0.0000 0.0000 -15.6725 0.0000 0.0000
# 5 0.0000 0.0000 0.0000 0.0000 22.7353 0.0000
# 6 0.0000 0.0000 0.0000 0.0000 0.0000 5.3488
#
#
#
# Elastic Compliance Matrix: (Units=1/GPa)
#
#
# Indices 1 2 3 4 5 6 
#
# 1 0.013610 0.000205 0.000233 0.000000 0.000000 0.000000
# 2 0.000205 0.012876 -0.001065 0.000000 0.000000 0.000000
# 3 0.000233 -0.001065 0.004224 0.000000 0.000000 0.000000
# 4 0.000000 0.000000 0.000000 -0.063806 0.000000 0.000000
# 5 0.000000 0.000000 0.000000 0.000000 0.043984 0.000000
# 6 0.000000 0.000000 0.000000 0.000000 0.000000 0.186959
#
#
# Mechanical properties :
#
#
# Convention : Reuss Voigt Hill
#
# Bulk Modulus (GPa) = 33.94650 47.01557 40.48104
# Shear Modulus (GPa) = 23.93250 27.87293 25.90272
#
# Velocity S-wave (km/s) = 3.08601 3.33039 3.21053
# Velocity P-wave (km/s) = 5.11921 5.78771 5.46369
#
# Compressibility (1/GPa) = 0.02945811
#
# Stress axis : x y z
#
# Youngs Moduli (GPa) = 73.47371 77.66194 236.72437
#
# Poissons Ratio (x) = -0.01592 -0.05523
# Poissons Ratio (y) = -0.01506 0.25205
# Poissons Ratio (z) = -0.01714 0.08269
#
# Static dielectric constant tensor:
#      x y z
#    x 2.095640 0.000000 0.000000 
#    y 0.000000 2.114700 0.000000 
#    z 0.000000 0.000000 2.338840 
# 
# From -- ./inp_files/56391.got.cif
#   From: 2010.05.17/outbox.cif.g08.bks.cpg/sg74_29_cif.got.tgz:56391.got - 2010.06.03 17:57:02.
