data_PCOD9535554
_publ_section_title
;
Structure prediction by ZEFSAII (Michael W. Deem and Ramdas Pophale) SiO2 
 PCOD9535554
Probable space group: I M M A
;
_chemical_formula_sum "Si O2"
_cell_formula_units_Z 56
_cell_length_a 5.580315
_cell_length_b 13.760416
_cell_length_c 29.996865
_cell_angle_alpha 90.000000
_cell_angle_beta 90.000000
_cell_angle_gamma 90.000000
_cell_volume 2303.382946
_symmetry_space_group_name_H-M "I M M A"
_symmetry_group_IT_number 74
_symmetry_cell_setting 'orthorhombic'
loop_
_space_group_symop_operation_xyz
x,y,z
-x,1/2-y,z
x,-y,-z
-x,1/2+y,-z
-x,-y,-z
x,1/2+y,-z
-x,y,z
x,1/2-y,z
1/2+x,1/2+y,1/2+z
1/2-x,-y,1/2+z
1/2+x,1/2-y,1/2-z
1/2-x,y,1/2-z
1/2-x,1/2-y,1/2-z
1/2+x,y,1/2-z
1/2-x,1/2+y,1/2+z
1/2+x,-y,1/2+z
loop_
_atom_site_type_symbol
_atom_site_label
_atom_site_fract_x
_atom_site_fract_y
_atom_site_fract_z
Si Si1 0.000000 0.441394 0.052038
Si Si2 0.000000 0.132884 0.907037
Si Si3 0.500000 0.547534 0.262122
Si Si4 0.500000 0.855040 0.800161
Si Si5 0.000000 0.366508 0.489480
Si Si6 0.500000 0.910730 0.657742
Si Si7 0.000000 0.134655 0.594087
O O1 0.252317 0.402140 0.033013
O O2 0.000000 0.418852 0.104702
O O3 0.000000 0.559891 0.050819
O O4 0.250781 0.107450 0.884222
O O5 0.000000 0.250000 0.917654
O O6 0.250000 0.598702 0.250000
O O7 0.500000 0.447290 0.232701
O O8 0.500000 0.508471 0.312227
O O9 0.500000 0.750000 0.776657
O O10 0.746500 0.861975 0.828196
O O11 0.000000 0.394394 0.542055
O O12 0.000000 0.250000 0.487784
O O13 0.000000 0.250000 0.593959
#
# Coordination Sequence:
#
# PCOD9535554 Si02
#       7
#     8   8   8   8   8   8   8
#     4  12  24  36  54  78 107 143 175 208 263 323
#     4  10  21  38  59  81 101 126 172 230 274 307
#     4   8  16  29  44  62  87 119 163 208 242 272
#     4  10  19  31  48  67  91 129 175 213 239 274
#     4  11  24  39  53  76 110 143 175 207 249 316
#     4  10  21  32  43  66  97 126 163 203 244 295
#     4   9  19  37  58  78 102 132 171 221 264 304
#
# _framework density 24.312069000000001
#
# number of rings (size 3 to 8) (size 9 to 14) (size 15 to 20)
#    0.000    2.000    0.000    3.429    0.000   14.286 
#    0.000    0.000    0.000    0.000    0.000    0.000 
#    0.000   10.286    0.000    0.000    0.000   11.143 
#
# Total GULP energy -156266.372316 kJ/mol
# GULP energy per Si atom -5580.941868 kJ/mol
# Density = 2.425673 g / cm^3
# Si number density = 24.312069 Si / 1000 Ang^3
#
#
#
# Elastic Constant Matrix: (Units=GPa)
#
#
# Indices 1 2 3 4 5 6 
#
# 1 309.3716 39.5493 55.0452 0.0000 0.0000 0.0000
# 2 39.5493 77.6584 18.0517 0.0000 0.0000 0.0000
# 3 55.0452 18.0517 117.0473 0.0000 0.0000 0.0000
# 4 0.0000 0.0000 0.0000 9.4731 0.0000 0.0000
# 5 0.0000 0.0000 0.0000 0.0000 36.4908 0.0000
# 6 0.0000 0.0000 0.0000 0.0000 0.0000 42.7269
#
#
#
# Elastic Compliance Matrix: (Units=1/GPa)
#
#
# Indices 1 2 3 4 5 6 
#
# 1 0.003695 -0.001533 -0.001501 0.000000 0.000000 0.000000
# 2 -0.001533 0.013992 -0.001437 0.000000 0.000000 0.000000
# 3 -0.001501 -0.001437 0.009471 0.000000 0.000000 0.000000
# 4 0.000000 0.000000 0.000000 0.105562 0.000000 0.000000
# 5 0.000000 0.000000 0.000000 0.000000 0.027404 0.000000
# 6 0.000000 0.000000 0.000000 0.000000 0.000000 0.023404
#
#
# Mechanical properties :
#
#
# Convention : Reuss Voigt Hill
#
# Bulk Modulus (GPa) = 54.89803 81.04106 67.96955
# Shear Modulus (GPa) = 25.18343 43.83358 34.50850
#
# Velocity S-wave (km/s) = 3.22194 4.25073 3.77158
# Velocity P-wave (km/s) = 6.03910 7.58272 6.85450
#
# Compressibility (1/GPa) = 0.01821559
#
# Stress axis : x y z
#
# Youngs Moduli (GPa) = 270.60027 71.47129 105.58219
#
# Poissons Ratio (x) = 0.10956 0.15853
# Poissons Ratio (y) = 0.41483 0.15171
# Poissons Ratio (z) = 0.40630 0.10270
#
# Static dielectric constant tensor:
#      x y z
#    x 2.046870 0.000000 0.000000 
#    y 0.000000 1.982280 0.000000 
#    z 0.000000 0.000000 1.892380 
# 
# From -- ./inp_files/69330.got.cif
#   From: 2010.05.17/outbox.cif.g08.bks.cpg/sg74_35_cif.got.tgz:69330.got - 2010.06.03 17:57:02.
