data_PCOD9535377
_publ_section_title
;
Structure prediction by ZEFSAII (Michael W. Deem and Ramdas Pophale) SiO2 
 PCOD9535377
Probable space group: I M M A
;
_chemical_formula_sum "Si O2"
_cell_formula_units_Z 80
_cell_length_a 28.238870
_cell_length_b 8.920049
_cell_length_c 18.379979
_cell_angle_alpha 90.000000
_cell_angle_beta 90.000000
_cell_angle_gamma 90.000000
_cell_volume 4629.771584
_symmetry_space_group_name_H-M "I M M A"
_symmetry_group_IT_number 74
_symmetry_cell_setting 'orthorhombic'
loop_
_space_group_symop_operation_xyz
x,y,z
-x,1/2-y,z
x,-y,-z
-x,1/2+y,-z
-x,-y,-z
x,1/2+y,-z
-x,y,z
x,1/2-y,z
1/2+x,1/2+y,1/2+z
1/2-x,-y,1/2+z
1/2+x,1/2-y,1/2-z
1/2-x,y,1/2-z
1/2-x,1/2-y,1/2-z
1/2+x,y,1/2-z
1/2-x,1/2+y,1/2+z
1/2+x,-y,1/2+z
loop_
_atom_site_type_symbol
_atom_site_label
_atom_site_fract_x
_atom_site_fract_y
_atom_site_fract_z
Si Si1 0.412992 0.071313 0.926252
Si Si2 0.288537 0.568900 0.577619
Si Si3 0.552523 0.569471 0.233350
Si Si4 0.682971 0.069989 0.126852
Si Si5 0.852369 0.929843 0.786929
O O1 0.413387 0.250000 0.932602
O O2 0.439761 0.028910 0.851763
O O3 0.359427 0.012757 0.914348
O O4 0.432439 0.000000 0.000000
O O5 0.300893 0.500000 0.500000
O O6 0.290007 0.750000 0.573830
O O7 0.234684 0.526761 0.598777
O O8 0.323660 0.520380 0.642170
O O9 0.500000 0.522237 0.256679
O O10 0.555373 0.750000 0.237579
O O11 0.595867 0.500202 0.277645
O O12 0.677368 0.250000 0.117849
O O13 0.676345 0.035770 0.212607
O O14 0.856886 0.750000 0.789936
#
# Coordination Sequence:
#
# PCOD9535377 Si02
#       5
#    16  16  16  16  16
#     4  10  19  30  45  68  99 131 162 196 232 274
#     4  10  20  32  48  72 101 130 159 193 234 280
#     4   9  19  35  52  70  93 122 157 199 246 289
#     4   9  17  31  50  70  96 131 165 194 228 273
#     4   9  18  33  52  73  96 124 160 199 236 278
#
# _framework density 17.279471000000001
#
# number of rings (size 3 to 8) (size 9 to 14) (size 15 to 20)
#    0.000    2.600    0.000    1.800    0.000    7.200 
#    0.000    0.000    0.000    6.600    0.000    0.000 
#    0.000    0.000    0.000    0.000    0.000    0.000 
#
# Total GULP energy -223163.992677 kJ/mol
# GULP energy per Si atom -5579.099817 kJ/mol
# Density = 1.724014 g / cm^3
# Si number density = 17.279471 Si / 1000 Ang^3
#
#
#
# Elastic Constant Matrix: (Units=GPa)
#
#
# Indices 1 2 3 4 5 6 
#
# 1 66.7639 11.3442 22.3301 0.0000 0.0000 0.0000
# 2 11.3442 8.6302 13.9105 0.0000 0.0000 0.0000
# 3 22.3301 13.9105 69.6072 0.0000 0.0000 0.0000
# 4 0.0000 0.0000 0.0000 28.6786 0.0000 0.0000
# 5 0.0000 0.0000 0.0000 0.0000 2.8638 0.0000
# 6 0.0000 0.0000 0.0000 0.0000 0.0000 17.8360
#
#
#
# Elastic Compliance Matrix: (Units=1/GPa)
#
#
# Indices 1 2 3 4 5 6 
#
# 1 0.019415 -0.022838 -0.001664 0.000000 0.000000 0.000000
# 2 -0.022838 0.197798 -0.032202 0.000000 0.000000 0.000000
# 3 -0.001664 -0.032202 0.021336 0.000000 0.000000 0.000000
# 4 0.000000 0.000000 0.000000 0.034869 0.000000 0.000000
# 5 0.000000 0.000000 0.000000 0.000000 0.349186 0.000000
# 6 0.000000 0.000000 0.000000 0.000000 0.000000 0.056067
#
#
# Mechanical properties :
#
#
# Convention : Reuss Voigt Hill
#
# Bulk Modulus (GPa) = 7.99108 26.68564 17.33836
# Shear Modulus (GPa) = 5.99669 16.37011 11.18340
#
# Velocity S-wave (km/s) = 1.86493 3.08128 2.54679
# Velocity P-wave (km/s) = 3.04498 5.30435 4.32482
#
# Compressibility (1/GPa) = 0.12513947
#
# Stress axis : x y z
#
# Youngs Moduli (GPa) = 51.50549 5.05567 46.87004
#
# Poissons Ratio (x) = 0.11546 0.07801
# Poissons Ratio (y) = 1.17630 1.50930
# Poissons Ratio (z) = 0.08573 0.16280
#
# Static dielectric constant tensor:
#      x y z
#    x 1.574040 0.000000 0.000000 
#    y 0.000000 1.579940 0.000000 
#    z 0.000000 0.000000 1.583990 
# 
# From -- ./inp_files/39690.got.cif
#   From: 2010.05.17/outbox.cif.g08.bks.cpg/sg74_20_cif.got.tgz:39690.got - 2010.06.03 17:57:02.
