data_PCOD9535452
_publ_section_title
;
Structure prediction by ZEFSAII (Michael W. Deem and Ramdas Pophale) SiO2 
 PCOD9535452
Probable space group: I M M A
;
_chemical_formula_sum "Si O2"
_cell_formula_units_Z 72
_cell_length_a 13.247113
_cell_length_b 26.172330
_cell_length_c 12.267985
_cell_angle_alpha 90.000000
_cell_angle_beta 90.000000
_cell_angle_gamma 90.000000
_cell_volume 4253.406249
_symmetry_space_group_name_H-M "I M M A"
_symmetry_group_IT_number 74
_symmetry_cell_setting 'orthorhombic'
loop_
_space_group_symop_operation_xyz
x,y,z
-x,1/2-y,z
x,-y,-z
-x,1/2+y,-z
-x,-y,-z
x,1/2+y,-z
-x,y,z
x,1/2-y,z
1/2+x,1/2+y,1/2+z
1/2-x,-y,1/2+z
1/2+x,1/2-y,1/2-z
1/2-x,y,1/2-z
1/2-x,1/2-y,1/2-z
1/2+x,y,1/2-z
1/2-x,1/2+y,1/2+z
1/2+x,-y,1/2+z
loop_
_atom_site_type_symbol
_atom_site_label
_atom_site_fract_x
_atom_site_fract_y
_atom_site_fract_z
Si Si1 0.000000 0.452910 0.911885
Si Si2 0.500000 0.090979 0.285841
Si Si3 0.772863 0.691460 0.619997
Si Si4 0.500000 0.994144 0.166390
Si Si5 0.328820 0.500000 0.000000
Si Si6 0.826342 0.410507 0.042630
Si Si7 0.500000 0.692654 0.833292
O O1 0.000000 0.472553 0.788627
O O2 0.000000 0.500000 0.000000
O O3 0.900451 0.420333 0.940477
O O4 0.399860 0.079822 0.354519
O O5 0.500000 0.150259 0.258942
O O6 0.500000 0.055782 0.180053
O O7 0.743424 0.750000 0.592613
O O8 0.750000 0.684830 0.750000
O O9 0.717592 0.646207 0.556156
O O10 0.893995 0.686645 0.604649
O O11 0.598486 0.980903 0.096866
O O12 0.259459 0.453365 0.039332
O O13 0.500000 0.750000 0.787227
#
# Coordination Sequence:
#
# PCOD9535452 Si02
#       7
#     8   8  16   8   8  16   8
#     4  11  21  39  55  80 107 151 195 234 282 336
#     4  11  19  32  54  74 111 152 183 226 271 338
#     4  10  20  33  53  83 117 153 185 227 285 341
#     4  11  23  38  52  78 115 141 195 239 277 346
#     4  11  24  35  54  82 108 155 188 233 296 336
#     4  11  21  34  54  83 110 152 190 224 283 345
#     4  10  19  30  47  79 116 156 186 220 280 345
#
# _framework density 16.927610999999999
#
# number of rings (size 3 to 8) (size 9 to 14) (size 15 to 20)
#    0.000    1.333    5.556    1.333    0.000    3.556 
#    0.000    1.667    0.000    0.000    0.000    4.667 
#    0.000    0.000    0.000    0.000    0.000    0.000 
#
# Total GULP energy -200783.712090 kJ/mol
# GULP energy per Si atom -5577.325336 kJ/mol
# Density = 1.688908 g / cm^3
# Si number density = 16.927611 Si / 1000 Ang^3
#
#
#
# Elastic Constant Matrix: (Units=GPa)
#
#
# Indices 1 2 3 4 5 6 
#
# 1 124.1558 68.5136 36.6196 0.0000 0.0000 0.0000
# 2 68.5136 132.5129 45.4885 0.0000 0.0000 0.0000
# 3 36.6196 45.4885 69.9142 0.0000 0.0000 0.0000
# 4 0.0000 0.0000 0.0000 25.7782 0.0000 0.0000
# 5 0.0000 0.0000 0.0000 0.0000 14.7010 0.0000
# 6 0.0000 0.0000 0.0000 0.0000 0.0000 28.7580
#
#
#
# Elastic Compliance Matrix: (Units=1/GPa)
#
#
# Indices 1 2 3 4 5 6 
#
# 1 0.011686 -0.005074 -0.002819 0.000000 0.000000 0.000000
# 2 -0.005074 0.011920 -0.005098 0.000000 0.000000 0.000000
# 3 -0.002819 -0.005098 0.019097 0.000000 0.000000 0.000000
# 4 0.000000 0.000000 0.000000 0.038792 0.000000 0.000000
# 5 0.000000 0.000000 0.000000 0.000000 0.068023 0.000000
# 6 0.000000 0.000000 0.000000 0.000000 0.000000 0.034773
#
#
# Mechanical properties :
#
#
# Convention : Reuss Voigt Hill
#
# Bulk Modulus (GPa) = 59.80879 69.75846 64.78363
# Shear Modulus (GPa) = 23.16452 25.57817 24.37135
#
# Velocity S-wave (km/s) = 3.70326 3.89142 3.79851
# Velocity P-wave (km/s) = 7.32764 7.84157 7.58896
#
# Compressibility (1/GPa) = 0.01671995
#
# Stress axis : x y z
#
# Youngs Moduli (GPa) = 85.57126 83.89310 52.36489
#
# Poissons Ratio (x) = 0.42570 0.14764
# Poissons Ratio (y) = 0.43421 0.26694
# Poissons Ratio (z) = 0.24127 0.42766
#
# Static dielectric constant tensor:
#      x y z
#    x 1.614670 0.000000 0.000000 
#    y 0.000000 1.588190 0.000000 
#    z 0.000000 0.000000 1.557730 
# 
# From -- ./inp_files/18854.got.cif
#   From: 2010.05.17/outbox.cif.g08.bks.cpg/sg74_10_cif.got.tgz:18854.got - 2010.06.03 17:57:02.
