data_PCOD9535773
_publ_section_title
;
Structure prediction by ZEFSAII (Michael W. Deem and Ramdas Pophale) SiO2 
 PCOD9535773
Probable space group: I M M A
;
_chemical_formula_sum "Si O2"
_cell_formula_units_Z 96
_cell_length_a 16.872258
_cell_length_b 18.491563
_cell_length_c 20.912112
_cell_angle_alpha 90.000000
_cell_angle_beta 90.000000
_cell_angle_gamma 90.000000
_cell_volume 6524.462291
_symmetry_space_group_name_H-M "I M M A"
_symmetry_group_IT_number 74
_symmetry_cell_setting 'orthorhombic'
loop_
_space_group_symop_operation_xyz
x,y,z
-x,1/2-y,z
x,-y,-z
-x,1/2+y,-z
-x,-y,-z
x,1/2+y,-z
-x,y,z
x,1/2-y,z
1/2+x,1/2+y,1/2+z
1/2-x,-y,1/2+z
1/2+x,1/2-y,1/2-z
1/2-x,y,1/2-z
1/2-x,1/2-y,1/2-z
1/2+x,y,1/2-z
1/2-x,1/2+y,1/2+z
1/2+x,-y,1/2+z
loop_
_atom_site_type_symbol
_atom_site_label
_atom_site_fract_x
_atom_site_fract_y
_atom_site_fract_z
Si Si1 0.765010 0.903918 0.892614
Si Si2 0.094999 0.405540 0.600484
Si Si3 0.806317 0.000000 0.500000
Si Si4 0.814646 0.750000 0.592681
Si Si5 0.406592 0.896208 0.697965
Si Si6 0.094148 0.750000 0.457461
Si Si7 0.095155 0.750000 0.726707
Si Si8 0.325089 0.495360 0.791159
O O1 0.736713 0.822449 0.902886
O O2 0.853482 0.904541 0.865033
O O3 0.711180 0.943780 0.838807
O O4 0.747978 0.948871 0.956422
O O5 0.136930 0.452784 0.545412
O O6 0.111717 0.322222 0.582931
O O7 0.132533 0.434651 0.666385
O O8 0.000000 0.416340 0.600686
O O9 0.861738 0.750000 0.525623
O O10 0.870117 0.750000 0.655549
O O11 0.500000 0.892840 0.685681
O O12 0.381450 0.822123 0.734397
O O13 0.385057 0.962775 0.744525
O O14 0.000000 0.750000 0.470854
O O15 0.000000 0.750000 0.722172
O O16 0.250000 0.468064 0.750000
#
# Coordination Sequence:
#
# PCOD9535773 Si02
#       8
#    16  16   8   8  16   8   8  16
#     4  10  20  30  50  67  94 127 158 194 232 281
#     4  10  19  32  49  70  96 126 155 195 235 275
#     4  10  19  34  45  70  94 124 164 194 233 278
#     4  12  18  32  46  68  99 135 162 179 236 277
#     4  10  19  32  46  70  97 124 158 195 233 275
#     4  10  21  33  46  70 102 127 159 192 228 277
#     4  10  20  29  44  70 103 130 158 191 225 276
#     4   9  18  32  49  71  95 124 154 192 235 281
#
# _framework density 14.713856
#
# number of rings (size 3 to 8) (size 9 to 14) (size 15 to 20)
#    0.000    2.000    3.333    1.500    0.000    0.667 
#    0.000    0.833    0.000    0.000    0.000    0.000 
#    0.000    0.000    0.000    0.000    0.000    0.000 
#
# Total GULP energy -267628.204874 kJ/mol
# GULP energy per Si atom -5575.587602 kJ/mol
# Density = 1.468037 g / cm^3
# Si number density = 14.713856 Si / 1000 Ang^3
#
#
#
# Elastic Constant Matrix: (Units=GPa)
#
#
# Indices 1 2 3 4 5 6 
#
# 1 83.4636 57.1155 60.5849 0.0000 0.0000 0.0000
# 2 57.1155 102.5420 64.1392 0.0000 0.0000 0.0000
# 3 60.5849 64.1392 100.8441 0.0000 0.0000 0.0000
# 4 0.0000 0.0000 0.0000 23.9657 0.0000 0.0000
# 5 0.0000 0.0000 0.0000 0.0000 28.7313 0.0000
# 6 0.0000 0.0000 0.0000 0.0000 0.0000 17.6165
#
#
#
# Elastic Compliance Matrix: (Units=1/GPa)
#
#
# Indices 1 2 3 4 5 6 
#
# 1 0.024112 -0.007256 -0.009871 0.000000 0.000000 0.000000
# 2 -0.007256 0.018378 -0.007330 0.000000 0.000000 0.000000
# 3 -0.009871 -0.007330 0.020508 0.000000 0.000000 0.000000
# 4 0.000000 0.000000 0.000000 0.041726 0.000000 0.000000
# 5 0.000000 0.000000 0.000000 0.000000 0.034805 0.000000
# 6 0.000000 0.000000 0.000000 0.000000 0.000000 0.056765
#
#
# Mechanical properties :
#
#
# Convention : Reuss Voigt Hill
#
# Bulk Modulus (GPa) = 70.99637 72.28099 71.63868
# Shear Modulus (GPa) = 20.00773 21.06338 20.53555
#
# Velocity S-wave (km/s) = 3.69153 3.78767 3.73991
# Velocity P-wave (km/s) = 8.15635 8.26799 8.21236
#
# Compressibility (1/GPa) = 0.01408523
#
# Stress axis : x y z
#
# Youngs Moduli (GPa) = 41.47356 54.41150 48.76056
#
# Poissons Ratio (x) = 0.39481 0.48130
# Poissons Ratio (y) = 0.30094 0.35741
# Poissons Ratio (z) = 0.40938 0.39883
#
# Static dielectric constant tensor:
#      x y z
#    x 1.470010 0.000000 0.000000 
#    y 0.000000 1.477430 0.000000 
#    z 0.000000 0.000000 1.475000 
# 
# From -- ./inp_files/44176.got.cif
#   From: 2010.05.17/outbox.cif.g08.bks.cpg/sg74_23_cif.got.tgz:44176.got - 2010.06.03 17:57:02.
