data_PCOD9535607
_publ_section_title
;
Structure prediction by ZEFSAII (Michael W. Deem and Ramdas Pophale) SiO2 
 PCOD9535607
Probable space group: I M M A
;
_chemical_formula_sum "Si O2"
_cell_formula_units_Z 96
_cell_length_a 14.811944
_cell_length_b 9.410743
_cell_length_c 31.912540
_cell_angle_alpha 90.000000
_cell_angle_beta 90.000000
_cell_angle_gamma 90.000000
_cell_volume 4448.333574
_symmetry_space_group_name_H-M "I M M A"
_symmetry_group_IT_number 74
_symmetry_cell_setting 'orthorhombic'
loop_
_space_group_symop_operation_xyz
x,y,z
-x,1/2-y,z
x,-y,-z
-x,1/2+y,-z
-x,-y,-z
x,1/2+y,-z
-x,y,z
x,1/2-y,z
1/2+x,1/2+y,1/2+z
1/2-x,-y,1/2+z
1/2+x,1/2-y,1/2-z
1/2-x,y,1/2-z
1/2-x,1/2-y,1/2-z
1/2+x,y,1/2-z
1/2-x,1/2+y,1/2+z
1/2+x,-y,1/2+z
loop_
_atom_site_type_symbol
_atom_site_label
_atom_site_fract_x
_atom_site_fract_y
_atom_site_fract_z
Si Si1 0.640013 0.413000 0.458924
Si Si2 0.891664 0.910108 0.706012
Si Si3 0.358185 0.588117 0.378719
Si Si4 0.139304 0.585905 0.541322
Si Si5 0.607911 0.588589 0.284718
Si Si6 0.642195 0.911941 0.122339
O O1 0.612303 0.500000 0.500000
O O2 0.611023 0.250000 0.460889
O O3 0.609324 0.490317 0.416501
O O4 0.750396 0.412786 0.458571
O O5 0.855339 0.750000 0.701073
O O6 0.000000 0.899070 0.710056
O O7 0.857500 0.988566 0.747782
O O8 0.874846 0.006535 0.665513
O O9 0.393406 0.750000 0.381721
O O10 0.376744 0.534320 0.331821
O O11 0.250201 0.596238 0.382776
O O12 0.111529 0.500000 0.500000
O O13 0.110402 0.750000 0.540739
O O14 0.108720 0.503386 0.582921
O O15 0.500000 0.598784 0.279261
O O16 0.645185 0.750000 0.282126
O O17 0.607882 0.750000 0.123078
#
# Coordination Sequence:
#
# PCOD9535607 Si02
#       6
#    16  16  16  16  16  16
#     4   9  16  26  43  67  96 129 161 195 236 282
#     4  10  21  36  52  70  94 125 161 200 240 285
#     4   9  18  31  48  73 101 126 157 199 242 282
#     4   9  16  27  44  68  98 129 161 195 234 281
#     4   9  18  34  54  72  93 126 164 198 237 288
#     4  10  19  31  49  73 100 128 159 197 240 284
#
# _framework density 21.581115
#
# number of rings (size 3 to 8) (size 9 to 14) (size 15 to 20)
#    0.000    2.667    0.000    2.000    0.000    7.000 
#    0.000    3.333    0.000    1.000    0.000    0.000 
#    0.000    0.000    0.000    0.000    0.000    0.000 
#
# Total GULP energy -268135.797816 kJ/mol
# GULP energy per Si atom -5586.162454 kJ/mol
# Density = 2.153200 g / cm^3
# Si number density = 21.581115 Si / 1000 Ang^3
#
#
#
# Elastic Constant Matrix: (Units=GPa)
#
#
# Indices 1 2 3 4 5 6 
#
# 1 58.9245 5.4353 -1.4577 0.0000 0.0000 0.0000
# 2 5.4353 211.5016 158.9319 0.0000 0.0000 0.0000
# 3 -1.4577 158.9319 247.2653 0.0000 0.0000 0.0000
# 4 0.0000 0.0000 0.0000 41.3076 0.0000 0.0000
# 5 0.0000 0.0000 0.0000 0.0000 38.4716 0.0000
# 6 0.0000 0.0000 0.0000 0.0000 0.0000 7.0154
#
#
#
# Elastic Compliance Matrix: (Units=1/GPa)
#
#
# Indices 1 2 3 4 5 6 
#
# 1 0.017081 -0.000995 0.000740 0.000000 0.000000 0.000000
# 2 -0.000995 0.009203 -0.005921 0.000000 0.000000 0.000000
# 3 0.000740 -0.005921 0.007855 0.000000 0.000000 0.000000
# 4 0.000000 0.000000 0.000000 0.024209 0.000000 0.000000
# 5 0.000000 0.000000 0.000000 0.000000 0.025993 0.000000
# 6 0.000000 0.000000 0.000000 0.000000 0.000000 0.142544
#
#
# Mechanical properties :
#
#
# Convention : Reuss Voigt Hill
#
# Bulk Modulus (GPa) = 45.90026 93.72338 69.81182
# Shear Modulus (GPa) = 20.28406 41.01105 30.64755
#
# Velocity S-wave (km/s) = 3.06910 4.36400 3.77252
# Velocity P-wave (km/s) = 5.82014 8.30153 7.16901
#
# Compressibility (1/GPa) = 0.02178637
#
# Stress axis : x y z
#
# Youngs Moduli (GPa) = 58.54456 108.65762 127.31423
#
# Poissons Ratio (x) = 0.10816 -0.09428
# Poissons Ratio (y) = 0.05828 0.75387
# Poissons Ratio (z) = -0.04335 0.64340
#
# Static dielectric constant tensor:
#      x y z
#    x 1.826090 0.000000 0.000000 
#    y 0.000000 1.769540 0.000000 
#    z 0.000000 0.000000 1.736520 
# 
# From -- ./inp_files/61912.got.cif
#   From: 2010.05.17/outbox.cif.g08.bks.cpg/sg74_31_cif.got.tgz:61912.got - 2010.06.03 17:57:02.
