data_PCOD9535797
_publ_section_title
;
Structure prediction by ZEFSAII (Michael W. Deem and Ramdas Pophale) SiO2 
 PCOD9535797
Probable space group: I M M A
;
_chemical_formula_sum "Si O2"
_cell_formula_units_Z 116
_cell_length_a 7.618333
_cell_length_b 28.273578
_cell_length_c 28.275776
_cell_angle_alpha 90.000000
_cell_angle_beta 90.000000
_cell_angle_gamma 90.000000
_cell_volume 6090.532374
_symmetry_space_group_name_H-M "I M M A"
_symmetry_group_IT_number 74
_symmetry_cell_setting 'orthorhombic'
loop_
_space_group_symop_operation_xyz
x,y,z
-x,1/2-y,z
x,-y,-z
-x,1/2+y,-z
-x,-y,-z
x,1/2+y,-z
-x,y,z
x,1/2-y,z
1/2+x,1/2+y,1/2+z
1/2-x,-y,1/2+z
1/2+x,1/2-y,1/2-z
1/2-x,y,1/2-z
1/2-x,1/2-y,1/2-z
1/2+x,y,1/2-z
1/2-x,1/2+y,1/2+z
1/2+x,-y,1/2+z
loop_
_atom_site_type_symbol
_atom_site_label
_atom_site_fract_x
_atom_site_fract_y
_atom_site_fract_z
Si Si1 0.713161 0.044956 0.936887
Si Si2 0.789015 0.803565 0.803889
Si Si3 0.210535 0.975654 0.803564
Si Si4 0.709712 0.610680 0.633733
Si Si5 0.703491 0.577460 0.334457
Si Si6 0.710235 0.561498 0.958100
Si Si7 0.800169 0.680630 0.304973
Si Si8 0.500000 0.750000 0.337842
O O1 0.500000 0.045853 0.934321
O O2 0.783521 0.071109 0.890986
O O3 0.771061 0.989785 0.938493
O O4 0.768728 0.066133 0.987604
O O5 0.720802 0.750000 0.810121
O O6 0.750000 0.818657 0.750000
O O7 0.722197 0.841830 0.841495
O O8 0.000000 0.801354 0.808259
O O9 0.250000 0.961951 0.750000
O O10 0.279063 0.028339 0.813881
O O11 0.000000 0.978038 0.810047
O O12 0.279960 0.935552 0.838798
O O13 0.500000 0.611058 0.640554
O O14 0.741978 0.602216 0.578523
O O15 0.500000 0.580920 0.320198
O O16 0.791698 0.625003 0.316627
O O17 0.500000 0.558455 0.959863
O O18 0.750000 0.688269 0.250000
O O19 0.655203 0.708934 0.334343
O O20 0.000000 0.696399 0.312397
#
# Coordination Sequence:
#
# PCOD9535797 Si02
#       8
#    16  16  16  16  16  16  16   4
#     4   9  18  33  52  75 107 140 177 225 277 330
#     4   9  18  32  50  72 101 135 175 225 268 312
#     4  10  21  32  46  68 105 145 175 213 256 322
#     4  10  19  32  48  73 103 135 178 219 269 326
#     4  11  21  36  52  80 113 146 184 225 276 338
#     4   9  18  32  51  77 104 137 180 224 271 330
#     4  12  24  39  62  87 116 151 188 240 287 335
#     4  12  24  44  62  90 116 144 198 238 288 338
#
# _framework density 19.045953999999998
#
# number of rings (size 3 to 8) (size 9 to 14) (size 15 to 20)
#    0.000    1.931    2.759    2.483    0.000    3.862 
#    0.000    1.379    0.000    0.000    1.793    0.000 
#    0.000    0.000    0.000    0.000    0.000    0.000 
#
# Total GULP energy -323299.527445 kJ/mol
# GULP energy per Si atom -5574.129784 kJ/mol
# Density = 1.900260 g / cm^3
# Si number density = 19.045954 Si / 1000 Ang^3
#
#
#
# Elastic Constant Matrix: (Units=GPa)
#
#
# Indices 1 2 3 4 5 6 
#
# 1 81.7564 12.1585 -10.6450 0.0000 0.0000 0.0000
# 2 12.1585 63.0439 16.1130 0.0000 0.0000 0.0000
# 3 -10.6450 16.1130 69.2884 0.0000 0.0000 0.0000
# 4 0.0000 0.0000 0.0000 13.2868 0.0000 0.0000
# 5 0.0000 0.0000 0.0000 0.0000 22.5781 0.0000
# 6 0.0000 0.0000 0.0000 0.0000 0.0000 -16.6738
#
#
#
# Elastic Compliance Matrix: (Units=1/GPa)
#
#
# Indices 1 2 3 4 5 6 
#
# 1 0.013070 -0.003226 0.002758 0.000000 0.000000 0.000000
# 2 -0.003226 0.017660 -0.004602 0.000000 0.000000 0.000000
# 3 0.002758 -0.004602 0.015926 0.000000 0.000000 0.000000
# 4 0.000000 0.000000 0.000000 0.075263 0.000000 0.000000
# 5 0.000000 0.000000 0.000000 0.000000 0.044291 0.000000
# 6 0.000000 0.000000 0.000000 0.000000 0.000000 -0.059974
#
#
# Mechanical properties :
#
#
# Convention : Reuss Voigt Hill
#
# Bulk Modulus (GPa) = 27.38434 27.70461 27.54448
# Shear Modulus (GPa) = 38.89572 16.93568 27.91570
#
# Velocity S-wave (km/s) = 4.52398 2.98518 3.83260
# Velocity P-wave (km/s) = 6.45738 5.14388 5.83769
#
# Compressibility (1/GPa) = 0.03651722
#
# Stress axis : x y z
#
# Youngs Moduli (GPa) = 76.50940 56.62389 62.78844
#
# Poissons Ratio (x) = 0.18265 -0.17318
# Poissons Ratio (y) = 0.24679 0.28898
# Poissons Ratio (z) = -0.21103 0.26061
#
# Static dielectric constant tensor:
#      x y z
#    x 1.697040 0.000000 0.000000 
#    y 0.000000 1.675490 0.000000 
#    z 0.000000 0.000000 1.656900 
# 
# From -- ./inp_files/65327.got.cif
#   From: 2010.05.17/outbox.cif.g08.bks.cpg/sg74_33_cif.got.tgz:65327.got - 2010.06.03 17:57:02.
