data_PCOD9535379
_publ_section_title
;
Structure prediction by ZEFSAII (Michael W. Deem and Ramdas Pophale) SiO2 
 PCOD9535379
Probable space group: I M M A
;
_chemical_formula_sum "Si O2"
_cell_formula_units_Z 112
_cell_length_a 17.536397
_cell_length_b 25.486218
_cell_length_c 9.523648
_cell_angle_alpha 90.000000
_cell_angle_beta 90.000000
_cell_angle_gamma 90.000000
_cell_volume 4256.465303
_symmetry_space_group_name_H-M "I M M A"
_symmetry_group_IT_number 74
_symmetry_cell_setting 'orthorhombic'
loop_
_space_group_symop_operation_xyz
x,y,z
-x,1/2-y,z
x,-y,-z
-x,1/2+y,-z
-x,-y,-z
x,1/2+y,-z
-x,y,z
x,1/2-y,z
1/2+x,1/2+y,1/2+z
1/2-x,-y,1/2+z
1/2+x,1/2-y,1/2-z
1/2-x,y,1/2-z
1/2-x,1/2-y,1/2-z
1/2+x,y,1/2-z
1/2-x,1/2+y,1/2+z
1/2+x,-y,1/2+z
loop_
_atom_site_type_symbol
_atom_site_label
_atom_site_fract_x
_atom_site_fract_y
_atom_site_fract_z
Si Si1 0.416232 0.188280 0.835703
Si Si2 0.296374 0.607745 0.102170
Si Si3 0.853076 0.307838 0.960575
Si Si4 0.589311 0.532566 0.225967
Si Si5 0.910318 0.085109 0.293516
Si Si6 0.669746 0.924378 0.496949
Si Si7 0.841307 0.307890 0.277387
O O1 0.500000 0.168295 0.883485
O O2 0.416436 0.250000 0.864244
O O3 0.334507 0.166010 0.885608
O O4 0.412074 0.183259 0.664509
O O5 0.250000 0.594806 0.250000
O O6 0.378139 0.578157 0.130528
O O7 0.258455 0.565730 0.988249
O O8 0.817655 0.250000 0.937077
O O9 0.805367 0.362094 0.956370
O O10 0.879723 0.306646 0.121945
O O11 0.500000 0.538850 0.249116
O O12 0.601635 0.474975 0.163758
O O13 0.628973 0.542164 0.378551
O O14 0.868213 0.137936 0.346702
O O15 0.000000 0.095814 0.300619
O O16 0.881266 0.080750 0.131527
O O17 0.855728 0.250000 0.339768
O O18 0.750000 0.311514 0.250000
#
# Coordination Sequence:
#
# PCOD9535379 Si02
#       7
#    16  16  16  16  16  16  16
#     4  10  19  30  47  72 106 145 178 212 254 302
#     4  10  19  30  45  71 107 146 178 209 257 305
#     4   9  17  29  47  70  99 134 170 207 253 302
#     4  10  19  32  49  69 101 141 176 212 255 304
#     4  10  21  35  55  81 107 136 170 214 267 315
#     4  10  19  31  47  75 108 143 175 210 262 311
#     4   9  19  35  53  76 107 136 165 206 262 321
#
# _framework density 26.312913999999999
#
# number of rings (size 3 to 8) (size 9 to 14) (size 15 to 20)
#    0.000    2.286    2.857    1.286    0.000    6.286 
#    0.000    2.857    0.000    0.000    0.000    8.000 
#    0.000   72.000    0.000    0.000    0.000    0.000 
#
# Total GULP energy -311861.970674 kJ/mol
# GULP energy per Si atom -5568.963762 kJ/mol
# Density = 2.625302 g / cm^3
# Si number density = 26.312914 Si / 1000 Ang^3
#
#
#
# Elastic Constant Matrix: (Units=GPa)
#
#
# Indices 1 2 3 4 5 6 
#
# 1 111.3872 35.6844 -3.7534 0.0000 0.0000 0.0000
# 2 35.6844 132.0597 -17.5851 0.0000 0.0000 0.0000
# 3 -3.7534 -17.5851 64.7280 0.0000 0.0000 0.0000
# 4 0.0000 0.0000 0.0000 19.0947 0.0000 0.0000
# 5 0.0000 0.0000 0.0000 0.0000 17.2561 0.0000
# 6 0.0000 0.0000 0.0000 0.0000 0.0000 56.4382
#
#
#
# Elastic Compliance Matrix: (Units=1/GPa)
#
#
# Indices 1 2 3 4 5 6 
#
# 1 0.009830 -0.002677 -0.000157 0.000000 0.000000 0.000000
# 2 -0.002677 0.008586 0.002177 0.000000 0.000000 0.000000
# 3 -0.000157 0.002177 0.016032 0.000000 0.000000 0.000000
# 4 0.000000 0.000000 0.000000 0.052371 0.000000 0.000000
# 5 0.000000 0.000000 0.000000 0.000000 0.057950 0.000000
# 6 0.000000 0.000000 0.000000 0.000000 0.000000 0.017718
#
#
# Mechanical properties :
#
#
# Convention : Reuss Voigt Hill
#
# Bulk Modulus (GPa) = 30.18137 37.42962 33.80549
# Shear Modulus (GPa) = 28.59665 38.14640 33.37152
#
# Velocity S-wave (km/s) = 3.30023 3.81165 3.56512
# Velocity P-wave (km/s) = 5.10069 5.79890 5.46097
#
# Compressibility (1/GPa) = 0.03313303
#
# Stress axis : x y z
#
# Youngs Moduli (GPa) = 101.72878 116.47314 62.37653
#
# Poissons Ratio (x) = 0.31182 0.00981
# Poissons Ratio (y) = 0.27234 -0.13581
# Poissons Ratio (z) = 0.01600 -0.25360
#
# Static dielectric constant tensor:
#      x y z
#    x 2.350220 0.000000 0.000000 
#    y 0.000000 2.274340 0.000000 
#    z 0.000000 0.000000 2.263160 
# 
# From -- ./inp_files/32873.got.cif
#   From: 2010.05.17/outbox.cif.g08.bks.cpg/sg74_17_cif.got.tgz:32873.got - 2010.06.03 17:57:02.
