data_PCOD9535624
_publ_section_title
;
Structure prediction by ZEFSAII (Michael W. Deem and Ramdas Pophale) SiO2 
 PCOD9535624
Probable space group: I M M A
;
_chemical_formula_sum "Si O2"
_cell_formula_units_Z 104
_cell_length_a 8.899647
_cell_length_b 22.784725
_cell_length_c 30.608379
_cell_angle_alpha 90.000000
_cell_angle_beta 90.000000
_cell_angle_gamma 90.000000
_cell_volume 6206.644951
_symmetry_space_group_name_H-M "I M M A"
_symmetry_group_IT_number 74
_symmetry_cell_setting 'orthorhombic'
loop_
_space_group_symop_operation_xyz
x,y,z
-x,1/2-y,z
x,-y,-z
-x,1/2+y,-z
-x,-y,-z
x,1/2+y,-z
-x,y,z
x,1/2-y,z
1/2+x,1/2+y,1/2+z
1/2-x,-y,1/2+z
1/2+x,1/2-y,1/2-z
1/2-x,y,1/2-z
1/2-x,1/2-y,1/2-z
1/2+x,y,1/2-z
1/2-x,1/2+y,1/2+z
1/2+x,-y,1/2+z
loop_
_atom_site_type_symbol
_atom_site_label
_atom_site_fract_x
_atom_site_fract_y
_atom_site_fract_z
Si Si1 0.679329 0.469427 0.796413
Si Si2 0.822320 0.179517 0.942306
Si Si3 0.680746 0.096084 0.296914
Si Si4 0.821479 0.855791 0.353202
Si Si5 0.326844 0.178693 0.033040
Si Si6 0.819452 0.818299 0.875966
Si Si7 0.179773 0.250000 0.798253
O O1 0.500000 0.477102 0.791289
O O2 0.750000 0.450596 0.750000
O O3 0.754616 0.531627 0.807498
O O4 0.706801 0.419182 0.831906
O O5 0.796885 0.250000 0.938328
O O6 0.736338 0.149282 0.902559
O O7 0.000000 0.169492 0.938897
O O8 0.762240 0.160467 0.989702
O O9 0.500000 0.093475 0.293491
O O10 0.750000 0.112830 0.250000
O O11 0.721970 0.141831 0.334776
O O12 0.736939 0.806713 0.324701
O O13 0.000000 0.844225 0.351446
O O14 0.500000 0.160540 0.030297
O O15 0.322144 0.250000 0.033315
O O16 0.253960 0.160416 0.078854
O O17 0.776934 0.750000 0.868871
O O18 0.000000 0.820200 0.880857
O O19 0.250000 0.250000 0.750000
O O20 0.000000 0.250000 0.795763
#
# Coordination Sequence:
#
# PCOD9535624 Si02
#       7
#    16  16  16  16  16  16   8
#     4  10  21  36  54  74  97 132 174 215 256 301
#     4  10  19  31  49  74 103 136 171 209 257 309
#     4  10  20  34  54  77 103 137 172 210 252 298
#     4  11  22  35  52  74 101 133 171 217 262 307
#     4   9  17  29  48  74 103 136 170 207 251 301
#     4   9  18  33  52  77 108 138 169 205 250 304
#     4  12  24  36  50  72 102 136 170 212 267 316
#
# _framework density 16.756235
#
# number of rings (size 3 to 8) (size 9 to 14) (size 15 to 20)
#    0.000    2.000    0.769    4.385    0.000    7.692 
#    0.000    0.000    0.000    0.923    0.000    6.462 
#    0.000    0.000    0.000    0.000    0.000    0.000 
#
# Total GULP energy -290232.584935 kJ/mol
# GULP energy per Si atom -5581.395864 kJ/mol
# Density = 1.671810 g / cm^3
# Si number density = 16.756235 Si / 1000 Ang^3
#
#
#
# Elastic Constant Matrix: (Units=GPa)
#
#
# Indices 1 2 3 4 5 6 
#
# 1 90.9068 48.2998 77.9363 0.0000 0.0000 0.0000
# 2 48.2998 57.1265 75.3461 0.0000 0.0000 0.0000
# 3 77.9363 75.3461 164.7477 0.0000 0.0000 0.0000
# 4 0.0000 0.0000 0.0000 9.0613 0.0000 0.0000
# 5 0.0000 0.0000 0.0000 0.0000 34.5661 0.0000
# 6 0.0000 0.0000 0.0000 0.0000 0.0000 18.8801
#
#
#
# Elastic Compliance Matrix: (Units=1/GPa)
#
#
# Indices 1 2 3 4 5 6 
#
# 1 0.021290 -0.011887 -0.004635 0.000000 0.000000 0.000000
# 2 -0.011887 0.050753 -0.017588 0.000000 0.000000 0.000000
# 3 -0.004635 -0.017588 0.016306 0.000000 0.000000 0.000000
# 4 0.000000 0.000000 0.000000 0.110359 0.000000 0.000000
# 5 0.000000 0.000000 0.000000 0.000000 0.028930 0.000000
# 6 0.000000 0.000000 0.000000 0.000000 0.000000 0.052966
#
#
# Mechanical properties :
#
#
# Convention : Reuss Voigt Hill
#
# Bulk Modulus (GPa) = 49.68015 79.54950 64.61483
# Shear Modulus (GPa) = 14.06337 19.91474 16.98906
#
# Velocity S-wave (km/s) = 2.90020 3.45120 3.18763
# Velocity P-wave (km/s) = 6.39750 7.96609 7.22449
#
# Compressibility (1/GPa) = 0.02012876
#
# Stress axis : x y z
#
# Youngs Moduli (GPa) = 46.97133 19.70330 61.32580
#
# Poissons Ratio (x) = 0.23421 0.28424
# Poissons Ratio (y) = 0.55834 1.07861
# Poissons Ratio (z) = 0.21771 0.34655
#
# Static dielectric constant tensor:
#      x y z
#    x 1.561530 0.000000 0.000000 
#    y 0.000000 1.546060 0.000000 
#    z 0.000000 0.000000 1.551360 
# 
# From -- ./inp_files/70548.got.cif
#   From: 2010.05.17/outbox.cif.g08.bks.cpg/sg74_36_cif.got.tgz:70548.got - 2010.06.03 17:57:02.
