data_PCOD9535141
_publ_section_title
;
Structure prediction by ZEFSAII (Michael W. Deem and Ramdas Pophale) SiO2 
 PCOD9535141
Probable space group: I M M A
;
_chemical_formula_sum "Si O2"
_cell_formula_units_Z 88
_cell_length_a 11.653786
_cell_length_b 16.487218
_cell_length_c 22.713207
_cell_angle_alpha 90.000000
_cell_angle_beta 90.000000
_cell_angle_gamma 90.000000
_cell_volume 4364.081757
_symmetry_space_group_name_H-M "I M M A"
_symmetry_group_IT_number 74
_symmetry_cell_setting 'orthorhombic'
loop_
_space_group_symop_operation_xyz
x,y,z
-x,1/2-y,z
x,-y,-z
-x,1/2+y,-z
-x,-y,-z
x,1/2+y,-z
-x,y,z
x,1/2-y,z
1/2+x,1/2+y,1/2+z
1/2-x,-y,1/2+z
1/2+x,1/2-y,1/2-z
1/2-x,y,1/2-z
1/2-x,1/2-y,1/2-z
1/2+x,y,1/2-z
1/2-x,1/2+y,1/2+z
1/2+x,-y,1/2+z
loop_
_atom_site_type_symbol
_atom_site_label
_atom_site_fract_x
_atom_site_fract_y
_atom_site_fract_z
Si Si1 0.364517 0.750000 0.208371
Si Si2 0.634931 0.844286 0.612584
Si Si3 0.000000 0.841756 0.702108
Si Si4 0.796842 0.546248 0.692130
Si Si5 0.370297 0.602230 0.116884
Si Si6 0.000000 0.155639 0.439450
Si Si7 0.268886 0.347859 0.999567
O O1 0.500000 0.750000 0.232331
O O2 0.250000 0.750000 0.250000
O O3 0.356472 0.672043 0.165643
O O4 0.500000 0.849435 0.623147
O O5 0.672825 0.750000 0.622058
O O6 0.704847 0.903954 0.654394
O O7 0.665250 0.863636 0.544375
O O8 0.113292 0.889602 0.718707
O O9 0.000000 0.750000 0.723328
O O10 0.000000 0.844046 0.630800
O O11 0.750000 0.501429 0.750000
O O12 0.857269 0.482958 0.649262
O O13 0.500000 0.610997 0.092305
O O14 0.279337 0.612829 0.064389
O O15 0.881987 0.122344 0.464933
O O16 0.000000 0.250000 0.457487
O O17 0.273556 0.250000 0.990998
#
# Coordination Sequence:
#
# PCOD9535141 Si02
#       7
#     8  16   8  16  16   8  16
#     4  10  22  42  66  96 130 178 233 274 329 396
#     4  10  23  43  65  90 128 174 213 260 321 392
#     4  11  22  41  63  92 122 162 212 261 318 374
#     4  12  26  42  60  91 131 165 214 272 318 367
#     4  11  22  39  66  97 128 165 213 272 327 381
#     4   9  16  29  59  93 124 147 184 256 323 359
#     4  10  18  35  64  97 127 155 201 260 320 381
#
# _framework density 20.164608000000001
#
# number of rings (size 3 to 8) (size 9 to 14) (size 15 to 20)
#    0.000    1.455    4.545    1.091    1.273    2.182 
#    0.000    5.455    0.000    0.000    0.000    0.000 
#    0.000    0.000    0.000    0.000    0.000    0.000 
#
# Total GULP energy -245625.845058 kJ/mol
# GULP energy per Si atom -5582.405570 kJ/mol
# Density = 2.011871 g / cm^3
# Si number density = 20.164608 Si / 1000 Ang^3
#
#
#
# Elastic Constant Matrix: (Units=GPa)
#
#
# Indices 1 2 3 4 5 6 
#
# 1 66.6012 20.0512 23.0609 0.0000 0.0000 0.0000
# 2 20.0512 73.8525 19.2579 0.0000 0.0000 0.0000
# 3 23.0609 19.2579 77.5186 0.0000 0.0000 0.0000
# 4 0.0000 0.0000 0.0000 19.5551 0.0000 0.0000
# 5 0.0000 0.0000 0.0000 0.0000 16.6417 0.0000
# 6 0.0000 0.0000 0.0000 0.0000 0.0000 17.5084
#
#
#
# Elastic Compliance Matrix: (Units=1/GPa)
#
#
# Indices 1 2 3 4 5 6 
#
# 1 0.017615 -0.003653 -0.004333 0.000000 0.000000 0.000000
# 2 -0.003653 0.015236 -0.002698 0.000000 0.000000 0.000000
# 3 -0.004333 -0.002698 0.014859 0.000000 0.000000 0.000000
# 4 0.000000 0.000000 0.000000 0.051137 0.000000 0.000000
# 5 0.000000 0.000000 0.000000 0.000000 0.060090 0.000000
# 6 0.000000 0.000000 0.000000 0.000000 0.000000 0.057115
#
#
# Mechanical properties :
#
#
# Convention : Reuss Voigt Hill
#
# Bulk Modulus (GPa) = 37.96164 38.07913 38.02039
# Shear Modulus (GPa) = 20.30861 21.11455 20.71158
#
# Velocity S-wave (km/s) = 3.17699 3.23942 3.20836
# Velocity P-wave (km/s) = 5.68546 5.73733 5.71145
#
# Compressibility (1/GPa) = 0.02634238
#
# Stress axis : x y z
#
# Youngs Moduli (GPa) = 56.77102 65.63470 67.29732
#
# Poissons Ratio (x) = 0.23974 0.29158
# Poissons Ratio (y) = 0.20736 0.18160
# Poissons Ratio (z) = 0.24597 0.17711
#
# Static dielectric constant tensor:
#      x y z
#    x 1.715440 0.000000 0.000000 
#    y 0.000000 1.712980 0.000000 
#    z 0.000000 0.000000 1.708510 
# 
# From -- ./inp_files/58692.got.cif
#   From: 2010.05.17/outbox.cif.g08.bks.cpg/sg74_30_cif.got.tgz:58692.got - 2010.06.03 17:57:02.
