data_PCOD9535382
_publ_section_title
;
Structure prediction by ZEFSAII (Michael W. Deem and Ramdas Pophale) SiO2 
 PCOD9535382
Probable space group: I M M A
;
_chemical_formula_sum "Si O2"
_cell_formula_units_Z 88
_cell_length_a 20.545312
_cell_length_b 7.456458
_cell_length_c 31.628173
_cell_angle_alpha 90.000000
_cell_angle_beta 90.000000
_cell_angle_gamma 90.000000
_cell_volume 4845.286060
_symmetry_space_group_name_H-M "I M M A"
_symmetry_group_IT_number 74
_symmetry_cell_setting 'orthorhombic'
loop_
_space_group_symop_operation_xyz
x,y,z
-x,1/2-y,z
x,-y,-z
-x,1/2+y,-z
-x,-y,-z
x,1/2+y,-z
-x,y,z
x,1/2-y,z
1/2+x,1/2+y,1/2+z
1/2-x,-y,1/2+z
1/2+x,1/2-y,1/2-z
1/2-x,y,1/2-z
1/2-x,1/2-y,1/2-z
1/2+x,y,1/2-z
1/2-x,1/2+y,1/2+z
1/2+x,-y,1/2+z
loop_
_atom_site_type_symbol
_atom_site_label
_atom_site_fract_x
_atom_site_fract_y
_atom_site_fract_z
Si Si1 0.208813 0.046653 0.871783
Si Si2 0.429112 0.533695 0.234359
Si Si3 0.928225 0.961069 0.834452
Si Si4 0.788682 0.030138 0.707585
Si Si5 0.857310 0.534217 0.049611
Si Si6 0.500000 0.963719 0.449690
O O1 0.232865 0.250000 0.877718
O O2 0.253118 0.965690 0.834933
O O3 0.197379 0.965059 0.918173
O O4 0.135358 0.051269 0.853345
O O5 0.500000 0.470984 0.218696
O O6 0.428911 0.750000 0.232393
O O7 0.424837 0.484254 0.283784
O O8 0.363583 0.472726 0.211479
O O9 0.925098 0.750000 0.843546
O O10 0.000000 0.028838 0.848137
O O11 0.786381 0.250000 0.707326
O O12 0.750000 0.975332 0.750000
O O13 0.859130 0.750000 0.054172
O O14 0.929214 0.465240 0.063495
O O15 0.847315 0.500000 0.000000
O O16 0.500000 0.750000 0.442809
O O17 0.500000 0.000000 0.500000
#
# Coordination Sequence:
#
# PCOD9535382 Si02
#       6
#    16  16  16  16  16   8
#     4  10  19  30  46  63  81 111 145 176 212 253
#     4   9  16  28  46  62  80 113 148 174 205 248
#     4  10  20  30  39  58  87 114 143 180 214 243
#     4   9  15  26  43  65  88 108 137 177 210 240
#     4   9  18  30  44  60  79 105 136 173 211 248
#     4   8  14  26  40  56  74  96 130 166 202 238
#
# _framework density 18.161982999999999
#
# number of rings (size 3 to 8) (size 9 to 14) (size 15 to 20)
#    0.000    2.727    1.818    0.545    1.273    1.818 
#    0.000    1.818    0.000    0.000    0.000    0.000 
#    0.000    0.727    0.000    0.545    0.000    1.091 
#
# Total GULP energy -245356.889129 kJ/mol
# GULP energy per Si atom -5576.292935 kJ/mol
# Density = 1.812065 g / cm^3
# Si number density = 18.161983 Si / 1000 Ang^3
#
#
#
# Elastic Constant Matrix: (Units=GPa)
#
#
# Indices 1 2 3 4 5 6 
#
# 1 112.7691 6.5565 67.6283 0.0000 0.0000 0.0000
# 2 6.5565 63.1792 3.7060 0.0000 0.0000 0.0000
# 3 67.6283 3.7060 119.0371 0.0000 0.0000 0.0000
# 4 0.0000 0.0000 0.0000 10.7367 0.0000 0.0000
# 5 0.0000 0.0000 0.0000 0.0000 38.1415 0.0000
# 6 0.0000 0.0000 0.0000 0.0000 0.0000 2.8658
#
#
#
# Elastic Compliance Matrix: (Units=1/GPa)
#
#
# Indices 1 2 3 4 5 6 
#
# 1 0.013507 -0.000953 -0.007644 0.000000 0.000000 0.000000
# 2 -0.000953 0.015924 0.000046 0.000000 0.000000 0.000000
# 3 -0.007644 0.000046 0.012742 0.000000 0.000000 0.000000
# 4 0.000000 0.000000 0.000000 0.093139 0.000000 0.000000
# 5 0.000000 0.000000 0.000000 0.000000 0.026218 0.000000
# 6 0.000000 0.000000 0.000000 0.000000 0.000000 0.348947
#
#
# Mechanical properties :
#
#
# Convention : Reuss Voigt Hill
#
# Bulk Modulus (GPa) = 39.88772 50.08522 44.98647
# Shear Modulus (GPa) = 9.32944 24.82176 17.07560
#
# Velocity S-wave (km/s) = 2.26891 3.70088 3.06957
# Velocity P-wave (km/s) = 5.37344 6.77487 6.11444
#
# Compressibility (1/GPa) = 0.02507037
#
# Stress axis : x y z
#
# Youngs Moduli (GPa) = 74.03334 62.79739 78.47916
#
# Poissons Ratio (x) = 0.05987 0.59992
# Poissons Ratio (y) = 0.07058 -0.00360
# Poissons Ratio (z) = 0.56593 -0.00288
#
# Static dielectric constant tensor:
#      x y z
#    x 1.638940 0.000000 0.000000 
#    y 0.000000 1.710600 0.000000 
#    z 0.000000 0.000000 1.636140 
# 
# From -- ./inp_files/70433.got.cif
#   From: 2010.05.17/outbox.cif.g08.bks.cpg/sg74_36_cif.got.tgz:70433.got - 2010.06.03 17:57:02.
