data_PCOD9535456
_publ_section_title
;
Structure prediction by ZEFSAII (Michael W. Deem and Ramdas Pophale) SiO2 
 PCOD9535456
Probable space group: I M M A
;
_chemical_formula_sum "Si O2"
_cell_formula_units_Z 112
_cell_length_a 25.258480
_cell_length_b 21.103140
_cell_length_c 12.129758
_cell_angle_alpha 90.000000
_cell_angle_beta 90.000000
_cell_angle_gamma 90.000000
_cell_volume 6465.564203
_symmetry_space_group_name_H-M "I M M A"
_symmetry_group_IT_number 74
_symmetry_cell_setting 'orthorhombic'
loop_
_space_group_symop_operation_xyz
x,y,z
-x,1/2-y,z
x,-y,-z
-x,1/2+y,-z
-x,-y,-z
x,1/2+y,-z
-x,y,z
x,1/2-y,z
1/2+x,1/2+y,1/2+z
1/2-x,-y,1/2+z
1/2+x,1/2-y,1/2-z
1/2-x,y,1/2-z
1/2-x,1/2-y,1/2-z
1/2+x,y,1/2-z
1/2-x,1/2+y,1/2+z
1/2+x,-y,1/2+z
loop_
_atom_site_type_symbol
_atom_site_label
_atom_site_fract_x
_atom_site_fract_y
_atom_site_fract_z
Si Si1 0.192728 0.497591 0.873276
Si Si2 0.332056 0.319398 0.542668
Si Si3 0.805441 0.359312 0.201001
Si Si4 0.273508 0.381785 0.899386
Si Si5 0.562177 0.823532 0.101441
Si Si6 0.652031 0.674781 0.924733
Si Si7 0.132647 0.604110 0.234315
O O1 0.204707 0.567505 0.831288
O O2 0.243267 0.449152 0.881724
O O3 0.149062 0.467894 0.791223
O O4 0.173530 0.500000 0.000000
O O5 0.351179 0.250000 0.567019
O O6 0.325491 0.329558 0.412842
O O7 0.273413 0.331483 0.591035
O O8 0.368157 0.366629 0.612298
O O9 0.750000 0.333182 0.250000
O O10 0.846933 0.346866 0.298560
O O11 0.316150 0.371174 0.803812
O O12 0.306373 0.370780 0.011449
O O13 0.500000 0.831499 0.082332
O O14 0.571409 0.750000 0.138028
O O15 0.584108 0.872743 0.192295
O O16 0.597183 0.831923 0.991145
O O17 0.666917 0.750000 0.932125
#
# Coordination Sequence:
#
# PCOD9535456 Si02
#       7
#    16  16  16  16  16  16  16
#     4  11  19  34  49  72 110 148 191 214 255 311
#     4  11  20  29  45  72 108 144 177 217 262 312
#     4  12  21  32  48  73 111 157 185 215 249 315
#     4  10  19  30  48  72 106 147 176 222 253 310
#     4   9  19  38  63  84 104 131 170 229 289 332
#     4  10  20  34  53  82 110 141 185 222 272 325
#     4  10  20  33  51  78 102 136 182 225 269 315
#
# _framework density 17.32254
#
# number of rings (size 3 to 8) (size 9 to 14) (size 15 to 20)
#    0.000    1.571    4.286    3.857    0.000    2.857 
#    0.000    2.143    0.000    3.000    0.000    2.000 
#    0.000    0.000    0.000    0.000    0.000    0.000 
#
# Total GULP energy -311892.995552 kJ/mol
# GULP energy per Si atom -5569.517778 kJ/mol
# Density = 1.728311 g / cm^3
# Si number density = 17.322540 Si / 1000 Ang^3
#
#
#
# Elastic Constant Matrix: (Units=GPa)
#
#
# Indices 1 2 3 4 5 6 
#
# 1 60.0839 18.9486 16.8060 0.0000 0.0000 0.0000
# 2 18.9486 51.7143 2.7924 0.0000 0.0000 0.0000
# 3 16.8060 2.7924 89.2021 0.0000 0.0000 0.0000
# 4 0.0000 0.0000 0.0000 26.7910 0.0000 0.0000
# 5 0.0000 0.0000 0.0000 0.0000 11.6383 0.0000
# 6 0.0000 0.0000 0.0000 0.0000 0.0000 13.8543
#
#
#
# Elastic Compliance Matrix: (Units=1/GPa)
#
#
# Indices 1 2 3 4 5 6 
#
# 1 0.019863 -0.007088 -0.003520 0.000000 0.000000 0.000000
# 2 -0.007088 0.021899 0.000650 0.000000 0.000000 0.000000
# 3 -0.003520 0.000650 0.011853 0.000000 0.000000 0.000000
# 4 0.000000 0.000000 0.000000 0.037326 0.000000 0.000000
# 5 0.000000 0.000000 0.000000 0.000000 0.085923 0.000000
# 6 0.000000 0.000000 0.000000 0.000000 0.000000 0.072180
#
#
# Mechanical properties :
#
#
# Convention : Reuss Voigt Hill
#
# Bulk Modulus (GPa) = 29.67479 30.89937 30.28708
# Shear Modulus (GPa) = 17.84474 21.28695 19.56585
#
# Velocity S-wave (km/s) = 3.21307 3.50931 3.36445
# Velocity P-wave (km/s) = 5.56175 5.85634 5.71094
#
# Compressibility (1/GPa) = 0.03369864
#
# Stress axis : x y z
#
# Youngs Moduli (GPa) = 50.34373 45.66411 84.36384
#
# Poissons Ratio (x) = 0.32367 0.29700
# Poissons Ratio (y) = 0.35684 -0.05483
# Poissons Ratio (z) = 0.17723 -0.02968
#
# Static dielectric constant tensor:
#      x y z
#    x 1.571830 0.000000 0.000000 
#    y 0.000000 1.620010 0.000000 
#    z 0.000000 0.000000 1.641340 
# 
# From -- ./inp_files/25386.got.cif
#   From: 2010.05.17/outbox.cif.g08.bks.cpg/sg74_13_cif.got.tgz:25386.got - 2010.06.03 17:57:02.
