data_PCOD9535721
_publ_section_title
;
Structure prediction by ZEFSAII (Michael W. Deem and Ramdas Pophale) SiO2 
 PCOD9535721
Probable space group: I M M A
;
_chemical_formula_sum "Si O2"
_cell_formula_units_Z 96
_cell_length_a 23.744528
_cell_length_b 23.047186
_cell_length_c 9.682149
_cell_angle_alpha 90.000000
_cell_angle_beta 90.000000
_cell_angle_gamma 90.000000
_cell_volume 5298.503304
_symmetry_space_group_name_H-M "I M M A"
_symmetry_group_IT_number 74
_symmetry_cell_setting 'orthorhombic'
loop_
_space_group_symop_operation_xyz
x,y,z
-x,1/2-y,z
x,-y,-z
-x,1/2+y,-z
-x,-y,-z
x,1/2+y,-z
-x,y,z
x,1/2-y,z
1/2+x,1/2+y,1/2+z
1/2-x,-y,1/2+z
1/2+x,1/2-y,1/2-z
1/2-x,y,1/2-z
1/2-x,1/2-y,1/2-z
1/2+x,y,1/2-z
1/2-x,1/2+y,1/2+z
1/2+x,-y,1/2+z
loop_
_atom_site_type_symbol
_atom_site_label
_atom_site_fract_x
_atom_site_fract_y
_atom_site_fract_z
Si Si1 0.433522 0.687351 0.424854
Si Si2 0.932077 0.397371 0.683982
Si Si3 0.734442 0.315687 0.412832
Si Si4 0.933062 0.015982 0.162345
Si Si5 0.376893 0.637437 0.675340
Si Si6 0.859168 0.181383 0.481403
O O1 0.500000 0.690742 0.404501
O O2 0.408196 0.750000 0.392795
O O3 0.414747 0.638241 0.320571
O O4 0.421919 0.669469 0.580262
O O5 0.921519 0.463750 0.729977
O O6 0.897017 0.364618 0.565198
O O7 0.000000 0.392243 0.658766
O O8 0.717160 0.250000 0.450705
O O9 0.750000 0.314255 0.250000
O O10 0.680875 0.357444 0.413345
O O11 0.791687 0.329915 0.494547
O O12 0.896432 0.071983 0.197339
O O13 0.000000 0.029187 0.171911
O O14 0.923238 0.000000 0.000000
O O15 0.371011 0.670489 0.819571
O O16 0.869630 0.250000 0.514478
#
# Coordination Sequence:
#
# PCOD9535721 Si02
#       6
#    16  16  16  16  16  16
#     4  10  19  31  51  80 109 140 183 236 289 339
#     4  10  21  37  56  79 116 158 190 231 292 353
#     4   8  16  33  56  80 109 148 184 223 283 345
#     4  10  20  37  59  80 108 152 198 234 279 345
#     4  11  19  33  60  82 108 144 197 242 281 335
#     4  10  21  37  58  85 118 150 186 237 297 356
#
# _framework density 18.118324000000001
#
# number of rings (size 3 to 8) (size 9 to 14) (size 15 to 20)
#    0.000    2.167    1.667    3.500    0.000    3.000 
#    0.000    2.500   11.000    3.000    0.000    0.000 
#    0.000    0.000    0.000    0.000    0.000    0.000 
#
# Total GULP energy -267262.506600 kJ/mol
# GULP energy per Si atom -5567.968887 kJ/mol
# Density = 1.807709 g / cm^3
# Si number density = 18.118324 Si / 1000 Ang^3
#
#
#
# Elastic Constant Matrix: (Units=GPa)
#
#
# Indices 1 2 3 4 5 6 
#
# 1 60.9673 55.1598 18.0502 0.0000 0.0000 0.0000
# 2 55.1598 116.6390 8.3272 0.0000 0.0000 0.0000
# 3 18.0502 8.3272 37.9832 0.0000 0.0000 0.0000
# 4 0.0000 0.0000 0.0000 35.2044 0.0000 0.0000
# 5 0.0000 0.0000 0.0000 0.0000 -1.9581 0.0000
# 6 0.0000 0.0000 0.0000 0.0000 0.0000 33.2150
#
#
#
# Elastic Compliance Matrix: (Units=1/GPa)
#
#
# Indices 1 2 3 4 5 6 
#
# 1 0.033835 -0.015089 -0.012771 0.000000 0.000000 0.000000
# 2 -0.015089 0.015439 0.003786 0.000000 0.000000 0.000000
# 3 -0.012771 0.003786 0.031566 0.000000 0.000000 0.000000
# 4 0.000000 0.000000 0.000000 0.028406 0.000000 0.000000
# 5 0.000000 0.000000 0.000000 0.000000 -0.510705 0.000000
# 6 0.000000 0.000000 0.000000 0.000000 0.000000 0.030107
#
#
# Mechanical properties :
#
#
# Convention : Reuss Voigt Hill
#
# Bulk Modulus (GPa) = 30.58853 42.07375 36.33114
# Shear Modulus (GPa) = -16.00994 22.22908 3.10957
#
# Velocity S-wave (km/s) = -2.97582 3.50649 1.31148
# Velocity P-wave (km/s) = 2.26096 6.29810 4.73170
#
# Compressibility (1/GPa) = 0.03269200
#
# Stress axis : x y z
#
# Youngs Moduli (GPa) = 29.55511 64.77095 31.67933
#
# Poissons Ratio (x) = 0.97734 0.40457
# Poissons Ratio (y) = 0.44596 -0.11993
# Poissons Ratio (z) = 0.37745 -0.24522
#
# Static dielectric constant tensor:
#      x y z
#    x 1.660920 0.000000 0.000000 
#    y 0.000000 1.652120 0.000000 
#    z 0.000000 0.000000 1.623630 
# 
# From -- ./inp_files/12619.got.cif
#   From: 2010.05.17/outbox.cif.g08.bks.cpg/sg74_7_cif.got.tgz:12619.got - 2010.06.03 17:57:02.
