data_PCOD9535829
_publ_section_title
;
Structure prediction by ZEFSAII (Michael W. Deem and Ramdas Pophale) SiO2 
 PCOD9535829
Probable space group: I M M A
;
_chemical_formula_sum "Si O2"
_cell_formula_units_Z 96
_cell_length_a 8.907108
_cell_length_b 22.971291
_cell_length_c 28.136072
_cell_angle_alpha 90.000000
_cell_angle_beta 90.000000
_cell_angle_gamma 90.000000
_cell_volume 5756.858944
_symmetry_space_group_name_H-M "I M M A"
_symmetry_group_IT_number 74
_symmetry_cell_setting 'orthorhombic'
loop_
_space_group_symop_operation_xyz
x,y,z
-x,1/2-y,z
x,-y,-z
-x,1/2+y,-z
-x,-y,-z
x,1/2+y,-z
-x,y,z
x,1/2-y,z
1/2+x,1/2+y,1/2+z
1/2-x,-y,1/2+z
1/2+x,1/2-y,1/2-z
1/2-x,y,1/2-z
1/2-x,1/2-y,1/2-z
1/2+x,y,1/2-z
1/2-x,1/2+y,1/2+z
1/2+x,-y,1/2+z
loop_
_atom_site_type_symbol
_atom_site_label
_atom_site_fract_x
_atom_site_fract_y
_atom_site_fract_z
Si Si1 0.182151 0.750000 0.515215
Si Si2 0.319260 0.519926 0.698972
Si Si3 0.820032 0.869960 0.464479
Si Si4 0.822285 0.449153 0.892821
Si Si5 0.175117 0.869043 0.648865
Si Si6 0.825794 0.555398 0.554963
Si Si7 0.179660 0.750000 0.878671
O O1 0.224073 0.692817 0.485052
O O2 0.256350 0.750000 0.567248
O O3 0.000000 0.750000 0.521990
O O4 0.500000 0.523096 0.700874
O O5 0.250000 0.506684 0.750000
O O6 0.276028 0.471375 0.659555
O O7 0.254037 0.581764 0.680794
O O8 0.751871 0.891984 0.415193
O O9 0.778768 0.916446 0.505502
O O10 0.000000 0.870336 0.460797
O O11 0.773639 0.502794 0.926528
O O12 0.000000 0.442476 0.893213
O O13 0.179515 0.894734 0.595200
O O14 0.258221 0.807586 0.647267
O O15 0.000000 0.862786 0.662163
O O16 0.000000 0.535835 0.551710
O O17 0.000000 0.750000 0.879844
#
# Coordination Sequence:
#
# PCOD9535829 Si02
#       7
#     8  16  16  16  16  16   8
#     4  10  20  36  52  71 102 145 186 218 247 293
#     4  10  21  38  57  79 103 130 166 214 268 319
#     4  10  19  32  50  72 101 137 178 211 244 297
#     4  10  21  33  48  74 106 132 162 208 260 309
#     4  10  19  34  54  74 101 139 178 217 257 302
#     4   9  17  30  49  71  98 135 175 209 244 295
#     4  12  22  32  49  75 106 141 181 220 255 299
#
# _framework density 16.67576
#
# number of rings (size 3 to 8) (size 9 to 14) (size 15 to 20)
#    0.000    2.000    1.667    2.750    0.000    6.000 
#    0.000    0.417    0.000    0.000    0.000    0.583 
#    0.000    0.000    0.000    0.000    0.000    0.000 
#
# Total GULP energy -267882.079691 kJ/mol
# GULP energy per Si atom -5580.876660 kJ/mol
# Density = 1.663781 g / cm^3
# Si number density = 16.675760 Si / 1000 Ang^3
#
#
#
# Elastic Constant Matrix: (Units=GPa)
#
#
# Indices 1 2 3 4 5 6 
#
# 1 50.2009 18.4193 36.2840 0.0000 0.0000 0.0000
# 2 18.4193 37.1136 42.8229 0.0000 0.0000 0.0000
# 3 36.2840 42.8229 110.8294 0.0000 0.0000 0.0000
# 4 0.0000 0.0000 0.0000 10.1114 0.0000 0.0000
# 5 0.0000 0.0000 0.0000 0.0000 24.1859 0.0000
# 6 0.0000 0.0000 0.0000 0.0000 0.0000 29.5846
#
#
#
# Elastic Compliance Matrix: (Units=1/GPa)
#
#
# Indices 1 2 3 4 5 6 
#
# 1 0.026752 -0.005723 -0.006547 0.000000 0.000000 0.000000
# 2 -0.005723 0.049845 -0.017386 0.000000 0.000000 0.000000
# 3 -0.006547 -0.017386 0.017884 0.000000 0.000000 0.000000
# 4 0.000000 0.000000 0.000000 0.098898 0.000000 0.000000
# 5 0.000000 0.000000 0.000000 0.000000 0.041346 0.000000
# 6 0.000000 0.000000 0.000000 0.000000 0.000000 0.033801
#
#
# Mechanical properties :
#
#
# Convention : Reuss Voigt Hill
#
# Bulk Modulus (GPa) = 28.43377 43.68847 36.06112
# Shear Modulus (GPa) = 14.72496 19.48424 17.10460
#
# Velocity S-wave (km/s) = 2.97478 3.42192 3.20616
# Velocity P-wave (km/s) = 5.37467 6.47058 5.94792
#
# Compressibility (1/GPa) = 0.03516944
#
# Stress axis : x y z
#
# Youngs Moduli (GPa) = 37.38082 20.06237 55.91640
#
# Poissons Ratio (x) = 0.11481 0.36608
# Poissons Ratio (y) = 0.21392 0.97215
# Poissons Ratio (z) = 0.24473 0.34880
#
# Static dielectric constant tensor:
#      x y z
#    x 1.558780 0.000000 0.000000 
#    y 0.000000 1.566130 0.000000 
#    z 0.000000 0.000000 1.559950 
# 
# From -- ./inp_files/64725.got.cif
#   From: 2010.05.17/outbox.cif.g08.bks.cpg/sg74_33_cif.got.tgz:64725.got - 2010.06.03 17:57:02.
