data_PCOD9535298
_publ_section_title
;
Structure prediction by ZEFSAII (Michael W. Deem and Ramdas Pophale) SiO2 
 PCOD9535298
Probable space group: I M M A
;
_chemical_formula_sum "Si O2"
_cell_formula_units_Z 64
_cell_length_a 17.973504
_cell_length_b 11.052039
_cell_length_c 19.201236
_cell_angle_alpha 90.000000
_cell_angle_beta 90.000000
_cell_angle_gamma 90.000000
_cell_volume 3814.207774
_symmetry_space_group_name_H-M "I M M A"
_symmetry_group_IT_number 74
_symmetry_cell_setting 'orthorhombic'
loop_
_space_group_symop_operation_xyz
x,y,z
-x,1/2-y,z
x,-y,-z
-x,1/2+y,-z
-x,-y,-z
x,1/2+y,-z
-x,y,z
x,1/2-y,z
1/2+x,1/2+y,1/2+z
1/2-x,-y,1/2+z
1/2+x,1/2-y,1/2-z
1/2-x,y,1/2-z
1/2-x,1/2-y,1/2-z
1/2+x,y,1/2-z
1/2-x,1/2+y,1/2+z
1/2+x,-y,1/2+z
loop_
_atom_site_type_symbol
_atom_site_label
_atom_site_fract_x
_atom_site_fract_y
_atom_site_fract_z
Si Si1 0.763483 0.750000 0.452814
Si Si2 0.910873 0.392364 0.381469
Si Si3 0.816966 0.250000 0.805441
Si Si4 0.921297 0.250000 0.614462
Si Si5 0.194496 0.500000 0.500000
Si Si6 0.415913 0.946274 0.236710
O O1 0.717074 0.750000 0.381777
O O2 0.851333 0.750000 0.434206
O O3 0.755634 0.620078 0.489203
O O4 0.898154 0.250000 0.392173
O O5 0.859808 0.466723 0.435321
O O6 0.892378 0.430075 0.301249
O O7 0.000000 0.415171 0.391455
O O8 0.750000 0.250000 0.750000
O O9 0.864669 0.371069 0.789169
O O10 0.918743 0.360789 0.668073
O O11 0.000000 0.250000 0.575700
O O12 0.500000 0.956773 0.264247
#
# Coordination Sequence:
#
# PCOD9535298 Si02
#       6
#     8  16   8   8   8  16
#     4  12  23  32  52  68 102 139 178 206 247 288
#     4  10  19  29  45  70 103 139 168 200 248 299
#     4  11  17  31  51  74  93 131 168 211 250 299
#     4   9  15  26  43  67  92 121 155 199 239 273
#     4  12  21  34  42  70 101 146 176 206 226 294
#     4   9  17  30  49  73  98 118 159 213 255 294
#
# _framework density 16.779368000000002
#
# number of rings (size 3 to 8) (size 9 to 14) (size 15 to 20)
#    0.000    1.750    6.250    1.500    0.000    1.000 
#    0.000    0.000    2.750    2.250    0.000    3.500 
#    0.000    0.000    0.000    0.000    0.000    0.000 
#
# Total GULP energy -178170.544458 kJ/mol
# GULP energy per Si atom -5567.829514 kJ/mol
# Density = 1.674118 g / cm^3
# Si number density = 16.779368 Si / 1000 Ang^3
#
#
#
# Elastic Constant Matrix: (Units=GPa)
#
#
# Indices 1 2 3 4 5 6 
#
# 1 49.5612 19.4939 32.9804 0.0000 0.0000 0.0000
# 2 19.4939 109.4652 32.9769 0.0000 0.0000 0.0000
# 3 32.9804 32.9769 59.3623 0.0000 0.0000 0.0000
# 4 0.0000 0.0000 0.0000 28.3840 0.0000 0.0000
# 5 0.0000 0.0000 0.0000 0.0000 25.7432 0.0000
# 6 0.0000 0.0000 0.0000 0.0000 0.0000 13.3463
#
#
#
# Elastic Compliance Matrix: (Units=1/GPa)
#
#
# Indices 1 2 3 4 5 6 
#
# 1 0.032028 -0.000412 -0.017565 0.000000 0.000000 0.000000
# 2 -0.000412 0.010977 -0.005869 0.000000 0.000000 0.000000
# 3 -0.017565 -0.005869 0.029865 0.000000 0.000000 0.000000
# 4 0.000000 0.000000 0.000000 0.035231 0.000000 0.000000
# 5 0.000000 0.000000 0.000000 0.000000 0.038845 0.000000
# 6 0.000000 0.000000 0.000000 0.000000 0.000000 0.074927
#
#
# Mechanical properties :
#
#
# Convention : Reuss Voigt Hill
#
# Bulk Modulus (GPa) = 39.71828 43.25459 41.48643
# Shear Modulus (GPa) = 17.98840 22.35721 20.17281
#
# Velocity S-wave (km/s) = 3.27778 3.65420 3.47109
# Velocity P-wave (km/s) = 6.16826 6.60595 6.39085
#
# Compressibility (1/GPa) = 0.02517732
#
# Stress axis : x y z
#
# Youngs Moduli (GPa) = 31.22286 91.10190 33.48427
#
# Poissons Ratio (x) = 0.03754 0.58815
# Poissons Ratio (y) = 0.01287 0.19651
# Poissons Ratio (z) = 0.54843 0.53466
#
# Static dielectric constant tensor:
#      x y z
#    x 1.600190 0.000000 0.000000 
#    y 0.000000 1.723260 0.000000 
#    z 0.000000 0.000000 1.557750 
# 
# From -- ./inp_files/43677.got.cif
#   From: 2010.05.17/outbox.cif.g08.bks.cpg/sg74_22_cif.got.tgz:43677.got - 2010.06.03 17:57:02.
