data_PCOD9535445
_publ_section_title
;
Structure prediction by ZEFSAII (Michael W. Deem and Ramdas Pophale) SiO2 
 PCOD9535445
Probable space group: I M M A
;
_chemical_formula_sum "Si O2"
_cell_formula_units_Z 96
_cell_length_a 25.332145
_cell_length_b 20.793502
_cell_length_c 9.491365
_cell_angle_alpha 90.000000
_cell_angle_beta 90.000000
_cell_angle_gamma 90.000000
_cell_volume 4999.519639
_symmetry_space_group_name_H-M "I M M A"
_symmetry_group_IT_number 74
_symmetry_cell_setting 'orthorhombic'
loop_
_space_group_symop_operation_xyz
x,y,z
-x,1/2-y,z
x,-y,-z
-x,1/2+y,-z
-x,-y,-z
x,1/2+y,-z
-x,y,z
x,1/2-y,z
1/2+x,1/2+y,1/2+z
1/2-x,-y,1/2+z
1/2+x,1/2-y,1/2-z
1/2-x,y,1/2-z
1/2-x,1/2-y,1/2-z
1/2+x,y,1/2-z
1/2-x,1/2+y,1/2+z
1/2+x,-y,1/2+z
loop_
_atom_site_type_symbol
_atom_site_label
_atom_site_fract_x
_atom_site_fract_y
_atom_site_fract_z
Si Si1 0.588376 0.992785 0.335009
Si Si2 0.939578 0.607027 0.623392
Si Si3 0.208108 0.548052 0.126223
Si Si4 0.439124 0.635818 0.188858
Si Si5 0.147610 0.175586 0.906115
Si Si6 0.942651 0.175628 0.108141
O O1 0.650482 0.977789 0.331412
O O2 0.558967 0.932279 0.268252
O O3 0.573292 0.000000 0.500000
O O4 0.580184 0.052306 0.229773
O O5 0.918174 0.621957 0.469333
O O6 0.937834 0.668802 0.724689
O O7 0.000000 0.589128 0.593510
O O8 0.250000 0.543750 0.250000
O O9 0.194855 0.623812 0.098289
O O10 0.225039 0.500000 0.000000
O O11 0.500000 0.662467 0.186848
O O12 0.393442 0.673352 0.274062
O O13 0.163976 0.250000 0.927687
O O14 0.108942 0.150366 0.031099
O O15 0.944644 0.250000 0.066678
O O16 0.000000 0.146194 0.069220
#
# Coordination Sequence:
#
# PCOD9535445 Si02
#       6
#    16  16  16  16  16  16
#     4  10  20  34  52  75 104 139 182 228 272 323
#     4  10  19  30  47  74 111 148 181 223 269 313
#     4  10  22  39  60  83 105 134 175 227 283 335
#     4  10  20  31  47  77 113 147 182 220 264 314
#     4  10  21  37  57  81 110 145 184 225 270 325
#     4   9  17  30  49  73 103 143 185 217 251 303
#
# _framework density 19.201846
#
# number of rings (size 3 to 8) (size 9 to 14) (size 15 to 20)
#    0.000    2.167    0.000    4.500    0.000    8.667 
#    0.000    1.667    0.000    1.000    0.000    0.000 
#    0.000    0.000    0.000    0.000    0.000    0.000 
#
# Total GULP energy -267226.870772 kJ/mol
# GULP energy per Si atom -5567.226474 kJ/mol
# Density = 1.915814 g / cm^3
# Si number density = 19.201846 Si / 1000 Ang^3
#
#
#
# Elastic Constant Matrix: (Units=GPa)
#
#
# Indices 1 2 3 4 5 6 
#
# 1 50.5338 22.1609 39.7748 0.0000 0.0000 0.0000
# 2 22.1609 86.8949 29.4497 0.0000 0.0000 0.0000
# 3 39.7748 29.4497 128.6199 0.0000 0.0000 0.0000
# 4 0.0000 0.0000 0.0000 18.9848 0.0000 0.0000
# 5 0.0000 0.0000 0.0000 0.0000 22.7378 0.0000
# 6 0.0000 0.0000 0.0000 0.0000 0.0000 -1.0954
#
#
#
# Elastic Compliance Matrix: (Units=1/GPa)
#
#
# Indices 1 2 3 4 5 6 
#
# 1 0.027695 -0.004510 -0.007532 0.000000 0.000000 0.000000
# 2 -0.004510 0.013211 -0.001630 0.000000 0.000000 0.000000
# 3 -0.007532 -0.001630 0.010477 0.000000 0.000000 0.000000
# 4 0.000000 0.000000 0.000000 0.052674 0.000000 0.000000
# 5 0.000000 0.000000 0.000000 0.000000 0.043980 0.000000
# 6 0.000000 0.000000 0.000000 0.000000 0.000000 -0.912882
#
#
# Mechanical properties :
#
#
# Convention : Reuss Voigt Hill
#
# Bulk Modulus (GPa) = 41.59978 49.86882 45.73430
# Shear Modulus (GPa) = -6.85412 19.76965 6.45776
#
# Velocity S-wave (km/s) = -1.89136 3.21217 1.83586
# Velocity P-wave (km/s) = 4.11604 6.30751 5.32571
#
# Compressibility (1/GPa) = 0.02403859
#
# Stress axis : x y z
#
# Youngs Moduli (GPa) = 36.10772 75.69500 95.44541
#
# Poissons Ratio (x) = 0.34142 0.71887
# Poissons Ratio (y) = 0.16286 0.15558
# Poissons Ratio (z) = 0.27195 0.12339
#
# Static dielectric constant tensor:
#      x y z
#    x 1.661570 0.000000 0.000000 
#    y 0.000000 1.760540 0.000000 
#    z 0.000000 0.000000 1.705570 
# 
# From -- ./inp_files/15309.got.cif
#   From: 2010.05.17/outbox.cif.g08.bks.cpg/sg74_8_cif.got.tgz:15309.got - 2010.06.03 17:57:02.
