data_PCOD9535206
_publ_section_title
;
Structure prediction by ZEFSAII (Michael W. Deem and Ramdas Pophale) SiO2 
 PCOD9535206
Probable space group: I M M A
;
_chemical_formula_sum "Si O2"
_cell_formula_units_Z 112
_cell_length_a 14.773494
_cell_length_b 30.694212
_cell_length_c 10.747276
_cell_angle_alpha 90.000000
_cell_angle_beta 90.000000
_cell_angle_gamma 90.000000
_cell_volume 4873.467909
_symmetry_space_group_name_H-M "I M M A"
_symmetry_group_IT_number 74
_symmetry_cell_setting 'orthorhombic'
loop_
_space_group_symop_operation_xyz
x,y,z
-x,1/2-y,z
x,-y,-z
-x,1/2+y,-z
-x,-y,-z
x,1/2+y,-z
-x,y,z
x,1/2-y,z
1/2+x,1/2+y,1/2+z
1/2-x,-y,1/2+z
1/2+x,1/2-y,1/2-z
1/2-x,y,1/2-z
1/2-x,1/2-y,1/2-z
1/2+x,y,1/2-z
1/2-x,1/2+y,1/2+z
1/2+x,-y,1/2+z
loop_
_atom_site_type_symbol
_atom_site_label
_atom_site_fract_x
_atom_site_fract_y
_atom_site_fract_z
Si Si1 0.101863 0.016579 0.276990
Si Si2 0.605378 0.387131 0.232980
Si Si3 0.391028 0.796568 0.740655
Si Si4 0.849447 0.883347 0.306641
Si Si5 0.608703 0.702257 0.034756
Si Si6 0.899941 0.937523 0.089381
Si Si7 0.704996 0.934618 0.970641
O O1 0.103647 0.064390 0.212791
O O2 0.000000 0.011205 0.329211
O O3 0.116833 0.979790 0.176505
O O4 0.174216 0.024097 0.387212
O O5 0.500000 0.380446 0.188271
O O6 0.631289 0.344529 0.311299
O O7 0.675853 0.395188 0.121633
O O8 0.500000 0.793533 0.730020
O O9 0.354395 0.750000 0.693318
O O10 0.367340 0.800500 0.887657
O O11 0.750000 0.881532 0.250000
O O12 0.866359 0.838644 0.379812
O O13 0.905227 0.897072 0.185837
O O14 0.853333 0.923024 0.406664
O O15 0.500000 0.703218 0.035391
O O16 0.641676 0.750000 0.079407
O O17 0.808201 0.933731 0.011520
O O18 0.000000 0.942437 0.031787
#
# Coordination Sequence:
#
# PCOD9535206 Si02
#       7
#    16  16  16  16  16  16  16
#     4   8  16  30  48  70  91 119 160 206 249 293
#     4   8  13  24  43  64  90 121 156 199 242 288
#     4   8  12  18  33  58  84 113 148 186 231 283
#     4  10  19  28  39  59  84 114 154 201 241 283
#     4   9  15  23  36  53  77 111 148 189 238 285
#     4  10  20  31  46  68  92 122 165 207 248 297
#     4   9  17  30  45  64  91 121 155 203 248 284
#
# _framework density 22.981580999999998
#
# number of rings (size 3 to 8) (size 9 to 14) (size 15 to 20)
#    0.857    2.286    1.429    1.286    0.000    2.571 
#    0.000    1.429    0.000    1.714    0.000    9.000 
#    0.000    0.000    0.000    1.286    0.000   19.857 
#
# Total GULP energy -311894.626942 kJ/mol
# GULP energy per Si atom -5569.546910 kJ/mol
# Density = 2.292927 g / cm^3
# Si number density = 22.981581 Si / 1000 Ang^3
#
#
#
# Elastic Constant Matrix: (Units=GPa)
#
#
# Indices 1 2 3 4 5 6 
#
# 1 108.4451 5.0883 38.7792 0.0002 0.0001 0.0000
# 2 5.0883 102.4596 0.5342 0.0004 0.0002 0.0000
# 3 38.7792 0.5342 49.3318 0.0010 0.0006 -0.0002
# 4 0.0002 0.0004 0.0010 -9.3901 0.0000 0.0000
# 5 0.0001 0.0002 0.0006 0.0000 25.7054 0.0001
# 6 0.0000 0.0000 -0.0002 0.0000 0.0001 19.2192
#
#
#
# Elastic Compliance Matrix: (Units=1/GPa)
#
#
# Indices 1 2 3 4 5 6 
#
# 1 0.012862 -0.000586 -0.010104 -0.000001 0.000000 0.000000
# 2 -0.000586 0.009787 0.000355 0.000000 0.000000 0.000000
# 3 -0.010104 0.000355 0.028210 0.000003 -0.000001 0.000000
# 4 -0.000001 0.000000 0.000003 -0.106495 0.000000 0.000000
# 5 0.000000 0.000000 -0.000001 0.000000 0.038902 0.000000
# 6 0.000000 0.000000 0.000000 0.000000 0.000000 0.052031
#
#
# Mechanical properties :
#
#
# Convention : Reuss Voigt Hill
#
# Bulk Modulus (GPa) = 33.12594 38.78220 35.95407
# Shear Modulus (GPa) = 75.72184 21.49590 48.60887
#
# Velocity S-wave (km/s) = 5.74634 3.06167 4.60404
# Velocity P-wave (km/s) = 7.64674 5.42314 6.62884
#
# Compressibility (1/GPa) = 0.03018782
#
# Stress axis : x y z
#
# Youngs Moduli (GPa) = 77.74850 102.17426 35.44848
#
# Poissons Ratio (x) = 0.05988 0.35818
# Poissons Ratio (y) = 0.04557 -0.01257
# Poissons Ratio (z) = 0.78560 -0.03624
#
# Static dielectric constant tensor:
#      x y z
#    x 1.874020 0.000000 0.000000 
#    y 0.000000 1.977250 0.000000 
#    z 0.000000 0.000000 1.917040 
# 
# From -- ./inp_files/33134.got.cif
#   From: 2010.05.17/outbox.cif.g08.bks.cpg/sg74_17_cif.got.tgz:33134.got - 2010.06.03 17:57:02.
