data_PCOD9535086
_publ_section_title
;
Structure prediction by ZEFSAII (Michael W. Deem and Ramdas Pophale) SiO2 
 PCOD9535086
Probable space group: I M M A
;
_chemical_formula_sum "Si O2"
_cell_formula_units_Z 104
_cell_length_a 27.870072
_cell_length_b 8.328003
_cell_length_c 22.837813
_cell_angle_alpha 90.000000
_cell_angle_beta 90.000000
_cell_angle_gamma 90.000000
_cell_volume 5300.703060
_symmetry_space_group_name_H-M "I M M A"
_symmetry_group_IT_number 74
_symmetry_cell_setting 'orthorhombic'
loop_
_space_group_symop_operation_xyz
x,y,z
-x,1/2-y,z
x,-y,-z
-x,1/2+y,-z
-x,-y,-z
x,1/2+y,-z
-x,y,z
x,1/2-y,z
1/2+x,1/2+y,1/2+z
1/2-x,-y,1/2+z
1/2+x,1/2-y,1/2-z
1/2-x,y,1/2-z
1/2-x,1/2-y,1/2-z
1/2+x,y,1/2-z
1/2-x,1/2+y,1/2+z
1/2+x,-y,1/2+z
loop_
_atom_site_type_symbol
_atom_site_label
_atom_site_fract_x
_atom_site_fract_y
_atom_site_fract_z
Si Si1 0.186084 0.054617 0.307279
Si Si2 0.500000 0.559685 0.067015
Si Si3 0.942748 0.931096 0.777030
Si Si4 0.946663 0.939775 0.097451
Si Si5 0.847169 0.558391 0.060206
Si Si6 0.412653 0.055618 0.148060
Si Si7 0.204052 0.056266 0.176987
O O1 0.185450 0.250000 0.307418
O O2 0.143438 0.004548 0.351223
O O3 0.179848 0.005735 0.238832
O O4 0.240070 0.004562 0.322958
O O5 0.500000 0.750000 0.066450
O O6 0.548136 0.504461 0.101747
O O7 0.500000 0.500000 0.000000
O O8 0.922464 0.750000 0.785099
O O9 0.927791 0.993337 0.713846
O O10 0.000000 0.917432 0.774320
O O11 0.933458 0.034778 0.834283
O O12 0.949464 0.750000 0.086023
O O13 0.901589 0.010179 0.063389
O O14 0.000000 0.009361 0.086655
O O15 0.849286 0.750000 0.059545
O O16 0.821134 0.505147 0.119078
O O17 0.823941 0.500000 0.000000
O O18 0.414755 0.250000 0.145414
O O19 0.203538 0.250000 0.176665
#
# Coordination Sequence:
#
# PCOD9535086 Si02
#       7
#    16   8  16  16  16  16  16
#     4   8  16  31  60  92 115 141 175 220 276 332
#     4  12  26  42  58  78 108 150 193 234 281 336
#     4   9  16  27  48  79 109 137 169 207 255 308
#     4   9  19  34  50  72 105 139 175 223 271 312
#     4  11  23  37  53  74 102 143 187 225 270 319
#     4  10  18  34  57  83 113 144 179 221 268 325
#     4   9  17  35  59  86 115 144 180 222 271 328
#
# _framework density 19.620038999999998
#
# number of rings (size 3 to 8) (size 9 to 14) (size 15 to 20)
#    0.000    2.462    0.769    3.000    0.000    3.385 
#    0.000    3.846    0.000    0.000    0.000    0.000 
#    0.000    0.000    0.000    0.000    0.000    0.000 
#
# Total GULP energy -289836.304165 kJ/mol
# GULP energy per Si atom -5573.775080 kJ/mol
# Density = 1.957538 g / cm^3
# Si number density = 19.620039 Si / 1000 Ang^3
#
#
#
# Elastic Constant Matrix: (Units=GPa)
#
#
# Indices 1 2 3 4 5 6 
#
# 1 126.3122 24.2142 81.0316 0.0000 0.0000 0.0000
# 2 24.2142 19.0909 12.6007 0.0000 0.0000 0.0000
# 3 81.0316 12.6007 114.4051 0.0000 0.0000 0.0000
# 4 0.0000 0.0000 0.0000 20.2560 0.0000 0.0000
# 5 0.0000 0.0000 0.0000 0.0000 15.2819 0.0000
# 6 0.0000 0.0000 0.0000 0.0000 0.0000 13.2258
#
#
#
# Elastic Compliance Matrix: (Units=1/GPa)
#
#
# Indices 1 2 3 4 5 6 
#
# 1 0.017949 -0.015502 -0.011006 0.000000 0.000000 0.000000
# 2 -0.015502 0.069875 0.003283 0.000000 0.000000 0.000000
# 3 -0.011006 0.003283 0.016174 0.000000 0.000000 0.000000
# 4 0.000000 0.000000 0.000000 0.049368 0.000000 0.000000
# 5 0.000000 0.000000 0.000000 0.000000 0.065437 0.000000
# 6 0.000000 0.000000 0.000000 0.000000 0.000000 0.075610
#
#
# Mechanical properties :
#
#
# Convention : Reuss Voigt Hill
#
# Bulk Modulus (GPa) = 17.37584 55.05570 36.21577
# Shear Modulus (GPa) = 13.88715 19.21683 16.55199
#
# Velocity S-wave (km/s) = 2.66335 3.13301 2.90768
# Velocity P-wave (km/s) = 4.28174 6.41947 5.45632
#
# Compressibility (1/GPa) = 0.05755118
#
# Stress axis : x y z
#
# Youngs Moduli (GPa) = 55.71385 14.31117 61.82637
#
# Poissons Ratio (x) = 0.22185 0.68043
# Poissons Ratio (y) = 0.86366 -0.20300
# Poissons Ratio (z) = 0.61316 -0.04699
#
# Static dielectric constant tensor:
#      x y z
#    x 1.755280 0.000000 0.000000 
#    y 0.000000 1.690530 0.000000 
#    z 0.000000 0.000000 1.669520 
# 
# From -- ./inp_files/55670.got.cif
#   From: 2010.05.17/outbox.cif.g08.bks.cpg/sg74_28_cif.got.tgz:55670.got - 2010.06.03 17:57:02.
