data_PCOD9535015
_publ_section_title
;
Structure prediction by ZEFSAII (Michael W. Deem and Ramdas Pophale) SiO2 
 PCOD9535015
Probable space group: I M M A
;
_chemical_formula_sum "Si O2"
_cell_formula_units_Z 56
_cell_length_a 17.079676
_cell_length_b 9.836308
_cell_length_c 17.213015
_cell_angle_alpha 90.000000
_cell_angle_beta 90.000000
_cell_angle_gamma 90.000000
_cell_volume 2891.802936
_symmetry_space_group_name_H-M "I M M A"
_symmetry_group_IT_number 74
_symmetry_cell_setting 'orthorhombic'
loop_
_space_group_symop_operation_xyz
x,y,z
-x,1/2-y,z
x,-y,-z
-x,1/2+y,-z
-x,-y,-z
x,1/2+y,-z
-x,y,z
x,1/2-y,z
1/2+x,1/2+y,1/2+z
1/2-x,-y,1/2+z
1/2+x,1/2-y,1/2-z
1/2-x,y,1/2-z
1/2-x,1/2-y,1/2-z
1/2+x,y,1/2-z
1/2-x,1/2+y,1/2+z
1/2+x,-y,1/2+z
loop_
_atom_site_type_symbol
_atom_site_label
_atom_site_fract_x
_atom_site_fract_y
_atom_site_fract_z
Si Si1 0.585711 0.087641 0.375238
Si Si2 0.788600 0.500000 0.000000
Si Si3 0.636768 0.402443 0.935691
Si Si4 0.837008 0.089957 0.286229
O O1 0.500000 0.031994 0.396249
O O2 0.584214 0.250000 0.384826
O O3 0.604752 0.062819 0.285204
O O4 0.655216 0.036687 0.429292
O O5 0.725533 0.391435 0.969700
O O6 0.605093 0.250000 0.926443
O O7 0.645123 0.489005 0.856752
O O8 0.596382 0.500000 0.000000
O O9 0.842838 0.250000 0.309949
O O10 0.750000 0.071709 0.250000
#
# Coordination Sequence:
#
# PCOD9535015 Si02
#       4
#    16   8  16  16
#     4  10  20  34  52  76 109 147 180 212 261 321
#     4  10  19  32  52  78 111 142 172 216 263 316
#     4  10  20  32  53  82 107 135 175 222 268 312
#     4  10  18  33  54  76 105 141 180 222 263 310
#
# _framework density 19.365081
#
# number of rings (size 3 to 8) (size 9 to 14) (size 15 to 20)
#    0.857    1.143    2.857    2.143    0.000    0.571 
#    0.000    0.000    0.000    5.143    0.000    0.000 
#    0.000    0.000    0.000    0.000    0.000    0.000 
#
# Total GULP energy -155890.323459 kJ/mol
# GULP energy per Si atom -5567.511552 kJ/mol
# Density = 1.932101 g / cm^3
# Si number density = 19.365081 Si / 1000 Ang^3
#
#
#
# Elastic Constant Matrix: (Units=GPa)
#
#
# Indices 1 2 3 4 5 6 
#
# 1 51.6828 -1.8875 -5.2700 0.0000 0.0000 0.0000
# 2 -1.8875 114.4886 68.7409 0.0000 0.0000 0.0000
# 3 -5.2700 68.7409 85.3556 0.0000 0.0000 0.0000
# 4 0.0000 0.0000 0.0000 -12.5463 0.0000 0.0000
# 5 0.0000 0.0000 0.0000 0.0000 -129.9505 0.0000
# 6 0.0000 0.0000 0.0000 0.0000 0.0000 -6.3915
#
#
#
# Elastic Compliance Matrix: (Units=1/GPa)
#
#
# Indices 1 2 3 4 5 6 
#
# 1 0.019507 -0.000778 0.001831 0.000000 0.000000 0.000000
# 2 -0.000778 0.016943 -0.013693 0.000000 0.000000 0.000000
# 3 0.001831 -0.013693 0.022857 0.000000 0.000000 0.000000
# 4 0.000000 0.000000 0.000000 -0.079705 0.000000 0.000000
# 5 0.000000 0.000000 0.000000 0.000000 -0.007695 0.000000
# 6 0.000000 0.000000 0.000000 0.000000 0.000000 -0.156458
#
#
# Mechanical properties :
#
#
# Convention : Reuss Voigt Hill
#
# Bulk Modulus (GPa) = 29.38883 41.63265 35.51074
# Shear Modulus (GPa) = -33.80014 -17.11475 -25.45744
#
# Velocity S-wave (km/s) = -4.18235 -2.97609 -3.62968
# Velocity P-wave (km/s) = 2.84844 3.12025 0.90066
#
# Compressibility (1/GPa) = 0.03402653
#
# Stress axis : x y z
#
# Youngs Moduli (GPa) = 51.26346 59.02017 43.75112
#
# Poissons Ratio (x) = 0.04589 -0.08009
# Poissons Ratio (y) = 0.03986 0.59910
# Poissons Ratio (z) = -0.09384 0.80818
#
# Static dielectric constant tensor:
#      x y z
#    x 1.861210 0.000000 0.000000 
#    y 0.000000 1.684980 0.000000 
#    z 0.000000 0.000000 1.679060 
# 
# From -- ./inp_files/43517.got.cif
#   From: 2010.05.17/outbox.cif.g08.bks.cpg/sg74_22_cif.got.tgz:43517.got - 2010.06.03 17:57:02.
