data_PCOD9535686
_publ_section_title
;
Structure prediction by ZEFSAII (Michael W. Deem and Ramdas Pophale) SiO2 
 PCOD9535686
Probable space group: I M M A
;
_chemical_formula_sum "Si O2"
_cell_formula_units_Z 112
_cell_length_a 14.567578
_cell_length_b 14.665470
_cell_length_c 29.335160
_cell_angle_alpha 90.000000
_cell_angle_beta 90.000000
_cell_angle_gamma 90.000000
_cell_volume 6267.174675
_symmetry_space_group_name_H-M "I M M A"
_symmetry_group_IT_number 74
_symmetry_cell_setting 'orthorhombic'
loop_
_space_group_symop_operation_xyz
x,y,z
-x,1/2-y,z
x,-y,-z
-x,1/2+y,-z
-x,-y,-z
x,1/2+y,-z
-x,y,z
x,1/2-y,z
1/2+x,1/2+y,1/2+z
1/2-x,-y,1/2+z
1/2+x,1/2-y,1/2-z
1/2-x,y,1/2-z
1/2-x,1/2-y,1/2-z
1/2+x,y,1/2-z
1/2-x,1/2+y,1/2+z
1/2+x,-y,1/2+z
loop_
_atom_site_type_symbol
_atom_site_label
_atom_site_fract_x
_atom_site_fract_y
_atom_site_fract_z
Si Si1 0.826005 0.149746 0.576527
Si Si2 0.610962 0.552339 0.815395
Si Si3 0.775271 0.975454 0.950274
Si Si4 0.770589 0.640126 0.867486
Si Si5 0.395588 0.859239 0.718590
Si Si6 0.107358 0.848971 0.322043
Si Si7 0.398709 0.644031 0.977950
O O1 0.782089 0.250000 0.573214
O O2 0.880800 0.146101 0.623353
O O3 0.891456 0.141249 0.532809
O O4 0.751690 0.070357 0.573164
O O5 0.500000 0.554415 0.824248
O O6 0.669817 0.598537 0.855801
O O7 0.629694 0.605320 0.768513
O O8 0.641994 0.447736 0.806851
O O9 0.815188 0.908133 0.911872
O O10 0.680758 0.922120 0.961842
O O11 0.818095 0.000000 0.000000
O O12 0.766588 0.750000 0.872430
O O13 0.829778 0.615540 0.822823
O O14 0.500000 0.889970 0.709368
O O15 0.394805 0.750000 0.720858
O O16 0.147363 0.750000 0.307548
O O17 0.000000 0.846907 0.310254
O O18 0.500000 0.616468 0.962823
O O19 0.382901 0.750000 0.964437
#
# Coordination Sequence:
#
# PCOD9535686 Si02
#       7
#    16  16  16  16  16  16  16
#     4   9  16  27  41  56  82 124 172 207 230 268
#     4  10  19  31  50  78 110 141 170 205 248 298
#     4  10  20  31  44  65  94 127 162 206 250 297
#     4  11  21  34  53  77 104 134 168 207 252 305
#     4   9  19  36  57  79 102 129 163 205 257 314
#     4   9  16  26  42  64  93 132 174 207 232 268
#     4   9  17  27  39  57  86 126 168 204 237 279
#
# _framework density 17.870891
#
# number of rings (size 3 to 8) (size 9 to 14) (size 15 to 20)
#    0.000    2.429    1.429    1.714    0.000    8.000 
#    0.000    0.000    0.000    3.000    0.000    0.000 
#    0.000    0.000    0.000    0.000    0.000    0.000 
#
# Total GULP energy -311786.032249 kJ/mol
# GULP energy per Si atom -5567.607719 kJ/mol
# Density = 1.783022 g / cm^3
# Si number density = 17.870891 Si / 1000 Ang^3
#
#
#
# Elastic Constant Matrix: (Units=GPa)
#
#
# Indices 1 2 3 4 5 6 
#
# 1 16.1869 4.6217 14.1795 0.0000 0.0000 0.0000
# 2 4.6217 63.3472 8.7028 0.0000 0.0000 0.0000
# 3 14.1795 8.7028 69.4007 0.0000 0.0000 0.0000
# 4 0.0000 0.0000 0.0000 32.4874 0.0000 0.0000
# 5 0.0000 0.0000 0.0000 0.0000 11.8980 0.0000
# 6 0.0000 0.0000 0.0000 0.0000 0.0000 7.6492
#
#
#
# Elastic Compliance Matrix: (Units=1/GPa)
#
#
# Indices 1 2 3 4 5 6 
#
# 1 0.075988 -0.003471 -0.015090 0.000000 0.000000 0.000000
# 2 -0.003471 0.016221 -0.001325 0.000000 0.000000 0.000000
# 3 -0.015090 -0.001325 0.017658 0.000000 0.000000 0.000000
# 4 0.000000 0.000000 0.000000 0.030781 0.000000 0.000000
# 5 0.000000 0.000000 0.000000 0.000000 0.084047 0.000000
# 6 0.000000 0.000000 0.000000 0.000000 0.000000 0.130733
#
#
# Mechanical properties :
#
#
# Convention : Reuss Voigt Hill
#
# Bulk Modulus (GPa) = 14.26620 22.66033 18.46326
# Shear Modulus (GPa) = 11.94551 18.50230 15.22390
#
# Velocity S-wave (km/s) = 2.58821 3.22115 2.92187
# Velocity P-wave (km/s) = 4.11486 5.15189 4.66230
#
# Compressibility (1/GPa) = 0.07009574
#
# Stress axis : x y z
#
# Youngs Moduli (GPa) = 13.15993 61.64746 56.63038
#
# Poissons Ratio (x) = 0.21397 0.85456
# Poissons Ratio (y) = 0.04568 0.07503
# Poissons Ratio (z) = 0.19859 0.08168
#
# Static dielectric constant tensor:
#      x y z
#    x 1.619480 0.000000 0.000000 
#    y 0.000000 1.671310 0.000000 
#    z 0.000000 0.000000 1.638150 
# 
# From -- ./inp_files/72648.got.cif
#   From: 2010.05.17/outbox.cif.g08.bks.cpg/sg74_37_cif.got.tgz:72648.got - 2010.06.03 17:57:02.
