data_PCOD9535906
_publ_section_title
;
Structure prediction by ZEFSAII (Michael W. Deem and Ramdas Pophale) SiO2 
 PCOD9535906
Probable space group: I M M A
;
_chemical_formula_sum "Si O2"
_cell_formula_units_Z 68
_cell_length_a 24.989553
_cell_length_b 7.636328
_cell_length_c 19.494152
_cell_angle_alpha 90.000000
_cell_angle_beta 90.000000
_cell_angle_gamma 90.000000
_cell_volume 3720.038289
_symmetry_space_group_name_H-M "I M M A"
_symmetry_group_IT_number 74
_symmetry_cell_setting 'orthorhombic'
loop_
_space_group_symop_operation_xyz
x,y,z
-x,1/2-y,z
x,-y,-z
-x,1/2+y,-z
-x,-y,-z
x,1/2+y,-z
-x,y,z
x,1/2-y,z
1/2+x,1/2+y,1/2+z
1/2-x,-y,1/2+z
1/2+x,1/2-y,1/2-z
1/2-x,y,1/2-z
1/2-x,1/2-y,1/2-z
1/2+x,y,1/2-z
1/2-x,1/2+y,1/2+z
1/2+x,-y,1/2+z
loop_
_atom_site_type_symbol
_atom_site_label
_atom_site_fract_x
_atom_site_fract_y
_atom_site_fract_z
Si Si1 0.194950 0.952916 0.717586
Si Si2 0.585151 0.047411 0.716660
Si Si3 0.000000 0.250000 0.252939
Si Si4 0.241208 0.541179 0.422208
Si Si5 0.863426 0.540972 0.077346
O O1 0.190708 0.750000 0.738505
O O2 0.250000 0.025483 0.750000
O O3 0.142409 0.045494 0.745201
O O4 0.203423 0.965014 0.636179
O O5 0.565893 0.250000 0.715723
O O6 0.597841 0.985562 0.638444
O O7 0.546279 0.905890 0.749715
O O8 0.225077 0.500000 0.500000
O O9 0.241885 0.750000 0.413568
O O10 0.302492 0.472933 0.413618
O O11 0.859867 0.750000 0.083259
O O12 0.881014 0.500000 0.000000
#
# Coordination Sequence:
#
# PCOD9535906 Si02
#       5
#    16  16   4  16  16
#     4  11  21  34  58  91 122 155 193 238 303 372
#     4  11  23  41  62  85 115 157 203 255 303 355
#     4  12  26  44  60  82 112 156 216 264 304 330
#     4  10  19  32  51  84 125 157 185 230 289 366
#     4   9  19  32  54  80 113 157 196 235 296 356
#
# _framework density 18.279382999999999
#
# number of rings (size 3 to 8) (size 9 to 14) (size 15 to 20)
#    0.000    1.647    3.529    1.765    1.647    1.882 
#    0.000    0.588    0.000    0.000    0.000    0.824 
#    0.000    0.000    0.000    0.000    0.000    0.000 
#
# Total GULP energy -189276.699721 kJ/mol
# GULP energy per Si atom -5566.961757 kJ/mol
# Density = 1.823778 g / cm^3
# Si number density = 18.279383 Si / 1000 Ang^3
#
#
#
# Elastic Constant Matrix: (Units=GPa)
#
#
# Indices 1 2 3 4 5 6 
#
# 1 84.6662 29.1526 14.8776 0.0000 0.0000 0.0000
# 2 29.1526 91.7202 1.2227 0.0000 0.0000 0.0000
# 3 14.8776 1.2227 54.5724 0.0000 0.0000 0.0000
# 4 0.0000 0.0000 0.0000 18.7711 0.0000 0.0000
# 5 0.0000 0.0000 0.0000 0.0000 -7.3482 0.0000
# 6 0.0000 0.0000 0.0000 0.0000 0.0000 -34.5430
#
#
#
# Elastic Compliance Matrix: (Units=1/GPa)
#
#
# Indices 1 2 3 4 5 6 
#
# 1 0.013976 -0.004393 -0.003712 0.000000 0.000000 0.000000
# 2 -0.004393 0.012287 0.000922 0.000000 0.000000 0.000000
# 3 -0.003712 0.000922 0.019315 0.000000 0.000000 0.000000
# 4 0.000000 0.000000 0.000000 0.053273 0.000000 0.000000
# 5 0.000000 0.000000 0.000000 0.000000 -0.136088 0.000000
# 6 0.000000 0.000000 0.000000 0.000000 0.000000 -0.028949
#
#
# Mechanical properties :
#
#
# Convention : Reuss Voigt Hill
#
# Bulk Modulus (GPa) = 32.03716 35.71829 33.87773
# Shear Modulus (GPa) = -120.72196 7.75638 -56.48279
#
# Velocity S-wave (km/s) = -8.13548 2.06215 -5.56478
# Velocity P-wave (km/s) = 8.40736 5.02519 4.76608
#
# Compressibility (1/GPa) = 0.03121375
#
# Stress axis : x y z
#
# Youngs Moduli (GPa) = 71.55230 81.38948 51.77190
#
# Poissons Ratio (x) = 0.35751 0.19216
# Poissons Ratio (y) = 0.31430 -0.04775
# Poissons Ratio (z) = 0.26558 -0.07506
#
# Static dielectric constant tensor:
#      x y z
#    x 1.614540 0.000000 0.000000 
#    y 0.000000 1.659590 0.000000 
#    z 0.000000 0.000000 1.646800 
# 
# From -- ./inp_files/39177.got.cif
#   From: 2010.05.17/outbox.cif.g08.bks.cpg/sg74_20_cif.got.tgz:39177.got - 2010.06.03 17:57:02.
