data_PCOD9535191
_publ_section_title
;
Structure prediction by ZEFSAII (Michael W. Deem and Ramdas Pophale) SiO2 
 PCOD9535191
Probable space group: I M M A
;
_chemical_formula_sum "Si O2"
_cell_formula_units_Z 80
_cell_length_a 9.385919
_cell_length_b 28.881587
_cell_length_c 22.706919
_cell_angle_alpha 90.000000
_cell_angle_beta 90.000000
_cell_angle_gamma 90.000000
_cell_volume 6155.396965
_symmetry_space_group_name_H-M "I M M A"
_symmetry_group_IT_number 74
_symmetry_cell_setting 'orthorhombic'
loop_
_space_group_symop_operation_xyz
x,y,z
-x,1/2-y,z
x,-y,-z
-x,1/2+y,-z
-x,-y,-z
x,1/2+y,-z
-x,y,z
x,1/2-y,z
1/2+x,1/2+y,1/2+z
1/2-x,-y,1/2+z
1/2+x,1/2-y,1/2-z
1/2-x,y,1/2-z
1/2-x,1/2-y,1/2-z
1/2+x,y,1/2-z
1/2-x,1/2+y,1/2+z
1/2+x,-y,1/2+z
loop_
_atom_site_type_symbol
_atom_site_label
_atom_site_fract_x
_atom_site_fract_y
_atom_site_fract_z
Si Si1 0.666575 0.371653 0.606684
Si Si2 0.835036 0.515714 0.595230
Si Si3 0.165169 0.924080 0.487640
Si Si4 0.666304 0.962823 0.310740
Si Si5 0.833884 0.305563 0.690081
O O1 0.500000 0.360006 0.601458
O O2 0.733883 0.387791 0.544826
O O3 0.678582 0.415690 0.650988
O O4 0.757095 0.331081 0.636474
O O5 0.793020 0.558166 0.552630
O O6 0.831796 0.470124 0.553386
O O7 0.735594 0.503416 0.649814
O O8 0.000000 0.521941 0.613262
O O9 0.000000 0.908611 0.489005
O O10 0.500000 0.971260 0.299932
O O11 0.750000 0.957645 0.250000
O O12 0.827178 0.250000 0.683635
O O13 0.750000 0.317849 0.750000
O O14 0.000000 0.319178 0.694613
#
# Coordination Sequence:
#
# PCOD9535191 Si02
#       5
#    16  16  16  16  16
#     4  10  19  28  40  57  74  94 121 154 189 223
#     4   8  14  25  39  53  70  93 119 147 181 217
#     4   8  14  25  40  55  71  92 117 147 182 218
#     4  10  19  27  36  52  73  97 124 154 186 219
#     4  10  20  32  44  56  71  93 121 154 192 231
#
# _framework density 12.996726000000001
#
# number of rings (size 3 to 8) (size 9 to 14) (size 15 to 20)
#    0.000    2.800    0.000    3.600    0.000    6.000 
#    0.000    4.000    0.000    0.000    0.000    0.000 
#    0.000    0.000    0.000    0.000    0.000    1.000 
#
# Total GULP energy -222789.239180 kJ/mol
# GULP energy per Si atom -5569.730980 kJ/mol
# Density = 1.296714 g / cm^3
# Si number density = 12.996726 Si / 1000 Ang^3
#
#
#
# Elastic Constant Matrix: (Units=GPa)
#
#
# Indices 1 2 3 4 5 6 
#
# 1 89.9444 24.6217 30.1293 0.0000 0.0000 0.0000
# 2 24.6217 20.9403 6.7558 0.0000 0.0000 0.0000
# 3 30.1293 6.7558 25.1749 0.0000 0.0000 0.0000
# 4 0.0000 0.0000 0.0000 24.4988 0.0000 0.0000
# 5 0.0000 0.0000 0.0000 0.0000 23.4935 0.0000
# 6 0.0000 0.0000 0.0000 0.0000 0.0000 13.4361
#
#
#
# Elastic Compliance Matrix: (Units=1/GPa)
#
#
# Indices 1 2 3 4 5 6 
#
# 1 0.025259 -0.021838 -0.024370 0.000000 0.000000 0.000000
# 2 -0.021838 0.071161 0.007039 0.000000 0.000000 0.000000
# 3 -0.024370 0.007039 0.066999 0.000000 0.000000 0.000000
# 4 0.000000 0.000000 0.000000 0.040818 0.000000 0.000000
# 5 0.000000 0.000000 0.000000 0.000000 0.042565 0.000000
# 6 0.000000 0.000000 0.000000 0.000000 0.000000 0.074426
#
#
# Mechanical properties :
#
#
# Convention : Reuss Voigt Hill
#
# Bulk Modulus (GPa) = 11.75343 28.78591 20.26967
# Shear Modulus (GPa) = 11.68425 17.25587 14.47006
#
# Velocity S-wave (km/s) = 3.00161 3.64773 3.34033
# Velocity P-wave (km/s) = 4.59085 6.31964 5.52330
#
# Compressibility (1/GPa) = 0.08508155
#
# Stress axis : x y z
#
# Youngs Moduli (GPa) = 39.58948 14.05268 14.92562
#
# Poissons Ratio (x) = 0.30688 0.36374
# Poissons Ratio (y) = 0.86454 -0.10506
# Poissons Ratio (z) = 0.96479 -0.09892
#
# Static dielectric constant tensor:
#      x y z
#    x 1.433600 0.000000 0.000000 
#    y 0.000000 1.413260 0.000000 
#    z 0.000000 0.000000 1.419680 
# 
# From -- ./inp_files/39960.got.cif
#   From: 2010.05.17/outbox.cif.g08.bks.cpg/sg74_20_cif.got.tgz:39960.got - 2010.06.03 17:57:02.
