data_PCOD9535399
_publ_section_title
;
Structure prediction by ZEFSAII (Michael W. Deem and Ramdas Pophale) SiO2 
 PCOD9535399
Probable space group: I M M A
;
_chemical_formula_sum "Si O2"
_cell_formula_units_Z 96
_cell_length_a 18.734488
_cell_length_b 9.047439
_cell_length_c 33.562283
_cell_angle_alpha 90.000000
_cell_angle_beta 90.000000
_cell_angle_gamma 90.000000
_cell_volume 5688.778017
_symmetry_space_group_name_H-M "I M M A"
_symmetry_group_IT_number 74
_symmetry_cell_setting 'orthorhombic'
loop_
_space_group_symop_operation_xyz
x,y,z
-x,1/2-y,z
x,-y,-z
-x,1/2+y,-z
-x,-y,-z
x,1/2+y,-z
-x,y,z
x,1/2-y,z
1/2+x,1/2+y,1/2+z
1/2-x,-y,1/2+z
1/2+x,1/2-y,1/2-z
1/2-x,y,1/2-z
1/2-x,1/2-y,1/2-z
1/2+x,y,1/2-z
1/2-x,1/2+y,1/2+z
1/2+x,-y,1/2+z
loop_
_atom_site_type_symbol
_atom_site_label
_atom_site_fract_x
_atom_site_fract_y
_atom_site_fract_z
Si Si1 0.417091 0.572604 0.824019
Si Si2 0.275242 0.073292 0.542158
Si Si3 0.207608 0.074160 0.382530
Si Si4 0.855426 0.425134 0.162222
Si Si5 0.415171 0.925477 0.260084
Si Si6 0.579641 0.927331 0.414391
O O1 0.500000 0.537664 0.832456
O O2 0.411255 0.750000 0.818605
O O3 0.364239 0.530587 0.859637
O O4 0.396677 0.494311 0.782735
O O5 0.270970 0.250000 0.539516
O O6 0.356079 0.031991 0.555973
O O7 0.259130 0.000000 0.500000
O O8 0.224681 0.013396 0.577273
O O9 0.205292 0.250000 0.391245
O O10 0.274505 0.049982 0.352765
O O11 0.867751 0.250000 0.164755
O O12 0.872417 0.500098 0.204094
O O13 0.904488 0.495300 0.127692
O O14 0.500000 0.953253 0.266486
O O15 0.403963 0.750000 0.259842
O O16 0.500000 0.965160 0.428538
O O17 0.583119 0.750000 0.408612
#
# Coordination Sequence:
#
# PCOD9535399 Si02
#       6
#    16  16  16  16  16  16
#     4   9  18  34  55  75  95 123 159 198 242 292
#     4  10  20  34  53  75  99 128 160 195 238 287
#     4   9  19  35  53  74  99 125 156 197 244 291
#     4  10  19  30  46  69  98 132 168 204 240 279
#     4  10  20  32  46  67  98 134 169 205 241 277
#     4   9  18  32  48  68  97 132 168 204 240 277
#
# _framework density 16.875328
#
# number of rings (size 3 to 8) (size 9 to 14) (size 15 to 20)
#    0.000    2.500    0.000    2.000    0.000    6.333 
#    0.000    3.333    0.000    0.500    0.000    0.000 
#    0.000    0.000    0.000    0.000    0.000    0.000 
#
# Total GULP energy -267806.420246 kJ/mol
# GULP energy per Si atom -5579.300422 kJ/mol
# Density = 1.683692 g / cm^3
# Si number density = 16.875328 Si / 1000 Ang^3
#
#
#
# Elastic Constant Matrix: (Units=GPa)
#
#
# Indices 1 2 3 4 5 6 
#
# 1 48.1871 34.5660 65.8473 0.0000 0.0000 0.0000
# 2 34.5660 42.3778 62.2238 0.0000 0.0000 0.0000
# 3 65.8473 62.2238 150.6066 0.0000 0.0000 0.0000
# 4 0.0000 0.0000 0.0000 31.0503 0.0000 0.0000
# 5 0.0000 0.0000 0.0000 0.0000 8.6109 0.0000
# 6 0.0000 0.0000 0.0000 0.0000 0.0000 18.9693
#
#
#
# Elastic Compliance Matrix: (Units=1/GPa)
#
#
# Indices 1 2 3 4 5 6 
#
# 1 0.061929 -0.027346 -0.015778 0.000000 0.000000 0.000000
# 2 -0.027346 0.072064 -0.017818 0.000000 0.000000 0.000000
# 3 -0.015778 -0.017818 0.020900 0.000000 0.000000 0.000000
# 4 0.000000 0.000000 0.000000 0.032206 0.000000 0.000000
# 5 0.000000 0.000000 0.000000 0.000000 0.116132 0.000000
# 6 0.000000 0.000000 0.000000 0.000000 0.000000 0.052717
#
#
# Mechanical properties :
#
#
# Convention : Reuss Voigt Hill
#
# Bulk Modulus (GPa) = 30.29436 62.93842 46.61639
# Shear Modulus (GPa) = 10.22840 16.96173 13.59507
#
# Velocity S-wave (km/s) = 2.46461 3.17380 2.84142
# Velocity P-wave (km/s) = 5.10783 7.12796 6.20071
#
# Compressibility (1/GPa) = 0.03300945
#
# Stress axis : x y z
#
# Youngs Moduli (GPa) = 16.14744 13.87649 47.84767
#
# Poissons Ratio (x) = 0.37947 0.75495
# Poissons Ratio (y) = 0.44157 0.85253
# Poissons Ratio (z) = 0.25478 0.24725
#
# Static dielectric constant tensor:
#      x y z
#    x 1.577060 0.000000 0.000000 
#    y 0.000000 1.560990 0.000000 
#    z 0.000000 0.000000 1.532000 
# 
# From -- ./inp_files/64277.got.cif
#   From: 2010.05.17/outbox.cif.g08.bks.cpg/sg74_33_cif.got.tgz:64277.got - 2010.06.03 17:57:02.
