data_PCOD9535391
_publ_section_title
;
Structure prediction by ZEFSAII (Michael W. Deem and Ramdas Pophale) SiO2 
 PCOD9535391
Probable space group: I M M A
;
_chemical_formula_sum "Si O2"
_cell_formula_units_Z 96
_cell_length_a 12.007256
_cell_length_b 19.108901
_cell_length_c 17.889322
_cell_angle_alpha 90.000000
_cell_angle_beta 90.000000
_cell_angle_gamma 90.000000
_cell_volume 4104.623826
_symmetry_space_group_name_H-M "I M M A"
_symmetry_group_IT_number 74
_symmetry_cell_setting 'orthorhombic'
loop_
_space_group_symop_operation_xyz
x,y,z
-x,1/2-y,z
x,-y,-z
-x,1/2+y,-z
-x,-y,-z
x,1/2+y,-z
-x,y,z
x,1/2-y,z
1/2+x,1/2+y,1/2+z
1/2-x,-y,1/2+z
1/2+x,1/2-y,1/2-z
1/2-x,y,1/2-z
1/2-x,1/2-y,1/2-z
1/2+x,y,1/2-z
1/2-x,1/2+y,1/2+z
1/2+x,-y,1/2+z
loop_
_atom_site_type_symbol
_atom_site_label
_atom_site_fract_x
_atom_site_fract_y
_atom_site_fract_z
Si Si1 0.125454 0.476302 0.366150
Si Si2 0.373913 0.750000 0.971570
Si Si3 0.239873 0.615507 0.966962
Si Si4 0.240916 0.891488 0.147031
Si Si5 0.621949 0.669866 0.777061
Si Si6 0.000000 0.560485 0.120734
Si Si7 0.130897 0.750000 0.346633
Si Si8 0.500000 0.091285 0.439368
O O1 0.207604 0.453760 0.432637
O O2 0.183407 0.542981 0.328690
O O3 0.117528 0.404917 0.319459
O O4 0.000000 0.495172 0.390668
O O5 0.500000 0.750000 0.949870
O O6 0.314678 0.680566 0.945654
O O7 0.371614 0.750000 0.062539
O O8 0.118223 0.627897 0.932721
O O9 0.242659 0.611958 0.056230
O O10 0.110197 0.907696 0.159042
O O11 0.299456 0.819880 0.173756
O O12 0.500000 0.667416 0.734084
O O13 0.617722 0.750000 0.808447
O O14 0.750000 0.667341 0.750000
O O15 0.000000 0.476085 0.115221
O O16 0.000000 0.574817 0.030141
O O17 0.000000 0.750000 0.321958
#
# Coordination Sequence:
#
# PCOD9535391 Si02
#       8
#    16   8  16  16  16   8   8   8
#     4  11  21  31  51  78 102 134 175 215 264 324
#     4   9  18  29  41  61  94 134 177 214 250 299
#     4  10  19  30  46  68 103 143 176 217 260 305
#     4  10  19  32  48  71 105 144 179 215 256 306
#     4   9  20  41  63  82 107 137 174 227 285 334
#     4   9  16  29  45  61  93 137 181 221 256 296
#     4   9  18  31  45  65  98 138 175 210 246 297
#     4   9  16  29  43  59  93 137 177 223 261 293
#
# _framework density 23.388255999999998
#
# number of rings (size 3 to 8) (size 9 to 14) (size 15 to 20)
#    0.000    2.333    1.667    1.500    1.167    3.333 
#    3.000    3.333    0.000    0.000    0.000    0.583 
#    0.000    0.000    0.000    0.000    0.000    0.000 
#
# Total GULP energy -267501.713130 kJ/mol
# GULP energy per Si atom -5572.952357 kJ/mol
# Density = 2.333502 g / cm^3
# Si number density = 23.388256 Si / 1000 Ang^3
#
#
#
# Elastic Constant Matrix: (Units=GPa)
#
#
# Indices 1 2 3 4 5 6 
#
# 1 248.5466 87.6033 46.6992 0.0000 0.0000 0.0000
# 2 87.6033 177.3119 23.5012 0.0000 0.0000 0.0000
# 3 46.6992 23.5012 41.3215 0.0000 0.0000 0.0000
# 4 0.0000 0.0000 0.0000 0.4767 0.0000 0.0000
# 5 0.0000 0.0000 0.0000 0.0000 -2.6111 0.0000
# 6 0.0000 0.0000 0.0000 0.0000 0.0000 40.2441
#
#
#
# Elastic Compliance Matrix: (Units=1/GPa)
#
#
# Indices 1 2 3 4 5 6 
#
# 1 0.005779 -0.002152 -0.005307 0.000000 0.000000 0.000000
# 2 -0.002152 0.006901 -0.001493 0.000000 0.000000 0.000000
# 3 -0.005307 -0.001493 0.031048 0.000001 0.000000 0.000000
# 4 0.000000 0.000000 0.000001 2.097941 0.000001 0.000000
# 5 0.000000 0.000000 0.000000 0.000001 -0.382977 0.000000
# 6 0.000000 0.000000 0.000000 0.000000 0.000000 0.024848
#
#
# Mechanical properties :
#
#
# Convention : Reuss Voigt Hill
#
# Bulk Modulus (GPa) = 38.72471 86.97640 62.85056
# Shear Modulus (GPa) = 2.76235 28.24702 15.50468
#
# Velocity S-wave (km/s) = 1.08796 3.47903 2.57753
# Velocity P-wave (km/s) = 4.26280 7.30801 5.98241
#
# Compressibility (1/GPa) = 0.02582330
#
# Stress axis : x y z
#
# Youngs Moduli (GPa) = 173.04089 144.91161 32.20866
#
# Poissons Ratio (x) = 0.31181 0.17094
# Poissons Ratio (y) = 0.37234 0.04809
# Poissons Ratio (z) = 0.91838 0.21635
#
# Static dielectric constant tensor:
#      x y z
#    x 1.873440 0.000000 0.000000 
#    y 0.000000 1.791150 0.000000 
#    z 0.000000 0.000000 1.947230 
# 
# From -- ./inp_files/58931.got.cif
#   From: 2010.05.17/outbox.cif.g08.bks.cpg/sg74_30_cif.got.tgz:58931.got - 2010.06.03 17:57:02.
