data_PCOD9535524
_publ_section_title
;
Structure prediction by ZEFSAII (Michael W. Deem and Ramdas Pophale) SiO2 
 PCOD9535524
Probable space group: I M M A
;
_chemical_formula_sum "Si O2"
_cell_formula_units_Z 56
_cell_length_a 14.365676
_cell_length_b 7.761532
_cell_length_c 24.721125
_cell_angle_alpha 90.000000
_cell_angle_beta 90.000000
_cell_angle_gamma 90.000000
_cell_volume 2756.396883
_symmetry_space_group_name_H-M "I M M A"
_symmetry_group_IT_number 74
_symmetry_cell_setting 'orthorhombic'
loop_
_space_group_symop_operation_xyz
x,y,z
-x,1/2-y,z
x,-y,-z
-x,1/2+y,-z
-x,-y,-z
x,1/2+y,-z
-x,y,z
x,1/2-y,z
1/2+x,1/2+y,1/2+z
1/2-x,-y,1/2+z
1/2+x,1/2-y,1/2-z
1/2-x,y,1/2-z
1/2-x,1/2-y,1/2-z
1/2+x,y,1/2-z
1/2-x,1/2+y,1/2+z
1/2+x,-y,1/2+z
loop_
_atom_site_type_symbol
_atom_site_label
_atom_site_fract_x
_atom_site_fract_y
_atom_site_fract_z
Si Si1 0.214778 0.455556 0.168224
Si Si2 0.000000 0.957017 0.436151
Si Si3 0.702500 0.953924 0.062548
Si Si4 0.602778 0.039279 0.231326
O O1 0.216678 0.250000 0.173487
O O2 0.218734 0.495430 0.105094
O O3 0.311813 0.521430 0.194266
O O4 0.131492 0.512607 0.207440
O O5 0.899076 0.027049 0.418300
O O6 0.000000 0.750000 0.428244
O O7 0.000000 0.000000 0.500000
O O8 0.694225 0.750000 0.064285
O O9 0.718716 0.000000 0.000000
O O10 0.500000 0.978277 0.215956
O O11 0.601345 0.250000 0.228985
#
# Coordination Sequence:
#
# PCOD9535524 Si02
#       4
#    16   8  16  16
#     4   9  17  29  48  73  95 121 159 193 228 275
#     4   8  16  28  40  58  86 120 152 180 217 268
#     4  10  19  31  46  66  95 126 156 191 232 278
#     4   8  15  29  48  70  96 125 156 191 230 275
#
# _framework density 20.316378
#
# number of rings (size 3 to 8) (size 9 to 14) (size 15 to 20)
#    0.000    3.143    0.000    2.571    2.000    1.143 
#    0.000    2.857    0.000    3.429    0.000    0.000 
#    0.000    0.000    0.000    0.000    0.000    0.000 
#
# Total GULP energy -155941.855447 kJ/mol
# GULP energy per Si atom -5569.351980 kJ/mol
# Density = 2.027014 g / cm^3
# Si number density = 20.316378 Si / 1000 Ang^3
#
#
#
# Elastic Constant Matrix: (Units=GPa)
#
#
# Indices 1 2 3 4 5 6 
#
# 1 34.0271 1.7993 -4.8712 0.0000 0.0000 0.0000
# 2 1.7993 29.0922 -8.4552 0.0000 0.0000 0.0000
# 3 -4.8712 -8.4552 66.4626 0.0000 0.0000 0.0000
# 4 0.0000 0.0000 0.0000 15.1077 0.0000 0.0000
# 5 0.0000 0.0000 0.0000 0.0000 6.4404 0.0000
# 6 0.0000 0.0000 0.0000 0.0000 0.0000 5.5499
#
#
#
# Elastic Compliance Matrix: (Units=1/GPa)
#
#
# Indices 1 2 3 4 5 6 
#
# 1 0.029744 -0.001252 0.002021 0.000000 0.000000 0.000000
# 2 -0.001252 0.035746 0.004456 0.000000 0.000000 0.000000
# 3 0.002021 0.004456 0.015761 0.000000 0.000000 0.000000
# 4 0.000000 0.000000 0.000000 0.066191 0.000000 0.000000
# 5 0.000000 0.000000 0.000000 0.000000 0.155269 0.000000
# 6 0.000000 0.000000 0.000000 0.000000 0.000000 0.180183
#
#
# Mechanical properties :
#
#
# Convention : Reuss Voigt Hill
#
# Bulk Modulus (GPa) = 10.90525 11.83640 11.37082
# Shear Modulus (GPa) = 9.94012 14.82688 12.38350
#
# Velocity S-wave (km/s) = 2.21434 2.70441 2.47155
# Velocity P-wave (km/s) = 3.45211 3.94848 3.70861
#
# Compressibility (1/GPa) = 0.09169897
#
# Stress axis : x y z
#
# Youngs Moduli (GPa) = 33.62037 27.97520 63.44771
#
# Poissons Ratio (x) = 0.03503 -0.12821
# Poissons Ratio (y) = 0.04210 -0.28271
# Poissons Ratio (z) = -0.06794 -0.12465
#
# Static dielectric constant tensor:
#      x y z
#    x 1.756210 0.000000 0.000000 
#    y 0.000000 1.738450 0.000000 
#    z 0.000000 0.000000 1.733110 
# 
# From -- ./inp_files/47835.got.cif
#   From: 2010.05.17/outbox.cif.g08.bks.cpg/sg74_24_cif.got.tgz:47835.got - 2010.06.03 17:57:02.
