data_PCOD9535480
_publ_section_title
;
Structure prediction by ZEFSAII (Michael W. Deem and Ramdas Pophale) SiO2 
 PCOD9535480
Probable space group: I M M A
;
_chemical_formula_sum "Si O2"
_cell_formula_units_Z 112
_cell_length_a 17.354762
_cell_length_b 22.592149
_cell_length_c 16.849040
_cell_angle_alpha 90.000000
_cell_angle_beta 90.000000
_cell_angle_gamma 90.000000
_cell_volume 6606.194669
_symmetry_space_group_name_H-M "I M M A"
_symmetry_group_IT_number 74
_symmetry_cell_setting 'orthorhombic'
loop_
_space_group_symop_operation_xyz
x,y,z
-x,1/2-y,z
x,-y,-z
-x,1/2+y,-z
-x,-y,-z
x,1/2+y,-z
-x,y,z
x,1/2-y,z
1/2+x,1/2+y,1/2+z
1/2-x,-y,1/2+z
1/2+x,1/2-y,1/2-z
1/2-x,y,1/2-z
1/2-x,1/2-y,1/2-z
1/2+x,y,1/2-z
1/2-x,1/2+y,1/2+z
1/2+x,-y,1/2+z
loop_
_atom_site_type_symbol
_atom_site_label
_atom_site_fract_x
_atom_site_fract_y
_atom_site_fract_z
Si Si1 0.821933 0.396811 0.194086
Si Si2 0.670415 0.372851 0.588616
Si Si3 0.414472 0.611603 0.252796
Si Si4 0.407607 0.679196 0.566087
Si Si5 0.588114 0.016973 0.195720
Si Si6 0.200288 0.186081 0.668436
Si Si7 0.258427 0.497739 0.905680
O O1 0.750000 0.378094 0.250000
O O2 0.861952 0.346003 0.142327
O O3 0.884028 0.427794 0.252004
O O4 0.788992 0.448361 0.135039
O O5 0.613729 0.364504 0.662975
O O6 0.625578 0.358781 0.508210
O O7 0.740932 0.327333 0.598398
O O8 0.710670 0.436587 0.604963
O O9 0.500000 0.632219 0.237166
O O10 0.412535 0.540862 0.251839
O O11 0.360362 0.635048 0.183150
O O12 0.500000 0.669887 0.573271
O O13 0.395170 0.750000 0.554867
O O14 0.500000 0.023940 0.165314
O O15 0.656557 0.002905 0.133322
O O16 0.163197 0.250000 0.660019
O O17 0.250000 0.186198 0.750000
O O18 0.266130 0.500000 0.000000
#
# Coordination Sequence:
#
# PCOD9535480 Si02
#       7
#    16  16  16  16  16  16  16
#     4  10  21  37  60  85 109 141 181 227 276 330
#     4  11  19  34  52  78 108 145 178 220 266 323
#     4  10  19  30  49  76 107 142 180 222 263 307
#     4  11  24  40  57  81 113 145 181 227 277 328
#     4  10  20  34  54  81 111 140 176 225 276 320
#     4   9  18  30  47  69 100 144 186 217 250 304
#     4  11  20  34  56  82 108 140 179 222 269 328
#
# _framework density 16.953785
#
# number of rings (size 3 to 8) (size 9 to 14) (size 15 to 20)
#    0.000    1.714    4.286    1.286    0.000    1.429 
#    0.000    0.714    0.000    0.000    0.000    0.000 
#    0.000    1.429    0.000    0.000    0.000    0.000 
#
# Total GULP energy -311798.729761 kJ/mol
# GULP energy per Si atom -5567.834460 kJ/mol
# Density = 1.691520 g / cm^3
# Si number density = 16.953785 Si / 1000 Ang^3
#
#
#
# Elastic Constant Matrix: (Units=GPa)
#
#
# Indices 1 2 3 4 5 6 
#
# 1 116.3062 34.4523 35.0041 0.0000 0.0000 0.0000
# 2 34.4523 45.5398 6.5537 0.0000 0.0000 0.0000
# 3 35.0041 6.5537 62.3560 0.0000 0.0000 0.0000
# 4 0.0000 0.0000 0.0000 18.6342 0.0000 0.0000
# 5 0.0000 0.0000 0.0000 0.0000 20.3349 0.0000
# 6 0.0000 0.0000 0.0000 0.0000 0.0000 14.6847
#
#
#
# Elastic Compliance Matrix: (Units=1/GPa)
#
#
# Indices 1 2 3 4 5 6 
#
# 1 0.013238 -0.009083 -0.006476 0.000000 0.000000 0.000000
# 2 -0.009083 0.028528 0.002100 0.000000 0.000000 0.000000
# 3 -0.006476 0.002100 0.019452 0.000000 0.000000 0.000000
# 4 0.000000 0.000000 0.000000 0.053665 0.000000 0.000000
# 5 0.000000 0.000000 0.000000 0.000000 0.049177 0.000000
# 6 0.000000 0.000000 0.000000 0.000000 0.000000 0.068098
#
#
# Mechanical properties :
#
#
# Convention : Reuss Voigt Hill
#
# Bulk Modulus (GPa) = 29.15480 41.80247 35.47864
# Shear Modulus (GPa) = 18.48377 20.61021 19.54699
#
# Velocity S-wave (km/s) = 3.30547 3.49043 3.39921
# Velocity P-wave (km/s) = 5.63934 6.39956 6.03144
#
# Compressibility (1/GPa) = 0.03429966
#
# Stress axis : x y z
#
# Youngs Moduli (GPa) = 75.54210 35.05349 51.40906
#
# Poissons Ratio (x) = 0.31838 0.33295
# Poissons Ratio (y) = 0.68612 -0.10797
# Poissons Ratio (z) = 0.48925 -0.07362
#
# Static dielectric constant tensor:
#      x y z
#    x 1.585750 0.000000 0.000000 
#    y 0.000000 1.595470 0.000000 
#    z 0.000000 0.000000 1.563540 
# 
# From -- ./inp_files/32915.got.cif
#   From: 2010.05.17/outbox.cif.g08.bks.cpg/sg74_17_cif.got.tgz:32915.got - 2010.06.03 17:57:02.
