data_PCOD9535513
_publ_section_title
;
Structure prediction by ZEFSAII (Michael W. Deem and Ramdas Pophale) SiO2 
 PCOD9535513
Probable space group: I M M A
;
_chemical_formula_sum "Si O2"
_cell_formula_units_Z 72
_cell_length_a 8.950771
_cell_length_b 34.855005
_cell_length_c 14.575010
_cell_angle_alpha 90.000000
_cell_angle_beta 90.000000
_cell_angle_gamma 90.000000
_cell_volume 4547.099493
_symmetry_space_group_name_H-M "I M M A"
_symmetry_group_IT_number 74
_symmetry_cell_setting 'orthorhombic'
loop_
_space_group_symop_operation_xyz
x,y,z
-x,1/2-y,z
x,-y,-z
-x,1/2+y,-z
-x,-y,-z
x,1/2+y,-z
-x,y,z
x,1/2-y,z
1/2+x,1/2+y,1/2+z
1/2-x,-y,1/2+z
1/2+x,1/2-y,1/2-z
1/2-x,y,1/2-z
1/2-x,1/2-y,1/2-z
1/2+x,y,1/2-z
1/2-x,1/2+y,1/2+z
1/2+x,-y,1/2+z
loop_
_atom_site_type_symbol
_atom_site_label
_atom_site_fract_x
_atom_site_fract_y
_atom_site_fract_z
Si Si1 0.180290 0.833858 0.148616
Si Si2 0.331135 0.013316 0.893834
Si Si3 0.679758 0.250000 0.648730
Si Si4 0.819870 0.910871 0.045639
Si Si5 0.177584 0.936135 0.841683
O O1 0.250000 0.837653 0.250000
O O2 0.222387 0.791679 0.109044
O O3 0.000000 0.834892 0.157370
O O4 0.224133 0.869664 0.085659
O O5 0.500000 0.014328 0.856547
O O6 0.232961 0.980108 0.848967
O O7 0.255877 0.054945 0.896612
O O8 0.339879 0.000000 0.000000
O O9 0.500000 0.250000 0.655405
O O10 0.750000 0.250000 0.750000
O O11 0.778934 0.916410 0.938353
O O12 0.000000 0.915074 0.051555
O O13 0.250000 0.919077 0.750000
O O14 0.000000 0.935025 0.834137
#
# Coordination Sequence:
#
# PCOD9535513 Si02
#       5
#    16  16   8  16  16
#     4   9  17  29  45  66  90 115 141 170 208 254
#     4   9  17  29  44  61  82 109 142 178 214 253
#     4   8  14  26  44  64  87 112 138 168 203 250
#     4   9  18  31  45  63  89 117 145 179 217 256
#     4  10  19  31  46  62  83 114 150 186 222 256
#
# _framework density 15.834269000000001
#
# number of rings (size 3 to 8) (size 9 to 14) (size 15 to 20)
#    0.000    2.889    0.000    1.333    0.000    5.333 
#    0.000    2.222    0.000    0.000    0.000    0.778 
#    0.000    0.000    0.000    0.000    0.000    0.000 
#
# Total GULP energy -200428.490165 kJ/mol
# GULP energy per Si atom -5567.458060 kJ/mol
# Density = 1.579823 g / cm^3
# Si number density = 15.834269 Si / 1000 Ang^3
#
#
#
# Elastic Constant Matrix: (Units=GPa)
#
#
# Indices 1 2 3 4 5 6 
#
# 1 27.2858 26.1160 20.9904 0.0000 0.0000 0.0000
# 2 26.1160 152.8309 48.8137 0.0000 0.0000 0.0000
# 3 20.9904 48.8137 67.8194 0.0000 0.0000 0.0000
# 4 0.0000 0.0000 0.0000 21.3646 0.0000 0.0000
# 5 0.0000 0.0000 0.0000 0.0000 21.1850 0.0000
# 6 0.0000 0.0000 0.0000 0.0000 0.0000 14.4534
#
#
#
# Elastic Compliance Matrix: (Units=1/GPa)
#
#
# Indices 1 2 3 4 5 6 
#
# 1 0.050608 -0.004733 -0.012257 0.000000 0.000000 0.000000
# 2 -0.004733 0.008939 -0.004969 0.000000 0.000000 0.000000
# 3 -0.012257 -0.004969 0.022115 0.000000 0.000000 0.000000
# 4 0.000000 0.000000 0.000000 0.046806 0.000000 0.000000
# 5 0.000000 0.000000 0.000000 0.000000 0.047203 0.000000
# 6 0.000000 0.000000 0.000000 0.000000 0.000000 0.069188
#
#
# Mechanical properties :
#
#
# Convention : Reuss Voigt Hill
#
# Bulk Modulus (GPa) = 26.49395 48.86405 37.67900
# Shear Modulus (GPa) = 16.59150 21.53501 19.06325
#
# Velocity S-wave (km/s) = 3.24052 3.69185 3.47352
# Velocity P-wave (km/s) = 5.54704 7.00712 6.31939
#
# Compressibility (1/GPa) = 0.03774447
#
# Stress axis : x y z
#
# Youngs Moduli (GPa) = 19.75960 111.86790 45.21804
#
# Poissons Ratio (x) = 0.52950 0.55422
# Poissons Ratio (y) = 0.09353 0.22469
# Poissons Ratio (z) = 0.24219 0.55588
#
# Static dielectric constant tensor:
#      x y z
#    x 1.537460 0.000000 0.000000 
#    y 0.000000 1.544060 0.000000 
#    z 0.000000 0.000000 1.505230 
# 
# From -- ./inp_files/29378.got.cif
#   From: 2010.05.17/outbox.cif.g08.bks.cpg/sg74_15_cif.got.tgz:29378.got - 2010.06.03 17:57:02.
