data_PCOD9535397
_publ_section_title
;
Structure prediction by ZEFSAII (Michael W. Deem and Ramdas Pophale) SiO2 
 PCOD9535397
Probable space group: I M M A
;
_chemical_formula_sum "Si O2"
_cell_formula_units_Z 96
_cell_length_a 19.146349
_cell_length_b 7.683413
_cell_length_c 34.064222
_cell_angle_alpha 90.000000
_cell_angle_beta 90.000000
_cell_angle_gamma 90.000000
_cell_volume 5011.164085
_symmetry_space_group_name_H-M "I M M A"
_symmetry_group_IT_number 74
_symmetry_cell_setting 'orthorhombic'
loop_
_space_group_symop_operation_xyz
x,y,z
-x,1/2-y,z
x,-y,-z
-x,1/2+y,-z
-x,-y,-z
x,1/2+y,-z
-x,y,z
x,1/2-y,z
1/2+x,1/2+y,1/2+z
1/2-x,-y,1/2+z
1/2+x,1/2-y,1/2-z
1/2-x,y,1/2-z
1/2-x,1/2-y,1/2-z
1/2+x,y,1/2-z
1/2-x,1/2+y,1/2+z
1/2+x,-y,1/2+z
loop_
_atom_site_type_symbol
_atom_site_label
_atom_site_fract_x
_atom_site_fract_y
_atom_site_fract_z
Si Si1 0.339799 0.543481 0.836889
Si Si2 0.717320 0.459191 0.955395
Si Si3 0.922010 0.960446 0.414425
Si Si4 0.920523 0.040276 0.827369
Si Si5 0.701341 0.452833 0.618792
Si Si6 0.420218 0.459169 0.238626
O O1 0.327694 0.750000 0.833864
O O2 0.397139 0.511429 0.870815
O O3 0.267964 0.462283 0.852256
O O4 0.369632 0.476212 0.795678
O O5 0.716000 0.250000 0.951244
O O6 0.639587 0.522066 0.943394
O O7 0.771104 0.527954 0.922492
O O8 0.734640 0.500000 0.000000
O O9 0.923302 0.750000 0.416015
O O10 0.000000 0.024299 0.423030
O O11 0.922334 0.250000 0.830470
O O12 0.865619 0.970975 0.859145
O O13 0.000000 0.975411 0.832247
O O14 0.897628 0.999607 0.782893
O O15 0.685378 0.250000 0.611528
O O16 0.500000 0.524662 0.233756
O O17 0.422762 0.250000 0.234690
#
# Coordination Sequence:
#
# PCOD9535397 Si02
#       6
#    16  16  16  16  16  16
#     4  10  19  30  46  69  97 130 167 199 227 267
#     4   9  18  32  49  69  93 121 152 188 232 280
#     4   9  18  32  48  67  95 130 164 198 235 269
#     4   9  18  33  53  73  90 116 157 196 231 279
#     4   9  19  35  51  69  95 122 150 191 240 282
#     4   9  18  31  45  65  97 131 159 193 234 268
#
# _framework density 19.157226000000001
#
# number of rings (size 3 to 8) (size 9 to 14) (size 15 to 20)
#    0.000    2.833    0.000    2.000    0.000    6.667 
#    0.000    5.000    0.000    0.500    0.000    0.000 
#    0.000    0.000    0.000    0.000    0.000    0.333 
#
# Total GULP energy -267656.041637 kJ/mol
# GULP energy per Si atom -5576.167534 kJ/mol
# Density = 1.911362 g / cm^3
# Si number density = 19.157226 Si / 1000 Ang^3
#
#
#
# Elastic Constant Matrix: (Units=GPa)
#
#
# Indices 1 2 3 4 5 6 
#
# 1 76.8947 -5.0418 93.1846 0.0000 0.0000 0.0000
# 2 -5.0418 31.0820 -4.0313 0.0000 0.0000 0.0000
# 3 93.1846 -4.0313 162.1823 0.0000 0.0000 0.0000
# 4 0.0000 0.0000 0.0000 19.6278 0.0000 0.0000
# 5 0.0000 0.0000 0.0000 0.0000 8.0036 0.0000
# 6 0.0000 0.0000 0.0000 0.0000 0.0000 7.8038
#
#
#
# Elastic Compliance Matrix: (Units=1/GPa)
#
#
# Indices 1 2 3 4 5 6 
#
# 1 0.043264 0.003806 -0.024763 0.000000 0.000000 0.000000
# 2 0.003806 0.032612 -0.001376 0.000000 0.000000 0.000000
# 3 -0.024763 -0.001376 0.020360 0.000000 0.000000 0.000000
# 4 0.000000 0.000000 0.000000 0.050948 0.000000 0.000000
# 5 0.000000 0.000000 0.000000 0.000000 0.124944 0.000000
# 6 0.000000 0.000000 0.000000 0.000000 0.000000 0.128142
#
#
# Mechanical properties :
#
#
# Convention : Reuss Voigt Hill
#
# Bulk Modulus (GPa) = 19.39169 48.70910 34.05040
# Shear Modulus (GPa) = 10.81956 19.49022 15.15489
#
# Velocity S-wave (km/s) = 2.37908 3.19310 2.81567
# Velocity P-wave (km/s) = 4.20608 6.25106 5.32761
#
# Compressibility (1/GPa) = 0.05156847
#
# Stress axis : x y z
#
# Youngs Moduli (GPa) = 23.11412 30.66372 49.11631
#
# Poissons Ratio (x) = -0.11671 1.21628
# Poissons Ratio (y) = -0.08797 0.06759
# Poissons Ratio (z) = 0.57238 0.04220
#
# Static dielectric constant tensor:
#      x y z
#    x 1.675220 0.000000 0.000000 
#    y 0.000000 1.734050 0.000000 
#    z 0.000000 0.000000 1.656920 
# 
# From -- ./inp_files/68153.got.cif
#   From: 2010.05.17/outbox.cif.g08.bks.cpg/sg74_35_cif.got.tgz:68153.got - 2010.06.03 17:57:02.
