data_PCOD9535574
_publ_section_title
;
Structure prediction by ZEFSAII (Michael W. Deem and Ramdas Pophale) SiO2 
 PCOD9535574
Probable space group: I M M A
;
_chemical_formula_sum "Si O2"
_cell_formula_units_Z 96
_cell_length_a 19.107401
_cell_length_b 8.611952
_cell_length_c 33.586114
_cell_angle_alpha 90.000000
_cell_angle_beta 90.000000
_cell_angle_gamma 90.000000
_cell_volume 5526.662911
_symmetry_space_group_name_H-M "I M M A"
_symmetry_group_IT_number 74
_symmetry_cell_setting 'orthorhombic'
loop_
_space_group_symop_operation_xyz
x,y,z
-x,1/2-y,z
x,-y,-z
-x,1/2+y,-z
-x,-y,-z
x,1/2+y,-z
-x,y,z
x,1/2-y,z
1/2+x,1/2+y,1/2+z
1/2-x,-y,1/2+z
1/2+x,1/2-y,1/2-z
1/2-x,y,1/2-z
1/2-x,1/2-y,1/2-z
1/2+x,y,1/2-z
1/2-x,1/2+y,1/2+z
1/2+x,-y,1/2+z
loop_
_atom_site_type_symbol
_atom_site_label
_atom_site_fract_x
_atom_site_fract_y
_atom_site_fract_z
Si Si1 0.345608 0.562872 0.836597
Si Si2 0.713887 0.564986 0.956753
Si Si3 0.079867 0.936445 0.413365
Si Si4 0.920251 0.062834 0.830780
Si Si5 0.711709 0.436594 0.619882
Si Si6 0.418769 0.436957 0.244320
O O1 0.342349 0.750000 0.838323
O O2 0.399712 0.504181 0.870170
O O3 0.271259 0.493168 0.849365
O O4 0.371534 0.514807 0.792942
O O5 0.712723 0.750000 0.957089
O O6 0.637418 0.502990 0.943523
O O7 0.766554 0.506222 0.922565
O O8 0.731815 0.500000 0.000000
O O9 0.086551 0.250000 0.587846
O O10 0.000000 0.976539 0.423563
O O11 0.921048 0.250000 0.830447
O O12 0.863605 0.013567 0.863410
O O13 0.000000 0.008259 0.837995
O O14 0.898527 0.005966 0.786917
O O15 0.714201 0.250000 0.617297
O O16 0.500000 0.480689 0.236757
O O17 0.415823 0.250000 0.246902
#
# Coordination Sequence:
#
# PCOD9535574 Si02
#       6
#    16  16  16  16  16  16
#     4  10  19  31  48  71 102 139 178 215 251 292
#     4  11  22  37  57  78 102 131 164 202 247 299
#     4  10  20  33  50  74 104 138 176 214 250 289
#     4   9  19  35  54  75  99 130 166 205 252 303
#     4  10  20  35  54  76 102 129 163 206 251 302
#     4   9  18  31  47  69  99 136 176 215 250 287
#
# _framework density 17.370336999999999
#
# number of rings (size 3 to 8) (size 9 to 14) (size 15 to 20)
#    0.000    2.167    0.000    5.500    0.000    5.667 
#    0.000    5.000    0.000    0.500    0.000    0.000 
#    0.000    0.000    0.000    0.000    0.000    0.000 
#
# Total GULP energy -267910.586095 kJ/mol
# GULP energy per Si atom -5581.470544 kJ/mol
# Density = 1.733080 g / cm^3
# Si number density = 17.370337 Si / 1000 Ang^3
#
#
#
# Elastic Constant Matrix: (Units=GPa)
#
#
# Indices 1 2 3 4 5 6 
#
# 1 91.5204 33.4445 92.2222 0.0000 0.0000 0.0000
# 2 33.4445 60.4235 37.4066 0.0000 0.0000 0.0000
# 3 92.2222 37.4066 135.4822 0.0000 0.0000 0.0000
# 4 0.0000 0.0000 0.0000 30.2941 0.0000 0.0000
# 5 0.0000 0.0000 0.0000 0.0000 5.3398 0.0000
# 6 0.0000 0.0000 0.0000 0.0000 0.0000 17.0601
#
#
#
# Elastic Compliance Matrix: (Units=1/GPa)
#
#
# Indices 1 2 3 4 5 6 
#
# 1 0.036399 -0.005800 -0.023175 0.000000 0.000000 0.000000
# 2 -0.005800 0.020886 -0.001819 0.000000 0.000000 0.000000
# 3 -0.023175 -0.001819 0.023659 0.000000 0.000000 0.000000
# 4 0.000000 0.000000 0.000000 0.033010 0.000000 0.000000
# 5 0.000000 0.000000 0.000000 0.000000 0.187275 0.000000
# 6 0.000000 0.000000 0.000000 0.000000 0.000000 0.058616
#
#
# Mechanical properties :
#
#
# Convention : Reuss Voigt Hill
#
# Bulk Modulus (GPa) = 51.66390 68.17477 59.91934
# Shear Modulus (GPa) = 11.68541 18.82896 15.25719
#
# Velocity S-wave (km/s) = 2.59650 3.29595 2.96691
# Velocity P-wave (km/s) = 6.22867 7.33603 6.80491
#
# Compressibility (1/GPa) = 0.01935588
#
# Stress axis : x y z
#
# Youngs Moduli (GPa) = 27.47331 47.87913 42.26792
#
# Poissons Ratio (x) = 0.27768 0.97957
# Poissons Ratio (y) = 0.15934 0.07688
# Poissons Ratio (z) = 0.63670 0.08708
#
# Static dielectric constant tensor:
#      x y z
#    x 1.596590 0.000000 0.000000 
#    y 0.000000 1.586730 0.000000 
#    z 0.000000 0.000000 1.567750 
# 
# From -- ./inp_files/68151.got.cif
#   From: 2010.05.17/outbox.cif.g08.bks.cpg/sg74_35_cif.got.tgz:68151.got - 2010.06.03 17:57:02.
