data_PCOD9535240
_publ_section_title
;
Structure prediction by ZEFSAII (Michael W. Deem and Ramdas Pophale) SiO2 
 PCOD9535240
Probable space group: I M M A
;
_chemical_formula_sum "Si O2"
_cell_formula_units_Z 112
_cell_length_a 28.178720
_cell_length_b 7.316724
_cell_length_c 26.478322
_cell_angle_alpha 90.000000
_cell_angle_beta 90.000000
_cell_angle_gamma 90.000000
_cell_volume 5459.192317
_symmetry_space_group_name_H-M "I M M A"
_symmetry_group_IT_number 74
_symmetry_cell_setting 'orthorhombic'
loop_
_space_group_symop_operation_xyz
x,y,z
-x,1/2-y,z
x,-y,-z
-x,1/2+y,-z
-x,-y,-z
x,1/2+y,-z
-x,y,z
x,1/2-y,z
1/2+x,1/2+y,1/2+z
1/2-x,-y,1/2+z
1/2+x,1/2-y,1/2-z
1/2-x,y,1/2-z
1/2-x,1/2-y,1/2-z
1/2+x,y,1/2-z
1/2-x,1/2+y,1/2+z
1/2+x,-y,1/2+z
loop_
_atom_site_type_symbol
_atom_site_label
_atom_site_fract_x
_atom_site_fract_y
_atom_site_fract_z
Si Si1 0.554879 0.027253 0.856594
Si Si2 0.666344 0.532737 0.443581
Si Si3 0.370522 0.472276 0.660631
Si Si4 0.554598 0.027422 0.742764
Si Si5 0.234456 0.971813 0.195448
Si Si6 0.270153 0.972610 0.088411
Si Si7 0.873236 0.532214 0.442779
O O1 0.500000 0.972138 0.864788
O O2 0.555025 0.250000 0.857250
O O3 0.569356 0.972605 0.799615
O O4 0.590523 0.963740 0.900125
O O5 0.649202 0.500000 0.500000
O O6 0.669561 0.750000 0.436748
O O7 0.633334 0.466511 0.397660
O O8 0.720741 0.464466 0.436928
O O9 0.373449 0.250000 0.660492
O O10 0.411865 0.536409 0.697583
O O11 0.319576 0.522374 0.683816
O O12 0.500000 0.972920 0.735580
O O13 0.555650 0.250000 0.742560
O O14 0.235929 0.750000 0.196407
O O15 0.250000 0.037916 0.250000
O O16 0.266104 0.025209 0.147393
O O17 0.270080 0.750000 0.085882
O O18 0.319325 0.037274 0.064526
O O19 0.889349 0.500000 0.500000
O O20 0.870864 0.750000 0.435653
#
# Coordination Sequence:
#
# PCOD9535240 Si02
#       7
#    16  16  16  16  16  16  16
#     4   8  15  26  39  57  80 105 132 164 204 246
#     4   9  16  27  41  58  83 110 137 166 194 231
#     4   8  14  22  34  55  80 103 129 163 200 237
#     4   8  13  22  37  57  81 106 129 158 203 252
#     4   8  13  19  30  51  79 105 125 154 202 247
#     4   8  15  25  36  55  81 107 134 164 197 235
#     4  10  19  29  42  59  81 108 138 169 201 235
#
# _framework density 20.515855999999999
#
# number of rings (size 3 to 8) (size 9 to 14) (size 15 to 20)
#    0.000    3.571    0.000    3.000    2.000    0.286 
#    0.000    0.000    0.000    0.429    0.000    1.000 
#    0.000    4.571    0.000    0.000    0.000    0.000 
#
# Total GULP energy -312289.568886 kJ/mol
# GULP energy per Si atom -5576.599444 kJ/mol
# Density = 2.046916 g / cm^3
# Si number density = 20.515856 Si / 1000 Ang^3
#
#
#
# Elastic Constant Matrix: (Units=GPa)
#
#
# Indices 1 2 3 4 5 6 
#
# 1 95.9635 4.1014 99.5454 0.0000 0.0000 0.0000
# 2 4.1014 80.6597 -0.2028 0.0000 0.0000 0.0000
# 3 99.5454 -0.2028 213.2398 0.0000 0.0000 0.0000
# 4 0.0000 0.0000 0.0000 5.8202 0.0000 0.0000
# 5 0.0000 0.0000 0.0000 0.0000 26.1940 0.0000
# 6 0.0000 0.0000 0.0000 0.0000 0.0000 -13.4703
#
#
#
# Elastic Compliance Matrix: (Units=1/GPa)
#
#
# Indices 1 2 3 4 5 6 
#
# 1 0.020294 -0.001056 -0.009475 0.000000 0.000000 0.000000
# 2 -0.001056 0.012453 0.000505 0.000000 0.000000 0.000000
# 3 -0.009475 0.000505 0.009113 0.000000 0.000000 0.000000
# 4 0.000000 0.000000 0.000000 0.171816 0.000000 0.000000
# 5 0.000000 0.000000 0.000000 0.000000 0.038177 0.000000
# 6 0.000000 0.000000 0.000000 0.000000 0.000000 -0.074237
#
#
# Mechanical properties :
#
#
# Convention : Reuss Voigt Hill
#
# Bulk Modulus (GPa) = 45.85413 66.30567 56.07990
# Shear Modulus (GPa) = 24.39778 22.80336 23.60057
#
# Velocity S-wave (km/s) = 3.45224 3.33753 3.39537
# Velocity P-wave (km/s) = 6.18787 6.87325 6.53954
#
# Compressibility (1/GPa) = 0.02180828
#
# Stress axis : x y z
#
# Youngs Moduli (GPa) = 49.27503 80.30372 109.73195
#
# Poissons Ratio (x) = 0.08478 1.03969
# Poissons Ratio (y) = 0.05202 -0.05538
# Poissons Ratio (z) = 0.46687 -0.04053
#
# Static dielectric constant tensor:
#      x y z
#    x 1.693060 0.000000 0.000000 
#    y 0.000000 1.852860 0.000000 
#    z 0.000000 0.000000 1.735910 
# 
# From -- ./inp_files/55409.got.cif
#   From: 2010.05.17/outbox.cif.g08.bks.cpg/sg74_28_cif.got.tgz:55409.got - 2010.06.03 17:57:02.
