data_PCOD9535857
_publ_section_title
;
Structure prediction by ZEFSAII (Michael W. Deem and Ramdas Pophale) SiO2 
 PCOD9535857
Probable space group: I M M A
;
_chemical_formula_sum "Si O2"
_cell_formula_units_Z 112
_cell_length_a 28.649243
_cell_length_b 19.386552
_cell_length_c 12.586980
_cell_angle_alpha 90.000000
_cell_angle_beta 90.000000
_cell_angle_gamma 90.000000
_cell_volume 6990.935055
_symmetry_space_group_name_H-M "I M M A"
_symmetry_group_IT_number 74
_symmetry_cell_setting 'orthorhombic'
loop_
_space_group_symop_operation_xyz
x,y,z
-x,1/2-y,z
x,-y,-z
-x,1/2+y,-z
-x,-y,-z
x,1/2+y,-z
-x,y,z
x,1/2-y,z
1/2+x,1/2+y,1/2+z
1/2-x,-y,1/2+z
1/2+x,1/2-y,1/2-z
1/2-x,y,1/2-z
1/2-x,1/2-y,1/2-z
1/2+x,y,1/2-z
1/2-x,1/2+y,1/2+z
1/2+x,-y,1/2+z
loop_
_atom_site_type_symbol
_atom_site_label
_atom_site_fract_x
_atom_site_fract_y
_atom_site_fract_z
Si Si1 0.885324 0.080421 0.969359
Si Si2 0.611375 0.074531 0.950430
Si Si3 0.945643 0.548875 0.234404
Si Si4 0.553872 0.611918 0.668418
Si Si5 0.806041 0.169595 0.628179
Si Si6 0.302139 0.669677 0.383589
Si Si7 0.555778 0.671718 0.890808
O O1 0.918439 0.081647 0.865344
O O2 0.837627 0.119390 0.942440
O O3 0.912660 0.114638 0.067526
O O4 0.877634 0.000000 0.000000
O O5 0.581006 0.065316 0.843239
O O6 0.657579 0.117629 0.923218
O O7 0.581700 0.117802 0.035234
O O8 0.621925 0.000000 0.000000
O O9 0.944850 0.466593 0.212758
O O10 0.000000 0.570056 0.238793
O O11 0.500000 0.626378 0.638149
O O12 0.567679 0.659428 0.767274
O O13 0.816663 0.250000 0.603542
O O14 0.752506 0.156008 0.594846
O O15 0.808378 0.162451 0.756199
O O16 0.311580 0.750000 0.409731
O O17 0.500000 0.661218 0.899142
O O18 0.566650 0.750000 0.922389
#
# Coordination Sequence:
#
# PCOD9535857 Si02
#       7
#    16  16  16  16  16  16  16
#     4  10  19  32  55  80 106 133 174 219 265 305
#     4  12  21  32  55  80 106 134 177 221 264 306
#     4  10  19  32  50  77 108 137 171 219 264 303
#     4   9  18  33  51  73 105 143 178 208 250 310
#     4   9  19  36  56  76 102 134 169 214 267 321
#     4   9  18  35  57  77 100 134 172 212 265 322
#     4  10  21  35  50  72 106 147 182 210 249 308
#
# _framework density 16.020747
#
# number of rings (size 3 to 8) (size 9 to 14) (size 15 to 20)
#    0.000    2.143    2.857    2.143    0.000    3.429 
#    0.000    0.000    0.000    3.000    0.000    3.000 
#    0.000    0.000    0.000    0.000    0.000    0.000 
#
# Total GULP energy -312337.529371 kJ/mol
# GULP energy per Si atom -5577.455882 kJ/mol
# Density = 1.598428 g / cm^3
# Si number density = 16.020747 Si / 1000 Ang^3
#
#
#
# Elastic Constant Matrix: (Units=GPa)
#
#
# Indices 1 2 3 4 5 6 
#
# 1 118.6951 71.8709 70.2259 0.0000 0.0000 0.0000
# 2 71.8709 87.3860 54.6837 0.0000 0.0000 0.0000
# 3 70.2259 54.6837 96.4913 0.0000 0.0000 0.0000
# 4 0.0000 0.0000 0.0000 10.2244 0.0000 0.0000
# 5 0.0000 0.0000 0.0000 0.0000 28.4974 0.0000
# 6 0.0000 0.0000 0.0000 0.0000 0.0000 25.0225
#
#
#
# Elastic Compliance Matrix: (Units=1/GPa)
#
#
# Indices 1 2 3 4 5 6 
#
# 1 0.020265 -0.011525 -0.008218 0.000000 0.000000 0.000000
# 2 -0.011525 0.024286 -0.005376 0.000000 0.000000 0.000000
# 3 -0.008218 -0.005376 0.019391 0.000000 0.000000 0.000000
# 4 0.000000 0.000000 0.000000 0.097806 0.000000 0.000000
# 5 0.000000 0.000000 0.000000 0.000000 0.035091 0.000000
# 6 0.000000 0.000000 0.000000 0.000000 0.000000 0.039964
#
#
# Mechanical properties :
#
#
# Convention : Reuss Voigt Hill
#
# Bulk Modulus (GPa) = 72.96113 77.34815 75.15464
# Shear Modulus (GPa) = 17.14631 19.80165 18.47398
#
# Velocity S-wave (km/s) = 3.27503 3.51949 3.39946
# Velocity P-wave (km/s) = 7.74219 8.05609 7.90070
#
# Compressibility (1/GPa) = 0.01370593
#
# Stress axis : x y z
#
# Youngs Moduli (GPa) = 49.34538 41.17580 51.57070
#
# Poissons Ratio (x) = 0.47455 0.42379
# Poissons Ratio (y) = 0.56870 0.27723
# Poissons Ratio (z) = 0.40550 0.22135
#
# Static dielectric constant tensor:
#      x y z
#    x 1.514860 0.000000 0.000000 
#    y 0.000000 1.529750 0.000000 
#    z 0.000000 0.000000 1.521560 
# 
# From -- ./inp_files/24185.got.cif
#   From: 2010.05.17/outbox.cif.g08.bks.cpg/sg74_13_cif.got.tgz:24185.got - 2010.06.03 17:57:02.
