data_PCOD9535272
_publ_section_title
;
Structure prediction by ZEFSAII (Michael W. Deem and Ramdas Pophale) SiO2 
 PCOD9535272
Probable space group: I M M A
;
_chemical_formula_sum "Si O2"
_cell_formula_units_Z 80
_cell_length_a 11.284914
_cell_length_b 17.498539
_cell_length_c 25.453710
_cell_angle_alpha 90.000000
_cell_angle_beta 90.000000
_cell_angle_gamma 90.000000
_cell_volume 5026.331584
_symmetry_space_group_name_H-M "I M M A"
_symmetry_group_IT_number 74
_symmetry_cell_setting 'orthorhombic'
loop_
_space_group_symop_operation_xyz
x,y,z
-x,1/2-y,z
x,-y,-z
-x,1/2+y,-z
-x,-y,-z
x,1/2+y,-z
-x,y,z
x,1/2-y,z
1/2+x,1/2+y,1/2+z
1/2-x,-y,1/2+z
1/2+x,1/2-y,1/2-z
1/2-x,y,1/2-z
1/2-x,1/2-y,1/2-z
1/2+x,y,1/2-z
1/2-x,1/2+y,1/2+z
1/2+x,-y,1/2+z
loop_
_atom_site_type_symbol
_atom_site_label
_atom_site_fract_x
_atom_site_fract_y
_atom_site_fract_z
Si Si1 0.251989 0.411177 0.385156
Si Si2 0.135768 0.659663 0.712433
Si Si3 0.000000 0.840555 0.898192
Si Si4 0.717875 0.444374 0.549610
Si Si5 0.500000 0.840842 0.474504
Si Si6 0.638448 0.836362 0.987754
O O1 0.163294 0.391429 0.338442
O O2 0.382468 0.377953 0.374510
O O3 0.263986 0.499614 0.401611
O O4 0.206791 0.365944 0.436665
O O5 0.140001 0.750000 0.697910
O O6 0.250000 0.647047 0.750000
O O7 0.000000 0.645775 0.732144
O O8 0.000000 0.750000 0.889026
O O9 0.000000 0.853287 0.961823
O O10 0.690835 0.500000 0.500000
O O11 0.612700 0.383299 0.550296
O O12 0.832500 0.395523 0.533856
O O13 0.500000 0.750000 0.466205
O O14 0.500000 0.836090 0.976368
O O15 0.677256 0.750000 0.000215
#
# Coordination Sequence:
#
# PCOD9535272 Si02
#       6
#    16  16   8  16   8  16
#     4  11  21  31  49  69  97 128 163 207 247 294
#     4  10  22  39  56  75  98 129 169 210 251 298
#     4  11  19  27  47  71  94 132 172 198 237 284
#     4  10  19  29  43  67  96 129 165 203 243 287
#     4  11  18  30  46  66 102 138 170 204 238 282
#     4  10  19  30  44  64  93 130 167 199 236 289
#
# _framework density 15.916180000000001
#
# number of rings (size 3 to 8) (size 9 to 14) (size 15 to 20)
#    0.000    1.600    4.000    3.900    1.400    6.000 
#    0.000    0.000    0.000    0.000    0.000    0.000 
#    0.000    3.200    1.200    0.000    0.000    0.800 
#
# Total GULP energy -223048.953516 kJ/mol
# GULP energy per Si atom -5576.223838 kJ/mol
# Density = 1.587995 g / cm^3
# Si number density = 15.916180 Si / 1000 Ang^3
#
#
#
# Elastic Constant Matrix: (Units=GPa)
#
#
# Indices 1 2 3 4 5 6 
#
# 1 101.4273 31.4995 15.6580 0.0000 0.0000 0.0000
# 2 31.4995 89.4222 18.6563 0.0000 0.0000 0.0000
# 3 15.6580 18.6563 30.8079 0.0000 0.0000 0.0000
# 4 0.0000 0.0000 0.0000 66.9957 0.0000 0.0000
# 5 0.0000 0.0000 0.0000 0.0000 7.5287 0.0000
# 6 0.0000 0.0000 0.0000 0.0000 0.0000 127.8007
#
#
#
# Elastic Compliance Matrix: (Units=1/GPa)
#
#
# Indices 1 2 3 4 5 6 
#
# 1 0.011459 -0.003230 -0.003869 0.000000 0.000000 0.000000
# 2 -0.003230 0.013710 -0.006661 0.000000 0.000000 0.000000
# 3 -0.003869 -0.006661 0.038459 0.000000 0.000000 0.000000
# 4 0.000000 0.000000 0.000000 0.014926 0.000000 0.000000
# 5 0.000000 0.000000 0.000000 0.000000 0.132826 0.000000
# 6 0.000000 0.000000 0.000000 0.000000 0.000000 0.007825
#
#
# Mechanical properties :
#
#
# Convention : Reuss Voigt Hill
#
# Bulk Modulus (GPa) = 27.69276 39.25390 33.47333
# Shear Modulus (GPa) = 19.32285 50.85457 35.08871
#
# Velocity S-wave (km/s) = 3.48808 5.65870 4.70040
# Velocity P-wave (km/s) = 5.80166 8.21041 7.10880
#
# Compressibility (1/GPa) = 0.03611053
#
# Stress axis : x y z
#
# Youngs Moduli (GPa) = 87.26402 72.93806 26.00158
#
# Poissons Ratio (x) = 0.23556 0.10059
# Poissons Ratio (y) = 0.28183 0.17320
# Poissons Ratio (z) = 0.33758 0.48585
#
# Static dielectric constant tensor:
#      x y z
#    x 1.584190 0.000000 0.000000 
#    y 0.000000 1.527570 0.000000 
#    z 0.000000 0.000000 1.528260 
# 
# From -- ./inp_files/58545.got.cif
#   From: 2010.05.17/outbox.cif.g08.bks.cpg/sg74_30_cif.got.tgz:58545.got - 2010.06.03 17:57:02.
