data_PCOD9535265
_publ_section_title
;
Structure prediction by ZEFSAII (Michael W. Deem and Ramdas Pophale) SiO2 
 PCOD9535265
Probable space group: I M M A
;
_chemical_formula_sum "Si O2"
_cell_formula_units_Z 96
_cell_length_a 15.000390
_cell_length_b 21.000856
_cell_length_c 13.614717
_cell_angle_alpha 90.000000
_cell_angle_beta 90.000000
_cell_angle_gamma 90.000000
_cell_volume 4288.922177
_symmetry_space_group_name_H-M "I M M A"
_symmetry_group_IT_number 74
_symmetry_cell_setting 'orthorhombic'
loop_
_space_group_symop_operation_xyz
x,y,z
-x,1/2-y,z
x,-y,-z
-x,1/2+y,-z
-x,-y,-z
x,1/2+y,-z
-x,y,z
x,1/2-y,z
1/2+x,1/2+y,1/2+z
1/2-x,-y,1/2+z
1/2+x,1/2-y,1/2-z
1/2-x,y,1/2-z
1/2-x,1/2-y,1/2-z
1/2+x,y,1/2-z
1/2-x,1/2+y,1/2+z
1/2+x,-y,1/2+z
loop_
_atom_site_type_symbol
_atom_site_label
_atom_site_fract_x
_atom_site_fract_y
_atom_site_fract_z
Si Si1 0.210648 0.816970 0.115587
Si Si2 0.397592 0.429392 0.716719
Si Si3 0.402732 0.354973 0.895905
Si Si4 0.106090 0.045228 0.094371
Si Si5 0.596868 0.674002 0.882346
Si Si6 0.795230 0.322762 0.121664
O O1 0.169339 0.750000 0.147277
O O2 0.162154 0.877418 0.161303
O O3 0.315552 0.818274 0.138800
O O4 0.210962 0.818124 0.997620
O O5 0.500000 0.418623 0.683997
O O6 0.395180 0.419098 0.833029
O O7 0.373122 0.499413 0.685238
O O8 0.500000 0.326813 0.871439
O O9 0.401037 0.361248 0.012781
O O10 0.145339 0.113832 0.123904
O O11 0.000000 0.053798 0.080554
O O12 0.135378 0.000000 0.000000
O O13 0.500000 0.659718 0.834042
O O14 0.595727 0.750000 0.904820
O O15 0.694634 0.664432 0.836937
O O16 0.824321 0.250000 0.152733
#
# Coordination Sequence:
#
# PCOD9535265 Si02
#       6
#    16  16  16  16  16  16
#     4  10  19  29  43  65  91 118 150 189 227 267
#     4  10  20  31  42  59  84 122 161 187 222 271
#     4   9  17  28  42  61  87 116 148 181 216 268
#     4  10  19  32  46  58  83 124 160 194 235 270
#     4   8  14  26  45  69  96 123 146 177 226 276
#     4   9  17  29  47  68  87 115 155 193 227 268
#
# _framework density 22.383244999999999
#
# number of rings (size 3 to 8) (size 9 to 14) (size 15 to 20)
#    0.000    2.667    1.667    2.000    0.000    3.667 
#    0.000    5.000    0.000    1.500    0.000    0.000 
#    0.000    2.667    0.000    0.667    0.000    2.167 
#
# Total GULP energy -267213.578908 kJ/mol
# GULP energy per Si atom -5566.949561 kJ/mol
# Density = 2.233230 g / cm^3
# Si number density = 22.383245 Si / 1000 Ang^3
#
#
#
# Elastic Constant Matrix: (Units=GPa)
#
#
# Indices 1 2 3 4 5 6 
#
# 1 108.1724 80.2419 16.0210 0.0000 0.0000 0.0000
# 2 80.2419 155.7926 31.1163 0.0000 0.0000 0.0000
# 3 16.0210 31.1163 45.9411 0.0000 0.0000 0.0000
# 4 0.0000 0.0000 0.0000 19.3841 0.0000 0.0000
# 5 0.0000 0.0000 0.0000 0.0000 22.8956 0.0000
# 6 0.0000 0.0000 0.0000 0.0000 0.0000 31.3302
#
#
#
# Elastic Compliance Matrix: (Units=1/GPa)
#
#
# Indices 1 2 3 4 5 6 
#
# 1 0.014960 -0.007706 0.000002 0.000000 0.000000 0.000000
# 2 -0.007706 0.011392 -0.005029 0.000000 0.000000 0.000000
# 3 0.000002 -0.005029 0.025172 0.000000 0.000000 0.000000
# 4 0.000000 0.000000 0.000000 0.051589 0.000000 0.000000
# 5 0.000000 0.000000 0.000000 0.000000 0.043676 0.000000
# 6 0.000000 0.000000 0.000000 0.000000 0.000000 0.031918
#
#
# Mechanical properties :
#
#
# Convention : Reuss Voigt Hill
#
# Bulk Modulus (GPa) = 38.37324 62.74052 50.55688
# Shear Modulus (GPa) = 23.48969 26.89046 25.19007
#
# Velocity S-wave (km/s) = 3.24301 3.46983 3.35834
# Velocity P-wave (km/s) = 5.58603 6.64409 6.13790
#
# Compressibility (1/GPa) = 0.02605982
#
# Stress axis : x y z
#
# Youngs Moduli (GPa) = 66.84331 87.77995 39.72630
#
# Poissons Ratio (x) = 0.67642 -0.00008
# Poissons Ratio (y) = 0.51508 0.19977
# Poissons Ratio (z) = -0.00014 0.44142
#
# Static dielectric constant tensor:
#      x y z
#    x 1.882290 0.000000 0.000000 
#    y 0.000000 1.815820 0.000000 
#    z 0.000000 0.000000 1.907630 
# 
# From -- ./inp_files/32334.got.cif
#   From: 2010.05.17/outbox.cif.g08.bks.cpg/sg74_17_cif.got.tgz:32334.got - 2010.06.03 17:57:02.
