data_PCOD9535953
_publ_section_title
;
Structure prediction by ZEFSAII (Michael W. Deem and Ramdas Pophale) SiO2 
 PCOD9535953
Probable space group: I M M A
;
_chemical_formula_sum "Si O2"
_cell_formula_units_Z 80
_cell_length_a 16.287581
_cell_length_b 28.033689
_cell_length_c 8.449153
_cell_angle_alpha 90.000000
_cell_angle_beta 90.000000
_cell_angle_gamma 90.000000
_cell_volume 3857.891543
_symmetry_space_group_name_H-M "I M M A"
_symmetry_group_IT_number 74
_symmetry_cell_setting 'orthorhombic'
loop_
_space_group_symop_operation_xyz
x,y,z
-x,1/2-y,z
x,-y,-z
-x,1/2+y,-z
-x,-y,-z
x,1/2+y,-z
-x,y,z
x,1/2-y,z
1/2+x,1/2+y,1/2+z
1/2-x,-y,1/2+z
1/2+x,1/2-y,1/2-z
1/2-x,y,1/2-z
1/2-x,1/2-y,1/2-z
1/2+x,y,1/2-z
1/2-x,1/2+y,1/2+z
1/2+x,-y,1/2+z
loop_
_atom_site_type_symbol
_atom_site_label
_atom_site_fract_x
_atom_site_fract_y
_atom_site_fract_z
Si Si1 0.097673 0.800885 0.206131
Si Si2 0.596961 0.198884 0.323070
Si Si3 0.597221 0.901976 0.335333
Si Si4 0.842113 0.403776 0.187997
Si Si5 0.343442 0.997583 0.186785
O O1 0.133018 0.750000 0.264317
O O2 0.125593 0.853710 0.256083
O O3 0.000000 0.799101 0.239261
O O4 0.107575 0.801588 0.014545
O O5 0.500000 0.199888 0.294320
O O6 0.631813 0.250000 0.265068
O O7 0.627392 0.148400 0.259029
O O8 0.500000 0.895967 0.374061
O O9 0.646913 0.905448 0.499058
O O10 0.609826 0.950468 0.241910
O O11 0.750000 0.406672 0.250000
O O12 0.881941 0.452821 0.250270
O O13 0.250000 0.993154 0.250000
O O14 0.340279 0.000000 0.000000
#
# Coordination Sequence:
#
# PCOD9535953 Si02
#       5
#    16  16  16  16  16
#     4   7  11  23  46  76 106 135 171 215 263 315
#     4   8  14  26  46  73 105 141 180 223 269 316
#     4  10  20  35  58  85 111 144 186 231 276 323
#     4  10  19  32  52  79 110 146 184 221 273 331
#     4  11  23  39  56  76 108 146 184 228 280 335
#
# _framework density 20.736716000000001
#
# number of rings (size 3 to 8) (size 9 to 14) (size 15 to 20)
#    0.000    2.800    0.000    6.000    0.000    3.200 
#    0.000    0.000    0.000    1.800    0.000    2.800 
#    0.000    0.000    0.000    0.000    0.000    0.000 
#
# Total GULP energy -222716.440512 kJ/mol
# GULP energy per Si atom -5567.911013 kJ/mol
# Density = 2.068952 g / cm^3
# Si number density = 20.736716 Si / 1000 Ang^3
#
#
#
# Elastic Constant Matrix: (Units=GPa)
#
#
# Indices 1 2 3 4 5 6 
#
# 1 30.8492 20.3876 7.0279 -0.0003 0.0000 0.0000
# 2 20.3876 265.9321 37.7029 0.0022 0.0000 0.0001
# 3 7.0279 37.7029 48.8463 0.0059 0.0003 0.0003
# 4 -0.0003 0.0022 0.0059 1.6069 -0.0002 0.0001
# 5 0.0000 0.0000 0.0003 -0.0002 7.4767 0.0000
# 6 0.0000 0.0001 0.0003 0.0001 0.0000 34.8644
#
#
#
# Elastic Compliance Matrix: (Units=1/GPa)
#
#
# Indices 1 2 3 4 5 6 
#
# 1 0.034611 -0.002187 -0.003292 0.000021 0.000000 0.000000
# 2 -0.002187 0.004361 -0.003051 0.000005 0.000000 0.000000
# 3 -0.003292 -0.003051 0.023301 -0.000083 -0.000001 0.000000
# 4 0.000021 0.000005 -0.000083 0.622304 0.000020 -0.000002
# 5 0.000000 0.000000 -0.000001 0.000020 0.133749 0.000000
# 6 0.000000 0.000000 0.000000 -0.000002 0.000000 0.028683
#
#
# Mechanical properties :
#
#
# Convention : Reuss Voigt Hill
#
# Bulk Modulus (GPa) = 22.11752 52.87382 37.49567
# Shear Modulus (GPa) = 5.68739 27.49023 16.58881
#
# Velocity S-wave (km/s) = 1.65790 3.64494 2.83145
# Velocity P-wave (km/s) = 3.78865 6.57778 5.36754
#
# Compressibility (1/GPa) = 0.04521302
#
# Stress axis : x y z
#
# Youngs Moduli (GPa) = 28.89271 229.32687 42.91644
#
# Poissons Ratio (x) = 0.50148 0.14127
# Poissons Ratio (y) = 0.06318 0.13095
# Poissons Ratio (z) = 0.09511 0.69972
#
# Static dielectric constant tensor:
#      x y z
#    x 1.748220 0.000000 0.000000 
#    y 0.000000 1.882570 0.000000 
#    z 0.000000 0.000000 1.697940 
# 
# From -- ./inp_files/10948.got.cif
#   From: 2010.05.17/outbox.cif.g08.bks.cpg/sg74_6_cif.got.tgz:10948.got - 2010.06.03 17:57:02.
