data_PCOD9535816
_publ_section_title
;
Structure prediction by ZEFSAII (Michael W. Deem and Ramdas Pophale) SiO2 
 PCOD9535816
Probable space group: I M M A
;
_chemical_formula_sum "Si O2"
_cell_formula_units_Z 80
_cell_length_a 19.239612
_cell_length_b 13.495190
_cell_length_c 18.116197
_cell_angle_alpha 90.000000
_cell_angle_beta 90.000000
_cell_angle_gamma 90.000000
_cell_volume 4703.729597
_symmetry_space_group_name_H-M "I M M A"
_symmetry_group_IT_number 74
_symmetry_cell_setting 'orthorhombic'
loop_
_space_group_symop_operation_xyz
x,y,z
-x,1/2-y,z
x,-y,-z
-x,1/2+y,-z
-x,-y,-z
x,1/2+y,-z
-x,y,z
x,1/2-y,z
1/2+x,1/2+y,1/2+z
1/2-x,-y,1/2+z
1/2+x,1/2-y,1/2-z
1/2-x,y,1/2-z
1/2-x,1/2-y,1/2-z
1/2+x,y,1/2-z
1/2-x,1/2+y,1/2+z
1/2+x,-y,1/2+z
loop_
_atom_site_type_symbol
_atom_site_label
_atom_site_fract_x
_atom_site_fract_y
_atom_site_fract_z
Si Si1 0.293835 0.134875 0.624224
Si Si2 0.421327 0.632684 0.782988
Si Si3 0.780469 0.445919 0.330721
Si Si4 0.579209 0.002105 0.365417
Si Si5 0.323750 0.136320 0.452138
O O1 0.286231 0.250000 0.643129
O O2 0.235160 0.062273 0.656532
O O3 0.295933 0.124261 0.535114
O O4 0.367842 0.088252 0.648823
O O5 0.500000 0.620798 0.812146
O O6 0.408736 0.750000 0.772428
O O7 0.360217 0.586256 0.831810
O O8 0.418447 0.574944 0.705201
O O9 0.750000 0.419177 0.250000
O O10 0.735679 0.391205 0.393261
O O11 0.500000 0.971700 0.378522
O O12 0.612055 0.065902 0.431770
O O13 0.344919 0.250000 0.443105
#
# Coordination Sequence:
#
# PCOD9535816 Si02
#       5
#    16  16  16  16  16
#     4  10  22  37  50  72 105 143 181 212 250 301
#     4  10  20  33  51  79 110 132 159 208 268 317
#     4  11  19  33  56  80 100 132 173 218 256 303
#     4  10  19  32  49  74 107 140 174 211 252 301
#     4  10  20  33  52  77 106 137 171 213 261 311
#
# _framework density 17.007781000000001
#
# number of rings (size 3 to 8) (size 9 to 14) (size 15 to 20)
#    0.000    1.800    4.000    3.600    0.000    4.400 
#    0.000    2.000    0.000    3.000    0.000    2.800 
#    0.000    0.000    0.000    0.000    0.000    0.000 
#
# Total GULP energy -223127.149770 kJ/mol
# GULP energy per Si atom -5578.178744 kJ/mol
# Density = 1.696907 g / cm^3
# Si number density = 17.007781 Si / 1000 Ang^3
#
#
#
# Elastic Constant Matrix: (Units=GPa)
#
#
# Indices 1 2 3 4 5 6 
#
# 1 119.8718 44.9322 34.4648 0.0000 0.0000 0.0000
# 2 44.9322 83.3699 17.5489 0.0000 0.0000 0.0000
# 3 34.4648 17.5489 36.2568 0.0000 0.0000 0.0000
# 4 0.0000 0.0000 0.0000 18.7289 0.0000 0.0000
# 5 0.0000 0.0000 0.0000 0.0000 16.4980 0.0000
# 6 0.0000 0.0000 0.0000 0.0000 0.0000 20.4067
#
#
#
# Elastic Compliance Matrix: (Units=1/GPa)
#
#
# Indices 1 2 3 4 5 6 
#
# 1 0.013080 -0.004935 -0.010045 0.000000 0.000000 0.000000
# 2 -0.004935 0.015217 -0.002674 0.000000 0.000000 0.000000
# 3 -0.010045 -0.002674 0.038424 0.000000 0.000000 0.000000
# 4 0.000000 0.000000 0.000000 0.053393 0.000000 0.000000
# 5 0.000000 0.000000 0.000000 0.000000 0.060614 0.000000
# 6 0.000000 0.000000 0.000000 0.000000 0.000000 0.049003
#
#
# Mechanical properties :
#
#
# Convention : Reuss Voigt Hill
#
# Bulk Modulus (GPa) = 31.83426 48.15449 39.99437
# Shear Modulus (GPa) = 18.14805 20.63023 19.38914
#
# Velocity S-wave (km/s) = 3.27011 3.48658 3.38008
# Velocity P-wave (km/s) = 5.74598 6.67705 6.22893
#
# Compressibility (1/GPa) = 0.03141270
#
# Stress axis : x y z
#
# Youngs Moduli (GPa) = 76.45154 65.71402 26.02548
#
# Poissons Ratio (x) = 0.32431 0.26143
# Poissons Ratio (y) = 0.37730 0.06960
# Poissons Ratio (z) = 0.76795 0.17574
#
# Static dielectric constant tensor:
#      x y z
#    x 1.582940 0.000000 0.000000 
#    y 0.000000 1.595340 0.000000 
#    z 0.000000 0.000000 1.586950 
# 
# From -- ./inp_files/43857.got.cif
#   From: 2010.05.17/outbox.cif.g08.bks.cpg/sg74_22_cif.got.tgz:43857.got - 2010.06.03 17:57:02.
