data_PCOD9535022
_publ_section_title
;
Structure prediction by ZEFSAII (Michael W. Deem and Ramdas Pophale) SiO2 
 PCOD9535022
Probable space group: I M M A
;
_chemical_formula_sum "Si O2"
_cell_formula_units_Z 128
_cell_length_a 24.587419
_cell_length_b 7.606670
_cell_length_c 31.853438
_cell_angle_alpha 90.000000
_cell_angle_beta 90.000000
_cell_angle_gamma 90.000000
_cell_volume 5957.496986
_symmetry_space_group_name_H-M "I M M A"
_symmetry_group_IT_number 74
_symmetry_cell_setting 'orthorhombic'
loop_
_space_group_symop_operation_xyz
x,y,z
-x,1/2-y,z
x,-y,-z
-x,1/2+y,-z
-x,-y,-z
x,1/2+y,-z
-x,y,z
x,1/2-y,z
1/2+x,1/2+y,1/2+z
1/2-x,-y,1/2+z
1/2+x,1/2-y,1/2-z
1/2-x,y,1/2-z
1/2-x,1/2-y,1/2-z
1/2+x,y,1/2-z
1/2-x,1/2+y,1/2+z
1/2+x,-y,1/2+z
loop_
_atom_site_type_symbol
_atom_site_label
_atom_site_fract_x
_atom_site_fract_y
_atom_site_fract_z
Si Si1 0.439212 0.454410 0.630373
Si Si2 0.251560 0.964120 0.170994
Si Si3 0.379290 0.549601 0.547282
Si Si4 0.437895 0.965315 0.120988
Si Si5 0.136756 0.534536 0.205119
Si Si6 0.259020 0.962851 0.426441
Si Si7 0.629538 0.464730 0.798664
Si Si8 0.858873 0.539575 0.453295
O O1 0.500000 0.530594 0.628300
O O2 0.444796 0.250000 0.641736
O O3 0.409557 0.455887 0.585459
O O4 0.400553 0.529707 0.666785
O O5 0.252695 0.750000 0.171654
O O6 0.199071 0.020375 0.197210
O O7 0.243266 0.014784 0.122487
O O8 0.309673 0.022040 0.188389
O O9 0.394617 0.500000 0.500000
O O10 0.393694 0.250000 0.446441
O O11 0.314461 0.526413 0.552707
O O12 0.500000 0.021994 0.115866
O O13 0.437670 0.750000 0.120476
O O14 0.412223 0.020494 0.165362
O O15 0.398744 0.024983 0.083228
O O16 0.137450 0.750000 0.204370
O O17 0.117308 0.480245 0.251193
O O18 0.260654 0.750000 0.428149
O O19 0.203004 0.025820 0.447410
O O20 0.629665 0.250000 0.799045
O O21 0.878563 0.500000 0.500000
O O22 0.856124 0.750000 0.448417
#
# Coordination Sequence:
#
# PCOD9535022 Si02
#       8
#    16  16  16  16  16  16  16  16
#     4  10  21  38  58  81 112 148 184 224 267 311
#     4   9  14  24  45  72 105 141 175 214 263 318
#     4  12  25  40  60  84 110 140 177 220 271 327
#     4   9  17  29  44  66 102 143 179 219 267 315
#     4   9  16  26  46  76 109 141 175 215 263 316
#     4  10  18  33  56  79 109 143 176 217 269 325
#     4   9  15  24  42  74 109 143 177 215 267 320
#     4  10  20  33  51  75 103 138 177 219 269 321
#
# _framework density 21.485531999999999
#
# number of rings (size 3 to 8) (size 9 to 14) (size 15 to 20)
#    0.000    2.250    2.500    1.875    0.000    4.250 
#    0.000    2.500    0.000    0.000    0.000    2.625 
#    0.000    0.000    0.000    0.000    0.000    0.000 
#
# Total GULP energy -357471.551680 kJ/mol
# GULP energy per Si atom -5585.492995 kJ/mol
# Density = 2.143663 g / cm^3
# Si number density = 21.485532 Si / 1000 Ang^3
#
#
#
# Elastic Constant Matrix: (Units=GPa)
#
#
# Indices 1 2 3 4 5 6 
#
# 1 108.5783 -7.6459 30.8238 0.0000 0.0000 0.0000
# 2 -7.6459 42.2650 -12.5622 0.0000 0.0000 0.0000
# 3 30.8238 -12.5622 126.8013 0.0000 0.0000 0.0000
# 4 0.0000 0.0000 0.0000 6.3567 0.0000 0.0000
# 5 0.0000 0.0000 0.0000 0.0000 2.6448 0.0000
# 6 0.0000 0.0000 0.0000 0.0000 0.0000 -12.1400
#
#
#
# Elastic Compliance Matrix: (Units=1/GPa)
#
#
# Indices 1 2 3 4 5 6 
#
# 1 0.009943 0.001113 -0.002307 0.000000 0.000000 0.000000
# 2 0.001113 0.024503 0.002157 0.000000 0.000000 0.000000
# 3 -0.002307 0.002157 0.008661 0.000000 0.000000 0.000000
# 4 0.000000 0.000000 0.000000 0.157315 0.000000 0.000000
# 5 0.000000 0.000000 0.000000 0.000000 0.378105 0.000000
# 6 0.000000 0.000000 0.000000 0.000000 0.000000 -0.082372
#
#
# Mechanical properties :
#
#
# Convention : Reuss Voigt Hill
#
# Bulk Modulus (GPa) = 22.20587 33.20845 27.70716
# Shear Modulus (GPa) = 9.81857 17.17421 13.49639
#
# Velocity S-wave (km/s) = 2.14004 2.83032 2.50903
# Velocity P-wave (km/s) = 4.05759 5.11573 4.61708
#
# Compressibility (1/GPa) = 0.04503315
#
# Stress axis : x y z
#
# Youngs Moduli (GPa) = 100.57136 40.81184 115.46292
#
# Poissons Ratio (x) = -0.04543 0.26635
# Poissons Ratio (y) = -0.11195 -0.24904
# Poissons Ratio (z) = 0.23200 -0.08803
#
# Static dielectric constant tensor:
#      x y z
#    x 1.753010 0.000000 0.000000 
#    y 0.000000 1.836690 0.000000 
#    z 0.000000 0.000000 1.666600 
# 
# From -- ./inp_files/68840.got.cif
#   From: 2010.05.17/outbox.cif.g08.bks.cpg/sg74_35_cif.got.tgz:68840.got - 2010.06.03 17:57:02.
