data_PCOD9535757
_publ_section_title
;
Structure prediction by ZEFSAII (Michael W. Deem and Ramdas Pophale) SiO2 
 PCOD9535757
Probable space group: I M M A
;
_chemical_formula_sum "Si O2"
_cell_formula_units_Z 96
_cell_length_a 14.948560
_cell_length_b 13.593768
_cell_length_c 20.673411
_cell_angle_alpha 90.000000
_cell_angle_beta 90.000000
_cell_angle_gamma 90.000000
_cell_volume 4200.987133
_symmetry_space_group_name_H-M "I M M A"
_symmetry_group_IT_number 74
_symmetry_cell_setting 'orthorhombic'
loop_
_space_group_symop_operation_xyz
x,y,z
-x,1/2-y,z
x,-y,-z
-x,1/2+y,-z
-x,-y,-z
x,1/2+y,-z
-x,y,z
x,1/2-y,z
1/2+x,1/2+y,1/2+z
1/2-x,-y,1/2+z
1/2+x,1/2-y,1/2-z
1/2-x,y,1/2-z
1/2-x,1/2-y,1/2-z
1/2+x,y,1/2-z
1/2-x,1/2+y,1/2+z
1/2+x,-y,1/2+z
loop_
_atom_site_type_symbol
_atom_site_label
_atom_site_fract_x
_atom_site_fract_y
_atom_site_fract_z
Si Si1 0.769545 0.641502 0.325508
Si Si2 0.288547 0.869637 0.540221
Si Si3 0.156458 0.444217 0.288437
Si Si4 0.599330 0.365120 0.078262
Si Si5 0.402129 0.635964 0.662555
Si Si6 0.398534 0.131278 0.585963
O O1 0.798252 0.750000 0.350887
O O2 0.750000 0.652265 0.250000
O O3 0.837040 0.549864 0.324370
O O4 0.676071 0.613579 0.359316
O O5 0.287903 0.750000 0.539963
O O6 0.185786 0.903656 0.539437
O O7 0.332595 0.897746 0.608493
O O8 0.350432 0.899051 0.480476
O O9 0.250000 0.424606 0.250000
O O10 0.127106 0.373275 0.346083
O O11 0.094486 0.429634 0.226468
O O12 0.500000 0.408916 0.068811
O O13 0.593198 0.250000 0.062098
O O14 0.500000 0.637788 0.631189
O O15 0.381304 0.750000 0.681246
O O16 0.500000 0.092680 0.594693
O O17 0.406553 0.250000 0.583870
#
# Coordination Sequence:
#
# PCOD9535757 Si02
#       6
#    16  16  16  16  16  16
#     4   9  20  39  62  84 109 151 203 254 305 356
#     4   9  17  31  56  90 127 161 192 235 296 368
#     4  11  20  33  54  78 115 162 202 249 301 347
#     4  10  20  34  55  84 120 165 208 240 285 358
#     4  10  19  31  53  88 128 165 200 238 289 361
#     4   9  17  34  64  96 122 152 192 245 312 373
#
# _framework density 22.851770999999999
#
# number of rings (size 3 to 8) (size 9 to 14) (size 15 to 20)
#    0.000    2.333    1.667    1.500    0.000    4.000 
#    0.000    7.500    0.000    9.000    0.000   11.667 
#    0.000    0.000    0.000    0.000    0.000    0.333 
#
# Total GULP energy -267709.744446 kJ/mol
# GULP energy per Si atom -5577.286343 kJ/mol
# Density = 2.279976 g / cm^3
# Si number density = 22.851771 Si / 1000 Ang^3
#
#
#
# Elastic Constant Matrix: (Units=GPa)
#
#
# Indices 1 2 3 4 5 6 
#
# 1 150.6423 45.0950 53.0273 0.0000 0.0000 0.0000
# 2 45.0950 96.8506 33.4746 0.0000 0.0000 0.0000
# 3 53.0273 33.4746 100.9946 0.0000 0.0000 0.0000
# 4 0.0000 0.0000 0.0000 -128.3056 0.0000 0.0000
# 5 0.0000 0.0000 0.0000 0.0000 14.2538 0.0000
# 6 0.0000 0.0000 0.0000 0.0000 0.0000 1.7081
#
#
#
# Elastic Compliance Matrix: (Units=1/GPa)
#
#
# Indices 1 2 3 4 5 6 
#
# 1 0.008774 -0.002816 -0.003674 0.000000 0.000000 0.000000
# 2 -0.002816 0.012565 -0.002686 0.000000 0.000000 0.000000
# 3 -0.003674 -0.002686 0.012721 0.000000 0.000000 0.000000
# 4 0.000000 0.000000 0.000000 -0.007794 0.000000 0.000000
# 5 0.000000 0.000000 0.000000 0.000000 0.070157 0.000000
# 6 0.000000 0.000000 0.000000 0.000000 0.000000 0.585449
#
#
# Mechanical properties :
#
#
# Convention : Reuss Voigt Hill
#
# Bulk Modulus (GPa) = 63.65958 67.96458 65.81208
# Shear Modulus (GPa) = 7.08759 -8.00935 -0.46088
#
# Velocity S-wave (km/s) = 1.76303 -1.87417 -0.44958
# Velocity P-wave (km/s) = 5.66237 5.01225 5.34720
#
# Compressibility (1/GPa) = 0.01570856
#
# Stress axis : x y z
#
# Youngs Moduli (GPa) = 113.96937 79.58855 78.61195
#
# Poissons Ratio (x) = 0.22410 0.28880
# Poissons Ratio (y) = 0.32090 0.21116
# Poissons Ratio (z) = 0.41869 0.21379
#
# Static dielectric constant tensor:
#      x y z
#    x 1.937350 0.000000 0.000000 
#    y 0.000000 1.998080 0.000000 
#    z 0.000000 0.000000 1.811100 
# 
# From -- ./inp_files/51928.got.cif
#   From: 2010.05.17/outbox.cif.g08.bks.cpg/sg74_26_cif.got.tgz:51928.got - 2010.06.03 17:57:02.
