data_PCOD9535237
_publ_section_title
;
Structure prediction by ZEFSAII (Michael W. Deem and Ramdas Pophale) SiO2 
 PCOD9535237
Probable space group: I M M A
;
_chemical_formula_sum "Si O2"
_cell_formula_units_Z 96
_cell_length_a 24.999827
_cell_length_b 9.822282
_cell_length_c 25.471899
_cell_angle_alpha 90.000000
_cell_angle_beta 90.000000
_cell_angle_gamma 90.000000
_cell_volume 6254.761093
_symmetry_space_group_name_H-M "I M M A"
_symmetry_group_IT_number 74
_symmetry_cell_setting 'orthorhombic'
loop_
_space_group_symop_operation_xyz
x,y,z
-x,1/2-y,z
x,-y,-z
-x,1/2+y,-z
-x,-y,-z
x,1/2+y,-z
-x,y,z
x,1/2-y,z
1/2+x,1/2+y,1/2+z
1/2-x,-y,1/2+z
1/2+x,1/2-y,1/2-z
1/2-x,y,1/2-z
1/2-x,1/2-y,1/2-z
1/2+x,y,1/2-z
1/2-x,1/2+y,1/2+z
1/2+x,-y,1/2+z
loop_
_atom_site_type_symbol
_atom_site_label
_atom_site_fract_x
_atom_site_fract_y
_atom_site_fract_z
Si Si1 0.732201 0.905408 0.047165
Si Si2 0.939028 0.092606 0.245119
Si Si3 0.837933 0.086559 0.758826
Si Si4 0.062293 0.899528 0.628601
Si Si5 0.396099 0.403080 0.953794
Si Si6 0.237460 0.414046 0.665838
O O1 0.753178 0.750000 0.043995
O O2 0.667954 0.896281 0.041025
O O3 0.740648 0.963071 0.106019
O O4 0.752578 0.000000 0.000000
O O5 0.930101 0.250000 0.228989
O O6 0.936744 0.090857 0.308667
O O7 0.000000 0.054397 0.230083
O O8 0.891919 0.992828 0.227855
O O9 0.846486 0.250000 0.756579
O O10 0.811989 0.040805 0.702803
O O11 0.791517 0.059963 0.801576
O O12 0.084213 0.750000 0.613094
O O13 0.000000 0.903980 0.612920
O O14 0.091364 0.022642 0.600532
O O15 0.417530 0.250000 0.956252
O O16 0.417220 0.500000 0.000000
O O17 0.231499 0.250000 0.662169
#
# Coordination Sequence:
#
# PCOD9535237 Si02
#       6
#    16  16  16  16  16  16
#     4   9  17  29  43  60  83 110 138 168 205 249
#     4   9  18  31  44  60  86 115 138 169 215 255
#     4   9  16  28  47  67  86 113 147 178 211 256
#     4   9  18  31  43  54  72 101 135 170 209 248
#     4  10  19  29  42  58  75  99 133 172 211 248
#     4   8  15  28  45  65  90 115 139 176 222 255
#
# _framework density 15.348307999999999
#
# number of rings (size 3 to 8) (size 9 to 14) (size 15 to 20)
#    0.000    3.000    0.000    3.500    0.000    3.667 
#    0.000    5.000    0.000    0.000    0.000    0.000 
#    0.000    0.667    0.000    1.500    0.000    2.667 
#
# Total GULP energy -267213.990117 kJ/mol
# GULP energy per Si atom -5566.958127 kJ/mol
# Density = 1.531337 g / cm^3
# Si number density = 15.348308 Si / 1000 Ang^3
#
#
#
# Elastic Constant Matrix: (Units=GPa)
#
#
# Indices 1 2 3 4 5 6 
#
# 1 64.6045 30.0857 6.3105 0.0000 0.0000 0.0000
# 2 30.0857 64.0754 18.8844 0.0000 0.0000 0.0000
# 3 6.3105 18.8844 60.6065 0.0000 0.0000 0.0000
# 4 0.0000 0.0000 0.0000 20.2574 0.0000 0.0000
# 5 0.0000 0.0000 0.0000 0.0000 14.6642 0.0000
# 6 0.0000 0.0000 0.0000 0.0000 0.0000 19.0996
#
#
#
# Elastic Compliance Matrix: (Units=1/GPa)
#
#
# Indices 1 2 3 4 5 6 
#
# 1 0.019857 -0.009595 0.000922 0.000000 0.000000 0.000000
# 2 -0.009595 0.021821 -0.005800 0.000000 0.000000 0.000000
# 3 0.000922 -0.005800 0.018211 0.000000 0.000000 0.000000
# 4 0.000000 0.000000 0.000000 0.049365 0.000000 0.000000
# 5 0.000000 0.000000 0.000000 0.000000 0.068193 0.000000
# 6 0.000000 0.000000 0.000000 0.000000 0.000000 0.052357
#
#
# Mechanical properties :
#
#
# Convention : Reuss Voigt Hill
#
# Bulk Modulus (GPa) = 32.31756 33.31640 32.81698
# Shear Modulus (GPa) = 18.58280 19.73797 19.16039
#
# Velocity S-wave (km/s) = 3.48334 3.58998 3.53706
# Velocity P-wave (km/s) = 6.10574 6.24003 6.17325
#
# Compressibility (1/GPa) = 0.03094293
#
# Stress axis : x y z
#
# Youngs Moduli (GPa) = 50.35952 45.82643 54.91143
#
# Poissons Ratio (x) = 0.43973 -0.05064
# Poissons Ratio (y) = 0.48322 0.31850
# Poissons Ratio (z) = -0.04644 0.26580
#
# Static dielectric constant tensor:
#      x y z
#    x 1.508070 0.000000 0.000000 
#    y 0.000000 1.535600 0.000000 
#    z 0.000000 0.000000 1.528030 
# 
# From -- ./inp_files/61905.got.cif
#   From: 2010.05.17/outbox.cif.g08.bks.cpg/sg74_31_cif.got.tgz:61905.got - 2010.06.03 17:57:02.
