data_PCOD9535341
_publ_section_title
;
Structure prediction by ZEFSAII (Michael W. Deem and Ramdas Pophale) SiO2 
 PCOD9535341
Probable space group: I M M A
;
_chemical_formula_sum "Si O2"
_cell_formula_units_Z 88
_cell_length_a 13.966675
_cell_length_b 20.916554
_cell_length_c 18.001029
_cell_angle_alpha 90.000000
_cell_angle_beta 90.000000
_cell_angle_gamma 90.000000
_cell_volume 5258.725420
_symmetry_space_group_name_H-M "I M M A"
_symmetry_group_IT_number 74
_symmetry_cell_setting 'orthorhombic'
loop_
_space_group_symop_operation_xyz
x,y,z
-x,1/2-y,z
x,-y,-z
-x,1/2+y,-z
-x,-y,-z
x,1/2+y,-z
-x,y,z
x,1/2-y,z
1/2+x,1/2+y,1/2+z
1/2-x,-y,1/2+z
1/2+x,1/2-y,1/2-z
1/2-x,y,1/2-z
1/2-x,1/2-y,1/2-z
1/2+x,y,1/2-z
1/2-x,1/2+y,1/2+z
1/2+x,-y,1/2+z
loop_
_atom_site_type_symbol
_atom_site_label
_atom_site_fract_x
_atom_site_fract_y
_atom_site_fract_z
Si Si1 0.114714 0.395917 0.979671
Si Si2 0.884160 0.522635 0.883803
Si Si3 0.250000 0.858007 0.250000
Si Si4 0.384466 0.546676 0.066354
Si Si5 0.776935 0.820173 0.415892
Si Si6 0.614702 0.526577 0.232297
O O1 0.138578 0.455022 0.923798
O O2 0.175299 0.335785 0.953738
O O3 0.000000 0.386738 0.977786
O O4 0.145764 0.420932 0.061114
O O5 0.853567 0.520961 0.798014
O O6 0.000000 0.525421 0.884344
O O7 0.238092 0.821669 0.326953
O O8 0.340871 0.905415 0.254881
O O9 0.500000 0.551049 0.063757
O O10 0.341966 0.618252 0.063811
O O11 0.356917 0.516678 0.146614
O O12 0.353196 0.500000 0.000000
O O13 0.813523 0.750000 0.437393
O O14 0.500000 0.529415 0.233867
#
# Coordination Sequence:
#
# PCOD9535341 Si02
#       6
#    16  16   8  16  16  16
#     4   9  17  28  45  70  99 126 155 189 228 280
#     4   8  14  26  46  70  93 121 154 190 233 276
#     4  10  19  30  44  62  96 132 165 186 217 278
#     4   9  20  36  52  70  92 121 163 211 245 274
#     4  11  22  32  47  69  97 132 163 193 233 280
#     4   9  16  28  47  71  96 121 154 196 240 279
#
# _framework density 16.734092
#
# number of rings (size 3 to 8) (size 9 to 14) (size 15 to 20)
#    0.000    2.727    1.818    1.364    2.545    0.727 
#    0.000    0.000    0.000    3.273    0.000    2.545 
#    0.000    7.273    0.000    0.000    0.000    0.000 
#
# Total GULP energy -245062.378262 kJ/mol
# GULP energy per Si atom -5569.599506 kJ/mol
# Density = 1.669600 g / cm^3
# Si number density = 16.734092 Si / 1000 Ang^3
#
#
#
# Elastic Constant Matrix: (Units=GPa)
#
#
# Indices 1 2 3 4 5 6 
#
# 1 52.3274 18.7645 29.2615 0.0000 0.0000 0.0000
# 2 18.7645 79.1580 60.5366 0.0000 0.0000 0.0000
# 3 29.2615 60.5366 122.4476 0.0000 0.0000 0.0000
# 4 0.0000 0.0000 0.0000 1.4190 0.0000 0.0000
# 5 0.0000 0.0000 0.0000 0.0000 19.5939 0.0000
# 6 0.0000 0.0000 0.0000 0.0000 0.0000 8.1012
#
#
#
# Elastic Compliance Matrix: (Units=1/GPa)
#
#
# Indices 1 2 3 4 5 6 
#
# 1 0.022242 -0.001942 -0.004355 0.000000 0.000000 0.000000
# 2 -0.001942 0.020483 -0.009662 0.000000 0.000000 0.000000
# 3 -0.004355 -0.009662 0.013984 0.000000 0.000000 0.000000
# 4 0.000000 0.000000 0.000000 0.704709 0.000000 0.000000
# 5 0.000000 0.000000 0.000000 0.000000 0.051036 0.000000
# 6 0.000000 0.000000 0.000000 0.000000 0.000000 0.123439
#
#
# Mechanical properties :
#
#
# Convention : Reuss Voigt Hill
#
# Bulk Modulus (GPa) = 40.33801 52.33980 46.33891
# Shear Modulus (GPa) = 5.12255 15.51419 10.31837
#
# Velocity S-wave (km/s) = 1.75151 3.04814 2.48585
# Velocity P-wave (km/s) = 5.31489 6.61313 5.99923
#
# Compressibility (1/GPa) = 0.02479051
#
# Stress axis : x y z
#
# Youngs Moduli (GPa) = 44.95956 48.82192 71.50792
#
# Poissons Ratio (x) = 0.09480 0.31143
# Poissons Ratio (y) = 0.08730 0.69093
# Poissons Ratio (z) = 0.19581 0.47173
#
# Static dielectric constant tensor:
#      x y z
#    x 1.610840 0.000000 0.000000 
#    y 0.000000 1.530430 0.000000 
#    z 0.000000 0.000000 1.611380 
# 
# From -- ./inp_files/42929.got.cif
#   From: 2010.05.17/outbox.cif.g08.bks.cpg/sg74_22_cif.got.tgz:42929.got - 2010.06.03 17:57:02.
