data_PCOD9535466
_publ_section_title
;
Structure prediction by ZEFSAII (Michael W. Deem and Ramdas Pophale) SiO2 
 PCOD9535466
Probable space group: I M M A
;
_chemical_formula_sum "Si O2"
_cell_formula_units_Z 112
_cell_length_a 17.003823
_cell_length_b 15.168116
_cell_length_c 27.068319
_cell_angle_alpha 90.000000
_cell_angle_beta 90.000000
_cell_angle_gamma 90.000000
_cell_volume 6981.351473
_symmetry_space_group_name_H-M "I M M A"
_symmetry_group_IT_number 74
_symmetry_cell_setting 'orthorhombic'
loop_
_space_group_symop_operation_xyz
x,y,z
-x,1/2-y,z
x,-y,-z
-x,1/2+y,-z
-x,-y,-z
x,1/2+y,-z
-x,y,z
x,1/2-y,z
1/2+x,1/2+y,1/2+z
1/2-x,-y,1/2+z
1/2+x,1/2-y,1/2-z
1/2-x,y,1/2-z
1/2-x,1/2-y,1/2-z
1/2+x,y,1/2-z
1/2-x,1/2+y,1/2+z
1/2+x,-y,1/2+z
loop_
_atom_site_type_symbol
_atom_site_label
_atom_site_fract_x
_atom_site_fract_y
_atom_site_fract_z
Si Si1 0.703308 0.477791 0.853032
Si Si2 0.592996 0.352383 0.804407
Si Si3 0.906739 0.144735 0.121040
Si Si4 0.311555 0.994614 0.557588
Si Si5 0.167881 0.851846 0.197729
Si Si6 0.409540 0.845590 0.402990
Si Si7 0.262155 0.649170 0.691312
O O1 0.625593 0.421346 0.844172
O O2 0.735247 0.490031 0.908268
O O3 0.767746 0.420088 0.822107
O O4 0.705114 0.575588 0.830981
O O5 0.500000 0.360430 0.797805
O O6 0.609921 0.250000 0.817522
O O7 0.635039 0.370984 0.751811
O O8 0.905671 0.250000 0.111369
O O9 0.860912 0.089655 0.078484
O O10 0.850558 0.129708 0.169596
O O11 0.000000 0.119219 0.126087
O O12 0.294295 0.000000 0.500000
O O13 0.366547 0.076987 0.570006
O O14 0.197215 0.750000 0.197892
O O15 0.100661 0.856072 0.155974
O O16 0.500000 0.846120 0.416040
O O17 0.374522 0.750000 0.415452
O O18 0.244897 0.750000 0.676016
O O19 0.250000 0.644487 0.750000
#
# Coordination Sequence:
#
# PCOD9535466 Si02
#       7
#    16  16  16  16  16  16  16
#     4  10  19  32  48  66  92 124 159 193 229 273
#     4  10  19  30  48  75 103 126 148 180 224 276
#     4   9  18  32  49  69  94 123 155 194 238 278
#     4  10  21  34  47  64  88 120 161 201 237 275
#     4   9  16  27  45  70 101 133 156 172 204 267
#     4   9  17  28  42  64  96 129 156 183 217 261
#     4   9  17  30  47  66  90 122 160 197 232 272
#
# _framework density 16.042739000000001
#
# number of rings (size 3 to 8) (size 9 to 14) (size 15 to 20)
#    0.000    2.571    0.000    2.571    0.000    5.143 
#    0.000    7.143    0.000    1.714    0.000    0.000 
#    0.000    0.000    0.000    0.000    0.000    0.000 
#
# Total GULP energy -311790.030156 kJ/mol
# GULP energy per Si atom -5567.679110 kJ/mol
# Density = 1.600623 g / cm^3
# Si number density = 16.042739 Si / 1000 Ang^3
#
#
#
# Elastic Constant Matrix: (Units=GPa)
#
#
# Indices 1 2 3 4 5 6 
#
# 1 36.5975 13.9526 34.6479 0.0000 0.0000 0.0000
# 2 13.9526 64.0484 47.8567 0.0000 0.0000 0.0000
# 3 34.6479 47.8567 105.9361 0.0000 0.0000 0.0000
# 4 0.0000 0.0000 0.0000 7.2810 0.0000 0.0000
# 5 0.0000 0.0000 0.0000 0.0000 -3.0451 0.0000
# 6 0.0000 0.0000 0.0000 0.0000 0.0000 33.7633
#
#
#
# Elastic Compliance Matrix: (Units=1/GPa)
#
#
# Indices 1 2 3 4 5 6 
#
# 1 0.039687 0.001590 -0.013698 0.000000 0.000000 0.000000
# 2 0.001590 0.023632 -0.011196 0.000000 0.000000 0.000000
# 3 -0.013698 -0.011196 0.018978 0.000000 0.000000 0.000000
# 4 0.000000 0.000000 0.000000 0.137345 0.000000 0.000000
# 5 0.000000 0.000000 0.000000 0.000000 -0.328400 0.000000
# 6 0.000000 0.000000 0.000000 0.000000 0.000000 0.029618
#
#
# Mechanical properties :
#
#
# Convention : Reuss Voigt Hill
#
# Bulk Modulus (GPa) = 28.02066 44.38849 36.20458
# Shear Modulus (GPa) = -242.30359 14.94149 -113.68105
#
# Velocity S-wave (km/s) = -12.30302 3.05512 -8.42705
# Velocity P-wave (km/s) = 13.57626 6.33830 8.48943
#
# Compressibility (1/GPa) = 0.03568795
#
# Stress axis : x y z
#
# Youngs Moduli (GPa) = 25.19727 42.31480 52.69355
#
# Poissons Ratio (x) = -0.06727 0.72181
# Poissons Ratio (y) = -0.04006 0.58995
# Poissons Ratio (z) = 0.34516 0.47375
#
# Static dielectric constant tensor:
#      x y z
#    x 1.547230 0.000000 0.000000 
#    y 0.000000 1.566600 0.000000 
#    z 0.000000 0.000000 1.560170 
# 
# From -- ./inp_files/72667.got.cif
#   From: 2010.05.17/outbox.cif.g08.bks.cpg/sg74_37_cif.got.tgz:72667.got - 2010.06.03 17:57:02.
