data_PCOD9535993
_publ_section_title
;
Structure prediction by ZEFSAII (Michael W. Deem and Ramdas Pophale) SiO2 
 PCOD9535993
Probable space group: I M M A
;
_chemical_formula_sum "Si O2"
_cell_formula_units_Z 104
_cell_length_a 8.917099
_cell_length_b 20.483162
_cell_length_c 31.395858
_cell_angle_alpha 90.000000
_cell_angle_beta 90.000000
_cell_angle_gamma 90.000000
_cell_volume 5734.465500
_symmetry_space_group_name_H-M "I M M A"
_symmetry_group_IT_number 74
_symmetry_cell_setting 'orthorhombic'
loop_
_space_group_symop_operation_xyz
x,y,z
-x,1/2-y,z
x,-y,-z
-x,1/2+y,-z
-x,-y,-z
x,1/2+y,-z
-x,y,z
x,1/2-y,z
1/2+x,1/2+y,1/2+z
1/2-x,-y,1/2+z
1/2+x,1/2-y,1/2-z
1/2-x,y,1/2-z
1/2-x,1/2-y,1/2-z
1/2+x,y,1/2-z
1/2-x,1/2+y,1/2+z
1/2+x,-y,1/2+z
loop_
_atom_site_type_symbol
_atom_site_label
_atom_site_fract_x
_atom_site_fract_y
_atom_site_fract_z
Si Si1 0.179042 0.750000 0.142075
Si Si2 0.174750 0.844467 0.294255
Si Si3 0.329730 0.599972 0.451453
Si Si4 0.820100 0.112623 0.044697
Si Si5 0.827392 0.001473 0.294442
Si Si6 0.178952 0.502961 0.884769
Si Si7 0.242888 0.250000 0.946745
Si Si8 0.832492 0.250000 0.458313
O O1 0.223074 0.812757 0.169566
O O2 0.291769 0.750000 0.101954
O O3 0.000000 0.750000 0.131380
O O4 0.250000 0.824018 0.250000
O O5 0.178328 0.922533 0.295248
O O6 0.000000 0.824758 0.297270
O O7 0.500000 0.574322 0.453750
O O8 0.261327 0.588218 0.498323
O O9 0.265717 0.562560 0.410184
O O10 0.335128 0.678639 0.448024
O O11 0.791774 0.060743 0.081530
O O12 0.752018 0.183635 0.053743
O O13 0.000000 0.120089 0.040521
O O14 0.750000 0.022457 0.250000
O O15 0.000000 0.022334 0.293839
O O16 0.752023 0.018918 0.339421
O O17 0.000000 0.496698 0.877180
O O18 0.336931 0.250000 0.989817
O O19 0.000000 0.250000 0.441335
#
# Coordination Sequence:
#
# PCOD9535993 Si02
#       8
#     8  16  16  16  16  16   8   8
#     4  12  22  31  48  70  90 121 169 219 265 311
#     4  10  21  36  50  65  90 124 164 212 264 312
#     4   9  16  29  49  73 102 137 177 215 251 296
#     4   9  18  33  54  79 107 140 175 210 252 306
#     4  10  21  36  53  72  97 131 169 211 259 311
#     4  10  19  32  53  80 108 137 172 216 261 306
#     4  10  20  31  45  67 100 136 174 212 254 299
#     4  10  21  36  54  75 103 137 170 209 252 298
#
# _framework density 18.135953000000001
#
# number of rings (size 3 to 8) (size 9 to 14) (size 15 to 20)
#    0.000    2.154    0.000    3.692    0.000    8.615 
#    0.000    4.615    0.000    4.615    0.000    0.538 
#    0.000    0.000    0.000    0.000    0.000    0.000 
#
# Total GULP energy -289572.014358 kJ/mol
# GULP energy per Si atom -5568.692584 kJ/mol
# Density = 1.809468 g / cm^3
# Si number density = 18.135953 Si / 1000 Ang^3
#
#
#
# Elastic Constant Matrix: (Units=GPa)
#
#
# Indices 1 2 3 4 5 6 
#
# 1 62.5342 27.8776 45.1565 0.0000 0.0000 0.0000
# 2 27.8776 61.5666 37.6954 0.0000 0.0000 0.0000
# 3 45.1565 37.6954 138.2626 0.0000 0.0000 0.0000
# 4 0.0000 0.0000 0.0000 20.9070 0.0000 0.0000
# 5 0.0000 0.0000 0.0000 0.0000 12.6860 0.0000
# 6 0.0000 0.0000 0.0000 0.0000 0.0000 10.9620
#
#
#
# Elastic Compliance Matrix: (Units=1/GPa)
#
#
# Indices 1 2 3 4 5 6 
#
# 1 0.023222 -0.007048 -0.005663 0.000000 0.000000 0.000000
# 2 -0.007048 0.021636 -0.003597 0.000000 0.000000 0.000000
# 3 -0.005663 -0.003597 0.010063 0.000000 0.000000 0.000000
# 4 0.000000 0.000000 0.000000 0.047831 0.000000 0.000000
# 5 0.000000 0.000000 0.000000 0.000000 0.078827 0.000000
# 6 0.000000 0.000000 0.000000 0.000000 0.000000 0.091224
#
#
# Mechanical properties :
#
#
# Convention : Reuss Voigt Hill
#
# Bulk Modulus (GPa) = 44.83146 53.75806 49.29476
# Shear Modulus (GPa) = 15.98186 19.01992 17.50089
#
# Velocity S-wave (km/s) = 2.97176 3.24194 3.10979
# Velocity P-wave (km/s) = 6.04554 6.61208 6.33515
#
# Compressibility (1/GPa) = 0.02230576
#
# Stress axis : x y z
#
# Youngs Moduli (GPa) = 43.06175 46.21875 99.37619
#
# Poissons Ratio (x) = 0.32575 0.56276
# Poissons Ratio (y) = 0.30350 0.35745
# Poissons Ratio (z) = 0.24385 0.16625
#
# Static dielectric constant tensor:
#      x y z
#    x 1.637640 0.000000 0.000000 
#    y 0.000000 1.631790 0.000000 
#    z 0.000000 0.000000 1.650800 
# 
# From -- ./inp_files/70649.got.cif
#   From: 2010.05.17/outbox.cif.g08.bks.cpg/sg74_36_cif.got.tgz:70649.got - 2010.06.03 17:57:02.
