data_PCOD9535020
_publ_section_title
;
Structure prediction by ZEFSAII (Michael W. Deem and Ramdas Pophale) SiO2 
 PCOD9535020
Probable space group: I M M A
;
_chemical_formula_sum "Si O2"
_cell_formula_units_Z 96
_cell_length_a 17.041472
_cell_length_b 18.778933
_cell_length_c 17.929813
_cell_angle_alpha 90.000000
_cell_angle_beta 90.000000
_cell_angle_gamma 90.000000
_cell_volume 5737.910606
_symmetry_space_group_name_H-M "I M M A"
_symmetry_group_IT_number 74
_symmetry_cell_setting 'orthorhombic'
loop_
_space_group_symop_operation_xyz
x,y,z
-x,1/2-y,z
x,-y,-z
-x,1/2+y,-z
-x,-y,-z
x,1/2+y,-z
-x,y,z
x,1/2-y,z
1/2+x,1/2+y,1/2+z
1/2-x,-y,1/2+z
1/2+x,1/2-y,1/2-z
1/2-x,y,1/2-z
1/2-x,1/2-y,1/2-z
1/2+x,y,1/2-z
1/2-x,1/2+y,1/2+z
1/2+x,-y,1/2+z
loop_
_atom_site_type_symbol
_atom_site_label
_atom_site_fract_x
_atom_site_fract_y
_atom_site_fract_z
Si Si1 0.692910 0.954857 0.074037
Si Si2 0.197647 0.833580 0.675509
Si Si3 0.237626 0.833891 0.988129
Si Si4 0.907552 0.029494 0.309612
Si Si5 0.682615 0.433587 0.693997
Si Si6 0.090624 0.835386 0.084467
O O1 0.703188 0.874924 0.043613
O O2 0.766293 0.968916 0.128478
O O3 0.617828 0.979468 0.120654
O O4 0.699300 0.000000 0.000000
O O5 0.172584 0.750000 0.672923
O O6 0.250000 0.841983 0.750000
O O7 0.244920 0.848515 0.598634
O O8 0.129509 0.892359 0.679022
O O9 0.246855 0.750000 0.998633
O O10 0.149818 0.852991 0.016153
O O11 0.000000 0.032967 0.301462
O O12 0.866895 0.991386 0.239097
O O13 0.750000 0.403643 0.750000
O O14 0.627255 0.375104 0.656040
O O15 0.092917 0.750000 0.094766
O O16 0.000000 0.856007 0.072041
#
# Coordination Sequence:
#
# PCOD9535020 Si02
#       6
#    16  16  16  16  16  16
#     4  10  18  33  56  78  99 135 180 214 251 310
#     4  10  20  36  57  76 100 139 182 217 254 308
#     4   9  18  33  54  78 104 135 175 216 254 308
#     4  11  22  35  53  78 109 138 170 215 266 309
#     4   9  19  33  53  76 104 141 174 212 249 308
#     4   9  17  31  53  80 109 137 166 210 266 311
#
# _framework density 16.730829
#
# number of rings (size 3 to 8) (size 9 to 14) (size 15 to 20)
#    0.000    2.333    1.667    2.000    0.000    1.000 
#    0.000    3.333    0.000    7.000    0.000    0.000 
#    0.000    0.000    0.000    0.000    0.000    0.000 
#
# Total GULP energy -267305.658516 kJ/mol
# GULP energy per Si atom -5568.867886 kJ/mol
# Density = 1.669275 g / cm^3
# Si number density = 16.730829 Si / 1000 Ang^3
#
#
#
# Elastic Constant Matrix: (Units=GPa)
#
#
# Indices 1 2 3 4 5 6 
#
# 1 105.5884 48.7655 49.8268 0.0000 0.0000 0.0000
# 2 48.7655 58.6635 41.3265 0.0000 0.0000 0.0000
# 3 49.8268 41.3265 106.2227 0.0000 0.0000 0.0000
# 4 0.0000 0.0000 0.0000 27.7959 0.0000 0.0000
# 5 0.0000 0.0000 0.0000 0.0000 8.4204 0.0000
# 6 0.0000 0.0000 0.0000 0.0000 0.0000 25.7021
#
#
#
# Elastic Compliance Matrix: (Units=1/GPa)
#
#
# Indices 1 2 3 4 5 6 
#
# 1 0.016143 -0.011137 -0.003239 0.000000 0.000000 0.000000
# 2 -0.011137 0.031166 -0.006901 0.000000 0.000000 0.000000
# 3 -0.003239 -0.006901 0.013619 0.000000 0.000000 0.000000
# 4 0.000000 0.000000 0.000000 0.035977 0.000000 0.000000
# 5 0.000000 0.000000 0.000000 0.000000 0.118759 0.000000
# 6 0.000000 0.000000 0.000000 0.000000 0.000000 0.038907
#
#
# Mechanical properties :
#
#
# Convention : Reuss Voigt Hill
#
# Bulk Modulus (GPa) = 54.42965 61.14578 57.78772
# Shear Modulus (GPa) = 16.48803 21.08740 18.78772
#
# Velocity S-wave (km/s) = 3.14265 3.55405 3.35467
# Velocity P-wave (km/s) = 6.76547 7.31217 7.04412
#
# Compressibility (1/GPa) = 0.01837234
#
# Stress axis : x y z
#
# Youngs Moduli (GPa) = 61.94601 32.08608 73.42908
#
# Poissons Ratio (x) = 0.35735 0.23786
# Poissons Ratio (y) = 0.68991 0.50674
# Poissons Ratio (z) = 0.20066 0.22143
#
# Static dielectric constant tensor:
#      x y z
#    x 1.546040 0.000000 0.000000 
#    y 0.000000 1.590240 0.000000 
#    z 0.000000 0.000000 1.573700 
# 
# From -- ./inp_files/32353.got.cif
#   From: 2010.05.17/outbox.cif.g08.bks.cpg/sg74_17_cif.got.tgz:32353.got - 2010.06.03 17:57:02.
