data_PCOD9535502
_publ_section_title
;
Structure prediction by ZEFSAII (Michael W. Deem and Ramdas Pophale) SiO2 
 PCOD9535502
Probable space group: I M M A
;
_chemical_formula_sum "Si O2"
_cell_formula_units_Z 80
_cell_length_a 24.067531
_cell_length_b 8.827589
_cell_length_c 27.226374
_cell_angle_alpha 90.000000
_cell_angle_beta 90.000000
_cell_angle_gamma 90.000000
_cell_volume 5784.468370
_symmetry_space_group_name_H-M "I M M A"
_symmetry_group_IT_number 74
_symmetry_cell_setting 'orthorhombic'
loop_
_space_group_symop_operation_xyz
x,y,z
-x,1/2-y,z
x,-y,-z
-x,1/2+y,-z
-x,-y,-z
x,1/2+y,-z
-x,y,z
x,1/2-y,z
1/2+x,1/2+y,1/2+z
1/2-x,-y,1/2+z
1/2+x,1/2-y,1/2-z
1/2-x,y,1/2-z
1/2-x,1/2-y,1/2-z
1/2+x,y,1/2-z
1/2-x,1/2+y,1/2+z
1/2+x,-y,1/2+z
loop_
_atom_site_type_symbol
_atom_site_label
_atom_site_fract_x
_atom_site_fract_y
_atom_site_fract_z
Si Si1 0.500000 0.432012 0.283168
Si Si2 0.814852 0.433404 0.147508
Si Si3 0.000000 0.565909 0.897946
Si Si4 0.883696 0.570301 0.238319
Si Si5 0.884078 0.067415 0.053347
Si Si6 0.790445 0.075155 0.297817
O O1 0.500000 0.250000 0.281701
O O2 0.500000 0.479843 0.340866
O O3 0.555842 0.495855 0.259190
O O4 0.818595 0.250000 0.153331
O O5 0.854036 0.506011 0.189069
O O6 0.838305 0.473619 0.094246
O O7 0.751051 0.475898 0.158972
O O8 0.944123 0.516597 0.925569
O O9 0.000000 0.750000 0.897878
O O10 0.887867 0.750000 0.235197
O O11 0.843553 0.522057 0.283114
O O12 0.885281 0.250000 0.050068
O O13 0.873952 0.000000 0.000000
O O14 0.806975 0.250000 0.305616
O O15 0.750000 0.072629 0.250000
#
# Coordination Sequence:
#
# PCOD9535502 Si02
#       6
#     8  16   8  16  16  16
#     4  11  19  32  48  58  79 116 149 175 205 252
#     4   9  17  31  47  59  78 110 146 174 205 256
#     4   9  17  30  46  56  73 107 147 182 214 244
#     4  11  20  28  41  65  88 104 132 176 219 253
#     4  10  19  31  44  61  80 107 144 185 222 253
#     4   8  15  28  45  61  77 106 141 168 201 254
#
# _framework density 13.830139000000001
#
# number of rings (size 3 to 8) (size 9 to 14) (size 15 to 20)
#    0.000    2.400    2.000    3.600    0.000    4.400 
#    0.000    0.000    0.000    0.000    0.000    0.000 
#    0.000    0.000    0.000    0.900    0.000   10.800 
#
# Total GULP energy -222927.990021 kJ/mol
# GULP energy per Si atom -5573.199751 kJ/mol
# Density = 1.379866 g / cm^3
# Si number density = 13.830139 Si / 1000 Ang^3
#
#
#
# Elastic Constant Matrix: (Units=GPa)
#
#
# Indices 1 2 3 4 5 6 
#
# 1 113.6228 44.9911 63.2142 0.0000 0.0000 0.0000
# 2 44.9911 41.9120 22.6598 0.0000 0.0000 0.0000
# 3 63.2142 22.6598 75.4085 0.0000 0.0000 0.0000
# 4 0.0000 0.0000 0.0000 17.1102 0.0000 0.0000
# 5 0.0000 0.0000 0.0000 0.0000 15.8118 0.0000
# 6 0.0000 0.0000 0.0000 0.0000 0.0000 -7.2479
#
#
#
# Elastic Compliance Matrix: (Units=1/GPa)
#
#
# Indices 1 2 3 4 5 6 
#
# 1 0.024166 -0.017897 -0.014881 0.000000 0.000000 0.000000
# 2 -0.017897 0.041741 0.002460 0.000000 0.000000 0.000000
# 3 -0.014881 0.002460 0.024996 0.000000 0.000000 0.000000
# 4 0.000000 0.000000 0.000000 0.058445 0.000000 0.000000
# 5 0.000000 0.000000 0.000000 0.000000 0.063244 0.000000
# 6 0.000000 0.000000 0.000000 0.000000 0.000000 -0.137971
#
#
# Mechanical properties :
#
#
# Convention : Reuss Voigt Hill
#
# Bulk Modulus (GPa) = 33.03758 54.74150 43.88954
# Shear Modulus (GPa) = 34.40056 11.80669 23.10362
#
# Velocity S-wave (km/s) = 4.99276 2.92497 4.09164
# Velocity P-wave (km/s) = 7.56153 7.14664 7.35701
#
# Compressibility (1/GPa) = 0.03026857
#
# Stress axis : x y z
#
# Youngs Moduli (GPa) = 41.37974 23.95717 40.00593
#
# Poissons Ratio (x) = 0.42875 0.59531
# Poissons Ratio (y) = 0.74056 -0.09840
# Poissons Ratio (z) = 0.61576 -0.05893
#
# Static dielectric constant tensor:
#      x y z
#    x 1.464780 0.000000 0.000000 
#    y 0.000000 1.463120 0.000000 
#    z 0.000000 0.000000 1.441220 
# 
# From -- ./inp_files/67587.got.cif
#   From: 2010.05.17/outbox.cif.g08.bks.cpg/sg74_34_cif.got.tgz:67587.got - 2010.06.03 17:57:02.
