data_PCOD9535986
_publ_section_title
;
Structure prediction by ZEFSAII (Michael W. Deem and Ramdas Pophale) SiO2 
 PCOD9535986
Probable space group: I M M A
;
_chemical_formula_sum "Si O2"
_cell_formula_units_Z 64
_cell_length_a 38.697019
_cell_length_b 10.260903
_cell_length_c 9.649683
_cell_angle_alpha 90.000000
_cell_angle_beta 90.000000
_cell_angle_gamma 90.000000
_cell_volume 3831.564488
_symmetry_space_group_name_H-M "I M M A"
_symmetry_group_IT_number 74
_symmetry_cell_setting 'orthorhombic'
loop_
_space_group_symop_operation_xyz
x,y,z
-x,1/2-y,z
x,-y,-z
-x,1/2+y,-z
-x,-y,-z
x,1/2+y,-z
-x,y,z
x,1/2-y,z
1/2+x,1/2+y,1/2+z
1/2-x,-y,1/2+z
1/2+x,1/2-y,1/2-z
1/2-x,y,1/2-z
1/2-x,1/2-y,1/2-z
1/2+x,y,1/2-z
1/2-x,1/2+y,1/2+z
1/2+x,-y,1/2+z
loop_
_atom_site_type_symbol
_atom_site_label
_atom_site_fract_x
_atom_site_fract_y
_atom_site_fract_z
Si Si1 0.275701 0.900136 0.623250
Si Si2 0.038670 0.250000 0.342370
Si Si3 0.143240 0.594244 0.867530
Si Si4 0.459789 0.250000 0.821816
Si Si5 0.084416 0.503570 0.666889
O O1 0.271021 0.750000 0.577065
O O2 0.250000 0.923819 0.750000
O O3 0.315919 0.914102 0.665517
O O4 0.268866 0.000000 0.500000
O O5 0.037407 0.250000 0.510269
O O6 0.059176 0.377077 0.300295
O O7 0.000000 0.250000 0.288687
O O8 0.135631 0.750000 0.890291
O O9 0.119708 0.535325 0.745830
O O10 0.137271 0.500000 0.000000
O O11 0.500000 0.250000 0.771556
O O12 0.436514 0.375352 0.786988
O O13 0.089699 0.500000 0.500000
#
# Coordination Sequence:
#
# PCOD9535986 Si02
#       5
#    16   8  16   8  16
#     4   9  19  36  57  80 108 140 175 215 259 308
#     4   9  16  30  51  75 102 135 172 217 272 313
#     4  10  21  37  55  77 107 144 178 212 260 314
#     4   9  18  30  49  79 108 131 170 223 272 317
#     4  10  19  32  53  79 105 136 176 223 263 311
#
# _framework density 16.703361000000001
#
# number of rings (size 3 to 8) (size 9 to 14) (size 15 to 20)
#    0.000    2.500    1.250    0.750    1.750    4.500 
#    0.000    0.000    0.000    4.500    0.000    0.000 
#    0.000    0.000    0.000    0.000    0.000    0.000 
#
# Total GULP energy -178221.690621 kJ/mol
# GULP energy per Si atom -5569.427832 kJ/mol
# Density = 1.666534 g / cm^3
# Si number density = 16.703361 Si / 1000 Ang^3
#
#
#
# Elastic Constant Matrix: (Units=GPa)
#
#
# Indices 1 2 3 4 5 6 
#
# 1 109.4873 89.3255 72.8312 0.0000 0.0000 0.0000
# 2 89.3255 168.9683 63.8926 0.0000 0.0000 0.0000
# 3 72.8312 63.8926 61.8341 0.0000 0.0000 0.0000
# 4 0.0000 0.0000 0.0000 64.6914 0.0000 0.0000
# 5 0.0000 0.0000 0.0000 0.0000 21.1162 0.0000
# 6 0.0000 0.0000 0.0000 0.0000 0.0000 15.9415
#
#
#
# Elastic Compliance Matrix: (Units=1/GPa)
#
#
# Indices 1 2 3 4 5 6 
#
# 1 0.045913 -0.006275 -0.047595 0.000000 0.000000 0.000000
# 2 -0.006275 0.010571 -0.003532 0.000000 0.000000 0.000000
# 3 -0.047595 -0.003532 0.075882 0.000000 0.000000 0.000000
# 4 0.000000 0.000000 0.000000 0.015458 0.000000 0.000000
# 5 0.000000 0.000000 0.000000 0.000000 0.047357 0.000000
# 6 0.000000 0.000000 0.000000 0.000000 0.000000 0.062729
#
#
# Mechanical properties :
#
#
# Convention : Reuss Voigt Hill
#
# Bulk Modulus (GPa) = 56.94134 88.04317 72.49225
# Shear Modulus (GPa) = 13.20767 27.96586 20.58676
#
# Velocity S-wave (km/s) = 2.81502 4.09622 3.51450
# Velocity P-wave (km/s) = 6.68802 8.67158 7.74357
#
# Compressibility (1/GPa) = 0.01756193
#
# Stress axis : x y z
#
# Youngs Moduli (GPa) = 21.78033 94.59725 13.17840
#
# Poissons Ratio (x) = 0.59358 0.62722
# Poissons Ratio (y) = 0.13667 0.04655
# Poissons Ratio (z) = 1.03663 0.33415
#
# Static dielectric constant tensor:
#      x y z
#    x 1.553810 0.000000 0.000000 
#    y 0.000000 1.566240 0.000000 
#    z 0.000000 0.000000 1.537030 
# 
# From -- ./inp_files/7346.got.cif
#   From: 2010.05.17/outbox.cif.g08.bks.cpg/sg74_4_cif.got.tgz:7346.got - 2010.06.03 17:57:02.
