data_PCOD9535412
_publ_section_title
;
Structure prediction by ZEFSAII (Michael W. Deem and Ramdas Pophale) SiO2 
 PCOD9535412
Probable space group: I M M A
;
_chemical_formula_sum "Si O2"
_cell_formula_units_Z 96
_cell_length_a 15.577604
_cell_length_b 18.906622
_cell_length_c 21.809595
_cell_angle_alpha 90.000000
_cell_angle_beta 90.000000
_cell_angle_gamma 90.000000
_cell_volume 6423.359095
_symmetry_space_group_name_H-M "I M M A"
_symmetry_group_IT_number 74
_symmetry_cell_setting 'orthorhombic'
loop_
_space_group_symop_operation_xyz
x,y,z
-x,1/2-y,z
x,-y,-z
-x,1/2+y,-z
-x,-y,-z
x,1/2+y,-z
-x,y,z
x,1/2-y,z
1/2+x,1/2+y,1/2+z
1/2-x,-y,1/2+z
1/2+x,1/2-y,1/2-z
1/2-x,y,1/2-z
1/2-x,1/2-y,1/2-z
1/2+x,y,1/2-z
1/2-x,1/2+y,1/2+z
1/2+x,-y,1/2+z
loop_
_atom_site_type_symbol
_atom_site_label
_atom_site_fract_x
_atom_site_fract_y
_atom_site_fract_z
Si Si1 0.652215 0.750000 0.774806
Si Si2 0.600397 0.595254 0.077844
Si Si3 0.771578 0.000000 0.500000
Si Si4 0.101964 0.250000 0.542549
Si Si5 0.902134 0.530477 0.663424
Si Si6 0.765097 0.597941 0.895089
Si Si7 0.597349 0.895950 0.712482
Si Si8 0.702823 0.750000 0.915358
O O1 0.750000 0.750000 0.750000
O O2 0.610634 0.820993 0.747479
O O3 0.655109 0.750000 0.848842
O O4 0.500000 0.588868 0.058214
O O5 0.664571 0.556470 0.031462
O O6 0.607587 0.550024 0.140350
O O7 0.623262 0.677751 0.078283
O O8 0.717861 0.957513 0.550618
O O9 0.143472 0.250000 0.475188
O O10 0.000000 0.250000 0.534212
O O11 0.829636 0.575921 0.629362
O O12 0.891623 0.544611 0.735227
O O13 0.000000 0.552766 0.647197
O O14 0.832589 0.594961 0.840061
O O15 0.758489 0.678650 0.916666
O O16 0.500000 0.898543 0.688837
#
# Coordination Sequence:
#
# PCOD9535412 Si02
#       8
#     8  16   8   8  16  16  16   8
#     4  12  19  31  46  70  97 130 156 195 230 281
#     4   9  17  29  44  67  96 125 157 193 230 288
#     4  10  19  30  47  66  90 126 166 196 244 278
#     4  10  20  30  43  68 101 133 158 181 224 287
#     4   9  18  30  48  70  95 125 157 193 238 286
#     4  11  20  33  48  69  96 128 162 202 236 282
#     4  11  21  33  48  69  97 132 166 199 239 278
#     4  12  20  29  46  66 102 129 161 185 228 276
#
# _framework density 14.945451
#
# number of rings (size 3 to 8) (size 9 to 14) (size 15 to 20)
#    0.000    1.667    5.000    1.000    0.000    2.000 
#    0.000    0.417    0.000    0.000    0.000   10.500 
#    0.000    0.000    0.000    0.000    0.000    0.000 
#
# Total GULP energy -267500.881554 kJ/mol
# GULP energy per Si atom -5572.935032 kJ/mol
# Density = 1.491143 g / cm^3
# Si number density = 14.945451 Si / 1000 Ang^3
#
#
#
# Elastic Constant Matrix: (Units=GPa)
#
#
# Indices 1 2 3 4 5 6 
#
# 1 47.5670 32.1225 29.7937 0.0000 0.0000 0.0000
# 2 32.1225 108.8907 55.3385 0.0000 0.0000 0.0000
# 3 29.7937 55.3385 75.4317 0.0000 0.0000 0.0000
# 4 0.0000 0.0000 0.0000 26.2827 0.0000 0.0000
# 5 0.0000 0.0000 0.0000 0.0000 18.6930 0.0000
# 6 0.0000 0.0000 0.0000 0.0000 0.0000 11.6007
#
#
#
# Elastic Compliance Matrix: (Units=1/GPa)
#
#
# Indices 1 2 3 4 5 6 
#
# 1 0.029192 -0.004388 -0.008311 0.000000 0.000000 0.000000
# 2 -0.004388 0.015302 -0.009493 0.000000 0.000000 0.000000
# 3 -0.008311 -0.009493 0.023504 0.000000 0.000000 0.000000
# 4 0.000000 0.000000 0.000000 0.038048 0.000000 0.000000
# 5 0.000000 0.000000 0.000000 0.000000 0.053496 0.000000
# 6 0.000000 0.000000 0.000000 0.000000 0.000000 0.086202
#
#
# Mechanical properties :
#
#
# Convention : Reuss Voigt Hill
#
# Bulk Modulus (GPa) = 42.34727 51.82209 47.08468
# Shear Modulus (GPa) = 16.77857 18.95758 17.86808
#
# Velocity S-wave (km/s) = 3.35424 3.56540 3.46143
# Velocity P-wave (km/s) = 6.58766 7.19019 6.89551
#
# Compressibility (1/GPa) = 0.02361427
#
# Stress axis : x y z
#
# Youngs Moduli (GPa) = 34.25621 65.34961 42.54581
#
# Poissons Ratio (x) = 0.28674 0.35360
# Poissons Ratio (y) = 0.15031 0.40389
# Poissons Ratio (z) = 0.28471 0.62037
#
# Static dielectric constant tensor:
#      x y z
#    x 1.490910 0.000000 0.000000 
#    y 0.000000 1.513500 0.000000 
#    z 0.000000 0.000000 1.499270 
# 
# From -- ./inp_files/60079.got.cif
#   From: 2010.05.17/outbox.cif.g08.bks.cpg/sg74_31_cif.got.tgz:60079.got - 2010.06.03 17:57:02.
