data_PCOD9535831
_publ_section_title
;
Structure prediction by ZEFSAII (Michael W. Deem and Ramdas Pophale) SiO2 
 PCOD9535831
Probable space group: I M M A
;
_chemical_formula_sum "Si O2"
_cell_formula_units_Z 80
_cell_length_a 27.708606
_cell_length_b 8.242045
_cell_length_c 18.599430
_cell_angle_alpha 90.000000
_cell_angle_beta 90.000000
_cell_angle_gamma 90.000000
_cell_volume 4247.655568
_symmetry_space_group_name_H-M "I M M A"
_symmetry_group_IT_number 74
_symmetry_cell_setting 'orthorhombic'
loop_
_space_group_symop_operation_xyz
x,y,z
-x,1/2-y,z
x,-y,-z
-x,1/2+y,-z
-x,-y,-z
x,1/2+y,-z
-x,y,z
x,1/2-y,z
1/2+x,1/2+y,1/2+z
1/2-x,-y,1/2+z
1/2+x,1/2-y,1/2-z
1/2-x,y,1/2-z
1/2-x,1/2-y,1/2-z
1/2+x,y,1/2-z
1/2-x,1/2+y,1/2+z
1/2+x,-y,1/2+z
loop_
_atom_site_type_symbol
_atom_site_label
_atom_site_fract_x
_atom_site_fract_y
_atom_site_fract_z
Si Si1 0.000000 0.553623 0.831095
Si Si2 0.594292 0.556609 0.082671
Si Si3 0.500000 0.946402 0.167196
Si Si4 0.199045 0.054043 0.083397
Si Si5 0.093912 0.946308 0.917159
Si Si6 0.197016 0.444201 0.416570
O O1 0.951717 0.495680 0.871658
O O2 0.000000 0.750000 0.833810
O O3 0.000000 0.499726 0.749195
O O4 0.593098 0.750000 0.082118
O O5 0.548328 0.495019 0.126930
O O6 0.646304 0.504995 0.114031
O O7 0.590891 0.500000 0.000000
O O8 0.500000 0.750000 0.164150
O O9 0.199310 0.250000 0.085972
O O10 0.146733 0.999039 0.111634
O O11 0.251005 0.999527 0.114308
O O12 0.199080 0.000000 0.000000
O O13 0.093673 0.750000 0.916131
O O14 0.089257 0.000000 0.000000
O O15 0.196857 0.500000 0.500000
O O16 0.195955 0.250000 0.414946
#
# Coordination Sequence:
#
# PCOD9535831 Si02
#       6
#     8  16   8  16  16  16
#     4  10  21  34  50  70  94 124 161 200 236 274
#     4  10  19  32  50  72  95 120 151 191 232 277
#     4  10  23  38  50  66  92 124 157 192 236 282
#     4   8  14  24  40  64  96 124 149 183 225 270
#     4   9  17  30  48  73  99 125 157 194 232 273
#     4   9  15  24  41  67  95 123 150 182 225 272
#
# _framework density 18.833919000000002
#
# number of rings (size 3 to 8) (size 9 to 14) (size 15 to 20)
#    0.000    2.800    0.000    3.000    0.000    3.200 
#    0.000    0.000    0.000    1.200    0.000    8.400 
#    0.000    0.000    0.000    0.000    0.000    0.000 
#
# Total GULP energy -222708.887151 kJ/mol
# GULP energy per Si atom -5567.722179 kJ/mol
# Density = 1.879105 g / cm^3
# Si number density = 18.833919 Si / 1000 Ang^3
#
#
#
# Elastic Constant Matrix: (Units=GPa)
#
#
# Indices 1 2 3 4 5 6 
#
# 1 263.7749 24.5662 71.9872 0.0000 0.0000 0.0000
# 2 24.5662 17.5608 3.5688 0.0000 0.0000 0.0000
# 3 71.9872 3.5688 51.2777 0.0000 0.0000 0.0000
# 4 0.0000 0.0000 0.0000 17.8713 0.0000 0.0000
# 5 0.0000 0.0000 0.0000 0.0000 -5.0359 0.0000
# 6 0.0000 0.0000 0.0000 0.0000 0.0000 32.0941
#
#
#
# Elastic Compliance Matrix: (Units=1/GPa)
#
#
# Indices 1 2 3 4 5 6 
#
# 1 0.007111 -0.008033 -0.009424 0.000000 0.000000 0.000000
# 2 -0.008033 0.066836 0.006625 0.000000 0.000000 0.000000
# 3 -0.009424 0.006625 0.032271 0.000000 0.000000 0.000000
# 4 0.000000 0.000000 0.000000 0.055956 0.000000 0.000000
# 5 0.000000 0.000000 0.000000 0.000000 -0.198575 0.000000
# 6 0.000000 0.000000 0.000000 0.000000 0.000000 0.031158
#
#
# Mechanical properties :
#
#
# Convention : Reuss Voigt Hill
#
# Bulk Modulus (GPa) = 11.82666 59.20643 35.51655
# Shear Modulus (GPa) = 112.09520 24.48531 68.29026
#
# Velocity S-wave (km/s) = 7.72314 3.60955 6.02809
# Velocity P-wave (km/s) = 9.26403 6.99115 8.20666
#
# Compressibility (1/GPa) = 0.08455474
#
# Stress axis : x y z
#
# Youngs Moduli (GPa) = 140.62366 14.96204 30.98776
#
# Poissons Ratio (x) = 0.12019 0.29203
# Poissons Ratio (y) = 1.12960 -0.20531
# Poissons Ratio (z) = 1.32525 -0.09913
#
# Static dielectric constant tensor:
#      x y z
#    x 1.754030 0.000000 0.000000 
#    y 0.000000 1.640200 0.000000 
#    z 0.000000 0.000000 1.618100 
# 
# From -- ./inp_files/46527.got.cif
#   From: 2010.05.17/outbox.cif.g08.bks.cpg/sg74_24_cif.got.tgz:46527.got - 2010.06.03 17:57:02.
