data_PCOD9535048
_publ_section_title
;
Structure prediction by ZEFSAII (Michael W. Deem and Ramdas Pophale) SiO2 
 PCOD9535048
Probable space group: I M M A
;
_chemical_formula_sum "Si O2"
_cell_formula_units_Z 100
_cell_length_a 15.295829
_cell_length_b 19.836151
_cell_length_c 17.231404
_cell_angle_alpha 90.000000
_cell_angle_beta 90.000000
_cell_angle_gamma 90.000000
_cell_volume 5228.186727
_symmetry_space_group_name_H-M "I M M A"
_symmetry_group_IT_number 74
_symmetry_cell_setting 'orthorhombic'
loop_
_space_group_symop_operation_xyz
x,y,z
-x,1/2-y,z
x,-y,-z
-x,1/2+y,-z
-x,-y,-z
x,1/2+y,-z
-x,y,z
x,1/2-y,z
1/2+x,1/2+y,1/2+z
1/2-x,-y,1/2+z
1/2+x,1/2-y,1/2-z
1/2-x,y,1/2-z
1/2-x,1/2-y,1/2-z
1/2+x,y,1/2-z
1/2-x,1/2+y,1/2+z
1/2+x,-y,1/2+z
loop_
_atom_site_type_symbol
_atom_site_label
_atom_site_fract_x
_atom_site_fract_y
_atom_site_fract_z
Si Si1 0.000000 0.750000 0.748040
Si Si2 0.214500 0.673914 0.534277
Si Si3 0.148191 0.976567 0.108405
Si Si4 0.158147 0.148948 0.291141
Si Si5 0.844457 0.951269 0.435788
Si Si6 0.101128 0.994940 0.273554
Si Si7 0.596033 0.612728 0.533485
O O1 0.077757 0.808788 0.743164
O O2 0.203369 0.750000 0.507079
O O3 0.169287 0.665362 0.617796
O O4 0.173130 0.620544 0.474797
O O5 0.318101 0.657870 0.543712
O O6 0.248391 0.981875 0.082168
O O7 0.143919 0.960392 0.198679
O O8 0.105579 0.049230 0.091664
O O9 0.104275 0.922074 0.051632
O O10 0.250000 0.165408 0.250000
O O11 0.142195 0.068923 0.284153
O O12 0.886960 0.000000 0.500000
O O13 0.890524 0.953868 0.353252
O O14 0.000000 0.003647 0.254783
O O15 0.500000 0.644172 0.543088
#
# Coordination Sequence:
#
# PCOD9535048 Si02
#       7
#     4  16  16  16  16  16  16
#     4  12  26  44  56  88 128 178 214 230 314 372
#     4  11  23  40  59  81 120 167 202 249 315 370
#     4  10  18  35  59  86 120 156 193 251 318 371
#     4  12  24  43  61  86 125 167 208 255 298 366
#     4  11  20  39  59  85 115 158 206 255 308 356
#     4  12  23  36  61  95 119 152 207 259 310 363
#     4  10  18  33  58  90 122 154 197 252 313 378
#
# _framework density 19.127091
#
# number of rings (size 3 to 8) (size 9 to 14) (size 15 to 20)
#    0.000    0.960    6.400    4.560    0.000    0.640 
#    2.880    0.000    0.000    7.680    0.000    0.000 
#    0.000    0.000    0.000    0.000    0.000    0.000 
#
# Total GULP energy -278888.929725 kJ/mol
# GULP energy per Si atom -5577.778595 kJ/mol
# Density = 1.908356 g / cm^3
# Si number density = 19.127091 Si / 1000 Ang^3
#
#
#
# Elastic Constant Matrix: (Units=GPa)
#
#
# Indices 1 2 3 4 5 6 
#
# 1 72.4138 11.3263 2.5593 0.0000 0.0000 0.0000
# 2 11.3263 57.3706 8.7194 0.0000 0.0000 0.0000
# 3 2.5593 8.7194 106.2220 0.0000 0.0000 0.0000
# 4 0.0000 0.0000 0.0000 5.7755 0.0000 0.0000
# 5 0.0000 0.0000 0.0000 0.0000 17.0098 0.0000
# 6 0.0000 0.0000 0.0000 0.0000 0.0000 9.0616
#
#
#
# Elastic Compliance Matrix: (Units=1/GPa)
#
#
# Indices 1 2 3 4 5 6 
#
# 1 0.014251 -0.002796 -0.000114 0.000000 0.000000 0.000000
# 2 -0.002796 0.018199 -0.001427 0.000000 0.000000 0.000000
# 3 -0.000114 -0.001427 0.009534 0.000000 0.000000 0.000000
# 4 0.000000 0.000000 0.000000 0.173145 0.000000 0.000000
# 5 0.000000 0.000000 0.000000 0.000000 0.058790 0.000000
# 6 0.000000 0.000000 0.000000 0.000000 0.000000 0.110356
#
#
# Mechanical properties :
#
#
# Convention : Reuss Voigt Hill
#
# Bulk Modulus (GPa) = 30.01987 31.24626 30.63306
# Shear Modulus (GPa) = 12.37465 20.59613 16.48539
#
# Velocity S-wave (km/s) = 2.54632 3.28503 2.93898
# Velocity P-wave (km/s) = 4.93700 5.54618 5.25044
#
# Compressibility (1/GPa) = 0.03331127
#
# Stress axis : x y z
#
# Youngs Moduli (GPa) = 70.17099 54.94697 104.88682
#
# Poissons Ratio (x) = 0.15364 0.01194
# Poissons Ratio (y) = 0.19621 0.14963
# Poissons Ratio (z) = 0.00799 0.07838
#
# Static dielectric constant tensor:
#      x y z
#    x 1.685980 0.000000 0.000000 
#    y 0.000000 1.648700 0.000000 
#    z 0.000000 0.000000 1.704460 
# 
# From -- ./inp_files/42999.got.cif
#   From: 2010.05.17/outbox.cif.g08.bks.cpg/sg74_22_cif.got.tgz:42999.got - 2010.06.03 17:57:02.
