data_PCOD9535990
_publ_section_title
;
Structure prediction by ZEFSAII (Michael W. Deem and Ramdas Pophale) SiO2 
 PCOD9535990
Probable space group: I M M A
;
_chemical_formula_sum "Si O2"
_cell_formula_units_Z 88
_cell_length_a 8.623206
_cell_length_b 25.374736
_cell_length_c 20.483660
_cell_angle_alpha 90.000000
_cell_angle_beta 90.000000
_cell_angle_gamma 90.000000
_cell_volume 4482.061921
_symmetry_space_group_name_H-M "I M M A"
_symmetry_group_IT_number 74
_symmetry_cell_setting 'orthorhombic'
loop_
_space_group_symop_operation_xyz
x,y,z
-x,1/2-y,z
x,-y,-z
-x,1/2+y,-z
-x,-y,-z
x,1/2+y,-z
-x,y,z
x,1/2-y,z
1/2+x,1/2+y,1/2+z
1/2-x,-y,1/2+z
1/2+x,1/2-y,1/2-z
1/2-x,y,1/2-z
1/2-x,1/2-y,1/2-z
1/2+x,y,1/2-z
1/2-x,1/2+y,1/2+z
1/2+x,-y,1/2+z
loop_
_atom_site_type_symbol
_atom_site_label
_atom_site_fract_x
_atom_site_fract_y
_atom_site_fract_z
Si Si1 0.322907 0.506449 0.188086
Si Si2 0.686301 0.336235 0.426102
Si Si3 0.316184 0.620964 0.317792
Si Si4 0.313767 0.250000 0.174970
Si Si5 0.320369 0.452560 0.048449
Si Si6 0.811875 0.693143 0.068992
O O1 0.500000 0.520316 0.203690
O O2 0.250000 0.476683 0.250000
O O3 0.227773 0.559906 0.179687
O O4 0.320238 0.476176 0.120872
O O5 0.500000 0.332864 0.419027
O O6 0.757800 0.302124 0.366314
O O7 0.731567 0.397312 0.441145
O O8 0.738285 0.310083 0.494349
O O9 0.500000 0.627027 0.316632
O O10 0.250000 0.642824 0.250000
O O11 0.252573 0.648594 0.382632
O O12 0.500000 0.250000 0.177293
O O13 0.250000 0.250000 0.250000
O O14 0.500000 0.441705 0.028427
O O15 0.262861 0.500000 0.000000
O O16 0.772197 0.750000 0.097056
O O17 0.000000 0.688890 0.066505
#
# Coordination Sequence:
#
# PCOD9535990 Si02
#       6
#    16  16  16   8  16  16
#     4  10  20  35  55  77 109 148 185 233 285 345
#     4  11  22  40  66  92 122 159 204 257 311 375
#     4  10  19  32  53  79 111 152 193 239 285 338
#     4  12  26  46  70  96 127 164 209 262 323 388
#     4  10  22  39  59  87 124 162 203 256 313 370
#     4   9  18  34  56  80 111 149 190 235 287 341
#
# _framework density 19.633821000000001
#
# number of rings (size 3 to 8) (size 9 to 14) (size 15 to 20)
#    0.000    1.818    0.909    4.636    0.000    2.909 
#    0.000    4.545    0.000    0.000    0.000    0.000 
#    0.000    0.000    0.000    0.000    0.000    0.000 
#
# Total GULP energy -245153.476597 kJ/mol
# GULP energy per Si atom -5571.669923 kJ/mol
# Density = 1.958913 g / cm^3
# Si number density = 19.633821 Si / 1000 Ang^3
#
#
#
# Elastic Constant Matrix: (Units=GPa)
#
#
# Indices 1 2 3 4 5 6 
#
# 1 71.4600 26.8256 42.2953 0.0000 0.0000 0.0000
# 2 26.8256 89.5309 45.6847 0.0000 0.0000 0.0000
# 3 42.2953 45.6847 105.1629 0.0000 0.0000 0.0000
# 4 0.0000 0.0000 0.0000 37.4594 0.0000 0.0000
# 5 0.0000 0.0000 0.0000 0.0000 23.2517 0.0000
# 6 0.0000 0.0000 0.0000 0.0000 0.0000 6.4840
#
#
#
# Elastic Compliance Matrix: (Units=1/GPa)
#
#
# Indices 1 2 3 4 5 6 
#
# 1 0.018718 -0.002270 -0.006542 0.000000 0.000000 0.000000
# 2 -0.002270 0.014626 -0.005441 0.000000 0.000000 0.000000
# 3 -0.006542 -0.005441 0.014504 0.000000 0.000000 0.000000
# 4 0.000000 0.000000 0.000000 0.026696 0.000000 0.000000
# 5 0.000000 0.000000 0.000000 0.000000 0.043008 0.000000
# 6 0.000000 0.000000 0.000000 0.000000 0.000000 0.154225
#
#
# Mechanical properties :
#
#
# Convention : Reuss Voigt Hill
#
# Bulk Modulus (GPa) = 51.70141 55.08501 53.39321
# Shear Modulus (GPa) = 16.30106 23.52891 19.91498
#
# Velocity S-wave (km/s) = 2.88454 3.46553 3.18829
# Velocity P-wave (km/s) = 6.12242 6.64306 6.38805
#
# Compressibility (1/GPa) = 0.01934183
#
# Stress axis : x y z
#
# Youngs Moduli (GPa) = 53.42422 68.37269 68.94806
#
# Poissons Ratio (x) = 0.15522 0.45106
# Poissons Ratio (y) = 0.12129 0.37512
# Poissons Ratio (z) = 0.34950 0.37199
#
# Static dielectric constant tensor:
#      x y z
#    x 1.698770 0.000000 0.000000 
#    y 0.000000 1.720800 0.000000 
#    z 0.000000 0.000000 1.696290 
# 
# From -- ./inp_files/48704.got.cif
#   From: 2010.05.17/outbox.cif.g08.bks.cpg/sg74_25_cif.got.tgz:48704.got - 2010.06.03 17:57:02.
