data_PCOD9535673
_publ_section_title
;
Structure prediction by ZEFSAII (Michael W. Deem and Ramdas Pophale) SiO2 
 PCOD9535673
Probable space group: I M M A
;
_chemical_formula_sum "Si O2"
_cell_formula_units_Z 56
_cell_length_a 11.618709
_cell_length_b 8.466352
_cell_length_c 31.324168
_cell_angle_alpha 90.000000
_cell_angle_beta 90.000000
_cell_angle_gamma 90.000000
_cell_volume 3081.298269
_symmetry_space_group_name_H-M "I M M A"
_symmetry_group_IT_number 74
_symmetry_cell_setting 'orthorhombic'
loop_
_space_group_symop_operation_xyz
x,y,z
-x,1/2-y,z
x,-y,-z
-x,1/2+y,-z
-x,-y,-z
x,1/2+y,-z
-x,y,z
x,1/2-y,z
1/2+x,1/2+y,1/2+z
1/2-x,-y,1/2+z
1/2+x,1/2-y,1/2-z
1/2-x,y,1/2-z
1/2-x,1/2-y,1/2-z
1/2+x,y,1/2-z
1/2-x,1/2+y,1/2+z
1/2+x,-y,1/2+z
loop_
_atom_site_type_symbol
_atom_site_label
_atom_site_fract_x
_atom_site_fract_y
_atom_site_fract_z
Si Si1 0.139917 0.431908 0.045317
Si Si2 0.302592 0.422507 0.202339
Si Si3 0.137190 0.432964 0.864167
Si Si4 0.376294 0.250000 0.773037
O O1 0.174696 0.250000 0.050129
O O2 0.173316 0.529596 0.087212
O O3 0.000000 0.435796 0.044104
O O4 0.180217 0.500000 0.000000
O O5 0.356521 0.250000 0.194377
O O6 0.250000 0.416199 0.250000
O O7 0.201567 0.453515 0.168470
O O8 0.374856 0.584477 0.201702
O O9 0.161658 0.250000 0.853794
O O10 0.000000 0.456357 0.861311
O O11 0.500000 0.250000 0.747910
O O12 0.250000 0.250000 0.750000
#
# Coordination Sequence:
#
# PCOD9535673 Si02
#       4
#    16  16  16   8
#     4   9  16  26  41  65 101 145 189 233 286 350
#     4  10  21  36  53  76 107 146 190 240 287 340
#     4  10  19  31  50  76 108 150 195 240 293 354
#     4  10  22  40  60  84 114 150 192 240 292 346
#
# _framework density 18.174157999999998
#
# number of rings (size 3 to 8) (size 9 to 14) (size 15 to 20)
#    0.000    2.286    1.429    1.714    0.000   10.286 
#    0.000    5.714    0.000    0.000    0.000    0.000 
#    0.000    1.143    0.571    0.000    0.000    0.000 
#
# Total GULP energy -155885.087911 kJ/mol
# GULP energy per Si atom -5567.324568 kJ/mol
# Density = 1.813279 g / cm^3
# Si number density = 18.174158 Si / 1000 Ang^3
#
#
#
# Elastic Constant Matrix: (Units=GPa)
#
#
# Indices 1 2 3 4 5 6 
#
# 1 58.8422 27.2992 22.7196 0.0000 0.0000 0.0000
# 2 27.2992 151.6625 26.5096 0.0000 0.0000 0.0000
# 3 22.7196 26.5096 110.1589 0.0000 0.0000 0.0000
# 4 0.0000 0.0000 0.0000 22.3179 0.0000 0.0000
# 5 0.0000 0.0000 0.0000 0.0000 14.4849 0.0000
# 6 0.0000 0.0000 0.0000 0.0000 0.0000 7.2849
#
#
#
# Elastic Compliance Matrix: (Units=1/GPa)
#
#
# Indices 1 2 3 4 5 6 
#
# 1 0.019656 -0.002954 -0.003343 0.000000 0.000000 0.000000
# 2 -0.002954 0.007327 -0.001154 0.000000 0.000000 0.000000
# 3 -0.003343 -0.001154 0.010045 0.000000 0.000000 0.000000
# 4 0.000000 0.000000 0.000000 0.044807 0.000000 0.000000
# 5 0.000000 0.000000 0.000000 0.000000 0.069037 0.000000
# 6 0.000000 0.000000 0.000000 0.000000 0.000000 0.137270
#
#
# Mechanical properties :
#
#
# Convention : Reuss Voigt Hill
#
# Bulk Modulus (GPa) = 45.19549 52.63560 48.91555
# Shear Modulus (GPa) = 16.10728 25.09323 20.60025
#
# Velocity S-wave (km/s) = 2.98026 3.71982 3.37039
# Velocity P-wave (km/s) = 6.06338 6.89014 6.48994
#
# Compressibility (1/GPa) = 0.02212610
#
# Stress axis : x y z
#
# Youngs Moduli (GPa) = 50.87577 136.48212 99.55190
#
# Poissons Ratio (x) = 0.40312 0.33281
# Poissons Ratio (y) = 0.15027 0.11489
# Poissons Ratio (z) = 0.17008 0.15751
#
# Static dielectric constant tensor:
#      x y z
#    x 1.620460 0.000000 0.000000 
#    y 0.000000 1.678810 0.000000 
#    z 0.000000 0.000000 1.634500 
# 
# From -- ./inp_files/63265.got.cif
#   From: 2010.05.17/outbox.cif.g08.bks.cpg/sg74_32_cif.got.tgz:63265.got - 2010.06.03 17:57:02.
