data_PCOD9535839
_publ_section_title
;
Structure prediction by ZEFSAII (Michael W. Deem and Ramdas Pophale) SiO2 
 PCOD9535839
Probable space group: I M M A
;
_chemical_formula_sum "Si O2"
_cell_formula_units_Z 96
_cell_length_a 21.716312
_cell_length_b 8.796834
_cell_length_c 31.108199
_cell_angle_alpha 90.000000
_cell_angle_beta 90.000000
_cell_angle_gamma 90.000000
_cell_volume 5942.748318
_symmetry_space_group_name_H-M "I M M A"
_symmetry_group_IT_number 74
_symmetry_cell_setting 'orthorhombic'
loop_
_space_group_symop_operation_xyz
x,y,z
-x,1/2-y,z
x,-y,-z
-x,1/2+y,-z
-x,-y,-z
x,1/2+y,-z
-x,y,z
x,1/2-y,z
1/2+x,1/2+y,1/2+z
1/2-x,-y,1/2+z
1/2+x,1/2-y,1/2-z
1/2-x,y,1/2-z
1/2-x,1/2-y,1/2-z
1/2+x,y,1/2-z
1/2-x,1/2+y,1/2+z
1/2+x,-y,1/2+z
loop_
_atom_site_type_symbol
_atom_site_label
_atom_site_fract_x
_atom_site_fract_y
_atom_site_fract_z
Si Si1 0.236842 0.429326 0.134214
Si Si2 0.933145 0.068614 0.749085
Si Si3 0.801238 0.069601 0.955404
Si Si4 0.403443 0.074573 0.337006
Si Si5 0.432237 0.569121 0.564407
Si Si6 0.801506 0.565913 0.285511
O O1 0.248404 0.250000 0.129729
O O2 0.231490 0.503125 0.087095
O O3 0.169354 0.447534 0.155789
O O4 0.283111 0.505177 0.167739
O O5 0.933165 0.250000 0.743315
O O6 0.869751 0.011426 0.727888
O O7 0.000000 0.009988 0.733720
O O8 0.927439 0.031221 0.799516
O O9 0.796430 0.250000 0.955844
O O10 0.873321 0.021283 0.952099
O O11 0.777251 0.000000 0.000000
O O12 0.414896 0.250000 0.324693
O O13 0.431581 0.050258 0.383965
O O14 0.500000 0.523713 0.548694
O O15 0.423062 0.750000 0.556008
O O16 0.800936 0.750000 0.285987
O O17 0.750000 0.518360 0.250000
#
# Coordination Sequence:
#
# PCOD9535839 Si02
#       6
#    16  16  16  16  16  16
#     4  10  20  34  52  73  96 125 165 207 252 298
#     4  10  20  31  44  66  98 132 166 206 249 291
#     4  11  22  36  53  71  94 122 158 204 256 304
#     4   9  17  29  45  65  91 124 163 206 247 288
#     4   9  18  32  47  65  92 126 165 208 253 300
#     4  10  19  32  50  72  99 132 171 209 247 294
#
# _framework density 16.154142
#
# number of rings (size 3 to 8) (size 9 to 14) (size 15 to 20)
#    0.000    2.167    1.667    3.500    0.000    5.333 
#    0.000    0.000    0.000    0.000    0.000    0.000 
#    0.000    0.667    0.000    1.833    0.000    2.667 
#
# Total GULP energy -267741.610294 kJ/mol
# GULP energy per Si atom -5577.950214 kJ/mol
# Density = 1.611737 g / cm^3
# Si number density = 16.154142 Si / 1000 Ang^3
#
#
#
# Elastic Constant Matrix: (Units=GPa)
#
#
# Indices 1 2 3 4 5 6 
#
# 1 92.8238 30.0479 53.6492 0.0000 0.0000 0.0000
# 2 30.0479 36.5287 34.6164 0.0000 0.0000 0.0000
# 3 53.6492 34.6164 101.8005 0.0000 0.0000 0.0000
# 4 0.0000 0.0000 0.0000 27.0933 0.0000 0.0000
# 5 0.0000 0.0000 0.0000 0.0000 -7.0186 0.0000
# 6 0.0000 0.0000 0.0000 0.0000 0.0000 8.6133
#
#
#
# Elastic Compliance Matrix: (Units=1/GPa)
#
#
# Indices 1 2 3 4 5 6 
#
# 1 0.016972 -0.008092 -0.006192 0.000000 0.000000 0.000000
# 2 -0.008092 0.044250 -0.010782 0.000000 0.000000 0.000000
# 3 -0.006192 -0.010782 0.016753 0.000000 0.000000 0.000000
# 4 0.000000 0.000000 0.000000 0.036910 0.000000 0.000000
# 5 0.000000 0.000000 0.000000 0.000000 -0.142478 0.000000
# 6 0.000000 0.000000 0.000000 0.000000 0.000000 0.116099
#
#
# Mechanical properties :
#
#
# Convention : Reuss Voigt Hill
#
# Bulk Modulus (GPa) = 35.91843 51.97557 43.94700
# Shear Modulus (GPa) = 33.80204 13.26021 23.53113
#
# Velocity S-wave (km/s) = 4.57931 2.86817 3.82076
# Velocity P-wave (km/s) = 7.08825 6.57367 6.83580
#
# Compressibility (1/GPa) = 0.02784086
#
# Stress axis : x y z
#
# Youngs Moduli (GPa) = 58.92161 22.59874 59.69097
#
# Poissons Ratio (x) = 0.18288 0.36963
# Poissons Ratio (y) = 0.47682 0.64360
# Poissons Ratio (z) = 0.36487 0.24366
#
# Static dielectric constant tensor:
#      x y z
#    x 1.567030 0.000000 0.000000 
#    y 0.000000 1.542640 0.000000 
#    z 0.000000 0.000000 1.539090 
# 
# From -- ./inp_files/68576.got.cif
#   From: 2010.05.17/outbox.cif.g08.bks.cpg/sg74_35_cif.got.tgz:68576.got - 2010.06.03 17:57:02.
