data_PCOD9535561
_publ_section_title
;
Structure prediction by ZEFSAII (Michael W. Deem and Ramdas Pophale) SiO2 
 PCOD9535561
Probable space group: I M M A
;
_chemical_formula_sum "Si O2"
_cell_formula_units_Z 88
_cell_length_a 15.889055
_cell_length_b 12.847575
_cell_length_c 23.772430
_cell_angle_alpha 90.000000
_cell_angle_beta 90.000000
_cell_angle_gamma 90.000000
_cell_volume 4852.804629
_symmetry_space_group_name_H-M "I M M A"
_symmetry_group_IT_number 74
_symmetry_cell_setting 'orthorhombic'
loop_
_space_group_symop_operation_xyz
x,y,z
-x,1/2-y,z
x,-y,-z
-x,1/2+y,-z
-x,-y,-z
x,1/2+y,-z
-x,y,z
x,1/2-y,z
1/2+x,1/2+y,1/2+z
1/2-x,-y,1/2+z
1/2+x,1/2-y,1/2-z
1/2-x,y,1/2-z
1/2-x,1/2-y,1/2-z
1/2+x,y,1/2-z
1/2-x,1/2+y,1/2+z
1/2+x,-y,1/2+z
loop_
_atom_site_type_symbol
_atom_site_label
_atom_site_fract_x
_atom_site_fract_y
_atom_site_fract_z
Si Si1 0.789662 0.750000 0.416181
Si Si2 0.652687 0.362416 0.264708
Si Si3 0.598110 0.446998 0.939087
Si Si4 0.664481 0.250000 0.784520
Si Si5 0.098500 0.135171 0.362171
Si Si6 0.596405 0.423372 0.706910
Si Si7 0.599259 0.750000 0.388495
O O1 0.838142 0.649175 0.439576
O O2 0.812599 0.750000 0.349476
O O3 0.687446 0.750000 0.423478
O O4 0.625303 0.250000 0.289009
O O5 0.750000 0.354476 0.250000
O O6 0.606785 0.377063 0.204784
O O7 0.643874 0.468258 0.298906
O O8 0.500000 0.416550 0.925078
O O9 0.630296 0.534432 0.895021
O O10 0.595778 0.500000 0.000000
O O11 0.750000 0.250000 0.750000
O O12 0.618655 0.353606 0.761637
O O13 0.135454 0.250000 0.376244
O O14 0.000000 0.139305 0.377146
O O15 0.500000 0.452665 0.711952
O O16 0.606655 0.348930 0.653267
O O17 0.500000 0.750000 0.410175
#
# Coordination Sequence:
#
# PCOD9535561 Si02
#       7
#     8  16  16   8  16  16   8
#     4  12  22  35  62  83 109 154 190 225 290 355
#     4  10  20  30  45  71 104 141 187 224 258 315
#     4  10  23  38  55  84 116 142 180 234 282 335
#     4  11  19  31  51  82 113 145 179 234 279 334
#     4   9  18  33  52  70  99 146 184 216 268 325
#     4  10  19  31  48  70 109 147 179 224 279 326
#     4   9  21  37  53  82 110 143 179 228 287 332
#
# _framework density 18.133844
#
# number of rings (size 3 to 8) (size 9 to 14) (size 15 to 20)
#    0.000    2.000    1.818    3.273    3.818    4.000 
#    0.000    0.000    0.000    0.545    0.000    0.000 
#    0.000    0.000    0.000    0.000    0.000    0.000 
#
# Total GULP energy -245055.881927 kJ/mol
# GULP energy per Si atom -5569.451862 kJ/mol
# Density = 1.809257 g / cm^3
# Si number density = 18.133844 Si / 1000 Ang^3
#
#
#
# Elastic Constant Matrix: (Units=GPa)
#
#
# Indices 1 2 3 4 5 6 
#
# 1 88.6016 40.3793 5.4272 0.0000 0.0000 0.0000
# 2 40.3793 143.2246 7.9253 0.0000 0.0000 0.0000
# 3 5.4272 7.9253 18.5845 0.0000 0.0000 0.0000
# 4 0.0000 0.0000 0.0000 -9.7230 0.0000 0.0000
# 5 0.0000 0.0000 0.0000 0.0000 10.5330 0.0000
# 6 0.0000 0.0000 0.0000 0.0000 0.0000 23.0574
#
#
#
# Elastic Compliance Matrix: (Units=1/GPa)
#
#
# Indices 1 2 3 4 5 6 
#
# 1 0.013045 -0.003551 -0.002295 0.000000 0.000000 0.000000
# 2 -0.003551 0.008117 -0.002425 0.000000 0.000000 0.000000
# 3 -0.002295 -0.002425 0.055513 0.000000 0.000000 0.000000
# 4 0.000000 0.000000 0.000000 -0.102849 0.000000 0.000000
# 5 0.000000 0.000000 0.000000 0.000000 0.094940 0.000000
# 6 0.000000 0.000000 0.000000 0.000000 0.000000 0.043370
#
#
# Mechanical properties :
#
#
# Convention : Reuss Voigt Hill
#
# Bulk Modulus (GPa) = 16.62965 39.76382 28.19673
# Shear Modulus (GPa) = 33.61968 17.88539 25.75254
#
# Velocity S-wave (km/s) = 4.31045 3.14395 3.77256
# Velocity P-wave (km/s) = 5.82784 5.92915 5.87871
#
# Compressibility (1/GPa) = 0.06013357
#
# Stress axis : x y z
#
# Youngs Moduli (GPa) = 76.65563 123.19360 18.01391
#
# Poissons Ratio (x) = 0.43744 0.04135
# Poissons Ratio (y) = 0.27219 0.04368
# Poissons Ratio (z) = 0.17595 0.29870
#
# Static dielectric constant tensor:
#      x y z
#    x 1.670790 0.000000 0.000000 
#    y 0.000000 1.644220 0.000000 
#    z 0.000000 0.000000 1.611300 
# 
# From -- ./inp_files/58687.got.cif
#   From: 2010.05.17/outbox.cif.g08.bks.cpg/sg74_30_cif.got.tgz:58687.got - 2010.06.03 17:57:02.
