data_PCOD9535902
_publ_section_title
;
Structure prediction by ZEFSAII (Michael W. Deem and Ramdas Pophale) SiO2 
 PCOD9535902
Probable space group: I M M A
;
_chemical_formula_sum "Si O2"
_cell_formula_units_Z 112
_cell_length_a 14.280852
_cell_length_b 30.403752
_cell_length_c 12.932103
_cell_angle_alpha 90.000000
_cell_angle_beta 90.000000
_cell_angle_gamma 90.000000
_cell_volume 5615.008974
_symmetry_space_group_name_H-M "I M M A"
_symmetry_group_IT_number 74
_symmetry_cell_setting 'orthorhombic'
loop_
_space_group_symop_operation_xyz
x,y,z
-x,1/2-y,z
x,-y,-z
-x,1/2+y,-z
-x,-y,-z
x,1/2+y,-z
-x,y,z
x,1/2-y,z
1/2+x,1/2+y,1/2+z
1/2-x,-y,1/2+z
1/2+x,1/2-y,1/2-z
1/2-x,y,1/2-z
1/2-x,1/2-y,1/2-z
1/2+x,y,1/2-z
1/2-x,1/2+y,1/2+z
1/2+x,-y,1/2+z
loop_
_atom_site_type_symbol
_atom_site_label
_atom_site_fract_x
_atom_site_fract_y
_atom_site_fract_z
Si Si1 0.262755 0.199184 0.599916
Si Si2 0.163959 0.110053 0.169506
Si Si3 0.105129 0.700636 0.905656
Si Si4 0.890297 0.841056 0.276451
Si Si5 0.391409 0.562777 0.174645
Si Si6 0.249836 0.048789 0.014079
Si Si7 0.897890 0.467518 0.304517
O O1 0.238389 0.250000 0.617466
O O2 0.313379 0.195961 0.490249
O O3 0.169254 0.171382 0.621421
O O4 0.339384 0.184284 0.684245
O O5 0.250000 0.115568 0.250000
O O6 0.115191 0.157280 0.163452
O O7 0.190877 0.090308 0.056260
O O8 0.107333 0.069859 0.219485
O O9 0.114529 0.750000 0.858465
O O10 0.000000 0.699478 0.952351
O O11 0.878296 0.893239 0.260236
O O12 0.000000 0.830819 0.284651
O O13 0.500000 0.565069 0.135065
O O14 0.383222 0.517033 0.236429
O O15 0.314431 0.560309 0.084226
O O16 0.320674 0.040867 0.109629
O O17 0.204114 0.000000 0.000000
O O18 0.000000 0.466524 0.354895
#
# Coordination Sequence:
#
# PCOD9535902 Si02
#       7
#    16  16  16  16  16  16  16
#     4  10  21  36  53  77 104 141 184 220 264 318
#     4  10  20  34  52  78 106 130 169 217 269 312
#     4  10  21  38  59  78 101 139 183 222 266 325
#     4  10  19  32  51  79 109 140 177 221 266 310
#     4   9  17  30  49  73 101 133 173 211 253 306
#     4   9  17  31  49  73 100 135 172 207 252 309
#     4   9  17  31  50  71  99 134 170 210 252 305
#
# _framework density 19.946539999999999
#
# number of rings (size 3 to 8) (size 9 to 14) (size 15 to 20)
#    0.000    2.429    0.000    3.000    0.000    3.714 
#   15.429    0.000    0.000    1.714    0.000    0.000 
#    0.000    0.000    0.000    0.000    0.000    0.000 
#
# Total GULP energy -311978.623956 kJ/mol
# GULP energy per Si atom -5571.046856 kJ/mol
# Density = 1.990114 g / cm^3
# Si number density = 19.946540 Si / 1000 Ang^3
#
#
#
# Elastic Constant Matrix: (Units=GPa)
#
#
# Indices 1 2 3 4 5 6 
#
# 1 71.8263 25.6255 -1.0311 0.0000 0.0000 0.0001
# 2 25.6255 151.1047 17.0885 0.0000 0.0000 0.0001
# 3 -1.0311 17.0885 24.5077 -0.0001 -0.0001 0.0007
# 4 0.0000 0.0000 -0.0001 24.5523 0.0001 0.0001
# 5 0.0000 0.0000 -0.0001 0.0001 4.2180 0.0001
# 6 0.0001 0.0001 0.0007 0.0001 0.0001 76.9162
#
#
#
# Elastic Compliance Matrix: (Units=1/GPa)
#
#
# Indices 1 2 3 4 5 6 
#
# 1 0.014971 -0.002834 0.002606 0.000000 0.000000 0.000000
# 2 -0.002834 0.007721 -0.005503 0.000000 0.000000 0.000000
# 3 0.002606 -0.005503 0.044750 0.000000 0.000001 0.000000
# 4 0.000000 0.000000 0.000000 0.040729 -0.000001 0.000000
# 5 0.000000 0.000000 0.000001 -0.000001 0.237081 0.000000
# 6 0.000000 0.000000 0.000000 0.000000 0.000000 0.013001
#
#
# Mechanical properties :
#
#
# Convention : Reuss Voigt Hill
#
# Bulk Modulus (GPa) = 17.86340 36.75604 27.30972
# Shear Modulus (GPa) = 12.87416 34.85434 23.86425
#
# Velocity S-wave (km/s) = 2.54329 4.18471 3.46267
# Velocity P-wave (km/s) = 4.19518 6.46656 5.45050
#
# Compressibility (1/GPa) = 0.05598037
#
# Stress axis : x y z
#
# Youngs Moduli (GPa) = 66.79667 129.52101 22.34635
#
# Poissons Ratio (x) = 0.36700 -0.05823
# Poissons Ratio (y) = 0.18927 0.12296
# Poissons Ratio (z) = -0.17404 0.71271
#
# Static dielectric constant tensor:
#      x y z
#    x 1.737120 0.000000 0.000000 
#    y 0.000000 1.748500 0.000000 
#    z 0.000000 0.000000 1.703100 
# 
# From -- ./inp_files/32963.got.cif
#   From: 2010.05.17/outbox.cif.g08.bks.cpg/sg74_17_cif.got.tgz:32963.got - 2010.06.03 17:57:02.
