data_PCOD9535475
_publ_section_title
;
Structure prediction by ZEFSAII (Michael W. Deem and Ramdas Pophale) SiO2 
 PCOD9535475
Probable space group: I M M A
;
_chemical_formula_sum "Si O2"
_cell_formula_units_Z 112
_cell_length_a 14.391367
_cell_length_b 15.917647
_cell_length_c 29.202265
_cell_angle_alpha 90.000000
_cell_angle_beta 90.000000
_cell_angle_gamma 90.000000
_cell_volume 6689.558492
_symmetry_space_group_name_H-M "I M M A"
_symmetry_group_IT_number 74
_symmetry_cell_setting 'orthorhombic'
loop_
_space_group_symop_operation_xyz
x,y,z
-x,1/2-y,z
x,-y,-z
-x,1/2+y,-z
-x,-y,-z
x,1/2+y,-z
-x,y,z
x,1/2-y,z
1/2+x,1/2+y,1/2+z
1/2-x,-y,1/2+z
1/2+x,1/2-y,1/2-z
1/2-x,y,1/2-z
1/2-x,1/2-y,1/2-z
1/2+x,y,1/2-z
1/2-x,1/2+y,1/2+z
1/2+x,-y,1/2+z
loop_
_atom_site_type_symbol
_atom_site_label
_atom_site_fract_x
_atom_site_fract_y
_atom_site_fract_z
Si Si1 0.108168 0.506075 0.710277
Si Si2 0.896987 0.844973 0.637402
Si Si3 0.105893 0.571596 0.808663
Si Si4 0.697112 0.345160 0.391676
Si Si5 0.888160 0.497427 0.052521
Si Si6 0.105792 0.603616 0.136226
Si Si7 0.275797 0.341402 0.803779
O O1 0.111266 0.582838 0.675073
O O2 0.141470 0.542251 0.759188
O O3 0.163345 0.425694 0.691351
O O4 0.000000 0.481418 0.717439
O O5 0.891240 0.750000 0.657236
O O6 0.808310 0.853118 0.605005
O O7 0.000000 0.852611 0.616279
O O8 0.167569 0.633614 0.839165
O O9 0.100888 0.486034 0.837902
O O10 0.000000 0.604514 0.803739
O O11 0.669247 0.250000 0.402402
O O12 0.649772 0.413928 0.423440
O O13 0.864669 0.577750 0.084631
O O14 0.000000 0.493573 0.053323
O O15 0.857037 0.500000 0.000000
O O16 0.184170 0.652271 0.164472
O O17 0.000000 0.638675 0.136633
O O18 0.321042 0.250000 0.813048
O O19 0.250000 0.341842 0.750000
#
# Coordination Sequence:
#
# PCOD9535475 Si02
#       7
#    16  16  16  16  16  16  16
#     4  10  19  32  49  67  97 137 170 212 259 298
#     4   9  19  33  49  73 101 131 168 205 247 301
#     4   9  17  28  44  66  94 129 165 203 247 299
#     4  10  19  30  49  74 100 130 162 205 256 307
#     4   9  18  33  54  78 103 133 167 208 260 320
#     4   9  17  32  50  68  96 132 169 209 256 308
#     4  11  22  32  47  70  97 135 182 226 259 299
#
# _framework density 16.742509999999999
#
# number of rings (size 3 to 8) (size 9 to 14) (size 15 to 20)
#    0.000    2.429    1.429    3.000    0.000    2.286 
#    0.000    5.000    0.000    3.000    0.000    0.000 
#    0.000    2.286    0.000    0.000    0.000    0.000 
#
# Total GULP energy -311796.830126 kJ/mol
# GULP energy per Si atom -5567.800538 kJ/mol
# Density = 1.670440 g / cm^3
# Si number density = 16.742510 Si / 1000 Ang^3
#
#
#
# Elastic Constant Matrix: (Units=GPa)
#
#
# Indices 1 2 3 4 5 6 
#
# 1 62.5890 28.0961 25.3224 0.0000 0.0000 0.0000
# 2 28.0961 81.1162 24.3756 0.0000 0.0000 0.0000
# 3 25.3224 24.3756 74.2794 0.0000 0.0000 0.0000
# 4 0.0000 0.0000 0.0000 8.7102 0.0000 0.0000
# 5 0.0000 0.0000 0.0000 0.0000 15.2562 0.0000
# 6 0.0000 0.0000 0.0000 0.0000 0.0000 14.4909
#
#
#
# Elastic Compliance Matrix: (Units=1/GPa)
#
#
# Indices 1 2 3 4 5 6 
#
# 1 0.020575 -0.005568 -0.005187 0.000000 0.000000 0.000000
# 2 -0.005568 0.015183 -0.003084 0.000000 0.000000 0.000000
# 3 -0.005187 -0.003084 0.016243 0.000000 0.000000 0.000000
# 4 0.000000 0.000000 0.000000 0.114808 0.000000 0.000000
# 5 0.000000 0.000000 0.000000 0.000000 0.065547 0.000000
# 6 0.000000 0.000000 0.000000 0.000000 0.000000 0.069009
#
#
# Mechanical properties :
#
#
# Convention : Reuss Voigt Hill
#
# Bulk Modulus (GPa) = 41.11337 41.50808 41.31073
# Shear Modulus (GPa) = 14.83008 17.03749 15.93379
#
# Velocity S-wave (km/s) = 2.97942 3.19347 3.08830
# Velocity P-wave (km/s) = 6.03701 6.20029 6.11920
#
# Compressibility (1/GPa) = 0.02432299
#
# Stress axis : x y z
#
# Youngs Moduli (GPa) = 48.60201 65.86130 61.56426
#
# Poissons Ratio (x) = 0.36671 0.31934
# Poissons Ratio (y) = 0.27061 0.18989
# Poissons Ratio (z) = 0.25210 0.20315
#
# Static dielectric constant tensor:
#      x y z
#    x 1.614880 0.000000 0.000000 
#    y 0.000000 1.571750 0.000000 
#    z 0.000000 0.000000 1.565150 
# 
# From -- ./inp_files/72684.got.cif
#   From: 2010.05.17/outbox.cif.g08.bks.cpg/sg74_37_cif.got.tgz:72684.got - 2010.06.03 17:57:02.
