data_PCOD9535286
_publ_section_title
;
Structure prediction by ZEFSAII (Michael W. Deem and Ramdas Pophale) SiO2 
 PCOD9535286
Probable space group: I M M A
;
_chemical_formula_sum "Si O2"
_cell_formula_units_Z 104
_cell_length_a 26.982767
_cell_length_b 8.698148
_cell_length_c 21.264274
_cell_angle_alpha 90.000000
_cell_angle_beta 90.000000
_cell_angle_gamma 90.000000
_cell_volume 4990.727252
_symmetry_space_group_name_H-M "I M M A"
_symmetry_group_IT_number 74
_symmetry_cell_setting 'orthorhombic'
loop_
_space_group_symop_operation_xyz
x,y,z
-x,1/2-y,z
x,-y,-z
-x,1/2+y,-z
-x,-y,-z
x,1/2+y,-z
-x,y,z
x,1/2-y,z
1/2+x,1/2+y,1/2+z
1/2-x,-y,1/2+z
1/2+x,1/2-y,1/2-z
1/2-x,y,1/2-z
1/2-x,1/2-y,1/2-z
1/2+x,y,1/2-z
1/2-x,1/2+y,1/2+z
1/2+x,-y,1/2+z
loop_
_atom_site_type_symbol
_atom_site_label
_atom_site_fract_x
_atom_site_fract_y
_atom_site_fract_z
Si Si1 0.386361 0.566065 0.064832
Si Si2 0.392920 0.435305 0.792771
Si Si3 0.710509 0.080350 0.196202
Si Si4 0.771222 0.924531 0.420857
Si Si5 0.500000 0.067692 0.430104
Si Si6 0.834039 0.068622 0.065287
Si Si7 0.087409 0.566758 0.153816
O O1 0.387941 0.750000 0.060600
O O2 0.407951 0.525377 0.134457
O O3 0.327530 0.521767 0.064997
O O4 0.408382 0.500000 0.000000
O O5 0.383478 0.250000 0.793834
O O6 0.343729 0.534605 0.781879
O O7 0.422608 0.464624 0.728094
O O8 0.708860 0.250000 0.163964
O O9 0.750000 0.093427 0.250000
O O10 0.727620 0.938885 0.153804
O O11 0.764253 0.750000 0.442996
O O12 0.724488 0.029273 0.436925
O O13 0.500000 0.250000 0.434579
O O14 0.500000 0.000000 0.500000
O O15 0.547168 0.011220 0.390616
O O16 0.841461 0.250000 0.067248
O O17 0.860122 0.992209 0.125721
O O18 0.855353 0.000000 0.000000
O O19 0.085760 0.750000 0.146008
#
# Coordination Sequence:
#
# PCOD9535286 Si02
#       7
#    16  16  16  16   8  16  16
#     4   9  18  32  50  76 109 148 191 233 275 321
#     4   9  20  36  54  77 108 144 184 228 276 332
#     4  10  19  29  44  69 102 140 184 233 282 331
#     4  10  20  33  48  69 102 146 195 241 284 330
#     4  12  26  46  70  96 123 148 179 222 273 334
#     4  12  24  37  53  77 109 145 188 237 287 338
#     4  11  23  42  65  87 112 145 183 226 280 340
#
# _framework density 20.838645
#
# number of rings (size 3 to 8) (size 9 to 14) (size 15 to 20)
#    0.000    1.692    0.000    6.231    0.000    9.231 
#    0.000    0.000    0.000    0.000    0.000    0.538 
#    0.000    0.000    0.000    0.000    0.000    0.000 
#
# Total GULP energy -289719.768868 kJ/mol
# GULP energy per Si atom -5571.534017 kJ/mol
# Density = 2.079122 g / cm^3
# Si number density = 20.838645 Si / 1000 Ang^3
#
#
#
# Elastic Constant Matrix: (Units=GPa)
#
#
# Indices 1 2 3 4 5 6 
#
# 1 22.6628 18.4208 26.7678 0.0000 0.0000 0.0000
# 2 18.4208 78.8316 52.3912 0.0000 0.0000 0.0000
# 3 26.7678 52.3912 180.1184 0.0000 0.0000 0.0000
# 4 0.0000 0.0000 0.0000 88.6732 0.0000 0.0000
# 5 0.0000 0.0000 0.0000 0.0000 48.1758 0.0000
# 6 0.0000 0.0000 0.0000 0.0000 0.0000 17.5554
#
#
#
# Elastic Compliance Matrix: (Units=1/GPa)
#
#
# Indices 1 2 3 4 5 6 
#
# 1 0.059149 -0.009892 -0.005913 0.000000 0.000000 0.000000
# 2 -0.009892 0.017379 -0.003585 0.000000 0.000000 0.000000
# 3 -0.005913 -0.003585 0.007473 0.000000 0.000000 0.000000
# 4 0.000000 0.000000 0.000000 0.011277 0.000000 0.000000
# 5 0.000000 0.000000 0.000000 0.000000 0.020757 0.000000
# 6 0.000000 0.000000 0.000000 0.000000 0.000000 0.056963
#
#
# Mechanical properties :
#
#
# Convention : Reuss Voigt Hill
#
# Bulk Modulus (GPa) = 22.11298 52.97472 37.54385
# Shear Modulus (GPa) = 22.04064 43.14975 32.59520
#
# Velocity S-wave (km/s) = 3.25573 4.55539 3.95925
# Velocity P-wave (km/s) = 4.97670 7.29008 6.24151
#
# Compressibility (1/GPa) = 0.04522232
#
# Stress axis : x y z
#
# Youngs Moduli (GPa) = 16.90632 57.53961 133.80670
#
# Poissons Ratio (x) = 0.56917 0.79122
# Poissons Ratio (y) = 0.16723 0.47971
# Poissons Ratio (z) = 0.09997 0.20629
#
# Static dielectric constant tensor:
#      x y z
#    x 1.786510 0.000000 0.000000 
#    y 0.000000 1.845850 0.000000 
#    z 0.000000 0.000000 1.841140 
# 
# From -- ./inp_files/55185.got.cif
#   From: 2010.05.17/outbox.cif.g08.bks.cpg/sg74_28_cif.got.tgz:55185.got - 2010.06.03 17:57:02.
