data_PCOD9535302
_publ_section_title
;
Structure prediction by ZEFSAII (Michael W. Deem and Ramdas Pophale) SiO2 
 PCOD9535302
Probable space group: I M M A
;
_chemical_formula_sum "Si O2"
_cell_formula_units_Z 128
_cell_length_a 22.288804
_cell_length_b 18.078356
_cell_length_c 17.976327
_cell_angle_alpha 90.000000
_cell_angle_beta 90.000000
_cell_angle_gamma 90.000000
_cell_volume 7243.469888
_symmetry_space_group_name_H-M "I M M A"
_symmetry_group_IT_number 74
_symmetry_cell_setting 'orthorhombic'
loop_
_space_group_symop_operation_xyz
x,y,z
-x,1/2-y,z
x,-y,-z
-x,1/2+y,-z
-x,-y,-z
x,1/2+y,-z
-x,y,z
x,1/2-y,z
1/2+x,1/2+y,1/2+z
1/2-x,-y,1/2+z
1/2+x,1/2-y,1/2-z
1/2-x,y,1/2-z
1/2-x,1/2-y,1/2-z
1/2+x,y,1/2-z
1/2-x,1/2+y,1/2+z
1/2+x,-y,1/2+z
loop_
_atom_site_type_symbol
_atom_site_label
_atom_site_fract_x
_atom_site_fract_y
_atom_site_fract_z
Si Si1 0.685938 0.492831 0.270117
Si Si2 0.572600 0.666209 0.059943
Si Si3 0.430329 0.622801 0.894549
Si Si4 0.570551 0.538279 0.176038
Si Si5 0.850705 0.830782 0.741706
Si Si6 0.072038 0.668982 0.053345
Si Si7 0.931550 0.864741 0.883480
Si Si8 0.124552 0.014975 0.914135
O O1 0.750000 0.527132 0.250000
O O2 0.624022 0.526540 0.235777
O O3 0.685805 0.407257 0.243625
O O4 0.678279 0.498449 0.358490
O O5 0.500000 0.667345 0.057466
O O6 0.593569 0.750000 0.073630
O O7 0.586627 0.608309 0.124828
O O8 0.591831 0.639441 0.977828
O O9 0.500000 0.646083 0.889618
O O10 0.428391 0.535656 0.874822
O O11 0.392438 0.662841 0.831026
O O12 0.500000 0.544760 0.202714
O O13 0.821073 0.750000 0.741474
O O14 0.891025 0.837261 0.816278
O O15 0.089640 0.750000 0.081861
O O16 0.101714 0.598588 0.091583
O O17 0.000000 0.661893 0.059025
O O18 0.085956 0.664798 0.964926
O O19 0.000000 0.844590 0.868857
O O20 0.924882 0.953651 0.891166
O O21 0.139295 0.000000 0.000000
#
# Coordination Sequence:
#
# PCOD9535302 Si02
#       8
#    16  16  16  16  16  16  16  16
#     4  10  22  39  56  75 100 133 171 207 249 304
#     4   9  16  27  46  73 104 136 172 217 263 301
#     4   9  16  26  43  71 107 141 171 207 252 302
#     4   9  18  33  53  75 101 135 173 211 252 301
#     4  10  19  29  45  71 102 135 168 202 245 302
#     4   9  16  26  44  73 105 134 167 210 257 300
#     4   9  16  26  43  71 107 141 169 200 245 303
#     4   9  18  33  52  71  96 133 173 209 247 296
#
# _framework density 17.671088999999998
#
# number of rings (size 3 to 8) (size 9 to 14) (size 15 to 20)
#    0.000    2.750    0.000    1.875    0.000    8.750 
#    0.000    3.125    0.000    3.000    0.000    0.000 
#    0.000    0.000    0.000    0.000    0.000    0.000 
#
# Total GULP energy -356377.557371 kJ/mol
# GULP energy per Si atom -5568.399334 kJ/mol
# Density = 1.763087 g / cm^3
# Si number density = 17.671089 Si / 1000 Ang^3
#
#
#
# Elastic Constant Matrix: (Units=GPa)
#
#
# Indices 1 2 3 4 5 6 
#
# 1 63.6141 15.3669 32.3354 0.0000 0.0000 0.0000
# 2 15.3669 107.6545 25.8939 0.0000 0.0000 0.0000
# 3 32.3354 25.8939 62.4211 0.0000 0.0000 0.0000
# 4 0.0000 0.0000 0.0000 -2.0377 0.0000 0.0000
# 5 0.0000 0.0000 0.0000 0.0000 6.7420 0.0000
# 6 0.0000 0.0000 0.0000 0.0000 0.0000 0.4501
#
#
#
# Elastic Compliance Matrix: (Units=1/GPa)
#
#
# Indices 1 2 3 4 5 6 
#
# 1 0.021356 -0.000430 -0.010884 0.000000 0.000000 0.000000
# 2 -0.000430 0.010327 -0.004061 0.000000 0.000000 0.000000
# 3 -0.010884 -0.004061 0.023343 0.000000 0.000000 0.000000
# 4 0.000000 0.000000 0.000000 -0.490759 0.000000 0.000000
# 5 0.000000 0.000000 0.000000 0.000000 0.148324 0.000000
# 6 0.000000 0.000000 0.000000 0.000000 0.000000 2.221843
#
#
# Mechanical properties :
#
#
# Convention : Reuss Voigt Hill
#
# Bulk Modulus (GPa) = 41.19477 42.32024 41.75750
# Shear Modulus (GPa) = 2.53385 11.70379 7.11882
#
# Velocity S-wave (km/s) = 1.19875 2.57634 2.00929
# Velocity P-wave (km/s) = 5.02778 5.73157 5.39117
#
# Compressibility (1/GPa) = 0.02427493
#
# Stress axis : x y z
#
# Youngs Moduli (GPa) = 46.82435 96.83161 42.83901
#
# Poissons Ratio (x) = 0.04168 0.46628
# Poissons Ratio (y) = 0.02016 0.17397
# Poissons Ratio (z) = 0.50966 0.39323
#
# Static dielectric constant tensor:
#      x y z
#    x 1.590970 0.000000 0.000000 
#    y 0.000000 1.639810 0.000000 
#    z 0.000000 0.000000 1.597050 
# 
# From -- ./inp_files/46286.got.cif
#   From: 2010.05.17/outbox.cif.g08.bks.cpg/sg74_24_cif.got.tgz:46286.got - 2010.06.03 17:57:02.
