data_PCOD9535234
_publ_section_title
;
Structure prediction by ZEFSAII (Michael W. Deem and Ramdas Pophale) SiO2 
 PCOD9535234
Probable space group: I M M A
;
_chemical_formula_sum "Si O2"
_cell_formula_units_Z 72
_cell_length_a 23.856286
_cell_length_b 8.757828
_cell_length_c 23.884474
_cell_angle_alpha 90.000000
_cell_angle_beta 90.000000
_cell_angle_gamma 90.000000
_cell_volume 4990.165228
_symmetry_space_group_name_H-M "I M M A"
_symmetry_group_IT_number 74
_symmetry_cell_setting 'orthorhombic'
loop_
_space_group_symop_operation_xyz
x,y,z
-x,1/2-y,z
x,-y,-z
-x,1/2+y,-z
-x,-y,-z
x,1/2+y,-z
-x,y,z
x,1/2-y,z
1/2+x,1/2+y,1/2+z
1/2-x,-y,1/2+z
1/2+x,1/2-y,1/2-z
1/2-x,y,1/2-z
1/2-x,1/2-y,1/2-z
1/2+x,y,1/2-z
1/2-x,1/2+y,1/2+z
1/2+x,-y,1/2+z
loop_
_atom_site_type_symbol
_atom_site_label
_atom_site_fract_x
_atom_site_fract_y
_atom_site_fract_z
Si Si1 0.500000 0.932203 0.937598
Si Si2 0.610900 0.067265 0.882469
Si Si3 0.717822 0.568234 0.670979
Si Si4 0.723495 0.933550 0.938853
Si Si5 0.170313 0.431629 0.727475
O O1 0.500000 0.750000 0.940381
O O2 0.555310 0.991204 0.906140
O O3 0.500000 0.000000 0.000000
O O4 0.608741 0.250000 0.890415
O O5 0.620427 0.036846 0.816131
O O6 0.665323 0.003063 0.915141
O O7 0.713291 0.750000 0.676194
O O8 0.727347 0.528734 0.605917
O O9 0.776162 0.512383 0.698762
O O10 0.669899 0.491452 0.708957
O O11 0.717967 0.750000 0.940726
O O12 0.734201 0.000000 0.000000
O O13 0.179654 0.250000 0.727992
#
# Coordination Sequence:
#
# PCOD9535234 Si02
#       5
#     8  16  16  16  16
#     4  12  24  36  48  60  78 106 139 176 213 246
#     4  10  20  33  46  60  79 104 136 174 210 245
#     4   9  16  25  39  58  80 103 129 162 198 237
#     4  10  19  29  41  59  82 110 140 169 202 240
#     4   9  16  26  42  60  77  99 128 162 201 241
#
# _framework density 14.428379
#
# number of rings (size 3 to 8) (size 9 to 14) (size 15 to 20)
#    0.000    2.222    0.000    5.667    0.000    5.333 
#    0.000    0.000    0.000    0.000    0.000    0.000 
#    0.000    0.000    0.000    1.000    0.000   13.111 
#
# Total GULP energy -200518.344563 kJ/mol
# GULP energy per Si atom -5569.954016 kJ/mol
# Density = 1.439554 g / cm^3
# Si number density = 14.428379 Si / 1000 Ang^3
#
#
#
# Elastic Constant Matrix: (Units=GPa)
#
#
# Indices 1 2 3 4 5 6 
#
# 1 46.1459 29.3085 55.0319 0.0000 0.0000 0.0000
# 2 29.3085 68.9490 50.1732 0.0000 0.0000 0.0000
# 3 55.0319 50.1732 139.2954 0.0000 0.0000 0.0000
# 4 0.0000 0.0000 0.0000 25.5011 0.0000 0.0000
# 5 0.0000 0.0000 0.0000 0.0000 19.8990 0.0000
# 6 0.0000 0.0000 0.0000 0.0000 0.0000 18.4680
#
#
#
# Elastic Compliance Matrix: (Units=1/GPa)
#
#
# Indices 1 2 3 4 5 6 
#
# 1 0.044178 -0.008237 -0.014487 0.000000 0.000000 0.000000
# 2 -0.008237 0.021191 -0.004379 0.000000 0.000000 0.000000
# 3 -0.014487 -0.004379 0.014479 0.000000 0.000000 0.000000
# 4 0.000000 0.000000 0.000000 0.039214 0.000000 0.000000
# 5 0.000000 0.000000 0.000000 0.000000 0.050254 0.000000
# 6 0.000000 0.000000 0.000000 0.000000 0.000000 0.054148
#
#
# Mechanical properties :
#
#
# Convention : Reuss Voigt Hill
#
# Bulk Modulus (GPa) = 38.99579 58.15750 48.57664
# Shear Modulus (GPa) = 17.46924 20.76543 19.11734
#
# Velocity S-wave (km/s) = 3.48337 3.79780 3.64398
# Velocity P-wave (km/s) = 6.57756 7.72181 7.17254
#
# Compressibility (1/GPa) = 0.02564379
#
# Stress axis : x y z
#
# Youngs Moduli (GPa) = 22.63550 47.18946 69.06373
#
# Poissons Ratio (x) = 0.38872 1.00050
# Poissons Ratio (y) = 0.18646 0.30240
# Poissons Ratio (z) = 0.32791 0.20662
#
# Static dielectric constant tensor:
#      x y z
#    x 1.450820 0.000000 0.000000 
#    y 0.000000 1.481110 0.000000 
#    z 0.000000 0.000000 1.530570 
# 
# From -- ./inp_files/48506.got.cif
#   From: 2010.05.17/outbox.cif.g08.bks.cpg/sg74_25_cif.got.tgz:48506.got - 2010.06.03 17:57:02.
