data_PCOD9535256
_publ_section_title
;
Structure prediction by ZEFSAII (Michael W. Deem and Ramdas Pophale) SiO2 
 PCOD9535256
Probable space group: I M M A
;
_chemical_formula_sum "Si O2"
_cell_formula_units_Z 96
_cell_length_a 8.861251
_cell_length_b 29.377275
_cell_length_c 27.147481
_cell_angle_alpha 90.000000
_cell_angle_beta 90.000000
_cell_angle_gamma 90.000000
_cell_volume 7067.016168
_symmetry_space_group_name_H-M "I M M A"
_symmetry_group_IT_number 74
_symmetry_cell_setting 'orthorhombic'
loop_
_space_group_symop_operation_xyz
x,y,z
-x,1/2-y,z
x,-y,-z
-x,1/2+y,-z
-x,-y,-z
x,1/2+y,-z
-x,y,z
x,1/2-y,z
1/2+x,1/2+y,1/2+z
1/2-x,-y,1/2+z
1/2+x,1/2-y,1/2-z
1/2-x,y,1/2-z
1/2-x,1/2-y,1/2-z
1/2+x,y,1/2-z
1/2-x,1/2+y,1/2+z
1/2+x,-y,1/2+z
loop_
_atom_site_type_symbol
_atom_site_label
_atom_site_fract_x
_atom_site_fract_y
_atom_site_fract_z
Si Si1 0.819489 0.301009 0.354181
Si Si2 0.818919 0.394447 0.303002
Si Si3 0.678664 0.607715 0.990065
Si Si4 0.181973 0.555534 0.896072
Si Si5 0.326155 0.531917 0.451130
Si Si6 0.820048 0.198183 0.037237
O O1 0.785282 0.250000 0.335388
O O2 0.779682 0.342370 0.318426
O O3 0.736597 0.306731 0.406369
O O4 0.000000 0.303495 0.363229
O O5 0.750000 0.404869 0.250000
O O6 0.750551 0.426117 0.345647
O O7 0.000000 0.398478 0.302211
O O8 0.500000 0.607592 0.983852
O O9 0.753823 0.585940 0.940958
O O10 0.740736 0.658758 0.993694
O O11 0.727086 0.575332 0.035196
O O12 0.221659 0.502954 0.908389
O O13 0.000000 0.559050 0.896345
O O14 0.323761 0.500000 0.500000
O O15 0.500000 0.545842 0.443462
O O16 0.783373 0.250000 0.022033
O O17 0.000000 0.192363 0.035876
#
# Coordination Sequence:
#
# PCOD9535256 Si02
#       6
#    16  16  16  16  16  16
#     4   9  18  32  46  59  76 100 133 174 218 258
#     4  11  22  33  46  62  80 106 137 174 218 260
#     4  11  19  27  43  65  86 108 132 165 205 248
#     4  10  19  32  47  61  81 105 133 171 209 249
#     4   8  16  29  44  62  82 105 130 162 203 244
#     4  10  19  29  43  61  81 109 141 171 206 248
#
# _framework density 13.584235
#
# number of rings (size 3 to 8) (size 9 to 14) (size 15 to 20)
#    0.000    2.167    1.667    4.000    0.000    5.667 
#    0.000    0.000    0.000    0.000    0.000    0.000 
#    0.000    0.000    0.000    0.000    0.000    0.833 
#
# Total GULP energy -267622.694359 kJ/mol
# GULP energy per Si atom -5575.472799 kJ/mol
# Density = 1.355332 g / cm^3
# Si number density = 13.584235 Si / 1000 Ang^3
#
#
#
# Elastic Constant Matrix: (Units=GPa)
#
#
# Indices 1 2 3 4 5 6 
#
# 1 57.6993 50.1193 30.5813 0.0000 0.0000 0.0000
# 2 50.1193 98.5800 54.5442 0.0000 0.0000 0.0000
# 3 30.5813 54.5442 57.3595 0.0000 0.0000 0.0000
# 4 0.0000 0.0000 0.0000 17.7572 0.0000 0.0000
# 5 0.0000 0.0000 0.0000 0.0000 16.9067 0.0000
# 6 0.0000 0.0000 0.0000 0.0000 0.0000 19.0137
#
#
#
# Elastic Compliance Matrix: (Units=1/GPa)
#
#
# Indices 1 2 3 4 5 6 
#
# 1 0.031329 -0.014110 -0.003285 0.000000 0.000000 0.000000
# 2 -0.014110 0.027762 -0.018877 0.000000 0.000000 0.000000
# 3 -0.003285 -0.018877 0.037136 0.000000 0.000000 0.000000
# 4 0.000000 0.000000 0.000000 0.056315 0.000000 0.000000
# 5 0.000000 0.000000 0.000000 0.000000 0.059148 0.000000
# 6 0.000000 0.000000 0.000000 0.000000 0.000000 0.052594
#
#
# Mechanical properties :
#
#
# Convention : Reuss Voigt Hill
#
# Bulk Modulus (GPa) = 42.22569 53.79204 48.00887
# Shear Modulus (GPa) = 14.50435 15.96178 15.23307
#
# Velocity S-wave (km/s) = 3.27117 3.43158 3.35233
# Velocity P-wave (km/s) = 6.73938 7.44216 7.09947
#
# Compressibility (1/GPa) = 0.02368227
#
# Stress axis : x y z
#
# Youngs Moduli (GPa) = 31.91903 36.01982 26.92814
#
# Poissons Ratio (x) = 0.50825 0.08847
# Poissons Ratio (y) = 0.45039 0.50832
# Poissons Ratio (z) = 0.10487 0.67994
#
# Static dielectric constant tensor:
#      x y z
#    x 1.452350 0.000000 0.000000 
#    y 0.000000 1.473790 0.000000 
#    z 0.000000 0.000000 1.414570 
# 
# From -- ./inp_files/64903.got.cif
#   From: 2010.05.17/outbox.cif.g08.bks.cpg/sg74_33_cif.got.tgz:64903.got - 2010.06.03 17:57:02.
