data_PCOD9535153
_publ_section_title
;
Structure prediction by ZEFSAII (Michael W. Deem and Ramdas Pophale) SiO2 
 PCOD9535153
Probable space group: I M M A
;
_chemical_formula_sum "Si O2"
_cell_formula_units_Z 48
_cell_length_a 18.253175
_cell_length_b 13.540024
_cell_length_c 7.426137
_cell_angle_alpha 90.000000
_cell_angle_beta 90.000000
_cell_angle_gamma 90.000000
_cell_volume 1835.358083
_symmetry_space_group_name_H-M "I M M A"
_symmetry_group_IT_number 74
_symmetry_cell_setting 'orthorhombic'
loop_
_space_group_symop_operation_xyz
x,y,z
-x,1/2-y,z
x,-y,-z
-x,1/2+y,-z
-x,-y,-z
x,1/2+y,-z
-x,y,z
x,1/2-y,z
1/2+x,1/2+y,1/2+z
1/2-x,-y,1/2+z
1/2+x,1/2-y,1/2-z
1/2-x,y,1/2-z
1/2-x,1/2-y,1/2-z
1/2+x,y,1/2-z
1/2-x,1/2+y,1/2+z
1/2+x,-y,1/2+z
loop_
_atom_site_type_symbol
_atom_site_label
_atom_site_fract_x
_atom_site_fract_y
_atom_site_fract_z
Si Si1 0.222853 0.886544 0.548807
Si Si2 0.626198 0.642606 0.379693
Si Si3 0.083799 0.427502 0.272887
O O1 0.250000 0.865712 0.750000
O O2 0.286575 0.848411 0.419055
O O3 0.136174 0.873192 0.582228
O O4 0.228497 0.000000 0.500000
O O5 0.602073 0.750000 0.308055
O O6 0.609392 0.541489 0.270506
O O7 0.591846 0.624395 0.577837
O O8 0.000000 0.427694 0.328962
#
# Coordination Sequence:
#
# PCOD9535153 Si02
#       3
#    16  16  16
#     4  10  18  36  58  81 115 147 192 238 284 351
#     4  10  19  35  61  84 112 155 201 240 280 350
#     4  10  21  35  55  85 119 151 191 244 298 346
#
# _framework density 26.152933999999998
#
# number of rings (size 3 to 8) (size 9 to 14) (size 15 to 20)
#    0.000    2.000    6.667    2.000    0.000    9.333 
#    0.000    3.333    0.000    0.000    0.000    9.333 
#    0.000    0.000    0.000    0.000    0.000    0.000 
#
# Total GULP energy -133795.263377 kJ/mol
# GULP energy per Si atom -5574.802641 kJ/mol
# Density = 2.609341 g / cm^3
# Si number density = 26.152934 Si / 1000 Ang^3
#
#
#
# Elastic Constant Matrix: (Units=GPa)
#
#
# Indices 1 2 3 4 5 6 
#
# 1 240.2575 30.2954 15.2062 0.0000 0.0000 0.0000
# 2 30.2954 153.2109 -22.7725 0.0000 0.0000 0.0000
# 3 15.2062 -22.7725 20.8636 0.0000 0.0000 0.0000
# 4 0.0000 0.0000 0.0000 -22.6615 0.0000 0.0000
# 5 0.0000 0.0000 0.0000 0.0000 -6.9374 0.0000
# 6 0.0000 0.0000 0.0000 0.0000 0.0000 -6.6646
#
#
#
# Elastic Compliance Matrix: (Units=1/GPa)
#
#
# Indices 1 2 3 4 5 6 
#
# 1 0.004716 -0.001723 -0.005318 0.000000 0.000000 0.000000
# 2 -0.001723 0.008420 0.010447 0.000000 0.000000 0.000000
# 3 -0.005318 0.010447 0.063209 0.000000 0.000000 0.000000
# 4 0.000000 0.000000 0.000000 -0.044128 0.000000 0.000000
# 5 0.000000 0.000000 0.000000 0.000000 -0.144147 0.000000
# 6 0.000000 0.000000 0.000000 0.000000 0.000000 -0.150047
#
#
# Mechanical properties :
#
#
# Convention : Reuss Voigt Hill
#
# Bulk Modulus (GPa) = 12.02550 51.08780 31.55665
# Shear Modulus (GPa) = -20.74096 18.85417 -0.94339
#
# Velocity S-wave (km/s) = -2.81919 2.68791 -0.60125
# Velocity P-wave (km/s) = 2.44725 5.40461 3.40740
#
# Compressibility (1/GPa) = 0.08315665
#
# Stress axis : x y z
#
# Youngs Moduli (GPa) = 212.04289 118.75972 15.82061
#
# Poissons Ratio (x) = 0.20462 0.08413
# Poissons Ratio (y) = 0.36534 -0.16527
# Poissons Ratio (z) = 1.12760 -1.24063
#
# Static dielectric constant tensor:
#      x y z
#    x 2.081840 0.000000 0.000000 
#    y 0.000000 2.021600 0.000000 
#    z 0.000000 0.000000 2.086750 
# 
# From -- ./inp_files/7978.got.cif
#   From: 2010.05.17/outbox.cif.g08.bks.cpg/sg74_4_cif.got.tgz:7978.got - 2010.06.03 17:57:02.
