data_PCOD9535821
_publ_section_title
;
Structure prediction by ZEFSAII (Michael W. Deem and Ramdas Pophale) SiO2 
 PCOD9535821
Probable space group: I M M A
;
_chemical_formula_sum "Si O2"
_cell_formula_units_Z 104
_cell_length_a 7.953861
_cell_length_b 21.284432
_cell_length_c 32.986096
_cell_angle_alpha 90.000000
_cell_angle_beta 90.000000
_cell_angle_gamma 90.000000
_cell_volume 5584.328793
_symmetry_space_group_name_H-M "I M M A"
_symmetry_group_IT_number 74
_symmetry_cell_setting 'orthorhombic'
loop_
_space_group_symop_operation_xyz
x,y,z
-x,1/2-y,z
x,-y,-z
-x,1/2+y,-z
-x,-y,-z
x,1/2+y,-z
-x,y,z
x,1/2-y,z
1/2+x,1/2+y,1/2+z
1/2-x,-y,1/2+z
1/2+x,1/2-y,1/2-z
1/2-x,y,1/2-z
1/2-x,1/2-y,1/2-z
1/2+x,y,1/2-z
1/2-x,1/2+y,1/2+z
1/2+x,-y,1/2+z
loop_
_atom_site_type_symbol
_atom_site_label
_atom_site_fract_x
_atom_site_fract_y
_atom_site_fract_z
Si Si1 0.297452 0.057242 0.882217
Si Si2 0.202703 0.679101 0.978340
Si Si3 0.797015 0.572617 0.916632
Si Si4 0.198162 0.012009 0.705403
Si Si5 0.702750 0.750000 0.703445
Si Si6 0.296878 0.680007 0.072120
Si Si7 0.203120 0.882350 0.828119
O O1 0.500000 0.060234 0.879723
O O2 0.231510 0.042117 0.836610
O O3 0.234546 0.122982 0.900200
O O4 0.256676 0.999954 0.912912
O O5 0.261537 0.750000 0.966285
O O6 0.264146 0.620327 0.951414
O O7 0.000000 0.680002 0.974715
O O8 0.248178 0.670062 0.025288
O O9 0.742399 0.601008 0.873465
O O10 0.000000 0.572478 0.918355
O O11 0.250000 0.035085 0.750000
O O12 0.000000 0.019761 0.703397
O O13 0.240043 0.938248 0.701046
O O14 0.500000 0.750000 0.699294
O O15 0.750000 0.750000 0.750000
O O16 0.766566 0.685793 0.684076
O O17 0.500000 0.680058 0.074169
O O18 0.237738 0.750000 0.083942
O O19 0.000000 0.881869 0.827510
#
# Coordination Sequence:
#
# PCOD9535821 Si02
#       7
#    16  16  16  16   8  16  16
#     4   9  19  34  51  72  97 124 156 196 239 282
#     4   9  18  31  48  71  99 131 165 201 238 277
#     4   9  18  31  48  70  96 127 163 199 237 280
#     4  10  19  32  50  70  93 120 152 190 234 283
#     4  10  20  30  42  60  84 116 156 198 238 278
#     4   9  18  34  54  73  94 124 160 194 233 285
#     4   9  18  31  46  65  89 122 160 197 236 277
#
# _framework density 18.623546999999999
#
# number of rings (size 3 to 8) (size 9 to 14) (size 15 to 20)
#    0.000    2.769    0.000    0.923    1.077    4.308 
#    0.000    3.077    0.000    0.462    0.000    0.000 
#    0.000    0.000    0.000    0.000    0.000    0.462 
#
# Total GULP energy -289762.054508 kJ/mol
# GULP energy per Si atom -5572.347202 kJ/mol
# Density = 1.858116 g / cm^3
# Si number density = 18.623547 Si / 1000 Ang^3
#
#
#
# Elastic Constant Matrix: (Units=GPa)
#
#
# Indices 1 2 3 4 5 6 
#
# 1 13.1701 10.3078 5.9378 0.0000 0.0000 0.0000
# 2 10.3078 167.0193 93.3731 0.0000 0.0000 0.0000
# 3 5.9378 93.3731 94.2504 0.0000 0.0000 0.0000
# 4 0.0000 0.0000 0.0000 8.7860 0.0000 0.0000
# 5 0.0000 0.0000 0.0000 0.0000 22.8287 0.0000
# 6 0.0000 0.0000 0.0000 0.0000 0.0000 17.6619
#
#
#
# Elastic Compliance Matrix: (Units=1/GPa)
#
#
# Indices 1 2 3 4 5 6 
#
# 1 0.079788 -0.004738 -0.000332 0.000000 0.000000 0.000000
# 2 -0.004738 0.013701 -0.013275 0.000000 0.000000 0.000000
# 3 -0.000332 -0.013275 0.023783 0.000000 0.000000 0.000000
# 4 0.000000 0.000000 0.000000 0.113818 0.000000 0.000000
# 5 0.000000 0.000000 0.000000 0.000000 0.043805 0.000000
# 6 0.000000 0.000000 0.000000 0.000000 0.000000 0.056619
#
#
# Mechanical properties :
#
#
# Convention : Reuss Voigt Hill
#
# Bulk Modulus (GPa) = 12.41003 54.85301 33.63152
# Shear Modulus (GPa) = 12.65611 20.84338 16.74974
#
# Velocity S-wave (km/s) = 2.60969 3.34907 3.00223
# Velocity P-wave (km/s) = 3.96973 6.66877 5.48777
#
# Compressibility (1/GPa) = 0.08057996
#
# Stress axis : x y z
#
# Youngs Moduli (GPa) = 12.53322 72.98497 42.04719
#
# Poissons Ratio (x) = 0.34583 0.01397
# Poissons Ratio (y) = 0.05939 0.55819
# Poissons Ratio (z) = 0.00417 0.96890
#
# Static dielectric constant tensor:
#      x y z
#    x 1.672750 0.000000 0.000000 
#    y 0.000000 1.725500 0.000000 
#    z 0.000000 0.000000 1.638310 
# 
# From -- ./inp_files/70621.got.cif
#   From: 2010.05.17/outbox.cif.g08.bks.cpg/sg74_36_cif.got.tgz:70621.got - 2010.06.03 17:57:02.
