data_PCOD9535640
_publ_section_title
;
Structure prediction by ZEFSAII (Michael W. Deem and Ramdas Pophale) SiO2 
 PCOD9535640
Probable space group: I M M A
;
_chemical_formula_sum "Si O2"
_cell_formula_units_Z 96
_cell_length_a 8.778150
_cell_length_b 26.188126
_cell_length_c 23.466064
_cell_angle_alpha 90.000000
_cell_angle_beta 90.000000
_cell_angle_gamma 90.000000
_cell_volume 5394.456189
_symmetry_space_group_name_H-M "I M M A"
_symmetry_group_IT_number 74
_symmetry_cell_setting 'orthorhombic'
loop_
_space_group_symop_operation_xyz
x,y,z
-x,1/2-y,z
x,-y,-z
-x,1/2+y,-z
-x,-y,-z
x,1/2+y,-z
-x,y,z
x,1/2-y,z
1/2+x,1/2+y,1/2+z
1/2-x,-y,1/2+z
1/2+x,1/2-y,1/2-z
1/2-x,y,1/2-z
1/2-x,1/2-y,1/2-z
1/2+x,y,1/2-z
1/2-x,1/2+y,1/2+z
1/2+x,-y,1/2+z
loop_
_atom_site_type_symbol
_atom_site_label
_atom_site_fract_x
_atom_site_fract_y
_atom_site_fract_z
Si Si1 0.316254 0.499249 0.686926
Si Si2 0.666809 0.439750 0.003950
Si Si3 0.180606 0.309858 0.933960
Si Si4 0.682136 0.307777 0.060386
Si Si5 0.176378 0.596185 0.889552
Si Si6 0.323696 0.598946 0.124798
O O1 0.500000 0.498215 0.687053
O O2 0.250000 0.504381 0.750000
O O3 0.267520 0.549424 0.650214
O O4 0.256427 0.445730 0.660753
O O5 0.500000 0.422859 0.027235
O O6 0.799103 0.424009 0.046252
O O7 0.665346 0.500000 0.000000
O O8 0.680056 0.420465 0.940272
O O9 0.207013 0.250000 0.921457
O O10 0.244344 0.346156 0.883903
O O11 0.000000 0.318562 0.940196
O O12 0.257990 0.319653 0.996035
O O13 0.500000 0.307661 0.058533
O O14 0.735168 0.250000 0.073514
O O15 0.739071 0.349489 0.105913
O O16 0.000000 0.604771 0.876501
O O17 0.500000 0.604043 0.142805
#
# Coordination Sequence:
#
# PCOD9535640 Si02
#       6
#    16  16  16  16  16  16
#     4  11  25  42  59  81 108 143 187 233 281 330
#     4  10  19  31  49  77 111 146 180 214 266 330
#     4  10  20  33  51  79 116 153 186 223 268 321
#     4  10  20  33  51  78 113 151 186 220 266 327
#     4  11  22  34  54  81 111 144 180 226 276 327
#     4  11  21  34  56  83 113 148 184 225 273 328
#
# _framework density 17.796049
#
# number of rings (size 3 to 8) (size 9 to 14) (size 15 to 20)
#    0.000    1.500    3.333    2.500    0.000    5.000 
#    0.000    0.000    0.000    1.000    0.000    0.000 
#    0.000    0.000    0.000    0.000    0.000    0.000 
#
# Total GULP energy -267577.667515 kJ/mol
# GULP energy per Si atom -5574.534740 kJ/mol
# Density = 1.775554 g / cm^3
# Si number density = 17.796049 Si / 1000 Ang^3
#
#
#
# Elastic Constant Matrix: (Units=GPa)
#
#
# Indices 1 2 3 4 5 6 
#
# 1 72.2596 43.3773 29.6162 0.0000 0.0000 0.0000
# 2 43.3773 134.4318 46.5963 0.0000 0.0000 0.0000
# 3 29.6162 46.5963 57.9389 0.0000 0.0000 0.0000
# 4 0.0000 0.0000 0.0000 10.7990 0.0000 0.0000
# 5 0.0000 0.0000 0.0000 0.0000 22.5325 0.0000
# 6 0.0000 0.0000 0.0000 0.0000 0.0000 21.0263
#
#
#
# Elastic Compliance Matrix: (Units=1/GPa)
#
#
# Indices 1 2 3 4 5 6 
#
# 1 0.018806 -0.003794 -0.006562 0.000000 0.000000 0.000000
# 2 -0.003794 0.011079 -0.006971 0.000000 0.000000 0.000000
# 3 -0.006562 -0.006971 0.026220 0.000000 0.000000 0.000000
# 4 0.000000 0.000000 0.000000 0.092601 0.000000 0.000000
# 5 0.000000 0.000000 0.000000 0.000000 0.044380 0.000000
# 6 0.000000 0.000000 0.000000 0.000000 0.000000 0.047559
#
#
# Mechanical properties :
#
#
# Convention : Reuss Voigt Hill
#
# Bulk Modulus (GPa) = 46.61583 55.97886 51.29735
# Shear Modulus (GPa) = 17.70230 20.54093 19.12161
#
# Velocity S-wave (km/s) = 3.15736 3.40110 3.28149
# Velocity P-wave (km/s) = 6.28834 6.85181 6.57612
#
# Compressibility (1/GPa) = 0.02145194
#
# Stress axis : x y z
#
# Youngs Moduli (GPa) = 53.17532 90.26023 38.13884
#
# Poissons Ratio (x) = 0.34241 0.25026
# Poissons Ratio (y) = 0.20173 0.26587
# Poissons Ratio (z) = 0.34893 0.62920
#
# Static dielectric constant tensor:
#      x y z
#    x 1.646560 0.000000 0.000000 
#    y 0.000000 1.681250 0.000000 
#    z 0.000000 0.000000 1.568170 
# 
# From -- ./inp_files/49114.got.cif
#   From: 2010.05.17/outbox.cif.g08.bks.cpg/sg74_25_cif.got.tgz:49114.got - 2010.06.03 17:57:02.
