data_PCOD9535117
_publ_section_title
;
Structure prediction by ZEFSAII (Michael W. Deem and Ramdas Pophale) SiO2 
 PCOD9535117
Probable space group: I M M A
;
_chemical_formula_sum "Si O2"
_cell_formula_units_Z 128
_cell_length_a 15.553812
_cell_length_b 18.152801
_cell_length_c 22.364186
_cell_angle_alpha 90.000000
_cell_angle_beta 90.000000
_cell_angle_gamma 90.000000
_cell_volume 6314.421777
_symmetry_space_group_name_H-M "I M M A"
_symmetry_group_IT_number 74
_symmetry_cell_setting 'orthorhombic'
loop_
_space_group_symop_operation_xyz
x,y,z
-x,1/2-y,z
x,-y,-z
-x,1/2+y,-z
-x,-y,-z
x,1/2+y,-z
-x,y,z
x,1/2-y,z
1/2+x,1/2+y,1/2+z
1/2-x,-y,1/2+z
1/2+x,1/2-y,1/2-z
1/2-x,y,1/2-z
1/2-x,1/2-y,1/2-z
1/2+x,y,1/2-z
1/2-x,1/2+y,1/2+z
1/2+x,-y,1/2+z
loop_
_atom_site_type_symbol
_atom_site_label
_atom_site_fract_x
_atom_site_fract_y
_atom_site_fract_z
Si Si1 0.596738 0.420196 0.534505
Si Si2 0.226699 0.328128 0.388392
Si Si3 0.843481 0.541588 0.166822
Si Si4 0.598280 0.836342 0.096036
Si Si5 0.780246 0.588163 0.501545
Si Si6 0.595513 0.626627 0.658750
Si Si7 0.859553 0.548573 0.302881
Si Si8 0.093183 0.123362 0.298256
O O1 0.593610 0.500000 0.500000
O O2 0.500000 0.389730 0.528667
O O3 0.622849 0.422828 0.605160
O O4 0.681471 0.384596 0.505688
O O5 0.207677 0.250000 0.417302
O O6 0.193307 0.390342 0.432253
O O7 0.326846 0.334431 0.374066
O O8 0.173332 0.338262 0.328499
O O9 0.879832 0.459442 0.158889
O O10 0.870622 0.570182 0.232678
O O11 0.740040 0.540758 0.175043
O O12 0.500000 0.838243 0.073911
O O13 0.620340 0.750000 0.107520
O O14 0.661347 0.873359 0.047828
O O15 0.602988 0.888361 0.154636
O O16 0.782083 0.500000 0.500000
O O17 0.500000 0.638011 0.633501
O O18 0.593998 0.644792 0.728774
O O19 0.896747 0.465439 0.305387
O O20 0.000000 0.144712 0.323675
#
# Coordination Sequence:
#
# PCOD9535117 Si02
#       8
#    16  16  16  16  16  16  16  16
#     4  10  20  34  58  92 124 154 193 245 304 361
#     4  12  25  39  58  86 123 162 200 248 306 370
#     4  10  18  34  62  95 123 154 200 256 306 351
#     4  11  24  42  63  88 123 163 201 252 319 383
#     4  11  23  41  65  89 117 157 207 261 308 366
#     4  10  20  36  59  88 123 161 202 248 300 356
#     4  10  19  36  64  95 121 156 203 256 305 362
#     4  10  21  37  60  89 121 158 205 255 298 353
#
# _framework density 20.271056999999999
#
# number of rings (size 3 to 8) (size 9 to 14) (size 15 to 20)
#    0.000    1.500    2.500    3.750    0.000    5.250 
#    0.000    2.500    0.000    1.125    0.000    0.000 
#    0.000    0.000    0.000    0.000    0.000    0.000 
#
# Total GULP energy -356894.101342 kJ/mol
# GULP energy per Si atom -5576.470333 kJ/mol
# Density = 2.022492 g / cm^3
# Si number density = 20.271057 Si / 1000 Ang^3
#
#
#
# Elastic Constant Matrix: (Units=GPa)
#
#
# Indices 1 2 3 4 5 6 
#
# 1 106.6032 18.6121 25.3927 0.0000 0.0000 0.0000
# 2 18.6121 66.1479 23.2895 0.0000 0.0000 0.0000
# 3 25.3927 23.2895 82.6979 0.0000 0.0000 0.0000
# 4 0.0000 0.0000 0.0000 -12.0172 0.0000 0.0000
# 5 0.0000 0.0000 0.0000 0.0000 9.9188 0.0000
# 6 0.0000 0.0000 0.0000 0.0000 0.0000 3.7516
#
#
#
# Elastic Compliance Matrix: (Units=1/GPa)
#
#
# Indices 1 2 3 4 5 6 
#
# 1 0.010352 -0.001991 -0.002618 0.000000 0.000000 0.000000
# 2 -0.001991 0.017165 -0.004223 0.000000 0.000000 0.000000
# 3 -0.002618 -0.004223 0.014085 0.000000 0.000000 0.000000
# 4 0.000000 0.000000 0.000000 -0.083214 0.000000 0.000000
# 5 0.000000 0.000000 0.000000 0.000000 0.100818 0.000000
# 6 0.000000 0.000000 0.000000 0.000000 0.000000 0.266552
#
#
# Mechanical properties :
#
#
# Convention : Reuss Voigt Hill
#
# Bulk Modulus (GPa) = 41.77335 43.33751 42.55543
# Shear Modulus (GPa) = 14.22880 12.87431 13.55156
#
# Velocity S-wave (km/s) = 2.65226 2.52287 2.58838
# Velocity P-wave (km/s) = 5.48010 5.46918 5.47464
#
# Compressibility (1/GPa) = 0.02393870
#
# Stress axis : x y z
#
# Youngs Moduli (GPa) = 96.60201 58.25963 70.99662
#
# Poissons Ratio (x) = 0.11599 0.18586
# Poissons Ratio (y) = 0.19233 0.29979
# Poissons Ratio (z) = 0.25289 0.24600
#
# Static dielectric constant tensor:
#      x y z
#    x 1.738300 0.000000 0.000000 
#    y 0.000000 1.712750 0.000000 
#    z 0.000000 0.000000 1.729860 
# 
# From -- ./inp_files/61139.got.cif
#   From: 2010.05.17/outbox.cif.g08.bks.cpg/sg74_31_cif.got.tgz:61139.got - 2010.06.03 17:57:02.
