data_PCOD9535463
_publ_section_title
;
Structure prediction by ZEFSAII (Michael W. Deem and Ramdas Pophale) SiO2 
 PCOD9535463
Probable space group: I M M A
;
_chemical_formula_sum "Si O2"
_cell_formula_units_Z 120
_cell_length_a 30.620440
_cell_length_b 20.283360
_cell_length_c 11.792170
_cell_angle_alpha 90.000000
_cell_angle_beta 90.000000
_cell_angle_gamma 90.000000
_cell_volume 7323.944714
_symmetry_space_group_name_H-M "I M M A"
_symmetry_group_IT_number 74
_symmetry_cell_setting 'orthorhombic'
loop_
_space_group_symop_operation_xyz
x,y,z
-x,1/2-y,z
x,-y,-z
-x,1/2+y,-z
-x,-y,-z
x,1/2+y,-z
-x,y,z
x,1/2-y,z
1/2+x,1/2+y,1/2+z
1/2-x,-y,1/2+z
1/2+x,1/2-y,1/2-z
1/2-x,y,1/2-z
1/2-x,1/2-y,1/2-z
1/2+x,y,1/2-z
1/2-x,1/2+y,1/2+z
1/2+x,-y,1/2+z
loop_
_atom_site_type_symbol
_atom_site_label
_atom_site_fract_x
_atom_site_fract_y
_atom_site_fract_z
Si Si1 0.822913 0.176147 0.870165
Si Si2 0.107115 0.674387 0.925810
Si Si3 0.766854 0.325110 0.501545
Si Si4 0.051652 0.071000 0.941027
Si Si5 0.848287 0.081482 0.255953
Si Si6 0.877656 0.566853 0.249777
Si Si7 0.154925 0.075496 0.510849
Si Si8 0.250000 0.873164 0.750000
O O1 0.823641 0.250000 0.818864
O O2 0.841455 0.119105 0.791346
O O3 0.855689 0.176807 0.977257
O O4 0.775001 0.163304 0.919356
O O5 0.094715 0.750000 0.899901
O O6 0.128846 0.635671 0.821836
O O7 0.068668 0.629250 0.976994
O O8 0.781586 0.250000 0.517113
O O9 0.804749 0.376056 0.531094
O O10 0.753232 0.333966 0.368999
O O11 0.078937 0.077168 0.824318
O O12 0.000000 0.075195 0.922404
O O13 0.061173 0.000000 0.000000
O O14 0.862206 0.093055 0.386240
O O15 0.795709 0.087432 0.246725
O O16 0.862136 0.007561 0.224662
O O17 0.879066 0.575655 0.385618
O O18 0.171326 0.000000 0.500000
#
# Coordination Sequence:
#
# PCOD9535463 Si02
#       8
#    16  16  16  16  16  16  16   8
#     4   9  19  31  48  73 102 138 179 226 274 315
#     4  10  19  34  54  82 113 139 174 225 282 326
#     4  10  19  31  47  70 101 139 188 233 267 306
#     4  10  20  36  62  90 108 131 173 221 277 343
#     4  10  19  33  52  77 104 148 190 225 265 309
#     4  10  20  36  54  72 108 144 172 223 270 331
#     4   9  21  35  48  70 104 145 186 221 258 313
#     4  10  19  30  48  74 109 144 188 236 263 308
#
# _framework density 16.384613999999999
#
# number of rings (size 3 to 8) (size 9 to 14) (size 15 to 20)
#    0.000    2.267    2.667    0.200    0.000    6.667 
#    0.000    1.333    0.000    4.400    0.000    0.000 
#    0.000    0.000    0.000    0.000    0.000    0.000 
#
# Total GULP energy -334348.260683 kJ/mol
# GULP energy per Si atom -5572.471011 kJ/mol
# Density = 1.634732 g / cm^3
# Si number density = 16.384614 Si / 1000 Ang^3
#
#
#
# Elastic Constant Matrix: (Units=GPa)
#
#
# Indices 1 2 3 4 5 6 
#
# 1 76.3551 43.8171 42.9622 0.0000 0.0000 0.0000
# 2 43.8171 108.2678 53.1436 0.0000 0.0000 0.0000
# 3 42.9622 53.1436 92.0019 0.0000 0.0000 0.0000
# 4 0.0000 0.0000 0.0000 -0.0719 0.0000 0.0000
# 5 0.0000 0.0000 0.0000 0.0000 17.0128 0.0000
# 6 0.0000 0.0000 0.0000 0.0000 0.0000 14.2937
#
#
#
# Elastic Compliance Matrix: (Units=1/GPa)
#
#
# Indices 1 2 3 4 5 6 
#
# 1 0.019365 -0.004743 -0.006303 0.000000 0.000000 0.000000
# 2 -0.004743 0.014053 -0.005903 0.000000 0.000000 0.000000
# 3 -0.006303 -0.005903 0.017222 0.000000 0.000000 0.000000
# 4 0.000000 0.000000 0.000000-13.900624 0.000000 0.000000
# 5 0.000000 0.000000 0.000000 0.000000 0.058779 0.000000
# 6 0.000000 0.000000 0.000000 0.000000 0.000000 0.069961
#
#
# Mechanical properties :
#
#
# Convention : Reuss Voigt Hill
#
# Bulk Modulus (GPa) = 59.72790 61.83008 60.77899
# Shear Modulus (GPa) = -0.36545 15.36038 7.49747
#
# Velocity S-wave (km/s) = -0.47279 3.06516 2.14146
# Velocity P-wave (km/s) = 6.01953 7.09546 6.57953
#
# Compressibility (1/GPa) = 0.01674259
#
# Stress axis : x y z
#
# Youngs Moduli (GPa) = 51.63884 71.15690 58.06429
#
# Poissons Ratio (x) = 0.33753 0.36598
# Poissons Ratio (y) = 0.24495 0.34274
# Poissons Ratio (z) = 0.32548 0.42002
#
# Static dielectric constant tensor:
#      x y z
#    x 1.510350 0.000000 0.000000 
#    y 0.000000 1.558310 0.000000 
#    z 0.000000 0.000000 1.575130 
# 
# From -- ./inp_files/26514.got.cif
#   From: 2010.05.17/outbox.cif.g08.bks.cpg/sg74_14_cif.got.tgz:26514.got - 2010.06.03 17:57:02.
