data_PCOD9535282
_publ_section_title
;
Structure prediction by ZEFSAII (Michael W. Deem and Ramdas Pophale) SiO2 
 PCOD9535282
Probable space group: I M M A
;
_chemical_formula_sum "Si O2"
_cell_formula_units_Z 68
_cell_length_a 17.403721
_cell_length_b 7.296537
_cell_length_c 23.629115
_cell_angle_alpha 90.000000
_cell_angle_beta 90.000000
_cell_angle_gamma 90.000000
_cell_volume 3000.587927
_symmetry_space_group_name_H-M "I M M A"
_symmetry_group_IT_number 74
_symmetry_cell_setting 'orthorhombic'
loop_
_space_group_symop_operation_xyz
x,y,z
-x,1/2-y,z
x,-y,-z
-x,1/2+y,-z
-x,-y,-z
x,1/2+y,-z
-x,y,z
x,1/2-y,z
1/2+x,1/2+y,1/2+z
1/2-x,-y,1/2+z
1/2+x,1/2-y,1/2-z
1/2-x,y,1/2-z
1/2-x,1/2-y,1/2-z
1/2+x,y,1/2-z
1/2-x,1/2+y,1/2+z
1/2+x,-y,1/2+z
loop_
_atom_site_type_symbol
_atom_site_label
_atom_site_fract_x
_atom_site_fract_y
_atom_site_fract_z
Si Si1 0.500000 0.000000 0.000000
Si Si2 0.410691 0.973566 0.333461
Si Si3 0.861204 0.526391 0.413827
Si Si4 0.190939 0.967952 0.062260
Si Si5 0.589826 0.972091 0.208969
O O1 0.432306 0.033408 0.047813
O O2 0.500000 0.027006 0.339209
O O3 0.409827 0.750000 0.333817
O O4 0.359856 0.037752 0.385837
O O5 0.382142 0.030910 0.271011
O O6 0.865461 0.750000 0.415892
O O7 0.778519 0.463418 0.435758
O O8 0.869508 0.469069 0.348438
O O9 0.196199 0.750000 0.070055
O O10 0.157526 0.000000 0.000000
O O11 0.500000 0.021891 0.204960
O O12 0.593212 0.750000 0.208895
#
# Coordination Sequence:
#
# PCOD9535282 Si02
#       5
#     4  16  16  16  16
#     4  12  18  28  44  66  94 128 156 176 228 288
#     4   8  15  28  47  69  94 120 149 192 244 286
#     4  10  19  29  44  67  96 126 157 193 233 278
#     4  10  20  33  47  70  99 125 158 196 235 281
#     4   8  13  24  42  65  92 119 148 191 240 278
#
# _framework density 22.662224999999999
#
# number of rings (size 3 to 8) (size 9 to 14) (size 15 to 20)
#    0.000    2.824    2.353    1.765    0.000    1.412 
#    0.000    4.706    0.000    0.000    0.000    6.588 
#    0.000    0.000    0.000    0.000    0.000    0.000 
#
# Total GULP energy -189332.696369 kJ/mol
# GULP energy per Si atom -5568.608717 kJ/mol
# Density = 2.261064 g / cm^3
# Si number density = 22.662225 Si / 1000 Ang^3
#
#
#
# Elastic Constant Matrix: (Units=GPa)
#
#
# Indices 1 2 3 4 5 6 
#
# 1 82.5362 3.3186 84.7290 0.0000 0.0000 0.0000
# 2 3.3186 93.3886 -1.8731 0.0000 0.0000 0.0000
# 3 84.7290 -1.8731 245.9940 0.0000 0.0000 0.0000
# 4 0.0000 0.0000 0.0000 -16.4257 0.0000 0.0000
# 5 0.0000 0.0000 0.0000 0.0000 55.2320 0.0000
# 6 0.0000 0.0000 0.0000 0.0000 0.0000 -19.8912
#
#
#
# Elastic Compliance Matrix: (Units=1/GPa)
#
#
# Indices 1 2 3 4 5 6 
#
# 1 0.018803 -0.000798 -0.006482 0.000000 0.000000 0.000000
# 2 -0.000798 0.010743 0.000357 0.000000 0.000000 0.000000
# 3 -0.006482 0.000357 0.006301 0.000000 0.000000 0.000000
# 4 0.000000 0.000000 0.000000 -0.060880 0.000000 0.000000
# 5 0.000000 0.000000 0.000000 0.000000 0.018105 0.000000
# 6 0.000000 0.000000 0.000000 0.000000 0.000000 -0.050274
#
#
# Mechanical properties :
#
#
# Convention : Reuss Voigt Hill
#
# Bulk Modulus (GPa) = 45.45653 66.02975 55.74314
# Shear Modulus (GPa) = -138.80769 26.16597 -56.32086
#
# Velocity S-wave (km/s) = -7.83477 3.40164 -4.99062
# Velocity P-wave (km/s) = 7.85767 6.68041 2.92533
#
# Compressibility (1/GPa) = 0.02199904
#
# Stress axis : x y z
#
# Youngs Moduli (GPa) = 53.18429 93.07989 158.71510
#
# Poissons Ratio (x) = 0.07429 1.02884
# Poissons Ratio (y) = 0.04245 -0.05662
# Poissons Ratio (z) = 0.34476 -0.03320
#
# Static dielectric constant tensor:
#      x y z
#    x 1.779160 0.000000 0.000000 
#    y 0.000000 1.960780 0.000000 
#    z 0.000000 0.000000 1.825780 
# 
# From -- ./inp_files/40977.got.cif
#   From: 2010.05.17/outbox.cif.g08.bks.cpg/sg74_21_cif.got.tgz:40977.got - 2010.06.03 17:57:02.
