data_PCOD9535340
_publ_section_title
;
Structure prediction by ZEFSAII (Michael W. Deem and Ramdas Pophale) SiO2 
 PCOD9535340
Probable space group: I M M A
;
_chemical_formula_sum "Si O2"
_cell_formula_units_Z 96
_cell_length_a 8.988340
_cell_length_b 31.542881
_cell_length_c 21.154353
_cell_angle_alpha 90.000000
_cell_angle_beta 90.000000
_cell_angle_gamma 90.000000
_cell_volume 5997.642794
_symmetry_space_group_name_H-M "I M M A"
_symmetry_group_IT_number 74
_symmetry_cell_setting 'orthorhombic'
loop_
_space_group_symop_operation_xyz
x,y,z
-x,1/2-y,z
x,-y,-z
-x,1/2+y,-z
-x,-y,-z
x,1/2+y,-z
-x,y,z
x,1/2-y,z
1/2+x,1/2+y,1/2+z
1/2-x,-y,1/2+z
1/2+x,1/2-y,1/2-z
1/2-x,y,1/2-z
1/2-x,1/2-y,1/2-z
1/2+x,y,1/2-z
1/2-x,1/2+y,1/2+z
1/2+x,-y,1/2+z
loop_
_atom_site_type_symbol
_atom_site_label
_atom_site_fract_x
_atom_site_fract_y
_atom_site_fract_z
Si Si1 0.178589 0.536218 0.949557
Si Si2 0.320983 0.203250 0.544392
Si Si3 0.822836 0.818565 0.187385
Si Si4 0.678382 0.496388 0.686044
Si Si5 0.827737 0.616507 0.491158
Si Si6 0.673634 0.093333 0.843654
O O1 0.213188 0.521659 0.878328
O O2 0.000000 0.539226 0.955695
O O3 0.228371 0.500000 0.000000
O O4 0.248424 0.581361 0.966343
O O5 0.500000 0.199293 0.540218
O O6 0.277798 0.250000 0.520470
O O7 0.282896 0.201101 0.619335
O O8 0.247702 0.162751 0.511271
O O9 0.750000 0.799381 0.250000
O O10 0.762615 0.866503 0.182302
O O11 0.000000 0.817465 0.193566
O O12 0.500000 0.493445 0.692107
O O13 0.750000 0.514667 0.750000
O O14 0.748895 0.449894 0.676715
O O15 0.819984 0.598360 0.419517
O O16 0.000000 0.620738 0.508458
O O17 0.500000 0.094460 0.824314
#
# Coordination Sequence:
#
# PCOD9535340 Si02
#       6
#    16  16  16  16  16  16
#     4  10  20  35  54  74  99 134 173 207 245 298
#     4   9  19  35  52  68  90 123 161 202 250 303
#     4  10  19  30  44  62  87 120 161 205 250 297
#     4  11  22  34  49  70  99 133 168 208 250 291
#     4  10  20  32  51  76  99 125 161 209 255 294
#     4  10  19  31  46  66  93 126 165 206 250 293
#
# _framework density 16.006288000000001
#
# number of rings (size 3 to 8) (size 9 to 14) (size 15 to 20)
#    0.000    2.000    1.667    2.500    0.000    4.333 
#    0.000    0.000    0.000    0.000    0.000    0.000 
#    0.000    0.667    0.000    2.167    0.000    2.667 
#
# Total GULP energy -267892.691016 kJ/mol
# GULP energy per Si atom -5581.097730 kJ/mol
# Density = 1.596986 g / cm^3
# Si number density = 16.006288 Si / 1000 Ang^3
#
#
#
# Elastic Constant Matrix: (Units=GPa)
#
#
# Indices 1 2 3 4 5 6 
#
# 1 45.3832 45.4808 34.1658 0.0000 0.0000 0.0000
# 2 45.4808 131.1307 52.6344 0.0000 0.0000 0.0000
# 3 34.1658 52.6344 71.0770 0.0000 0.0000 0.0000
# 4 0.0000 0.0000 0.0000 -1.6483 0.0000 0.0000
# 5 0.0000 0.0000 0.0000 0.0000 23.7978 0.0000
# 6 0.0000 0.0000 0.0000 0.0000 0.0000 3.9191
#
#
#
# Elastic Compliance Matrix: (Units=1/GPa)
#
#
# Indices 1 2 3 4 5 6 
#
# 1 0.040748 -0.008923 -0.012979 0.000000 0.000000 0.000000
# 2 -0.008923 0.012805 -0.005194 0.000000 0.000000 0.000000
# 3 -0.012979 -0.005194 0.024154 0.000000 0.000000 0.000000
# 4 0.000000 0.000000 0.000000 -0.606702 0.000000 -0.000001
# 5 0.000000 0.000000 0.000000 0.000000 0.042021 0.000000
# 6 0.000000 0.000000 0.000000 -0.000001 0.000000 0.255163
#
#
# Mechanical properties :
#
#
# Convention : Reuss Voigt Hill
#
# Bulk Modulus (GPa) = 42.52456 56.90586 49.71521
# Shear Modulus (GPa) = -29.44978 12.90105 -8.27437
#
# Velocity S-wave (km/s) = -4.29405 2.84209 -2.27611
# Velocity P-wave (km/s) = 1.42828 6.81171 4.92135
#
# Compressibility (1/GPa) = 0.02351582
#
# Stress axis : x y z
#
# Youngs Moduli (GPa) = 24.54107 78.09155 41.40074
#
# Poissons Ratio (x) = 0.69682 0.53735
# Poissons Ratio (y) = 0.21898 0.21502
# Poissons Ratio (z) = 0.31852 0.40557
#
# Static dielectric constant tensor:
#      x y z
#    x 1.534320 0.000000 0.000000 
#    y 0.000000 1.528290 0.000000 
#    z 0.000000 0.000000 1.547660 
# 
# From -- ./inp_files/49083.got.cif
#   From: 2010.05.17/outbox.cif.g08.bks.cpg/sg74_25_cif.got.tgz:49083.got - 2010.06.03 17:57:02.
