data_PCOD9535040
_publ_section_title
;
Structure prediction by ZEFSAII (Michael W. Deem and Ramdas Pophale) SiO2 
 PCOD9535040
Probable space group: I M M A
;
_chemical_formula_sum "Si O2"
_cell_formula_units_Z 88
_cell_length_a 8.577065
_cell_length_b 18.366478
_cell_length_c 28.041908
_cell_angle_alpha 90.000000
_cell_angle_beta 90.000000
_cell_angle_gamma 90.000000
_cell_volume 4417.455105
_symmetry_space_group_name_H-M "I M M A"
_symmetry_group_IT_number 74
_symmetry_cell_setting 'orthorhombic'
loop_
_space_group_symop_operation_xyz
x,y,z
-x,1/2-y,z
x,-y,-z
-x,1/2+y,-z
-x,-y,-z
x,1/2+y,-z
-x,y,z
x,1/2-y,z
1/2+x,1/2+y,1/2+z
1/2-x,-y,1/2+z
1/2+x,1/2-y,1/2-z
1/2-x,y,1/2-z
1/2-x,1/2-y,1/2-z
1/2+x,y,1/2-z
1/2-x,1/2+y,1/2+z
1/2+x,-y,1/2+z
loop_
_atom_site_type_symbol
_atom_site_label
_atom_site_fract_x
_atom_site_fract_y
_atom_site_fract_z
Si Si1 0.250000 0.546348 0.250000
Si Si2 0.312281 0.085806 0.998875
Si Si3 0.189988 0.666719 0.595545
Si Si4 0.321326 0.412883 0.600249
Si Si5 0.313875 0.962179 0.838631
Si Si6 0.667556 0.668509 0.178951
O O1 0.214049 0.491282 0.206369
O O2 0.342038 0.606779 0.219192
O O3 0.500000 0.090992 0.996132
O O4 0.237444 0.115071 0.950399
O O5 0.260154 0.127837 0.046357
O O6 0.271371 0.000000 0.000000
O O7 0.242987 0.750000 0.598604
O O8 0.232618 0.615679 0.640197
O O9 0.000000 0.666809 0.594700
O O10 0.500000 0.436371 0.597378
O O11 0.215432 0.479990 0.618830
O O12 0.299028 0.353454 0.641680
O O13 0.500000 0.962233 0.826370
O O14 0.500000 0.666630 0.153116
O O15 0.688908 0.750000 0.197586
#
# Coordination Sequence:
#
# PCOD9535040 Si02
#       6
#     8  16  16  16  16  16
#     4  10  19  32  57  86 106 134 180 234 287 330
#     4  10  18  33  58  84 113 150 194 236 277 333
#     4   9  18  34  59  86 108 141 192 242 281 326
#     4  11  22  34  54  85 120 153 190 231 278 336
#     4  10  20  38  59  81 111 146 189 234 281 341
#     4  10  22  40  60  82 113 153 194 234 279 336
#
# _framework density 19.920971999999999
#
# number of rings (size 3 to 8) (size 9 to 14) (size 15 to 20)
#    0.000    2.000    1.818    3.545    0.000    7.273 
#    0.000    2.273    0.000    1.636    0.000    0.000 
#    0.000    0.000    0.000    0.000    0.000    0.000 
#
# Total GULP energy -244936.688848 kJ/mol
# GULP energy per Si atom -5566.742928 kJ/mol
# Density = 1.987563 g / cm^3
# Si number density = 19.920972 Si / 1000 Ang^3
#
#
#
# Elastic Constant Matrix: (Units=GPa)
#
#
# Indices 1 2 3 4 5 6 
#
# 1 28.2223 12.8492 16.1790 0.0000 0.0000 0.0000
# 2 12.8492 152.4123 68.8674 0.0000 0.0000 0.0000
# 3 16.1790 68.8674 122.1438 0.0000 0.0000 0.0000
# 4 0.0000 0.0000 0.0000 24.1197 0.0000 0.0000
# 5 0.0000 0.0000 0.0000 0.0000 16.2532 0.0000
# 6 0.0000 0.0000 0.0000 0.0000 0.0000 10.1767
#
#
#
# Elastic Compliance Matrix: (Units=1/GPa)
#
#
# Indices 1 2 3 4 5 6 
#
# 1 0.038525 -0.001264 -0.004390 0.000000 0.000000 0.000000
# 2 -0.001264 0.008846 -0.004820 0.000000 0.000000 0.000000
# 3 -0.004390 -0.004820 0.011486 0.000000 0.000000 0.000000
# 4 0.000000 0.000000 0.000000 0.041460 0.000000 0.000000
# 5 0.000000 0.000000 0.000000 0.000000 0.061526 0.000000
# 6 0.000000 0.000000 0.000000 0.000000 0.000000 0.098264
#
#
# Mechanical properties :
#
#
# Convention : Reuss Voigt Hill
#
# Bulk Modulus (GPa) = 26.37936 55.39666 40.88801
# Shear Modulus (GPa) = 17.02466 23.76878 20.39672
#
# Velocity S-wave (km/s) = 2.92654 3.45795 3.20329
# Velocity P-wave (km/s) = 4.96893 6.61905 5.85244
#
# Compressibility (1/GPa) = 0.03790843
#
# Stress axis : x y z
#
# Youngs Moduli (GPa) = 25.95696 113.05066 87.06128
#
# Poissons Ratio (x) = 0.14291 0.38222
# Poissons Ratio (y) = 0.03281 0.41963
# Poissons Ratio (z) = 0.11396 0.54489
#
# Static dielectric constant tensor:
#      x y z
#    x 1.704420 0.000000 0.000000 
#    y 0.000000 1.717570 0.000000 
#    z 0.000000 0.000000 1.717130 
# 
# From -- ./inp_files/70309.got.cif
#   From: 2010.05.17/outbox.cif.g08.bks.cpg/sg74_36_cif.got.tgz:70309.got - 2010.06.03 17:57:02.
