data_PCOD9535203
_publ_section_title
;
Structure prediction by ZEFSAII (Michael W. Deem and Ramdas Pophale) SiO2 
 PCOD9535203
Probable space group: I M M A
;
_chemical_formula_sum "Si O2"
_cell_formula_units_Z 80
_cell_length_a 18.671167
_cell_length_b 9.919223
_cell_length_c 32.758038
_cell_angle_alpha 90.000000
_cell_angle_beta 90.000000
_cell_angle_gamma 90.000000
_cell_volume 6066.902280
_symmetry_space_group_name_H-M "I M M A"
_symmetry_group_IT_number 74
_symmetry_cell_setting 'orthorhombic'
loop_
_space_group_symop_operation_xyz
x,y,z
-x,1/2-y,z
x,-y,-z
-x,1/2+y,-z
-x,-y,-z
x,1/2+y,-z
-x,y,z
x,1/2-y,z
1/2+x,1/2+y,1/2+z
1/2-x,-y,1/2+z
1/2+x,1/2-y,1/2-z
1/2-x,y,1/2-z
1/2-x,1/2-y,1/2-z
1/2+x,y,1/2-z
1/2-x,1/2+y,1/2+z
1/2+x,-y,1/2+z
loop_
_atom_site_type_symbol
_atom_site_label
_atom_site_fract_x
_atom_site_fract_y
_atom_site_fract_z
Si Si1 0.413600 0.962126 0.096671
Si Si2 0.086931 0.750000 0.564562
Si Si3 0.083937 0.091185 0.252820
Si Si4 0.413488 0.750000 0.028457
Si Si5 0.717158 0.902230 0.703968
Si Si6 0.338015 0.405667 0.819096
O O1 0.500000 0.951421 0.102025
O O2 0.394514 0.878267 0.056103
O O3 0.374786 0.909365 0.136747
O O4 0.393145 0.116016 0.088482
O O5 0.113559 0.750000 0.517784
O O6 0.000000 0.750000 0.562429
O O7 0.094444 0.250000 0.264697
O O8 0.133843 0.069532 0.213103
O O9 0.000000 0.070917 0.245731
O O10 0.112304 0.991783 0.288061
O O11 0.500000 0.750000 0.025484
O O12 0.726074 0.750000 0.687489
O O13 0.750000 0.901479 0.750000
O O14 0.762440 0.014737 0.680690
O O15 0.329935 0.250000 0.805886
#
# Coordination Sequence:
#
# PCOD9535203 Si02
#       6
#    16   8  16   8  16  16
#     4  10  19  28  39  57  77 100 133 169 201 229
#     4   9  18  28  42  56  69  98 135 167 198 233
#     4   9  18  31  46  60  76 100 132 167 200 234
#     4   9  16  30  42  52  75 100 127 165 202 233
#     4   8  16  30  44  57  75 101 130 160 195 237
#     4  11  20  28  39  58  83 106 130 165 203 233
#
# _framework density 13.186302
#
# number of rings (size 3 to 8) (size 9 to 14) (size 15 to 20)
#    0.000    2.600    1.000    3.000    2.800    7.200 
#    0.000    0.000    0.000    0.000    0.000    0.000 
#    0.000    0.000    0.000    0.000    0.000    6.000 
#
# Total GULP energy -222675.245351 kJ/mol
# GULP energy per Si atom -5566.881134 kJ/mol
# Density = 1.315629 g / cm^3
# Si number density = 13.186302 Si / 1000 Ang^3
#
#
#
# Elastic Constant Matrix: (Units=GPa)
#
#
# Indices 1 2 3 4 5 6 
#
# 1 71.0868 33.4517 19.2414 0.0000 0.0000 0.0000
# 2 33.4517 97.2324 22.5867 0.0000 0.0000 0.0000
# 3 19.2414 22.5867 32.5873 0.0000 0.0000 0.0000
# 4 0.0000 0.0000 0.0000 12.5969 0.0000 0.0000
# 5 0.0000 0.0000 0.0000 0.0000 10.7370 0.0000
# 6 0.0000 0.0000 0.0000 0.0000 0.0000 10.5975
#
#
#
# Elastic Compliance Matrix: (Units=1/GPa)
#
#
# Indices 1 2 3 4 5 6 
#
# 1 0.018260 -0.004502 -0.007661 0.000000 0.000000 0.000000
# 2 -0.004502 0.013369 -0.006607 0.000000 0.000000 0.000000
# 3 -0.007661 -0.006607 0.039790 0.000000 0.000000 0.000000
# 4 0.000000 0.000000 0.000000 0.079385 0.000000 0.000000
# 5 0.000000 0.000000 0.000000 0.000000 0.093136 0.000000
# 6 0.000000 0.000000 0.000000 0.000000 0.000000 0.094362
#
#
# Mechanical properties :
#
#
# Convention : Reuss Voigt Hill
#
# Bulk Modulus (GPa) = 29.51879 39.05177 34.28528
# Shear Modulus (GPa) = 12.91544 15.16140 14.03842
#
# Velocity S-wave (km/s) = 3.13303 3.39453 3.26639
# Velocity P-wave (km/s) = 5.96006 6.71144 6.34688
#
# Compressibility (1/GPa) = 0.03387673
#
# Stress axis : x y z
#
# Youngs Moduli (GPa) = 54.76560 74.80257 25.13200
#
# Poissons Ratio (x) = 0.33679 0.19253
# Poissons Ratio (y) = 0.24658 0.16606
# Poissons Ratio (z) = 0.41955 0.49425
#
# Static dielectric constant tensor:
#      x y z
#    x 1.442290 0.000000 0.000000 
#    y 0.000000 1.469270 0.000000 
#    z 0.000000 0.000000 1.412620 
# 
# From -- ./inp_files/68064.got.cif
#   From: 2010.05.17/outbox.cif.g08.bks.cpg/sg74_35_cif.got.tgz:68064.got - 2010.06.03 17:57:02.
