data_PCOD9535941
_publ_section_title
;
Structure prediction by ZEFSAII (Michael W. Deem and Ramdas Pophale) SiO2 
 PCOD9535941
Probable space group: I M M A
;
_chemical_formula_sum "Si O2"
_cell_formula_units_Z 56
_cell_length_a 25.780929
_cell_length_b 13.734752
_cell_length_c 8.946053
_cell_angle_alpha 90.000000
_cell_angle_beta 90.000000
_cell_angle_gamma 90.000000
_cell_volume 3167.749650
_symmetry_space_group_name_H-M "I M M A"
_symmetry_group_IT_number 74
_symmetry_cell_setting 'orthorhombic'
loop_
_space_group_symop_operation_xyz
x,y,z
-x,1/2-y,z
x,-y,-z
-x,1/2+y,-z
-x,-y,-z
x,1/2+y,-z
-x,y,z
x,1/2-y,z
1/2+x,1/2+y,1/2+z
1/2-x,-y,1/2+z
1/2+x,1/2-y,1/2-z
1/2-x,y,1/2-z
1/2-x,1/2-y,1/2-z
1/2+x,y,1/2-z
1/2-x,1/2+y,1/2+z
1/2+x,-y,1/2+z
loop_
_atom_site_type_symbol
_atom_site_label
_atom_site_fract_x
_atom_site_fract_y
_atom_site_fract_z
Si Si1 0.621082 0.500000 0.500000
Si Si2 0.309365 0.052681 0.229584
Si Si3 0.440401 0.364707 0.726737
Si Si4 0.843822 0.361575 0.575621
O O1 0.658170 0.445049 0.381903
O O2 0.585497 0.572751 0.404548
O O3 0.250000 0.082559 0.250000
O O4 0.311343 0.941001 0.169003
O O5 0.335651 0.114518 0.097751
O O6 0.500000 0.392741 0.753081
O O7 0.439115 0.250000 0.688659
O O8 0.403015 0.377112 0.870103
O O9 0.829679 0.250000 0.608035
#
# Coordination Sequence:
#
# PCOD9535941 Si02
#       4
#     8  16  16  16
#     4  10  19  32  52  78 106 132 165 208 254 298
#     4  10  20  35  52  74 105 135 167 209 250 294
#     4   9  18  34  54  75 102 134 167 207 253 299
#     4   9  19  35  53  74 100 134 173 205 243 299
#
# _framework density 17.678163999999999
#
# number of rings (size 3 to 8) (size 9 to 14) (size 15 to 20)
#    0.000    2.571    0.000    2.143    0.000    2.286 
#    0.000   18.571    0.000    3.429    0.000    0.000 
#    0.000    0.000    0.000    0.000    0.000    0.000 
#
# Total GULP energy -156090.107281 kJ/mol
# GULP energy per Si atom -5574.646689 kJ/mol
# Density = 1.763793 g / cm^3
# Si number density = 17.678164 Si / 1000 Ang^3
#
#
#
# Elastic Constant Matrix: (Units=GPa)
#
#
# Indices 1 2 3 4 5 6 
#
# 1 140.3812 28.6741 73.6396 0.0000 0.0000 0.0000
# 2 28.6741 48.3230 19.4140 0.0000 0.0000 0.0000
# 3 73.6396 19.4140 106.9193 0.0000 0.0000 0.0000
# 4 0.0000 0.0000 0.0000 10.8184 0.0000 0.0000
# 5 0.0000 0.0000 0.0000 0.0000 15.4277 0.0000
# 6 0.0000 0.0000 0.0000 0.0000 0.0000 21.3324
#
#
#
# Elastic Compliance Matrix: (Units=1/GPa)
#
#
# Indices 1 2 3 4 5 6 
#
# 1 0.011843 -0.004046 -0.007422 0.000000 0.000000 0.000000
# 2 -0.004046 0.023704 -0.001518 0.000000 0.000000 0.000000
# 3 -0.007422 -0.001518 0.014741 0.000000 0.000000 0.000000
# 4 0.000000 0.000000 0.000000 0.092435 0.000000 0.000000
# 5 0.000000 0.000000 0.000000 0.000000 0.064819 0.000000
# 6 0.000000 0.000000 0.000000 0.000000 0.000000 0.046877
#
#
# Mechanical properties :
#
#
# Convention : Reuss Voigt Hill
#
# Bulk Modulus (GPa) = 41.12396 59.89765 50.51080
# Shear Modulus (GPa) = 17.33122 21.10875 19.21998
#
# Velocity S-wave (km/s) = 3.13449 3.45926 3.30087
# Velocity P-wave (km/s) = 6.03433 7.06478 6.56979
#
# Compressibility (1/GPa) = 0.02431673
#
# Stress axis : x y z
#
# Youngs Moduli (GPa) = 84.43516 42.18615 67.84004
#
# Poissons Ratio (x) = 0.17067 0.50354
# Poissons Ratio (y) = 0.34160 0.10296
# Poissons Ratio (z) = 0.62671 0.06403
#
# Static dielectric constant tensor:
#      x y z
#    x 1.592100 0.000000 0.000000 
#    y 0.000000 1.610350 0.000000 
#    z 0.000000 0.000000 1.588030 
# 
# From -- ./inp_files/8663.got.cif
#   From: 2010.05.17/outbox.cif.g08.bks.cpg/sg74_5_cif.got.tgz:8663.got - 2010.06.03 17:57:02.
