data_PCOD9535760
_publ_section_title
;
Structure prediction by ZEFSAII (Michael W. Deem and Ramdas Pophale) SiO2 
 PCOD9535760
Probable space group: I M M A
;
_chemical_formula_sum "Si O2"
_cell_formula_units_Z 112
_cell_length_a 13.874571
_cell_length_b 26.376412
_cell_length_c 11.803942
_cell_angle_alpha 90.000000
_cell_angle_beta 90.000000
_cell_angle_gamma 90.000000
_cell_volume 4319.787152
_symmetry_space_group_name_H-M "I M M A"
_symmetry_group_IT_number 74
_symmetry_cell_setting 'orthorhombic'
loop_
_space_group_symop_operation_xyz
x,y,z
-x,1/2-y,z
x,-y,-z
-x,1/2+y,-z
-x,-y,-z
x,1/2+y,-z
-x,y,z
x,1/2-y,z
1/2+x,1/2+y,1/2+z
1/2-x,-y,1/2+z
1/2+x,1/2-y,1/2-z
1/2-x,y,1/2-z
1/2-x,1/2-y,1/2-z
1/2+x,y,1/2-z
1/2-x,1/2+y,1/2+z
1/2+x,-y,1/2+z
loop_
_atom_site_type_symbol
_atom_site_label
_atom_site_fract_x
_atom_site_fract_y
_atom_site_fract_z
Si Si1 0.616135 0.806979 0.707036
Si Si2 0.386489 0.806440 0.198400
Si Si3 0.610023 0.189258 0.051524
Si Si4 0.133966 0.968887 0.747910
Si Si5 0.637906 0.417838 0.771339
Si Si6 0.607919 0.603383 0.544842
Si Si7 0.682890 0.440709 0.010813
O O1 0.500000 0.804792 0.724695
O O2 0.651106 0.750000 0.686249
O O3 0.655534 0.827880 0.828352
O O4 0.626666 0.841633 0.598056
O O5 0.500000 0.800967 0.179612
O O6 0.355494 0.750000 0.241037
O O7 0.380395 0.859602 0.266425
O O8 0.342358 0.816046 0.072491
O O9 0.500000 0.169511 0.045339
O O10 0.604189 0.250000 0.066214
O O11 0.250000 0.969497 0.750000
O O12 0.099228 0.933791 0.847632
O O13 0.120281 0.942094 0.625954
O O14 0.100641 0.026911 0.767895
O O15 0.750000 0.422861 0.750000
O O16 0.620064 0.421719 0.905959
O O17 0.500000 0.601960 0.488049
O O18 0.712145 0.585915 0.497814
O O19 0.706660 0.500000 0.000000
#
# Coordination Sequence:
#
# PCOD9535760 Si02
#       7
#    16  16  16  16  16  16  16
#     4   8  14  25  43  70 106 138 157 186 243 308
#     4   9  18  32  51  75 101 130 171 223 271 310
#     4   7  11  22  40  63  93 128 158 187 236 298
#     4   8  17  34  52  72 102 135 165 205 260 316
#     4  10  20  35  54  73  98 138 180 217 265 316
#     4  10  19  31  54  84 107 134 174 215 256 311
#     4   9  19  37  54  70 102 144 176 209 262 318
#
# _framework density 25.927202000000001
#
# number of rings (size 3 to 8) (size 9 to 14) (size 15 to 20)
#    0.000    3.286    0.000    2.571    2.000    1.143 
#    0.000    1.429    0.000    6.429    0.000    2.000 
#    0.000    0.000    0.000    0.000    0.000    0.000 
#
# Total GULP energy -311864.292008 kJ/mol
# GULP energy per Si atom -5569.005214 kJ/mol
# Density = 2.586819 g / cm^3
# Si number density = 25.927202 Si / 1000 Ang^3
#
#
#
# Elastic Constant Matrix: (Units=GPa)
#
#
# Indices 1 2 3 4 5 6 
#
# 1 105.1986 8.0143 -2.5603 0.0000 0.0000 0.0000
# 2 8.0143 179.6730 5.3050 -0.0001 0.0001 0.0001
# 3 -2.5603 5.3050 33.9044 -0.0004 0.0005 0.0005
# 4 0.0000 -0.0001 -0.0004 22.4625 0.0002 0.0002
# 5 0.0000 0.0001 0.0005 0.0002 0.9551 -0.0002
# 6 0.0000 0.0001 0.0005 0.0002 -0.0002 6.9271
#
#
#
# Elastic Compliance Matrix: (Units=1/GPa)
#
#
# Indices 1 2 3 4 5 6 
#
# 1 0.009559 -0.000450 0.000792 0.000000 0.000000 0.000000
# 2 -0.000450 0.005613 -0.000912 0.000000 0.000000 0.000000
# 3 0.000792 -0.000912 0.029697 0.000001 -0.000017 -0.000002
# 4 0.000000 0.000000 0.000001 0.044519 -0.000008 -0.000001
# 5 0.000000 0.000000 -0.000017 -0.000008 1.047000 0.000028
# 6 0.000000 0.000000 -0.000002 -0.000001 0.000028 0.144360
#
#
# Mechanical properties :
#
#
# Convention : Reuss Voigt Hill
#
# Bulk Modulus (GPa) = 22.86764 37.81044 30.33904
# Shear Modulus (GPa) = 3.85664 26.60342 15.23003
#
# Velocity S-wave (km/s) = 1.22095 3.20673 2.42629
# Velocity P-wave (km/s) = 3.29040 5.32219 4.42450
#
# Compressibility (1/GPa) = 0.04372991
#
# Stress axis : x y z
#
# Youngs Moduli (GPa) = 104.60928 178.16859 33.67312
#
# Poissons Ratio (x) = 0.08014 -0.02668
# Poissons Ratio (y) = 0.04705 0.03072
# Poissons Ratio (z) = -0.08288 0.16252
#
# Static dielectric constant tensor:
#      x y z
#    x 2.039470 0.000000 0.000000 
#    y 0.000000 2.072090 0.000000 
#    z 0.000000 0.000000 2.187840 
# 
# From -- ./inp_files/32985.got.cif
#   From: 2010.05.17/outbox.cif.g08.bks.cpg/sg74_17_cif.got.tgz:32985.got - 2010.06.03 17:57:02.
