data_PCOD9535976
_publ_section_title
;
Structure prediction by ZEFSAII (Michael W. Deem and Ramdas Pophale) SiO2 
 PCOD9535976
Probable space group: I M M A
;
_chemical_formula_sum "Si O2"
_cell_formula_units_Z 96
_cell_length_a 25.013386
_cell_length_b 16.664107
_cell_length_c 13.337999
_cell_angle_alpha 90.000000
_cell_angle_beta 90.000000
_cell_angle_gamma 90.000000
_cell_volume 5559.621313
_symmetry_space_group_name_H-M "I M M A"
_symmetry_group_IT_number 74
_symmetry_cell_setting 'orthorhombic'
loop_
_space_group_symop_operation_xyz
x,y,z
-x,1/2-y,z
x,-y,-z
-x,1/2+y,-z
-x,-y,-z
x,1/2+y,-z
-x,y,z
x,1/2-y,z
1/2+x,1/2+y,1/2+z
1/2-x,-y,1/2+z
1/2+x,1/2-y,1/2-z
1/2-x,y,1/2-z
1/2-x,1/2-y,1/2-z
1/2+x,y,1/2-z
1/2-x,1/2+y,1/2+z
1/2+x,-y,1/2+z
loop_
_atom_site_type_symbol
_atom_site_label
_atom_site_fract_x
_atom_site_fract_y
_atom_site_fract_z
Si Si1 0.563496 0.656733 0.259954
Si Si2 0.061626 0.408377 0.539387
Si Si3 0.807985 0.428477 0.222180
Si Si4 0.278674 0.343833 0.478251
Si Si5 0.337499 0.155818 0.075477
Si Si6 0.631638 0.445314 0.590533
O O1 0.500000 0.656454 0.277322
O O2 0.580270 0.750000 0.245684
O O3 0.572535 0.606515 0.157385
O O4 0.592640 0.615786 0.353649
O O5 0.064807 0.500000 0.500000
O O6 0.107530 0.361339 0.480596
O O7 0.000000 0.381116 0.521736
O O8 0.750000 0.464028 0.250000
O O9 0.794772 0.361818 0.137351
O O10 0.833970 0.391409 0.320579
O O11 0.845702 0.493573 0.172483
O O12 0.284928 0.250000 0.501079
O O13 0.216069 0.367013 0.487044
O O14 0.318030 0.397523 0.544084
O O15 0.331983 0.250000 0.096180
O O16 0.608329 0.500000 0.500000
#
# Coordination Sequence:
#
# PCOD9535976 Si02
#       6
#    16  16  16  16  16  16
#     4  10  21  37  55  74 100 136 172 207 255 311
#     4  10  21  36  54  76 103 135 171 210 251 300
#     4   9  18  32  50  73 103 135 166 201 250 307
#     4   9  18  32  50  75 104 133 168 208 252 303
#     4  10  19  32  53  77 102 135 170 206 250 300
#     4  10  20  33  52  77 101 130 168 213 255 294
#
# _framework density 17.267364000000001
#
# number of rings (size 3 to 8) (size 9 to 14) (size 15 to 20)
#    0.000    2.333    0.000    2.500    0.000    8.000 
#    0.000    0.000    0.000    5.000    0.000    0.000 
#    0.000    0.000    0.000    0.000    0.000    0.000 
#
# Total GULP energy -267618.200382 kJ/mol
# GULP energy per Si atom -5575.379175 kJ/mol
# Density = 1.722806 g / cm^3
# Si number density = 17.267364 Si / 1000 Ang^3
#
#
#
# Elastic Constant Matrix: (Units=GPa)
#
#
# Indices 1 2 3 4 5 6 
#
# 1 67.5448 29.1844 54.5554 0.0000 0.0000 0.0000
# 2 29.1844 74.9906 42.0048 0.0000 0.0000 0.0000
# 3 54.5554 42.0048 96.2128 0.0000 0.0000 0.0000
# 4 0.0000 0.0000 0.0000 20.6970 0.0000 0.0000
# 5 0.0000 0.0000 0.0000 0.0000 27.1772 0.0000
# 6 0.0000 0.0000 0.0000 0.0000 0.0000 35.4130
#
#
#
# Elastic Compliance Matrix: (Units=1/GPa)
#
#
# Indices 1 2 3 4 5 6 
#
# 1 0.027699 -0.002624 -0.014561 0.000000 0.000000 0.000000
# 2 -0.002624 0.017900 -0.006327 0.000000 0.000000 0.000000
# 3 -0.014561 -0.006327 0.021412 0.000000 0.000000 0.000000
# 4 0.000000 0.000000 0.000000 0.048316 0.000000 0.000000
# 5 0.000000 0.000000 0.000000 0.000000 0.036796 0.000000
# 6 0.000000 0.000000 0.000000 0.000000 0.000000 0.028238
#
#
# Mechanical properties :
#
#
# Convention : Reuss Voigt Hill
#
# Bulk Modulus (GPa) = 50.02918 54.47081 52.25000
# Shear Modulus (GPa) = 21.36313 24.19100 22.77706
#
# Velocity S-wave (km/s) = 3.52120 3.74701 3.63586
# Velocity P-wave (km/s) = 6.75040 7.09465 6.92467
#
# Compressibility (1/GPa) = 0.01998834
#
# Stress axis : x y z
#
# Youngs Moduli (GPa) = 36.10196 55.86541 46.70213
#
# Poissons Ratio (x) = 0.14658 0.68002
# Poissons Ratio (y) = 0.09473 0.29549
# Poissons Ratio (z) = 0.52567 0.35347
#
# Static dielectric constant tensor:
#      x y z
#    x 1.578220 0.000000 0.000000 
#    y 0.000000 1.587130 0.000000 
#    z 0.000000 0.000000 1.575740 
# 
# From -- ./inp_files/22417.got.cif
#   From: 2010.05.17/outbox.cif.g08.bks.cpg/sg74_12_cif.got.tgz:22417.got - 2010.06.03 17:57:02.
