data_PCOD9535419
_publ_section_title
;
Structure prediction by ZEFSAII (Michael W. Deem and Ramdas Pophale) SiO2 
 PCOD9535419
Probable space group: I M M A
;
_chemical_formula_sum "Si O2"
_cell_formula_units_Z 128
_cell_length_a 20.849562
_cell_length_b 15.144730
_cell_length_c 20.540061
_cell_angle_alpha 90.000000
_cell_angle_beta 90.000000
_cell_angle_gamma 90.000000
_cell_volume 6485.749937
_symmetry_space_group_name_H-M "I M M A"
_symmetry_group_IT_number 74
_symmetry_cell_setting 'orthorhombic'
loop_
_space_group_symop_operation_xyz
x,y,z
-x,1/2-y,z
x,-y,-z
-x,1/2+y,-z
-x,-y,-z
x,1/2+y,-z
-x,y,z
x,1/2-y,z
1/2+x,1/2+y,1/2+z
1/2-x,-y,1/2+z
1/2+x,1/2-y,1/2-z
1/2-x,y,1/2-z
1/2-x,1/2-y,1/2-z
1/2+x,y,1/2-z
1/2-x,1/2+y,1/2+z
1/2+x,-y,1/2+z
loop_
_atom_site_type_symbol
_atom_site_label
_atom_site_fract_x
_atom_site_fract_y
_atom_site_fract_z
Si Si1 0.837895 0.104462 0.512053
Si Si2 0.302795 0.396779 0.486887
Si Si3 0.930513 0.353383 0.402506
Si Si4 0.166621 0.858168 0.702418
Si Si5 0.314892 0.355548 0.839754
Si Si6 0.191194 0.643730 0.843128
Si Si7 0.671315 0.853721 0.367736
Si Si8 0.574598 0.858188 0.261590
O O1 0.769918 0.140193 0.484943
O O2 0.895739 0.142303 0.471176
O O3 0.839202 0.126654 0.587477
O O4 0.839137 0.000000 0.500000
O O5 0.297874 0.500000 0.500000
O O6 0.330831 0.384897 0.414744
O O7 0.332940 0.361751 0.553980
O O8 0.936198 0.250000 0.386155
O O9 0.885971 0.393165 0.346926
O O10 0.000000 0.395133 0.404716
O O11 0.167697 0.750000 0.702395
O O12 0.155451 0.885215 0.777129
O O13 0.235678 0.884325 0.673307
O O14 0.309749 0.250000 0.829006
O O15 0.240469 0.390624 0.841301
O O16 0.370392 0.386695 0.790518
O O17 0.190193 0.750000 0.844651
O O18 0.674888 0.750000 0.353259
O O19 0.608517 0.886146 0.329670
O O20 0.500000 0.887603 0.253680
O O21 0.571773 0.750000 0.258795
#
# Coordination Sequence:
#
# PCOD9535419 Si02
#       8
#    16  16  16  16  16  16  16  16
#     4  10  20  32  45  66  97 128 160 196 235 277
#     4  10  19  30  47  71 101 125 155 199 242 280
#     4  10  19  31  48  68  95 129 159 191 232 285
#     4   8  15  27  46  71  91 113 153 196 234 274
#     4   9  17  30  50  72  95 126 162 201 240 283
#     4   9  15  27  50  72  91 117 152 198 239 277
#     4   9  17  30  50  73  97 127 158 196 246 292
#     4   9  17  30  50  74  97 121 158 206 245 283
#
# _framework density 19.735572999999999
#
# number of rings (size 3 to 8) (size 9 to 14) (size 15 to 20)
#    0.000    2.750    1.250    1.875    0.000    3.250 
#    0.000    2.500    2.750    1.125    0.000    3.500 
#    0.000    0.000    0.000    0.000    0.000    0.000 
#
# Total GULP energy -356411.547607 kJ/mol
# GULP energy per Si atom -5568.930431 kJ/mol
# Density = 1.969065 g / cm^3
# Si number density = 19.735573 Si / 1000 Ang^3
#
#
#
# Elastic Constant Matrix: (Units=GPa)
#
#
# Indices 1 2 3 4 5 6 
#
# 1 81.2937 -1.3474 46.3009 0.0000 0.0000 0.0000
# 2 -1.3474 25.9976 -7.5128 0.0000 0.0000 0.0000
# 3 46.3009 -7.5128 109.1167 0.0000 0.0000 0.0000
# 4 0.0000 0.0000 0.0000 -11.5250 0.0000 0.0000
# 5 0.0000 0.0000 0.0000 0.0000 0.1135 0.0000
# 6 0.0000 0.0000 0.0000 0.0000 0.0000 -136.0277
#
#
#
# Elastic Compliance Matrix: (Units=1/GPa)
#
#
# Indices 1 2 3 4 5 6 
#
# 1 0.016256 -0.001174 -0.006979 0.000000 0.000000 0.000000
# 2 -0.001174 0.039331 0.003206 0.000000 0.000000 0.000000
# 3 -0.006979 0.003206 0.012347 0.000000 0.000000 0.000000
# 4 0.000000 0.000000 0.000000 -0.086768 0.000000 0.000000
# 5 0.000000 0.000000 0.000000 0.000000 8.808627 0.000000
# 6 0.000000 0.000000 0.000000 0.000000 0.000000 -0.007351
#
#
# Mechanical properties :
#
#
# Convention : Reuss Voigt Hill
#
# Bulk Modulus (GPa) = 17.22947 32.36548 24.79748
# Shear Modulus (GPa) = 0.56743 -17.55667 -8.49462
#
# Velocity S-wave (km/s) = 0.53679 -2.98584 -2.07691
# Velocity P-wave (km/s) = 3.02213 2.13264 2.61548
#
# Compressibility (1/GPa) = 0.05804009
#
# Stress axis : x y z
#
# Youngs Moduli (GPa) = 61.51410 25.42537 80.99425
#
# Poissons Ratio (x) = 0.02986 0.56525
# Poissons Ratio (y) = 0.07223 -0.25969
# Poissons Ratio (z) = 0.42930 -0.08152
#
# Static dielectric constant tensor:
#      x y z
#    x 1.716750 0.000000 0.000000 
#    y 0.000000 1.781060 0.000000 
#    z 0.000000 0.000000 1.720390 
# 
# From -- ./inp_files/54185.got.cif
#   From: 2010.05.17/outbox.cif.g08.bks.cpg/sg74_28_cif.got.tgz:54185.got - 2010.06.03 17:57:02.
