data_PCOD9535651
_publ_section_title
;
Structure prediction by ZEFSAII (Michael W. Deem and Ramdas Pophale) SiO2 
 PCOD9535651
Probable space group: I M M A
;
_chemical_formula_sum "Si O2"
_cell_formula_units_Z 80
_cell_length_a 27.742412
_cell_length_b 7.652287
_cell_length_c 18.726768
_cell_angle_alpha 90.000000
_cell_angle_beta 90.000000
_cell_angle_gamma 90.000000
_cell_volume 3975.559862
_symmetry_space_group_name_H-M "I M M A"
_symmetry_group_IT_number 74
_symmetry_cell_setting 'orthorhombic'
loop_
_space_group_symop_operation_xyz
x,y,z
-x,1/2-y,z
x,-y,-z
-x,1/2+y,-z
-x,-y,-z
x,1/2+y,-z
-x,y,z
x,1/2-y,z
1/2+x,1/2+y,1/2+z
1/2-x,-y,1/2+z
1/2+x,1/2-y,1/2-z
1/2-x,y,1/2-z
1/2-x,1/2-y,1/2-z
1/2+x,y,1/2-z
1/2-x,1/2+y,1/2+z
1/2+x,-y,1/2+z
loop_
_atom_site_type_symbol
_atom_site_label
_atom_site_fract_x
_atom_site_fract_y
_atom_site_fract_z
Si Si1 0.252531 0.042632 0.329753
Si Si2 0.551607 0.040026 0.415176
Si Si3 0.656950 0.541726 0.084150
Si Si4 0.051888 0.039959 0.584796
Si Si5 0.343961 0.039429 0.416081
O O1 0.261245 0.250000 0.323410
O O2 0.250000 0.969062 0.250000
O O3 0.297858 0.970171 0.373908
O O4 0.202575 0.022016 0.371679
O O5 0.500000 0.973174 0.386596
O O6 0.551325 0.250000 0.406777
O O7 0.603615 0.974281 0.389153
O O8 0.551686 0.000000 0.500000
O O9 0.656060 0.750000 0.090500
O O10 0.604264 0.473908 0.109861
O O11 0.662445 0.500000 0.000000
O O12 0.051782 0.250000 0.593387
O O13 0.000000 0.973979 0.613253
O O14 0.051778 0.000000 0.500000
O O15 0.344826 0.250000 0.410108
O O16 0.339242 0.000000 0.500000
#
# Coordination Sequence:
#
# PCOD9535651 Si02
#       5
#    16  16  16  16  16
#     4  10  21  35  48  63  90 127 161 195 236 278
#     4   8  13  22  38  61  86 108 133 170 215 261
#     4  10  19  31  50  74  97 122 155 194 234 280
#     4   8  14  25  42  66  94 120 146 181 227 275
#     4   9  17  29  46  67  88 113 145 180 221 267
#
# _framework density 20.122951
#
# number of rings (size 3 to 8) (size 9 to 14) (size 15 to 20)
#    0.000    3.000    0.000    1.200    0.000    3.600 
#    0.000    0.000    0.000    1.200    0.000    2.800 
#    0.000    6.400    0.000    0.000    0.000    0.000 
#
# Total GULP energy -222683.777473 kJ/mol
# GULP energy per Si atom -5567.094437 kJ/mol
# Density = 2.007715 g / cm^3
# Si number density = 20.122951 Si / 1000 Ang^3
#
#
#
# Elastic Constant Matrix: (Units=GPa)
#
#
# Indices 1 2 3 4 5 6 
#
# 1 262.9627 1.6838 77.1718 0.0000 0.0000 0.0000
# 2 1.6838 41.5286 -0.3503 0.0000 0.0000 0.0000
# 3 77.1718 -0.3503 56.3317 0.0000 0.0000 0.0000
# 4 0.0000 0.0000 0.0000 9.4015 0.0000 0.0000
# 5 0.0000 0.0000 0.0000 0.0000 -6.4888 0.0000
# 6 0.0000 0.0000 0.0000 0.0000 0.0000 -145.9914
#
#
#
# Elastic Compliance Matrix: (Units=1/GPa)
#
#
# Indices 1 2 3 4 5 6 
#
# 1 0.006364 -0.000332 -0.008721 0.000000 0.000000 0.000000
# 2 -0.000332 0.024098 0.000604 0.000000 0.000000 0.000000
# 3 -0.008721 0.000604 0.029703 0.000000 0.000000 0.000000
# 4 0.000000 0.000000 0.000000 0.106366 0.000000 0.000000
# 5 0.000000 0.000000 0.000000 0.000000 -0.154113 0.000000
# 6 0.000000 0.000000 0.000000 0.000000 0.000000 -0.006850
#
#
# Mechanical properties :
#
#
# Convention : Reuss Voigt Hill
#
# Bulk Modulus (GPa) = 23.11131 57.53706 40.32418
# Shear Modulus (GPa) = 135.54421 -9.79455 62.87483
#
# Velocity S-wave (km/s) = 8.21610 -2.20860 5.59582
# Velocity P-wave (km/s) = 10.07550 4.70648 7.86341
#
# Compressibility (1/GPa) = 0.04326886
#
# Stress axis : x y z
#
# Youngs Moduli (GPa) = 157.12824 41.49668 33.66688
#
# Poissons Ratio (x) = 0.01376 0.29360
# Poissons Ratio (y) = 0.05210 -0.02034
# Poissons Ratio (z) = 1.37028 -0.02507
#
# Static dielectric constant tensor:
#      x y z
#    x 1.812890 0.000000 0.000000 
#    y 0.000000 1.802140 0.000000 
#    z 0.000000 0.000000 1.665490 
# 
# From -- ./inp_files/39742.got.cif
#   From: 2010.05.17/outbox.cif.g08.bks.cpg/sg74_20_cif.got.tgz:39742.got - 2010.06.03 17:57:02.
