data_PCOD9535843
_publ_section_title
;
Structure prediction by ZEFSAII (Michael W. Deem and Ramdas Pophale) SiO2 
 PCOD9535843
Probable space group: I M M A
;
_chemical_formula_sum "Si O2"
_cell_formula_units_Z 112
_cell_length_a 13.875865
_cell_length_b 27.961609
_cell_length_c 15.613498
_cell_angle_alpha 90.000000
_cell_angle_beta 90.000000
_cell_angle_gamma 90.000000
_cell_volume 6057.904691
_symmetry_space_group_name_H-M "I M M A"
_symmetry_group_IT_number 74
_symmetry_cell_setting 'orthorhombic'
loop_
_space_group_symop_operation_xyz
x,y,z
-x,1/2-y,z
x,-y,-z
-x,1/2+y,-z
-x,-y,-z
x,1/2+y,-z
-x,y,z
x,1/2-y,z
1/2+x,1/2+y,1/2+z
1/2-x,-y,1/2+z
1/2+x,1/2-y,1/2-z
1/2-x,y,1/2-z
1/2-x,1/2-y,1/2-z
1/2+x,y,1/2-z
1/2-x,1/2+y,1/2+z
1/2+x,-y,1/2+z
loop_
_atom_site_type_symbol
_atom_site_label
_atom_site_fract_x
_atom_site_fract_y
_atom_site_fract_z
Si Si1 0.388147 0.664164 0.183126
Si Si2 0.318116 0.304970 0.635218
Si Si3 0.751355 0.564531 0.908211
Si Si4 0.891491 0.571091 0.433205
Si Si5 0.112792 0.475860 0.882854
Si Si6 0.890575 0.985817 0.697144
Si Si7 0.886515 0.880578 0.005882
O O1 0.500000 0.679368 0.169584
O O2 0.365687 0.666727 0.284437
O O3 0.298082 0.693559 0.144960
O O4 0.377420 0.612584 0.137596
O O5 0.350055 0.250000 0.639068
O O6 0.349875 0.332747 0.550893
O O7 0.818312 0.517580 0.915859
O O8 0.684770 0.555514 0.825618
O O9 0.680602 0.572107 0.988370
O O10 0.827838 0.606973 0.920069
O O11 0.884716 0.521116 0.383807
O O12 0.000000 0.576282 0.466748
O O13 0.128161 0.481338 0.780510
O O14 0.131267 0.424504 0.925734
O O15 0.000000 0.486893 0.899282
O O16 0.000000 0.967913 0.705689
O O17 0.000000 0.879087 0.990829
#
# Coordination Sequence:
#
# PCOD9535843 Si02
#       7
#    16  16  16  16  16  16  16
#     4  10  20  35  54  75 102 135 176 220 257 297
#     4  11  23  37  55  78 103 139 183 220 260 302
#     4  12  21  32  50  74 101 137 174 217 260 310
#     4  10  19  32  50  73 101 137 175 215 260 306
#     4  10  21  35  51  73 102 140 180 216 260 309
#     4  10  20  32  48  72 102 134 174 218 258 305
#     4  11  22  36  52  73 104 141 180 220 260 308
#
# _framework density 18.488240999999999
#
# number of rings (size 3 to 8) (size 9 to 14) (size 15 to 20)
#    0.000    1.429    1.429    6.000    0.000    6.571 
#    0.000    0.000    0.000    0.000    0.000    0.000 
#    0.000    2.286    0.000    3.429    0.571    0.000 
#
# Total GULP energy -312528.296445 kJ/mol
# GULP energy per Si atom -5580.862437 kJ/mol
# Density = 1.844616 g / cm^3
# Si number density = 18.488241 Si / 1000 Ang^3
#
#
#
# Elastic Constant Matrix: (Units=GPa)
#
#
# Indices 1 2 3 4 5 6 
#
# 1 108.5914 28.9601 29.5893 0.0000 0.0000 0.0000
# 2 28.9601 51.6164 11.5069 0.0001 0.0000 0.0000
# 3 29.5893 11.5069 34.0911 0.0002 0.0000 0.0000
# 4 0.0000 0.0001 0.0002 9.2361 0.0000 0.0000
# 5 0.0000 0.0000 0.0000 0.0000 22.9707 0.0000
# 6 0.0000 0.0000 0.0000 0.0000 0.0000 10.1490
#
#
#
# Elastic Compliance Matrix: (Units=1/GPa)
#
#
# Indices 1 2 3 4 5 6 
#
# 1 0.013268 -0.005274 -0.009736 0.000000 0.000000 0.000000
# 2 -0.005274 0.023046 -0.003202 0.000000 0.000000 0.000000
# 3 -0.009736 -0.003202 0.038864 -0.000001 0.000000 0.000000
# 4 0.000000 0.000000 -0.000001 0.108271 0.000000 0.000000
# 5 0.000000 0.000000 0.000000 0.000000 0.043534 0.000000
# 6 0.000000 0.000000 0.000000 0.000000 0.000000 0.098532
#
#
# Mechanical properties :
#
#
# Convention : Reuss Voigt Hill
#
# Bulk Modulus (GPa) = 25.80248 37.15684 31.47966
# Shear Modulus (GPa) = 13.33845 16.75401 15.04623
#
# Velocity S-wave (km/s) = 2.68891 3.01358 2.85586
# Velocity P-wave (km/s) = 4.86074 5.67891 5.28568
#
# Compressibility (1/GPa) = 0.03875597
#
# Stress axis : x y z
#
# Youngs Moduli (GPa) = 75.36820 43.39079 25.73065
#
# Poissons Ratio (x) = 0.22884 0.25051
# Poissons Ratio (y) = 0.39748 0.08238
# Poissons Ratio (z) = 0.73379 0.13892
#
# Static dielectric constant tensor:
#      x y z
#    x 1.709570 0.000000 0.000000 
#    y 0.000000 1.622030 0.000000 
#    z 0.000000 0.000000 1.685280 
# 
# From -- ./inp_files/33117.got.cif
#   From: 2010.05.17/outbox.cif.g08.bks.cpg/sg74_17_cif.got.tgz:33117.got - 2010.06.03 17:57:02.
