data_PCOD9535313
_publ_section_title
;
Structure prediction by ZEFSAII (Michael W. Deem and Ramdas Pophale) SiO2 
 PCOD9535313
Probable space group: I M M A
;
_chemical_formula_sum "Si O2"
_cell_formula_units_Z 80
_cell_length_a 14.664493
_cell_length_b 28.346232
_cell_length_c 9.473229
_cell_angle_alpha 90.000000
_cell_angle_beta 90.000000
_cell_angle_gamma 90.000000
_cell_volume 3937.861394
_symmetry_space_group_name_H-M "I M M A"
_symmetry_group_IT_number 74
_symmetry_cell_setting 'orthorhombic'
loop_
_space_group_symop_operation_xyz
x,y,z
-x,1/2-y,z
x,-y,-z
-x,1/2+y,-z
-x,-y,-z
x,1/2+y,-z
-x,y,z
x,1/2-y,z
1/2+x,1/2+y,1/2+z
1/2-x,-y,1/2+z
1/2+x,1/2-y,1/2-z
1/2-x,y,1/2-z
1/2-x,1/2-y,1/2-z
1/2+x,y,1/2-z
1/2-x,1/2+y,1/2+z
1/2+x,-y,1/2+z
loop_
_atom_site_type_symbol
_atom_site_label
_atom_site_fract_x
_atom_site_fract_y
_atom_site_fract_z
Si Si1 0.894143 0.493901 0.350668
Si Si2 0.151215 0.387959 0.323390
Si Si3 0.762825 0.635878 0.080787
Si Si4 0.657860 0.197894 0.345343
Si Si5 0.107836 0.451697 0.912088
O O1 0.846373 0.500000 0.500000
O O2 0.892695 0.439144 0.309954
O O3 0.857569 0.530542 0.239468
O O4 0.000000 0.507702 0.362583
O O5 0.250000 0.394265 0.250000
O O6 0.171640 0.374533 0.487058
O O7 0.107270 0.344725 0.236739
O O8 0.750000 0.641360 0.250000
O O9 0.829851 0.591939 0.048658
O O10 0.810305 0.679954 0.999685
O O11 0.616057 0.250000 0.349708
O O12 0.750000 0.201766 0.250000
O O13 0.000000 0.438616 0.912037
O O14 0.114169 0.500000 0.000000
#
# Coordination Sequence:
#
# PCOD9535313 Si02
#       5
#    16  16  16  16  16
#     4  10  20  32  46  66  95 130 159 184 225 277
#     4   9  18  31  48  69  92 122 157 193 228 265
#     4  10  19  29  47  73  93 115 153 196 234 271
#     4   8  16  32  50  68  92 119 149 190 236 277
#     4  10  20  32  45  64  95 131 157 183 227 279
#
# _framework density 20.315594999999998
#
# number of rings (size 3 to 8) (size 9 to 14) (size 15 to 20)
#    0.000    3.000    0.000    3.600    0.000    5.200 
#    0.000    0.000    0.000    2.400    0.000    0.000 
#    0.000   16.000    0.000    0.000    0.000    0.000 
#
# Total GULP energy -222777.804284 kJ/mol
# GULP energy per Si atom -5569.445107 kJ/mol
# Density = 2.026936 g / cm^3
# Si number density = 20.315595 Si / 1000 Ang^3
#
#
#
# Elastic Constant Matrix: (Units=GPa)
#
#
# Indices 1 2 3 4 5 6 
#
# 1 51.7996 10.1001 15.7977 -0.0001 0.0001 0.0001
# 2 10.1001 122.2016 29.0312 -0.0009 0.0003 0.0006
# 3 15.7977 29.0312 125.5975 -0.0027 0.0009 0.0025
# 4 -0.0001 -0.0009 -0.0027 14.0619 0.0008 0.0008
# 5 0.0001 0.0003 0.0009 0.0008 -2.0994 -0.0001
# 6 0.0001 0.0006 0.0025 0.0008 -0.0001 22.1238
#
#
#
# Elastic Compliance Matrix: (Units=1/GPa)
#
#
# Indices 1 2 3 4 5 6 
#
# 1 0.020221 -0.001129 -0.002282 0.000000 -0.000001 0.000000
# 2 -0.001129 0.008722 -0.001874 0.000000 0.000000 0.000000
# 3 -0.002282 -0.001874 0.008682 0.000002 0.000003 -0.000001
# 4 0.000000 0.000000 0.000002 0.071114 0.000028 -0.000002
# 5 -0.000001 0.000000 0.000003 0.000028 -0.476317 -0.000003
# 6 0.000000 0.000000 -0.000001 -0.000002 -0.000003 0.045200
#
#
# Mechanical properties :
#
#
# Convention : Reuss Voigt Hill
#
# Bulk Modulus (GPa) = 36.96272 45.49519 41.22895
# Shear Modulus (GPa) = -16.51317 23.12857 3.30770
#
# Velocity S-wave (km/s) = -2.85411 3.37777 1.27738
# Velocity P-wave (km/s) = 2.71523 6.13639 4.74488
#
# Compressibility (1/GPa) = 0.02705429
#
# Stress axis : x y z
#
# Youngs Moduli (GPa) = 49.45250 114.65640 115.17837
#
# Poissons Ratio (x) = 0.12946 0.26289
# Poissons Ratio (y) = 0.05584 0.21584
# Poissons Ratio (z) = 0.11287 0.21486
#
# Static dielectric constant tensor:
#      x y z
#    x 1.733420 0.000000 0.000000 
#    y 0.000000 1.743170 0.000000 
#    z 0.000000 0.000000 2.078700 
# 
# From -- ./inp_files/11175.got.cif
#   From: 2010.05.17/outbox.cif.g08.bks.cpg/sg74_6_cif.got.tgz:11175.got - 2010.06.03 17:57:02.
