data_PCOD9535532
_publ_section_title
;
Structure prediction by ZEFSAII (Michael W. Deem and Ramdas Pophale) SiO2 
 PCOD9535532
Probable space group: I M M A
;
_chemical_formula_sum "Si O2"
_cell_formula_units_Z 88
_cell_length_a 7.294885
_cell_length_b 18.716202
_cell_length_c 29.986609
_cell_angle_alpha 90.000000
_cell_angle_beta 90.000000
_cell_angle_gamma 90.000000
_cell_volume 4094.147930
_symmetry_space_group_name_H-M "I M M A"
_symmetry_group_IT_number 74
_symmetry_cell_setting 'orthorhombic'
loop_
_space_group_symop_operation_xyz
x,y,z
-x,1/2-y,z
x,-y,-z
-x,1/2+y,-z
-x,-y,-z
x,1/2+y,-z
-x,y,z
x,1/2-y,z
1/2+x,1/2+y,1/2+z
1/2-x,-y,1/2+z
1/2+x,1/2-y,1/2-z
1/2-x,y,1/2-z
1/2-x,1/2-y,1/2-z
1/2+x,y,1/2-z
1/2-x,1/2+y,1/2+z
1/2+x,-y,1/2+z
loop_
_atom_site_type_symbol
_atom_site_label
_atom_site_fract_x
_atom_site_fract_y
_atom_site_fract_z
Si Si1 0.718244 0.958168 0.802738
Si Si2 0.723921 0.669138 0.866577
Si Si3 0.282076 0.250000 0.802321
Si Si4 0.222554 0.072589 0.553680
Si Si5 0.224337 0.394507 0.651985
Si Si6 0.277389 0.593470 0.956408
O O1 0.500000 0.959007 0.809398
O O2 0.750000 0.953473 0.750000
O O3 0.785398 0.889707 0.830581
O O4 0.785646 0.032981 0.823406
O O5 0.500000 0.669072 0.866324
O O6 0.782179 0.750000 0.857120
O O7 0.781859 0.643450 0.915945
O O8 0.500000 0.250000 0.810177
O O9 0.250000 0.250000 0.750000
O O10 0.212173 0.323210 0.823601
O O11 0.281148 0.105219 0.600373
O O12 0.282187 0.108174 0.507186
O O13 0.000000 0.073799 0.553275
O O14 0.274219 0.988839 0.553179
O O15 0.000000 0.395449 0.652837
O O16 0.500000 0.595559 0.956279
#
# Coordination Sequence:
#
# PCOD9535532 Si02
#       6
#    16  16   8  16  16  16
#     4  10  19  31  47  64  85 115 148 182 218 257
#     4   9  16  26  39  58  86 117 145 176 216 260
#     4  10  20  32  46  64  88 118 148 182 221 258
#     4   8  12  20  37  57  81 113 142 168 207 260
#     4   9  16  28  43  61  87 116 144 176 219 263
#     4   8  12  20  35  56  82 113 142 167 205 259
#
# _framework density 21.494094
#
# number of rings (size 3 to 8) (size 9 to 14) (size 15 to 20)
#    0.000    3.091    1.818    1.636    0.000    0.364 
#    1.636    0.000    0.000    0.000    0.000    0.000 
#    0.000    4.364    0.000    0.000    0.000    0.000 
#
# Total GULP energy -245611.180730 kJ/mol
# GULP energy per Si atom -5582.072289 kJ/mol
# Density = 2.144517 g / cm^3
# Si number density = 21.494094 Si / 1000 Ang^3
#
#
#
# Elastic Constant Matrix: (Units=GPa)
#
#
# Indices 1 2 3 4 5 6 
#
# 1 89.3906 10.3141 -0.7561 0.0000 0.0000 0.0000
# 2 10.3141 186.8150 133.7966 0.0000 0.0000 0.0000
# 3 -0.7561 133.7966 230.7545 0.0000 0.0000 0.0000
# 4 0.0000 0.0000 0.0000 28.3440 0.0000 0.0000
# 5 0.0000 0.0000 0.0000 0.0000 6.3866 0.0000
# 6 0.0000 0.0000 0.0000 0.0000 0.0000 -20.3033
#
#
#
# Elastic Compliance Matrix: (Units=1/GPa)
#
#
# Indices 1 2 3 4 5 6 
#
# 1 0.011321 -0.001114 0.000683 0.000000 0.000000 0.000000
# 2 -0.001114 0.009264 -0.005375 0.000000 0.000000 0.000000
# 3 0.000683 -0.005375 0.007453 0.000000 0.000000 0.000000
# 4 0.000000 0.000000 0.000000 0.035281 0.000000 0.000000
# 5 0.000000 0.000000 0.000000 0.000000 0.156578 0.000000
# 6 0.000000 0.000000 0.000000 0.000000 0.000000 -0.049253
#
#
# Mechanical properties :
#
#
# Convention : Reuss Voigt Hill
#
# Bulk Modulus (GPa) = 60.88217 88.18549 74.53383
# Shear Modulus (GPa) = 26.63377 27.12583 26.87980
#
# Velocity S-wave (km/s) = 3.52393 3.55634 3.54017
# Velocity P-wave (km/s) = 6.70403 7.61447 7.17371
#
# Compressibility (1/GPa) = 0.01642517
#
# Stress axis : x y z
#
# Youngs Moduli (GPa) = 88.32969 107.94331 134.18302
#
# Poissons Ratio (x) = 0.12029 -0.09168
# Poissons Ratio (y) = 0.09843 0.72126
# Poissons Ratio (z) = -0.06035 0.58022
#
# Static dielectric constant tensor:
#      x y z
#    x 1.902330 0.000000 0.000000 
#    y 0.000000 1.731300 0.000000 
#    z 0.000000 0.000000 1.753370 
# 
# From -- ./inp_files/71966.got.cif
#   From: 2010.05.17/outbox.cif.g08.bks.cpg/sg74_36_cif.got.tgz:71966.got - 2010.06.03 17:57:02.
