data_PCOD9535337
_publ_section_title
;
Structure prediction by ZEFSAII (Michael W. Deem and Ramdas Pophale) SiO2 
 PCOD9535337
Probable space group: I M M A
;
_chemical_formula_sum "Si O2"
_cell_formula_units_Z 96
_cell_length_a 7.299110
_cell_length_b 21.181197
_cell_length_c 29.906305
_cell_angle_alpha 90.000000
_cell_angle_beta 90.000000
_cell_angle_gamma 90.000000
_cell_volume 4623.630994
_symmetry_space_group_name_H-M "I M M A"
_symmetry_group_IT_number 74
_symmetry_cell_setting 'orthorhombic'
loop_
_space_group_symop_operation_xyz
x,y,z
-x,1/2-y,z
x,-y,-z
-x,1/2+y,-z
-x,-y,-z
x,1/2+y,-z
-x,y,z
x,1/2-y,z
1/2+x,1/2+y,1/2+z
1/2-x,-y,1/2+z
1/2+x,1/2-y,1/2-z
1/2-x,y,1/2-z
1/2-x,1/2-y,1/2-z
1/2+x,y,1/2-z
1/2-x,1/2+y,1/2+z
1/2+x,-y,1/2+z
loop_
_atom_site_type_symbol
_atom_site_label
_atom_site_fract_x
_atom_site_fract_y
_atom_site_fract_z
Si Si1 0.276176 0.176948 0.618865
Si Si2 0.777783 0.951234 0.942551
Si Si3 0.217802 0.316873 0.197397
Si Si4 0.281635 0.917513 0.302668
Si Si5 0.277827 0.595269 0.466129
Si Si6 0.775819 0.447821 0.159167
O O1 0.500000 0.176457 0.618765
O O2 0.219608 0.250000 0.621506
O O3 0.216573 0.135252 0.661769
O O4 0.216892 0.143483 0.572343
O O5 0.719487 0.940851 0.892202
O O6 0.000000 0.949589 0.943202
O O7 0.728018 0.023755 0.952753
O O8 0.718219 0.903493 0.981863
O O9 0.288006 0.250000 0.178289
O O10 0.250000 0.314501 0.250000
O O11 0.289481 0.384056 0.182108
O O12 0.000000 0.317664 0.188708
O O13 0.500000 0.918796 0.308181
O O14 0.250000 0.905406 0.250000
O O15 0.214328 0.986976 0.317817
O O16 0.500000 0.599243 0.465891
O O17 0.000000 0.449701 0.160447
#
# Coordination Sequence:
#
# PCOD9535337 Si02
#       6
#    16  16  16  16  16  16
#     4   9  16  26  39  56  82 113 141 172 213 256
#     4   8  12  19  35  55  77 103 133 164 195 241
#     4   9  17  28  41  57  79 108 138 167 202 244
#     4  10  19  30  44  62  84 112 146 181 214 249
#     4   8  12  20  34  54  77 104 135 162 194 244
#     4   9  15  25  40  59  82 109 138 170 208 249
#
# _framework density 20.762903000000001
#
# number of rings (size 3 to 8) (size 9 to 14) (size 15 to 20)
#    0.000    3.167    1.667    1.500    0.000    0.333 
#    0.000    0.833    0.000    5.000    0.000    0.000 
#    0.000    4.000    0.000    0.833    0.000    0.667 
#
# Total GULP energy -267436.902720 kJ/mol
# GULP energy per Si atom -5571.602140 kJ/mol
# Density = 2.071565 g / cm^3
# Si number density = 20.762903 Si / 1000 Ang^3
#
#
#
# Elastic Constant Matrix: (Units=GPa)
#
#
# Indices 1 2 3 4 5 6 
#
# 1 85.5875 8.6110 -3.4153 0.0000 0.0000 0.0000
# 2 8.6110 189.7531 104.0900 0.0000 0.0000 0.0000
# 3 -3.4153 104.0900 154.1664 0.0000 0.0000 0.0000
# 4 0.0000 0.0000 0.0000 31.8376 0.0000 0.0000
# 5 0.0000 0.0000 0.0000 0.0000 3.0374 0.0000
# 6 0.0000 0.0000 0.0000 0.0000 0.0000 -10.3208
#
#
#
# Elastic Compliance Matrix: (Units=1/GPa)
#
#
# Indices 1 2 3 4 5 6 
#
# 1 0.011832 -0.001081 0.000992 0.000000 0.000000 0.000000
# 2 -0.001081 0.008469 -0.005742 0.000000 0.000000 0.000000
# 3 0.000992 -0.005742 0.010385 0.000000 0.000000 0.000000
# 4 0.000000 0.000000 0.000000 0.031409 0.000000 0.000000
# 5 0.000000 0.000000 0.000000 0.000000 0.329232 0.000000
# 6 0.000000 0.000000 0.000000 0.000000 0.000000 -0.096891
#
#
# Mechanical properties :
#
#
# Convention : Reuss Voigt Hill
#
# Bulk Modulus (GPa) = 52.56387 72.00871 62.28629
# Shear Modulus (GPa) = 16.00305 26.25891 21.13098
#
# Velocity S-wave (km/s) = 2.77925 3.56012 3.19365
# Velocity P-wave (km/s) = 5.97245 7.18721 6.60781
#
# Compressibility (1/GPa) = 0.01902447
#
# Stress axis : x y z
#
# Youngs Moduli (GPa) = 84.51426 118.07985 96.28975
#
# Poissons Ratio (x) = 0.12767 -0.09553
# Poissons Ratio (y) = 0.09138 0.55289
# Poissons Ratio (z) = -0.08385 0.67801
#
# Static dielectric constant tensor:
#      x y z
#    x 1.764730 0.000000 0.000000 
#    y 0.000000 1.727780 0.000000 
#    z 0.000000 0.000000 1.752350 
# 
# From -- ./inp_files/58993.got.cif
#   From: 2010.05.17/outbox.cif.g08.bks.cpg/sg74_30_cif.got.tgz:58993.got - 2010.06.03 17:57:02.
