data_PCOD9535080
_publ_section_title
;
Structure prediction by ZEFSAII (Michael W. Deem and Ramdas Pophale) SiO2 
 PCOD9535080
Probable space group: I M M A
;
_chemical_formula_sum "Si O2"
_cell_formula_units_Z 88
_cell_length_a 22.917680
_cell_length_b 8.042861
_cell_length_c 23.925329
_cell_angle_alpha 90.000000
_cell_angle_beta 90.000000
_cell_angle_gamma 90.000000
_cell_volume 4410.005516
_symmetry_space_group_name_H-M "I M M A"
_symmetry_group_IT_number 74
_symmetry_cell_setting 'orthorhombic'
loop_
_space_group_symop_operation_xyz
x,y,z
-x,1/2-y,z
x,-y,-z
-x,1/2+y,-z
-x,-y,-z
x,1/2+y,-z
-x,y,z
x,1/2-y,z
1/2+x,1/2+y,1/2+z
1/2-x,-y,1/2+z
1/2+x,1/2-y,1/2-z
1/2-x,y,1/2-z
1/2-x,1/2-y,1/2-z
1/2+x,y,1/2-z
1/2-x,1/2+y,1/2+z
1/2+x,-y,1/2+z
loop_
_atom_site_type_symbol
_atom_site_label
_atom_site_fract_x
_atom_site_fract_y
_atom_site_fract_z
Si Si1 0.567025 0.250000 0.135507
Si Si2 0.500000 0.551915 0.565396
Si Si3 0.856340 0.564913 0.228339
Si Si4 0.566308 0.250000 0.271628
Si Si5 0.270899 0.557589 0.641642
Si Si6 0.854145 0.937067 0.363147
Si Si7 0.626250 0.445755 0.564678
O O1 0.500000 0.250000 0.116212
O O2 0.565266 0.250000 0.203630
O O3 0.602239 0.416248 0.118881
O O4 0.500000 0.750000 0.568839
O O5 0.500000 0.500000 0.500000
O O6 0.561316 0.483653 0.587522
O O7 0.877489 0.750000 0.213318
O O8 0.898921 0.414907 0.211429
O O9 0.795750 0.532302 0.196750
O O10 0.851222 0.557391 0.295262
O O11 0.500000 0.250000 0.292058
O O12 0.258603 0.750000 0.654610
O O13 0.211924 0.475927 0.618964
O O14 0.323493 0.540400 0.597887
O O15 0.871917 0.750000 0.379297
O O16 0.627309 0.500000 0.500000
O O17 0.637323 0.250000 0.568842
#
# Coordination Sequence:
#
# PCOD9535080 Si02
#       7
#     8   8  16   8  16  16  16
#     4   9  18  33  53  77 107 143 177 211 257 314
#     4  10  18  34  56  76  98 134 180 220 270 320
#     4  10  20  34  51  74 103 138 180 221 270 317
#     4   9  18  33  49  69 101 140 178 222 268 314
#     4  12  22  35  54  77 104 138 177 223 272 319
#     4  10  20  34  54  79 108 142 177 221 264 315
#     4  11  22  38  56  77 104 137 177 225 272 319
#
# _framework density 19.954623000000002
#
# number of rings (size 3 to 8) (size 9 to 14) (size 15 to 20)
#    0.000    1.636    1.818    5.727    0.000    2.909 
#    1.636    3.636    0.000    0.000    0.000    0.000 
#    0.000    0.727    0.364    0.000    0.000    0.000 
#
# Total GULP energy -245839.470016 kJ/mol
# GULP energy per Si atom -5587.260682 kJ/mol
# Density = 1.990920 g / cm^3
# Si number density = 19.954623 Si / 1000 Ang^3
#
#
#
# Elastic Constant Matrix: (Units=GPa)
#
#
# Indices 1 2 3 4 5 6 
#
# 1 146.2567 54.1321 5.2270 0.0000 0.0000 0.0000
# 2 54.1321 160.0407 -5.7555 0.0000 0.0000 0.0000
# 3 5.2270 -5.7555 23.4834 0.0000 0.0000 0.0000
# 4 0.0000 0.0000 0.0000 14.0575 0.0000 0.0000
# 5 0.0000 0.0000 0.0000 0.0000 16.0760 0.0000
# 6 0.0000 0.0000 0.0000 0.0000 0.0000 14.1040
#
#
#
# Elastic Compliance Matrix: (Units=1/GPa)
#
#
# Indices 1 2 3 4 5 6 
#
# 1 0.007953 -0.002778 -0.002451 0.000000 0.000000 0.000000
# 2 -0.002778 0.007274 0.002401 0.000000 0.000000 0.000000
# 3 -0.002451 0.002401 0.043717 0.000000 0.000000 0.000000
# 4 0.000000 0.000000 0.000000 0.071136 0.000000 0.000000
# 5 0.000000 0.000000 0.000000 0.000000 0.062205 0.000000
# 6 0.000000 0.000000 0.000000 0.000000 0.000000 0.070902
#
#
# Mechanical properties :
#
#
# Convention : Reuss Voigt Hill
#
# Bulk Modulus (GPa) = 18.76566 48.55423 33.65995
# Shear Modulus (GPa) = 17.44550 27.25932 22.35241
#
# Velocity S-wave (km/s) = 2.95999 3.70004 3.35051
# Velocity P-wave (km/s) = 4.59420 6.52985 5.64560
#
# Compressibility (1/GPa) = 0.05328881
#
# Stress axis : x y z
#
# Youngs Moduli (GPa) = 125.73621 137.46712 22.87419
#
# Poissons Ratio (x) = 0.38191 0.05607
# Poissons Ratio (y) = 0.34932 -0.05493
# Poissons Ratio (z) = 0.30820 -0.33009
#
# Static dielectric constant tensor:
#      x y z
#    x 1.704000 0.000000 0.000000 
#    y 0.000000 1.715490 0.000000 
#    z 0.000000 0.000000 1.698760 
# 
# From -- ./inp_files/61479.got.cif
#   From: 2010.05.17/outbox.cif.g08.bks.cpg/sg74_31_cif.got.tgz:61479.got - 2010.06.03 17:57:02.
