data_PCOD9535707
_publ_section_title
;
Structure prediction by ZEFSAII (Michael W. Deem and Ramdas Pophale) SiO2 
 PCOD9535707
Probable space group: I M M A
;
_chemical_formula_sum "Si O2"
_cell_formula_units_Z 80
_cell_length_a 7.646149
_cell_length_b 27.432390
_cell_length_c 17.575484
_cell_angle_alpha 90.000000
_cell_angle_beta 90.000000
_cell_angle_gamma 90.000000
_cell_volume 3686.495405
_symmetry_space_group_name_H-M "I M M A"
_symmetry_group_IT_number 74
_symmetry_cell_setting 'orthorhombic'
loop_
_space_group_symop_operation_xyz
x,y,z
-x,1/2-y,z
x,-y,-z
-x,1/2+y,-z
-x,-y,-z
x,1/2+y,-z
-x,y,z
x,1/2-y,z
1/2+x,1/2+y,1/2+z
1/2-x,-y,1/2+z
1/2+x,1/2-y,1/2-z
1/2-x,y,1/2-z
1/2-x,1/2-y,1/2-z
1/2+x,y,1/2-z
1/2-x,1/2+y,1/2+z
1/2+x,-y,1/2+z
loop_
_atom_site_type_symbol
_atom_site_label
_atom_site_fract_x
_atom_site_fract_y
_atom_site_fract_z
Si Si1 0.792197 0.989447 0.333075
Si Si2 0.204485 0.592856 0.443085
Si Si3 0.296220 0.197553 0.358533
Si Si4 0.704694 0.905104 0.618254
Si Si5 0.212886 0.697508 0.462650
O O1 0.750000 0.969080 0.250000
O O2 0.720435 0.952939 0.397571
O O3 0.000000 0.994319 0.342458
O O4 0.721388 0.044149 0.338968
O O5 0.216742 0.587275 0.534098
O O6 0.275142 0.647084 0.425584
O O7 0.000000 0.593864 0.422537
O O8 0.500000 0.198713 0.335589
O O9 0.216890 0.250000 0.334552
O O10 0.221307 0.143733 0.340979
O O11 0.281509 0.197476 0.450664
O O12 0.500000 0.895264 0.606279
O O13 0.261509 0.750000 0.428335
O O14 0.000000 0.695678 0.467079
#
# Coordination Sequence:
#
# PCOD9535707 Si02
#       5
#    16  16  16  16  16
#     4  11  23  37  51  67  93 128 164 203 244 286
#     4   9  18  32  50  73  99 127 159 196 238 281
#     4   8  14  25  42  67  98 126 150 182 227 275
#     4  10  19  31  51  77 101 126 158 195 234 281
#     4   8  13  23  42  68  95 121 151 188 229 274
#
# _framework density 21.700827
#
# number of rings (size 3 to 8) (size 9 to 14) (size 15 to 20)
#    0.000    2.800    0.000    1.800    0.000    4.800 
#    0.000    0.000    0.000    1.200    0.000    0.000 
#    0.000    0.000    0.000    0.000    0.000    0.200 
#
# Total GULP energy -222867.219247 kJ/mol
# GULP energy per Si atom -5571.680481 kJ/mol
# Density = 2.165144 g / cm^3
# Si number density = 21.700827 Si / 1000 Ang^3
#
#
#
# Elastic Constant Matrix: (Units=GPa)
#
#
# Indices 1 2 3 4 5 6 
#
# 1 50.4859 8.8972 -10.1706 0.0000 0.0000 0.0000
# 2 8.8972 177.0064 54.3173 0.0000 0.0000 0.0000
# 3 -10.1706 54.3173 56.6865 -0.0001 0.0000 0.0000
# 4 0.0000 0.0000 -0.0001 -17.1528 0.0000 0.0000
# 5 0.0000 0.0000 0.0000 0.0000 12.2377 0.0000
# 6 0.0000 0.0000 0.0000 0.0000 0.0000 14.0448
#
#
#
# Elastic Compliance Matrix: (Units=1/GPa)
#
#
# Indices 1 2 3 4 5 6 
#
# 1 0.021796 -0.003252 0.007026 0.000000 0.000000 0.000000
# 2 -0.003252 0.008488 -0.008716 0.000000 0.000000 0.000000
# 3 0.007026 -0.008716 0.027254 0.000000 0.000000 0.000000
# 4 0.000000 0.000000 0.000000 -0.058299 0.000000 0.000000
# 5 0.000000 0.000000 0.000000 0.000000 0.081715 0.000000
# 6 0.000000 0.000000 0.000000 0.000000 0.000000 0.071201
#
#
# Mechanical properties :
#
#
# Convention : Reuss Voigt Hill
#
# Bulk Modulus (GPa) = 20.98457 43.36296 32.17376
# Shear Modulus (GPa) = 28.10223 17.23492 22.66857
#
# Velocity S-wave (km/s) = 3.60249 2.82122 3.23553
# Velocity P-wave (km/s) = 5.19566 5.53516 5.36809
#
# Compressibility (1/GPa) = 0.04765407
#
# Stress axis : x y z
#
# Youngs Moduli (GPa) = 45.87977 117.81710 36.69233
#
# Poissons Ratio (x) = 0.38311 -0.25782
# Poissons Ratio (y) = 0.14919 0.31983
# Poissons Ratio (z) = -0.32237 1.02694
#
# Static dielectric constant tensor:
#      x y z
#    x 1.943180 0.000000 0.000000 
#    y 0.000000 1.910220 0.000000 
#    z 0.000000 0.000000 1.740180 
# 
# From -- ./inp_files/39684.got.cif
#   From: 2010.05.17/outbox.cif.g08.bks.cpg/sg74_20_cif.got.tgz:39684.got - 2010.06.03 17:57:02.
