data_PCOD9535195
_publ_section_title
;
Structure prediction by ZEFSAII (Michael W. Deem and Ramdas Pophale) SiO2 
 PCOD9535195
Probable space group: I M M A
;
_chemical_formula_sum "Si O2"
_cell_formula_units_Z 96
_cell_length_a 9.190192
_cell_length_b 32.236443
_cell_length_c 27.220513
_cell_angle_alpha 90.000000
_cell_angle_beta 90.000000
_cell_angle_gamma 90.000000
_cell_volume 8064.324698
_symmetry_space_group_name_H-M "I M M A"
_symmetry_group_IT_number 74
_symmetry_cell_setting 'orthorhombic'
loop_
_space_group_symop_operation_xyz
x,y,z
-x,1/2-y,z
x,-y,-z
-x,1/2+y,-z
-x,-y,-z
x,1/2+y,-z
-x,y,z
x,1/2-y,z
1/2+x,1/2+y,1/2+z
1/2-x,-y,1/2+z
1/2+x,1/2-y,1/2-z
1/2-x,y,1/2-z
1/2-x,1/2-y,1/2-z
1/2+x,y,1/2-z
1/2-x,1/2+y,1/2+z
1/2+x,-y,1/2+z
loop_
_atom_site_type_symbol
_atom_site_label
_atom_site_fract_x
_atom_site_fract_y
_atom_site_fract_z
Si Si1 0.829041 0.799533 0.698628
Si Si2 0.331643 0.958359 0.466000
Si Si3 0.328355 0.445504 0.302175
Si Si4 0.167922 0.910975 0.547597
Si Si5 0.332101 0.005926 0.115431
Si Si6 0.671608 0.363342 0.369389
O O1 0.816065 0.750000 0.691510
O O2 0.750000 0.809927 0.750000
O O3 0.752198 0.824843 0.655517
O O4 0.000000 0.810081 0.701734
O O5 0.500000 0.947767 0.457326
O O6 0.248838 0.923667 0.497618
O O7 0.248699 0.970974 0.416388
O O8 0.330674 0.000000 0.500000
O O9 0.500000 0.453272 0.296368
O O10 0.250000 0.442610 0.250000
O O11 0.254027 0.480532 0.336033
O O12 0.312065 0.402212 0.331811
O O13 0.254155 0.877494 0.579885
O O14 0.000000 0.899331 0.539530
O O15 0.167612 0.952902 0.580864
O O16 0.500000 0.995427 0.125504
O O17 0.500000 0.355800 0.375717
#
# Coordination Sequence:
#
# PCOD9535195 Si02
#       6
#    16  16  16  16  16  16
#     4  10  20  32  44  56  69  86 109 137 170 209
#     4   9  15  23  35  50  68  87 107 131 159 193
#     4  10  19  28  37  50  67  87 111 139 171 205
#     4   9  16  25  37  52  69  87 107 131 161 198
#     4   9  16  25  36  49  65  86 110 134 162 196
#     4  10  19  29  41  55  70  87 108 136 171 209
#
# _framework density 11.904283
#
# number of rings (size 3 to 8) (size 9 to 14) (size 15 to 20)
#    0.000    2.500    0.000    3.500    0.000   10.333 
#    0.000    0.000    0.000    0.000    0.000    0.000 
#    0.000    0.000    0.000    0.000    0.000    0.000 
#
# Total GULP energy -267538.307379 kJ/mol
# GULP energy per Si atom -5573.714737 kJ/mol
# Density = 1.187719 g / cm^3
# Si number density = 11.904283 Si / 1000 Ang^3
#
#
#
# Elastic Constant Matrix: (Units=GPa)
#
#
# Indices 1 2 3 4 5 6 
#
# 1 117.7277 30.4652 36.4151 0.0000 0.0000 0.0000
# 2 30.4652 26.5657 14.8955 0.0000 0.0000 0.0000
# 3 36.4151 14.8955 26.1972 0.0000 0.0000 0.0000
# 4 0.0000 0.0000 0.0000 23.9225 0.0000 0.0000
# 5 0.0000 0.0000 0.0000 0.0000 22.1092 0.0000
# 6 0.0000 0.0000 0.0000 0.0000 0.0000 14.9131
#
#
#
# Elastic Compliance Matrix: (Units=1/GPa)
#
#
# Indices 1 2 3 4 5 6 
#
# 1 0.016169 -0.008721 -0.017517 0.000000 0.000000 0.000000
# 2 -0.008721 0.059963 -0.021972 0.000000 0.000000 0.000000
# 3 -0.017517 -0.021972 0.075015 0.000000 0.000000 0.000000
# 4 0.000000 0.000000 0.000000 0.041802 0.000000 0.000000
# 5 0.000000 0.000000 0.000000 0.000000 0.045230 0.000000
# 6 0.000000 0.000000 0.000000 0.000000 0.000000 0.067055
#
#
# Mechanical properties :
#
#
# Convention : Reuss Voigt Hill
#
# Bulk Modulus (GPa) = 18.27263 37.11581 27.69422
# Shear Modulus (GPa) = 11.90765 18.10329 15.00547
#
# Velocity S-wave (km/s) = 3.16616 3.90389 3.55422
# Velocity P-wave (km/s) = 5.36181 7.18100 6.33702
#
# Compressibility (1/GPa) = 0.05472667
#
# Stress axis : x y z
#
# Youngs Moduli (GPa) = 61.84542 16.67685 13.33063
#
# Poissons Ratio (x) = 0.14543 0.23352
# Poissons Ratio (y) = 0.53934 0.29291
# Poissons Ratio (z) = 1.08338 0.36643
#
# Static dielectric constant tensor:
#      x y z
#    x 1.397910 0.000000 0.000000 
#    y 0.000000 1.361990 0.000000 
#    z 0.000000 0.000000 1.370220 
# 
# From -- ./inp_files/57494.got.cif
#   From: 2010.05.17/outbox.cif.g08.bks.cpg/sg74_29_cif.got.tgz:57494.got - 2010.06.03 17:57:02.
