data_PCOD9535575
_publ_section_title
;
Structure prediction by ZEFSAII (Michael W. Deem and Ramdas Pophale) SiO2 
 PCOD9535575
Probable space group: I M M A
;
_chemical_formula_sum "Si O2"
_cell_formula_units_Z 112
_cell_length_a 15.710884
_cell_length_b 15.727501
_cell_length_c 24.843305
_cell_angle_alpha 90.000000
_cell_angle_beta 90.000000
_cell_angle_gamma 90.000000
_cell_volume 6138.605367
_symmetry_space_group_name_H-M "I M M A"
_symmetry_group_IT_number 74
_symmetry_cell_setting 'orthorhombic'
loop_
_space_group_symop_operation_xyz
x,y,z
-x,1/2-y,z
x,-y,-z
-x,1/2+y,-z
-x,-y,-z
x,1/2+y,-z
-x,y,z
x,1/2-y,z
1/2+x,1/2+y,1/2+z
1/2-x,-y,1/2+z
1/2+x,1/2-y,1/2-z
1/2-x,y,1/2-z
1/2-x,1/2-y,1/2-z
1/2+x,y,1/2-z
1/2-x,1/2+y,1/2+z
1/2+x,-y,1/2+z
loop_
_atom_site_type_symbol
_atom_site_label
_atom_site_fract_x
_atom_site_fract_y
_atom_site_fract_z
Si Si1 0.814775 0.347416 0.300666
Si Si2 0.210544 0.154068 0.969339
Si Si3 0.405971 0.611439 0.316741
Si Si4 0.904101 0.023322 0.701508
Si Si5 0.220633 0.342810 0.648507
Si Si6 0.786607 0.154224 0.087427
Si Si7 0.595773 0.993344 0.426273
O O1 0.847588 0.250000 0.297820
O O2 0.750000 0.357413 0.250000
O O3 0.881067 0.424059 0.297794
O O4 0.768736 0.357074 0.358853
O O5 0.171262 0.250000 0.966572
O O6 0.267639 0.148146 0.915906
O O7 0.143825 0.076960 0.962925
O O8 0.255823 0.148950 0.027593
O O9 0.500000 0.655022 0.316418
O O10 0.400664 0.558864 0.262029
O O11 0.315505 0.657602 0.325422
O O12 0.407175 0.550446 0.367991
O O13 0.000000 0.036476 0.680634
O O14 0.834645 0.079172 0.669829
O O15 0.181410 0.250000 0.660452
O O16 0.822634 0.250000 0.091241
O O17 0.855154 0.080518 0.083162
O O18 0.500000 0.008682 0.443665
#
# Coordination Sequence:
#
# PCOD9535575 Si02
#       7
#    16  16  16  16  16  16  16
#     4  10  20  36  59  81 101 131 171 214 263 317
#     4   9  19  34  51  72  98 132 174 216 259 306
#     4   9  19  34  52  77 109 142 176 214 258 307
#     4  11  22  35  53  78 109 141 174 218 266 312
#     4  10  20  35  55  76 104 143 180 216 260 308
#     4  10  20  33  51  75 100 130 171 215 259 310
#     4  10  19  31  48  71 104 143 174 205 249 303
#
# _framework density 18.245186
#
# number of rings (size 3 to 8) (size 9 to 14) (size 15 to 20)
#    0.000    2.143    0.000    4.286    0.000    3.714 
#    0.000    5.714    0.000    6.857    0.000    4.000 
#    0.000    0.000    0.000    0.000    0.000    0.000 
#
# Total GULP energy -311794.785385 kJ/mol
# GULP energy per Si atom -5567.764025 kJ/mol
# Density = 1.820366 g / cm^3
# Si number density = 18.245186 Si / 1000 Ang^3
#
#
#
# Elastic Constant Matrix: (Units=GPa)
#
#
# Indices 1 2 3 4 5 6 
#
# 1 69.4049 45.6049 28.9742 0.0000 0.0000 0.0000
# 2 45.6049 108.5541 32.4740 0.0000 0.0000 0.0000
# 3 28.9742 32.4740 103.3988 0.0000 0.0000 0.0000
# 4 0.0000 0.0000 0.0000 248.5971 0.0000 0.0000
# 5 0.0000 0.0000 0.0000 0.0000 6.2537 0.0000
# 6 0.0000 0.0000 0.0000 0.0000 0.0000 -5.8104
#
#
#
# Elastic Compliance Matrix: (Units=1/GPa)
#
#
# Indices 1 2 3 4 5 6 
#
# 1 0.020948 -0.007775 -0.003428 0.000000 0.000000 0.000000
# 2 -0.007775 0.013053 -0.001921 0.000000 0.000000 0.000000
# 3 -0.003428 -0.001921 0.011235 0.000000 0.000000 0.000000
# 4 0.000000 0.000000 0.000000 0.004023 0.000000 0.000000
# 5 0.000000 0.000000 0.000000 0.000000 0.159904 0.000000
# 6 0.000000 0.000000 0.000000 0.000000 0.000000 -0.172107
#
#
# Mechanical properties :
#
#
# Convention : Reuss Voigt Hill
#
# Bulk Modulus (GPa) = 52.66390 55.05155 53.85773
# Shear Modulus (GPa) = 71.80376 61.42842 66.61609
#
# Velocity S-wave (km/s) = 6.28015 5.80873 6.04904
# Velocity P-wave (km/s) = 9.02853 8.67336 8.85273
#
# Compressibility (1/GPa) = 0.01898834
#
# Stress axis : x y z
#
# Youngs Moduli (GPa) = 47.73678 76.61080 89.00612
#
# Poissons Ratio (x) = 0.59565 0.30513
# Poissons Ratio (y) = 0.37116 0.17096
# Poissons Ratio (z) = 0.16365 0.14715
#
# Static dielectric constant tensor:
#      x y z
#    x 1.631580 0.000000 0.000000 
#    y 0.000000 1.635640 0.000000 
#    z 0.000000 0.000000 1.658330 
# 
# From -- ./inp_files/60146.got.cif
#   From: 2010.05.17/outbox.cif.g08.bks.cpg/sg74_31_cif.got.tgz:60146.got - 2010.06.03 17:57:02.
