data_PCOD9535767
_publ_section_title
;
Structure prediction by ZEFSAII (Michael W. Deem and Ramdas Pophale) SiO2 
 PCOD9535767
Probable space group: I M M A
;
_chemical_formula_sum "Si O2"
_cell_formula_units_Z 112
_cell_length_a 14.255813
_cell_length_b 23.839828
_cell_length_c 25.811788
_cell_angle_alpha 90.000000
_cell_angle_beta 90.000000
_cell_angle_gamma 90.000000
_cell_volume 8772.294376
_symmetry_space_group_name_H-M "I M M A"
_symmetry_group_IT_number 74
_symmetry_cell_setting 'orthorhombic'
loop_
_space_group_symop_operation_xyz
x,y,z
-x,1/2-y,z
x,-y,-z
-x,1/2+y,-z
-x,-y,-z
x,1/2+y,-z
-x,y,z
x,1/2-y,z
1/2+x,1/2+y,1/2+z
1/2-x,-y,1/2+z
1/2+x,1/2-y,1/2-z
1/2-x,y,1/2-z
1/2-x,1/2-y,1/2-z
1/2+x,y,1/2-z
1/2-x,1/2+y,1/2+z
1/2+x,-y,1/2+z
loop_
_atom_site_type_symbol
_atom_site_label
_atom_site_fract_x
_atom_site_fract_y
_atom_site_fract_z
Si Si1 0.113383 0.932780 0.891541
Si Si2 0.895670 0.185735 0.355307
Si Si3 0.113035 0.250000 0.167554
Si Si4 0.714846 0.364488 0.306780
Si Si5 0.699951 0.866054 0.510672
Si Si6 0.892178 0.459598 0.949234
Si Si7 0.887820 0.250000 0.044060
Si Si8 0.895263 0.814549 0.519937
O O1 0.152193 0.909200 0.837706
O O2 0.165579 0.897656 0.936866
O O3 0.000000 0.924602 0.896326
O O4 0.133761 0.998253 0.902873
O O5 0.879902 0.250000 0.337357
O O6 0.810633 0.147939 0.337583
O O7 0.896415 0.186874 0.417497
O O8 0.000000 0.168474 0.337586
O O9 0.156590 0.194049 0.192557
O O10 0.138602 0.250000 0.105670
O O11 0.000000 0.250000 0.171387
O O12 0.750000 0.380377 0.250000
O O13 0.666288 0.904950 0.463544
O O14 0.652331 0.805272 0.516839
O O15 0.810391 0.854961 0.505992
O O16 0.000000 0.442457 0.942715
O O17 0.888320 0.500000 0.000000
O O18 0.000000 0.250000 0.042221
O O19 0.877802 0.750000 0.503122
O O20 0.000000 0.830919 0.502614
#
# Coordination Sequence:
#
# PCOD9535767 Si02
#       8
#    16  16   8  16  16  16   8  16
#     4  10  19  32  46  58  79 108 139 176 215 257
#     4   9  17  29  40  49  69 104 137 166 205 245
#     4  11  21  31  40  56  85 113 138 177 225 258
#     4  12  22  31  41  58  77 103 143 185 217 253
#     4  11  16  26  44  63  85 108 138 172 208 252
#     4   8  16  28  43  62  80 103 135 169 209 258
#     4  11  18  23  40  66  90 113 134 172 216 253
#     4   9  16  26  39  56  78 109 142 164 191 235
#
# _framework density 12.767469999999999
#
# number of rings (size 3 to 8) (size 9 to 14) (size 15 to 20)
#    0.000    2.000    4.286    3.643    0.000    1.143 
#    0.000    0.000    0.000    4.714    0.000    0.000 
#    0.000    0.000    0.000    0.643    0.000    0.571 
#
# Total GULP energy -311908.008417 kJ/mol
# GULP energy per Si atom -5569.785865 kJ/mol
# Density = 1.273841 g / cm^3
# Si number density = 12.767470 Si / 1000 Ang^3
#
#
#
# Elastic Constant Matrix: (Units=GPa)
#
#
# Indices 1 2 3 4 5 6 
#
# 1 91.3319 44.6380 22.6172 0.0000 0.0000 0.0000
# 2 44.6380 67.2021 32.4221 0.0000 0.0000 0.0000
# 3 22.6172 32.4221 37.8298 0.0000 0.0000 0.0000
# 4 0.0000 0.0000 0.0000 10.1980 0.0000 0.0000
# 5 0.0000 0.0000 0.0000 0.0000 12.3616 0.0000
# 6 0.0000 0.0000 0.0000 0.0000 0.0000 13.9932
#
#
#
# Elastic Compliance Matrix: (Units=1/GPa)
#
#
# Indices 1 2 3 4 5 6 
#
# 1 0.016226 -0.010396 -0.000791 0.000000 0.000000 0.000000
# 2 -0.010396 0.032033 -0.021238 0.000000 0.000000 0.000000
# 3 -0.000791 -0.021238 0.045109 0.000000 0.000000 0.000000
# 4 0.000000 0.000000 0.000000 0.098059 0.000000 0.000000
# 5 0.000000 0.000000 0.000000 0.000000 0.080896 0.000000
# 6 0.000000 0.000000 0.000000 0.000000 0.000000 0.071463
#
#
# Mechanical properties :
#
#
# Convention : Reuss Voigt Hill
#
# Bulk Modulus (GPa) = 35.06626 43.96871 39.51749
# Shear Modulus (GPa) = 11.95768 13.75631 12.85700
#
# Velocity S-wave (km/s) = 3.06367 3.28601 3.17679
# Velocity P-wave (km/s) = 6.32769 6.99357 6.66895
#
# Compressibility (1/GPa) = 0.02851744
#
# Stress axis : x y z
#
# Youngs Moduli (GPa) = 61.62904 31.21829 22.16852
#
# Poissons Ratio (x) = 0.32456 0.01753
# Poissons Ratio (y) = 0.64072 0.47081
# Poissons Ratio (z) = 0.04874 0.66301
#
# Static dielectric constant tensor:
#      x y z
#    x 1.443510 0.000000 0.000000 
#    y 0.000000 1.414580 0.000000 
#    z 0.000000 0.000000 1.412660 
# 
# From -- ./inp_files/72782.got.cif
#   From: 2010.05.17/outbox.cif.g08.bks.cpg/sg74_37_cif.got.tgz:72782.got - 2010.06.03 17:57:02.
