data_PCOD9535820
_publ_section_title
;
Structure prediction by ZEFSAII (Michael W. Deem and Ramdas Pophale) SiO2 
 PCOD9535820
Probable space group: I M M A
;
_chemical_formula_sum "Si O2"
_cell_formula_units_Z 80
_cell_length_a 8.538902
_cell_length_b 19.856577
_cell_length_c 26.892327
_cell_angle_alpha 90.000000
_cell_angle_beta 90.000000
_cell_angle_gamma 90.000000
_cell_volume 4559.684537
_symmetry_space_group_name_H-M "I M M A"
_symmetry_group_IT_number 74
_symmetry_cell_setting 'orthorhombic'
loop_
_space_group_symop_operation_xyz
x,y,z
-x,1/2-y,z
x,-y,-z
-x,1/2+y,-z
-x,-y,-z
x,1/2+y,-z
-x,y,z
x,1/2-y,z
1/2+x,1/2+y,1/2+z
1/2-x,-y,1/2+z
1/2+x,1/2-y,1/2-z
1/2-x,y,1/2-z
1/2-x,1/2-y,1/2-z
1/2+x,y,1/2-z
1/2-x,1/2+y,1/2+z
1/2+x,-y,1/2+z
loop_
_atom_site_type_symbol
_atom_site_label
_atom_site_fract_x
_atom_site_fract_y
_atom_site_fract_z
Si Si1 0.311477 0.575603 0.304046
Si Si2 0.691424 0.172245 0.106565
Si Si3 0.812113 0.827076 0.107744
Si Si4 0.818917 0.668175 0.497611
Si Si5 0.188326 0.424377 0.303964
O O1 0.500000 0.574487 0.302947
O O2 0.250000 0.597759 0.250000
O O3 0.256916 0.624769 0.348058
O O4 0.250462 0.499889 0.312324
O O5 0.500000 0.172421 0.104900
O O6 0.740076 0.250000 0.113823
O O7 0.739760 0.124875 0.151760
O O8 0.743878 0.147432 0.051836
O O9 0.753416 0.750000 0.113388
O O10 0.766578 0.852220 0.052786
O O11 0.000000 0.824825 0.110408
O O12 0.814902 0.750000 0.499195
O O13 0.000000 0.647490 0.493645
O O14 0.250000 0.401974 0.250000
O O15 0.000000 0.425937 0.302659
#
# Coordination Sequence:
#
# PCOD9535820 Si02
#       5
#    16  16  16  16  16
#     4  10  20  34  50  67  92 124 155 190 231 276
#     4   8  15  29  49  72  96 122 154 192 230 267
#     4   9  18  32  49  70  95 121 150 188 234 277
#     4   8  14  27  48  71  93 119 152 188 226 270
#     4  10  19  32  50  69  93 125 157 191 231 275
#
# _framework density 17.545074
#
# number of rings (size 3 to 8) (size 9 to 14) (size 15 to 20)
#    0.000    3.000    0.000    3.600    0.000    2.400 
#    0.000    3.000    0.000   10.200    0.000    0.000 
#    0.000    0.000    0.000    0.000    0.000    0.000 
#
# Total GULP energy -222815.835661 kJ/mol
# GULP energy per Si atom -5570.395892 kJ/mol
# Density = 1.750514 g / cm^3
# Si number density = 17.545074 Si / 1000 Ang^3
#
#
#
# Elastic Constant Matrix: (Units=GPa)
#
#
# Indices 1 2 3 4 5 6 
#
# 1 24.5686 15.0889 27.4505 0.0000 0.0000 0.0000
# 2 15.0889 59.2168 93.9962 0.0000 0.0000 0.0000
# 3 27.4505 93.9962 211.6259 0.0000 0.0000 0.0000
# 4 0.0000 0.0000 0.0000 -76.1453 0.0000 0.0000
# 5 0.0000 0.0000 0.0000 0.0000 27.7028 0.0000
# 6 0.0000 0.0000 0.0000 0.0000 0.0000 14.2125
#
#
#
# Elastic Compliance Matrix: (Units=1/GPa)
#
#
# Indices 1 2 3 4 5 6 
#
# 1 0.048715 -0.008078 -0.002731 0.000000 0.000000 0.000000
# 2 -0.008078 0.058590 -0.024975 0.000000 0.000000 0.000000
# 3 -0.002731 -0.024975 0.016173 0.000000 0.000000 0.000000
# 4 0.000000 0.000000 0.000000 -0.013133 0.000000 0.000000
# 5 0.000000 0.000000 0.000000 0.000000 0.036097 0.000000
# 6 0.000000 0.000000 0.000000 0.000000 0.000000 0.070361
#
#
# Mechanical properties :
#
#
# Convention : Reuss Voigt Hill
#
# Bulk Modulus (GPa) = 19.26478 63.16471 41.21475
# Shear Modulus (GPa) = 16.35729 3.74571 10.05150
#
# Velocity S-wave (km/s) = 3.05667 1.46272 2.39612
# Velocity P-wave (km/s) = 4.84372 6.23957 5.58542
#
# Compressibility (1/GPa) = 0.05190819
#
# Stress axis : x y z
#
# Youngs Moduli (GPa) = 20.52766 17.06787 61.83255
#
# Poissons Ratio (x) = 0.13788 0.16886
# Poissons Ratio (y) = 0.16582 1.54430
# Poissons Ratio (z) = 0.05606 0.42628
#
# Static dielectric constant tensor:
#      x y z
#    x 1.607810 0.000000 0.000000 
#    y 0.000000 1.581540 0.000000 
#    z 0.000000 0.000000 1.613230 
# 
# From -- ./inp_files/70135.got.cif
#   From: 2010.05.17/outbox.cif.g08.bks.cpg/sg74_36_cif.got.tgz:70135.got - 2010.06.03 17:57:02.
