data_PCOD9535954
_publ_section_title
;
Structure prediction by ZEFSAII (Michael W. Deem and Ramdas Pophale) SiO2 
 PCOD9535954
Probable space group: I M M A
;
_chemical_formula_sum "Si O2"
_cell_formula_units_Z 112
_cell_length_a 15.664620
_cell_length_b 25.226069
_cell_length_c 14.631998
_cell_angle_alpha 90.000000
_cell_angle_beta 90.000000
_cell_angle_gamma 90.000000
_cell_volume 5781.933287
_symmetry_space_group_name_H-M "I M M A"
_symmetry_group_IT_number 74
_symmetry_cell_setting 'orthorhombic'
loop_
_space_group_symop_operation_xyz
x,y,z
-x,1/2-y,z
x,-y,-z
-x,1/2+y,-z
-x,-y,-z
x,1/2+y,-z
-x,y,z
x,1/2-y,z
1/2+x,1/2+y,1/2+z
1/2-x,-y,1/2+z
1/2+x,1/2-y,1/2-z
1/2-x,y,1/2-z
1/2-x,1/2-y,1/2-z
1/2+x,y,1/2-z
1/2-x,1/2+y,1/2+z
1/2+x,-y,1/2+z
loop_
_atom_site_type_symbol
_atom_site_label
_atom_site_fract_x
_atom_site_fract_y
_atom_site_fract_z
Si Si1 0.664748 0.191506 0.686274
Si Si2 0.401072 0.080872 0.743172
Si Si3 0.757599 0.903077 0.852198
Si Si4 0.906058 0.954485 0.575546
Si Si5 0.257790 0.308858 0.001339
Si Si6 0.595348 0.369187 0.921922
Si Si7 0.602849 0.011945 0.392948
O O1 0.628373 0.250000 0.706878
O O2 0.750000 0.186510 0.750000
O O3 0.609135 0.139846 0.703881
O O4 0.688771 0.189789 0.579560
O O5 0.500000 0.067186 0.754951
O O6 0.366110 0.090321 0.845903
O O7 0.367722 0.036474 0.673572
O O8 0.750000 0.881448 0.750000
O O9 0.677493 0.944009 0.864806
O O10 0.754069 0.855678 0.925841
O O11 0.843670 0.936475 0.866136
O O12 0.911989 0.901682 0.514941
O O13 0.000000 0.963104 0.620283
O O14 0.894312 0.000000 0.500000
O O15 0.259528 0.250000 0.042202
O O16 0.344348 0.320612 0.944493
O O17 0.500000 0.353587 0.892624
O O18 0.500000 0.018610 0.384480
O O19 0.620418 0.000000 0.500000
#
# Coordination Sequence:
#
# PCOD9535954 Si02
#       7
#    16  16  16  16  16  16  16
#     4  10  19  32  52  79 111 149 187 230 287 344
#     4  10  20  33  54  82 114 150 189 233 290 355
#     4  11  24  38  58  88 115 153 204 247 299 353
#     4   9  19  35  56  81 115 149 184 235 295 358
#     4  10  21  39  58  78 112 153 196 246 296 353
#     4   9  18  32  52  83 113 142 180 227 294 363
#     4  10  22  40  59  82 118 161 203 248 295 348
#
# _framework density 19.370684000000001
#
# number of rings (size 3 to 8) (size 9 to 14) (size 15 to 20)
#    0.000    2.143    1.429    1.286    2.000    3.143 
#    0.000    1.429    0.000    1.286    0.000    2.000 
#    0.000    0.000    0.000    0.000    0.000    0.000 
#
# Total GULP energy -312007.697741 kJ/mol
# GULP energy per Si atom -5571.566031 kJ/mol
# Density = 1.932660 g / cm^3
# Si number density = 19.370684 Si / 1000 Ang^3
#
#
#
# Elastic Constant Matrix: (Units=GPa)
#
#
# Indices 1 2 3 4 5 6 
#
# 1 30.5537 22.5264 19.3012 0.0000 0.0000 0.0000
# 2 22.5264 104.5409 34.6003 0.0000 0.0000 0.0000
# 3 19.3012 34.6003 88.6851 0.0000 0.0000 0.0000
# 4 0.0000 0.0000 0.0000 25.1499 0.0000 0.0000
# 5 0.0000 0.0000 0.0000 0.0000 -8.6166 0.0000
# 6 0.0000 0.0000 0.0000 0.0000 0.0000 18.5998
#
#
#
# Elastic Compliance Matrix: (Units=1/GPa)
#
#
# Indices 1 2 3 4 5 6 
#
# 1 0.041871 -0.006897 -0.006422 0.000000 0.000000 0.000000
# 2 -0.006897 0.012120 -0.003228 0.000000 0.000000 0.000000
# 3 -0.006422 -0.003228 0.013933 0.000000 0.000000 0.000000
# 4 0.000000 0.000000 0.000000 0.039762 0.000000 0.000000
# 5 0.000000 0.000000 0.000000 0.000000 -0.116056 0.000000
# 6 0.000000 0.000000 0.000000 0.000000 0.000000 0.053764
#
#
# Mechanical properties :
#
#
# Convention : Reuss Voigt Hill
#
# Bulk Modulus (GPa) = 28.71006 41.84840 35.27923
# Shear Modulus (GPa) = 55.49601 16.85009 36.17305
#
# Velocity S-wave (km/s) = 5.35833 2.95257 4.32604
# Velocity P-wave (km/s) = 7.28943 5.76840 6.57306
#
# Compressibility (1/GPa) = 0.03483099
#
# Stress axis : x y z
#
# Youngs Moduli (GPa) = 23.88293 82.50816 71.77343
#
# Poissons Ratio (x) = 0.56905 0.46092
# Poissons Ratio (y) = 0.16472 0.23165
# Poissons Ratio (z) = 0.15337 0.26630
#
# Static dielectric constant tensor:
#      x y z
#    x 1.737490 0.000000 0.000000 
#    y 0.000000 1.686890 0.000000 
#    z 0.000000 0.000000 1.723260 
# 
# From -- ./inp_files/32733.got.cif
#   From: 2010.05.17/outbox.cif.g08.bks.cpg/sg74_17_cif.got.tgz:32733.got - 2010.06.03 17:57:02.
