data_PCOD9535464
_publ_section_title
;
Structure prediction by ZEFSAII (Michael W. Deem and Ramdas Pophale) SiO2 
 PCOD9535464
Probable space group: I M M A
;
_chemical_formula_sum "Si O2"
_cell_formula_units_Z 80
_cell_length_a 14.749762
_cell_length_b 27.672798
_cell_length_c 9.138294
_cell_angle_alpha 90.000000
_cell_angle_beta 90.000000
_cell_angle_gamma 90.000000
_cell_volume 3729.951732
_symmetry_space_group_name_H-M "I M M A"
_symmetry_group_IT_number 74
_symmetry_cell_setting 'orthorhombic'
loop_
_space_group_symop_operation_xyz
x,y,z
-x,1/2-y,z
x,-y,-z
-x,1/2+y,-z
-x,-y,-z
x,1/2+y,-z
-x,y,z
x,1/2-y,z
1/2+x,1/2+y,1/2+z
1/2-x,-y,1/2+z
1/2+x,1/2-y,1/2-z
1/2-x,y,1/2-z
1/2-x,1/2-y,1/2-z
1/2+x,y,1/2-z
1/2-x,1/2+y,1/2+z
1/2+x,-y,1/2+z
loop_
_atom_site_type_symbol
_atom_site_label
_atom_site_fract_x
_atom_site_fract_y
_atom_site_fract_z
Si Si1 0.110430 0.093765 0.646963
Si Si2 0.147144 0.907376 0.695137
Si Si3 0.104315 0.993587 0.157695
Si Si4 0.145620 0.697838 0.698582
Si Si5 0.890366 0.801540 0.351585
O O1 0.142754 0.089870 0.480121
O O2 0.137523 0.146413 0.710517
O O3 0.000000 0.092428 0.638834
O O4 0.142986 0.048971 0.742883
O O5 0.250000 0.908200 0.750000
O O6 0.103598 0.955187 0.761598
O O7 0.107557 0.854819 0.742005
O O8 0.000000 0.978350 0.131094
O O9 0.149991 0.000000 0.000000
O O10 0.106745 0.750000 0.748184
O O11 0.250000 0.697707 0.750000
O O12 0.138655 0.698160 0.522056
O O13 0.859927 0.750000 0.285774
O O14 0.000000 0.801203 0.349860
#
# Coordination Sequence:
#
# PCOD9535464 Si02
#       5
#    16  16  16  16  16
#     4   9  17  31  51  71  94 128 164 196 236 287
#     4  10  19  30  48  74  97 120 155 197 239 282
#     4  10  21  35  49  66  93 129 164 199 241 287
#     4   8  14  25  41  63  92 121 147 181 229 282
#     4   8  13  22  40  68  95 117 150 195 233 269
#
# _framework density 21.447998999999999
#
# number of rings (size 3 to 8) (size 9 to 14) (size 15 to 20)
#    0.000    3.000    0.000    1.200    0.000    4.000 
#    0.000    0.000    0.000    1.200    0.000    2.800 
#    0.000   16.800    0.000    0.000    0.000    0.000 
#
# Total GULP energy -222759.652248 kJ/mol
# GULP energy per Si atom -5568.991306 kJ/mol
# Density = 2.139918 g / cm^3
# Si number density = 21.447999 Si / 1000 Ang^3
#
#
#
# Elastic Constant Matrix: (Units=GPa)
#
#
# Indices 1 2 3 4 5 6 
#
# 1 68.5064 10.3355 11.4620 -0.0001 0.0000 0.0001
# 2 10.3355 247.1111 75.3138 0.0003 0.0005 -0.0002
# 3 11.4620 75.3138 64.5170 -0.0035 0.0016 -0.0004
# 4 -0.0001 0.0003 -0.0035 -6.1864 0.0001 0.0005
# 5 0.0000 0.0005 0.0016 0.0001 23.7524 -0.0002
# 6 0.0001 -0.0002 -0.0004 0.0005 -0.0002 20.9901
#
#
#
# Elastic Compliance Matrix: (Units=1/GPa)
#
#
# Indices 1 2 3 4 5 6 
#
# 1 0.015058 0.000288 -0.003011 0.000001 0.000000 0.000000
# 2 0.000288 0.006287 -0.007390 0.000004 0.000000 0.000000
# 3 -0.003011 -0.007390 0.024662 -0.000014 -0.000001 0.000000
# 4 0.000001 0.000004 -0.000014 -0.161644 0.000001 0.000004
# 5 0.000000 0.000000 -0.000001 0.000001 0.042101 0.000000
# 6 0.000000 0.000000 0.000000 0.000004 0.000000 0.047641
#
#
# Mechanical properties :
#
#
# Convention : Reuss Voigt Hill
#
# Bulk Modulus (GPa) = 38.79098 63.81747 51.30422
# Shear Modulus (GPa) = 1709.08226 26.57942 867.83084
#
# Velocity S-wave (km/s) = 28.25914 3.52412 20.13701
# Velocity P-wave (km/s) = 32.90741 6.81016 23.76211
#
# Compressibility (1/GPa) = 0.02577919
#
# Stress axis : x y z
#
# Youngs Moduli (GPa) = 66.41185 159.05416 40.54819
#
# Poissons Ratio (x) = -0.04580 0.12210
# Poissons Ratio (y) = -0.01913 0.29967
# Poissons Ratio (z) = 0.19998 1.17549
#
# Static dielectric constant tensor:
#      x y z
#    x 1.885600 0.000000 0.000000 
#    y 0.000000 1.876710 0.000000 
#    z 0.000000 0.000000 1.725680 
# 
# From -- ./inp_files/10913.got.cif
#   From: 2010.05.17/outbox.cif.g08.bks.cpg/sg74_6_cif.got.tgz:10913.got - 2010.06.03 17:57:02.
