data_PCOD9535042
_publ_section_title
;
Structure prediction by ZEFSAII (Michael W. Deem and Ramdas Pophale) SiO2 
 PCOD9535042
Probable space group: I M M A
;
_chemical_formula_sum "Si O2"
_cell_formula_units_Z 72
_cell_length_a 8.428374
_cell_length_b 14.970947
_cell_length_c 30.570207
_cell_angle_alpha 90.000000
_cell_angle_beta 90.000000
_cell_angle_gamma 90.000000
_cell_volume 3857.371355
_symmetry_space_group_name_H-M "I M M A"
_symmetry_group_IT_number 74
_symmetry_cell_setting 'orthorhombic'
loop_
_space_group_symop_operation_xyz
x,y,z
-x,1/2-y,z
x,-y,-z
-x,1/2+y,-z
-x,-y,-z
x,1/2+y,-z
-x,y,z
x,1/2-y,z
1/2+x,1/2+y,1/2+z
1/2-x,-y,1/2+z
1/2+x,1/2-y,1/2-z
1/2-x,y,1/2-z
1/2-x,1/2-y,1/2-z
1/2+x,y,1/2-z
1/2-x,1/2+y,1/2+z
1/2+x,-y,1/2+z
loop_
_atom_site_type_symbol
_atom_site_label
_atom_site_fract_x
_atom_site_fract_y
_atom_site_fract_z
Si Si1 0.806053 0.750000 0.013237
Si Si2 0.192153 0.559140 0.874662
Si Si3 0.806543 0.250000 0.088817
Si Si4 0.193498 0.942938 0.042476
Si Si5 0.811526 0.250000 0.800107
Si Si6 0.812031 0.561547 0.299593
O O1 0.757883 0.750000 0.962159
O O2 0.000000 0.750000 0.013342
O O3 0.753827 0.658957 0.036461
O O4 0.243576 0.659254 0.887167
O O5 0.244411 0.493132 0.913766
O O6 0.255460 0.519424 0.829659
O O7 0.000000 0.558565 0.873374
O O8 0.000000 0.250000 0.088288
O O9 0.000000 0.942649 0.042826
O O10 0.241334 0.000000 0.000000
O O11 0.750000 0.250000 0.750000
O O12 0.751928 0.344043 0.818830
O O13 0.000000 0.250000 0.800349
O O14 0.750000 0.552575 0.250000
O O15 0.000000 0.566523 0.298166
#
# Coordination Sequence:
#
# PCOD9535042 Si02
#       6
#     8  16   8  16   8  16
#     4   9  14  23  41  72 108 142 179 225 278 322
#     4  10  19  32  52  80 110 145 188 236 284 331
#     4   9  16  28  49  75 107 145 188 233 280 328
#     4   9  15  24  42  71 106 139 177 228 278 324
#     4  10  18  33  58  85 111 141 175 214 265 326
#     4  11  22  38  58  82 112 147 183 227 276 333
#
# _framework density 18.665561
#
# number of rings (size 3 to 8) (size 9 to 14) (size 15 to 20)
#    0.000    2.222    2.222    4.333    0.000    0.889 
#    0.000    3.333    0.000    0.667    0.000    0.000 
#    0.000    0.000    0.000    0.000    0.000    0.000 
#
# Total GULP energy -200879.787073 kJ/mol
# GULP energy per Si atom -5579.994085 kJ/mol
# Density = 1.862308 g / cm^3
# Si number density = 18.665561 Si / 1000 Ang^3
#
#
#
# Elastic Constant Matrix: (Units=GPa)
#
#
# Indices 1 2 3 4 5 6 
#
# 1 53.5916 34.4605 22.8719 0.0000 0.0000 0.0000
# 2 34.4605 198.4043 78.6742 0.0000 0.0000 0.0000
# 3 22.8719 78.6742 95.7024 0.0000 0.0000 0.0000
# 4 0.0000 0.0000 0.0000 31.3523 0.0000 0.0000
# 5 0.0000 0.0000 0.0000 0.0000 10.8169 0.0000
# 6 0.0000 0.0000 0.0000 0.0000 0.0000 9.0894
#
#
#
# Elastic Compliance Matrix: (Units=1/GPa)
#
#
# Indices 1 2 3 4 5 6 
#
# 1 0.021602 -0.002529 -0.003083 0.000000 0.000000 0.000000
# 2 -0.002529 0.007774 -0.005786 0.000000 0.000000 0.000000
# 3 -0.003083 -0.005786 0.015943 0.000000 0.000000 0.000000
# 4 0.000000 0.000000 0.000000 0.031896 0.000000 0.000000
# 5 0.000000 0.000000 0.000000 0.000000 0.092448 0.000000
# 6 0.000000 0.000000 0.000000 0.000000 0.000000 0.110018
#
#
# Mechanical properties :
#
#
# Convention : Reuss Voigt Hill
#
# Bulk Modulus (GPa) = 44.40361 68.85684 56.63023
# Shear Modulus (GPa) = 16.12979 24.36449 20.24714
#
# Velocity S-wave (km/s) = 2.94283 3.61684 3.29710
# Velocity P-wave (km/s) = 5.94875 7.37644 6.70073
#
# Compressibility (1/GPa) = 0.02252069
#
# Stress axis : x y z
#
# Youngs Moduli (GPa) = 46.29205 128.63381 62.72464
#
# Poissons Ratio (x) = 0.32536 0.19340
# Poissons Ratio (y) = 0.11709 0.36294
# Poissons Ratio (z) = 0.14273 0.74431
#
# Static dielectric constant tensor:
#      x y z
#    x 1.648590 0.000000 0.000000 
#    y 0.000000 1.658250 0.000000 
#    z 0.000000 0.000000 1.625080 
# 
# From -- ./inp_files/70000.got.cif
#   From: 2010.05.17/outbox.cif.g08.bks.cpg/sg74_35_cif.got.tgz:70000.got - 2010.06.03 17:57:02.
