data_PCOD9535499
_publ_section_title
;
Structure prediction by ZEFSAII (Michael W. Deem and Ramdas Pophale) SiO2 
 PCOD9535499
Probable space group: I M M A
;
_chemical_formula_sum "Si O2"
_cell_formula_units_Z 104
_cell_length_a 8.984443
_cell_length_b 21.027183
_cell_length_c 26.654725
_cell_angle_alpha 90.000000
_cell_angle_beta 90.000000
_cell_angle_gamma 90.000000
_cell_volume 5035.544733
_symmetry_space_group_name_H-M "I M M A"
_symmetry_group_IT_number 74
_symmetry_cell_setting 'orthorhombic'
loop_
_space_group_symop_operation_xyz
x,y,z
-x,1/2-y,z
x,-y,-z
-x,1/2+y,-z
-x,-y,-z
x,1/2+y,-z
-x,y,z
x,1/2-y,z
1/2+x,1/2+y,1/2+z
1/2-x,-y,1/2+z
1/2+x,1/2-y,1/2-z
1/2-x,y,1/2-z
1/2-x,1/2-y,1/2-z
1/2+x,y,1/2-z
1/2-x,1/2+y,1/2+z
1/2+x,-y,1/2+z
loop_
_atom_site_type_symbol
_atom_site_label
_atom_site_fract_x
_atom_site_fract_y
_atom_site_fract_z
Si Si1 0.831482 0.819016 0.829979
Si Si2 0.178028 0.583022 0.906728
Si Si3 0.177862 0.320926 0.593348
Si Si4 0.750000 0.584491 0.750000
Si Si5 0.675134 0.923095 0.007942
Si Si6 0.822246 0.141386 0.803231
Si Si7 0.830873 0.511945 0.334209
O O1 0.766192 0.750000 0.818384
O O2 0.757129 0.858908 0.873822
O O3 0.840527 0.866558 0.783648
O O4 0.000000 0.810360 0.847335
O O5 0.258499 0.521228 0.882902
O O6 0.000000 0.574482 0.900493
O O7 0.219133 0.598692 0.963155
O O8 0.208770 0.250000 0.571202
O O9 0.215427 0.381903 0.557746
O O10 0.260121 0.324763 0.646890
O O11 0.000000 0.324283 0.601946
O O12 0.832359 0.539748 0.710448
O O13 0.500000 0.909148 0.999302
O O14 0.687993 0.000000 0.000000
O O15 0.750000 0.161655 0.750000
O O16 0.769582 0.068937 0.813732
O O17 0.000000 0.146165 0.799808
O O18 0.000000 0.532847 0.344886
#
# Coordination Sequence:
#
# PCOD9535499 Si02
#       7
#    16  16  16   8  16  16  16
#     4   9  18  32  48  71 108 153 200 249 302 362
#     4  10  21  35  55  84 118 157 204 257 314 375
#     4  10  23  44  68  95 130 171 214 263 321 384
#     4  10  19  30  52  78 111 152 206 254 312 372
#     4  10  21  39  64  92 122 160 205 257 318 378
#     4  12  25  41  65  95 128 165 207 255 311 377
#     4  11  21  35  57  86 123 161 204 259 319 377
#
# _framework density 20.653176999999999
#
# number of rings (size 3 to 8) (size 9 to 14) (size 15 to 20)
#    0.000    1.692    0.769    3.923    0.000    4.615 
#    0.000    0.000    0.000    8.769    0.000    0.000 
#    0.000    0.000    0.000    0.000    0.000    0.000 
#
# Total GULP energy -289676.350760 kJ/mol
# GULP energy per Si atom -5570.699053 kJ/mol
# Density = 2.060617 g / cm^3
# Si number density = 20.653177 Si / 1000 Ang^3
#
#
#
# Elastic Constant Matrix: (Units=GPa)
#
#
# Indices 1 2 3 4 5 6 
#
# 1 70.7891 25.4114 52.6707 0.0000 0.0000 0.0000
# 2 25.4114 110.6917 35.6510 0.0000 0.0000 0.0000
# 3 52.6707 35.6510 120.6662 0.0000 0.0000 0.0000
# 4 0.0000 0.0000 0.0000 5.7494 0.0000 0.0000
# 5 0.0000 0.0000 0.0000 0.0000 19.0897 0.0000
# 6 0.0000 0.0000 0.0000 0.0000 0.0000 19.4046
#
#
#
# Elastic Compliance Matrix: (Units=1/GPa)
#
#
# Indices 1 2 3 4 5 6 
#
# 1 0.021354 -0.002100 -0.008701 0.000000 0.000000 0.000000
# 2 -0.002100 0.010191 -0.002094 0.000000 0.000000 0.000000
# 3 -0.008701 -0.002094 0.012704 0.000000 0.000000 0.000000
# 4 0.000000 0.000000 0.000000 0.173930 0.000000 0.000000
# 5 0.000000 0.000000 0.000000 0.000000 0.052384 0.000000
# 6 0.000000 0.000000 0.000000 0.000000 0.000000 0.051534
#
#
# Mechanical properties :
#
#
# Convention : Reuss Voigt Hill
#
# Bulk Modulus (GPa) = 54.17409 58.84591 56.51000
# Shear Modulus (GPa) = 14.12273 21.40967 17.76620
#
# Velocity S-wave (km/s) = 2.61780 3.22316 2.93613
# Velocity P-wave (km/s) = 5.95185 6.51199 6.23821
#
# Compressibility (1/GPa) = 0.01845901
#
# Stress axis : x y z
#
# Youngs Moduli (GPa) = 46.82972 98.12879 78.71636
#
# Poissons Ratio (x) = 0.20607 0.68487
# Poissons Ratio (y) = 0.09834 0.16485
# Poissons Ratio (z) = 0.40744 0.20550
#
# Static dielectric constant tensor:
#      x y z
#    x 1.707160 0.000000 0.000000 
#    y 0.000000 1.849350 0.000000 
#    z 0.000000 0.000000 1.759530 
# 
# From -- ./inp_files/64528.got.cif
#   From: 2010.05.17/outbox.cif.g08.bks.cpg/sg74_33_cif.got.tgz:64528.got - 2010.06.03 17:57:02.
