data_PCOD9535537
_publ_section_title
;
Structure prediction by ZEFSAII (Michael W. Deem and Ramdas Pophale) SiO2 
 PCOD9535537
Probable space group: I M M A
;
_chemical_formula_sum "Si O2"
_cell_formula_units_Z 96
_cell_length_a 7.460718
_cell_length_b 29.182817
_cell_length_c 19.600145
_cell_angle_alpha 90.000000
_cell_angle_beta 90.000000
_cell_angle_gamma 90.000000
_cell_volume 4267.437025
_symmetry_space_group_name_H-M "I M M A"
_symmetry_group_IT_number 74
_symmetry_cell_setting 'orthorhombic'
loop_
_space_group_symop_operation_xyz
x,y,z
-x,1/2-y,z
x,-y,-z
-x,1/2+y,-z
-x,-y,-z
x,1/2+y,-z
-x,y,z
x,1/2-y,z
1/2+x,1/2+y,1/2+z
1/2-x,-y,1/2+z
1/2+x,1/2-y,1/2-z
1/2-x,y,1/2-z
1/2-x,1/2-y,1/2-z
1/2+x,y,1/2-z
1/2-x,1/2+y,1/2+z
1/2+x,-y,1/2+z
loop_
_atom_site_type_symbol
_atom_site_label
_atom_site_fract_x
_atom_site_fract_y
_atom_site_fract_z
Si Si1 0.212254 0.697298 0.673947
Si Si2 0.699398 0.874029 0.566076
Si Si3 0.285589 0.847882 0.329866
Si Si4 0.719417 0.699245 0.461827
Si Si5 0.716021 0.049306 0.331477
Si Si6 0.786516 0.551896 0.169244
O O1 0.269894 0.750000 0.670538
O O2 0.250000 0.680435 0.750000
O O3 0.312802 0.666525 0.620964
O O4 0.000000 0.694944 0.660883
O O5 0.500000 0.889558 0.543754
O O6 0.783176 0.845384 0.503842
O O7 0.783495 0.914386 0.612180
O O8 0.500000 0.850322 0.335410
O O9 0.250000 0.839828 0.250000
O O10 0.227755 0.809621 0.383435
O O11 0.216504 0.898365 0.352794
O O12 0.500000 0.699093 0.466953
O O13 0.778036 0.750000 0.485454
O O14 0.500000 0.050456 0.336181
O O15 0.750000 0.057897 0.250000
O O16 0.781389 0.998235 0.351562
O O17 0.750000 0.552467 0.250000
O O18 0.000000 0.551346 0.156627
#
# Coordination Sequence:
#
# PCOD9535537 Si02
#       6
#    16  16  16  16  16  16
#     4  10  20  32  46  65  89 119 158 202 242 277
#     4  10  19  31  47  66  91 125 161 193 229 275
#     4   9  17  31  52  74  94 119 151 188 234 287
#     4   9  18  32  49  69  94 124 156 191 236 288
#     4   9  17  28  44  68  95 123 157 194 229 266
#     4   8  14  26  44  67  94 120 148 185 229 275
#
# _framework density 22.495937000000001
#
# number of rings (size 3 to 8) (size 9 to 14) (size 15 to 20)
#    0.000    2.833    0.000    1.500    0.000    4.000 
#    0.000    1.667    0.000    6.000    0.000    0.000 
#    0.000   14.667    0.000    0.000    0.000    0.000 
#
# Total GULP energy -267361.967785 kJ/mol
# GULP energy per Si atom -5570.040996 kJ/mol
# Density = 2.244474 g / cm^3
# Si number density = 22.495937 Si / 1000 Ang^3
#
#
#
# Elastic Constant Matrix: (Units=GPa)
#
#
# Indices 1 2 3 4 5 6 
#
# 1 70.8743 1.5628 -5.6531 0.0000 0.0000 0.0000
# 2 1.5628 81.7991 37.4813 0.0000 0.0000 0.0000
# 3 -5.6531 37.4813 77.4739 -0.0001 0.0000 0.0000
# 4 0.0000 0.0000 -0.0001 51.2691 0.0000 0.0000
# 5 0.0000 0.0000 0.0000 0.0000 9.1573 0.0000
# 6 0.0000 0.0000 0.0000 0.0000 0.0000 4.1447
#
#
#
# Elastic Compliance Matrix: (Units=1/GPa)
#
#
# Indices 1 2 3 4 5 6 
#
# 1 0.014251 -0.000962 0.001505 0.000000 0.000000 0.000000
# 2 -0.000962 0.015772 -0.007701 0.000000 0.000000 0.000000
# 3 0.001505 -0.007701 0.016743 0.000000 0.000000 0.000000
# 4 0.000000 0.000000 0.000000 0.019505 0.000000 0.000000
# 5 0.000000 0.000000 0.000000 0.000000 0.109202 0.000000
# 6 0.000000 0.000000 0.000000 0.000000 0.000000 0.241274
#
#
# Mechanical properties :
#
#
# Convention : Reuss Voigt Hill
#
# Bulk Modulus (GPa) = 30.81568 32.99214 31.90391
# Shear Modulus (GPa) = 11.31534 26.03130 18.67332
#
# Velocity S-wave (km/s) = 2.24519 3.40539 2.88423
# Velocity P-wave (km/s) = 4.52208 5.49180 5.03036
#
# Compressibility (1/GPa) = 0.03245101
#
# Stress axis : x y z
#
# Youngs Moduli (GPa) = 70.17168 63.40380 59.72696
#
# Poissons Ratio (x) = 0.06099 -0.08990
# Poissons Ratio (y) = 0.06750 0.45993
# Poissons Ratio (z) = -0.10563 0.48824
#
# Static dielectric constant tensor:
#      x y z
#    x 1.943460 0.000000 0.000000 
#    y 0.000000 1.877400 0.000000 
#    z 0.000000 0.000000 1.823940 
# 
# From -- ./inp_files/49155.got.cif
#   From: 2010.05.17/outbox.cif.g08.bks.cpg/sg74_25_cif.got.tgz:49155.got - 2010.06.03 17:57:02.
