data_PCOD9535510
_publ_section_title
;
Structure prediction by ZEFSAII (Michael W. Deem and Ramdas Pophale) SiO2 
 PCOD9535510
Probable space group: I M M A
;
_chemical_formula_sum "Si O2"
_cell_formula_units_Z 88
_cell_length_a 25.831464
_cell_length_b 7.442999
_cell_length_c 26.166013
_cell_angle_alpha 90.000000
_cell_angle_beta 90.000000
_cell_angle_gamma 90.000000
_cell_volume 5030.770829
_symmetry_space_group_name_H-M "I M M A"
_symmetry_group_IT_number 74
_symmetry_cell_setting 'orthorhombic'
loop_
_space_group_symop_operation_xyz
x,y,z
-x,1/2-y,z
x,-y,-z
-x,1/2+y,-z
-x,-y,-z
x,1/2+y,-z
-x,y,z
x,1/2-y,z
1/2+x,1/2+y,1/2+z
1/2-x,-y,1/2+z
1/2+x,1/2-y,1/2-z
1/2-x,y,1/2-z
1/2-x,1/2-y,1/2-z
1/2+x,y,1/2-z
1/2-x,1/2+y,1/2+z
1/2+x,-y,1/2+z
loop_
_atom_site_type_symbol
_atom_site_label
_atom_site_fract_x
_atom_site_fract_y
_atom_site_fract_z
Si Si1 0.056401 0.033153 0.413823
Si Si2 0.059809 0.958437 0.707134
Si Si3 0.217410 0.039965 0.057182
Si Si4 0.372823 0.750000 0.262801
Si Si5 0.698561 0.250000 0.827760
Si Si6 0.168120 0.465925 0.409904
Si Si7 0.185117 0.750000 0.135647
O O1 0.054323 0.250000 0.418280
O O2 0.060060 0.989977 0.353120
O O3 0.112904 0.977779 0.434489
O O4 0.000000 0.965658 0.432666
O O5 0.075306 0.750000 0.709220
O O6 0.000000 0.974089 0.723258
O O7 0.094954 0.080065 0.742530
O O8 0.213027 0.250000 0.068457
O O9 0.278920 0.991540 0.060205
O O10 0.187514 0.921670 0.098490
O O11 0.199490 0.000000 0.000000
O O12 0.320340 0.750000 0.229735
O O13 0.359389 0.750000 0.322243
O O14 0.675739 0.423388 0.857592
O O15 0.759688 0.250000 0.835383
O O16 0.166399 0.250000 0.401715
#
# Coordination Sequence:
#
# PCOD9535510 Si02
#       7
#    16  16  16   8   8  16   8
#     4   8  13  24  42  64  92 126 165 205 237 278
#     4   9  18  31  47  69 100 138 174 201 233 281
#     4  10  19  35  56  71  90 123 163 216 261 301
#     4  12  20  30  50  72 106 142 166 205 239 294
#     4  10  19  31  45  66 101 139 168 204 238 288
#     4   9  17  29  46  69  92 124 171 206 244 298
#     4  10  23  35  47  76 103 127 171 205 257 302
#
# _framework density 17.492348
#
# number of rings (size 3 to 8) (size 9 to 14) (size 15 to 20)
#    0.000    2.545    2.727    1.636    0.000    0.727 
#    0.000    0.455    0.000    6.000    0.000    0.000 
#    0.000    2.909    0.000    0.000    0.000    0.000 
#
# Total GULP energy -245228.256004 kJ/mol
# GULP energy per Si atom -5573.369455 kJ/mol
# Density = 1.745253 g / cm^3
# Si number density = 17.492348 Si / 1000 Ang^3
#
#
#
# Elastic Constant Matrix: (Units=GPa)
#
#
# Indices 1 2 3 4 5 6 
#
# 1 20.9013 9.3208 8.1070 0.0000 0.0000 0.0000
# 2 9.3208 64.6938 22.3533 0.0000 0.0000 0.0000
# 3 8.1070 22.3533 73.5571 0.0000 0.0000 0.0000
# 4 0.0000 0.0000 0.0000 11.6374 0.0000 0.0000
# 5 0.0000 0.0000 0.0000 0.0000 10.3657 0.0000
# 6 0.0000 0.0000 0.0000 0.0000 0.0000 24.8215
#
#
#
# Elastic Compliance Matrix: (Units=1/GPa)
#
#
# Indices 1 2 3 4 5 6 
#
# 1 0.052095 -0.006170 -0.003867 0.000000 0.000000 0.000000
# 2 -0.006170 0.018002 -0.004791 0.000000 0.000000 0.000000
# 3 -0.003867 -0.004791 0.015477 0.000000 0.000000 0.000000
# 4 0.000000 0.000000 0.000000 0.085930 0.000000 0.000000
# 5 0.000000 0.000000 0.000000 0.000000 0.096472 0.000000
# 6 0.000000 0.000000 0.000000 0.000000 0.000000 0.040288
#
#
# Mechanical properties :
#
#
# Convention : Reuss Voigt Hill
#
# Bulk Modulus (GPa) = 17.88277 26.52381 22.20329
# Shear Modulus (GPa) = 14.02302 17.32300 15.67301
#
# Velocity S-wave (km/s) = 2.83444 3.15035 2.99656
# Velocity P-wave (km/s) = 4.57793 5.33188 4.96923
#
# Compressibility (1/GPa) = 0.05591975
#
# Stress axis : x y z
#
# Youngs Moduli (GPa) = 19.19573 55.55073 64.61270
#
# Poissons Ratio (x) = 0.34272 0.24984
# Poissons Ratio (y) = 0.11843 0.30953
# Poissons Ratio (z) = 0.07422 0.26612
#
# Static dielectric constant tensor:
#      x y z
#    x 1.624300 0.000000 0.000000 
#    y 0.000000 1.627110 0.000000 
#    z 0.000000 0.000000 1.573890 
# 
# From -- ./inp_files/61466.got.cif
#   From: 2010.05.17/outbox.cif.g08.bks.cpg/sg74_31_cif.got.tgz:61466.got - 2010.06.03 17:57:02.
