data_PCOD9535596
_publ_section_title
;
Structure prediction by ZEFSAII (Michael W. Deem and Ramdas Pophale) SiO2 
 PCOD9535596
Probable space group: I M M A
;
_chemical_formula_sum "Si O2"
_cell_formula_units_Z 96
_cell_length_a 24.073003
_cell_length_b 8.739781
_cell_length_c 29.993171
_cell_angle_alpha 90.000000
_cell_angle_beta 90.000000
_cell_angle_gamma 90.000000
_cell_volume 6310.346455
_symmetry_space_group_name_H-M "I M M A"
_symmetry_group_IT_number 74
_symmetry_cell_setting 'orthorhombic'
loop_
_space_group_symop_operation_xyz
x,y,z
-x,1/2-y,z
x,-y,-z
-x,1/2+y,-z
-x,-y,-z
x,1/2+y,-z
-x,y,z
x,1/2-y,z
1/2+x,1/2+y,1/2+z
1/2-x,-y,1/2+z
1/2+x,1/2-y,1/2-z
1/2-x,y,1/2-z
1/2-x,1/2-y,1/2-z
1/2+x,y,1/2-z
1/2-x,1/2+y,1/2+z
1/2+x,-y,1/2+z
loop_
_atom_site_type_symbol
_atom_site_label
_atom_site_fract_x
_atom_site_fract_y
_atom_site_fract_z
Si Si1 0.078851 0.073272 0.953574
Si Si2 0.500000 0.926536 0.294989
Si Si3 0.716844 0.433059 0.355158
Si Si4 0.299140 0.923396 0.213667
Si Si5 0.378500 0.067049 0.284447
Si Si6 0.712049 0.574319 0.452763
Si Si7 0.500000 0.073750 0.386660
O O1 0.061181 0.250000 0.948523
O O2 0.145060 0.073853 0.953809
O O3 0.053615 0.964333 0.916123
O O4 0.060724 0.000000 0.000000
O O5 0.500000 0.750000 0.281781
O O6 0.440985 0.002552 0.282450
O O7 0.500000 0.951224 0.347839
O O8 0.715347 0.250000 0.355063
O O9 0.769915 0.492587 0.327439
O O10 0.660780 0.484106 0.327054
O O11 0.723196 0.491409 0.405742
O O12 0.316302 0.750000 0.202319
O O13 0.250000 0.913714 0.250000
O O14 0.346940 0.013557 0.239744
O O15 0.380974 0.250000 0.286850
O O16 0.730601 0.500000 0.500000
O O17 0.731335 0.750000 0.450841
O O18 0.500000 0.250000 0.371259
#
# Coordination Sequence:
#
# PCOD9535596 Si02
#       7
#    16   8  16  16  16  16   8
#     4  10  20  33  46  59  77 104 140 183 228 270
#     4  12  24  35  47  64  88 118 150 185 228 274
#     4  10  19  31  49  70  92 119 152 190 230 273
#     4   9  17  30  49  71  93 117 148 186 226 269
#     4  10  20  34  50  69  93 120 152 189 231 276
#     4  10  20  32  46  63  85 113 145 182 225 272
#     4  12  23  33  44  58  77 104 142 185 227 268
#
# _framework density 15.213111
#
# number of rings (size 3 to 8) (size 9 to 14) (size 15 to 20)
#    0.000    1.833    0.000    5.250    0.000    8.667 
#    0.000    0.000    0.000    0.000    0.000    0.000 
#    0.000    0.000    0.000    0.750    0.000   10.500 
#
# Total GULP energy -267480.817722 kJ/mol
# GULP energy per Si atom -5572.517036 kJ/mol
# Density = 1.517848 g / cm^3
# Si number density = 15.213111 Si / 1000 Ang^3
#
#
#
# Elastic Constant Matrix: (Units=GPa)
#
#
# Indices 1 2 3 4 5 6 
#
# 1 66.2420 26.1038 44.8353 0.0000 0.0000 0.0000
# 2 26.1038 87.7561 41.1935 0.0000 0.0000 0.0000
# 3 44.8353 41.1935 102.0889 0.0000 0.0000 0.0000
# 4 0.0000 0.0000 0.0000 26.6589 0.0000 0.0000
# 5 0.0000 0.0000 0.0000 0.0000 -49.1254 0.0000
# 6 0.0000 0.0000 0.0000 0.0000 0.0000 22.9811
#
#
#
# Elastic Compliance Matrix: (Units=1/GPa)
#
#
# Indices 1 2 3 4 5 6 
#
# 1 0.021906 -0.002468 -0.008625 0.000000 0.000000 0.000000
# 2 -0.002468 0.014336 -0.004701 0.000000 0.000000 0.000000
# 3 -0.008625 -0.004701 0.015480 0.000000 0.000000 0.000000
# 4 0.000000 0.000000 0.000000 0.037511 0.000000 0.000000
# 5 0.000000 0.000000 0.000000 0.000000 -0.020356 0.000000
# 6 0.000000 0.000000 0.000000 0.000000 0.000000 0.043514
#
#
# Mechanical properties :
#
#
# Convention : Reuss Voigt Hill
#
# Bulk Modulus (GPa) = 49.66408 53.37245 51.51827
# Shear Modulus (GPa) = 33.18062 9.69987 21.44025
#
# Velocity S-wave (km/s) = 4.67524 2.52781 3.75817
# Velocity P-wave (km/s) = 7.86513 6.60902 7.26428
#
# Compressibility (1/GPa) = 0.02013528
#
# Stress axis : x y z
#
# Youngs Moduli (GPa) = 45.64874 69.75513 64.59850
#
# Poissons Ratio (x) = 0.17212 0.55717
# Poissons Ratio (y) = 0.11264 0.30367
# Poissons Ratio (z) = 0.39373 0.32791
#
# Static dielectric constant tensor:
#      x y z
#    x 1.503050 0.000000 0.000000 
#    y 0.000000 1.530580 0.000000 
#    z 0.000000 0.000000 1.516470 
# 
# From -- ./inp_files/68591.got.cif
#   From: 2010.05.17/outbox.cif.g08.bks.cpg/sg74_35_cif.got.tgz:68591.got - 2010.06.03 17:57:02.
