data_PCOD9535462
_publ_section_title
;
Structure prediction by ZEFSAII (Michael W. Deem and Ramdas Pophale) SiO2 
 PCOD9535462
Probable space group: I M M A
;
_chemical_formula_sum "Si O2"
_cell_formula_units_Z 80
_cell_length_a 18.226791
_cell_length_b 19.133457
_cell_length_c 13.183434
_cell_angle_alpha 90.000000
_cell_angle_beta 90.000000
_cell_angle_gamma 90.000000
_cell_volume 4597.610836
_symmetry_space_group_name_H-M "I M M A"
_symmetry_group_IT_number 74
_symmetry_cell_setting 'orthorhombic'
loop_
_space_group_symop_operation_xyz
x,y,z
-x,1/2-y,z
x,-y,-z
-x,1/2+y,-z
-x,-y,-z
x,1/2+y,-z
-x,y,z
x,1/2-y,z
1/2+x,1/2+y,1/2+z
1/2-x,-y,1/2+z
1/2+x,1/2-y,1/2-z
1/2-x,y,1/2-z
1/2-x,1/2-y,1/2-z
1/2+x,y,1/2-z
1/2-x,1/2+y,1/2+z
1/2+x,-y,1/2+z
loop_
_atom_site_type_symbol
_atom_site_label
_atom_site_fract_x
_atom_site_fract_y
_atom_site_fract_z
Si Si1 0.698067 0.477866 0.887659
Si Si2 0.655799 0.537015 0.680775
Si Si3 0.842253 0.328497 0.044515
Si Si4 0.500000 0.328646 0.563186
Si Si5 0.500000 0.019551 0.618775
Si Si6 0.779001 0.673283 0.365350
O O1 0.669623 0.529614 0.800523
O O2 0.786349 0.483672 0.871259
O O3 0.674837 0.397720 0.872337
O O4 0.679061 0.500000 0.000000
O O5 0.670139 0.611140 0.626953
O O6 0.573579 0.513324 0.661651
O O7 0.833656 0.250000 0.086696
O O8 0.925451 0.334647 0.002525
O O9 0.785897 0.333714 0.949514
O O10 0.500000 0.250000 0.608524
O O11 0.500000 0.396815 0.633288
O O12 0.500000 0.000000 0.500000
O O13 0.813549 0.750000 0.383005
O O14 0.750000 0.673803 0.250000
#
# Coordination Sequence:
#
# PCOD9535462 Si02
#       6
#    16  16  16   8   8  16
#     4  11  21  36  54  75 107 140 179 220 267 321
#     4  11  21  34  55  80 100 143 177 218 272 312
#     4  10  19  33  50  77 111 135 170 217 263 321
#     4  10  20  30  48  78 110 138 157 208 273 313
#     4  12  20  32  55  80 109 132 179 222 259 313
#     4  10  19  30  48  74 104 138 170 214 265 312
#
# _framework density 17.400341000000001
#
# number of rings (size 3 to 8) (size 9 to 14) (size 15 to 20)
#    0.000    1.400    6.000    1.800    0.000    0.000 
#    0.000    3.500    0.000    0.000    0.000    0.000 
#    0.000    0.000    0.000    0.000    0.000    0.000 
#
# Total GULP energy -222909.278122 kJ/mol
# GULP energy per Si atom -5572.731953 kJ/mol
# Density = 1.736074 g / cm^3
# Si number density = 17.400341 Si / 1000 Ang^3
#
#
#
# Elastic Constant Matrix: (Units=GPa)
#
#
# Indices 1 2 3 4 5 6 
#
# 1 51.0167 7.5469 17.3193 0.0000 0.0000 0.0000
# 2 7.5469 150.8910 56.5580 0.0000 0.0000 0.0000
# 3 17.3193 56.5580 116.8489 0.0000 0.0000 0.0000
# 4 0.0000 0.0000 0.0000 26.2424 0.0000 0.0000
# 5 0.0000 0.0000 0.0000 0.0000 3.7315 0.0000
# 6 0.0000 0.0000 0.0000 0.0000 0.0000 13.5011
#
#
#
# Elastic Compliance Matrix: (Units=1/GPa)
#
#
# Indices 1 2 3 4 5 6 
#
# 1 0.020642 0.000140 -0.003127 0.000000 0.000000 0.000000
# 2 0.000140 0.008097 -0.003940 0.000000 0.000000 0.000000
# 3 -0.003127 -0.003940 0.010929 0.000000 0.000000 0.000000
# 4 0.000000 0.000000 0.000000 0.038106 0.000000 0.000000
# 5 0.000000 0.000000 0.000000 0.000000 0.267988 0.000000
# 6 0.000000 0.000000 0.000000 0.000000 0.000000 0.074068
#
#
# Mechanical properties :
#
#
# Convention : Reuss Voigt Hill
#
# Bulk Modulus (GPa) = 38.73983 53.51168 46.12575
# Shear Modulus (GPa) = 11.30480 24.51715 17.91097
#
# Velocity S-wave (km/s) = 2.55166 3.75774 3.21182
# Velocity P-wave (km/s) = 5.56718 7.04610 6.34984
#
# Compressibility (1/GPa) = 0.02581323
#
# Stress axis : x y z
#
# Youngs Moduli (GPa) = 48.44399 123.50096 91.50294
#
# Poissons Ratio (x) = -0.01726 0.28615
# Poissons Ratio (y) = -0.00677 0.36051
# Poissons Ratio (z) = 0.15150 0.48658
#
# Static dielectric constant tensor:
#      x y z
#    x 1.611780 0.000000 0.000000 
#    y 0.000000 1.652450 0.000000 
#    z 0.000000 0.000000 1.580320 
# 
# From -- ./inp_files/22100.got.cif
#   From: 2010.05.17/outbox.cif.g08.bks.cpg/sg74_12_cif.got.tgz:22100.got - 2010.06.03 17:57:02.
