data_PCOD9535217
_publ_section_title
;
Structure prediction by ZEFSAII (Michael W. Deem and Ramdas Pophale) SiO2 
 PCOD9535217
Probable space group: I M M A
;
_chemical_formula_sum "Si O2"
_cell_formula_units_Z 80
_cell_length_a 14.292385
_cell_length_b 29.948208
_cell_length_c 6.655462
_cell_angle_alpha 90.000000
_cell_angle_beta 90.000000
_cell_angle_gamma 90.000000
_cell_volume 2848.746177
_symmetry_space_group_name_H-M "I M M A"
_symmetry_group_IT_number 74
_symmetry_cell_setting 'orthorhombic'
loop_
_space_group_symop_operation_xyz
x,y,z
-x,1/2-y,z
x,-y,-z
-x,1/2+y,-z
-x,-y,-z
x,1/2+y,-z
-x,y,z
x,1/2-y,z
1/2+x,1/2+y,1/2+z
1/2-x,-y,1/2+z
1/2+x,1/2-y,1/2-z
1/2-x,y,1/2-z
1/2-x,1/2-y,1/2-z
1/2+x,y,1/2-z
1/2-x,1/2+y,1/2+z
1/2+x,-y,1/2+z
loop_
_atom_site_type_symbol
_atom_site_label
_atom_site_fract_x
_atom_site_fract_y
_atom_site_fract_z
Si Si1 0.819007 0.201024 0.463265
Si Si2 0.358076 0.985023 0.771311
Si Si3 0.611028 0.180965 0.591790
Si Si4 0.607270 0.889749 0.871630
Si Si5 0.610349 0.582634 0.301860
O O1 0.846709 0.250000 0.386100
O O2 0.707511 0.201842 0.507149
O O3 0.875645 0.192931 0.671614
O O4 0.844933 0.157583 0.333153
O O5 0.250000 0.975927 0.750000
O O6 0.398023 0.935333 0.742376
O O7 0.370234 0.031212 0.648829
O O8 0.386153 0.000000 0.000000
O O9 0.500000 0.190334 0.536836
O O10 0.626744 0.127318 0.572826
O O11 0.500000 0.876933 0.900884
O O12 0.654515 0.906889 0.081726
O O13 0.500000 0.582409 0.269918
#
# Coordination Sequence:
#
# PCOD9535217 Si02
#       5
#    16  16  16  16  16
#     4  10  19  28  45  72 102 138 187 236 275 328
#     4  10  20  31  53  80 107 144 182 226 278 331
#     4   9  17  27  43  70 109 145 174 222 285 344
#     4   9  18  32  49  71 101 137 184 232 268 316
#     4   8  15  27  46  71  99 137 179 217 263 327
#
# _framework density 28.082528
#
# number of rings (size 3 to 8) (size 9 to 14) (size 15 to 20)
#    0.000    2.800    0.000    3.600    8.400    5.200 
#    0.000    0.000    0.000    5.400    0.000    0.000 
#    0.000    0.000    0.000    0.000    0.000    0.000 
#
# Total GULP energy -223370.860951 kJ/mol
# GULP energy per Si atom -5584.271524 kJ/mol
# Density = 2.801861 g / cm^3
# Si number density = 28.082528 Si / 1000 Ang^3
#
#
#
# Elastic Constant Matrix: (Units=GPa)
#
#
# Indices 1 2 3 4 5 6 
#
# 1 163.3264 79.5866 6.3404 -0.0125 0.0167 -0.0371
# 2 79.5866 292.6868 55.4933 -0.0132 -0.0026 0.0133
# 3 6.3404 55.4933 69.4461 -0.1149 0.0904 -0.0997
# 4 -0.0125 -0.0132 -0.1149 28.7718 0.0292 -0.0215
# 5 0.0167 -0.0026 0.0904 0.0292 17.9299 0.0735
# 6 -0.0371 0.0133 -0.0997 -0.0215 0.0735 106.1535
#
#
#
# Elastic Compliance Matrix: (Units=1/GPa)
#
#
# Indices 1 2 3 4 5 6 
#
# 1 0.007123 -0.002137 0.001058 0.000006 -0.000012 0.000004
# 2 -0.002137 0.004668 -0.003535 -0.000013 0.000021 -0.000005
# 3 0.001058 -0.003535 0.017128 0.000067 -0.000088 0.000017
# 4 0.000006 -0.000013 0.000067 0.034757 -0.000057 0.000007
# 5 -0.000012 0.000021 -0.000088 -0.000057 0.055773 -0.000039
# 6 0.000004 -0.000005 0.000017 0.000007 -0.000039 0.009420
#
#
# Mechanical properties :
#
#
# Convention : Reuss Voigt Hill
#
# Bulk Modulus (GPa) = 50.78785 89.81110 70.29947
# Shear Modulus (GPa) = 34.56313 56.17364 45.36839
#
# Velocity S-wave (km/s) = 3.51204 4.47733 4.02374
# Velocity P-wave (km/s) = 5.87966 7.66676 6.83189
#
# Compressibility (1/GPa) = 0.01968975
#
# Stress axis : x y z
#
# Youngs Moduli (GPa) = 140.38622 214.22050 58.38329
#
# Poissons Ratio (x) = 0.45789 -0.06175
# Poissons Ratio (y) = 0.30007 0.20639
# Poissons Ratio (z) = -0.14849 0.75729
#
# Static dielectric constant tensor:
#      x y z
#    x 2.031220 0.000010 0.000010 
#    y 0.000010 2.263140 -0.000030 
#    z 0.000010 -0.000030 2.428320 
# 
# From -- ./inp_files/20790.got.cif
#   From: 2010.05.17/outbox.cif.g08.bks.cpg/sg74_11_cif.got.tgz:20790.got - 2010.06.03 17:57:02.
