data_PCOD9535021
_publ_section_title
;
Structure prediction by ZEFSAII (Michael W. Deem and Ramdas Pophale) SiO2 
 PCOD9535021
Probable space group: I M M A
;
_chemical_formula_sum "Si O2"
_cell_formula_units_Z 72
_cell_length_a 7.662037
_cell_length_b 15.051171
_cell_length_c 30.585718
_cell_angle_alpha 90.000000
_cell_angle_beta 90.000000
_cell_angle_gamma 90.000000
_cell_volume 3527.225413
_symmetry_space_group_name_H-M "I M M A"
_symmetry_group_IT_number 74
_symmetry_cell_setting 'orthorhombic'
loop_
_space_group_symop_operation_xyz
x,y,z
-x,1/2-y,z
x,-y,-z
-x,1/2+y,-z
-x,-y,-z
x,1/2+y,-z
-x,y,z
x,1/2-y,z
1/2+x,1/2+y,1/2+z
1/2-x,-y,1/2+z
1/2+x,1/2-y,1/2-z
1/2-x,y,1/2-z
1/2-x,1/2-y,1/2-z
1/2+x,y,1/2-z
1/2-x,1/2+y,1/2+z
1/2+x,-y,1/2+z
loop_
_atom_site_type_symbol
_atom_site_label
_atom_site_fract_x
_atom_site_fract_y
_atom_site_fract_z
Si Si1 0.799059 0.250000 0.480439
Si Si2 0.710018 0.055580 0.198810
Si Si3 0.213681 0.442590 0.458141
Si Si4 0.198467 0.250000 0.920848
Si Si5 0.711060 0.935281 0.122251
Si Si6 0.209291 0.750000 0.698201
O O1 0.721792 0.157812 0.463432
O O2 0.801708 0.250000 0.533397
O O3 0.000000 0.250000 0.465286
O O4 0.500000 0.058141 0.195014
O O5 0.750000 0.044853 0.250000
O O6 0.774603 0.153329 0.182899
O O7 0.772503 0.975347 0.168365
O O8 0.267871 0.500000 0.500000
O O9 0.266130 0.494356 0.414779
O O10 0.000000 0.440474 0.458679
O O11 0.231461 0.337855 0.892436
O O12 0.000000 0.250000 0.935644
O O13 0.500000 0.932710 0.122539
O O14 0.250000 0.750000 0.750000
O O15 0.000000 0.750000 0.691835
#
# Coordination Sequence:
#
# PCOD9535021 Si02
#       6
#     8  16  16   8  16   8
#     4  10  18  33  56  79 108 141 175 217 260 309
#     4   9  18  32  54  80 110 143 175 215 261 311
#     4   9  16  28  52  81 103 131 171 214 254 300
#     4  12  24  36  52  76 103 139 179 219 267 322
#     4  10  20  36  56  78 104 138 180 220 263 311
#     4   8  14  27  47  75 105 134 165 198 247 305
#
# _framework density 20.412644
#
# number of rings (size 3 to 8) (size 9 to 14) (size 15 to 20)
#    0.000    2.444    2.222    1.000    0.000    1.778 
#    0.000    7.222    0.000    0.000    0.000    3.111 
#    0.000    0.000    0.000    0.000    0.000    0.000 
#
# Total GULP energy -200807.364066 kJ/mol
# GULP energy per Si atom -5577.982335 kJ/mol
# Density = 2.036618 g / cm^3
# Si number density = 20.412644 Si / 1000 Ang^3
#
#
#
# Elastic Constant Matrix: (Units=GPa)
#
#
# Indices 1 2 3 4 5 6 
#
# 1 41.4487 4.2987 -3.2246 0.0000 0.0000 0.0000
# 2 4.2987 211.0691 73.4178 0.0000 0.0000 0.0000
# 3 -3.2246 73.4178 85.2558 0.0000 0.0000 0.0000
# 4 0.0000 0.0000 0.0000 29.1345 0.0000 0.0000
# 5 0.0000 0.0000 0.0000 0.0000 5.2037 0.0000
# 6 0.0000 0.0000 0.0000 0.0000 0.0000 -19.6610
#
#
#
# Elastic Compliance Matrix: (Units=1/GPa)
#
#
# Indices 1 2 3 4 5 6 
#
# 1 0.024397 -0.001168 0.001928 0.000000 0.000000 0.000000
# 2 -0.001168 0.006820 -0.005917 0.000000 0.000000 0.000000
# 3 0.001928 -0.005917 0.016898 0.000000 0.000000 0.000000
# 4 0.000000 0.000000 0.000000 0.034324 0.000000 0.000000
# 5 0.000000 0.000000 0.000000 0.000000 0.192173 0.000000
# 6 0.000000 0.000000 0.000000 0.000000 0.000000 -0.050862
#
#
# Mechanical properties :
#
#
# Convention : Reuss Voigt Hill
#
# Bulk Modulus (GPa) = 26.45352 54.08416 40.26884
# Shear Modulus (GPa) = 20.27064 20.48755 20.37909
#
# Velocity S-wave (km/s) = 3.15468 3.17151 3.16311
# Velocity P-wave (km/s) = 5.12414 6.32173 5.75418
#
# Compressibility (1/GPa) = 0.03780215
#
# Stress axis : x y z
#
# Youngs Moduli (GPa) = 40.98809 146.63408 59.17965
#
# Poissons Ratio (x) = 0.17121 -0.11411
# Poissons Ratio (y) = 0.04786 0.35016
# Poissons Ratio (z) = -0.07903 0.86762
#
# Static dielectric constant tensor:
#      x y z
#    x 1.769010 0.000000 0.000000 
#    y 0.000000 1.736700 0.000000 
#    z 0.000000 0.000000 1.699220 
# 
# From -- ./inp_files/70027.got.cif
#   From: 2010.05.17/outbox.cif.g08.bks.cpg/sg74_36_cif.got.tgz:70027.got - 2010.06.03 17:57:02.
