data_PCOD9535959
_publ_section_title
;
Structure prediction by ZEFSAII (Michael W. Deem and Ramdas Pophale) SiO2 
 PCOD9535959
Probable space group: I M M A
;
_chemical_formula_sum "Si O2"
_cell_formula_units_Z 104
_cell_length_a 9.108275
_cell_length_b 24.560934
_cell_length_c 25.807084
_cell_angle_alpha 90.000000
_cell_angle_beta 90.000000
_cell_angle_gamma 90.000000
_cell_volume 5773.244467
_symmetry_space_group_name_H-M "I M M A"
_symmetry_group_IT_number 74
_symmetry_cell_setting 'orthorhombic'
loop_
_space_group_symop_operation_xyz
x,y,z
-x,1/2-y,z
x,-y,-z
-x,1/2+y,-z
-x,-y,-z
x,1/2+y,-z
-x,y,z
x,1/2-y,z
1/2+x,1/2+y,1/2+z
1/2-x,-y,1/2+z
1/2+x,1/2-y,1/2-z
1/2-x,y,1/2-z
1/2-x,1/2-y,1/2-z
1/2+x,y,1/2-z
1/2-x,1/2+y,1/2+z
1/2+x,-y,1/2+z
loop_
_atom_site_type_symbol
_atom_site_label
_atom_site_fract_x
_atom_site_fract_y
_atom_site_fract_z
Si Si1 0.250000 0.108681 0.750000
Si Si2 0.832659 0.687370 0.342491
Si Si3 0.322821 0.387593 0.579211
Si Si4 0.177994 0.414521 0.128267
Si Si5 0.676619 0.188285 0.305721
Si Si6 0.168010 0.472184 0.837861
Si Si7 0.676112 0.437719 0.017697
O O1 0.176063 0.149217 0.708522
O O2 0.168886 0.065955 0.787606
O O3 0.797967 0.750000 0.329301
O O4 0.726563 0.664328 0.387031
O O5 0.000000 0.684748 0.361738
O O6 0.500000 0.388534 0.574598
O O7 0.263984 0.437493 0.615411
O O8 0.247048 0.396919 0.524325
O O9 0.224562 0.358145 0.154420
O O10 0.222892 0.466180 0.164621
O O11 0.251110 0.425985 0.073095
O O12 0.000000 0.411961 0.122868
O O13 0.500000 0.184696 0.299994
O O14 0.712127 0.250000 0.322696
O O15 0.750000 0.179392 0.250000
O O16 0.000000 0.478274 0.853441
O O17 0.500000 0.431854 0.019663
O O18 0.709437 0.500000 0.000000
#
# Coordination Sequence:
#
# PCOD9535959 Si02
#       7
#     8  16  16  16  16  16  16
#     4  10  19  32  52  80 111 150 186 232 274 334
#     4  10  21  37  56  79 112 152 193 238 284 329
#     4  10  20  36  58  80 107 144 186 232 281 338
#     4  10  20  35  55  80 112 148 187 226 271 330
#     4   9  19  36  58  82 111 147 184 224 269 322
#     4   9  18  31  48  75 107 142 181 225 274 325
#     4  11  22  36  56  84 114 144 181 227 282 343
#
# _framework density 18.014133999999999
#
# number of rings (size 3 to 8) (size 9 to 14) (size 15 to 20)
#    0.000    2.154    1.538    1.615    1.077    2.154 
#    0.000    1.538    0.000    2.769    0.000    0.000 
#    0.000    0.000    0.000    0.000    0.000    0.000 
#
# Total GULP energy -289507.714924 kJ/mol
# GULP energy per Si atom -5567.456056 kJ/mol
# Density = 1.797313 g / cm^3
# Si number density = 18.014134 Si / 1000 Ang^3
#
#
#
# Elastic Constant Matrix: (Units=GPa)
#
#
# Indices 1 2 3 4 5 6 
#
# 1 45.2851 40.7275 29.4827 0.0000 0.0000 0.0000
# 2 40.7275 145.4967 80.9142 0.0000 0.0000 0.0000
# 3 29.4827 80.9142 92.8147 0.0000 0.0000 0.0000
# 4 0.0000 0.0000 0.0000 27.9143 0.0000 0.0000
# 5 0.0000 0.0000 0.0000 0.0000 26.9390 0.0000
# 6 0.0000 0.0000 0.0000 0.0000 0.0000 20.8480
#
#
#
# Elastic Compliance Matrix: (Units=1/GPa)
#
#
# Indices 1 2 3 4 5 6 
#
# 1 0.030388 -0.006091 -0.004343 0.000000 0.000000 0.000000
# 2 -0.006091 0.014562 -0.010760 0.000000 0.000000 0.000000
# 3 -0.004343 -0.010760 0.021534 0.000000 0.000000 0.000000
# 4 0.000000 0.000000 0.000000 0.035824 0.000000 0.000000
# 5 0.000000 0.000000 0.000000 0.000000 0.037121 0.000000
# 6 0.000000 0.000000 0.000000 0.000000 0.000000 0.047966
#
#
# Mechanical properties :
#
#
# Convention : Reuss Voigt Hill
#
# Bulk Modulus (GPa) = 41.50028 65.09391 53.29710
# Shear Modulus (GPa) = 21.02485 23.97174 22.49829
#
# Velocity S-wave (km/s) = 3.42004 3.65186 3.53785
# Velocity P-wave (km/s) = 6.21958 7.34811 6.80727
#
# Compressibility (1/GPa) = 0.02409622
#
# Stress axis : x y z
#
# Youngs Moduli (GPa) = 32.90809 68.67223 46.43839
#
# Poissons Ratio (x) = 0.41829 0.20166
# Poissons Ratio (y) = 0.20045 0.49968
# Poissons Ratio (z) = 0.14290 0.73891
#
# Static dielectric constant tensor:
#      x y z
#    x 1.619660 0.000000 0.000000 
#    y 0.000000 1.659010 0.000000 
#    z 0.000000 0.000000 1.597840 
# 
# From -- ./inp_files/57583.got.cif
#   From: 2010.05.17/outbox.cif.g08.bks.cpg/sg74_29_cif.got.tgz:57583.got - 2010.06.03 17:57:02.
