data_PCOD9535392
_publ_section_title
;
Structure prediction by ZEFSAII (Michael W. Deem and Ramdas Pophale) SiO2 
 PCOD9535392
Probable space group: I M M A
;
_chemical_formula_sum "Si O2"
_cell_formula_units_Z 84
_cell_length_a 28.919286
_cell_length_b 7.301481
_cell_length_c 18.909428
_cell_angle_alpha 90.000000
_cell_angle_beta 90.000000
_cell_angle_gamma 90.000000
_cell_volume 3992.794123
_symmetry_space_group_name_H-M "I M M A"
_symmetry_group_IT_number 74
_symmetry_cell_setting 'orthorhombic'
loop_
_space_group_symop_operation_xyz
x,y,z
-x,1/2-y,z
x,-y,-z
-x,1/2+y,-z
-x,-y,-z
x,1/2+y,-z
-x,y,z
x,1/2-y,z
1/2+x,1/2+y,1/2+z
1/2-x,-y,1/2+z
1/2+x,1/2-y,1/2-z
1/2-x,y,1/2-z
1/2-x,1/2-y,1/2-z
1/2+x,y,1/2-z
1/2-x,1/2+y,1/2+z
1/2+x,-y,1/2+z
loop_
_atom_site_type_symbol
_atom_site_label
_atom_site_fract_x
_atom_site_fract_y
_atom_site_fract_z
Si Si1 0.449447 0.472493 0.280960
Si Si2 0.073575 0.027637 0.380511
Si Si3 0.674604 0.027218 0.153323
Si Si4 0.230638 0.468308 0.083267
Si Si5 0.151096 0.526752 0.813386
Si Si6 0.000000 0.500000 0.500000
O O1 0.500000 0.534086 0.306009
O O2 0.449563 0.250000 0.283256
O O3 0.443056 0.521849 0.198347
O O4 0.402367 0.532510 0.319270
O O5 0.070239 0.250000 0.384826
O O6 0.127172 0.972843 0.385533
O O7 0.040163 0.959518 0.440805
O O8 0.674768 0.250000 0.152940
O O9 0.721295 0.962349 0.116477
O O10 0.669800 0.973689 0.235593
O O11 0.231440 0.250000 0.094049
O O12 0.186153 0.536455 0.126413
O O13 0.228011 0.500000 0.000000
O O14 0.150496 0.750000 0.813962
#
# Coordination Sequence:
#
# PCOD9535392 Si02
#       6
#    16  16  16  16  16   4
#     4   8  12  22  39  58  82 104 131 179 223 248
#     4   9  17  26  35  55  83 111 143 176 210 246
#     4   8  15  28  45  61  82 112 149 188 216 247
#     4  10  19  30  46  68  93 116 142 180 227 269
#     4   8  14  25  44  66  83 108 146 183 217 254
#     4  12  18  20  36  54  84 120 136 156 204 270
#
# _framework density 21.037897999999998
#
# number of rings (size 3 to 8) (size 9 to 14) (size 15 to 20)
#    0.000    3.238    0.952    3.143    1.333    2.286 
#    0.000    0.000    0.000    2.857    0.000    8.000 
#    0.000    0.000    0.000    0.000    0.000    0.000 
#
# Total GULP energy -233883.166980 kJ/mol
# GULP energy per Si atom -5568.646833 kJ/mol
# Density = 2.099001 g / cm^3
# Si number density = 21.037898 Si / 1000 Ang^3
#
#
#
# Elastic Constant Matrix: (Units=GPa)
#
#
# Indices 1 2 3 4 5 6 
#
# 1 271.2688 9.6702 116.6266 0.0000 0.0000 0.0000
# 2 9.6702 83.7444 -0.0755 0.0000 0.0000 0.0000
# 3 116.6266 -0.0755 96.1754 0.0000 0.0000 0.0000
# 4 0.0000 0.0000 0.0000 75.3663 0.0000 0.0000
# 5 0.0000 0.0000 0.0000 0.0000 33.4836 0.0000
# 6 0.0000 0.0000 0.0000 0.0000 0.0000 -5.9012
#
#
#
# Elastic Compliance Matrix: (Units=1/GPa)
#
#
# Indices 1 2 3 4 5 6 
#
# 1 0.007770 -0.000906 -0.009423 0.000000 0.000000 0.000000
# 2 -0.000906 0.012047 0.001108 0.000000 0.000000 0.000000
# 3 -0.009423 0.001108 0.021825 0.000000 0.000000 0.000000
# 4 0.000000 0.000000 0.000000 0.013269 0.000000 0.000000
# 5 0.000000 0.000000 0.000000 0.000000 0.029865 0.000000
# 6 0.000000 0.000000 0.000000 0.000000 0.000000 -0.169458
#
#
# Mechanical properties :
#
#
# Convention : Reuss Voigt Hill
#
# Bulk Modulus (GPa) = 43.10330 78.18123 60.64227
# Shear Modulus (GPa) = -85.45843 42.25423 -21.60210
#
# Velocity S-wave (km/s) = -6.38039 4.48647 -3.20788
# Velocity P-wave (km/s) = 5.80915 8.00504 3.89451
#
# Compressibility (1/GPa) = 0.02320008
#
# Stress axis : x y z
#
# Youngs Moduli (GPa) = 128.70425 83.01048 45.81927
#
# Poissons Ratio (x) = 0.07518 0.43174
# Poissons Ratio (y) = 0.11657 -0.05076
# Poissons Ratio (z) = 1.21274 -0.09195
#
# Static dielectric constant tensor:
#      x y z
#    x 1.770700 0.000000 0.000000 
#    y 0.000000 1.864590 0.000000 
#    z 0.000000 0.000000 1.681710 
# 
# From -- ./inp_files/37725.got.cif
#   From: 2010.05.17/outbox.cif.g08.bks.cpg/sg74_19_cif.got.tgz:37725.got - 2010.06.03 17:57:02.
