data_PCOD9535164
_publ_section_title
;
Structure prediction by ZEFSAII (Michael W. Deem and Ramdas Pophale) SiO2 
 PCOD9535164
Probable space group: I M M A
;
_chemical_formula_sum "Si O2"
_cell_formula_units_Z 52
_cell_length_a 13.123892
_cell_length_b 14.863436
_cell_length_c 9.840537
_cell_angle_alpha 90.000000
_cell_angle_beta 90.000000
_cell_angle_gamma 90.000000
_cell_volume 1919.555458
_symmetry_space_group_name_H-M "I M M A"
_symmetry_group_IT_number 74
_symmetry_cell_setting 'orthorhombic'
loop_
_space_group_symop_operation_xyz
x,y,z
-x,1/2-y,z
x,-y,-z
-x,1/2+y,-z
-x,-y,-z
x,1/2+y,-z
-x,y,z
x,1/2-y,z
1/2+x,1/2+y,1/2+z
1/2-x,-y,1/2+z
1/2+x,1/2-y,1/2-z
1/2-x,y,1/2-z
1/2-x,1/2-y,1/2-z
1/2+x,y,1/2-z
1/2-x,1/2+y,1/2+z
1/2+x,-y,1/2+z
loop_
_atom_site_type_symbol
_atom_site_label
_atom_site_fract_x
_atom_site_fract_y
_atom_site_fract_z
Si Si1 0.828367 0.621202 0.101745
Si Si2 0.881587 0.577212 0.809704
Si Si3 0.000000 0.250000 0.796362
Si Si4 0.883562 0.109051 0.489899
O O1 0.831541 0.517967 0.151782
O O2 0.909852 0.673616 0.189028
O O3 0.870204 0.632076 0.947696
O O4 0.709040 0.643684 0.082406
O O5 0.852132 0.623759 0.668264
O O6 0.000000 0.555957 0.788680
O O7 0.000000 0.142510 0.515045
O O8 0.886425 0.000000 0.500000
#
# Coordination Sequence:
#
# PCOD9535164 Si02
#       4
#    16  16   4  16
#     4  11  20  36  61  94 121 159 208 266 308 365
#     4  10  18  36  62  90 118 154 222 263 303 349
#     4  12  24  38  60  98 130 166 206 256 316 376
#     4  10  21  35  61  96 120 157 206 268 318 361
#
# _framework density 27.089606
#
# number of rings (size 3 to 8) (size 9 to 14) (size 15 to 20)
#    0.000    1.538    6.154    1.846    0.000    0.000 
#    0.000    3.846    0.000    3.692    0.000    0.000 
#    0.000    0.000    0.000    0.000    0.000    0.000 
#
# Total GULP energy -145035.064922 kJ/mol
# GULP energy per Si atom -5578.271728 kJ/mol
# Density = 2.702795 g / cm^3
# Si number density = 27.089606 Si / 1000 Ang^3
#
#
#
# Elastic Constant Matrix: (Units=GPa)
#
#
# Indices 1 2 3 4 5 6 
#
# 1 260.0263 29.9148 92.0763 0.0000 0.0000 0.0000
# 2 29.9148 62.4078 -2.7117 0.0000 0.0000 0.0000
# 3 92.0763 -2.7117 141.4897 0.0000 0.0000 0.0000
# 4 0.0000 0.0000 0.0000 115.5586 0.0000 0.0000
# 5 0.0000 0.0000 0.0000 0.0000 59.2779 0.0000
# 6 0.0000 0.0000 0.0000 0.0000 0.0000 789.6216
#
#
#
# Elastic Compliance Matrix: (Units=1/GPa)
#
#
# Indices 1 2 3 4 5 6 
#
# 1 0.005434 -0.002761 -0.003589 0.000000 0.000000 0.000000
# 2 -0.002761 0.017440 0.002131 0.000000 0.000000 0.000000
# 3 -0.003589 0.002131 0.009444 0.000000 0.000000 0.000000
# 4 0.000000 0.000000 0.000000 0.008654 0.000000 0.000000
# 5 0.000000 0.000000 0.000000 0.000000 0.016870 0.000000
# 6 0.000000 0.000000 0.000000 0.000000 0.000000 0.001266
#
#
# Mechanical properties :
#
#
# Convention : Reuss Voigt Hill
#
# Bulk Modulus (GPa) = 41.87673 78.05363 59.96518
# Shear Modulus (GPa) = 66.21909 215.86791 141.04350
#
# Velocity S-wave (km/s) = 4.94950 8.93642 7.22347
# Velocity P-wave (km/s) = 6.93942 11.63422 9.57890
#
# Compressibility (1/GPa) = 0.02387961
#
# Stress axis : x y z
#
# Youngs Moduli (GPa) = 184.01188 57.34059 105.88315
#
# Poissons Ratio (x) = 0.15831 0.38006
# Poissons Ratio (y) = 0.50804 -0.22563
# Poissons Ratio (z) = 0.66050 -0.12219
#
# Static dielectric constant tensor:
#      x y z
#    x 2.085490 0.000000 0.000000 
#    y 0.000000 2.092830 0.000000 
#    z 0.000000 0.000000 2.228410 
# 
# From -- ./inp_files/19728.got.cif
#   From: 2010.05.17/outbox.cif.g08.bks.cpg/sg74_10_cif.got.tgz:19728.got - 2010.06.03 17:57:02.
