data_PCOD9535295
_publ_section_title
;
Structure prediction by ZEFSAII (Michael W. Deem and Ramdas Pophale) SiO2 
 PCOD9535295
Probable space group: I M M A
;
_chemical_formula_sum "Si O2"
_cell_formula_units_Z 112
_cell_length_a 15.007387
_cell_length_b 14.941724
_cell_length_c 29.690217
_cell_angle_alpha 90.000000
_cell_angle_beta 90.000000
_cell_angle_gamma 90.000000
_cell_volume 6657.622462
_symmetry_space_group_name_H-M "I M M A"
_symmetry_group_IT_number 74
_symmetry_cell_setting 'orthorhombic'
loop_
_space_group_symop_operation_xyz
x,y,z
-x,1/2-y,z
x,-y,-z
-x,1/2+y,-z
-x,-y,-z
x,1/2+y,-z
-x,y,z
x,1/2-y,z
1/2+x,1/2+y,1/2+z
1/2-x,-y,1/2+z
1/2+x,1/2-y,1/2-z
1/2-x,y,1/2-z
1/2-x,1/2-y,1/2-z
1/2+x,y,1/2-z
1/2-x,1/2+y,1/2+z
1/2+x,-y,1/2+z
loop_
_atom_site_type_symbol
_atom_site_label
_atom_site_fract_x
_atom_site_fract_y
_atom_site_fract_z
Si Si1 0.393829 0.353377 0.626637
Si Si2 0.394888 0.645257 0.851371
Si Si3 0.604265 0.647546 0.683973
Si Si4 0.101282 0.507685 0.946237
Si Si5 0.275446 0.350949 0.405283
Si Si6 0.102827 0.035188 0.265972
Si Si7 0.847817 0.648816 0.228444
O O1 0.500000 0.357341 0.635598
O O2 0.371231 0.250000 0.615349
O O3 0.377628 0.420875 0.585111
O O4 0.349121 0.375387 0.675056
O O5 0.500000 0.631901 0.861547
O O6 0.384693 0.750000 0.836734
O O7 0.327084 0.632483 0.892485
O O8 0.364250 0.576689 0.812486
O O9 0.500000 0.624851 0.673369
O O10 0.604641 0.750000 0.700600
O O11 0.665754 0.643344 0.640381
O O12 0.642457 0.583403 0.722356
O O13 0.177646 0.578783 0.936791
O O14 0.000000 0.535842 0.932499
O O15 0.098229 0.500000 0.000000
O O16 0.283648 0.250000 0.422719
O O17 0.000000 0.064525 0.265536
O O18 0.106526 0.929877 0.256842
O O19 0.885918 0.750000 0.231427
O O20 0.750000 0.652058 0.250000
#
# Coordination Sequence:
#
# PCOD9535295 Si02
#       7
#    16  16  16  16  16  16  16
#     4   9  18  34  53  70  95 136 177 209 250 306
#     4   9  19  34  49  70 100 132 169 209 250 302
#     4   9  17  28  43  69 102 132 163 197 240 299
#     4  10  21  35  53  80 109 134 164 206 257 314
#     4  10  20  32  50  73  99 133 167 203 251 304
#     4  10  19  29  45  66  92 132 170 207 252 293
#     4  10  21  32  44  67  96 128 172 219 255 293
#
# _framework density 16.822823
#
# number of rings (size 3 to 8) (size 9 to 14) (size 15 to 20)
#    0.000    2.429    0.000    2.143    4.000    6.286 
#    0.000    3.571    0.000    0.429    0.000    0.000 
#    0.000    0.000    0.000    0.000    0.000    0.000 
#
# Total GULP energy -311849.281186 kJ/mol
# GULP energy per Si atom -5568.737164 kJ/mol
# Density = 1.678453 g / cm^3
# Si number density = 16.822823 Si / 1000 Ang^3
#
#
#
# Elastic Constant Matrix: (Units=GPa)
#
#
# Indices 1 2 3 4 5 6 
#
# 1 66.6023 33.0568 30.7129 0.0000 0.0000 0.0000
# 2 33.0568 70.7443 52.7616 0.0000 0.0000 0.0000
# 3 30.7129 52.7616 71.8539 0.0000 0.0000 0.0000
# 4 0.0000 0.0000 0.0000 8.4890 0.0000 0.0000
# 5 0.0000 0.0000 0.0000 0.0000 13.8603 0.0000
# 6 0.0000 0.0000 0.0000 0.0000 0.0000 19.1980
#
#
#
# Elastic Compliance Matrix: (Units=1/GPa)
#
#
# Indices 1 2 3 4 5 6 
#
# 1 0.019989 -0.006562 -0.003726 0.000000 0.000000 0.000000
# 2 -0.006562 0.033402 -0.021722 0.000000 0.000000 0.000000
# 3 -0.003726 -0.021722 0.031460 0.000000 0.000000 0.000000
# 4 0.000000 0.000000 0.000000 0.117799 0.000000 0.000000
# 5 0.000000 0.000000 0.000000 0.000000 0.072149 0.000000
# 6 0.000000 0.000000 0.000000 0.000000 0.000000 0.052089
#
#
# Mechanical properties :
#
#
# Convention : Reuss Voigt Hill
#
# Bulk Modulus (GPa) = 48.00302 49.14034 48.57168
# Shear Modulus (GPa) = 12.56751 14.48741 13.52746
#
# Velocity S-wave (km/s) = 2.73619 2.93776 2.83877
# Velocity P-wave (km/s) = 6.21118 6.38602 6.29920
#
# Compressibility (1/GPa) = 0.02083202
#
# Stress axis : x y z
#
# Youngs Moduli (GPa) = 50.02636 29.93842 31.78632
#
# Poissons Ratio (x) = 0.19644 0.11844
# Poissons Ratio (y) = 0.32825 0.69046
# Poissons Ratio (z) = 0.18640 0.65032
#
# Static dielectric constant tensor:
#      x y z
#    x 1.596830 0.000000 0.000000 
#    y 0.000000 1.612890 0.000000 
#    z 0.000000 0.000000 1.563460 
# 
# From -- ./inp_files/60118.got.cif
#   From: 2010.05.17/outbox.cif.g08.bks.cpg/sg74_31_cif.got.tgz:60118.got - 2010.06.03 17:57:02.
