data_PCOD9535894
_publ_section_title
;
Structure prediction by ZEFSAII (Michael W. Deem and Ramdas Pophale) SiO2 
 PCOD9535894
Probable space group: I M M A
;
_chemical_formula_sum "Si O2"
_cell_formula_units_Z 112
_cell_length_a 15.425822
_cell_length_b 14.221266
_cell_length_c 25.642412
_cell_angle_alpha 90.000000
_cell_angle_beta 90.000000
_cell_angle_gamma 90.000000
_cell_volume 5625.296900
_symmetry_space_group_name_H-M "I M M A"
_symmetry_group_IT_number 74
_symmetry_cell_setting 'orthorhombic'
loop_
_space_group_symop_operation_xyz
x,y,z
-x,1/2-y,z
x,-y,-z
-x,1/2+y,-z
-x,-y,-z
x,1/2+y,-z
-x,y,z
x,1/2-y,z
1/2+x,1/2+y,1/2+z
1/2-x,-y,1/2+z
1/2+x,1/2-y,1/2-z
1/2-x,y,1/2-z
1/2-x,1/2-y,1/2-z
1/2+x,y,1/2-z
1/2-x,1/2+y,1/2+z
1/2+x,-y,1/2+z
loop_
_atom_site_type_symbol
_atom_site_label
_atom_site_fract_x
_atom_site_fract_y
_atom_site_fract_z
Si Si1 0.761608 0.858760 0.045387
Si Si2 0.598590 0.635947 0.539478
Si Si3 0.400070 0.149010 0.247055
Si Si4 0.405875 0.648233 0.365077
Si Si5 0.101267 0.136210 0.611033
Si Si6 0.802453 0.973496 0.300704
Si Si7 0.135739 0.050305 0.151447
O O1 0.743782 0.750000 0.031744
O O2 0.827097 0.858554 0.094753
O O3 0.669310 0.897520 0.065852
O O4 0.823177 0.893902 0.998799
O O5 0.500000 0.616580 0.520472
O O6 0.603905 0.750000 0.546302
O O7 0.611461 0.581926 0.593829
O O8 0.500000 0.150991 0.232260
O O9 0.359986 0.250000 0.233454
O O10 0.392694 0.130296 0.308704
O O11 0.357303 0.058967 0.221973
O O12 0.500000 0.650626 0.392227
O O13 0.397378 0.750000 0.337470
O O14 0.405126 0.551326 0.333917
O O15 0.104832 0.250000 0.611786
O O16 0.140661 0.097676 0.665440
O O17 0.000000 0.108835 0.604199
O O18 0.750000 0.933577 0.250000
O O19 0.735771 0.026077 0.339458
#
# Coordination Sequence:
#
# PCOD9535894 Si02
#       7
#    16  16  16  16  16  16  16
#     4   9  18  34  55  81 113 149 188 229 281 340
#     4  10  20  34  55  85 121 155 188 233 286 343
#     4  10  21  38  59  82 112 150 193 240 288 339
#     4  10  19  32  51  76 113 155 189 225 273 332
#     4  10  20  38  64  87 111 149 195 242 288 338
#     4  10  22  37  57  83 115 151 188 238 290 346
#     4  11  21  34  55  85 118 150 193 235 279 340
#
# _framework density 19.910060000000001
#
# number of rings (size 3 to 8) (size 9 to 14) (size 15 to 20)
#    0.000    2.000    1.429    2.571    0.000    6.857 
#    0.000    3.571    0.000   10.286    0.000    2.000 
#    0.000    0.000    0.000    0.000    0.000    0.000 
#
# Total GULP energy -311900.080485 kJ/mol
# GULP energy per Si atom -5569.644294 kJ/mol
# Density = 1.986474 g / cm^3
# Si number density = 19.910060 Si / 1000 Ang^3
#
#
#
# Elastic Constant Matrix: (Units=GPa)
#
#
# Indices 1 2 3 4 5 6 
#
# 1 153.4236 22.2261 48.3427 0.0000 0.0000 0.0000
# 2 22.2261 74.1894 24.6216 0.0000 0.0000 0.0000
# 3 48.3427 24.6216 65.6960 0.0000 0.0000 0.0000
# 4 0.0000 0.0000 0.0000 17.2384 0.0000 0.0000
# 5 0.0000 0.0000 0.0000 0.0000 15.9678 0.0000
# 6 0.0000 0.0000 0.0000 0.0000 0.0000 17.9896
#
#
#
# Elastic Compliance Matrix: (Units=1/GPa)
#
#
# Indices 1 2 3 4 5 6 
#
# 1 0.008504 -0.000538 -0.006056 0.000000 0.000000 0.000000
# 2 -0.000538 0.015428 -0.005386 0.000000 0.000000 0.000000
# 3 -0.006056 -0.005386 0.021697 0.000000 0.000000 0.000000
# 4 0.000000 0.000000 0.000000 0.058010 0.000000 0.000000
# 5 0.000000 0.000000 0.000000 0.000000 0.062626 0.000000
# 6 0.000000 0.000000 0.000000 0.000000 0.000000 0.055588
#
#
# Mechanical properties :
#
#
# Convention : Reuss Voigt Hill
#
# Bulk Modulus (GPa) = 46.15097 53.74332 49.94714
# Shear Modulus (GPa) = 19.76007 23.44706 21.60356
#
# Velocity S-wave (km/s) = 3.15376 3.43541 3.29759
# Velocity P-wave (km/s) = 6.04083 6.54123 6.29601
#
# Compressibility (1/GPa) = 0.02166802
#
# Stress axis : x y z
#
# Youngs Moduli (GPa) = 117.59060 64.81844 46.08974
#
# Poissons Ratio (x) = 0.03486 0.27913
# Poissons Ratio (y) = 0.06324 0.24825
# Poissons Ratio (z) = 0.71215 0.34913
#
# Static dielectric constant tensor:
#      x y z
#    x 1.764980 0.000000 0.000000 
#    y 0.000000 1.746250 0.000000 
#    z 0.000000 0.000000 1.712090 
# 
# From -- ./inp_files/60138.got.cif
#   From: 2010.05.17/outbox.cif.g08.bks.cpg/sg74_31_cif.got.tgz:60138.got - 2010.06.03 17:57:02.
