data_PCOD9535500
_publ_section_title
;
Structure prediction by ZEFSAII (Michael W. Deem and Ramdas Pophale) SiO2 
 PCOD9535500
Probable space group: I M M A
;
_chemical_formula_sum "Si O2"
_cell_formula_units_Z 112
_cell_length_a 18.409010
_cell_length_b 26.987927
_cell_length_c 12.749607
_cell_angle_alpha 90.000000
_cell_angle_beta 90.000000
_cell_angle_gamma 90.000000
_cell_volume 6334.272729
_symmetry_space_group_name_H-M "I M M A"
_symmetry_group_IT_number 74
_symmetry_cell_setting 'orthorhombic'
loop_
_space_group_symop_operation_xyz
x,y,z
-x,1/2-y,z
x,-y,-z
-x,1/2+y,-z
-x,-y,-z
x,1/2+y,-z
-x,y,z
x,1/2-y,z
1/2+x,1/2+y,1/2+z
1/2-x,-y,1/2+z
1/2+x,1/2-y,1/2-z
1/2-x,y,1/2-z
1/2-x,1/2-y,1/2-z
1/2+x,y,1/2-z
1/2-x,1/2+y,1/2+z
1/2+x,-y,1/2+z
loop_
_atom_site_type_symbol
_atom_site_label
_atom_site_fract_x
_atom_site_fract_y
_atom_site_fract_z
Si Si1 0.857606 0.991999 0.833055
Si Si2 0.911642 0.193280 0.283642
Si Si3 0.085188 0.403625 0.881665
Si Si4 0.179717 0.630175 0.313784
Si Si5 0.306085 0.980711 0.111769
Si Si6 0.584983 0.190266 0.977474
Si Si7 0.912312 0.883982 0.890805
O O1 0.888978 0.938663 0.856852
O O2 0.899977 0.037407 0.886473
O O3 0.774345 0.997110 0.870781
O O4 0.855464 0.001238 0.708097
O O5 0.887148 0.250000 0.267659
O O6 0.893939 0.177034 0.402446
O O7 0.885734 0.156527 0.192736
O O8 0.000000 0.194036 0.280280
O O9 0.124574 0.384302 0.778793
O O10 0.000000 0.394878 0.872999
O O11 0.112666 0.378266 0.988833
O O12 0.250000 0.649249 0.250000
O O13 0.200180 0.578705 0.373470
O O14 0.139299 0.665847 0.394775
O O15 0.332895 0.000000 0.000000
O O16 0.500000 0.175508 0.960166
O O17 0.587269 0.250000 0.970778
O O18 0.000000 0.881759 0.891693
#
# Coordination Sequence:
#
# PCOD9535500 Si02
#       7
#    16  16  16  16  16  16  16
#     4  10  19  32  49  74 103 142 182 223 258 324
#     4   8  16  33  54  79 109 137 174 225 275 320
#     4  10  19  33  51  76 110 143 174 220 269 317
#     4  11  21  36  54  79 109 144 180 223 271 323
#     4  10  20  34  49  72 106 144 183 219 267 318
#     4   9  19  37  61  83 105 140 183 227 274 324
#     4  10  19  30  52  80 104 139 181 218 269 326
#
# _framework density 17.681587
#
# number of rings (size 3 to 8) (size 9 to 14) (size 15 to 20)
#    0.000    2.286    2.857    3.000    2.000    1.429 
#    0.000    0.714    0.000    5.143    0.000    4.000 
#    0.000    0.000    0.000    0.000    0.000    0.000 
#
# Total GULP energy -312203.650577 kJ/mol
# GULP energy per Si atom -5575.065189 kJ/mol
# Density = 1.764134 g / cm^3
# Si number density = 17.681587 Si / 1000 Ang^3
#
#
#
# Elastic Constant Matrix: (Units=GPa)
#
#
# Indices 1 2 3 4 5 6 
#
# 1 31.4089 17.1582 35.3936 0.0000 0.0000 0.0000
# 2 17.1582 64.0761 64.9404 0.0000 0.0000 0.0000
# 3 35.3936 64.9404 151.2350 0.0001 0.0000 -0.0001
# 4 0.0000 0.0000 0.0001 35.0767 0.0000 0.0000
# 5 0.0000 0.0000 0.0000 0.0000 7.9723 0.0000
# 6 0.0000 0.0000 -0.0001 0.0000 0.0000 -72.5631
#
#
#
# Elastic Compliance Matrix: (Units=1/GPa)
#
#
# Indices 1 2 3 4 5 6 
#
# 1 0.043441 -0.002353 -0.009156 0.000000 0.000000 0.000000
# 2 -0.002353 0.027759 -0.011369 0.000000 0.000000 0.000000
# 3 -0.009156 -0.011369 0.013637 0.000000 0.000000 0.000000
# 4 0.000000 0.000000 0.000000 0.028509 0.000000 0.000000
# 5 0.000000 0.000000 0.000000 0.000000 0.125434 0.000000
# 6 0.000000 0.000000 0.000000 0.000000 0.000000 -0.013781
#
#
# Mechanical properties :
#
#
# Convention : Reuss Voigt Hill
#
# Bulk Modulus (GPa) = 25.58796 53.52270 39.55533
# Shear Modulus (GPa) = 17.61910 2.71235 10.16573
#
# Velocity S-wave (km/s) = 3.16011 1.23989 2.40038
# Velocity P-wave (km/s) = 5.27428 5.69085 5.48652
#
# Compressibility (1/GPa) = 0.03908088
#
# Stress axis : x y z
#
# Youngs Moduli (GPa) = 23.01949 36.02454 73.33011
#
# Poissons Ratio (x) = 0.08476 0.67143
# Poissons Ratio (y) = 0.05416 0.83369
# Poissons Ratio (z) = 0.21077 0.40956
#
# Static dielectric constant tensor:
#      x y z
#    x 1.603100 0.000000 0.000000 
#    y 0.000000 1.586560 0.000000 
#    z 0.000000 0.000000 1.635330 
# 
# From -- ./inp_files/24152.got.cif
#   From: 2010.05.17/outbox.cif.g08.bks.cpg/sg74_13_cif.got.tgz:24152.got - 2010.06.03 17:57:02.
