data_PCOD9535994
_publ_section_title
;
Structure prediction by ZEFSAII (Michael W. Deem and Ramdas Pophale) SiO2 
 PCOD9535994
Probable space group: I M M A
;
_chemical_formula_sum "Si O2"
_cell_formula_units_Z 88
_cell_length_a 8.694072
_cell_length_b 20.176321
_cell_length_c 25.231075
_cell_angle_alpha 90.000000
_cell_angle_beta 90.000000
_cell_angle_gamma 90.000000
_cell_volume 4425.893566
_symmetry_space_group_name_H-M "I M M A"
_symmetry_group_IT_number 74
_symmetry_cell_setting 'orthorhombic'
loop_
_space_group_symop_operation_xyz
x,y,z
-x,1/2-y,z
x,-y,-z
-x,1/2+y,-z
-x,-y,-z
x,1/2+y,-z
-x,y,z
x,1/2-y,z
1/2+x,1/2+y,1/2+z
1/2-x,-y,1/2+z
1/2+x,1/2-y,1/2-z
1/2-x,y,1/2-z
1/2-x,1/2-y,1/2-z
1/2+x,y,1/2-z
1/2-x,1/2+y,1/2+z
1/2+x,-y,1/2+z
loop_
_atom_site_type_symbol
_atom_site_label
_atom_site_fract_x
_atom_site_fract_y
_atom_site_fract_z
Si Si1 0.816485 0.985969 0.194067
Si Si2 0.314340 0.076792 0.995886
Si Si3 0.185048 0.122547 0.619135
Si Si4 0.316442 0.357912 0.305302
Si Si5 0.686978 0.250000 0.810561
Si Si6 0.314263 0.322201 0.421211
O O1 0.750000 0.961550 0.250000
O O2 0.740463 0.943481 0.148348
O O3 0.000000 0.978732 0.193112
O O4 0.779010 0.063780 0.190010
O O5 0.500000 0.076351 0.996000
O O6 0.254874 0.118589 0.045260
O O7 0.263114 0.114045 0.941800
O O8 0.263180 0.000000 0.000000
O O9 0.235674 0.185581 0.654632
O O10 0.000000 0.125141 0.618488
O O11 0.500000 0.351211 0.302418
O O12 0.250000 0.332852 0.250000
O O13 0.263804 0.325853 0.359970
O O14 0.500000 0.250000 0.807135
O O15 0.750000 0.250000 0.750000
O O16 0.500000 0.327642 0.421721
O O17 0.271436 0.250000 0.443378
#
# Coordination Sequence:
#
# PCOD9535994 Si02
#       6
#    16  16  16  16   8  16
#     4  10  19  32  53  80 109 143 183 229 283 336
#     4  10  22  39  61  88 115 148 194 244 293 350
#     4  10  21  36  55  78 109 145 185 233 285 340
#     4   9  19  35  55  81 113 147 184 230 281 334
#     4  10  22  38  54  76 108 148 185 228 283 338
#     4  10  22  39  58  83 117 153 190 235 286 342
#
# _framework density 19.882989999999999
#
# number of rings (size 3 to 8) (size 9 to 14) (size 15 to 20)
#    0.000    2.182    0.000    2.182    1.273    5.455 
#    0.000    0.000    0.000    0.000    0.000    0.000 
#    0.000    0.000    0.000    0.000    0.000    0.000 
#
# Total GULP energy -245602.097108 kJ/mol
# GULP energy per Si atom -5581.865843 kJ/mol
# Density = 1.983774 g / cm^3
# Si number density = 19.882990 Si / 1000 Ang^3
#
#
#
# Elastic Constant Matrix: (Units=GPa)
#
#
# Indices 1 2 3 4 5 6 
#
# 1 -12.4732 24.8865 17.2585 0.0000 0.0000 0.0000
# 2 24.8865 113.8104 73.2782 0.0000 0.0000 0.0000
# 3 17.2585 73.2782 148.7228 0.0000 0.0000 0.0000
# 4 0.0000 0.0000 0.0000 41.2515 0.0000 0.0000
# 5 0.0000 0.0000 0.0000 0.0000 29.8090 0.0000
# 6 0.0000 0.0000 0.0000 0.0000 0.0000 3.8053
#
#
#
# Elastic Compliance Matrix: (Units=1/GPa)
#
#
# Indices 1 2 3 4 5 6 
#
# 1 -0.055772 0.011759 0.000678 0.000000 0.000000 0.000000
# 2 0.011759 0.010390 -0.006484 0.000000 0.000000 0.000000
# 3 0.000678 -0.006484 0.009840 0.000000 0.000000 0.000000
# 4 0.000000 0.000000 0.000000 0.024242 0.000000 0.000000
# 5 0.000000 0.000000 0.000000 0.000000 0.033547 0.000000
# 6 0.000000 0.000000 0.000000 0.000000 0.000000 0.262790
#
#
# Mechanical properties :
#
#
# Convention : Reuss Voigt Hill
#
# Bulk Modulus (GPa) = -42.30863 53.43406 5.56272
# Shear Modulus (GPa) = 18.85003 23.94893 21.39948
#
# Velocity S-wave (km/s) = 3.08238 3.47435 3.28422
# Velocity P-wave (km/s) = 2.94226 6.55953 4.14551
#
# Compressibility (1/GPa) = -0.02363584
#
# Stress axis : x y z
#
# Youngs Moduli (GPa) = -17.93006 96.24624 101.62691
#
# Poissons Ratio (x) = -1.13174 -0.06894
# Poissons Ratio (y) = 0.21084 0.65894
# Poissons Ratio (z) = 0.01216 0.62405
#
# Static dielectric constant tensor:
#      x y z
#    x 1.673000 0.000000 0.000000 
#    y 0.000000 1.698120 0.000000 
#    z 0.000000 0.000000 1.695460 
# 
# From -- ./inp_files/56949.got.cif
#   From: 2010.05.17/outbox.cif.g08.bks.cpg/sg74_29_cif.got.tgz:56949.got - 2010.06.03 17:57:02.
