data_PCOD9535504
_publ_section_title
;
Structure prediction by ZEFSAII (Michael W. Deem and Ramdas Pophale) SiO2 
 PCOD9535504
Probable space group: I M M A
;
_chemical_formula_sum "Si O2"
_cell_formula_units_Z 48
_cell_length_a 23.419132
_cell_length_b 5.680688
_cell_length_c 15.209938
_cell_angle_alpha 90.000000
_cell_angle_beta 90.000000
_cell_angle_gamma 90.000000
_cell_volume 2023.481208
_symmetry_space_group_name_H-M "I M M A"
_symmetry_group_IT_number 74
_symmetry_cell_setting 'orthorhombic'
loop_
_space_group_symop_operation_xyz
x,y,z
-x,1/2-y,z
x,-y,-z
-x,1/2+y,-z
-x,-y,-z
x,1/2+y,-z
-x,y,z
x,1/2-y,z
1/2+x,1/2+y,1/2+z
1/2-x,-y,1/2+z
1/2+x,1/2-y,1/2-z
1/2-x,y,1/2-z
1/2-x,1/2-y,1/2-z
1/2+x,y,1/2-z
1/2-x,1/2+y,1/2+z
1/2+x,-y,1/2+z
loop_
_atom_site_type_symbol
_atom_site_label
_atom_site_fract_x
_atom_site_fract_y
_atom_site_fract_z
Si Si1 0.000000 0.750000 0.716073
Si Si2 0.170103 0.750000 0.163469
Si Si3 0.432469 0.250000 0.546431
Si Si4 0.377788 0.750000 0.856604
Si Si5 0.500000 0.250000 0.774449
Si Si6 0.628529 0.750000 0.143431
Si Si7 0.803334 0.750000 0.814630
O O1 0.945581 0.750000 0.653171
O O2 0.000000 0.507616 0.770073
O O3 0.104511 0.750000 0.134097
O O4 0.168259 0.750000 0.269214
O O5 0.195873 0.498921 0.135025
O O6 0.500000 0.250000 0.556538
O O7 0.417625 0.500000 0.500000
O O8 0.359703 0.503462 0.898047
O O9 0.356991 0.750000 0.753687
O O10 0.560540 0.250000 0.828965
O O11 0.750000 0.750000 0.750000
#
# Coordination Sequence:
#
# PCOD9535504 Si02
#       7
#     4   8   8   8   4   8   8
#     4   8  12  20  30  44  66  87 122 156 198 243
#     4  10  19  31  47  65  83 119 155 189 251 294
#     4  10  21  36  51  70  97 126 161 214 271 311
#     4   8  14  23  33  50  71  99 124 168 215 244
#     4   8  12  18  28  44  64  87 108 156 198 233
#     4   8  14  21  33  50  70  89 127 160 206 258
#     4  10  19  31  44  64  89 115 152 198 241 287
#
# _framework density 23.721496999999999
#
# number of rings (size 3 to 8) (size 9 to 14) (size 15 to 20)
#    0.000    3.000    0.000    1.500    1.167    0.000 
#    3.000    0.000    0.000    0.000    0.000    0.000 
#    0.000    0.000    0.000    0.000    0.000    0.000 
#
# Total GULP energy -133636.686331 kJ/mol
# GULP energy per Si atom -5568.195264 kJ/mol
# Density = 2.366751 g / cm^3
# Si number density = 23.721497 Si / 1000 Ang^3
#
#
#
# Elastic Constant Matrix: (Units=GPa)
#
#
# Indices 1 2 3 4 5 6 
#
# 1 42.3694 8.0820 -11.7608 0.0000 0.0000 0.0000
# 2 8.0820 358.6593 23.4476 0.0000 0.0000 0.0000
# 3 -11.7608 23.4476 36.0117 0.0000 0.0000 0.0000
# 4 0.0000 0.0000 0.0000 96.5745 0.0000 0.0000
# 5 0.0000 0.0000 0.0000 0.0000 47.9107 0.0000
# 6 0.0000 0.0000 0.0000 0.0000 0.0000 17.5415
#
#
#
# Elastic Compliance Matrix: (Units=1/GPa)
#
#
# Indices 1 2 3 4 5 6 
#
# 1 0.026450 -0.001212 0.009428 0.000000 0.000000 0.000000
# 2 -0.001212 0.002968 -0.002328 0.000000 0.000000 0.000000
# 3 0.009428 -0.002328 0.032364 0.000000 0.000000 0.000000
# 4 0.000000 0.000000 0.000000 0.010355 0.000000 0.000000
# 5 0.000000 0.000000 0.000000 0.000000 0.020872 0.000000
# 6 0.000000 0.000000 0.000000 0.000000 0.000000 0.057008
#
#
# Mechanical properties :
#
#
# Convention : Reuss Voigt Hill
#
# Bulk Modulus (GPa) = 13.59523 52.95311 33.27417
# Shear Modulus (GPa) = 30.72001 60.22346 45.47173
#
# Velocity S-wave (km/s) = 3.60255 5.04409 4.38299
# Velocity P-wave (km/s) = 4.80085 7.50300 6.29854
#
# Compressibility (1/GPa) = 0.07355521
#
# Stress axis : x y z
#
# Youngs Moduli (GPa) = 37.80711 336.96241 30.89893
#
# Poissons Ratio (x) = 0.40852 -0.29130
# Poissons Ratio (y) = 0.04584 0.07194
# Poissons Ratio (z) = -0.35643 0.78453
#
# Static dielectric constant tensor:
#      x y z
#    x 1.907310 0.000000 0.000000 
#    y 0.000000 1.971800 0.000000 
#    z 0.000000 0.000000 1.845580 
# 
# From -- ./inp_files/45714.got.cif
#   From: 2010.05.17/outbox.cif.g08.bks.cpg/sg74_23_cif.got.tgz:45714.got - 2010.06.03 17:57:02.
