data_PCOD9535501
_publ_section_title
;
Structure prediction by ZEFSAII (Michael W. Deem and Ramdas Pophale) SiO2 
 PCOD9535501
Probable space group: I M M A
;
_chemical_formula_sum "Si O2"
_cell_formula_units_Z 80
_cell_length_a 15.277018
_cell_length_b 23.241753
_cell_length_c 12.372240
_cell_angle_alpha 90.000000
_cell_angle_beta 90.000000
_cell_angle_gamma 90.000000
_cell_volume 4392.945423
_symmetry_space_group_name_H-M "I M M A"
_symmetry_group_IT_number 74
_symmetry_cell_setting 'orthorhombic'
loop_
_space_group_symop_operation_xyz
x,y,z
-x,1/2-y,z
x,-y,-z
-x,1/2+y,-z
-x,-y,-z
x,1/2+y,-z
-x,y,z
x,1/2-y,z
1/2+x,1/2+y,1/2+z
1/2-x,-y,1/2+z
1/2+x,1/2-y,1/2-z
1/2-x,y,1/2-z
1/2-x,1/2-y,1/2-z
1/2+x,y,1/2-z
1/2-x,1/2+y,1/2+z
1/2+x,-y,1/2+z
loop_
_atom_site_type_symbol
_atom_site_label
_atom_site_fract_x
_atom_site_fract_y
_atom_site_fract_z
Si Si1 0.600698 0.318407 0.136002
Si Si2 0.339067 0.000000 0.000000
Si Si3 0.750000 0.893936 0.250000
Si Si4 0.755015 0.375440 0.513648
Si Si5 0.600461 0.488794 0.761255
Si Si6 0.896879 0.608602 0.852322
O O1 0.500000 0.332311 0.104288
O O2 0.607978 0.250000 0.148185
O O3 0.670072 0.341577 0.050352
O O4 0.617128 0.349738 0.249937
O O5 0.281929 0.942723 0.011299
O O6 0.392466 0.994859 0.888347
O O7 0.752449 0.858871 0.360911
O O8 0.666063 0.936290 0.257382
O O9 0.664153 0.371797 0.449846
O O10 0.500000 0.474273 0.736279
O O11 0.626291 0.544366 0.690090
O O12 0.000000 0.608911 0.879123
#
# Coordination Sequence:
#
# PCOD9535501 Si02
#       6
#    16   8   8  16  16  16
#     4  10  22  39  61  88 110 135 182 239 291 338
#     4  10  19  30  53  84 114 148 191 222 269 340
#     4  10  24  36  49  82 113 154 196 224 256 340
#     4  11  21  36  56  78 116 151 186 229 277 323
#     4  10  19  32  50  77 114 151 183 226 276 325
#     4  10  20  34  55  82 111 145 183 227 282 336
#
# _framework density 18.211016000000001
#
# number of rings (size 3 to 8) (size 9 to 14) (size 15 to 20)
#    0.000    1.800    2.000    3.300    0.000    5.600 
#    0.000    3.000    0.000    0.000    0.000    2.800 
#    0.000    0.000    0.000    0.000    0.000    0.000 
#
# Total GULP energy -223387.679325 kJ/mol
# GULP energy per Si atom -5584.691983 kJ/mol
# Density = 1.816957 g / cm^3
# Si number density = 18.211016 Si / 1000 Ang^3
#
#
#
# Elastic Constant Matrix: (Units=GPa)
#
#
# Indices 1 2 3 4 5 6 
#
# 1 84.1531 21.0526 74.3359 0.0000 0.0000 0.0000
# 2 21.0526 30.3660 22.2973 -0.0001 0.0000 0.0000
# 3 74.3359 22.2973 113.5050 -0.0002 0.0000 0.0000
# 4 0.0000 -0.0001 -0.0002 12.2038 0.0000 0.0000
# 5 0.0000 0.0000 0.0000 0.0000 -6.5750 0.0000
# 6 0.0000 0.0000 0.0000 0.0000 0.0000 11.9466
#
#
#
# Elastic Compliance Matrix: (Units=1/GPa)
#
#
# Indices 1 2 3 4 5 6 
#
# 1 0.029526 -0.007328 -0.017897 0.000000 0.000000 0.000000
# 2 -0.007328 0.040301 -0.003117 0.000000 0.000000 0.000000
# 3 -0.017897 -0.003117 0.021144 0.000000 0.000000 0.000000
# 4 0.000000 0.000000 0.000000 0.081942 0.000000 0.000000
# 5 0.000000 0.000000 0.000000 0.000000 -0.152092 0.000000
# 6 0.000000 0.000000 0.000000 0.000000 0.000000 0.083706
#
#
# Mechanical properties :
#
#
# Convention : Reuss Voigt Hill
#
# Bulk Modulus (GPa) = 29.16753 51.48840 40.32796
# Shear Modulus (GPa) = 28.96184 10.87098 19.91641
#
# Velocity S-wave (km/s) = 3.99224 2.44590 3.31062
# Velocity P-wave (km/s) = 6.10752 6.02587 6.06684
#
# Compressibility (1/GPa) = 0.03428470
#
# Stress axis : x y z
#
# Youngs Moduli (GPa) = 33.86873 24.81304 47.29549
#
# Poissons Ratio (x) = 0.18184 0.84646
# Poissons Ratio (y) = 0.24821 0.14744
# Poissons Ratio (z) = 0.60615 0.07735
#
# Static dielectric constant tensor:
#      x y z
#    x 1.627260 0.000000 0.000000 
#    y 0.000000 1.597300 0.000000 
#    z 0.000000 0.000000 1.652190 
# 
# From -- ./inp_files/20537.got.cif
#   From: 2010.05.17/outbox.cif.g08.bks.cpg/sg74_11_cif.got.tgz:20537.got - 2010.06.03 17:57:02.
