data_PCOD9535079
_publ_section_title
;
Structure prediction by ZEFSAII (Michael W. Deem and Ramdas Pophale) SiO2 
 PCOD9535079
Probable space group: I M M A
;
_chemical_formula_sum "Si O2"
_cell_formula_units_Z 104
_cell_length_a 19.859906
_cell_length_b 13.885007
_cell_length_c 18.212369
_cell_angle_alpha 90.000000
_cell_angle_beta 90.000000
_cell_angle_gamma 90.000000
_cell_volume 5022.150608
_symmetry_space_group_name_H-M "I M M A"
_symmetry_group_IT_number 74
_symmetry_cell_setting 'orthorhombic'
loop_
_space_group_symop_operation_xyz
x,y,z
-x,1/2-y,z
x,-y,-z
-x,1/2+y,-z
-x,-y,-z
x,1/2+y,-z
-x,y,z
x,1/2-y,z
1/2+x,1/2+y,1/2+z
1/2-x,-y,1/2+z
1/2+x,1/2-y,1/2-z
1/2-x,y,1/2-z
1/2-x,1/2-y,1/2-z
1/2+x,y,1/2-z
1/2-x,1/2+y,1/2+z
1/2+x,-y,1/2+z
loop_
_atom_site_type_symbol
_atom_site_label
_atom_site_fract_x
_atom_site_fract_y
_atom_site_fract_z
Si Si1 0.778075 0.140131 0.121975
Si Si2 0.500000 0.366178 0.546799
Si Si3 0.137067 0.500000 0.500000
Si Si4 0.000000 0.134023 0.119960
Si Si5 0.384708 0.139063 0.122964
Si Si6 0.375138 0.362645 0.651168
Si Si7 0.616092 0.449066 0.279117
Si Si8 0.255740 0.364599 0.539639
O O1 0.801777 0.250000 0.130386
O O2 0.697257 0.139188 0.124450
O O3 0.812068 0.082293 0.187275
O O4 0.792835 0.109350 0.037748
O O5 0.500000 0.250000 0.540439
O O6 0.500000 0.401200 0.463757
O O7 0.433771 0.388704 0.593374
O O8 0.097266 0.432625 0.443353
O O9 0.188419 0.427982 0.543118
O O10 0.935554 0.093881 0.161938
O O11 0.000000 0.250000 0.122248
O O12 0.406721 0.250000 0.113887
O O13 0.403137 0.095883 0.201561
O O14 0.380846 0.250000 0.670158
O O15 0.383921 0.435543 0.718170
O O16 0.305101 0.377779 0.607950
O O17 0.240068 0.250000 0.533435
#
# Coordination Sequence:
#
# PCOD9535079 Si02
#       8
#    16   8   8   8  16  16  16  16
#     4   9  17  30  50  75 104 139 174 209 253 307
#     4   9  19  35  51  70 103 145 185 215 234 272
#     4  10  18  34  56  74  94 126 166 206 266 328
#     4  11  23  35  52  81 111 140 174 214 257 295
#     4  10  21  36  55  79 104 130 164 209 260 316
#     4  10  20  33  47  68 102 143 184 217 243 282
#     4  12  22  33  51  75 106 140 172 211 261 308
#     4   9  17  29  47  73 104 137 176 218 252 292
#
# _framework density 20.708259999999999
#
# number of rings (size 3 to 8) (size 9 to 14) (size 15 to 20)
#    0.000    2.000    0.000    6.462    0.000    6.154 
#    0.000    1.538    0.000    4.154    0.000    0.000 
#    0.000    0.000    0.000    0.000    0.000    0.000 
#
# Total GULP energy -290470.069286 kJ/mol
# GULP energy per Si atom -5585.962871 kJ/mol
# Density = 2.066113 g / cm^3
# Si number density = 20.708260 Si / 1000 Ang^3
#
#
#
# Elastic Constant Matrix: (Units=GPa)
#
#
# Indices 1 2 3 4 5 6 
#
# 1 12.3861 1.0848 -3.5908 0.0000 0.0000 0.0000
# 2 1.0848 145.1354 72.0051 0.0000 0.0000 0.0000
# 3 -3.5908 72.0051 91.0249 0.0000 0.0000 0.0000
# 4 0.0000 0.0000 0.0000 34.3562 0.0000 0.0000
# 5 0.0000 0.0000 0.0000 0.0000 8.2032 0.0000
# 6 0.0000 0.0000 0.0000 0.0000 0.0000 11.6623
#
#
#
# Elastic Compliance Matrix: (Units=1/GPa)
#
#
# Indices 1 2 3 4 5 6 
#
# 1 0.082852 -0.003688 0.006186 0.000000 0.000000 0.000000
# 2 -0.003688 0.011505 -0.009247 0.000000 0.000000 0.000000
# 3 0.006186 -0.009247 0.018545 0.000000 0.000000 0.000000
# 4 0.000000 0.000000 0.000000 0.029107 0.000000 0.000000
# 5 0.000000 0.000000 0.000000 0.000000 0.121904 0.000000
# 6 0.000000 0.000000 0.000000 0.000000 0.000000 0.085747
#
#
# Mechanical properties :
#
#
# Convention : Reuss Voigt Hill
#
# Bulk Modulus (GPa) = 10.05997 43.06051 26.56024
# Shear Modulus (GPa) = 12.61696 22.78080 17.69888
#
# Velocity S-wave (km/s) = 2.47102 3.32035 2.92666
# Velocity P-wave (km/s) = 3.60690 5.96143 4.92689
#
# Compressibility (1/GPa) = 0.09940384
#
# Stress axis : x y z
#
# Youngs Moduli (GPa) = 12.06972 86.91746 53.92411
#
# Poissons Ratio (x) = 0.32057 -0.33357
# Poissons Ratio (y) = 0.04452 0.49862
# Poissons Ratio (z) = -0.07466 0.80369
#
# Static dielectric constant tensor:
#      x y z
#    x 1.842310 0.000000 0.000000 
#    y 0.000000 1.791910 0.000000 
#    z 0.000000 0.000000 1.741510 
# 
# From -- ./inp_files/45333.got.cif
#   From: 2010.05.17/outbox.cif.g08.bks.cpg/sg74_23_cif.got.tgz:45333.got - 2010.06.03 17:57:02.
