data_PCOD9535598
_publ_section_title
;
Structure prediction by ZEFSAII (Michael W. Deem and Ramdas Pophale) SiO2 
 PCOD9535598
Probable space group: I M M A
;
_chemical_formula_sum "Si O2"
_cell_formula_units_Z 72
_cell_length_a 9.331670
_cell_length_b 33.232313
_cell_length_c 13.327672
_cell_angle_alpha 90.000000
_cell_angle_beta 90.000000
_cell_angle_gamma 90.000000
_cell_volume 4133.084057
_symmetry_space_group_name_H-M "I M M A"
_symmetry_group_IT_number 74
_symmetry_cell_setting 'orthorhombic'
loop_
_space_group_symop_operation_xyz
x,y,z
-x,1/2-y,z
x,-y,-z
-x,1/2+y,-z
-x,-y,-z
x,1/2+y,-z
-x,y,z
x,1/2-y,z
1/2+x,1/2+y,1/2+z
1/2-x,-y,1/2+z
1/2+x,1/2-y,1/2-z
1/2-x,y,1/2-z
1/2-x,1/2-y,1/2-z
1/2+x,y,1/2-z
1/2-x,1/2+y,1/2+z
1/2+x,-y,1/2+z
loop_
_atom_site_type_symbol
_atom_site_label
_atom_site_fract_x
_atom_site_fract_y
_atom_site_fract_z
Si Si1 0.839236 0.402964 0.162570
Si Si2 0.829482 0.335827 0.448127
Si Si3 0.328287 0.250000 0.141918
Si Si4 0.171784 0.387103 0.646469
Si Si5 0.664338 0.543669 0.463637
O O1 0.750000 0.423677 0.250000
O O2 0.756451 0.362911 0.130490
O O3 0.000000 0.394191 0.195888
O O4 0.843495 0.430264 0.064699
O O5 0.794146 0.289713 0.423447
O O6 0.797237 0.354201 0.558574
O O7 0.000000 0.341169 0.434184
O O8 0.500000 0.250000 0.160106
O O9 0.250000 0.250000 0.250000
O O10 0.250000 0.376286 0.750000
O O11 0.236669 0.430006 0.609588
O O12 0.000000 0.389625 0.658578
O O13 0.716324 0.500000 0.500000
O O14 0.500000 0.539487 0.424057
#
# Coordination Sequence:
#
# PCOD9535598 Si02
#       5
#    16  16   8  16  16
#     4  10  19  31  49  71  98 130 162 199 244 296
#     4   9  19  35  53  74 101 132 167 206 249 300
#     4  10  20  34  53  78 106 134 165 204 253 306
#     4  10  20  35  55  76 101 136 175 214 257 304
#     4   9  19  35  52  73 101 131 167 211 254 298
#
# _framework density 17.420404999999999
#
# number of rings (size 3 to 8) (size 9 to 14) (size 15 to 20)
#    0.000    2.444    0.000    2.000    0.000    5.778 
#    0.000    2.778    0.000    0.000    0.000    0.000 
#    0.000    0.000    0.000    0.000    0.000    0.000 
#
# Total GULP energy -200614.857461 kJ/mol
# GULP energy per Si atom -5572.634929 kJ/mol
# Density = 1.738076 g / cm^3
# Si number density = 17.420405 Si / 1000 Ang^3
#
#
#
# Elastic Constant Matrix: (Units=GPa)
#
#
# Indices 1 2 3 4 5 6 
#
# 1 68.7385 29.5114 50.6773 0.0001 0.0000 0.0000
# 2 29.5114 113.5800 25.9623 0.0001 0.0000 0.0001
# 3 50.6773 25.9623 91.7581 0.0000 0.0000 0.0001
# 4 0.0001 0.0001 0.0000 9.3272 0.0000 0.0001
# 5 0.0000 0.0000 0.0000 0.0000 32.8663 0.0000
# 6 0.0000 0.0001 0.0001 0.0001 0.0000 14.8877
#
#
#
# Elastic Compliance Matrix: (Units=1/GPa)
#
#
# Indices 1 2 3 4 5 6 
#
# 1 0.025918 -0.003702 -0.013267 0.000000 0.000000 0.000000
# 2 -0.003702 0.009942 -0.000769 0.000000 0.000000 0.000000
# 3 -0.013267 -0.000769 0.018443 0.000000 0.000000 0.000000
# 4 0.000000 0.000000 0.000000 0.107213 0.000000 -0.000001
# 5 0.000000 0.000000 0.000000 0.000000 0.030426 0.000000
# 6 0.000000 0.000000 0.000000 -0.000001 0.000000 0.067170
#
#
# Mechanical properties :
#
#
# Convention : Reuss Voigt Hill
#
# Bulk Modulus (GPa) = 53.11123 54.04208 53.57665
# Shear Modulus (GPa) = 16.61886 22.61127 19.61507
#
# Velocity S-wave (km/s) = 3.09202 3.60665 3.35921
# Velocity P-wave (km/s) = 6.58039 6.95942 6.77256
#
# Compressibility (1/GPa) = 0.01882841
#
# Stress axis : x y z
#
# Youngs Moduli (GPa) = 38.58282 100.58479 54.22118
#
# Poissons Ratio (x) = 0.37234 0.71936
# Poissons Ratio (y) = 0.14282 0.04167
# Poissons Ratio (z) = 0.51188 0.07730
#
# Static dielectric constant tensor:
#      x y z
#    x 1.606600 0.000000 0.000000 
#    y 0.000000 1.593290 0.000000 
#    z 0.000000 0.000000 1.595680 
# 
# From -- ./inp_files/29424.got.cif
#   From: 2010.05.17/outbox.cif.g08.bks.cpg/sg74_15_cif.got.tgz:29424.got - 2010.06.03 17:57:02.
