data_PCOD9535643
_publ_section_title
;
Structure prediction by ZEFSAII (Michael W. Deem and Ramdas Pophale) SiO2 
 PCOD9535643
Probable space group: I M M A
;
_chemical_formula_sum "Si O2"
_cell_formula_units_Z 104
_cell_length_a 7.846994
_cell_length_b 27.923364
_cell_length_c 23.337156
_cell_angle_alpha 90.000000
_cell_angle_beta 90.000000
_cell_angle_gamma 90.000000
_cell_volume 5113.508563
_symmetry_space_group_name_H-M "I M M A"
_symmetry_group_IT_number 74
_symmetry_cell_setting 'orthorhombic'
loop_
_space_group_symop_operation_xyz
x,y,z
-x,1/2-y,z
x,-y,-z
-x,1/2+y,-z
-x,-y,-z
x,1/2+y,-z
-x,y,z
x,1/2-y,z
1/2+x,1/2+y,1/2+z
1/2-x,-y,1/2+z
1/2+x,1/2-y,1/2-z
1/2-x,y,1/2-z
1/2-x,1/2-y,1/2-z
1/2+x,y,1/2-z
1/2-x,1/2+y,1/2+z
1/2+x,-y,1/2+z
loop_
_atom_site_type_symbol
_atom_site_label
_atom_site_fract_x
_atom_site_fract_y
_atom_site_fract_z
Si Si1 0.202422 0.116048 0.579681
Si Si2 0.704395 0.195043 0.499493
Si Si3 0.709395 0.345687 0.378111
Si Si4 0.295706 0.250000 0.315787
Si Si5 0.696351 0.446974 0.023880
Si Si6 0.693528 0.553592 0.650113
Si Si7 0.797879 0.050216 0.814699
O O1 0.251864 0.169308 0.559551
O O2 0.272959 0.083993 0.527491
O O3 0.249702 0.090862 0.639231
O O4 0.000000 0.112777 0.576607
O O5 0.500000 0.196967 0.495035
O O6 0.767064 0.250000 0.495523
O O7 0.762818 0.163174 0.444532
O O8 0.500000 0.348500 0.378151
O O9 0.765958 0.298073 0.345934
O O10 0.771346 0.393168 0.344472
O O11 0.500000 0.250000 0.322678
O O12 0.250000 0.250000 0.250000
O O13 0.500000 0.432316 0.037835
O O14 0.804850 0.448634 0.081146
O O15 0.685790 0.500000 0.000000
O O16 0.500000 0.555285 0.672886
O O17 0.774046 0.503519 0.671438
O O18 0.750000 0.063196 0.750000
O O19 0.000000 0.045590 0.819069
#
# Coordination Sequence:
#
# PCOD9535643 Si02
#       7
#    16  16  16   8  16  16  16
#     4  11  22  36  57  85 117 151 184 230 288 346
#     4  10  19  34  59  88 115 148 188 235 288 343
#     4   9  17  32  54  79 109 147 190 235 283 333
#     4  10  20  36  54  72 102 148 197 240 281 328
#     4  10  19  31  49  78 114 146 175 218 276 328
#     4  10  20  33  54  81 109 145 189 232 277 332
#     4  11  24  40  58  81 111 152 196 238 282 341
#
# _framework density 20.338284999999999
#
# number of rings (size 3 to 8) (size 9 to 14) (size 15 to 20)
#    0.000    1.846    3.846    0.923    0.000    2.462 
#    0.000    1.538    0.000    0.462    0.000    0.000 
#    0.000    0.000    0.000    0.000    0.000    0.000 
#
# Total GULP energy -289863.360630 kJ/mol
# GULP energy per Si atom -5574.295397 kJ/mol
# Density = 2.029199 g / cm^3
# Si number density = 20.338285 Si / 1000 Ang^3
#
#
#
# Elastic Constant Matrix: (Units=GPa)
#
#
# Indices 1 2 3 4 5 6 
#
# 1 29.7729 3.7550 -5.9488 0.0000 0.0000 0.0000
# 2 3.7550 98.0237 40.7657 0.0000 0.0000 0.0000
# 3 -5.9488 40.7657 101.6325 0.0000 0.0000 0.0000
# 4 0.0000 0.0000 0.0000 41.7923 0.0000 0.0000
# 5 0.0000 0.0000 0.0000 0.0000 -70.8790 0.0000
# 6 0.0000 0.0000 0.0000 0.0000 0.0000 12.7473
#
#
#
# Elastic Compliance Matrix: (Units=1/GPa)
#
#
# Indices 1 2 3 4 5 6 
#
# 1 0.034527 -0.002596 0.003062 0.000000 0.000000 0.000000
# 2 -0.002596 0.012439 -0.005141 0.000000 0.000000 0.000000
# 3 0.003062 -0.005141 0.012081 0.000000 0.000000 0.000000
# 4 0.000000 0.000000 0.000000 0.023928 0.000000 0.000000
# 5 0.000000 0.000000 0.000000 0.000000 -0.014109 0.000000
# 6 0.000000 0.000000 0.000000 0.000000 0.000000 0.078448
#
#
# Mechanical properties :
#
#
# Convention : Reuss Voigt Hill
#
# Bulk Modulus (GPa) = 20.12217 34.06365 27.09291
# Shear Modulus (GPa) = 28.86326 9.45592 19.15959
#
# Velocity S-wave (km/s) = 3.77126 2.15857 3.07261
# Velocity P-wave (km/s) = 5.37386 4.79557 5.09293
#
# Compressibility (1/GPa) = 0.04969642
#
# Stress axis : x y z
#
# Youngs Moduli (GPa) = 28.96292 80.39050 82.77524
#
# Poissons Ratio (x) = 0.20871 -0.25348
# Poissons Ratio (y) = 0.07519 0.42559
# Poissons Ratio (z) = -0.08869 0.41333
#
# Static dielectric constant tensor:
#      x y z
#    x 1.753420 0.000000 0.000000 
#    y 0.000000 1.810600 0.000000 
#    z 0.000000 0.000000 0.571210 
# 
# From -- ./inp_files/57608.got.cif
#   From: 2010.05.17/outbox.cif.g08.bks.cpg/sg74_29_cif.got.tgz:57608.got - 2010.06.03 17:57:02.
