data_PCOD9535096
_publ_section_title
;
Structure prediction by ZEFSAII (Michael W. Deem and Ramdas Pophale) SiO2 
 PCOD9535096
Probable space group: I M M A
;
_chemical_formula_sum "Si O2"
_cell_formula_units_Z 96
_cell_length_a 8.544111
_cell_length_b 24.988061
_cell_length_c 23.054965
_cell_angle_alpha 90.000000
_cell_angle_beta 90.000000
_cell_angle_gamma 90.000000
_cell_volume 4922.252707
_symmetry_space_group_name_H-M "I M M A"
_symmetry_group_IT_number 74
_symmetry_cell_setting 'orthorhombic'
loop_
_space_group_symop_operation_xyz
x,y,z
-x,1/2-y,z
x,-y,-z
-x,1/2+y,-z
-x,-y,-z
x,1/2+y,-z
-x,y,z
x,1/2-y,z
1/2+x,1/2+y,1/2+z
1/2-x,-y,1/2+z
1/2+x,1/2-y,1/2-z
1/2-x,y,1/2-z
1/2-x,1/2-y,1/2-z
1/2+x,y,1/2-z
1/2-x,1/2+y,1/2+z
1/2+x,-y,1/2+z
loop_
_atom_site_type_symbol
_atom_site_label
_atom_site_fract_x
_atom_site_fract_y
_atom_site_fract_z
Si Si1 0.809293 0.750000 0.903462
Si Si2 0.190825 0.134287 0.923332
Si Si3 0.687389 0.565985 0.312697
Si Si4 0.817027 0.449933 0.345551
Si Si5 0.318450 0.058491 0.471114
Si Si6 0.313289 0.836846 0.689206
Si Si7 0.308633 0.750000 0.462517
O O1 0.760383 0.698370 0.865935
O O2 0.000000 0.750000 0.905093
O O3 0.757307 0.750000 0.970084
O O4 0.243818 0.103843 0.865383
O O5 0.241407 0.195453 0.931132
O O6 0.000000 0.133389 0.922290
O O7 0.234755 0.100646 0.980537
O O8 0.500000 0.567252 0.312186
O O9 0.750000 0.582746 0.250000
O O10 0.740176 0.505278 0.325249
O O11 0.784451 0.443414 0.413960
O O12 0.743178 0.397527 0.317117
O O13 0.000000 0.452019 0.332617
O O14 0.500000 0.071131 0.454628
O O15 0.318814 0.000000 0.500000
O O16 0.500000 0.835276 0.690442
O O17 0.250000 0.814939 0.750000
O O18 0.500000 0.750000 0.463012
#
# Coordination Sequence:
#
# PCOD9535096 Si02
#       7
#     8  16  16  16  16  16   8
#     4   9  19  35  60  87 113 145 192 241 288 337
#     4   9  18  33  57  85 115 147 186 232 283 339
#     4  11  22  39  58  82 112 150 191 236 287 343
#     4  12  24  37  55  85 119 155 191 237 289 344
#     4  10  18  34  58  84 114 150 189 234 283 338
#     4  11  22  38  58  83 115 155 197 243 285 339
#     4   9  16  31  56  87 113 141 184 233 282 343
#
# _framework density 19.503266
#
# number of rings (size 3 to 8) (size 9 to 14) (size 15 to 20)
#    0.000    1.667    1.667    4.250    0.000    3.000 
#    0.000    1.667    0.000    0.000    0.000    4.083 
#    0.000    0.000    0.000    0.000    0.000    0.000 
#
# Total GULP energy -268251.096566 kJ/mol
# GULP energy per Si atom -5588.564512 kJ/mol
# Density = 1.945888 g / cm^3
# Si number density = 19.503266 Si / 1000 Ang^3
#
#
#
# Elastic Constant Matrix: (Units=GPa)
#
#
# Indices 1 2 3 4 5 6 
#
# 1 42.8805 13.9820 15.0855 0.0000 0.0000 0.0000
# 2 13.9820 133.5047 49.7299 0.0000 0.0000 0.0000
# 3 15.0855 49.7299 110.3010 0.0000 0.0000 0.0000
# 4 0.0000 0.0000 0.0000 20.0472 0.0000 0.0000
# 5 0.0000 0.0000 0.0000 0.0000 30.6210 0.0000
# 6 0.0000 0.0000 0.0000 0.0000 0.0000 -31.3850
#
#
#
# Elastic Compliance Matrix: (Units=1/GPa)
#
#
# Indices 1 2 3 4 5 6 
#
# 1 0.024781 -0.001602 -0.002667 0.000000 0.000000 0.000000
# 2 -0.001602 0.009106 -0.003886 0.000000 0.000000 0.000000
# 3 -0.002667 -0.003886 0.011183 0.000000 0.000000 0.000000
# 4 0.000000 0.000000 0.000000 0.049882 0.000000 0.000000
# 5 0.000000 0.000000 0.000000 0.000000 0.032657 0.000000
# 6 0.000000 0.000000 0.000000 0.000000 0.000000 -0.031862
#
#
# Mechanical properties :
#
#
# Convention : Reuss Voigt Hill
#
# Bulk Modulus (GPa) = 34.77106 49.36456 42.06781
# Shear Modulus (GPa) = 41.10351 17.71591 29.40971
#
# Velocity S-wave (km/s) = 4.59575 3.01716 3.88743
# Velocity P-wave (km/s) = 6.78442 6.12402 6.46266
#
# Compressibility (1/GPa) = 0.02875955
#
# Stress axis : x y z
#
# Youngs Moduli (GPa) = 40.35319 109.82043 89.42125
#
# Poissons Ratio (x) = 0.17592 0.23849
# Poissons Ratio (y) = 0.06464 0.34752
# Poissons Ratio (z) = 0.10762 0.42680
#
# Static dielectric constant tensor:
#      x y z
#    x 1.671780 0.000000 0.000000 
#    y 0.000000 1.676820 0.000000 
#    z 0.000000 0.000000 1.692810 
# 
# From -- ./inp_files/57326.got.cif
#   From: 2010.05.17/outbox.cif.g08.bks.cpg/sg74_29_cif.got.tgz:57326.got - 2010.06.03 17:57:02.
