data_PCOD9535447
_publ_section_title
;
Structure prediction by ZEFSAII (Michael W. Deem and Ramdas Pophale) SiO2 
 PCOD9535447
Probable space group: I M M A
;
_chemical_formula_sum "Si O2"
_cell_formula_units_Z 112
_cell_length_a 14.376246
_cell_length_b 14.481568
_cell_length_c 26.456397
_cell_angle_alpha 90.000000
_cell_angle_beta 90.000000
_cell_angle_gamma 90.000000
_cell_volume 5507.972743
_symmetry_space_group_name_H-M "I M M A"
_symmetry_group_IT_number 74
_symmetry_cell_setting 'orthorhombic'
loop_
_space_group_symop_operation_xyz
x,y,z
-x,1/2-y,z
x,-y,-z
-x,1/2+y,-z
-x,-y,-z
x,1/2+y,-z
-x,y,z
x,1/2-y,z
1/2+x,1/2+y,1/2+z
1/2-x,-y,1/2+z
1/2+x,1/2-y,1/2-z
1/2-x,y,1/2-z
1/2-x,1/2-y,1/2-z
1/2+x,y,1/2-z
1/2-x,1/2+y,1/2+z
1/2+x,-y,1/2+z
loop_
_atom_site_type_symbol
_atom_site_label
_atom_site_fract_x
_atom_site_fract_y
_atom_site_fract_z
Si Si1 0.104427 0.361387 0.464464
Si Si2 0.391398 0.358807 0.618473
Si Si3 0.108381 0.147029 0.249132
Si Si4 0.394857 0.445694 0.147110
Si Si5 0.890387 0.139703 0.085323
Si Si6 0.302677 0.513813 0.671528
Si Si7 0.210434 0.638223 0.017493
O O1 0.111243 0.250000 0.458361
O O2 0.116885 0.405838 0.409173
O O3 0.185283 0.390366 0.502897
O O4 0.000000 0.382766 0.482498
O O5 0.500000 0.371811 0.606653
O O6 0.376009 0.250000 0.626471
O O7 0.361050 0.420818 0.665227
O O8 0.330608 0.392511 0.570682
O O9 0.139795 0.250000 0.235427
O O10 0.110437 0.133138 0.309532
O O11 0.167024 0.069269 0.221114
O O12 0.000000 0.138011 0.233428
O O13 0.500000 0.485239 0.150596
O O14 0.306093 0.506623 0.162327
O O15 0.874902 0.250000 0.091283
O O16 0.834709 0.083700 0.127114
O O17 0.000000 0.122052 0.090453
O O18 0.854757 0.112960 0.029657
O O19 0.209314 0.750000 0.019885
#
# Coordination Sequence:
#
# PCOD9535447 Si02
#       7
#    16  16  16  16  16  16  16
#     4   9  16  29  51  78 110 151 195 231 266 320
#     4  10  22  40  60  81 108 145 190 240 292 340
#     4  10  21  36  57  88 124 158 188 222 272 338
#     4  10  21  36  53  78 115 154 189 225 271 334
#     4  10  19  30  47  75 111 145 177 220 274 333
#     4  12  22  35  56  82 113 148 193 234 279 332
#     4   9  17  32  52  75 107 146 186 229 278 331
#
# _framework density 20.334160000000001
#
# number of rings (size 3 to 8) (size 9 to 14) (size 15 to 20)
#    0.000    2.000    1.429    3.000    0.000    7.429 
#    0.000    2.143    0.000    4.714    0.000    2.000 
#    0.000    0.000    0.000    0.000    0.000    0.000 
#
# Total GULP energy -312800.959346 kJ/mol
# GULP energy per Si atom -5585.731417 kJ/mol
# Density = 2.028788 g / cm^3
# Si number density = 20.334160 Si / 1000 Ang^3
#
#
#
# Elastic Constant Matrix: (Units=GPa)
#
#
# Indices 1 2 3 4 5 6 
#
# 1 133.0556 31.1865 34.3349 0.0000 0.0000 0.0000
# 2 31.1865 59.4191 29.4562 0.0000 0.0000 0.0000
# 3 34.3349 29.4562 59.0039 0.0000 0.0000 0.0000
# 4 0.0000 0.0000 0.0000 8.9862 0.0000 0.0000
# 5 0.0000 0.0000 0.0000 0.0000 26.7315 0.0000
# 6 0.0000 0.0000 0.0000 0.0000 0.0000 14.9024
#
#
#
# Elastic Compliance Matrix: (Units=1/GPa)
#
#
# Indices 1 2 3 4 5 6 
#
# 1 0.009203 -0.002891 -0.003912 0.000000 0.000000 0.000000
# 2 -0.002891 0.023273 -0.009936 0.000000 0.000000 0.000000
# 3 -0.003912 -0.009936 0.024185 0.000000 0.000000 0.000000
# 4 0.000000 0.000000 0.000000 0.111282 0.000000 0.000000
# 5 0.000000 0.000000 0.000000 0.000000 0.037409 0.000000
# 6 0.000000 0.000000 0.000000 0.000000 0.000000 0.067103
#
#
# Mechanical properties :
#
#
# Convention : Reuss Voigt Hill
#
# Bulk Modulus (GPa) = 43.13622 49.04818 46.09220
# Shear Modulus (GPa) = 15.94089 20.55743 18.24916
#
# Velocity S-wave (km/s) = 2.80294 3.18304 2.99902
# Velocity P-wave (km/s) = 5.63339 6.13860 5.89141
#
# Compressibility (1/GPa) = 0.02318237
#
# Stress axis : x y z
#
# Youngs Moduli (GPa) = 108.66372 42.96917 41.34840
#
# Poissons Ratio (x) = 0.12421 0.16175
# Poissons Ratio (y) = 0.31412 0.41084
# Poissons Ratio (z) = 0.42509 0.42694
#
# Static dielectric constant tensor:
#      x y z
#    x 1.763390 0.000000 0.000000 
#    y 0.000000 1.724940 0.000000 
#    z 0.000000 0.000000 1.712110 
# 
# From -- ./inp_files/67186.got.cif
#   From: 2010.05.17/outbox.cif.g08.bks.cpg/sg74_34_cif.got.tgz:67186.got - 2010.06.03 17:57:02.
