data_PCOD9535778
_publ_section_title
;
Structure prediction by ZEFSAII (Michael W. Deem and Ramdas Pophale) SiO2 
 PCOD9535778
Probable space group: I M M A
;
_chemical_formula_sum "Si O2"
_cell_formula_units_Z 96
_cell_length_a 11.118098
_cell_length_b 19.526330
_cell_length_c 24.450337
_cell_angle_alpha 90.000000
_cell_angle_beta 90.000000
_cell_angle_gamma 90.000000
_cell_volume 5308.061816
_symmetry_space_group_name_H-M "I M M A"
_symmetry_group_IT_number 74
_symmetry_cell_setting 'orthorhombic'
loop_
_space_group_symop_operation_xyz
x,y,z
-x,1/2-y,z
x,-y,-z
-x,1/2+y,-z
-x,-y,-z
x,1/2+y,-z
-x,y,z
x,1/2-y,z
1/2+x,1/2+y,1/2+z
1/2-x,-y,1/2+z
1/2+x,1/2-y,1/2-z
1/2-x,y,1/2-z
1/2-x,1/2-y,1/2-z
1/2+x,y,1/2-z
1/2-x,1/2+y,1/2+z
1/2+x,-y,1/2+z
loop_
_atom_site_type_symbol
_atom_site_label
_atom_site_fract_x
_atom_site_fract_y
_atom_site_fract_z
Si Si1 0.262332 0.327797 0.892549
Si Si2 0.373709 0.017010 0.243732
Si Si3 0.637127 0.531511 0.561059
Si Si4 0.633960 0.636801 0.285029
Si Si5 0.641960 0.673385 0.510601
Si Si6 0.870800 0.968924 0.381426
O O1 0.305447 0.250000 0.886522
O O2 0.159599 0.341248 0.847048
O O3 0.358107 0.386992 0.881954
O O4 0.211622 0.336634 0.953731
O O5 0.500000 0.051460 0.257544
O O6 0.250000 0.057148 0.250000
O O7 0.366035 0.946087 0.278341
O O8 0.376096 0.993438 0.180915
O O9 0.635498 0.500000 0.500000
O O10 0.500000 0.521742 0.583348
O O11 0.663519 0.612037 0.552602
O O12 0.748306 0.497806 0.592531
O O13 0.500000 0.659499 0.267407
O O14 0.750000 0.660983 0.250000
O O15 0.500000 0.670200 0.497498
O O16 0.669048 0.750000 0.531158
O O17 0.000000 0.988551 0.407582
#
# Coordination Sequence:
#
# PCOD9535778 Si02
#       6
#    16  16  16  16  16  16
#     4  11  21  33  49  70  98 137 182 222 257 297
#     4   9  17  31  48  66  92 129 169 211 253 295
#     4  10  20  34  55  80 100 128 172 214 254 306
#     4  10  19  32  47  66  93 131 177 221 260 301
#     4   9  18  34  54  76 103 132 167 213 258 299
#     4  11  22  36  50  71 102 135 171 214 267 310
#
# _framework density 18.085697
#
# number of rings (size 3 to 8) (size 9 to 14) (size 15 to 20)
#    0.000    2.000    5.000    0.500    0.000    3.333 
#    0.000    0.000    0.000    0.500    0.000    0.000 
#    0.000    0.667    0.000    1.500    0.000    2.333 
#
# Total GULP energy -267398.036015 kJ/mol
# GULP energy per Si atom -5570.792417 kJ/mol
# Density = 1.804453 g / cm^3
# Si number density = 18.085697 Si / 1000 Ang^3
#
#
#
# Elastic Constant Matrix: (Units=GPa)
#
#
# Indices 1 2 3 4 5 6 
#
# 1 166.1652 31.3945 28.5917 0.0000 0.0000 0.0000
# 2 31.3945 53.6387 10.1526 0.0000 0.0000 0.0000
# 3 28.5917 10.1526 27.7312 0.0000 0.0000 0.0000
# 4 0.0000 0.0000 0.0000 10.6138 0.0000 0.0000
# 5 0.0000 0.0000 0.0000 0.0000 20.2125 0.0000
# 6 0.0000 0.0000 0.0000 0.0000 0.0000 -74.1487
#
#
#
# Elastic Compliance Matrix: (Units=1/GPa)
#
#
# Indices 1 2 3 4 5 6 
#
# 1 0.007818 -0.003277 -0.006861 0.000000 0.000000 0.000000
# 2 -0.003277 0.021405 -0.004458 0.000000 0.000000 0.000000
# 3 -0.006861 -0.004458 0.044766 0.000000 0.000000 0.000000
# 4 0.000000 0.000000 0.000000 0.094217 0.000000 0.000000
# 5 0.000000 0.000000 0.000000 0.000000 0.049474 0.000000
# 6 0.000000 0.000000 0.000000 0.000000 0.000000 -0.013486
#
#
# Mechanical properties :
#
#
# Convention : Reuss Voigt Hill
#
# Bulk Modulus (GPa) = 22.32246 43.09028 32.70637
# Shear Modulus (GPa) = 20.13554 3.16194 11.64874
#
# Velocity S-wave (km/s) = 3.34030 1.32367 2.54064
# Velocity P-wave (km/s) = 5.21979 5.11991 5.17009
#
# Compressibility (1/GPa) = 0.04479793
#
# Stress axis : x y z
#
# Youngs Moduli (GPa) = 127.91394 46.71783 22.33846
#
# Poissons Ratio (x) = 0.15310 0.15325
# Poissons Ratio (y) = 0.41919 0.09958
# Poissons Ratio (z) = 0.87756 0.20825
#
# Static dielectric constant tensor:
#      x y z
#    x 1.742130 0.000000 0.000000 
#    y 0.000000 1.628300 0.000000 
#    z 0.000000 0.000000 1.619700 
# 
# From -- ./inp_files/50778.got.cif
#   From: 2010.05.17/outbox.cif.g08.bks.cpg/sg74_26_cif.got.tgz:50778.got - 2010.06.03 17:57:02.
