data_PCOD9535348
_publ_section_title
;
Structure prediction by ZEFSAII (Michael W. Deem and Ramdas Pophale) SiO2 
 PCOD9535348
Probable space group: I M M A
;
_chemical_formula_sum "Si O2"
_cell_formula_units_Z 104
_cell_length_a 8.295952
_cell_length_b 26.930212
_cell_length_c 21.431686
_cell_angle_alpha 90.000000
_cell_angle_beta 90.000000
_cell_angle_gamma 90.000000
_cell_volume 4788.090391
_symmetry_space_group_name_H-M "I M M A"
_symmetry_group_IT_number 74
_symmetry_cell_setting 'orthorhombic'
loop_
_space_group_symop_operation_xyz
x,y,z
-x,1/2-y,z
x,-y,-z
-x,1/2+y,-z
-x,-y,-z
x,1/2+y,-z
-x,y,z
x,1/2-y,z
1/2+x,1/2+y,1/2+z
1/2-x,-y,1/2+z
1/2+x,1/2-y,1/2-z
1/2-x,y,1/2-z
1/2-x,1/2-y,1/2-z
1/2+x,y,1/2-z
1/2-x,1/2+y,1/2+z
1/2+x,-y,1/2+z
loop_
_atom_site_type_symbol
_atom_site_label
_atom_site_fract_x
_atom_site_fract_y
_atom_site_fract_z
Si Si1 0.807966 0.922276 0.683553
Si Si2 0.812771 0.156047 0.544396
Si Si3 0.682627 0.950211 0.472429
Si Si4 0.302457 0.339041 0.090612
Si Si5 0.321630 0.033254 0.672681
Si Si6 0.693805 0.750000 0.820525
Si Si7 0.689970 0.642771 0.183592
O O1 0.750000 0.900238 0.750000
O O2 0.751076 0.891427 0.622482
O O3 0.000000 0.920483 0.683125
O O4 0.753885 0.979577 0.683626
O O5 0.793983 0.097766 0.527201
O O6 0.744246 0.176714 0.478918
O O7 0.743590 0.161308 0.615313
O O8 0.000000 0.170809 0.548680
O O9 0.500000 0.940993 0.498419
O O10 0.660554 0.962973 0.400779
O O11 0.755712 0.000000 0.500000
O O12 0.500000 0.340144 0.086480
O O13 0.253791 0.298107 0.140859
O O14 0.500000 0.035547 0.702281
O O15 0.225795 0.083696 0.686701
O O16 0.500000 0.750000 0.820622
O O17 0.750000 0.750000 0.750000
O O18 0.500000 0.650277 0.181317
O O19 0.750000 0.664163 0.250000
#
# Coordination Sequence:
#
# PCOD9535348 Si02
#       7
#    16  16  16  16  16   8  16
#     4  11  21  32  46  66  94 127 165 206 247 290
#     4   9  18  32  49  70  94 123 161 200 239 285
#     4   9  17  28  42  63  92 125 160 200 245 287
#     4   9  19  35  55  77  99 125 159 201 246 294
#     4  10  19  30  44  64  93 129 170 209 244 284
#     4  10  20  38  62  84 107 132 160 198 245 296
#     4  10  19  31  48  69  97 131 167 206 243 283
#
# _framework density 21.720558
#
# number of rings (size 3 to 8) (size 9 to 14) (size 15 to 20)
#    0.000    2.308    0.000    3.231    0.000    1.538 
#    0.000    2.308    0.000    0.000    0.000    0.538 
#    0.000    0.000    0.000    0.000    0.000    0.000 
#
# Total GULP energy -289520.830479 kJ/mol
# GULP energy per Si atom -5567.708278 kJ/mol
# Density = 2.167112 g / cm^3
# Si number density = 21.720558 Si / 1000 Ang^3
#
#
#
# Elastic Constant Matrix: (Units=GPa)
#
#
# Indices 1 2 3 4 5 6 
#
# 1 29.6345 -0.8524 10.9590 0.0000 0.0000 0.0000
# 2 -0.8524 16.9989 22.3099 0.0000 0.0000 0.0000
# 3 10.9590 22.3099 187.6044 -0.0001 0.0000 0.0000
# 4 0.0000 0.0000 -0.0001 22.9152 0.0000 0.0000
# 5 0.0000 0.0000 0.0000 0.0000 25.1577 0.0000
# 6 0.0000 0.0000 0.0000 0.0000 0.0000 5.1135
#
#
#
# Elastic Compliance Matrix: (Units=1/GPa)
#
#
# Indices 1 2 3 4 5 6 
#
# 1 0.034879 0.005241 -0.002661 0.000000 0.000000 0.000000
# 2 0.005241 0.070494 -0.008689 0.000000 0.000000 0.000000
# 3 -0.002661 -0.008689 0.006519 0.000000 0.000000 0.000000
# 4 0.000000 0.000000 0.000000 0.043639 0.000000 0.000000
# 5 0.000000 0.000000 0.000000 0.000000 0.039749 0.000000
# 6 0.000000 0.000000 0.000000 0.000000 0.000000 0.195560
#
#
# Mechanical properties :
#
#
# Convention : Reuss Voigt Hill
#
# Bulk Modulus (GPa) = 10.03263 33.23009 21.63136
# Shear Modulus (GPa) = 11.46042 24.09205 17.77623
#
# Velocity S-wave (km/s) = 2.29951 3.33405 2.86388
# Velocity P-wave (km/s) = 3.41750 5.49120 4.57344
#
# Compressibility (1/GPa) = 0.09967481
#
# Stress axis : x y z
#
# Youngs Moduli (GPa) = 28.67040 14.18552 153.39456
#
# Poissons Ratio (x) = -0.07435 0.40815
# Poissons Ratio (y) = -0.15027 1.33290
# Poissons Ratio (z) = 0.07629 0.12326
#
# Static dielectric constant tensor:
#      x y z
#    x 1.854030 0.000000 0.000000 
#    y 0.000000 1.818930 0.000000 
#    z 0.000000 0.000000 2.060800 
# 
# From -- ./inp_files/49653.got.cif
#   From: 2010.05.17/outbox.cif.g08.bks.cpg/sg74_25_cif.got.tgz:49653.got - 2010.06.03 17:57:02.
