data_PCOD9535639
_publ_section_title
;
Structure prediction by ZEFSAII (Michael W. Deem and Ramdas Pophale) SiO2 
 PCOD9535639
Probable space group: I M M A
;
_chemical_formula_sum "Si O2"
_cell_formula_units_Z 96
_cell_length_a 22.894040
_cell_length_b 23.515363
_cell_length_c 8.248366
_cell_angle_alpha 90.000000
_cell_angle_beta 90.000000
_cell_angle_gamma 90.000000
_cell_volume 4440.604021
_symmetry_space_group_name_H-M "I M M A"
_symmetry_group_IT_number 74
_symmetry_cell_setting 'orthorhombic'
loop_
_space_group_symop_operation_xyz
x,y,z
-x,1/2-y,z
x,-y,-z
-x,1/2+y,-z
-x,-y,-z
x,1/2+y,-z
-x,y,z
x,1/2-y,z
1/2+x,1/2+y,1/2+z
1/2-x,-y,1/2+z
1/2+x,1/2-y,1/2-z
1/2-x,y,1/2-z
1/2-x,1/2-y,1/2-z
1/2+x,y,1/2-z
1/2-x,1/2+y,1/2+z
1/2+x,-y,1/2+z
loop_
_atom_site_type_symbol
_atom_site_label
_atom_site_fract_x
_atom_site_fract_y
_atom_site_fract_z
Si Si1 0.312210 0.311704 0.666237
Si Si2 0.663306 0.457231 0.128766
Si Si3 0.394682 0.860441 0.068474
Si Si4 0.432891 0.185253 0.262237
Si Si5 0.353207 0.092933 0.444602
Si Si6 0.933115 0.962436 0.219812
O O1 0.321635 0.250000 0.586390
O O2 0.250000 0.310382 0.750000
O O3 0.361654 0.321774 0.801848
O O4 0.313656 0.366160 0.551679
O O5 0.683679 0.441174 0.309668
O O6 0.601956 0.488824 0.181646
O O7 0.692684 0.500000 0.000000
O O8 0.651622 0.400068 0.028453
O O9 0.432407 0.906324 0.167245
O O10 0.427710 0.826231 0.929893
O O11 0.500000 0.179580 0.313311
O O12 0.413863 0.250000 0.295128
O O13 0.395521 0.137139 0.351154
O O14 0.394074 0.055949 0.564384
O O15 0.000000 0.978371 0.183952
#
# Coordination Sequence:
#
# PCOD9535639 Si02
#       6
#    16  16  16  16  16  16
#     4  10  21  39  62  84 107 141 188 243 298 342
#     4   9  19  33  51  75 108 144 179 220 269 324
#     4   9  19  34  53  77 110 143 181 231 284 336
#     4  10  19  31  49  76 112 151 185 220 276 350
#     4  10  20  34  53  79 113 145 185 236 283 330
#     4  10  19  31  52  81 112 149 191 230 274 334
#
# _framework density 21.618680999999999
#
# number of rings (size 3 to 8) (size 9 to 14) (size 15 to 20)
#    0.000    2.333    0.000    2.500    0.000    7.000 
#    0.000    3.333    0.000   47.000    0.000    0.000 
#    0.000    0.000    0.000    0.000    0.000    0.000 
#
# Total GULP energy -267785.654468 kJ/mol
# GULP energy per Si atom -5578.867801 kJ/mol
# Density = 2.156948 g / cm^3
# Si number density = 21.618681 Si / 1000 Ang^3
#
#
#
# Elastic Constant Matrix: (Units=GPa)
#
#
# Indices 1 2 3 4 5 6 
#
# 1 36.7240 14.5203 8.6052 0.0000 0.0000 0.0000
# 2 14.5203 87.0668 23.1655 0.0000 0.0000 0.0000
# 3 8.6052 23.1655 109.6257 0.0000 0.0000 0.0000
# 4 0.0000 0.0000 0.0000 38.5348 0.0000 0.0000
# 5 0.0000 0.0000 0.0000 0.0000 6.4653 0.0000
# 6 0.0000 0.0000 0.0000 0.0000 0.0000 2.8614
#
#
#
# Elastic Compliance Matrix: (Units=1/GPa)
#
#
# Indices 1 2 3 4 5 6 
#
# 1 0.029338 -0.004535 -0.001345 0.000000 0.000000 0.000000
# 2 -0.004535 0.012871 -0.002364 0.000000 0.000000 0.000000
# 3 -0.001345 -0.002364 0.009727 0.000000 0.000000 0.000000
# 4 0.000000 0.000000 0.000000 0.025951 0.000000 0.000000
# 5 0.000000 0.000000 0.000000 0.000000 0.154671 0.000000
# 6 0.000000 0.000000 0.000000 0.000000 0.000000 0.349473
#
#
# Mechanical properties :
#
#
# Convention : Reuss Voigt Hill
#
# Bulk Modulus (GPa) = 28.20946 36.22206 32.21576
# Shear Modulus (GPa) = 8.19223 22.04735 15.11979
#
# Velocity S-wave (km/s) = 1.94876 3.19694 2.64746
# Velocity P-wave (km/s) = 4.25917 5.51530 4.92743
#
# Compressibility (1/GPa) = 0.03544911
#
# Stress axis : x y z
#
# Youngs Moduli (GPa) = 34.08508 77.69597 102.80666
#
# Poissons Ratio (x) = 0.35236 0.13824
# Poissons Ratio (y) = 0.15458 0.24301
# Poissons Ratio (z) = 0.04583 0.18366
#
# Static dielectric constant tensor:
#      x y z
#    x 1.761180 0.000000 0.000000 
#    y 0.000000 1.786290 0.000000 
#    z 0.000000 0.000000 1.827640 
# 
# From -- ./inp_files/13926.got.cif
#   From: 2010.05.17/outbox.cif.g08.bks.cpg/sg74_7_cif.got.tgz:13926.got - 2010.06.03 17:57:02.
