data_PCOD9535873
_publ_section_title
;
Structure prediction by ZEFSAII (Michael W. Deem and Ramdas Pophale) SiO2 
 PCOD9535873
Probable space group: I M M A
;
_chemical_formula_sum "Si O2"
_cell_formula_units_Z 80
_cell_length_a 29.160300
_cell_length_b 9.147017
_cell_length_c 17.879479
_cell_angle_alpha 90.000000
_cell_angle_beta 90.000000
_cell_angle_gamma 90.000000
_cell_volume 4768.989139
_symmetry_space_group_name_H-M "I M M A"
_symmetry_group_IT_number 74
_symmetry_cell_setting 'orthorhombic'
loop_
_space_group_symop_operation_xyz
x,y,z
-x,1/2-y,z
x,-y,-z
-x,1/2+y,-z
-x,-y,-z
x,1/2+y,-z
-x,y,z
x,1/2-y,z
1/2+x,1/2+y,1/2+z
1/2-x,-y,1/2+z
1/2+x,1/2-y,1/2-z
1/2-x,y,1/2-z
1/2-x,1/2-y,1/2-z
1/2+x,y,1/2-z
1/2-x,1/2+y,1/2+z
1/2+x,-y,1/2+z
loop_
_atom_site_type_symbol
_atom_site_label
_atom_site_fract_x
_atom_site_fract_y
_atom_site_fract_z
Si Si1 0.646201 0.575362 0.287724
Si Si2 0.713529 0.082964 0.181472
Si Si3 0.784227 0.925245 0.079526
Si Si4 0.551893 0.074604 0.770683
Si Si5 0.055632 0.916266 0.573625
O O1 0.651378 0.750000 0.276896
O O2 0.669733 0.493913 0.218054
O O3 0.674351 0.538936 0.362699
O O4 0.592301 0.539566 0.287373
O O5 0.704656 0.250000 0.158325
O O6 0.750000 0.086206 0.250000
O O7 0.738206 0.990403 0.117062
O O8 0.781145 0.750000 0.072974
O O9 0.791826 0.000000 0.000000
O O10 0.500000 0.028720 0.750202
O O11 0.551308 0.250000 0.780395
O O12 0.564436 0.001911 0.849841
O O13 0.072554 0.750000 0.576605
O O14 0.000000 0.910464 0.567588
O O15 0.072710 0.000000 0.500000
#
# Coordination Sequence:
#
# PCOD9535873 Si02
#       5
#    16  16  16  16  16
#     4   9  18  32  50  72  98 129 163 199 240 285
#     4   9  17  30  49  72  96 122 152 188 234 288
#     4  10  19  32  51  74 100 128 159 197 241 290
#     4   9  17  30  48  69  94 127 167 206 241 280
#     4   9  16  26  41  61  85 114 149 190 235 279
#
# _framework density 16.775044000000001
#
# number of rings (size 3 to 8) (size 9 to 14) (size 15 to 20)
#    0.000    2.800    0.000    1.800    0.000    6.400 
#    0.000    1.000    0.000    5.400    0.000    0.000 
#    0.000    0.000    0.000    0.000    0.000    0.600 
#
# Total GULP energy -222822.886087 kJ/mol
# GULP energy per Si atom -5570.572152 kJ/mol
# Density = 1.673686 g / cm^3
# Si number density = 16.775044 Si / 1000 Ang^3
#
#
#
# Elastic Constant Matrix: (Units=GPa)
#
#
# Indices 1 2 3 4 5 6 
#
# 1 96.8676 39.1538 52.7790 0.0000 0.0000 0.0000
# 2 39.1538 58.3517 49.3239 0.0000 0.0000 0.0000
# 3 52.7790 49.3239 94.8233 0.0000 0.0000 0.0000
# 4 0.0000 0.0000 0.0000 25.9587 0.0000 0.0000
# 5 0.0000 0.0000 0.0000 0.0000 16.8970 0.0000
# 6 0.0000 0.0000 0.0000 0.0000 0.0000 12.7871
#
#
#
# Elastic Compliance Matrix: (Units=1/GPa)
#
#
# Indices 1 2 3 4 5 6 
#
# 1 0.015797 -0.005653 -0.005852 0.000000 0.000000 0.000000
# 2 -0.005653 0.032609 -0.013815 0.000000 0.000000 0.000000
# 3 -0.005852 -0.013815 0.020990 0.000000 0.000000 0.000000
# 4 0.000000 0.000000 0.000000 0.038523 0.000000 0.000000
# 5 0.000000 0.000000 0.000000 0.000000 0.059182 0.000000
# 6 0.000000 0.000000 0.000000 0.000000 0.000000 0.078204
#
#
# Mechanical properties :
#
#
# Convention : Reuss Voigt Hill
#
# Bulk Modulus (GPa) = 53.32193 59.17289 56.24741
# Shear Modulus (GPa) = 16.54555 18.38095 17.46325
#
# Velocity S-wave (km/s) = 3.14398 3.31377 3.22999
# Velocity P-wave (km/s) = 6.71081 7.07053 6.89302
#
# Compressibility (1/GPa) = 0.01875401
#
# Stress axis : x y z
#
# Youngs Moduli (GPa) = 63.30377 30.66685 47.64271
#
# Poissons Ratio (x) = 0.17336 0.27881
# Poissons Ratio (y) = 0.35785 0.65820
# Poissons Ratio (z) = 0.37046 0.42368
#
# Static dielectric constant tensor:
#      x y z
#    x 1.590520 0.000000 0.000000 
#    y 0.000000 1.567720 0.000000 
#    z 0.000000 0.000000 1.539070 
# 
# From -- ./inp_files/39673.got.cif
#   From: 2010.05.17/outbox.cif.g08.bks.cpg/sg74_20_cif.got.tgz:39673.got - 2010.06.03 17:57:02.
