data_PCOD9535074
_publ_section_title
;
Structure prediction by ZEFSAII (Michael W. Deem and Ramdas Pophale) SiO2 
 PCOD9535074
Probable space group: I M M A
;
_chemical_formula_sum "Si O2"
_cell_formula_units_Z 88
_cell_length_a 11.283233
_cell_length_b 19.539836
_cell_length_c 19.986918
_cell_angle_alpha 90.000000
_cell_angle_beta 90.000000
_cell_angle_gamma 90.000000
_cell_volume 4406.566226
_symmetry_space_group_name_H-M "I M M A"
_symmetry_group_IT_number 74
_symmetry_cell_setting 'orthorhombic'
loop_
_space_group_symop_operation_xyz
x,y,z
-x,1/2-y,z
x,-y,-z
-x,1/2+y,-z
-x,-y,-z
x,1/2+y,-z
-x,y,z
x,1/2-y,z
1/2+x,1/2+y,1/2+z
1/2-x,-y,1/2+z
1/2+x,1/2-y,1/2-z
1/2-x,y,1/2-z
1/2-x,1/2-y,1/2-z
1/2+x,y,1/2-z
1/2-x,1/2+y,1/2+z
1/2+x,-y,1/2+z
loop_
_atom_site_type_symbol
_atom_site_label
_atom_site_fract_x
_atom_site_fract_y
_atom_site_fract_z
Si Si1 0.135530 0.887484 0.063965
Si Si2 0.297843 0.674959 0.173793
Si Si3 0.128724 0.406335 0.388529
Si Si4 0.286786 0.000000 0.000000
Si Si5 0.132225 0.668658 0.912921
Si Si6 0.625743 0.533513 0.211600
O O1 0.194849 0.841060 0.120564
O O2 0.000000 0.901211 0.081086
O O3 0.139261 0.850272 0.991761
O O4 0.204428 0.958791 0.052303
O O5 0.350489 0.750000 0.159279
O O6 0.250000 0.678091 0.250000
O O7 0.373856 0.605795 0.172356
O O8 0.139390 0.443696 0.460388
O O9 0.250085 0.363861 0.380484
O O10 0.127160 0.468105 0.335947
O O11 0.000000 0.370190 0.384144
O O12 0.136028 0.750000 0.904994
O O13 0.000000 0.644640 0.889973
O O14 0.500000 0.531644 0.250706
O O15 0.750000 0.532128 0.250000
#
# Coordination Sequence:
#
# PCOD9535074 Si02
#       6
#    16  16  16   8  16  16
#     4  10  19  33  56  83 114 151 193 241 291 342
#     4  10  21  36  52  76 111 154 198 238 282 337
#     4  10  20  35  57  82 112 148 186 229 281 342
#     4  10  18  34  54  82 113 144 189 236 289 340
#     4   9  19  35  56  86 119 148 184 232 286 343
#     4  10  22  40  58  83 112 148 194 241 286 335
#
# _framework density 19.970196999999999
#
# number of rings (size 3 to 8) (size 9 to 14) (size 15 to 20)
#    0.000    2.182    1.818    1.091    0.000    6.182 
#    0.000    3.636    0.000    2.727    0.000    0.000 
#    0.000    0.000    0.000    0.000    0.000    0.000 
#
# Total GULP energy -245058.176107 kJ/mol
# GULP energy per Si atom -5569.504002 kJ/mol
# Density = 1.992474 g / cm^3
# Si number density = 19.970197 Si / 1000 Ang^3
#
#
#
# Elastic Constant Matrix: (Units=GPa)
#
#
# Indices 1 2 3 4 5 6 
#
# 1 200.8453 57.6147 34.8260 0.0000 0.0000 0.0000
# 2 57.6147 79.6688 14.7592 0.0000 0.0000 0.0000
# 3 34.8260 14.7592 29.7745 0.0000 0.0000 0.0000
# 4 0.0000 0.0000 0.0000 -1.3528 0.0000 0.0000
# 5 0.0000 0.0000 0.0000 0.0000 16.0959 0.0000
# 6 0.0000 0.0000 0.0000 0.0000 0.0000 -3.4375
#
#
#
# Elastic Compliance Matrix: (Units=1/GPa)
#
#
# Indices 1 2 3 4 5 6 
#
# 1 0.007267 -0.004053 -0.006491 0.000000 0.000000 0.000000
# 2 -0.004053 0.016082 -0.003231 0.000000 0.000000 0.000000
# 3 -0.006491 -0.003231 0.042780 0.000000 0.000000 0.000000
# 4 0.000000 0.000000 0.000000 -0.739182 0.000000 0.000000
# 5 0.000000 0.000000 0.000000 0.000000 0.062128 0.000000
# 6 0.000000 0.000000 0.000000 0.000000 0.000000 -0.290908
#
#
# Mechanical properties :
#
#
# Convention : Reuss Voigt Hill
#
# Bulk Modulus (GPa) = 25.92130 58.29872 42.11001
# Shear Modulus (GPa) = -5.80434 15.80036 4.99801
#
# Velocity S-wave (km/s) = -1.70670 2.81587 1.58372
# Velocity P-wave (km/s) = 3.02067 6.31098 4.94737
#
# Compressibility (1/GPa) = 0.03857832
#
# Stress axis : x y z
#
# Youngs Moduli (GPa) = 137.60662 62.18319 23.37558
#
# Poissons Ratio (x) = 0.25202 0.15173
# Poissons Ratio (y) = 0.55771 0.07553
# Poissons Ratio (z) = 0.89320 0.20092
#
# Static dielectric constant tensor:
#      x y z
#    x 1.783180 0.000000 0.000000 
#    y 0.000000 1.709200 0.000000 
#    z 0.000000 0.000000 1.708160 
# 
# From -- ./inp_files/50536.got.cif
#   From: 2010.05.17/outbox.cif.g08.bks.cpg/sg74_26_cif.got.tgz:50536.got - 2010.06.03 17:57:02.
