data_PCOD9535838
_publ_section_title
;
Structure prediction by ZEFSAII (Michael W. Deem and Ramdas Pophale) SiO2 
 PCOD9535838
Probable space group: I M M A
;
_chemical_formula_sum "Si O2"
_cell_formula_units_Z 88
_cell_length_a 21.635889
_cell_length_b 9.079020
_cell_length_c 25.484012
_cell_angle_alpha 90.000000
_cell_angle_beta 90.000000
_cell_angle_gamma 90.000000
_cell_volume 5005.892493
_symmetry_space_group_name_H-M "I M M A"
_symmetry_group_IT_number 74
_symmetry_cell_setting 'orthorhombic'
loop_
_space_group_symop_operation_xyz
x,y,z
-x,1/2-y,z
x,-y,-z
-x,1/2+y,-z
-x,-y,-z
x,1/2+y,-z
-x,y,z
x,1/2-y,z
1/2+x,1/2+y,1/2+z
1/2-x,-y,1/2+z
1/2+x,1/2-y,1/2-z
1/2-x,y,1/2-z
1/2-x,1/2-y,1/2-z
1/2+x,y,1/2-z
1/2-x,1/2+y,1/2+z
1/2+x,-y,1/2+z
loop_
_atom_site_type_symbol
_atom_site_label
_atom_site_fract_x
_atom_site_fract_y
_atom_site_fract_z
Si Si1 0.145409 0.578077 0.653769
Si Si2 0.867244 0.924089 0.056110
Si Si3 0.324679 0.918706 0.258658
Si Si4 0.793414 0.582363 0.860869
Si Si5 0.925792 0.074082 0.556491
Si Si6 0.500000 0.073567 0.557286
O O1 0.126365 0.750000 0.658826
O O2 0.140816 0.488162 0.708483
O O3 0.219504 0.577905 0.644861
O O4 0.110335 0.501634 0.605008
O O5 0.864871 0.750000 0.049655
O O6 0.933950 0.965397 0.081660
O O7 0.812738 0.979321 0.091920
O O8 0.863989 0.000000 0.000000
O O9 0.344609 0.750000 0.268025
O O10 0.250000 0.913706 0.250000
O O11 0.327955 0.021915 0.309381
O O12 0.811769 0.750000 0.871246
O O13 0.913149 0.250000 0.554906
O O14 0.000000 0.054767 0.563769
O O15 0.909902 0.000000 0.500000
O O16 0.500000 0.250000 0.550784
O O17 0.500000 0.000000 0.500000
#
# Coordination Sequence:
#
# PCOD9535838 Si02
#       6
#    16  16  16  16  16   8
#     4  10  20  34  54  78 105 137 171 211 257 309
#     4  10  19  32  50  72  99 132 169 210 256 304
#     4   9  17  31  52  76 101 132 169 207 251 304
#     4  10  20  33  50  76 107 137 171 212 259 309
#     4  10  21  37  57  80 106 138 177 219 264 316
#     4   8  16  30  48  68  90 122 164 202 239 288
#
# _framework density 17.579283
#
# number of rings (size 3 to 8) (size 9 to 14) (size 15 to 20)
#    0.000    2.364    0.000    2.727    0.000    6.909 
#    0.000    0.000    2.000    0.000    0.000    0.000 
#    0.000    0.000    0.000    0.000    0.000    0.000 
#
# Total GULP energy -245072.058067 kJ/mol
# GULP energy per Si atom -5569.819502 kJ/mol
# Density = 1.753927 g / cm^3
# Si number density = 17.579283 Si / 1000 Ang^3
#
#
#
# Elastic Constant Matrix: (Units=GPa)
#
#
# Indices 1 2 3 4 5 6 
#
# 1 19.3351 24.3311 22.5766 0.0000 0.0000 0.0000
# 2 24.3311 104.5879 43.8718 0.0000 0.0000 0.0000
# 3 22.5766 43.8718 91.3607 0.0000 0.0000 0.0000
# 4 0.0000 0.0000 0.0000 32.2723 0.0000 0.0000
# 5 0.0000 0.0000 0.0000 0.0000 25.3122 0.0000
# 6 0.0000 0.0000 0.0000 0.0000 0.0000 3.4031
#
#
#
# Elastic Compliance Matrix: (Units=1/GPa)
#
#
# Indices 1 2 3 4 5 6 
#
# 1 0.086376 -0.013951 -0.014645 0.000000 0.000000 0.000000
# 2 -0.013951 0.014226 -0.003384 0.000000 0.000000 0.000000
# 3 -0.014645 -0.003384 0.016190 0.000000 0.000000 0.000000
# 4 0.000000 0.000000 0.000000 0.030986 0.000000 0.000000
# 5 0.000000 0.000000 0.000000 0.000000 0.039507 0.000000
# 6 0.000000 0.000000 0.000000 0.000000 0.000000 0.293852
#
#
# Mechanical properties :
#
#
# Convention : Reuss Voigt Hill
#
# Bulk Modulus (GPa) = 18.92820 44.09364 31.51092
# Shear Modulus (GPa) = 8.88559 20.49779 14.69169
#
# Velocity S-wave (km/s) = 2.25068 3.41841 2.89405
# Velocity P-wave (km/s) = 4.18865 6.38106 5.39734
#
# Compressibility (1/GPa) = 0.05283123
#
# Stress axis : x y z
#
# Youngs Moduli (GPa) = 11.57726 70.29182 61.76732
#
# Poissons Ratio (x) = 0.98064 0.90461
# Poissons Ratio (y) = 0.16151 0.20903
# Poissons Ratio (z) = 0.16955 0.23787
#
# Static dielectric constant tensor:
#      x y z
#    x 1.625530 0.000000 0.000000 
#    y 0.000000 1.596760 0.000000 
#    z 0.000000 0.000000 1.597210 
# 
# From -- ./inp_files/61454.got.cif
#   From: 2010.05.17/outbox.cif.g08.bks.cpg/sg74_31_cif.got.tgz:61454.got - 2010.06.03 17:57:02.
