data_PCOD9535152
_publ_section_title
;
Structure prediction by ZEFSAII (Michael W. Deem and Ramdas Pophale) SiO2 
 PCOD9535152
Probable space group: I M M A
;
_chemical_formula_sum "Si O2"
_cell_formula_units_Z 36
_cell_length_a 8.660475
_cell_length_b 13.886799
_cell_length_c 13.486398
_cell_angle_alpha 90.000000
_cell_angle_beta 90.000000
_cell_angle_gamma 90.000000
_cell_volume 1621.958858
_symmetry_space_group_name_H-M "I M M A"
_symmetry_group_IT_number 74
_symmetry_cell_setting 'orthorhombic'
loop_
_space_group_symop_operation_xyz
x,y,z
-x,1/2-y,z
x,-y,-z
-x,1/2+y,-z
-x,-y,-z
x,1/2+y,-z
-x,y,z
x,1/2-y,z
1/2+x,1/2+y,1/2+z
1/2-x,-y,1/2+z
1/2+x,1/2-y,1/2-z
1/2-x,y,1/2-z
1/2-x,1/2-y,1/2-z
1/2+x,y,1/2-z
1/2-x,1/2+y,1/2+z
1/2+x,-y,1/2+z
loop_
_atom_site_type_symbol
_atom_site_label
_atom_site_fract_x
_atom_site_fract_y
_atom_site_fract_z
Si Si1 0.165742 0.028965 0.884678
Si Si2 0.500000 0.540495 0.887100
Si Si3 0.000000 0.750000 0.529514
Si Si4 0.773650 0.750000 0.131986
O O1 0.157399 0.144242 0.882020
O O2 0.000000 0.989838 0.845440
O O3 0.335013 0.996647 0.844616
O O4 0.169384 0.000000 0.000000
O O5 0.500000 0.500000 0.000000
O O6 0.500000 0.655271 0.902281
O O7 0.140560 0.750000 0.451577
O O8 0.750000 0.750000 0.250000
#
# Coordination Sequence:
#
# PCOD9535152 Si02
#       4
#    16   8   4   8
#     4  10  20  36  54  77 115 156 194 228 284 348
#     4  10  18  36  58  74 112 148 194 245 272 344
#     4  12  20  38  56  88 116 152 194 240 298 344
#     4  12  23  34  57  91 129 149 186 245 302 347
#
# _framework density 22.195384000000001
#
# number of rings (size 3 to 8) (size 9 to 14) (size 15 to 20)
#    0.000    1.333    8.889    0.667    3.111    0.000 
#    0.000    1.111    0.000    0.000    0.000    6.222 
#    0.000    0.000    0.000    0.000    0.000    0.000 
#
# Total GULP energy -100205.060062 kJ/mol
# GULP energy per Si atom -5566.947781 kJ/mol
# Density = 2.214487 g / cm^3
# Si number density = 22.195384 Si / 1000 Ang^3
#
#
#
# Elastic Constant Matrix: (Units=GPa)
#
#
# Indices 1 2 3 4 5 6 
#
# 1 287.5842 60.4808 47.3774 0.0000 0.0000 0.0000
# 2 60.4808 186.7691 30.6576 0.0000 0.0000 0.0000
# 3 47.3774 30.6576 73.0817 0.0000 0.0000 0.0000
# 4 0.0000 0.0000 0.0000 12.0369 0.0000 0.0000
# 5 0.0000 0.0000 0.0000 0.0000 28.2172 0.0000
# 6 0.0000 0.0000 0.0000 0.0000 0.0000 61.8809
#
#
#
# Elastic Compliance Matrix: (Units=1/GPa)
#
#
# Indices 1 2 3 4 5 6 
#
# 1 0.004042 -0.000944 -0.002225 0.000000 0.000000 0.000000
# 2 -0.000944 0.005971 -0.001893 0.000000 0.000000 0.000000
# 3 -0.002225 -0.001893 0.015919 0.000000 0.000000 0.000000
# 4 0.000000 0.000000 0.000000 0.083078 0.000000 0.000000
# 5 0.000000 0.000000 0.000000 0.000000 0.035439 0.000000
# 6 0.000000 0.000000 0.000000 0.000000 0.000000 0.016160
#
#
# Mechanical properties :
#
#
# Convention : Reuss Voigt Hill
#
# Bulk Modulus (GPa) = 63.25141 91.60740 77.42940
# Shear Modulus (GPa) = 28.40881 47.68829 38.04855
#
# Velocity S-wave (km/s) = 3.58151 4.64029 4.14485
# Velocity P-wave (km/s) = 6.75739 8.37093 7.60707
#
# Compressibility (1/GPa) = 0.01580993
#
# Stress axis : x y z
#
# Youngs Moduli (GPa) = 247.38927 167.48928 62.81619
#
# Poissons Ratio (x) = 0.15808 0.13974
# Poissons Ratio (y) = 0.23349 0.11890
# Poissons Ratio (z) = 0.55033 0.31702
#
# Static dielectric constant tensor:
#      x y z
#    x 1.949860 0.000000 0.000000 
#    y 0.000000 1.724520 0.000000 
#    z 0.000000 0.000000 1.774090 
# 
# From -- ./inp_files/27957.got.cif
#   From: 2010.05.17/outbox.cif.g08.bks.cpg/sg74_14_cif.got.tgz:27957.got - 2010.06.03 17:57:02.
