data_PCOD9535542
_publ_section_title
;
Structure prediction by ZEFSAII (Michael W. Deem and Ramdas Pophale) SiO2 
 PCOD9535542
Probable space group: I M M A
;
_chemical_formula_sum "Si O2"
_cell_formula_units_Z 96
_cell_length_a 23.402219
_cell_length_b 9.225181
_cell_length_c 21.840002
_cell_angle_alpha 90.000000
_cell_angle_beta 90.000000
_cell_angle_gamma 90.000000
_cell_volume 4715.031612
_symmetry_space_group_name_H-M "I M M A"
_symmetry_group_IT_number 74
_symmetry_cell_setting 'orthorhombic'
loop_
_space_group_symop_operation_xyz
x,y,z
-x,1/2-y,z
x,-y,-z
-x,1/2+y,-z
-x,-y,-z
x,1/2+y,-z
-x,y,z
x,1/2-y,z
1/2+x,1/2+y,1/2+z
1/2-x,-y,1/2+z
1/2+x,1/2-y,1/2-z
1/2-x,y,1/2-z
1/2-x,1/2-y,1/2-z
1/2+x,y,1/2-z
1/2-x,1/2+y,1/2+z
1/2+x,-y,1/2+z
loop_
_atom_site_type_symbol
_atom_site_label
_atom_site_fract_x
_atom_site_fract_y
_atom_site_fract_z
Si Si1 0.934487 0.574776 0.137593
Si Si2 0.849626 0.587890 0.447397
Si Si3 0.826269 0.573335 0.064996
Si Si4 0.932318 0.084260 0.372733
Si Si5 0.236652 0.585415 0.333678
Si Si6 0.129620 0.925563 0.262933
O O1 0.937800 0.750000 0.139231
O O2 0.892161 0.538837 0.081891
O O3 0.899443 0.533800 0.198849
O O4 0.000000 0.520158 0.135653
O O5 0.818225 0.500000 0.500000
O O6 0.862316 0.750000 0.467048
O O7 0.905470 0.501538 0.570068
O O8 0.811521 0.593299 0.386925
O O9 0.818784 0.750000 0.060916
O O10 0.788597 0.523343 0.124760
O O11 0.812154 0.500000 0.000000
O O12 0.911608 0.250000 0.370928
O O13 0.000000 0.083154 0.374511
O O14 0.909861 0.998988 0.313752
O O15 0.255085 0.750000 0.318235
O O16 0.195879 0.529834 0.277427
O O17 0.128369 0.750000 0.268611
#
# Coordination Sequence:
#
# PCOD9535542 Si02
#       6
#    16  16  16  16  16  16
#     4   9  18  32  53  81 109 139 176 219 266 315
#     4  10  19  31  47  67  93 127 170 216 263 314
#     4  10  20  35  54  77 108 142 179 221 263 312
#     4  10  20  32  46  67  96 130 168 210 258 312
#     4   8  16  30  50  77 102 129 167 211 261 314
#     4   9  17  32  54  77 101 130 168 213 263 318
#
# _framework density 20.360413000000001
#
# number of rings (size 3 to 8) (size 9 to 14) (size 15 to 20)
#    0.000    2.667    0.000    3.000    0.000    3.333 
#    0.000    7.500    0.000    1.000    0.000    5.833 
#    0.000    0.000    0.000    0.000    0.000    0.000 
#
# Total GULP energy -267264.630033 kJ/mol
# GULP energy per Si atom -5568.013126 kJ/mol
# Density = 2.031407 g / cm^3
# Si number density = 20.360413 Si / 1000 Ang^3
#
#
#
# Elastic Constant Matrix: (Units=GPa)
#
#
# Indices 1 2 3 4 5 6 
#
# 1 139.0836 26.4442 47.4883 0.0000 0.0000 0.0000
# 2 26.4442 54.1595 20.4624 0.0000 0.0000 0.0000
# 3 47.4883 20.4624 69.2569 0.0000 0.0000 0.0000
# 4 0.0000 0.0000 0.0000 21.4538 0.0000 0.0000
# 5 0.0000 0.0000 0.0000 0.0000 22.5135 0.0000
# 6 0.0000 0.0000 0.0000 0.0000 0.0000 9.9241
#
#
#
# Elastic Compliance Matrix: (Units=1/GPa)
#
#
# Indices 1 2 3 4 5 6 
#
# 1 0.009679 -0.002497 -0.005899 0.000000 0.000000 0.000000
# 2 -0.002497 0.021428 -0.004619 0.000000 0.000000 0.000000
# 3 -0.005899 -0.004619 0.019848 0.000000 0.000000 0.000000
# 4 0.000000 0.000000 0.000000 0.046612 0.000000 0.000000
# 5 0.000000 0.000000 0.000000 0.000000 0.044418 0.000000
# 6 0.000000 0.000000 0.000000 0.000000 0.000000 0.100765
#
#
# Mechanical properties :
#
#
# Convention : Reuss Voigt Hill
#
# Bulk Modulus (GPa) = 40.11900 50.14334 45.13117
# Shear Modulus (GPa) = 18.04481 21.98528 20.01505
#
# Velocity S-wave (km/s) = 2.98026 3.28960 3.13874
# Velocity P-wave (km/s) = 5.62048 6.25380 5.94558
#
# Compressibility (1/GPa) = 0.02492584
#
# Stress axis : x y z
#
# Youngs Moduli (GPa) = 103.31886 46.66716 50.38192
#
# Poissons Ratio (x) = 0.11653 0.29719
# Poissons Ratio (y) = 0.25800 0.23271
# Poissons Ratio (z) = 0.60946 0.21555
#
# Static dielectric constant tensor:
#      x y z
#    x 1.771880 0.000000 0.000000 
#    y 0.000000 1.715160 0.000000 
#    z 0.000000 0.000000 1.925710 
# 
# From -- ./inp_files/50753.got.cif
#   From: 2010.05.17/outbox.cif.g08.bks.cpg/sg74_26_cif.got.tgz:50753.got - 2010.06.03 17:57:02.
