data_PCOD9535001
_publ_section_title
;
Structure prediction by ZEFSAII (Michael W. Deem and Ramdas Pophale) SiO2 
 PCOD9535001
Probable space group: I M M A
;
_chemical_formula_sum "Si O2"
_cell_formula_units_Z 96
_cell_length_a 20.286317
_cell_length_b 12.020930
_cell_length_c 20.780439
_cell_angle_alpha 90.000000
_cell_angle_beta 90.000000
_cell_angle_gamma 90.000000
_cell_volume 5067.526096
_symmetry_space_group_name_H-M "I M M A"
_symmetry_group_IT_number 74
_symmetry_cell_setting 'orthorhombic'
loop_
_space_group_symop_operation_xyz
x,y,z
-x,1/2-y,z
x,-y,-z
-x,1/2+y,-z
-x,-y,-z
x,1/2+y,-z
-x,y,z
x,1/2-y,z
1/2+x,1/2+y,1/2+z
1/2-x,-y,1/2+z
1/2+x,1/2-y,1/2-z
1/2-x,y,1/2-z
1/2-x,1/2-y,1/2-z
1/2+x,y,1/2-z
1/2-x,1/2+y,1/2+z
1/2+x,-y,1/2+z
loop_
_atom_site_type_symbol
_atom_site_label
_atom_site_fract_x
_atom_site_fract_y
_atom_site_fract_z
Si Si1 0.392761 0.250000 0.625921
Si Si2 0.888905 0.750000 0.273811
Si Si3 0.760773 0.016892 0.573460
Si Si4 0.301764 0.618580 0.804839
Si Si5 0.267144 0.250000 0.862305
Si Si6 0.108485 0.511116 0.106915
Si Si7 0.000000 0.618329 0.959789
Si Si8 0.923140 0.008625 0.742672
O O1 0.415159 0.250000 0.699684
O O2 0.313165 0.250000 0.639110
O O3 0.414565 0.362186 0.590214
O O4 0.811812 0.750000 0.297240
O O5 0.914010 0.627734 0.293243
O O6 0.782375 0.137780 0.599082
O O7 0.681541 0.006262 0.579246
O O8 0.780786 0.000000 0.500000
O O9 0.785565 0.929123 0.625432
O O10 0.295774 0.750000 0.804597
O O11 0.250000 0.574109 0.750000
O O12 0.375327 0.580332 0.788966
O O13 0.064993 0.409357 0.082648
O O14 0.104813 0.515114 0.184242
O O15 0.000000 0.750000 0.977762
O O16 0.000000 0.500000 0.000000
O O17 0.000000 0.981005 0.745263
#
# Coordination Sequence:
#
# PCOD9535001 Si02
#       8
#     8   8  16  16   8  16   8  16
#     4   8  19  30  61  92 120 155 199 258 319 383
#     4  10  18  32  60  95 125 153 201 250 320 382
#     4  11  23  40  63  95 128 163 213 270 329 387
#     4  11  24  41  63  91 126 173 219 271 322 385
#     4  10  19  35  60  90 122 161 202 258 324 380
#     4  10  21  40  61  89 124 170 210 261 321 390
#     4  12  28  44  60  84 124 180 231 272 319 384
#     4  11  21  38  63  96 129 164 208 263 326 391
#
# _framework density 18.944154999999999
#
# number of rings (size 3 to 8) (size 9 to 14) (size 15 to 20)
#    0.000    1.500    4.167    1.000    2.333    1.667 
#    3.000    0.000    0.000    0.500    0.000    0.000 
#    0.000    0.000    0.000    0.000    0.000    0.000 
#
# Total GULP energy -267306.041243 kJ/mol
# GULP energy per Si atom -5568.875859 kJ/mol
# Density = 1.890104 g / cm^3
# Si number density = 18.944155 Si / 1000 Ang^3
#
#
#
# Elastic Constant Matrix: (Units=GPa)
#
#
# Indices 1 2 3 4 5 6 
#
# 1 52.2340 26.8357 27.5203 0.0000 0.0000 0.0000
# 2 26.8357 117.6311 45.0786 0.0000 0.0000 0.0000
# 3 27.5203 45.0786 85.5265 0.0000 0.0000 0.0000
# 4 0.0000 0.0000 0.0000 19.2636 0.0000 0.0000
# 5 0.0000 0.0000 0.0000 0.0000 31.1280 0.0000
# 6 0.0000 0.0000 0.0000 0.0000 0.0000 20.8044
#
#
#
# Elastic Compliance Matrix: (Units=1/GPa)
#
#
# Indices 1 2 3 4 5 6 
#
# 1 0.023947 -0.003146 -0.006048 0.000000 0.000000 0.000000
# 2 -0.003146 0.011066 -0.004820 0.000000 0.000000 0.000000
# 3 -0.006048 -0.004820 0.016179 0.000000 0.000000 0.000000
# 4 0.000000 0.000000 0.000000 0.051911 0.000000 0.000000
# 5 0.000000 0.000000 0.000000 0.000000 0.032125 0.000000
# 6 0.000000 0.000000 0.000000 0.000000 0.000000 0.048067
#
#
# Mechanical properties :
#
#
# Convention : Reuss Voigt Hill
#
# Bulk Modulus (GPa) = 43.16899 50.47344 46.82122
# Shear Modulus (GPa) = 22.82643 24.63634 23.73138
#
# Velocity S-wave (km/s) = 3.47498 3.61012 3.54319
# Velocity P-wave (km/s) = 6.24000 6.63916 6.44267
#
# Compressibility (1/GPa) = 0.02316477
#
# Stress axis : x y z
#
# Youngs Moduli (GPa) = 41.75897 90.36641 61.80868
#
# Poissons Ratio (x) = 0.28425 0.37379
# Poissons Ratio (y) = 0.13136 0.29795
# Poissons Ratio (z) = 0.25254 0.43561
#
# Static dielectric constant tensor:
#      x y z
#    x 1.699820 0.000000 0.000000 
#    y 0.000000 1.692490 0.000000 
#    z 0.000000 0.000000 1.697580 
# 
# From -- ./inp_files/53934.got.cif
#   From: 2010.05.17/outbox.cif.g08.bks.cpg/sg74_27_cif.got.tgz:53934.got - 2010.06.03 17:57:02.
