data_PCOD9535263
_publ_section_title
;
Structure prediction by ZEFSAII (Michael W. Deem and Ramdas Pophale) SiO2 
 PCOD9535263
Probable space group: I M M A
;
_chemical_formula_sum "Si O2"
_cell_formula_units_Z 80
_cell_length_a 14.094667
_cell_length_b 15.049494
_cell_length_c 21.129066
_cell_angle_alpha 90.000000
_cell_angle_beta 90.000000
_cell_angle_gamma 90.000000
_cell_volume 4481.846906
_symmetry_space_group_name_H-M "I M M A"
_symmetry_group_IT_number 74
_symmetry_cell_setting 'orthorhombic'
loop_
_space_group_symop_operation_xyz
x,y,z
-x,1/2-y,z
x,-y,-z
-x,1/2+y,-z
-x,-y,-z
x,1/2+y,-z
-x,y,z
x,1/2-y,z
1/2+x,1/2+y,1/2+z
1/2-x,-y,1/2+z
1/2+x,1/2-y,1/2-z
1/2-x,y,1/2-z
1/2-x,1/2-y,1/2-z
1/2+x,y,1/2-z
1/2-x,1/2+y,1/2+z
1/2+x,-y,1/2+z
loop_
_atom_site_type_symbol
_atom_site_label
_atom_site_fract_x
_atom_site_fract_y
_atom_site_fract_z
Si Si1 0.115254 0.352905 0.226837
Si Si2 0.385277 0.458067 0.149517
Si Si3 0.203073 0.399914 0.476781
Si Si4 0.607035 0.356725 0.413840
Si Si5 0.385776 0.346413 0.895112
O O1 0.145197 0.250000 0.234706
O O2 0.146720 0.414166 0.284706
O O3 0.138939 0.386931 0.156401
O O4 0.000000 0.351653 0.227606
O O5 0.500000 0.457301 0.148567
O O6 0.349642 0.398272 0.090718
O O7 0.355251 0.561407 0.138997
O O8 0.193357 0.500000 0.500000
O O9 0.312914 0.379550 0.464137
O O10 0.156567 0.346889 0.534065
O O11 0.500000 0.389034 0.427387
O O12 0.602346 0.250000 0.409391
O O13 0.500000 0.350890 0.899589
O O14 0.361198 0.250000 0.865456
#
# Coordination Sequence:
#
# PCOD9535263 Si02
#       5
#    16  16  16  16  16
#     4   8  15  28  45  66  92 118 143 177 222 267
#     4   9  17  29  44  65  93 120 147 180 219 266
#     4  10  19  29  43  65  90 119 151 183 218 261
#     4   9  18  32  47  64  88 116 148 187 226 263
#     4   9  17  29  45  66  93 122 149 179 216 260
#
# _framework density 17.849784
#
# number of rings (size 3 to 8) (size 9 to 14) (size 15 to 20)
#    0.000    3.000    0.000    2.400    0.000    5.200 
#    0.000    4.000    0.000    0.000    0.000   12.600 
#    0.000   11.200    0.000    0.000    0.000    0.000 
#
# Total GULP energy -222724.165731 kJ/mol
# GULP energy per Si atom -5568.104143 kJ/mol
# Density = 1.780916 g / cm^3
# Si number density = 17.849784 Si / 1000 Ang^3
#
#
#
# Elastic Constant Matrix: (Units=GPa)
#
#
# Indices 1 2 3 4 5 6 
#
# 1 27.4281 -10.9291 -10.2083 0.0000 0.0000 0.0000
# 2 -10.9291 52.1539 -1.3952 0.0000 0.0000 0.0000
# 3 -10.2083 -1.3952 27.9271 0.0000 0.0000 0.0000
# 4 0.0000 0.0000 0.0000 153.6715 0.0000 0.0000
# 5 0.0000 0.0000 0.0000 0.0000 16.3450 0.0000
# 6 0.0000 0.0000 0.0000 0.0000 0.0000 8.0246
#
#
#
# Elastic Compliance Matrix: (Units=1/GPa)
#
#
# Indices 1 2 3 4 5 6 
#
# 1 0.047205 0.010367 0.017773 0.000000 0.000000 0.000000
# 2 0.010367 0.021477 0.004863 0.000000 0.000000 0.000000
# 3 0.017773 0.004863 0.042547 0.000000 0.000000 0.000000
# 4 0.000000 0.000000 0.000000 0.006507 0.000000 0.000000
# 5 0.000000 0.000000 0.000000 0.000000 0.061181 0.000000
# 6 0.000000 0.000000 0.000000 0.000000 0.000000 0.124617
#
#
# Mechanical properties :
#
#
# Convention : Reuss Voigt Hill
#
# Bulk Modulus (GPa) = 5.64227 6.93823 6.29025
# Shear Modulus (GPa) = 16.85736 44.27764 30.56750
#
# Velocity S-wave (km/s) = 3.07645 4.98594 4.14271
# Velocity P-wave (km/s) = 3.97331 6.08617 5.13949
#
# Compressibility (1/GPa) = 0.17723363
#
# Stress axis : x y z
#
# Youngs Moduli (GPa) = 21.18436 46.56223 23.50343
#
# Poissons Ratio (x) = -0.48273 -0.41772
# Poissons Ratio (y) = -0.21963 -0.11429
# Poissons Ratio (z) = -0.37650 -0.22641
#
# Static dielectric constant tensor:
#      x y z
#    x 1.706880 0.000000 0.000000 
#    y 0.000000 1.630390 0.000000 
#    z 0.000000 0.000000 1.624180 
# 
# From -- ./inp_files/42670.got.cif
#   From: 2010.05.17/outbox.cif.g08.bks.cpg/sg74_22_cif.got.tgz:42670.got - 2010.06.03 17:57:02.
