data_PCOD9535328
_publ_section_title
;
Structure prediction by ZEFSAII (Michael W. Deem and Ramdas Pophale) SiO2 
 PCOD9535328
Probable space group: I M M A
;
_chemical_formula_sum "Si O2"
_cell_formula_units_Z 72
_cell_length_a 13.136701
_cell_length_b 14.777745
_cell_length_c 23.180633
_cell_angle_alpha 90.000000
_cell_angle_beta 90.000000
_cell_angle_gamma 90.000000
_cell_volume 4500.075235
_symmetry_space_group_name_H-M "I M M A"
_symmetry_group_IT_number 74
_symmetry_cell_setting 'orthorhombic'
loop_
_space_group_symop_operation_xyz
x,y,z
-x,1/2-y,z
x,-y,-z
-x,1/2+y,-z
-x,-y,-z
x,1/2+y,-z
-x,y,z
x,1/2-y,z
1/2+x,1/2+y,1/2+z
1/2-x,-y,1/2+z
1/2+x,1/2-y,1/2-z
1/2-x,y,1/2-z
1/2-x,1/2-y,1/2-z
1/2+x,y,1/2-z
1/2-x,1/2+y,1/2+z
1/2+x,-y,1/2+z
loop_
_atom_site_type_symbol
_atom_site_label
_atom_site_fract_x
_atom_site_fract_y
_atom_site_fract_z
Si Si1 0.302561 0.855216 0.589806
Si Si2 0.118724 0.644917 0.671601
Si Si3 0.250000 0.486068 0.250000
Si Si4 0.880548 0.857346 0.034661
Si Si5 0.382406 0.471683 0.647122
O O1 0.333528 0.750000 0.596598
O O2 0.188278 0.864238 0.614375
O O3 0.317651 0.879116 0.522852
O O4 0.368966 0.923791 0.627756
O O5 0.128272 0.750000 0.690402
O O6 0.168146 0.578622 0.718405
O O7 0.000000 0.625837 0.662106
O O8 0.309070 0.541997 0.298670
O O9 0.871775 0.750000 0.045530
O O10 0.000000 0.877068 0.022129
O O11 0.852043 0.912892 0.091371
O O12 0.500000 0.452571 0.660569
#
# Coordination Sequence:
#
# PCOD9535328 Si02
#       5
#    16  16   8  16  16
#     4   9  17  28  45  70  95 116 140 173 216 267
#     4   9  17  29  44  63  90 122 150 176 211 258
#     4  10  19  30  43  62  88 116 152 188 214 250
#     4   9  17  30  48  69  90 111 141 183 226 264
#     4  10  19  30  46  66  89 118 147 179 220 260
#
# _framework density 15.999733000000001
#
# number of rings (size 3 to 8) (size 9 to 14) (size 15 to 20)
#    0.000    2.667    0.000    2.333    0.000    4.000 
#    0.000    0.556    0.000   12.000    0.000    0.000 
#    0.000    0.000    0.000    0.000    0.000    0.000 
#
# Total GULP energy -200626.773716 kJ/mol
# GULP energy per Si atom -5572.965937 kJ/mol
# Density = 1.596332 g / cm^3
# Si number density = 15.999733 Si / 1000 Ang^3
#
#
#
# Elastic Constant Matrix: (Units=GPa)
#
#
# Indices 1 2 3 4 5 6 
#
# 1 50.6069 8.0559 29.6752 0.0000 0.0000 0.0000
# 2 8.0559 20.6745 20.3530 0.0000 0.0000 0.0000
# 3 29.6752 20.3530 90.6647 0.0000 0.0000 0.0000
# 4 0.0000 0.0000 0.0000 23.2847 0.0000 0.0000
# 5 0.0000 0.0000 0.0000 0.0000 23.0794 0.0000
# 6 0.0000 0.0000 0.0000 0.0000 0.0000 14.5956
#
#
#
# Elastic Compliance Matrix: (Units=1/GPa)
#
#
# Indices 1 2 3 4 5 6 
#
# 1 0.024526 -0.002123 -0.007551 0.000000 0.000000 0.000000
# 2 -0.002123 0.062274 -0.013285 0.000000 0.000000 0.000000
# 3 -0.007551 -0.013285 0.016483 0.000000 0.000000 0.000000
# 4 0.000000 0.000000 0.000000 0.042947 0.000000 0.000000
# 5 0.000000 0.000000 0.000000 0.000000 0.043329 0.000000
# 6 0.000000 0.000000 0.000000 0.000000 0.000000 0.068514
#
#
# Mechanical properties :
#
#
# Convention : Reuss Voigt Hill
#
# Bulk Modulus (GPa) = 17.43196 30.90157 24.16677
# Shear Modulus (GPa) = 15.47449 19.11607 17.29528
#
# Velocity S-wave (km/s) = 3.11331 3.46030 3.29138
# Velocity P-wave (km/s) = 4.88287 5.94312 5.43889
#
# Compressibility (1/GPa) = 0.05736589
#
# Stress axis : x y z
#
# Youngs Moduli (GPa) = 40.77334 16.05796 60.66731
#
# Poissons Ratio (x) = 0.03409 0.45809
# Poissons Ratio (y) = 0.08657 0.80595
# Poissons Ratio (z) = 0.30787 0.21333
#
# Static dielectric constant tensor:
#      x y z
#    x 1.525000 0.000000 0.000000 
#    y 0.000000 1.547810 0.000000 
#    z 0.000000 0.000000 1.537030 
# 
# From -- ./inp_files/42519.got.cif
#   From: 2010.05.17/outbox.cif.g08.bks.cpg/sg74_22_cif.got.tgz:42519.got - 2010.06.03 17:57:02.
