data_PCOD9535179
_publ_section_title
;
Structure prediction by ZEFSAII (Michael W. Deem and Ramdas Pophale) SiO2 
 PCOD9535179
Probable space group: I M M A
;
_chemical_formula_sum "Si O2"
_cell_formula_units_Z 104
_cell_length_a 23.848512
_cell_length_b 27.073023
_cell_length_c 7.603767
_cell_angle_alpha 90.000000
_cell_angle_beta 90.000000
_cell_angle_gamma 90.000000
_cell_volume 4909.382154
_symmetry_space_group_name_H-M "I M M A"
_symmetry_group_IT_number 74
_symmetry_cell_setting 'orthorhombic'
loop_
_space_group_symop_operation_xyz
x,y,z
-x,1/2-y,z
x,-y,-z
-x,1/2+y,-z
-x,-y,-z
x,1/2+y,-z
-x,y,z
x,1/2-y,z
1/2+x,1/2+y,1/2+z
1/2-x,-y,1/2+z
1/2+x,1/2-y,1/2-z
1/2-x,y,1/2-z
1/2-x,1/2-y,1/2-z
1/2+x,y,1/2-z
1/2-x,1/2+y,1/2+z
1/2+x,-y,1/2+z
loop_
_atom_site_type_symbol
_atom_site_label
_atom_site_fract_x
_atom_site_fract_y
_atom_site_fract_z
Si Si1 0.885723 0.647172 0.429822
Si Si2 0.813168 0.168634 0.251217
Si Si3 0.500000 0.808108 0.977332
Si Si4 0.066451 0.549823 0.614360
Si Si5 0.173766 0.447442 0.191309
Si Si6 0.882443 0.807317 0.088094
Si Si7 0.741910 0.500000 0.000000
Si Si8 0.000000 0.190129 0.073884
O O1 0.847258 0.675773 0.569636
O O2 0.945098 0.674412 0.425557
O O3 0.902834 0.592980 0.500262
O O4 0.860968 0.655212 0.236988
O O5 0.750000 0.186626 0.250000
O O6 0.813805 0.109121 0.235082
O O7 0.845452 0.190403 0.086189
O O8 0.500000 0.750000 0.967972
O O9 0.500000 0.827144 0.775869
O O10 0.068578 0.500000 0.500000
O O11 0.106747 0.545523 0.786873
O O12 0.000000 0.560248 0.646897
O O13 0.201009 0.484366 0.339502
O O14 0.210467 0.456871 0.014976
O O15 0.884656 0.750000 0.149346
O O16 0.943707 0.824708 0.023827
O O17 0.000000 0.250000 0.077275
#
# Coordination Sequence:
#
# PCOD9535179 Si02
#       8
#    16  16   8  16  16  16   8   8
#     4  11  23  40  66  95 127 176 223 274 334 402
#     4  11  24  44  61  94 133 175 217 279 340 399
#     4  11  19  37  68  96 125 169 219 272 336 392
#     4  10  21  38  59  90 134 172 205 255 338 408
#     4  10  21  39  63  96 124 166 218 278 320 389
#     4  11  24  42  67  97 132 174 227 281 333 408
#     4  10  18  38  66  90 118 160 232 268 318 370
#     4   9  19  37  63  96 126 162 216 276 324 387
#
# _framework density 21.183928999999999
#
# number of rings (size 3 to 8) (size 9 to 14) (size 15 to 20)
#    0.000    1.538    4.615    0.923    0.000    3.385 
#    2.769    1.154    0.000    0.000    0.000    0.000 
#    0.000    0.000    0.000    0.000    0.000    0.000 
#
# Total GULP energy -289702.192682 kJ/mol
# GULP energy per Si atom -5571.196013 kJ/mol
# Density = 2.113571 g / cm^3
# Si number density = 21.183929 Si / 1000 Ang^3
#
#
#
# Elastic Constant Matrix: (Units=GPa)
#
#
# Indices 1 2 3 4 5 6 
#
# 1 132.4700 13.7842 24.3659 0.0000 0.0000 0.0000
# 2 13.7842 60.4861 13.7866 0.0000 0.0000 0.0000
# 3 24.3659 13.7866 74.8785 0.0000 0.0000 0.0000
# 4 0.0000 0.0000 0.0000 21.5076 0.0000 0.0000
# 5 0.0000 0.0000 0.0000 0.0000 -26.7758 0.0000
# 6 0.0000 0.0000 0.0000 0.0000 0.0000 -1.0785
#
#
#
# Elastic Compliance Matrix: (Units=1/GPa)
#
#
# Indices 1 2 3 4 5 6 
#
# 1 0.008127 -0.001304 -0.002404 0.000000 0.000000 0.000000
# 2 -0.001304 0.017466 -0.002792 0.000000 0.000000 0.000000
# 3 -0.002404 -0.002792 0.014651 0.000000 0.000000 0.000000
# 4 0.000000 0.000000 0.000000 0.046495 0.000000 0.000000
# 5 0.000000 0.000000 0.000000 0.000000 -0.037347 0.000000
# 6 0.000000 0.000000 0.000000 0.000000 0.000000 -0.927231
#
#
# Mechanical properties :
#
#
# Convention : Reuss Voigt Hill
#
# Bulk Modulus (GPa) = 36.70472 41.30087 39.00279
# Shear Modulus (GPa) = -5.84278 13.12385 3.64054
#
# Velocity S-wave (km/s) = -1.66256 2.49171 1.31235
# Velocity P-wave (km/s) = 3.69849 5.27417 4.55498
#
# Compressibility (1/GPa) = 0.02724445
#
# Stress axis : x y z
#
# Youngs Moduli (GPa) = 123.04928 57.25359 68.25309
#
# Poissons Ratio (x) = 0.07466 0.16411
# Poissons Ratio (y) = 0.16045 0.19053
# Poissons Ratio (z) = 0.29586 0.15983
#
# Static dielectric constant tensor:
#      x y z
#    x 1.802080 0.000000 0.000000 
#    y 0.000000 1.789100 0.000000 
#    z 0.000000 0.000000 1.875580 
# 
# From -- ./inp_files/14187.got.cif
#   From: 2010.05.17/outbox.cif.g08.bks.cpg/sg74_8_cif.got.tgz:14187.got - 2010.06.03 17:57:02.
