data_PCOD9535984
_publ_section_title
;
Structure prediction by ZEFSAII (Michael W. Deem and Ramdas Pophale) SiO2 
 PCOD9535984
Probable space group: I M M A
;
_chemical_formula_sum "Si O2"
_cell_formula_units_Z 80
_cell_length_a 11.068582
_cell_length_b 23.343040
_cell_length_c 15.033162
_cell_angle_alpha 90.000000
_cell_angle_beta 90.000000
_cell_angle_gamma 90.000000
_cell_volume 3884.183496
_symmetry_space_group_name_H-M "I M M A"
_symmetry_group_IT_number 74
_symmetry_cell_setting 'orthorhombic'
loop_
_space_group_symop_operation_xyz
x,y,z
-x,1/2-y,z
x,-y,-z
-x,1/2+y,-z
-x,-y,-z
x,1/2+y,-z
-x,y,z
x,1/2-y,z
1/2+x,1/2+y,1/2+z
1/2-x,-y,1/2+z
1/2+x,1/2-y,1/2-z
1/2-x,y,1/2-z
1/2-x,1/2-y,1/2-z
1/2+x,y,1/2-z
1/2-x,1/2+y,1/2+z
1/2+x,-y,1/2+z
loop_
_atom_site_type_symbol
_atom_site_label
_atom_site_fract_x
_atom_site_fract_y
_atom_site_fract_z
Si Si1 0.867698 0.065999 0.027519
Si Si2 0.637049 0.357942 0.995460
Si Si3 0.368254 0.682481 0.202673
Si Si4 0.627307 0.039849 0.265803
Si Si5 0.865160 0.334245 0.307725
O O1 0.749678 0.098839 0.995332
O O2 0.870645 0.064760 0.134626
O O3 0.000000 0.088623 0.997218
O O4 0.860294 0.000000 0.000000
O O5 0.500000 0.383367 0.999651
O O6 0.649715 0.322737 0.087593
O O7 0.642914 0.323647 0.903694
O O8 0.500000 0.657834 0.228427
O O9 0.371682 0.750000 0.224632
O O10 0.250000 0.657293 0.250000
O O11 0.500000 0.009312 0.251751
O O12 0.750000 0.005660 0.250000
O O13 0.631821 0.096233 0.203646
O O14 0.750000 0.315005 0.250000
O O15 0.000000 0.315191 0.278913
#
# Coordination Sequence:
#
# PCOD9535984 Si02
#       5
#    16  16  16  16  16
#     4  10  20  32  46  70 104 140 178 218 259 304
#     4  10  19  32  53  79 104 132 172 218 264 315
#     4   9  19  37  60  83 106 135 174 221 275 332
#     4   9  15  26  44  64  88 124 168 206 240 287
#     4   9  15  25  45  72  96 125 166 203 239 291
#
# _framework density 20.596349
#
# number of rings (size 3 to 8) (size 9 to 14) (size 15 to 20)
#    0.000    2.600    4.000    0.000    0.000    1.200 
#    0.000    1.000    0.000    5.400    0.000    0.000 
#    0.000    0.000    0.000    0.000    0.000    0.000 
#
# Total GULP energy -222668.778609 kJ/mol
# GULP energy per Si atom -5566.719465 kJ/mol
# Density = 2.054947 g / cm^3
# Si number density = 20.596349 Si / 1000 Ang^3
#
#
#
# Elastic Constant Matrix: (Units=GPa)
#
#
# Indices 1 2 3 4 5 6 
#
# 1 269.2322 28.7033 41.9255 0.0000 0.0000 0.0000
# 2 28.7033 20.9507 -4.6496 0.0000 0.0000 0.0000
# 3 41.9255 -4.6496 73.5594 0.0000 0.0000 0.0000
# 4 0.0000 0.0000 0.0000 8.9028 0.0000 0.0000
# 5 0.0000 0.0000 0.0000 0.0000 34.9770 0.0000
# 6 0.0000 0.0000 0.0000 0.0000 0.0000 -24.5590
#
#
#
# Elastic Compliance Matrix: (Units=1/GPa)
#
#
# Indices 1 2 3 4 5 6 
#
# 1 0.005057 -0.007676 -0.003367 0.000000 0.000000 0.000000
# 2 -0.007676 0.060060 0.008171 0.000000 0.000000 0.000000
# 3 -0.003367 0.008171 0.016030 0.000000 0.000000 0.000000
# 4 0.000000 0.000000 0.000000 0.112325 0.000000 0.000000
# 5 0.000000 0.000000 0.000000 0.000000 0.028590 0.000000
# 6 0.000000 0.000000 0.000000 0.000000 0.000000 -0.040718
#
#
# Mechanical properties :
#
#
# Convention : Reuss Voigt Hill
#
# Bulk Modulus (GPa) = 13.26194 55.07784 34.16989
# Shear Modulus (GPa) = 23.56018 23.71504 23.63761
#
# Velocity S-wave (km/s) = 3.38583 3.39694 3.39139
# Velocity P-wave (km/s) = 4.66241 6.49501 5.65346
#
# Compressibility (1/GPa) = 0.07540376
#
# Stress axis : x y z
#
# Youngs Moduli (GPa) = 197.74783 16.64993 62.38221
#
# Poissons Ratio (x) = 0.12780 0.21007
# Poissons Ratio (y) = 1.51782 -0.50973
# Poissons Ratio (z) = 0.66589 -0.13605
#
# Static dielectric constant tensor:
#      x y z
#    x 1.847330 0.000000 0.000000 
#    y 0.000000 1.706900 0.000000 
#    z 0.000000 0.000000 1.849880 
# 
# From -- ./inp_files/30682.got.cif
#   From: 2010.05.17/outbox.cif.g08.bks.cpg/sg74_16_cif.got.tgz:30682.got - 2010.06.03 17:57:02.
