data_PCOD9535770
_publ_section_title
;
Structure prediction by ZEFSAII (Michael W. Deem and Ramdas Pophale) SiO2 
 PCOD9535770
Probable space group: I M M A
;
_chemical_formula_sum "Si O2"
_cell_formula_units_Z 112
_cell_length_a 11.094531
_cell_length_b 26.323491
_cell_length_c 20.238863
_cell_angle_alpha 90.000000
_cell_angle_beta 90.000000
_cell_angle_gamma 90.000000
_cell_volume 5910.694910
_symmetry_space_group_name_H-M "I M M A"
_symmetry_group_IT_number 74
_symmetry_cell_setting 'orthorhombic'
loop_
_space_group_symop_operation_xyz
x,y,z
-x,1/2-y,z
x,-y,-z
-x,1/2+y,-z
-x,-y,-z
x,1/2+y,-z
-x,y,z
x,1/2-y,z
1/2+x,1/2+y,1/2+z
1/2-x,-y,1/2+z
1/2+x,1/2-y,1/2-z
1/2-x,y,1/2-z
1/2-x,1/2-y,1/2-z
1/2+x,y,1/2-z
1/2-x,1/2+y,1/2+z
1/2+x,-y,1/2+z
loop_
_atom_site_type_symbol
_atom_site_label
_atom_site_fract_x
_atom_site_fract_y
_atom_site_fract_z
Si Si1 0.864497 0.833803 0.795059
Si Si2 0.638105 0.158948 0.551789
Si Si3 0.359816 0.688526 0.298191
Si Si4 0.867588 0.942592 0.975502
Si Si5 0.125826 0.947862 0.748749
Si Si6 0.270079 0.806388 0.922822
Si Si7 0.372933 0.912588 0.902087
O O1 0.750000 0.817128 0.750000
O O2 0.864076 0.895535 0.790587
O O3 0.836007 0.815580 0.868985
O O4 0.000000 0.817988 0.774263
O O5 0.500000 0.176127 0.542098
O O6 0.668393 0.170116 0.627407
O O7 0.642731 0.099130 0.533659
O O8 0.719693 0.185772 0.496627
O O9 0.500000 0.672980 0.281996
O O10 0.360257 0.750000 0.298386
O O11 0.250000 0.672284 0.250000
O O12 0.000000 0.932794 0.943600
O O13 0.749874 0.934295 0.931651
O O14 0.867503 0.000000 0.000000
O O15 0.250000 0.978290 0.750000
O O16 0.119952 0.928333 0.673761
O O17 0.000000 0.973824 0.766267
O O18 0.318514 0.750000 0.914363
O O19 0.360838 0.851957 0.907643
O O20 0.500000 0.928917 0.934248
#
# Coordination Sequence:
#
# PCOD9535770 Si02
#       7
#    16  16  16  16  16  16  16
#     4  10  19  32  46  64  95 138 188 235 273 311
#     4   9  18  33  54  80 109 140 174 220 272 321
#     4   9  17  31  53  81 112 144 175 207 250 314
#     4   9  19  36  59  85 107 132 173 222 272 326
#     4   9  16  29  46  65  92 129 176 224 265 307
#     4  11  21  32  48  73 106 145 189 233 271 311
#     4  10  20  35  51  72 102 138 177 220 273 324
#
# _framework density 18.948702999999998
#
# number of rings (size 3 to 8) (size 9 to 14) (size 15 to 20)
#    0.000    2.429    2.857    0.857    0.000    3.714 
#    0.000    2.857    0.000    4.286    0.000    4.000 
#    0.000    0.000    0.000    0.000    0.000    0.000 
#
# Total GULP energy -311810.665581 kJ/mol
# GULP energy per Si atom -5568.047600 kJ/mol
# Density = 1.890557 g / cm^3
# Si number density = 18.948703 Si / 1000 Ang^3
#
#
#
# Elastic Constant Matrix: (Units=GPa)
#
#
# Indices 1 2 3 4 5 6 
#
# 1 169.0515 19.3515 49.2352 0.0000 0.0000 0.0000
# 2 19.3515 37.3715 1.0644 0.0000 0.0000 0.0000
# 3 49.2352 1.0644 82.8895 0.0000 0.0000 0.0000
# 4 0.0000 0.0000 0.0000 -4.5158 0.0000 0.0000
# 5 0.0000 0.0000 0.0000 0.0000 23.8993 0.0000
# 6 0.0000 0.0000 0.0000 0.0000 0.0000 3.0577
#
#
#
# Elastic Compliance Matrix: (Units=1/GPa)
#
#
# Indices 1 2 3 4 5 6 
#
# 1 0.007667 -0.003842 -0.004505 0.000000 0.000000 0.000000
# 2 -0.003842 0.028693 0.001914 0.000000 0.000000 0.000000
# 3 -0.004505 0.001914 0.014716 0.000000 0.000000 0.000000
# 4 0.000000 0.000000 0.000000 -0.221447 0.000000 0.000000
# 5 0.000000 0.000000 0.000000 0.000000 0.041842 0.000000
# 6 0.000000 0.000000 0.000000 0.000000 0.000000 0.327038
#
#
# Mechanical properties :
#
#
# Convention : Reuss Voigt Hill
#
# Bulk Modulus (GPa) = 26.17145 47.62384 36.89764
# Shear Modulus (GPa) = 22.31022 19.13235 20.72129
#
# Velocity S-wave (km/s) = 3.43505 3.18101 3.31047
# Velocity P-wave (km/s) = 5.43824 6.21927 5.84183
#
# Compressibility (1/GPa) = 0.03820958
#
# Stress axis : x y z
#
# Youngs Moduli (GPa) = 130.42663 34.85144 67.95556
#
# Poissons Ratio (x) = 0.13389 0.30613
# Poissons Ratio (y) = 0.50108 -0.13004
# Poissons Ratio (z) = 0.58755 -0.06669
#
# Static dielectric constant tensor:
#      x y z
#    x 4.308720 0.000000 0.000000 
#    y 0.000000 1.640890 0.000000 
#    z 0.000000 0.000000 1.657450 
# 
# From -- ./inp_files/31210.got.cif
#   From: 2010.05.17/outbox.cif.g08.bks.cpg/sg74_16_cif.got.tgz:31210.got - 2010.06.03 17:57:02.
