data_PCOD9535668
_publ_section_title
;
Structure prediction by ZEFSAII (Michael W. Deem and Ramdas Pophale) SiO2 
 PCOD9535668
Probable space group: I M M A
;
_chemical_formula_sum "Si O2"
_cell_formula_units_Z 80
_cell_length_a 7.823023
_cell_length_b 18.595302
_cell_length_c 27.460041
_cell_angle_alpha 90.000000
_cell_angle_beta 90.000000
_cell_angle_gamma 90.000000
_cell_volume 3994.652674
_symmetry_space_group_name_H-M "I M M A"
_symmetry_group_IT_number 74
_symmetry_cell_setting 'orthorhombic'
loop_
_space_group_symop_operation_xyz
x,y,z
-x,1/2-y,z
x,-y,-z
-x,1/2+y,-z
-x,-y,-z
x,1/2+y,-z
-x,y,z
x,1/2-y,z
1/2+x,1/2+y,1/2+z
1/2-x,-y,1/2+z
1/2+x,1/2-y,1/2-z
1/2-x,y,1/2-z
1/2-x,1/2-y,1/2-z
1/2+x,y,1/2-z
1/2-x,1/2+y,1/2+z
1/2+x,-y,1/2+z
loop_
_atom_site_type_symbol
_atom_site_label
_atom_site_fract_x
_atom_site_fract_y
_atom_site_fract_z
Si Si1 0.300553 0.171313 0.956180
Si Si2 0.198434 0.130332 0.061864
Si Si3 0.708521 0.172547 0.330377
Si Si4 0.700977 0.526904 0.091593
Si Si5 0.795817 0.516202 0.802667
O O1 0.500000 0.173854 0.941912
O O2 0.224801 0.250000 0.945560
O O3 0.226543 0.101087 0.929736
O O4 0.291145 0.156990 0.013875
O O5 0.258529 0.164025 0.112872
O O6 0.000000 0.149378 0.056084
O O7 0.214933 0.044445 0.069054
O O8 0.500000 0.172176 0.328839
O O9 0.768046 0.250000 0.311547
O O10 0.767849 0.099372 0.305031
O O11 0.500000 0.522044 0.079298
O O12 0.722293 0.522504 0.149817
O O13 0.750000 0.485719 0.750000
O O14 0.000000 0.516874 0.808291
#
# Coordination Sequence:
#
# PCOD9535668 Si02
#       5
#    16  16  16  16  16
#     4  10  21  35  51  74 104 136 169 207 254 305
#     4  10  19  31  50  76 106 140 175 207 241 289
#     4   8  15  28  45  68 100 134 165 198 236 279
#     4  10  20  35  54  74 100 134 170 210 253 299
#     4  10  20  34  53  75  98 127 166 211 257 306
#
# _framework density 20.026772999999999
#
# number of rings (size 3 to 8) (size 9 to 14) (size 15 to 20)
#    0.000    2.400    0.000    4.200    0.000    5.600 
#    0.000    0.000    0.000   12.000    0.000    0.000 
#    0.000    0.000    0.000    0.000    0.000    0.000 
#
# Total GULP energy -223270.547893 kJ/mol
# GULP energy per Si atom -5581.763697 kJ/mol
# Density = 1.998119 g / cm^3
# Si number density = 20.026773 Si / 1000 Ang^3
#
#
#
# Elastic Constant Matrix: (Units=GPa)
#
#
# Indices 1 2 3 4 5 6 
#
# 1 31.3732 -7.4094 -15.0326 0.0000 0.0000 0.0000
# 2 -7.4094 95.7048 27.1851 0.0000 0.0000 0.0000
# 3 -15.0326 27.1851 61.8024 0.0000 0.0000 0.0000
# 4 0.0000 0.0000 0.0000 -2.3235 0.0000 0.0000
# 5 0.0000 0.0000 0.0000 0.0000 20.9971 0.0000
# 6 0.0000 0.0000 0.0000 0.0000 0.0000 7.5733
#
#
#
# Elastic Compliance Matrix: (Units=1/GPa)
#
#
# Indices 1 2 3 4 5 6 
#
# 1 0.036089 0.000343 0.008627 0.000000 0.000000 0.000000
# 2 0.000343 0.011944 -0.005170 0.000000 0.000000 0.000000
# 3 0.008627 -0.005170 0.020553 0.000000 0.000000 0.000000
# 4 0.000000 0.000000 0.000000 -0.430378 0.000000 0.000000
# 5 0.000000 0.000000 0.000000 0.000000 0.047626 0.000000
# 6 0.000000 0.000000 0.000000 0.000000 0.000000 0.132043
#
#
# Mechanical properties :
#
#
# Convention : Reuss Voigt Hill
#
# Bulk Modulus (GPa) = 13.12558 22.04072 17.58315
# Shear Modulus (GPa) = -30.42706 17.52520 -6.45093
#
# Velocity S-wave (km/s) = -3.90207 2.96140 -1.79670
# Velocity P-wave (km/s) = 3.70585 4.76683 2.12007
#
# Compressibility (1/GPa) = 0.07618708
#
# Stress axis : x y z
#
# Youngs Moduli (GPa) = 27.70916 83.72400 48.65398
#
# Poissons Ratio (x) = -0.02876 -0.41974
# Poissons Ratio (y) = -0.00952 0.25155
# Poissons Ratio (z) = -0.23905 0.43288
#
# Static dielectric constant tensor:
#      x y z
#    x 1.731370 0.000000 0.000000 
#    y 0.000000 1.744900 0.000000 
#    z 0.000000 0.000000 1.688040 
# 
# From -- ./inp_files/63911.got.cif
#   From: 2010.05.17/outbox.cif.g08.bks.cpg/sg74_32_cif.got.tgz:63911.got - 2010.06.03 17:57:02.
