data_PCOD9535895
_publ_section_title
;
Structure prediction by ZEFSAII (Michael W. Deem and Ramdas Pophale) SiO2 
 PCOD9535895
Probable space group: I M M A
;
_chemical_formula_sum "Si O2"
_cell_formula_units_Z 96
_cell_length_a 7.519880
_cell_length_b 21.399473
_cell_length_c 28.940564
_cell_angle_alpha 90.000000
_cell_angle_beta 90.000000
_cell_angle_gamma 90.000000
_cell_volume 4657.158073
_symmetry_space_group_name_H-M "I M M A"
_symmetry_group_IT_number 74
_symmetry_cell_setting 'orthorhombic'
loop_
_space_group_symop_operation_xyz
x,y,z
-x,1/2-y,z
x,-y,-z
-x,1/2+y,-z
-x,-y,-z
x,1/2+y,-z
-x,y,z
x,1/2-y,z
1/2+x,1/2+y,1/2+z
1/2-x,-y,1/2+z
1/2+x,1/2-y,1/2-z
1/2-x,y,1/2-z
1/2-x,1/2-y,1/2-z
1/2+x,y,1/2-z
1/2-x,1/2+y,1/2+z
1/2+x,-y,1/2+z
loop_
_atom_site_type_symbol
_atom_site_label
_atom_site_fract_x
_atom_site_fract_y
_atom_site_fract_z
Si Si1 0.213201 0.183868 0.804166
Si Si2 0.213371 0.404566 0.469650
Si Si3 0.796488 0.051413 0.831574
Si Si4 0.210562 0.820757 0.882376
Si Si5 0.213700 0.584305 0.803280
Si Si6 0.715738 0.955990 0.063329
O O1 0.279600 0.250000 0.824665
O O2 0.250000 0.186953 0.750000
O O3 0.289586 0.117206 0.818580
O O4 0.000000 0.182640 0.812483
O O5 0.269912 0.353022 0.432616
O O6 0.272420 0.407493 0.523230
O O7 0.263369 0.473322 0.451214
O O8 0.000000 0.402004 0.470641
O O9 0.795702 0.052549 0.886717
O O10 0.000000 0.052174 0.813779
O O11 0.717315 0.985965 0.813779
O O12 0.283207 0.750000 0.881352
O O13 0.281517 0.866749 0.841950
O O14 0.000000 0.816083 0.873932
O O15 0.250000 0.601475 0.750000
O O16 0.000000 0.581791 0.809076
O O17 0.500000 0.953537 0.066596
#
# Coordination Sequence:
#
# PCOD9535895 Si02
#       6
#    16  16  16  16  16  16
#     4   9  18  32  49  70  98 132 169 207 249 302
#     4   9  18  34  54  78 104 132 168 210 255 306
#     4  10  19  32  51  77 105 136 171 210 257 307
#     4  10  21  37  55  76 106 141 177 220 266 312
#     4  10  21  35  51  75 104 135 176 222 264 309
#     4   9  18  32  53  79 105 130 164 210 256 303
#
# _framework density 20.613430999999999
#
# number of rings (size 3 to 8) (size 9 to 14) (size 15 to 20)
#    0.000    2.500    1.667    1.500    0.000    3.333 
#    0.000    2.500    0.000    3.000    0.000    0.000 
#    0.000    0.000    0.000    0.000    0.000    0.000 
#
# Total GULP energy -267465.215502 kJ/mol
# GULP energy per Si atom -5572.191990 kJ/mol
# Density = 2.056651 g / cm^3
# Si number density = 20.613431 Si / 1000 Ang^3
#
#
#
# Elastic Constant Matrix: (Units=GPa)
#
#
# Indices 1 2 3 4 5 6 
#
# 1 52.9767 9.7406 -12.2263 0.0000 0.0000 0.0000
# 2 9.7406 155.7514 40.2420 0.0000 0.0000 0.0000
# 3 -12.2263 40.2420 70.5554 0.0000 0.0000 0.0000
# 4 0.0000 0.0000 0.0000 19.3492 0.0000 0.0000
# 5 0.0000 0.0000 0.0000 0.0000 24.1611 0.0000
# 6 0.0000 0.0000 0.0000 0.0000 0.0000 8.0431
#
#
#
# Elastic Compliance Matrix: (Units=1/GPa)
#
#
# Indices 1 2 3 4 5 6 
#
# 1 0.020511 -0.002581 0.005027 0.000000 0.000000 0.000000
# 2 -0.002581 0.007855 -0.004928 0.000000 0.000000 0.000000
# 3 0.005027 -0.004928 0.017855 0.000000 0.000000 0.000000
# 4 0.000000 0.000000 0.000000 0.051682 0.000000 0.000000
# 5 0.000000 0.000000 0.000000 0.000000 0.041389 0.000000
# 6 0.000000 0.000000 0.000000 0.000000 0.000000 0.124330
#
#
# Mechanical properties :
#
#
# Convention : Reuss Voigt Hill
#
# Bulk Modulus (GPa) = 24.23889 39.42177 31.83033
# Shear Modulus (GPa) = 17.70922 26.41247 22.06085
#
# Velocity S-wave (km/s) = 2.93424 3.58344 3.27497
# Velocity P-wave (km/s) = 4.82328 6.02389 5.45670
#
# Compressibility (1/GPa) = 0.04125602
#
# Stress axis : x y z
#
# Youngs Moduli (GPa) = 48.75444 127.30609 56.00733
#
# Poissons Ratio (x) = 0.32864 -0.28153
# Poissons Ratio (y) = 0.12586 0.27598
# Poissons Ratio (z) = -0.24507 0.62731
#
# Static dielectric constant tensor:
#      x y z
#    x 1.754270 0.000000 0.000000 
#    y 0.000000 1.790080 0.000000 
#    z 0.000000 0.000000 1.722430 
# 
# From -- ./inp_files/64259.got.cif
#   From: 2010.05.17/outbox.cif.g08.bks.cpg/sg74_33_cif.got.tgz:64259.got - 2010.06.03 17:57:02.
