data_PCOD9535765
_publ_section_title
;
Structure prediction by ZEFSAII (Michael W. Deem and Ramdas Pophale) SiO2 
 PCOD9535765
Probable space group: I M M A
;
_chemical_formula_sum "Si O2"
_cell_formula_units_Z 116
_cell_length_a 14.610487
_cell_length_b 30.070588
_cell_length_c 11.842927
_cell_angle_alpha 90.000000
_cell_angle_beta 90.000000
_cell_angle_gamma 90.000000
_cell_volume 5203.141837
_symmetry_space_group_name_H-M "I M M A"
_symmetry_group_IT_number 74
_symmetry_cell_setting 'orthorhombic'
loop_
_space_group_symop_operation_xyz
x,y,z
-x,1/2-y,z
x,-y,-z
-x,1/2+y,-z
-x,-y,-z
x,1/2+y,-z
-x,y,z
x,1/2-y,z
1/2+x,1/2+y,1/2+z
1/2-x,-y,1/2+z
1/2+x,1/2-y,1/2-z
1/2-x,y,1/2-z
1/2-x,1/2-y,1/2-z
1/2+x,y,1/2-z
1/2-x,1/2+y,1/2+z
1/2+x,-y,1/2+z
loop_
_atom_site_type_symbol
_atom_site_label
_atom_site_fract_x
_atom_site_fract_y
_atom_site_fract_z
Si Si1 0.715773 0.099559 0.634296
Si Si2 0.891713 0.324273 0.221051
Si Si3 0.598868 0.398747 0.992118
Si Si4 0.394033 0.578095 0.747358
Si Si5 0.000000 0.250000 0.875931
Si Si6 0.607685 0.489800 0.633140
Si Si7 0.351506 0.814070 0.468671
Si Si8 0.648181 0.201817 0.035229
O O1 0.750000 0.122075 0.750000
O O2 0.809309 0.087734 0.570207
O O3 0.660547 0.055128 0.660124
O O4 0.654684 0.133920 0.563074
O O5 0.854465 0.374667 0.208826
O O6 0.885427 0.304567 0.096580
O O7 0.843060 0.301899 0.327929
O O8 0.000000 0.325458 0.252541
O O9 0.500000 0.411655 0.942411
O O10 0.604659 0.418760 0.117808
O O11 0.601490 0.344764 0.002399
O O12 0.500000 0.578635 0.707111
O O13 0.354553 0.532994 0.698421
O O14 0.080843 0.211588 0.886776
O O15 0.615176 0.500000 0.500000
O O16 0.500000 0.484178 0.660526
O O17 0.246000 0.799495 0.474072
O O18 0.605227 0.250000 0.010583
#
# Coordination Sequence:
#
# PCOD9535765 Si02
#       8
#    16  16  16  16   4  16  16  16
#     4  11  26  44  65  91 118 162 213 276 329 379
#     4  10  19  31  55  90 131 172 202 241 298 372
#     4   9  20  41  64  88 124 165 207 260 319 373
#     4   8  16  34  58  88 125 168 205 240 294 360
#     4  12  24  40  64  88 116 174 206 260 326 396
#     4  10  21  38  65 100 137 169 203 243 302 379
#     4  11  23  39  57  85 125 159 208 258 316 377
#     4  10  20  33  56  91 131 166 203 249 301 370
#
# _framework density 22.294222000000001
#
# number of rings (size 3 to 8) (size 9 to 14) (size 15 to 20)
#    0.000    2.069    1.379    2.483    1.931    4.414 
#    0.000    3.103    0.000    2.897    0.000    0.000 
#    0.000    0.000    0.000    0.000    0.000    0.000 
#
# Total GULP energy -323322.879840 kJ/mol
# GULP energy per Si atom -5574.532411 kJ/mol
# Density = 2.224348 g / cm^3
# Si number density = 22.294222 Si / 1000 Ang^3
#
#
#
# Elastic Constant Matrix: (Units=GPa)
#
#
# Indices 1 2 3 4 5 6 
#
# 1 97.2419 37.1462 8.9693 0.0000 0.0000 0.0000
# 2 37.1462 129.0665 10.7587 -0.0001 0.0000 0.0000
# 3 8.9693 10.7587 23.8151 0.0005 -0.0001 0.0004
# 4 0.0000 -0.0001 0.0005 0.8483 -0.0001 0.0002
# 5 0.0000 0.0000 -0.0001 -0.0001 11.7124 0.0000
# 6 0.0000 0.0000 0.0004 0.0002 0.0000 3.7909
#
#
#
# Elastic Compliance Matrix: (Units=1/GPa)
#
#
# Indices 1 2 3 4 5 6 
#
# 1 0.011758 -0.003133 -0.003013 0.000001 0.000000 0.000000
# 2 -0.003133 0.008886 -0.002834 0.000003 0.000000 0.000000
# 3 -0.003013 -0.002834 0.044405 -0.000025 0.000000 -0.000004
# 4 0.000001 0.000003 -0.000025 1.178809 0.000012 -0.000055
# 5 0.000000 0.000000 0.000000 0.000012 0.085379 -0.000001
# 6 0.000000 0.000000 -0.000004 -0.000055 -0.000001 0.263791
#
#
# Mechanical properties :
#
#
# Convention : Reuss Voigt Hill
#
# Bulk Modulus (GPa) = 21.23647 40.43022 30.83334
# Shear Modulus (GPa) = 3.07374 16.15362 9.61368
#
# Velocity S-wave (km/s) = 1.17546 2.69470 2.07883
# Velocity P-wave (km/s) = 3.37469 5.27788 4.42970
#
# Compressibility (1/GPa) = 0.04708881
#
# Stress axis : x y z
#
# Youngs Moduli (GPa) = 85.04606 112.53790 22.51979
#
# Poissons Ratio (x) = 0.35258 0.06785
# Poissons Ratio (y) = 0.26645 0.06383
# Poissons Ratio (z) = 0.25625 0.31897
#
# Static dielectric constant tensor:
#      x y z
#    x 1.832840 0.000000 0.000000 
#    y 0.000000 1.846140 0.000000 
#    z 0.000000 0.000000 1.840000 
# 
# From -- ./inp_files/22822.got.cif
#   From: 2010.05.17/outbox.cif.g08.bks.cpg/sg74_12_cif.got.tgz:22822.got - 2010.06.03 17:57:02.
