data_PCOD9535845
_publ_section_title
;
Structure prediction by ZEFSAII (Michael W. Deem and Ramdas Pophale) SiO2 
 PCOD9535845
Probable space group: I M M A
;
_chemical_formula_sum "Si O2"
_cell_formula_units_Z 128
_cell_length_a 8.098904
_cell_length_b 25.751401
_cell_length_c 30.199363
_cell_angle_alpha 90.000000
_cell_angle_beta 90.000000
_cell_angle_gamma 90.000000
_cell_volume 6298.322510
_symmetry_space_group_name_H-M "I M M A"
_symmetry_group_IT_number 74
_symmetry_cell_setting 'orthorhombic'
loop_
_space_group_symop_operation_xyz
x,y,z
-x,1/2-y,z
x,-y,-z
-x,1/2+y,-z
-x,-y,-z
x,1/2+y,-z
-x,y,z
x,1/2-y,z
1/2+x,1/2+y,1/2+z
1/2-x,-y,1/2+z
1/2+x,1/2-y,1/2-z
1/2-x,y,1/2-z
1/2-x,1/2-y,1/2-z
1/2+x,y,1/2-z
1/2-x,1/2+y,1/2+z
1/2+x,-y,1/2+z
loop_
_atom_site_type_symbol
_atom_site_label
_atom_site_fract_x
_atom_site_fract_y
_atom_site_fract_z
Si Si1 0.798222 0.102363 0.602446
Si Si2 0.310774 0.382436 0.046976
Si Si3 0.702115 0.310253 0.967113
Si Si4 0.698841 0.916154 0.201964
Si Si5 0.686072 0.308715 0.200449
Si Si6 0.302929 0.964431 0.797868
Si Si7 0.809197 0.003464 0.446723
Si Si8 0.683346 0.116584 0.366390
O O1 0.749052 0.152954 0.574113
O O2 0.746893 0.105649 0.654007
O O3 0.743268 0.048456 0.577631
O O4 0.000000 0.100931 0.601403
O O5 0.500000 0.392706 0.032542
O O6 0.232144 0.439150 0.057359
O O7 0.303052 0.360615 0.096140
O O8 0.242644 0.343205 0.010461
O O9 0.500000 0.308418 0.967966
O O10 0.757514 0.250000 0.965910
O O11 0.500000 0.915798 0.201506
O O12 0.750000 0.893486 0.250000
O O13 0.757376 0.976090 0.201601
O O14 0.500000 0.386790 0.384267
O O15 0.681399 0.250000 0.183834
O O16 0.750000 0.307523 0.250000
O O17 0.808963 0.342606 0.172795
O O18 0.500000 0.964448 0.799600
O O19 0.250000 0.941654 0.750000
O O20 0.238312 0.935656 0.841329
O O21 0.000000 0.007071 0.430685
O O22 0.810993 0.000000 0.500000
O O23 0.000000 0.169149 0.301527
#
# Coordination Sequence:
#
# PCOD9535845 Si02
#       8
#    16  16  16  16  16  16  16  16
#     4   9  15  26  46  74 103 133 169 209 256 308
#     4  10  19  32  50  74 102 132 170 215 260 309
#     4   9  17  29  48  76 105 129 160 210 268 318
#     4   9  18  31  50  76 106 138 172 208 248 300
#     4  10  21  38  58  76  94 121 164 218 269 313
#     4  10  19  33  51  74 103 136 172 211 255 305
#     4   9  14  24  46  75 101 127 163 210 257 302
#     4  12  24  35  49  71 102 138 173 208 253 307
#
# _framework density 20.322872
#
# number of rings (size 3 to 8) (size 9 to 14) (size 15 to 20)
#    0.000    2.250    1.250    3.000    0.000    3.750 
#    0.000    1.250    0.000    1.500    0.000    0.000 
#    0.000    0.000    0.000    0.000    0.000    0.000 
#
# Total GULP energy -356437.978039 kJ/mol
# GULP energy per Si atom -5569.343407 kJ/mol
# Density = 2.027662 g / cm^3
# Si number density = 20.322872 Si / 1000 Ang^3
#
#
#
# Elastic Constant Matrix: (Units=GPa)
#
#
# Indices 1 2 3 4 5 6 
#
# 1 37.3734 8.4064 4.5684 0.0000 0.0000 0.0000
# 2 8.4064 115.3028 66.0474 0.0000 0.0000 0.0000
# 3 4.5684 66.0474 147.0492 0.0000 0.0000 0.0000
# 4 0.0000 0.0000 0.0000 44.5515 0.0000 0.0000
# 5 0.0000 0.0000 0.0000 0.0000 16.1813 0.0000
# 6 0.0000 0.0000 0.0000 0.0000 0.0000 6.4857
#
#
#
# Elastic Compliance Matrix: (Units=1/GPa)
#
#
# Indices 1 2 3 4 5 6 
#
# 1 0.027204 -0.002019 0.000062 0.000000 0.000000 0.000000
# 2 -0.002019 0.011827 -0.005249 0.000000 0.000000 0.000000
# 3 0.000062 -0.005249 0.009156 0.000000 0.000000 0.000000
# 4 0.000000 0.000000 0.000000 0.022446 0.000000 0.000000
# 5 0.000000 0.000000 0.000000 0.000000 0.061800 0.000000
# 6 0.000000 0.000000 0.000000 0.000000 0.000000 0.154185
#
#
# Mechanical properties :
#
#
# Convention : Reuss Voigt Hill
#
# Bulk Modulus (GPa) = 29.60867 50.86331 40.23599
# Shear Modulus (GPa) = 16.01086 28.15724 22.08405
#
# Velocity S-wave (km/s) = 2.80987 3.72626 3.30003
# Velocity P-wave (km/s) = 5.01277 6.60268 5.86188
#
# Compressibility (1/GPa) = 0.03377389
#
# Stress axis : x y z
#
# Youngs Moduli (GPa) = 36.75992 84.55289 109.21444
#
# Poissons Ratio (x) = 0.17068 -0.00672
# Poissons Ratio (y) = 0.07420 0.57331
# Poissons Ratio (z) = -0.00226 0.44385
#
# Static dielectric constant tensor:
#      x y z
#    x 1.772580 0.000000 0.000000 
#    y 0.000000 1.782260 0.000000 
#    z 0.000000 0.000000 1.855210 
# 
# From -- ./inp_files/59297.got.cif
#   From: 2010.05.17/outbox.cif.g08.bks.cpg/sg74_30_cif.got.tgz:59297.got - 2010.06.03 17:57:02.
