data_PCOD9535404
_publ_section_title
;
Structure prediction by ZEFSAII (Michael W. Deem and Ramdas Pophale) SiO2 
 PCOD9535404
Probable space group: I M M A
;
_chemical_formula_sum "Si O2"
_cell_formula_units_Z 72
_cell_length_a 21.904779
_cell_length_b 8.912505
_cell_length_c 19.780823
_cell_angle_alpha 90.000000
_cell_angle_beta 90.000000
_cell_angle_gamma 90.000000
_cell_volume 3861.739899
_symmetry_space_group_name_H-M "I M M A"
_symmetry_group_IT_number 74
_symmetry_cell_setting 'orthorhombic'
loop_
_space_group_symop_operation_xyz
x,y,z
-x,1/2-y,z
x,-y,-z
-x,1/2+y,-z
-x,-y,-z
x,1/2+y,-z
-x,y,z
x,1/2-y,z
1/2+x,1/2+y,1/2+z
1/2-x,-y,1/2+z
1/2+x,1/2-y,1/2-z
1/2-x,y,1/2-z
1/2-x,1/2-y,1/2-z
1/2+x,y,1/2-z
1/2-x,1/2+y,1/2+z
1/2+x,-y,1/2+z
loop_
_atom_site_type_symbol
_atom_site_label
_atom_site_fract_x
_atom_site_fract_y
_atom_site_fract_z
Si Si1 0.892958 0.425621 0.164739
Si Si2 0.825080 0.081636 0.567255
Si Si3 0.313857 0.430967 0.213010
Si Si4 0.000000 0.429178 0.924073
Si Si5 0.319413 0.419138 0.564902
O O1 0.907944 0.250000 0.162570
O O2 0.872733 0.469008 0.240080
O O3 0.831294 0.464482 0.124336
O O4 0.943011 0.515653 0.121973
O O5 0.850275 0.250000 0.573701
O O6 0.752382 0.095851 0.554750
O O7 0.850183 0.000000 0.500000
O O8 0.826529 0.996217 0.638783
O O9 0.309896 0.250000 0.209476
O O10 0.250000 0.482712 0.250000
O O11 0.000000 0.250000 0.931117
O O12 0.000000 0.500000 0.000000
O O13 0.347799 0.500000 0.500000
O O14 0.343162 0.250000 0.576241
#
# Coordination Sequence:
#
# PCOD9535404 Si02
#       5
#    16  16  16   8  16
#     4  11  22  37  57  79 108 146 189 236 286 338
#     4  10  20  32  50  75 109 147 185 226 273 335
#     4  10  20  35  55  81 113 148 186 232 288 347
#     4  12  26  44  62  82 113 152 201 248 288 336
#     4  10  19  30  46  71 103 142 184 226 272 325
#
# _framework density 18.644445999999999
#
# number of rings (size 3 to 8) (size 9 to 14) (size 15 to 20)
#    0.000    1.556    2.222    3.667    0.000    4.000 
#    0.000    0.000    0.000    0.000    0.000    0.778 
#    0.000    0.000    0.000    0.000    0.000    0.000 
#
# Total GULP energy -200432.299350 kJ/mol
# GULP energy per Si atom -5567.563871 kJ/mol
# Density = 1.860201 g / cm^3
# Si number density = 18.644446 Si / 1000 Ang^3
#
#
#
# Elastic Constant Matrix: (Units=GPa)
#
#
# Indices 1 2 3 4 5 6 
#
# 1 39.7249 34.4253 31.8771 0.0000 0.0000 0.0000
# 2 34.4253 66.6080 64.3124 0.0000 0.0000 0.0000
# 3 31.8771 64.3124 175.7045 0.0000 0.0000 0.0000
# 4 0.0000 0.0000 0.0000 27.0590 0.0000 0.0000
# 5 0.0000 0.0000 0.0000 0.0000 0.4012 0.0000
# 6 0.0000 0.0000 0.0000 0.0000 0.0000 18.5142
#
#
#
# Elastic Compliance Matrix: (Units=1/GPa)
#
#
# Indices 1 2 3 4 5 6 
#
# 1 0.045628 -0.024110 0.000547 0.000000 0.000000 0.000000
# 2 -0.024110 0.035959 -0.008788 0.000000 0.000000 0.000000
# 3 0.000547 -0.008788 0.008809 0.000000 0.000000 0.000000
# 4 0.000000 0.000000 0.000000 0.036956 0.000000 0.000000
# 5 0.000000 0.000000 0.000000 0.000000 2.492745 0.000000
# 6 0.000000 0.000000 0.000000 0.000000 0.000000 0.054013
#
#
# Mechanical properties :
#
#
# Convention : Reuss Voigt Hill
#
# Bulk Modulus (GPa) = 38.92010 60.36303 49.64156
# Shear Modulus (GPa) = 1.81992 19.28973 10.55482
#
# Velocity S-wave (km/s) = 0.98906 3.22002 2.38189
# Velocity P-wave (km/s) = 4.71429 6.80227 5.85216
#
# Compressibility (1/GPa) = 0.02569366
#
# Stress axis : x y z
#
# Youngs Moduli (GPa) = 21.91647 27.80948 113.52411
#
# Poissons Ratio (x) = 0.67049 -0.06208
# Poissons Ratio (y) = 0.52841 0.99762
# Poissons Ratio (z) = -0.01199 0.24438
#
# Static dielectric constant tensor:
#      x y z
#    x 1.710660 0.000000 0.000000 
#    y 0.000000 1.674580 0.000000 
#    z 0.000000 0.000000 1.720500 
# 
# From -- ./inp_files/39418.got.cif
#   From: 2010.05.17/outbox.cif.g08.bks.cpg/sg74_20_cif.got.tgz:39418.got - 2010.06.03 17:57:02.
