data_PCOD9535735
_publ_section_title
;
Structure prediction by ZEFSAII (Michael W. Deem and Ramdas Pophale) SiO2 
 PCOD9535735
Probable space group: I M M A
;
_chemical_formula_sum "Si O2"
_cell_formula_units_Z 112
_cell_length_a 13.381553
_cell_length_b 30.617126
_cell_length_c 12.632341
_cell_angle_alpha 90.000000
_cell_angle_beta 90.000000
_cell_angle_gamma 90.000000
_cell_volume 5175.529407
_symmetry_space_group_name_H-M "I M M A"
_symmetry_group_IT_number 74
_symmetry_cell_setting 'orthorhombic'
loop_
_space_group_symop_operation_xyz
x,y,z
-x,1/2-y,z
x,-y,-z
-x,1/2+y,-z
-x,-y,-z
x,1/2+y,-z
-x,y,z
x,1/2-y,z
1/2+x,1/2+y,1/2+z
1/2-x,-y,1/2+z
1/2+x,1/2-y,1/2-z
1/2-x,y,1/2-z
1/2-x,1/2-y,1/2-z
1/2+x,y,1/2-z
1/2-x,1/2+y,1/2+z
1/2+x,-y,1/2+z
loop_
_atom_site_type_symbol
_atom_site_label
_atom_site_fract_x
_atom_site_fract_y
_atom_site_fract_z
Si Si1 0.269991 0.201779 0.126720
Si Si2 0.878357 0.892709 0.045027
Si Si3 0.621506 0.073659 0.319177
Si Si4 0.121662 0.958769 0.430519
Si Si5 0.121837 0.974033 0.188323
Si Si6 0.119837 0.202441 0.944112
Si Si7 0.119958 0.614470 0.592770
O O1 0.315982 0.250000 0.112873
O O2 0.250000 0.195059 0.250000
O O3 0.338115 0.162899 0.086209
O O4 0.167152 0.202369 0.061171
O O5 0.847135 0.935926 0.108301
O O6 0.848299 0.845903 0.095728
O O7 0.000000 0.892985 0.046523
O O8 0.849560 0.897672 0.921159
O O9 0.500000 0.073384 0.317667
O O10 0.651059 0.091552 0.203704
O O11 0.653509 0.023539 0.336423
O O12 0.150819 0.962991 0.308652
O O13 0.148879 0.914967 0.492600
O O14 0.000000 0.960430 0.430248
O O15 0.155462 0.000000 0.500000
O O16 0.000000 0.974727 0.184578
O O17 0.150539 0.250000 0.896007
O O18 0.000000 0.202464 0.946649
O O19 0.000000 0.615987 0.595303
#
# Coordination Sequence:
#
# PCOD9535735 Si02
#       7
#    16  16  16  16  16  16  16
#     4  10  21  35  52  76 105 138 174 215 266 318
#     4   9  16  25  43  73 102 129 166 214 269 318
#     4   9  15  24  40  69 105 138 171 209 257 308
#     4   9  15  27  47  73 103 140 183 215 245 297
#     4   9  15  24  42  71 105 136 173 215 253 304
#     4   9  18  34  54  74  99 132 172 220 271 320
#     4  10  19  31  52  79 108 143 178 212 252 304
#
# _framework density 21.640298000000001
#
# number of rings (size 3 to 8) (size 9 to 14) (size 15 to 20)
#    0.000    2.714    1.429    1.286    0.000    3.714 
#    0.000    1.429    0.000    5.143    0.000    6.000 
#    0.000    0.000    0.000    0.000    0.000    0.000 
#
# Total GULP energy -312822.029706 kJ/mol
# GULP energy per Si atom -5586.107673 kJ/mol
# Density = 2.159104 g / cm^3
# Si number density = 21.640298 Si / 1000 Ang^3
#
#
#
# Elastic Constant Matrix: (Units=GPa)
#
#
# Indices 1 2 3 4 5 6 
#
# 1 52.9107 10.2469 4.2282 0.0000 0.0000 0.0000
# 2 10.2469 208.0729 47.5640 0.0000 0.0000 0.0000
# 3 4.2282 47.5640 70.0363 0.0003 0.0006 0.0001
# 4 0.0000 0.0000 0.0003 27.0811 -0.0001 0.0000
# 5 0.0000 0.0000 0.0006 -0.0001 29.9987 0.0000
# 6 0.0000 0.0000 0.0001 0.0000 0.0000 29.6933
#
#
#
# Elastic Compliance Matrix: (Units=1/GPa)
#
#
# Indices 1 2 3 4 5 6 
#
# 1 0.019104 -0.000802 -0.000609 0.000000 0.000000 0.000000
# 2 -0.000802 0.005723 -0.003838 0.000000 0.000000 0.000000
# 3 -0.000609 -0.003838 0.016922 0.000000 0.000000 0.000000
# 4 0.000000 0.000000 0.000000 0.036926 0.000000 0.000000
# 5 0.000000 0.000000 0.000000 0.000000 0.033335 0.000000
# 6 0.000000 0.000000 0.000000 0.000000 0.000000 0.033678
#
#
# Mechanical properties :
#
#
# Convention : Reuss Voigt Hill
#
# Bulk Modulus (GPa) = 31.99920 50.56647 41.28283
# Shear Modulus (GPa) = 30.01181 35.28669 32.64925
#
# Velocity S-wave (km/s) = 3.72808 4.04245 3.88844
# Velocity P-wave (km/s) = 5.77498 6.72355 6.26724
#
# Compressibility (1/GPa) = 0.03125079
#
# Stress axis : x y z
#
# Youngs Moduli (GPa) = 52.34601 174.73757 59.09563
#
# Poissons Ratio (x) = 0.14007 0.03599
# Poissons Ratio (y) = 0.04196 0.22682
# Poissons Ratio (z) = 0.03188 0.67068
#
# Static dielectric constant tensor:
#      x y z
#    x 1.855020 0.000000 0.000000 
#    y 0.000000 1.805150 0.000000 
#    z 0.000000 0.000000 1.788680 
# 
# From -- ./inp_files/21162.got.cif
#   From: 2010.05.17/outbox.cif.g08.bks.cpg/sg74_11_cif.got.tgz:21162.got - 2010.06.03 17:57:02.
