data_PCOD9535131
_publ_section_title
;
Structure prediction by ZEFSAII (Michael W. Deem and Ramdas Pophale) SiO2 
 PCOD9535131
Probable space group: I M M A
;
_chemical_formula_sum "Si O2"
_cell_formula_units_Z 96
_cell_length_a 14.186569
_cell_length_b 15.148604
_cell_length_c 19.543899
_cell_angle_alpha 90.000000
_cell_angle_beta 90.000000
_cell_angle_gamma 90.000000
_cell_volume 4200.115150
_symmetry_space_group_name_H-M "I M M A"
_symmetry_group_IT_number 74
_symmetry_cell_setting 'orthorhombic'
loop_
_space_group_symop_operation_xyz
x,y,z
-x,1/2-y,z
x,-y,-z
-x,1/2+y,-z
-x,-y,-z
x,1/2+y,-z
-x,y,z
x,1/2-y,z
1/2+x,1/2+y,1/2+z
1/2-x,-y,1/2+z
1/2+x,1/2-y,1/2-z
1/2-x,y,1/2-z
1/2-x,1/2-y,1/2-z
1/2+x,y,1/2-z
1/2-x,1/2+y,1/2+z
1/2+x,-y,1/2+z
loop_
_atom_site_type_symbol
_atom_site_label
_atom_site_fract_x
_atom_site_fract_y
_atom_site_fract_z
Si Si1 0.639882 0.154970 0.732116
Si Si2 0.708291 0.848313 0.416979
Si Si3 0.395803 0.029099 0.204934
Si Si4 0.110653 0.852764 0.838379
Si Si5 0.106825 0.649380 0.477832
Si Si6 0.255286 0.956775 0.921377
O O1 0.601994 0.250000 0.753936
O O2 0.750000 0.153712 0.750000
O O3 0.644264 0.151303 0.649934
O O4 0.597837 0.068225 0.763655
O O5 0.689153 0.750000 0.450250
O O6 0.823724 0.846088 0.412050
O O7 0.703579 0.950460 0.441876
O O8 0.500000 0.054539 0.177552
O O9 0.371928 0.093432 0.268260
O O10 0.315332 0.028046 0.148132
O O11 0.129677 0.750000 0.826703
O O12 0.174777 0.888484 0.899702
O O13 0.000000 0.864193 0.854480
O O14 0.102447 0.750000 0.504515
O O15 0.164886 0.588439 0.530380
O O16 0.000000 0.619501 0.464363
#
# Coordination Sequence:
#
# PCOD9535131 Si02
#       6
#    16  16  16  16  16  16
#     4  10  18  35  57  80 112 156 204 250 302 359
#     4  10  21  37  59  83 118 163 203 247 301 359
#     4  11  22  35  55  88 122 157 204 252 305 369
#     4  10  22  39  59  85 118 156 204 258 309 364
#     4  10  23  41  60  91 131 167 208 254 300 362
#     4  12  21  37  63  88 119 166 206 250 306 368
#
# _framework density 22.856517
#
# number of rings (size 3 to 8) (size 9 to 14) (size 15 to 20)
#    0.000    1.500    3.333    2.000    0.000    4.333 
#    0.000    1.667    0.000    3.500    0.000    4.667 
#    0.000    0.000    0.000    0.000    0.000    0.000 
#
# Total GULP energy -267396.502102 kJ/mol
# GULP energy per Si atom -5570.760460 kJ/mol
# Density = 2.280449 g / cm^3
# Si number density = 22.856517 Si / 1000 Ang^3
#
#
#
# Elastic Constant Matrix: (Units=GPa)
#
#
# Indices 1 2 3 4 5 6 
#
# 1 62.0307 33.1705 14.9068 0.0000 0.0000 0.0000
# 2 33.1705 145.4644 22.1478 0.0000 0.0000 0.0000
# 3 14.9068 22.1478 30.5306 0.0000 0.0000 0.0000
# 4 0.0000 0.0000 0.0000 32.7624 0.0000 0.0000
# 5 0.0000 0.0000 0.0000 0.0000 11.4298 0.0000
# 6 0.0000 0.0000 0.0000 0.0000 0.0000 22.1967
#
#
#
# Elastic Compliance Matrix: (Units=1/GPa)
#
#
# Indices 1 2 3 4 5 6 
#
# 1 0.019650 -0.003395 -0.007132 0.000000 0.000000 0.000000
# 2 -0.003395 0.008315 -0.004374 0.000000 0.000000 0.000000
# 3 -0.007132 -0.004374 0.039409 0.000000 0.000000 0.000000
# 4 0.000000 0.000000 0.000000 0.030523 0.000000 0.000000
# 5 0.000000 0.000000 0.000000 0.000000 0.087490 0.000000
# 6 0.000000 0.000000 0.000000 0.000000 0.000000 0.045052
#
#
# Mechanical properties :
#
#
# Convention : Reuss Voigt Hill
#
# Bulk Modulus (GPa) = 26.61501 42.05289 34.33395
# Shear Modulus (GPa) = 18.33083 24.46450 21.39767
#
# Velocity S-wave (km/s) = 2.83503 3.27517 3.06301
# Velocity P-wave (km/s) = 4.73140 5.72197 5.25010
#
# Compressibility (1/GPa) = 0.03757278
#
# Stress axis : x y z
#
# Youngs Moduli (GPa) = 50.88970 120.26902 25.37488
#
# Poissons Ratio (x) = 0.40832 0.18096
# Poissons Ratio (y) = 0.17277 0.11099
# Poissons Ratio (z) = 0.36292 0.52606
#
# Static dielectric constant tensor:
#      x y z
#    x 1.838720 0.000000 0.000000 
#    y 0.000000 1.897640 0.000000 
#    z 0.000000 0.000000 1.985850 
# 
# From -- ./inp_files/51829.got.cif
#   From: 2010.05.17/outbox.cif.g08.bks.cpg/sg74_26_cif.got.tgz:51829.got - 2010.06.03 17:57:02.
