data_PCOD9535907
_publ_section_title
;
Structure prediction by ZEFSAII (Michael W. Deem and Ramdas Pophale) SiO2 
 PCOD9535907
Probable space group: I M M A
;
_chemical_formula_sum "Si O2"
_cell_formula_units_Z 80
_cell_length_a 10.426505
_cell_length_b 20.856652
_cell_length_c 20.381644
_cell_angle_alpha 90.000000
_cell_angle_beta 90.000000
_cell_angle_gamma 90.000000
_cell_volume 4432.232790
_symmetry_space_group_name_H-M "I M M A"
_symmetry_group_IT_number 74
_symmetry_cell_setting 'orthorhombic'
loop_
_space_group_symop_operation_xyz
x,y,z
-x,1/2-y,z
x,-y,-z
-x,1/2+y,-z
-x,-y,-z
x,1/2+y,-z
-x,y,z
x,1/2-y,z
1/2+x,1/2+y,1/2+z
1/2-x,-y,1/2+z
1/2+x,1/2-y,1/2-z
1/2-x,y,1/2-z
1/2-x,1/2-y,1/2-z
1/2+x,y,1/2-z
1/2-x,1/2+y,1/2+z
1/2+x,-y,1/2+z
loop_
_atom_site_type_symbol
_atom_site_label
_atom_site_fract_x
_atom_site_fract_y
_atom_site_fract_z
Si Si1 0.152218 0.003704 0.121332
Si Si2 0.250000 0.073520 0.250000
Si Si3 0.639302 0.678151 0.834755
Si Si4 0.844644 0.750000 0.187872
Si Si5 0.347625 0.137803 0.439398
Si Si6 0.655040 0.637251 0.413996
O O1 0.205396 0.030158 0.189848
O O2 0.170374 0.060775 0.068764
O O3 0.000000 0.996884 0.129185
O O4 0.204420 0.934161 0.101875
O O5 0.352222 0.123473 0.220265
O O6 0.500000 0.671933 0.868306
O O7 0.646181 0.750000 0.807163
O O8 0.756777 0.668210 0.884561
O O9 0.750000 0.750000 0.250000
O O10 0.816036 0.688117 0.142473
O O11 0.000000 0.750000 0.202895
O O12 0.500000 0.151189 0.428987
O O13 0.307698 0.157740 0.512506
O O14 0.500000 0.633485 0.417450
#
# Coordination Sequence:
#
# PCOD9535907 Si02
#       6
#    16   8  16   8  16  16
#     4   9  17  30  51  78 104 132 173 219 260 305
#     4  10  19  32  52  73 102 142 184 210 252 309
#     4  10  21  35  51  75 112 146 173 212 260 308
#     4  10  22  38  56  78 108 139 176 219 262 313
#     4   9  18  33  56  82 104 133 175 218 258 310
#     4   9  18  33  55  79 104 135 172 218 265 310
#
# _framework density 18.049593000000002
#
# number of rings (size 3 to 8) (size 9 to 14) (size 15 to 20)
#    0.000    2.600    0.000    1.500    2.800    3.600 
#    0.000    1.000    0.000   10.800    0.000    0.000 
#    0.000    0.000    0.000    0.000    0.000    0.000 
#
# Total GULP energy -222790.007028 kJ/mol
# GULP energy per Si atom -5569.750176 kJ/mol
# Density = 1.800851 g / cm^3
# Si number density = 18.049593 Si / 1000 Ang^3
#
#
#
# Elastic Constant Matrix: (Units=GPa)
#
#
# Indices 1 2 3 4 5 6 
#
# 1 62.5656 22.7636 35.2140 0.0000 0.0000 0.0000
# 2 22.7636 45.2328 3.7474 0.0000 0.0000 0.0000
# 3 35.2140 3.7474 87.7050 0.0000 0.0000 0.0000
# 4 0.0000 0.0000 0.0000 12.5357 0.0000 0.0000
# 5 0.0000 0.0000 0.0000 0.0000 23.3541 0.0000
# 6 0.0000 0.0000 0.0000 0.0000 0.0000 41.5894
#
#
#
# Elastic Compliance Matrix: (Units=1/GPa)
#
#
# Indices 1 2 3 4 5 6 
#
# 1 0.026042 -0.012283 -0.009931 0.000000 0.000000 0.000000
# 2 -0.012283 0.027980 0.003736 0.000000 0.000000 0.000000
# 3 -0.009931 0.003736 0.015230 0.000000 0.000000 0.000000
# 4 0.000000 0.000000 0.000000 0.079772 0.000000 0.000000
# 5 0.000000 0.000000 0.000000 0.000000 0.042819 0.000000
# 6 0.000000 0.000000 0.000000 0.000000 0.000000 0.024045
#
#
# Mechanical properties :
#
#
# Convention : Reuss Voigt Hill
#
# Bulk Modulus (GPa) = 30.96411 35.43926 33.20169
# Shear Modulus (GPa) = 18.96761 24.41441 21.69101
#
# Velocity S-wave (km/s) = 3.24522 3.68180 3.47038
# Velocity P-wave (km/s) = 5.58875 6.14420 5.87305
#
# Compressibility (1/GPa) = 0.03229545
#
# Stress axis : x y z
#
# Youngs Moduli (GPa) = 38.39996 35.74021 65.66167
#
# Poissons Ratio (x) = 0.43899 0.65209
# Poissons Ratio (y) = 0.47166 -0.24532
# Poissons Ratio (z) = 0.38135 -0.13353
#
# Static dielectric constant tensor:
#      x y z
#    x 1.611440 0.000000 0.000000 
#    y 0.000000 1.647710 0.000000 
#    z 0.000000 0.000000 1.616200 
# 
# From -- ./inp_files/45080.got.cif
#   From: 2010.05.17/outbox.cif.g08.bks.cpg/sg74_23_cif.got.tgz:45080.got - 2010.06.03 17:57:02.
