data_PCOD9535702
_publ_section_title
;
Structure prediction by ZEFSAII (Michael W. Deem and Ramdas Pophale) SiO2 
 PCOD9535702
Probable space group: I M M A
;
_chemical_formula_sum "Si O2"
_cell_formula_units_Z 80
_cell_length_a 9.126482
_cell_length_b 28.453968
_cell_length_c 18.128402
_cell_angle_alpha 90.000000
_cell_angle_beta 90.000000
_cell_angle_gamma 90.000000
_cell_volume 4707.667307
_symmetry_space_group_name_H-M "I M M A"
_symmetry_group_IT_number 74
_symmetry_cell_setting 'orthorhombic'
loop_
_space_group_symop_operation_xyz
x,y,z
-x,1/2-y,z
x,-y,-z
-x,1/2+y,-z
-x,-y,-z
x,1/2+y,-z
-x,y,z
x,1/2-y,z
1/2+x,1/2+y,1/2+z
1/2-x,-y,1/2+z
1/2+x,1/2-y,1/2-z
1/2-x,y,1/2-z
1/2-x,1/2-y,1/2-z
1/2+x,y,1/2-z
1/2-x,1/2+y,1/2+z
1/2+x,-y,1/2+z
loop_
_atom_site_type_symbol
_atom_site_label
_atom_site_fract_x
_atom_site_fract_y
_atom_site_fract_z
Si Si1 0.323843 0.538235 0.329163
Si Si2 0.665621 0.541209 0.561715
Si Si3 0.673946 0.396897 0.950720
Si Si4 0.675584 0.303800 0.023960
Si Si5 0.833147 0.192859 0.176903
O O1 0.500000 0.542490 0.325900
O O2 0.250000 0.542971 0.250000
O O3 0.291038 0.486960 0.364975
O O4 0.259433 0.577119 0.385247
O O5 0.658419 0.500000 0.500000
O O6 0.500000 0.560473 0.568975
O O7 0.776307 0.578314 0.527150
O O8 0.500000 0.402554 0.940126
O O9 0.710336 0.342058 0.961652
O O10 0.500000 0.304825 0.034867
O O11 0.717744 0.250000 0.006265
O O12 0.751198 0.317723 0.100858
O O13 0.836056 0.250000 0.181218
O O14 0.750000 0.175873 0.250000
O O15 0.000000 0.176086 0.175613
#
# Coordination Sequence:
#
# PCOD9535702 Si02
#       5
#    16  16  16  16  16
#     4  10  20  34  53  76 102 130 160 198 244 295
#     4   8  16  31  49  70  97 127 155 189 237 289
#     4  10  19  31  51  76 100 130 166 203 244 290
#     4   9  18  32  48  68  97 133 172 210 246 287
#     4   9  16  26  42  63  86 115 153 197 243 287
#
# _framework density 16.993554
#
# number of rings (size 3 to 8) (size 9 to 14) (size 15 to 20)
#    0.000    2.800    0.000    3.000    0.000    8.400 
#    0.000    1.000    0.000    3.000    0.000    0.000 
#    0.000    0.000    0.000    0.000    0.000    0.000 
#
# Total GULP energy -222833.727177 kJ/mol
# GULP energy per Si atom -5570.843179 kJ/mol
# Density = 1.695488 g / cm^3
# Si number density = 16.993554 Si / 1000 Ang^3
#
#
#
# Elastic Constant Matrix: (Units=GPa)
#
#
# Indices 1 2 3 4 5 6 
#
# 1 59.0919 37.7359 47.7606 0.0000 0.0000 0.0000
# 2 37.7359 64.5711 47.5275 0.0000 0.0000 0.0000
# 3 47.7606 47.5275 107.4308 -0.0002 0.0000 0.0000
# 4 0.0000 0.0000 -0.0002 20.7157 0.0000 0.0000
# 5 0.0000 0.0000 0.0000 0.0000 24.7124 0.0000
# 6 0.0000 0.0000 0.0000 0.0000 0.0000 15.5569
#
#
#
# Elastic Compliance Matrix: (Units=1/GPa)
#
#
# Indices 1 2 3 4 5 6 
#
# 1 0.031720 -0.012097 -0.008750 0.000000 0.000000 0.000000
# 2 -0.012097 0.027578 -0.006823 0.000000 0.000000 0.000000
# 3 -0.008750 -0.006823 0.016217 0.000000 0.000000 0.000000
# 4 0.000000 0.000000 0.000000 0.048273 0.000000 0.000000
# 5 0.000000 0.000000 0.000000 0.000000 0.040465 0.000000
# 6 0.000000 0.000000 0.000000 0.000000 0.000000 0.064280
#
#
# Mechanical properties :
#
#
# Convention : Reuss Voigt Hill
#
# Bulk Modulus (GPa) = 49.56508 55.23798 52.40153
# Shear Modulus (GPa) = 17.20591 18.73501 17.97046
#
# Velocity S-wave (km/s) = 3.18543 3.32396 3.25543
# Velocity P-wave (km/s) = 6.53908 6.87804 6.71070
#
# Compressibility (1/GPa) = 0.02017550
#
# Stress axis : x y z
#
# Youngs Moduli (GPa) = 31.52571 36.26056 61.66482
#
# Poissons Ratio (x) = 0.43864 0.53958
# Poissons Ratio (y) = 0.38137 0.42072
# Poissons Ratio (z) = 0.27585 0.24739
#
# Static dielectric constant tensor:
#      x y z
#    x 1.572530 0.000000 0.000000 
#    y 0.000000 1.598930 0.000000 
#    z 0.000000 0.000000 1.560090 
# 
# From -- ./inp_files/39672.got.cif
#   From: 2010.05.17/outbox.cif.g08.bks.cpg/sg74_20_cif.got.tgz:39672.got - 2010.06.03 17:57:02.
