data_PCOD9535216
_publ_section_title
;
Structure prediction by ZEFSAII (Michael W. Deem and Ramdas Pophale) SiO2 
 PCOD9535216
Probable space group: I M M A
;
_chemical_formula_sum "Si O2"
_cell_formula_units_Z 100
_cell_length_a 8.087071
_cell_length_b 31.434182
_cell_length_c 21.633262
_cell_angle_alpha 90.000000
_cell_angle_beta 90.000000
_cell_angle_gamma 90.000000
_cell_volume 5499.401520
_symmetry_space_group_name_H-M "I M M A"
_symmetry_group_IT_number 74
_symmetry_cell_setting 'orthorhombic'
loop_
_space_group_symop_operation_xyz
x,y,z
-x,1/2-y,z
x,-y,-z
-x,1/2+y,-z
-x,-y,-z
x,1/2+y,-z
-x,y,z
x,1/2-y,z
1/2+x,1/2+y,1/2+z
1/2-x,-y,1/2+z
1/2+x,1/2-y,1/2-z
1/2-x,y,1/2-z
1/2-x,1/2-y,1/2-z
1/2+x,y,1/2-z
1/2-x,1/2+y,1/2+z
1/2+x,-y,1/2+z
loop_
_atom_site_type_symbol
_atom_site_label
_atom_site_fract_x
_atom_site_fract_y
_atom_site_fract_z
Si Si1 0.808264 0.971238 0.443934
Si Si2 0.692846 0.610676 0.506139
Si Si3 0.694712 0.296737 0.022655
Si Si4 0.500000 0.750000 0.707546
Si Si5 0.299792 0.900006 0.651730
Si Si6 0.689746 0.691025 0.829059
Si Si7 0.305393 0.006908 0.315277
O O1 0.789209 0.922363 0.463700
O O2 0.000000 0.982842 0.439181
O O3 0.734736 0.000000 0.500000
O O4 0.734200 0.981380 0.377312
O O5 0.500000 0.601785 0.497607
O O6 0.725416 0.660657 0.495878
O O7 0.734024 0.601142 0.577937
O O8 0.500000 0.297812 0.008102
O O9 0.761445 0.250000 0.004904
O O10 0.707590 0.300252 0.097216
O O11 0.349733 0.786206 0.699189
O O12 0.500000 0.895510 0.658964
O O13 0.209037 0.859279 0.679739
O O14 0.237767 0.944954 0.677216
O O15 0.500000 0.705298 0.813374
O O16 0.500000 0.011801 0.312552
O O17 0.250000 0.987972 0.250000
#
# Coordination Sequence:
#
# PCOD9535216 Si02
#       7
#    16  16  16   4  16  16  16
#     4  11  22  36  55  80 111 147 185 230 280 336
#     4  10  19  30  50  75 105 143 181 222 277 332
#     4   9  17  28  42  66 101 138 179 221 269 323
#     4  12  18  28  44  66 106 130 184 220 286 326
#     4   9  18  33  50  73 105 137 178 225 276 332
#     4  10  19  28  44  68 100 137 175 224 276 336
#     4  11  23  39  59  81 111 143 186 231 281 336
#
# _framework density 18.183797999999999
#
# number of rings (size 3 to 8) (size 9 to 14) (size 15 to 20)
#    0.000    1.920    3.200    1.680    1.120    2.880 
#    0.000    0.000    0.000    0.000    0.000    0.560 
#    0.000    0.640    0.000    2.400    0.000    3.680 
#
# Total GULP energy -278731.586651 kJ/mol
# GULP energy per Si atom -5574.631733 kJ/mol
# Density = 1.814241 g / cm^3
# Si number density = 18.183798 Si / 1000 Ang^3
#
#
#
# Elastic Constant Matrix: (Units=GPa)
#
#
# Indices 1 2 3 4 5 6 
#
# 1 75.1824 16.8374 27.6551 0.0001 0.0000 0.0000
# 2 16.8374 84.4151 36.7789 -0.0006 0.0000 0.0000
# 3 27.6551 36.7789 80.6511 -0.0005 0.0000 0.0000
# 4 0.0001 -0.0006 -0.0005-5430.5978 0.0000 -0.0003
# 5 0.0000 0.0000 0.0000 0.0000 22.4383 0.0000
# 6 0.0000 0.0000 0.0000 -0.0003 0.0000 -0.5049
#
#
#
# Elastic Compliance Matrix: (Units=1/GPa)
#
#
# Indices 1 2 3 4 5 6 
#
# 1 0.015282 -0.000955 -0.004805 0.000000 0.000000 0.000000
# 2 -0.000955 0.014843 -0.006441 0.000000 0.000000 0.000000
# 3 -0.004805 -0.006441 0.016984 0.000000 0.000000 0.000000
# 4 0.000000 0.000000 0.000000 -0.000184 0.000000 0.000000
# 5 0.000000 0.000000 0.000000 0.000000 0.044567 0.000000
# 6 0.000000 0.000000 0.000000 0.000000 0.000000 -1.980747
#
#
# Mechanical properties :
#
#
# Convention : Reuss Voigt Hill
#
# Bulk Modulus (GPa) = 44.03860 44.75462 44.39661
# Shear Modulus (GPa) = -2.69210 -1071.13438 -536.91324
#
# Velocity S-wave (km/s) = -1.21808 -24.29688 -17.20207
# Velocity P-wave (km/s) = 4.72153 27.61254 19.23746
#
# Compressibility (1/GPa) = 0.02270735
#
# Stress axis : x y z
#
# Youngs Moduli (GPa) = 65.43555 67.37124 58.87859
#
# Poissons Ratio (x) = 0.06432 0.28290
# Poissons Ratio (y) = 0.06248 0.37926
# Poissons Ratio (z) = 0.31441 0.43397
#
# Static dielectric constant tensor:
#      x y z
#    x 1.629170 0.000000 0.000000 
#    y 0.000000 1.662190 0.000000 
#    z 0.000000 0.000000 1.642630 
# 
# From -- ./inp_files/49604.got.cif
#   From: 2010.05.17/outbox.cif.g08.bks.cpg/sg74_25_cif.got.tgz:49604.got - 2010.06.03 17:57:02.
