data_PCOD9535877
_publ_section_title
;
Structure prediction by ZEFSAII (Michael W. Deem and Ramdas Pophale) SiO2 
 PCOD9535877
Probable space group: I M M A
;
_chemical_formula_sum "Si O2"
_cell_formula_units_Z 96
_cell_length_a 8.085638
_cell_length_b 24.483029
_cell_length_c 25.046643
_cell_angle_alpha 90.000000
_cell_angle_beta 90.000000
_cell_angle_gamma 90.000000
_cell_volume 4958.256232
_symmetry_space_group_name_H-M "I M M A"
_symmetry_group_IT_number 74
_symmetry_cell_setting 'orthorhombic'
loop_
_space_group_symop_operation_xyz
x,y,z
-x,1/2-y,z
x,-y,-z
-x,1/2+y,-z
-x,-y,-z
x,1/2+y,-z
-x,y,z
x,1/2-y,z
1/2+x,1/2+y,1/2+z
1/2-x,-y,1/2+z
1/2+x,1/2-y,1/2-z
1/2-x,y,1/2-z
1/2-x,1/2-y,1/2-z
1/2+x,y,1/2-z
1/2-x,1/2+y,1/2+z
1/2+x,-y,1/2+z
loop_
_atom_site_type_symbol
_atom_site_label
_atom_site_fract_x
_atom_site_fract_y
_atom_site_fract_z
Si Si1 0.688212 0.106157 0.106090
Si Si2 0.308794 0.685509 0.690055
Si Si3 0.802682 0.188124 0.479658
Si Si4 0.299699 0.980034 0.809609
Si Si5 0.196790 0.311437 0.899776
Si Si6 0.197257 0.105520 0.691262
O O1 0.500000 0.090331 0.091577
O O2 0.692104 0.153735 0.150143
O O3 0.766161 0.137798 0.055522
O O4 0.762175 0.055889 0.140238
O O5 0.500000 0.668247 0.683227
O O6 0.299799 0.750000 0.680105
O O7 0.250000 0.675721 0.750000
O O8 0.738084 0.250000 0.467461
O O9 0.774288 0.177993 0.542196
O O10 0.000000 0.189643 0.469456
O O11 0.500000 0.978201 0.811124
O O12 0.250000 0.960404 0.750000
O O13 0.242436 0.042831 0.814455
O O14 0.248903 0.250000 0.883238
O O15 0.242029 0.355412 0.855443
O O16 0.000000 0.311374 0.906796
O O17 0.250000 0.125107 0.750000
O O18 0.000000 0.103845 0.689388
#
# Coordination Sequence:
#
# PCOD9535877 Si02
#       6
#    16  16  16  16  16  16
#     4  10  19  32  51  74 100 133 176 219 259 306
#     4  10  20  31  43  63  93 128 168 217 270 317
#     4   9  18  33  53  76 103 138 177 216 260 308
#     4   9  19  34  52  76 105 138 175 216 261 307
#     4  10  21  37  57  81 108 136 168 209 256 307
#     4  10  20  36  58  82 109 139 170 206 252 308
#
# _framework density 19.361647000000001
#
# number of rings (size 3 to 8) (size 9 to 14) (size 15 to 20)
#    0.000    2.333    0.000    2.500    0.000    6.333 
#    0.000    2.500    0.000    5.000    0.000    0.000 
#    0.000    0.000    0.000    0.000    0.000    0.000 
#
# Total GULP energy -267623.222211 kJ/mol
# GULP energy per Si atom -5575.483796 kJ/mol
# Density = 1.931758 g / cm^3
# Si number density = 19.361647 Si / 1000 Ang^3
#
#
#
# Elastic Constant Matrix: (Units=GPa)
#
#
# Indices 1 2 3 4 5 6 
#
# 1 20.2738 0.3810 -13.4395 0.0000 0.0000 0.0000
# 2 0.3810 90.7628 63.8297 0.0000 0.0000 0.0000
# 3 -13.4395 63.8297 89.3453 0.0000 0.0000 0.0000
# 4 0.0000 0.0000 0.0000 41.3010 0.0000 0.0000
# 5 0.0000 0.0000 0.0000 0.0000 25.6516 0.0000
# 6 0.0000 0.0000 0.0000 0.0000 0.0000 15.6081
#
#
#
# Elastic Compliance Matrix: (Units=1/GPa)
#
#
# Indices 1 2 3 4 5 6 
#
# 1 0.062322 -0.013775 0.019216 0.000000 0.000000 0.000000
# 2 -0.013775 0.025187 -0.020066 0.000000 0.000000 0.000000
# 3 0.019216 -0.020066 0.028419 0.000000 0.000000 0.000000
# 4 0.000000 0.000000 0.000000 0.024212 0.000000 0.000000
# 5 0.000000 0.000000 0.000000 0.000000 0.038984 0.000000
# 6 0.000000 0.000000 0.000000 0.000000 0.000000 0.064069
#
#
# Mechanical properties :
#
#
# Convention : Reuss Voigt Hill
#
# Bulk Modulus (GPa) = 11.53718 33.54715 22.54216
# Shear Modulus (GPa) = 16.59269 26.48619 21.53944
#
# Velocity S-wave (km/s) = 2.93061 3.70262 3.33900
# Velocity P-wave (km/s) = 4.17409 5.97021 5.15104
#
# Compressibility (1/GPa) = 0.08667631
#
# Stress axis : x y z
#
# Youngs Moduli (GPa) = 16.04575 39.70234 35.18799
#
# Poissons Ratio (x) = 0.54691 -0.67617
# Poissons Ratio (y) = 0.22103 0.70610
# Poissons Ratio (z) = -0.30833 0.79668
#
# Static dielectric constant tensor:
#      x y z
#    x 1.715970 0.000000 0.000000 
#    y 0.000000 1.704960 0.000000 
#    z 0.000000 0.000000 1.217660 
# 
# From -- ./inp_files/55059.got.cif
#   From: 2010.05.17/outbox.cif.g08.bks.cpg/sg74_28_cif.got.tgz:55059.got - 2010.06.03 17:57:02.
