data_PCOD9535988
_publ_section_title
;
Structure prediction by ZEFSAII (Michael W. Deem and Ramdas Pophale) SiO2 
 PCOD9535988
Probable space group: I M M A
;
_chemical_formula_sum "Si O2"
_cell_formula_units_Z 48
_cell_length_a 14.215113
_cell_length_b 13.758295
_cell_length_c 9.238209
_cell_angle_alpha 90.000000
_cell_angle_beta 90.000000
_cell_angle_gamma 90.000000
_cell_volume 1806.769359
_symmetry_space_group_name_H-M "I M M A"
_symmetry_group_IT_number 74
_symmetry_cell_setting 'orthorhombic'
loop_
_space_group_symop_operation_xyz
x,y,z
-x,1/2-y,z
x,-y,-z
-x,1/2+y,-z
-x,-y,-z
x,1/2+y,-z
-x,y,z
x,1/2-y,z
1/2+x,1/2+y,1/2+z
1/2-x,-y,1/2+z
1/2+x,1/2-y,1/2-z
1/2-x,y,1/2-z
1/2-x,1/2-y,1/2-z
1/2+x,y,1/2-z
1/2-x,1/2+y,1/2+z
1/2+x,-y,1/2+z
loop_
_atom_site_type_symbol
_atom_site_label
_atom_site_fract_x
_atom_site_fract_y
_atom_site_fract_z
Si Si1 0.107592 0.942378 0.194229
Si Si2 0.395136 0.863484 0.989597
Si Si3 0.186989 0.858683 0.922087
O O1 0.117257 0.926075 0.364976
O O2 0.170781 0.872854 0.094788
O O3 0.000000 0.919621 0.157704
O O4 0.131387 0.051565 0.145621
O O5 0.500000 0.884544 0.926958
O O6 0.397966 0.750000 0.033779
O O7 0.298893 0.870670 0.899702
O O8 0.157173 0.750000 0.879636
#
# Coordination Sequence:
#
# PCOD9535988 Si02
#       3
#    16  16  16
#     4  10  20  32  50  79 111 141 178 224 271 319
#     4   9  18  34  57  82 106 137 180 227 271 317
#     4  10  19  32  53  79 106 138 179 226 271 317
#
# _framework density 26.566754
#
# number of rings (size 3 to 8) (size 9 to 14) (size 15 to 20)
#    0.000    2.333    0.000    4.000    0.000    6.667 
#    0.000    3.333    0.000   22.000    0.000    0.000 
#    0.000    0.000    0.000    0.000    0.000    0.000 
#
# Total GULP energy -134565.758259 kJ/mol
# GULP energy per Si atom -5606.906594 kJ/mol
# Density = 2.650629 g / cm^3
# Si number density = 26.566754 Si / 1000 Ang^3
#
#
#
# Elastic Constant Matrix: (Units=GPa)
#
#
# Indices 1 2 3 4 5 6 
#
# 1 130.4756 16.9516 -1.1794 0.0000 0.0000 0.0000
# 2 16.9516 123.3684 1.2683 0.0000 0.0000 0.0000
# 3 -1.1794 1.2683 60.4396 0.0000 0.0000 0.0000
# 4 0.0000 0.0000 0.0000 41.8398 0.0000 0.0000
# 5 0.0000 0.0000 0.0000 0.0000 50.2819 0.0000
# 6 0.0000 0.0000 0.0000 0.0000 0.0000 41.9214
#
#
#
# Elastic Compliance Matrix: (Units=1/GPa)
#
#
# Indices 1 2 3 4 5 6 
#
# 1 0.007805 -0.001074 0.000175 0.000000 0.000000 0.000000
# 2 -0.001074 0.008255 -0.000194 0.000000 0.000000 0.000000
# 3 0.000175 -0.000194 0.016553 0.000000 0.000000 0.000000
# 4 0.000000 0.000000 0.000000 0.023901 0.000000 0.000000
# 5 0.000000 0.000000 0.000000 0.000000 0.019888 0.000000
# 6 0.000000 0.000000 0.000000 0.000000 0.000000 0.023854
#
#
# Mechanical properties :
#
#
# Convention : Reuss Voigt Hill
#
# Bulk Modulus (GPa) = 32.86611 38.70716 35.78664
# Shear Modulus (GPa) = 44.41052 46.62484 45.51768
#
# Velocity S-wave (km/s) = 4.09303 4.19383 4.14373
# Velocity P-wave (km/s) = 5.89365 6.16865 6.03272
#
# Compressibility (1/GPa) = 0.03042648
#
# Stress axis : x y z
#
# Youngs Moduli (GPa) = 128.11600 121.13263 60.41229
#
# Poissons Ratio (x) = 0.13013 -0.01056
# Poissons Ratio (y) = 0.13764 0.01173
# Poissons Ratio (z) = -0.02240 0.02352
#
# Static dielectric constant tensor:
#      x y z
#    x 1.988730 0.000000 0.000000 
#    y 0.000000 2.045500 0.000000 
#    z 0.000000 0.000000 2.168650 
# 
# From -- ./inp_files/19412.got.cif
#   From: 2010.05.17/outbox.cif.g08.bks.cpg/sg74_10_cif.got.tgz:19412.got - 2010.06.03 17:57:02.
