data_PCOD9535437
_publ_section_title
;
Structure prediction by ZEFSAII (Michael W. Deem and Ramdas Pophale) SiO2 
 PCOD9535437
Probable space group: I M M A
;
_chemical_formula_sum "Si O2"
_cell_formula_units_Z 104
_cell_length_a 9.142395
_cell_length_b 22.060782
_cell_length_c 30.718570
_cell_angle_alpha 90.000000
_cell_angle_beta 90.000000
_cell_angle_gamma 90.000000
_cell_volume 6195.578713
_symmetry_space_group_name_H-M "I M M A"
_symmetry_group_IT_number 74
_symmetry_cell_setting 'orthorhombic'
loop_
_space_group_symop_operation_xyz
x,y,z
-x,1/2-y,z
x,-y,-z
-x,1/2+y,-z
-x,-y,-z
x,1/2+y,-z
-x,y,z
x,1/2-y,z
1/2+x,1/2+y,1/2+z
1/2-x,-y,1/2+z
1/2+x,1/2-y,1/2-z
1/2-x,y,1/2-z
1/2-x,1/2-y,1/2-z
1/2+x,y,1/2-z
1/2-x,1/2+y,1/2+z
1/2+x,-y,1/2+z
loop_
_atom_site_type_symbol
_atom_site_label
_atom_site_fract_x
_atom_site_fract_y
_atom_site_fract_z
Si Si1 0.675337 0.633045 0.144309
Si Si2 0.172260 0.606294 0.795339
Si Si3 0.671842 0.823072 0.442105
Si Si4 0.676094 0.178456 0.127354
Si Si5 0.331350 0.676373 0.970169
Si Si6 0.327368 0.461468 0.704508
Si Si7 0.325217 0.750000 0.203211
O O1 0.500000 0.627169 0.143085
O O2 0.738207 0.646582 0.096680
O O3 0.749908 0.575055 0.166151
O O4 0.712868 0.690645 0.175048
O O5 0.250000 0.623165 0.750000
O O6 0.245107 0.640921 0.835394
O O7 0.189717 0.533762 0.800964
O O8 0.000000 0.619555 0.792739
O O9 0.500000 0.835949 0.437980
O O10 0.691489 0.750000 0.438738
O O11 0.732231 0.842226 0.489356
O O12 0.500000 0.172513 0.130799
O O13 0.710532 0.250000 0.131637
O O14 0.716952 0.157866 0.078302
O O15 0.500000 0.657488 0.977037
O O16 0.331661 0.750000 0.969266
O O17 0.500000 0.447493 0.706557
O O18 0.250000 0.444337 0.750000
O O19 0.500000 0.750000 0.209347
O O20 0.250000 0.750000 0.250000
#
# Coordination Sequence:
#
# PCOD9535437 Si02
#       7
#    16  16  16  16  16  16   8
#     4  11  21  34  51  72  99 134 172 213 260 307
#     4  10  21  36  55  77 104 137 172 211 251 298
#     4  10  19  30  47  73 103 135 170 211 256 302
#     4   9  18  33  54  81 110 138 169 205 250 302
#     4   8  15  29  49  72 101 136 168 203 247 300
#     4  10  21  37  54  74  98 130 174 215 254 303
#     4  10  22  34  46  68  98 130 164 206 257 308
#
# _framework density 16.786163999999999
#
# number of rings (size 3 to 8) (size 9 to 14) (size 15 to 20)
#    0.000    2.308    0.769    3.231    0.000    6.154 
#    0.000    1.538    0.000    0.923    0.000    6.462 
#    0.000    0.000    0.000    0.000    0.000    0.000 
#
# Total GULP energy -290134.006006 kJ/mol
# GULP energy per Si atom -5579.500115 kJ/mol
# Density = 1.674796 g / cm^3
# Si number density = 16.786164 Si / 1000 Ang^3
#
#
#
# Elastic Constant Matrix: (Units=GPa)
#
#
# Indices 1 2 3 4 5 6 
#
# 1 91.8059 43.5816 87.7243 0.0000 0.0000 0.0000
# 2 43.5816 31.0251 51.8603 0.0000 0.0000 0.0000
# 3 87.7243 51.8603 174.4527 0.0000 0.0000 0.0000
# 4 0.0000 0.0000 0.0000 15.3131 0.0000 0.0000
# 5 0.0000 0.0000 0.0000 0.0000 36.6163 0.0000
# 6 0.0000 0.0000 0.0000 0.0000 0.0000 23.5386
#
#
#
# Elastic Compliance Matrix: (Units=1/GPa)
#
#
# Indices 1 2 3 4 5 6 
#
# 1 0.035632 -0.039958 -0.006039 0.000000 0.000000 0.000000
# 2 -0.039958 0.108877 -0.012273 0.000000 0.000000 0.000000
# 3 -0.006039 -0.012273 0.012418 0.000000 0.000000 0.000000
# 4 0.000000 0.000000 0.000000 0.065304 0.000000 0.000000
# 5 0.000000 0.000000 0.000000 0.000000 0.027310 0.000000
# 6 0.000000 0.000000 0.000000 0.000000 0.000000 0.042483
#
#
# Mechanical properties :
#
#
# Convention : Reuss Voigt Hill
#
# Bulk Modulus (GPa) = 24.76116 73.73511 49.24813
# Shear Modulus (GPa) = 11.84759 22.70144 17.27451
#
# Velocity S-wave (km/s) = 2.65956 3.68148 3.21143
# Velocity P-wave (km/s) = 4.92077 7.87988 6.56911
#
# Compressibility (1/GPa) = 0.04038583
#
# Stress axis : x y z
#
# Youngs Moduli (GPa) = 28.06483 9.18464 80.53090
#
# Poissons Ratio (x) = 0.36700 0.48634
# Poissons Ratio (y) = 1.12141 0.98839
# Poissons Ratio (z) = 0.16949 0.11273
#
# Static dielectric constant tensor:
#      x y z
#    x 1.556770 0.000000 0.000000 
#    y 0.000000 1.552860 0.000000 
#    z 0.000000 0.000000 1.551750 
# 
# From -- ./inp_files/70543.got.cif
#   From: 2010.05.17/outbox.cif.g08.bks.cpg/sg74_36_cif.got.tgz:70543.got - 2010.06.03 17:57:02.
