data_PCOD9535071
_publ_section_title
;
Structure prediction by ZEFSAII (Michael W. Deem and Ramdas Pophale) SiO2 
 PCOD9535071
Probable space group: I M M A
;
_chemical_formula_sum "Si O2"
_cell_formula_units_Z 68
_cell_length_a 7.422774
_cell_length_b 20.115268
_cell_length_c 19.854657
_cell_angle_alpha 90.000000
_cell_angle_beta 90.000000
_cell_angle_gamma 90.000000
_cell_volume 2964.520445
_symmetry_space_group_name_H-M "I M M A"
_symmetry_group_IT_number 74
_symmetry_cell_setting 'orthorhombic'
loop_
_space_group_symop_operation_xyz
x,y,z
-x,1/2-y,z
x,-y,-z
-x,1/2+y,-z
-x,-y,-z
x,1/2+y,-z
-x,y,z
x,1/2-y,z
1/2+x,1/2+y,1/2+z
1/2-x,-y,1/2+z
1/2+x,1/2-y,1/2-z
1/2-x,y,1/2-z
1/2-x,1/2-y,1/2-z
1/2+x,y,1/2-z
1/2-x,1/2+y,1/2+z
1/2+x,-y,1/2+z
loop_
_atom_site_type_symbol
_atom_site_label
_atom_site_fract_x
_atom_site_fract_y
_atom_site_fract_z
Si Si1 0.781846 0.507226 0.422908
Si Si2 0.286421 0.250000 0.503741
Si Si3 0.715047 0.605845 0.824250
Si Si4 0.790898 0.345892 0.876105
Si Si5 0.500000 0.750000 0.182993
Si Si6 0.704037 0.250000 0.149479
O O1 0.720729 0.500000 0.500000
O O2 0.716626 0.444144 0.380490
O O3 0.727736 0.575676 0.386659
O O4 0.000000 0.507061 0.423582
O O5 0.500000 0.250000 0.492154
O O6 0.241736 0.187343 0.551153
O O7 0.197456 0.250000 0.431577
O O8 0.500000 0.610949 0.834607
O O9 0.750000 0.578870 0.750000
O O10 0.790073 0.680517 0.829188
O O11 0.657941 0.308527 0.825448
O O12 0.000000 0.329652 0.861479
O O13 0.500000 0.250000 0.176782
#
# Coordination Sequence:
#
# PCOD9535071 Si02
#       6
#    16   8  16  16   4   8
#     4  10  20  36  58  85 121 160 206 262 316 370
#     4   9  19  31  48  83 120 148 194 244 299 363
#     4  10  22  38  57  84 118 160 212 250 305 368
#     4  10  20  33  53  85 120 157 205 246 308 373
#     4  10  18  34  54  78 118 158 182 248 302 368
#     4  10  20  34  56  81 110 160 211 253 292 355
#
# _framework density 22.937942
#
# number of rings (size 3 to 8) (size 9 to 14) (size 15 to 20)
#    0.000    2.118    1.176    2.824    3.294    4.235 
#    0.000    0.000    0.000    0.000    0.000    3.294 
#    3.529    0.000    0.000    0.000    0.000    0.000 
#
# Total GULP energy -189541.914672 kJ/mol
# GULP energy per Si atom -5574.762196 kJ/mol
# Density = 2.288573 g / cm^3
# Si number density = 22.937942 Si / 1000 Ang^3
#
#
#
# Elastic Constant Matrix: (Units=GPa)
#
#
# Indices 1 2 3 4 5 6 
#
# 1 117.6499 25.0255 10.7337 0.0000 0.0000 0.0000
# 2 25.0255 181.6001 46.0698 0.0000 0.0000 0.0000
# 3 10.7337 46.0698 93.5576 0.0000 0.0000 0.0000
# 4 0.0000 0.0000 0.0000 204.4462 0.0000 0.0000
# 5 0.0000 0.0000 0.0000 0.0000 11.7552 0.0000
# 6 0.0000 0.0000 0.0000 0.0000 0.0000 11.1804
#
#
#
# Elastic Compliance Matrix: (Units=1/GPa)
#
#
# Indices 1 2 3 4 5 6 
#
# 1 0.008775 -0.001090 -0.000470 0.000000 0.000000 0.000000
# 2 -0.001090 0.006428 -0.003040 0.000000 0.000000 0.000000
# 3 -0.000470 -0.003040 0.012240 0.000000 0.000000 0.000000
# 4 0.000000 0.000000 0.000000 0.004891 0.000000 0.000000
# 5 0.000000 0.000000 0.000000 0.000000 0.085069 0.000000
# 6 0.000000 0.000000 0.000000 0.000000 0.000000 0.089442
#
#
# Mechanical properties :
#
#
# Convention : Reuss Voigt Hill
#
# Bulk Modulus (GPa) = 54.81911 61.82952 58.32431
# Shear Modulus (GPa) = 22.50980 66.20828 44.35904
#
# Velocity S-wave (km/s) = 3.13602 5.37836 4.40235
# Velocity P-wave (km/s) = 6.08799 8.09831 7.16402
#
# Compressibility (1/GPa) = 0.01824182
#
# Stress axis : x y z
#
# Youngs Moduli (GPa) = 113.96644 155.56720 81.70188
#
# Poissons Ratio (x) = 0.16956 0.03840
# Poissons Ratio (y) = 0.12422 0.24840
# Poissons Ratio (z) = 0.05356 0.47297
#
# Static dielectric constant tensor:
#      x y z
#    x 1.874900 0.000000 0.000000 
#    y 0.000000 1.862000 0.000000 
#    z 0.000000 0.000000 1.845670 
# 
# From -- ./inp_files/48180.got.cif
#   From: 2010.05.17/outbox.cif.g08.bks.cpg/sg74_25_cif.got.tgz:48180.got - 2010.06.03 17:57:02.
