data_PCOD9535274
_publ_section_title
;
Structure prediction by ZEFSAII (Michael W. Deem and Ramdas Pophale) SiO2 
 PCOD9535274
Probable space group: I M M A
;
_chemical_formula_sum "Si O2"
_cell_formula_units_Z 96
_cell_length_a 14.878376
_cell_length_b 15.238516
_cell_length_c 25.131139
_cell_angle_alpha 90.000000
_cell_angle_beta 90.000000
_cell_angle_gamma 90.000000
_cell_volume 5697.841676
_symmetry_space_group_name_H-M "I M M A"
_symmetry_group_IT_number 74
_symmetry_cell_setting 'orthorhombic'
loop_
_space_group_symop_operation_xyz
x,y,z
-x,1/2-y,z
x,-y,-z
-x,1/2+y,-z
-x,-y,-z
x,1/2+y,-z
-x,y,z
x,1/2-y,z
1/2+x,1/2+y,1/2+z
1/2-x,-y,1/2+z
1/2+x,1/2-y,1/2-z
1/2-x,y,1/2-z
1/2-x,1/2-y,1/2-z
1/2+x,y,1/2-z
1/2-x,1/2+y,1/2+z
1/2+x,-y,1/2+z
loop_
_atom_site_type_symbol
_atom_site_label
_atom_site_fract_x
_atom_site_fract_y
_atom_site_fract_z
Si Si1 0.784761 0.005245 0.121526
Si Si2 0.132765 0.250000 0.794960
Si Si3 0.841588 0.250000 0.672209
Si Si4 0.895561 0.559477 0.341639
Si Si5 0.602419 0.852683 0.561644
Si Si6 0.395577 0.852530 0.433709
Si Si7 0.400484 0.447756 0.714212
O O1 0.677975 0.998484 0.128141
O O2 0.826093 0.920074 0.091626
O O3 0.827280 0.998957 0.180475
O O4 0.824998 0.088140 0.091016
O O5 0.116737 0.250000 0.731277
O O6 0.236072 0.250000 0.813764
O O7 0.098553 0.347201 0.807997
O O8 0.872295 0.339192 0.644831
O O9 0.881385 0.553275 0.277364
O O10 0.000000 0.540707 0.352271
O O11 0.500000 0.881844 0.574735
O O12 0.610355 0.750000 0.575415
O O13 0.611657 0.859180 0.497765
O O14 0.500000 0.873961 0.420732
O O15 0.380282 0.750000 0.418865
O O16 0.500000 0.484798 0.706274
#
# Coordination Sequence:
#
# PCOD9535274 Si02
#       7
#    16   8   8  16  16  16  16
#     4  12  20  29  52  77  97 129 172 206 235 287
#     4   9  15  25  41  60  93 135 168 197 225 280
#     4   9  15  29  43  56  89 143 180 193 225 276
#     4  10  21  33  44  64 101 143 174 204 239 279
#     4   9  19  37  56  75 100 126 155 197 255 313
#     4   9  19  33  50  77 109 130 148 189 249 307
#     4  10  19  29  43  68 103 136 164 198 243 290
#
# _framework density 16.848486000000001
#
# number of rings (size 3 to 8) (size 9 to 14) (size 15 to 20)
#    0.000    2.167    1.667    4.000    2.333    3.333 
#    0.000    0.000    0.000    4.500    0.000    4.667 
#    0.000    0.000    0.000    0.000    0.000    0.000 
#
# Total GULP energy -267722.475148 kJ/mol
# GULP energy per Si atom -5577.551566 kJ/mol
# Density = 1.681014 g / cm^3
# Si number density = 16.848486 Si / 1000 Ang^3
#
#
#
# Elastic Constant Matrix: (Units=GPa)
#
#
# Indices 1 2 3 4 5 6 
#
# 1 115.3918 43.6986 40.5584 0.0000 0.0000 0.0000
# 2 43.6986 50.7719 31.0208 0.0000 0.0000 0.0000
# 3 40.5584 31.0208 42.7727 0.0000 0.0000 0.0000
# 4 0.0000 0.0000 0.0000 26.7232 0.0000 0.0000
# 5 0.0000 0.0000 0.0000 0.0000 25.1764 0.0000
# 6 0.0000 0.0000 0.0000 0.0000 0.0000 21.1847
#
#
#
# Elastic Compliance Matrix: (Units=1/GPa)
#
#
# Indices 1 2 3 4 5 6 
#
# 1 0.014344 -0.007246 -0.008346 0.000000 0.000000 0.000000
# 2 -0.007246 0.039029 -0.021434 0.000000 0.000000 0.000000
# 3 -0.008346 -0.021434 0.046838 0.000000 0.000000 0.000000
# 4 0.000000 0.000000 0.000000 0.037421 0.000000 0.000000
# 5 0.000000 0.000000 0.000000 0.000000 0.039720 0.000000
# 6 0.000000 0.000000 0.000000 0.000000 0.000000 0.047204
#
#
# Mechanical properties :
#
#
# Convention : Reuss Voigt Hill
#
# Bulk Modulus (GPa) = 38.22933 48.83245 43.53089
# Shear Modulus (GPa) = 16.26929 20.86076 18.56503
#
# Velocity S-wave (km/s) = 3.11082 3.52254 3.32306
# Velocity P-wave (km/s) = 5.97011 6.75208 6.37310
#
# Compressibility (1/GPa) = 0.02615792
#
# Stress axis : x y z
#
# Youngs Moduli (GPa) = 69.71715 25.62215 21.34997
#
# Poissons Ratio (x) = 0.18566 0.17818
# Poissons Ratio (y) = 0.50519 0.45762
# Poissons Ratio (z) = 0.58185 0.54920
#
# Static dielectric constant tensor:
#      x y z
#    x 1.577750 0.000000 0.000000 
#    y 0.000000 1.572950 0.000000 
#    z 0.000000 0.000000 1.600030 
# 
# From -- ./inp_files/67116.got.cif
#   From: 2010.05.17/outbox.cif.g08.bks.cpg/sg74_34_cif.got.tgz:67116.got - 2010.06.03 17:57:02.
