data_PCOD9535160
_publ_section_title
;
Structure prediction by ZEFSAII (Michael W. Deem and Ramdas Pophale) SiO2 
 PCOD9535160
Probable space group: I M M A
;
_chemical_formula_sum "Si O2"
_cell_formula_units_Z 72
_cell_length_a 13.830969
_cell_length_b 8.753121
_cell_length_c 29.679086
_cell_angle_alpha 90.000000
_cell_angle_beta 90.000000
_cell_angle_gamma 90.000000
_cell_volume 3593.073177
_symmetry_space_group_name_H-M "I M M A"
_symmetry_group_IT_number 74
_symmetry_cell_setting 'orthorhombic'
loop_
_space_group_symop_operation_xyz
x,y,z
-x,1/2-y,z
x,-y,-z
-x,1/2+y,-z
-x,-y,-z
x,1/2+y,-z
-x,y,z
x,1/2-y,z
1/2+x,1/2+y,1/2+z
1/2-x,-y,1/2+z
1/2+x,1/2-y,1/2-z
1/2-x,y,1/2-z
1/2-x,1/2-y,1/2-z
1/2+x,y,1/2-z
1/2-x,1/2+y,1/2+z
1/2+x,-y,1/2+z
loop_
_atom_site_type_symbol
_atom_site_label
_atom_site_fract_x
_atom_site_fract_y
_atom_site_fract_z
Si Si1 0.836849 0.075396 0.615632
Si Si2 0.318085 0.922317 0.459945
Si Si3 0.284138 0.563587 0.300050
Si Si4 0.000000 0.068374 0.826653
Si Si5 0.500000 0.425148 0.423045
Si Si6 0.500000 0.932054 0.948416
O O1 0.873660 0.250000 0.622309
O O2 0.740815 0.084289 0.585678
O O3 0.796087 0.011995 0.663064
O O4 0.910754 0.985500 0.583574
O O5 0.347125 0.750000 0.471053
O O6 0.257666 0.000000 0.500000
O O7 0.407091 0.032977 0.451795
O O8 0.285245 0.750000 0.303998
O O9 0.250000 0.523767 0.250000
O O10 0.395221 0.510996 0.308691
O O11 0.000000 0.250000 0.818596
O O12 0.000000 0.033073 0.879564
O O13 0.500000 0.250000 0.408859
O O14 0.500000 0.750000 0.953378
O O15 0.500000 0.000000 0.000000
#
# Coordination Sequence:
#
# PCOD9535160 Si02
#       6
#    16  16  16   8   8   8
#     4  10  21  39  63  90 121 157 203 257 311 366
#     4  11  22  37  57  85 119 156 196 244 295 354
#     4   9  18  34  62  97 125 159 206 259 311 360
#     4  10  18  36  60  87 124 161 199 247 300 353
#     4  12  23  35  55  83 116 158 198 235 288 350
#     4  12  26  43  64  90 123 165 211 262 322 383
#
# _framework density 20.038556
#
# number of rings (size 3 to 8) (size 9 to 14) (size 15 to 20)
#    0.000    1.556    2.222    3.667    0.000    4.444 
#    0.000    3.333    0.000    4.000    0.000    0.000 
#    0.000    0.000    0.000    0.000    0.000    0.000 
#
# Total GULP energy -200645.467614 kJ/mol
# GULP energy per Si atom -5573.485211 kJ/mol
# Density = 1.999295 g / cm^3
# Si number density = 20.038556 Si / 1000 Ang^3
#
#
#
# Elastic Constant Matrix: (Units=GPa)
#
#
# Indices 1 2 3 4 5 6 
#
# 1 104.9651 28.6821 57.3419 0.0000 0.0000 0.0000
# 2 28.6821 46.2504 16.1742 0.0000 0.0000 0.0000
# 3 57.3419 16.1742 164.3789 0.0000 0.0000 0.0000
# 4 0.0000 0.0000 0.0000 17.6863 0.0000 0.0000
# 5 0.0000 0.0000 0.0000 0.0000 26.5718 0.0000
# 6 0.0000 0.0000 0.0000 0.0000 0.0000 24.0018
#
#
#
# Elastic Compliance Matrix: (Units=1/GPa)
#
#
# Indices 1 2 3 4 5 6 
#
# 1 0.013684 -0.007060 -0.004079 0.000000 0.000000 0.000000
# 2 -0.007060 0.026034 -0.000099 0.000000 0.000000 0.000000
# 3 -0.004079 -0.000099 0.007516 0.000000 0.000000 0.000000
# 4 0.000000 0.000000 0.000000 0.056541 0.000000 0.000000
# 5 0.000000 0.000000 0.000000 0.000000 0.037634 0.000000
# 6 0.000000 0.000000 0.000000 0.000000 0.000000 0.041664
#
#
# Mechanical properties :
#
#
# Convention : Reuss Voigt Hill
#
# Bulk Modulus (GPa) = 40.38901 57.77675 49.08288
# Shear Modulus (GPa) = 23.38613 27.87839 25.63226
#
# Velocity S-wave (km/s) = 3.41993 3.73398 3.58040
# Velocity P-wave (km/s) = 5.98280 6.89097 6.45288
#
# Compressibility (1/GPa) = 0.02475921
#
# Stress axis : x y z
#
# Youngs Moduli (GPa) = 73.07560 38.41099 133.04676
#
# Poissons Ratio (x) = 0.27118 0.54270
# Poissons Ratio (y) = 0.51591 0.01316
# Poissons Ratio (z) = 0.29808 0.00380
#
# Static dielectric constant tensor:
#      x y z
#    x 1.753780 0.000000 0.000000 
#    y 0.000000 1.703810 0.000000 
#    z 0.000000 0.000000 1.717380 
# 
# From -- ./inp_files/66808.got.cif
#   From: 2010.05.17/outbox.cif.g08.bks.cpg/sg74_34_cif.got.tgz:66808.got - 2010.06.03 17:57:02.
