data_PCOD9535176
_publ_section_title
;
Structure prediction by ZEFSAII (Michael W. Deem and Ramdas Pophale) SiO2 
 PCOD9535176
Probable space group: I M M A
;
_chemical_formula_sum "Si O2"
_cell_formula_units_Z 60
_cell_length_a 22.270156
_cell_length_b 13.972207
_cell_length_c 11.790677
_cell_angle_alpha 90.000000
_cell_angle_beta 90.000000
_cell_angle_gamma 90.000000
_cell_volume 3668.825134
_symmetry_space_group_name_H-M "I M M A"
_symmetry_group_IT_number 74
_symmetry_cell_setting 'orthorhombic'
loop_
_space_group_symop_operation_xyz
x,y,z
-x,1/2-y,z
x,-y,-z
-x,1/2+y,-z
-x,-y,-z
x,1/2+y,-z
-x,y,z
x,1/2-y,z
1/2+x,1/2+y,1/2+z
1/2-x,-y,1/2+z
1/2+x,1/2-y,1/2-z
1/2-x,y,1/2-z
1/2-x,1/2-y,1/2-z
1/2+x,y,1/2-z
1/2-x,1/2+y,1/2+z
1/2+x,-y,1/2+z
loop_
_atom_site_type_symbol
_atom_site_label
_atom_site_fract_x
_atom_site_fract_y
_atom_site_fract_z
Si Si1 0.000000 0.250000 0.701165
Si Si2 0.127629 0.250000 0.821288
Si Si3 0.692179 0.387257 0.516191
Si Si4 0.314975 0.250000 0.308958
Si Si5 0.500000 0.386895 0.010764
Si Si6 0.203492 0.750000 0.408442
Si Si7 0.599906 0.750000 0.904189
O O1 0.939509 0.250000 0.774123
O O2 0.000000 0.160395 0.614439
O O3 0.142610 0.157464 0.898836
O O4 0.174037 0.250000 0.715431
O O5 0.693422 0.500000 0.500000
O O6 0.681952 0.339865 0.393452
O O7 0.753917 0.341376 0.565855
O O8 0.250000 0.250000 0.250000
O O9 0.366542 0.250000 0.215231
O O10 0.500000 0.500000 0.000000
O O11 0.557505 0.341979 0.074876
O O12 0.150136 0.750000 0.498725
#
# Coordination Sequence:
#
# PCOD9535176 Si02
#       7
#     4   8  16   8   8   8   8
#     4  10  20  40  60  76 116 154 186 240 276 324
#     4  10  20  40  58  79 114 153 191 229 286 326
#     4  10  22  35  55  88 113 146 194 229 275 342
#     4  10  19  37  53  76 119 152 180 228 289 332
#     4  10  22  36  57  88 110 142 195 229 284 335
#     4  10  18  38  57  80 116 148 178 228 290 336
#     4  10  19  39  57  79 118 148 176 232 286 333
#
# _framework density 16.354009999999999
#
# number of rings (size 3 to 8) (size 9 to 14) (size 15 to 20)
#    0.000    2.400    5.333    1.600    0.000    5.333 
#    0.000    6.000    0.000    0.000    0.000    0.000 
#    0.000    0.000    0.000    0.000    0.000    0.000 
#
# Total GULP energy -167212.811023 kJ/mol
# GULP energy per Si atom -5573.760367 kJ/mol
# Density = 1.631679 g / cm^3
# Si number density = 16.354010 Si / 1000 Ang^3
#
#
#
# Elastic Constant Matrix: (Units=GPa)
#
#
# Indices 1 2 3 4 5 6 
#
# 1 139.9396 65.7175 78.5823 0.0000 0.0000 0.0000
# 2 65.7175 194.9597 73.7993 0.0000 0.0000 0.0000
# 3 78.5823 73.7993 151.0493 0.0000 0.0000 0.0000
# 4 0.0000 0.0000 0.0000 7.0099 0.0000 0.0000
# 5 0.0000 0.0000 0.0000 0.0000 39.3347 0.0000
# 6 0.0000 0.0000 0.0000 0.0000 0.0000 1.6490
#
#
#
# Elastic Compliance Matrix: (Units=1/GPa)
#
#
# Indices 1 2 3 4 5 6 
#
# 1 0.010598 -0.001822 -0.004623 0.000000 0.000000 0.000000
# 2 -0.001822 0.006607 -0.002280 0.000000 0.000000 0.000000
# 3 -0.004623 -0.002280 0.010139 0.000000 0.000000 0.000000
# 4 0.000000 0.000000 0.000000 0.142656 0.000000 0.000000
# 5 0.000000 0.000000 0.000000 0.000000 0.025423 0.000000
# 6 0.000000 0.000000 0.000000 0.000000 0.000000 0.606433
#
#
# Mechanical properties :
#
#
# Convention : Reuss Voigt Hill
#
# Bulk Modulus (GPa) = 101.07830 102.46074 101.76952
# Shear Modulus (GPa) = 6.07827 27.45535 16.76681
#
# Velocity S-wave (km/s) = 1.92996 4.10178 3.20541
# Velocity P-wave (km/s) = 8.17967 9.23150 8.72145
#
# Compressibility (1/GPa) = 0.00989332
#
# Stress axis : x y z
#
# Youngs Moduli (GPa) = 94.35931 151.36594 98.62612
#
# Poissons Ratio (x) = 0.27584 0.45596
# Poissons Ratio (y) = 0.17195 0.22484
# Poissons Ratio (z) = 0.43623 0.34507
#
# Static dielectric constant tensor:
#      x y z
#    x 1.557150 0.000000 0.000000 
#    y 0.000000 1.533310 0.000000 
#    z 0.000000 0.000000 1.549740 
# 
# From -- ./inp_files/20193.got.cif
#   From: 2010.05.17/outbox.cif.g08.bks.cpg/sg74_11_cif.got.tgz:20193.got - 2010.06.03 17:57:02.
