data_PCOD9535300
_publ_section_title
;
Structure prediction by ZEFSAII (Michael W. Deem and Ramdas Pophale) SiO2 
 PCOD9535300
Probable space group: I M M A
;
_chemical_formula_sum "Si O2"
_cell_formula_units_Z 116
_cell_length_a 27.400934
_cell_length_b 7.474979
_cell_length_c 28.362277
_cell_angle_alpha 90.000000
_cell_angle_beta 90.000000
_cell_angle_gamma 90.000000
_cell_volume 5809.201459
_symmetry_space_group_name_H-M "I M M A"
_symmetry_group_IT_number 74
_symmetry_cell_setting 'orthorhombic'
loop_
_space_group_symop_operation_xyz
x,y,z
-x,1/2-y,z
x,-y,-z
-x,1/2+y,-z
-x,-y,-z
x,1/2+y,-z
-x,y,z
x,1/2-y,z
1/2+x,1/2+y,1/2+z
1/2-x,-y,1/2+z
1/2+x,1/2-y,1/2-z
1/2-x,y,1/2-z
1/2-x,1/2-y,1/2-z
1/2+x,y,1/2-z
1/2-x,1/2+y,1/2+z
1/2+x,-y,1/2+z
loop_
_atom_site_type_symbol
_atom_site_label
_atom_site_fract_x
_atom_site_fract_y
_atom_site_fract_z
Si Si1 0.947793 0.033286 0.699310
Si Si2 0.749307 0.954752 0.135093
Si Si3 0.500000 0.250000 0.593666
Si Si4 0.927307 0.047140 0.055630
Si Si5 0.341930 0.033458 0.807459
Si Si6 0.659352 0.960870 0.696250
Si Si7 0.684275 0.463338 0.554389
Si Si8 0.447388 0.540609 0.689309
O O1 0.947322 0.250000 0.701026
O O2 0.896434 0.976171 0.677381
O O3 0.000000 0.977406 0.678332
O O4 0.947499 0.968730 0.753531
O O5 0.736109 0.750000 0.123321
O O6 0.702035 0.035405 0.160346
O O7 0.773734 0.035542 0.088557
O O8 0.794018 0.954337 0.171941
O O9 0.457344 0.406508 0.585689
O O10 0.943520 0.250000 0.063044
O O11 0.869447 0.037901 0.065056
O O12 0.934224 0.000000 0.000000
O O13 0.340106 0.250000 0.808148
O O14 0.336572 0.982416 0.752596
O O15 0.660017 0.750000 0.685662
O O16 0.606569 0.032554 0.678466
O O17 0.694973 0.500000 0.500000
O O18 0.680575 0.250000 0.561226
O O19 0.500000 0.454564 0.675420
O O20 0.448413 0.750000 0.675776
#
# Coordination Sequence:
#
# PCOD9535300 Si02
#       8
#    16  16   4  16  16  16  16  16
#     4   8  13  22  39  63  90 118 151 190 225 264
#     4  10  21  34  51  67  92 128 158 195 244 296
#     4  12  20  32  50  82 108 126 160 212 258 334
#     4  11  20  31  51  77 103 130 159 204 265 321
#     4   9  17  30  46  69  98 128 162 190 232 292
#     4  10  19  29  45  70  96 124 158 200 240 279
#     4  10  20  38  55  72  93 122 162 209 258 312
#     4   8  14  25  40  57  81 118 155 189 227 272
#
# _framework density 19.968322000000001
#
# number of rings (size 3 to 8) (size 9 to 14) (size 15 to 20)
#    0.000    2.483    1.379    2.483    0.000    3.862 
#    0.000    0.000    1.517    0.000    0.000    0.000 
#    0.000    0.552    0.000    0.414    0.000    1.103 
#
# Total GULP energy -323320.377388 kJ/mol
# GULP energy per Si atom -5574.489265 kJ/mol
# Density = 1.992287 g / cm^3
# Si number density = 19.968322 Si / 1000 Ang^3
#
#
#
# Elastic Constant Matrix: (Units=GPa)
#
#
# Indices 1 2 3 4 5 6 
#
# 1 187.9873 4.9482 72.1707 0.0000 0.0000 0.0000
# 2 4.9482 98.5125 1.7128 0.0000 0.0000 0.0000
# 3 72.1707 1.7128 75.3834 0.0000 0.0000 0.0000
# 4 0.0000 0.0000 0.0000 49.2964 0.0000 0.0000
# 5 0.0000 0.0000 0.0000 0.0000 -25.0984 0.0000
# 6 0.0000 0.0000 0.0000 0.0000 0.0000 12.0534
#
#
#
# Elastic Compliance Matrix: (Units=1/GPa)
#
#
# Indices 1 2 3 4 5 6 
#
# 1 0.008419 -0.000283 -0.008054 0.000000 0.000000 0.000000
# 2 -0.000283 0.010165 0.000040 0.000000 0.000000 0.000000
# 3 -0.008054 0.000040 0.020975 0.000000 0.000000 0.000000
# 4 0.000000 0.000000 0.000000 0.020285 0.000000 0.000000
# 5 0.000000 0.000000 0.000000 0.000000 -0.039843 0.000000
# 6 0.000000 0.000000 0.000000 0.000000 0.000000 0.082964
#
#
# Mechanical properties :
#
#
# Convention : Reuss Voigt Hill
#
# Bulk Modulus (GPa) = 43.54434 57.72740 50.63587
# Shear Modulus (GPa) = 39.30421 26.12038 32.71229
#
# Velocity S-wave (km/s) = 4.44140 3.62068 4.05187
# Velocity P-wave (km/s) = 6.93941 6.81552 6.87774
#
# Compressibility (1/GPa) = 0.02296510
#
# Stress axis : x y z
#
# Youngs Moduli (GPa) = 118.78129 98.38149 47.67583
#
# Poissons Ratio (x) = 0.02783 0.38396
# Poissons Ratio (y) = 0.03360 -0.00190
# Poissons Ratio (z) = 0.95662 -0.00392
#
# Static dielectric constant tensor:
#      x y z
#    x 1.756500 0.000000 0.000000 
#    y 0.000000 1.278750 0.000000 
#    z 0.000000 0.000000 1.714660 
# 
# From -- ./inp_files/73941.got.cif
#   From: 2010.05.17/outbox.cif.g08.bks.cpg/sg74_37_cif.got.tgz:73941.got - 2010.06.03 17:57:02.
