data_PCOD9535998
_publ_section_title
;
Structure prediction by ZEFSAII (Michael W. Deem and Ramdas Pophale) SiO2 
 PCOD9535998
Probable space group: I M M A
;
_chemical_formula_sum "Si O2"
_cell_formula_units_Z 72
_cell_length_a 19.758356
_cell_length_b 25.050318
_cell_length_c 7.573273
_cell_angle_alpha 90.000000
_cell_angle_beta 90.000000
_cell_angle_gamma 90.000000
_cell_volume 3748.414956
_symmetry_space_group_name_H-M "I M M A"
_symmetry_group_IT_number 74
_symmetry_cell_setting 'orthorhombic'
loop_
_space_group_symop_operation_xyz
x,y,z
-x,1/2-y,z
x,-y,-z
-x,1/2+y,-z
-x,-y,-z
x,1/2+y,-z
-x,y,z
x,1/2-y,z
1/2+x,1/2+y,1/2+z
1/2-x,-y,1/2+z
1/2+x,1/2-y,1/2-z
1/2-x,y,1/2-z
1/2-x,1/2-y,1/2-z
1/2+x,y,1/2-z
1/2-x,1/2+y,1/2+z
1/2+x,-y,1/2+z
loop_
_atom_site_type_symbol
_atom_site_label
_atom_site_fract_x
_atom_site_fract_y
_atom_site_fract_z
Si Si1 0.922453 0.106900 0.573929
Si Si2 0.895687 0.689056 0.731886
Si Si3 0.720658 0.940142 0.056002
Si Si4 0.078804 0.691405 0.142071
Si Si5 0.250000 0.357670 0.250000
O O1 0.924144 0.146278 0.405126
O O2 0.861361 0.065528 0.548128
O O3 0.896390 0.143648 0.736751
O O4 0.000000 0.087425 0.604730
O O5 0.912460 0.750000 0.681338
O O6 0.815659 0.678860 0.735274
O O7 0.918279 0.680735 0.933720
O O8 0.750000 0.930200 0.250000
O O9 0.750281 0.896756 0.919365
O O10 0.739816 0.000000 0.000000
O O11 0.110541 0.750000 0.174379
O O12 0.000000 0.695130 0.191713
#
# Coordination Sequence:
#
# PCOD9535998 Si02
#       5
#    16  16  16  16   8
#     4  10  21  35  54  82 113 142 181 229 274 327
#     4  10  19  32  53  80 112 147 180 217 266 325
#     4  11  22  39  61  79 102 143 187 232 286 335
#     4   9  17  30  49  74 107 144 175 206 254 318
#     4  10  21  36  54  80 108 138 183 232 272 324
#
# _framework density 19.208117000000001
#
# number of rings (size 3 to 8) (size 9 to 14) (size 15 to 20)
#    0.000    2.000    1.111    3.000    0.000    2.667 
#    0.000    0.000    0.000   11.333    0.000    0.000 
#    0.000    0.000    0.000    0.000    0.000    0.000 
#
# Total GULP energy -200766.802554 kJ/mol
# GULP energy per Si atom -5576.855627 kJ/mol
# Density = 1.916440 g / cm^3
# Si number density = 19.208117 Si / 1000 Ang^3
#
#
#
# Elastic Constant Matrix: (Units=GPa)
#
#
# Indices 1 2 3 4 5 6 
#
# 1 74.6427 -3.5358 -2.3459 0.0000 0.0000 0.0000
# 2 -3.5358 40.6506 17.1213 0.0000 0.0000 0.0000
# 3 -2.3459 17.1213 82.4758 0.0000 0.0000 0.0000
# 4 0.0000 0.0000 0.0000 6.7751 0.0000 0.0000
# 5 0.0000 0.0000 0.0000 0.0000 10.8292 0.0000
# 6 0.0000 0.0000 0.0000 0.0000 0.0000 20.2021
#
#
#
# Elastic Compliance Matrix: (Units=1/GPa)
#
#
# Indices 1 2 3 4 5 6 
#
# 1 0.013454 0.001106 0.000153 0.000000 0.000000 0.000000
# 2 0.001106 0.027048 -0.005583 0.000000 0.000000 0.000000
# 3 0.000153 -0.005583 0.013288 0.000000 0.000000 0.000000
# 4 0.000000 0.000000 0.000000 0.147599 0.000000 0.000000
# 5 0.000000 0.000000 0.000000 0.000000 0.092343 0.000000
# 6 0.000000 0.000000 0.000000 0.000000 0.000000 0.049500
#
#
# Mechanical properties :
#
#
# Convention : Reuss Voigt Hill
#
# Bulk Modulus (GPa) = 22.15273 24.47204 23.31239
# Shear Modulus (GPa) = 13.62665 19.99658 16.81161
#
# Velocity S-wave (km/s) = 2.66639 3.23003 2.96165
# Velocity P-wave (km/s) = 4.58667 5.16516 4.88449
#
# Compressibility (1/GPa) = 0.04514117
#
# Stress axis : x y z
#
# Youngs Moduli (GPa) = 74.32539 36.97171 75.25470
#
# Poissons Ratio (x) = -0.04088 -0.01152
# Poissons Ratio (y) = -0.08219 0.42018
# Poissons Ratio (z) = -0.01138 0.20643
#
# Static dielectric constant tensor:
#      x y z
#    x 1.531160 0.000000 0.000000 
#    y 0.000000 1.674430 0.000000 
#    z 0.000000 0.000000 1.665710 
# 
# From -- ./inp_files/10665.got.cif
#   From: 2010.05.17/outbox.cif.g08.bks.cpg/sg74_6_cif.got.tgz:10665.got - 2010.06.03 17:57:02.
