data_PCOD9535923
_publ_section_title
;
Structure prediction by ZEFSAII (Michael W. Deem and Ramdas Pophale) SiO2 
 PCOD9535923
Probable space group: I M M A
;
_chemical_formula_sum "Si O2"
_cell_formula_units_Z 80
_cell_length_a 14.950148
_cell_length_b 9.364397
_cell_length_c 26.740446
_cell_angle_alpha 90.000000
_cell_angle_beta 90.000000
_cell_angle_gamma 90.000000
_cell_volume 3743.638937
_symmetry_space_group_name_H-M "I M M A"
_symmetry_group_IT_number 74
_symmetry_cell_setting 'orthorhombic'
loop_
_space_group_symop_operation_xyz
x,y,z
-x,1/2-y,z
x,-y,-z
-x,1/2+y,-z
-x,-y,-z
x,1/2+y,-z
-x,y,z
x,1/2-y,z
1/2+x,1/2+y,1/2+z
1/2-x,-y,1/2+z
1/2+x,1/2-y,1/2-z
1/2-x,y,1/2-z
1/2-x,1/2-y,1/2-z
1/2+x,y,1/2-z
1/2-x,1/2+y,1/2+z
1/2+x,-y,1/2+z
loop_
_atom_site_type_symbol
_atom_site_label
_atom_site_fract_x
_atom_site_fract_y
_atom_site_fract_z
Si Si1 0.893448 0.089834 0.953932
Si Si2 0.145808 0.412941 0.649913
Si Si3 0.359491 0.585611 0.752678
Si Si4 0.359814 0.913302 0.343965
Si Si5 0.392165 0.913502 0.951091
O O1 0.854566 0.250000 0.953117
O O2 0.881379 0.026389 0.898787
O O3 0.000000 0.102050 0.961435
O O4 0.856734 0.000000 0.000000
O O5 0.112076 0.250000 0.646587
O O6 0.111580 0.498001 0.698374
O O7 0.252534 0.405144 0.657815
O O8 0.129472 0.500075 0.599240
O O9 0.387447 0.750000 0.755504
O O10 0.250000 0.585175 0.750000
O O11 0.390745 0.507763 0.702281
O O12 0.394206 0.750000 0.340921
O O13 0.500000 0.906115 0.954213
O O14 0.358225 0.750000 0.949638
O O15 0.360879 0.000000 0.000000
#
# Coordination Sequence:
#
# PCOD9535923 Si02
#       5
#    16  16  16  16  16
#     4   9  18  33  51  70  96 130 165 201 243 290
#     4  10  19  32  52  76 102 131 164 204 248 296
#     4   9  17  30  49  73 100 131 166 204 248 295
#     4   9  18  32  50  74 101 130 166 207 250 294
#     4  10  21  37  55  74  99 131 166 204 247 297
#
# _framework density 21.369582000000001
#
# number of rings (size 3 to 8) (size 9 to 14) (size 15 to 20)
#    0.000    2.600    0.000    1.800    0.000    6.000 
#    0.000    3.000    0.000    3.600    0.000    0.000 
#    0.000    0.000    0.000    0.000    0.000    0.000 
#
# Total GULP energy -223357.855694 kJ/mol
# GULP energy per Si atom -5583.946392 kJ/mol
# Density = 2.132094 g / cm^3
# Si number density = 21.369582 Si / 1000 Ang^3
#
#
#
# Elastic Constant Matrix: (Units=GPa)
#
#
# Indices 1 2 3 4 5 6 
#
# 1 47.3568 6.5358 -2.0131 0.0000 0.0000 0.0000
# 2 6.5358 187.9408 143.3542 0.0000 0.0000 0.0000
# 3 -2.0131 143.3542 254.8210 0.0000 0.0000 0.0000
# 4 0.0000 0.0000 0.0000 37.3988 0.0000 0.0000
# 5 0.0000 0.0000 0.0000 0.0000 30.4696 0.0000
# 6 0.0000 0.0000 0.0000 0.0000 0.0000 -2.2107
#
#
#
# Elastic Compliance Matrix: (Units=1/GPa)
#
#
# Indices 1 2 3 4 5 6 
#
# 1 0.021371 -0.001527 0.001028 0.000000 0.000000 0.000000
# 2 -0.001527 0.009429 -0.005317 0.000000 0.000000 0.000000
# 3 0.001028 -0.005317 0.006923 0.000000 0.000000 0.000000
# 4 0.000000 0.000000 0.000000 0.026739 0.000000 0.000000
# 5 0.000000 0.000000 0.000000 0.000000 0.032820 0.000000
# 6 0.000000 0.000000 0.000000 0.000000 0.000000 -0.452345
#
#
# Mechanical properties :
#
#
# Convention : Reuss Voigt Hill
#
# Bulk Modulus (GPa) = 38.32652 87.31915 62.82284
# Shear Modulus (GPa) = -14.93724 35.94766 10.50521
#
# Velocity S-wave (km/s) = -2.64672 4.10590 2.21960
# Velocity P-wave (km/s) = 2.93834 7.96417 6.00258
#
# Compressibility (1/GPa) = 0.02609159
#
# Stress axis : x y z
#
# Youngs Moduli (GPa) = 46.79283 106.05218 144.43662
#
# Poissons Ratio (x) = 0.16198 -0.14849
# Poissons Ratio (y) = 0.07147 0.76793
# Poissons Ratio (z) = -0.04811 0.56385
#
# Static dielectric constant tensor:
#      x y z
#    x 1.816080 0.000000 0.000000 
#    y 0.000000 1.761580 0.000000 
#    z 0.000000 0.000000 1.738310 
# 
# From -- ./inp_files/67533.got.cif
#   From: 2010.05.17/outbox.cif.g08.bks.cpg/sg74_34_cif.got.tgz:67533.got - 2010.06.03 17:57:02.
