data_PCOD9535893
_publ_section_title
;
Structure prediction by ZEFSAII (Michael W. Deem and Ramdas Pophale) SiO2 
 PCOD9535893
Probable space group: I M M A
;
_chemical_formula_sum "Si O2"
_cell_formula_units_Z 104
_cell_length_a 26.664836
_cell_length_b 8.487754
_cell_length_c 22.158971
_cell_angle_alpha 90.000000
_cell_angle_beta 90.000000
_cell_angle_gamma 90.000000
_cell_volume 5015.119548
_symmetry_space_group_name_H-M "I M M A"
_symmetry_group_IT_number 74
_symmetry_cell_setting 'orthorhombic'
loop_
_space_group_symop_operation_xyz
x,y,z
-x,1/2-y,z
x,-y,-z
-x,1/2+y,-z
-x,-y,-z
x,1/2+y,-z
-x,y,z
x,1/2-y,z
1/2+x,1/2+y,1/2+z
1/2-x,-y,1/2+z
1/2+x,1/2-y,1/2-z
1/2-x,y,1/2-z
1/2-x,1/2-y,1/2-z
1/2+x,y,1/2-z
1/2-x,1/2+y,1/2+z
1/2+x,-y,1/2+z
loop_
_atom_site_type_symbol
_atom_site_label
_atom_site_fract_x
_atom_site_fract_y
_atom_site_fract_z
Si Si1 0.107393 0.061172 0.384311
Si Si2 0.128252 0.934967 0.933204
Si Si3 0.642696 0.435118 0.756933
Si Si4 0.000000 0.558461 0.568730
Si Si5 0.442319 0.564143 0.672893
Si Si6 0.786510 0.936373 0.153819
Si Si7 0.207924 0.062465 0.436868
O O1 0.105535 0.250000 0.389139
O O2 0.051396 0.003227 0.398999
O O3 0.150789 0.002969 0.429472
O O4 0.127964 0.018747 0.318494
O O5 0.142194 0.750000 0.933773
O O6 0.076819 0.950643 0.895678
O O7 0.169792 0.027187 0.894672
O O8 0.124547 0.000000 0.000000
O O9 0.649981 0.250000 0.768317
O O10 0.595080 0.463517 0.713470
O O11 0.690843 0.493458 0.718016
O O12 0.000000 0.500000 0.500000
O O13 0.000000 0.750000 0.569209
O O14 0.500000 0.520724 0.680202
O O15 0.436451 0.750000 0.689412
O O16 0.778470 0.750000 0.159213
O O17 0.738167 0.011421 0.122734
O O18 0.208481 0.250000 0.439761
O O19 0.229911 0.000000 0.500000
#
# Coordination Sequence:
#
# PCOD9535893 Si02
#       7
#    16  16  16   8  16  16  16
#     4  10  23  41  62  89 121 157 195 237 293 355
#     4  10  19  32  51  76 107 145 190 237 289 347
#     4  10  22  38  58  86 117 150 194 243 292 343
#     4  10  22  42  66  92 122 158 197 240 293 350
#     4   9  19  35  54  75 105 147 190 236 290 349
#     4  10  21  38  58  82 115 154 193 239 291 345
#     4  11  23  39  61  89 119 154 196 242 291 349
#
# _framework density 20.737290999999999
#
# number of rings (size 3 to 8) (size 9 to 14) (size 15 to 20)
#    0.000    2.000    0.000    2.769    1.077    5.538 
#    0.000    3.077    0.000    0.000    0.000    0.000 
#    0.000    0.000    0.000    0.000    0.000    0.000 
#
# Total GULP energy -290362.583800 kJ/mol
# GULP energy per Si atom -5583.895842 kJ/mol
# Density = 2.069009 g / cm^3
# Si number density = 20.737291 Si / 1000 Ang^3
#
#
#
# Elastic Constant Matrix: (Units=GPa)
#
#
# Indices 1 2 3 4 5 6 
#
# 1 127.5323 17.6749 39.4082 0.0000 0.0000 0.0000
# 2 17.6749 12.4667 -1.7777 0.0000 0.0000 0.0000
# 3 39.4082 -1.7777 106.2127 0.0000 0.0000 0.0000
# 4 0.0000 0.0000 0.0000 30.5327 0.0000 0.0000
# 5 0.0000 0.0000 0.0000 0.0000 12.9318 0.0000
# 6 0.0000 0.0000 0.0000 0.0000 0.0000 -39.4686
#
#
#
# Elastic Compliance Matrix: (Units=1/GPa)
#
#
# Indices 1 2 3 4 5 6 
#
# 1 0.011644 -0.017165 -0.004608 0.000000 0.000000 0.000000
# 2 -0.017165 0.105711 0.008138 0.000000 0.000000 0.000000
# 3 -0.004608 0.008138 0.011261 0.000000 0.000000 0.000000
# 4 0.000000 0.000000 0.000000 0.032752 0.000000 0.000000
# 5 0.000000 0.000000 0.000000 0.000000 0.077329 0.000000
# 6 0.000000 0.000000 0.000000 0.000000 0.000000 -0.025337
#
#
# Mechanical properties :
#
#
# Convention : Reuss Voigt Hill
#
# Bulk Modulus (GPa) = 9.86717 39.64696 24.75706
# Shear Modulus (GPa) = 18.22082 13.52625 15.87353
#
# Velocity S-wave (km/s) = 2.96742 2.55672 2.76969
# Velocity P-wave (km/s) = 4.06316 5.27977 4.71090
#
# Compressibility (1/GPa) = 0.10134623
#
# Stress axis : x y z
#
# Youngs Moduli (GPa) = 85.88191 9.45975 88.80341
#
# Poissons Ratio (x) = 0.16238 0.40917
# Poissons Ratio (y) = 1.47420 -0.72270
# Poissons Ratio (z) = 0.39571 -0.07699
#
# Static dielectric constant tensor:
#      x y z
#    x 1.770230 0.000000 0.000000 
#    y 0.000000 1.719360 0.000000 
#    z 0.000000 0.000000 1.724680 
# 
# From -- ./inp_files/49240.got.cif
#   From: 2010.05.17/outbox.cif.g08.bks.cpg/sg74_25_cif.got.tgz:49240.got - 2010.06.03 17:57:02.
