data_PCOD9535896
_publ_section_title
;
Structure prediction by ZEFSAII (Michael W. Deem and Ramdas Pophale) SiO2 
 PCOD9535896
Probable space group: I M M A
;
_chemical_formula_sum "Si O2"
_cell_formula_units_Z 72
_cell_length_a 19.692988
_cell_length_b 8.390900
_cell_length_c 23.791664
_cell_angle_alpha 90.000000
_cell_angle_beta 90.000000
_cell_angle_gamma 90.000000
_cell_volume 3931.379597
_symmetry_space_group_name_H-M "I M M A"
_symmetry_group_IT_number 74
_symmetry_cell_setting 'orthorhombic'
loop_
_space_group_symop_operation_xyz
x,y,z
-x,1/2-y,z
x,-y,-z
-x,1/2+y,-z
-x,-y,-z
x,1/2+y,-z
-x,y,z
x,1/2-y,z
1/2+x,1/2+y,1/2+z
1/2-x,-y,1/2+z
1/2+x,1/2-y,1/2-z
1/2-x,y,1/2-z
1/2-x,1/2-y,1/2-z
1/2+x,y,1/2-z
1/2-x,1/2+y,1/2+z
1/2+x,-y,1/2+z
loop_
_atom_site_type_symbol
_atom_site_label
_atom_site_fract_x
_atom_site_fract_y
_atom_site_fract_z
Si Si1 0.272418 0.940492 0.937941
Si Si2 0.116104 0.557841 0.939022
Si Si3 0.000000 0.056917 0.145922
Si Si4 0.500000 0.557888 0.226982
Si Si5 0.500000 0.441127 0.062386
Si Si6 0.884566 0.438642 0.641935
O O1 0.274333 0.750000 0.940487
O O2 0.194149 0.996038 0.932176
O O3 0.314647 0.992220 0.882811
O O4 0.296900 0.000000 0.000000
O O5 0.116173 0.750000 0.939371
O O6 0.065992 0.505229 0.889652
O O7 0.091893 0.500000 0.000000
O O8 0.000000 0.250000 0.148177
O O9 0.000000 0.992843 0.208806
O O10 0.500000 0.750000 0.222089
O O11 0.569634 0.502446 0.195182
O O12 0.500000 0.250000 0.067700
O O13 0.564646 0.517343 0.091915
O O14 0.500000 0.500000 0.000000
O O15 0.875734 0.250000 0.648591
#
# Coordination Sequence:
#
# PCOD9535896 Si02
#       6
#    16  16   8   8   8  16
#     4  10  19  32  51  77 108 139 171 208 257 311
#     4   9  19  34  54  82 110 135 166 207 256 312
#     4  10  20  36  57  79 104 134 171 215 260 306
#     4   9  21  38  54  73  98 133 178 220 255 298
#     4  11  20  30  46  70  98 131 171 211 257 306
#     4  10  20  35  51  70 100 135 174 217 255 298
#
# _framework density 18.314181999999999
#
# number of rings (size 3 to 8) (size 9 to 14) (size 15 to 20)
#    0.000    2.222    0.000    4.000    0.000    4.444 
#    0.000    1.111    0.000    6.667    0.000    0.000 
#    0.000    0.000    0.000    0.000    0.000    0.000 
#
# Total GULP energy -200562.950159 kJ/mol
# GULP energy per Si atom -5571.193060 kJ/mol
# Density = 1.827250 g / cm^3
# Si number density = 18.314182 Si / 1000 Ang^3
#
#
#
# Elastic Constant Matrix: (Units=GPa)
#
#
# Indices 1 2 3 4 5 6 
#
# 1 95.9540 12.0808 71.4899 0.0000 0.0000 0.0000
# 2 12.0808 14.7266 8.5397 0.0000 0.0000 0.0000
# 3 71.4899 8.5397 157.5815 0.0000 0.0000 0.0000
# 4 0.0000 0.0000 0.0000 31.0439 0.0000 0.0000
# 5 0.0000 0.0000 0.0000 0.0000 -2.8283 0.0000
# 6 0.0000 0.0000 0.0000 0.0000 0.0000 36.3240
#
#
#
# Elastic Compliance Matrix: (Units=1/GPa)
#
#
# Indices 1 2 3 4 5 6 
#
# 1 0.017007 -0.009785 -0.007185 0.000000 0.000000 0.000000
# 2 -0.009785 0.075737 0.000335 0.000000 0.000000 0.000000
# 3 -0.007185 0.000335 0.009588 0.000000 0.000000 0.000000
# 4 0.000000 0.000000 0.000000 0.032212 0.000000 0.000000
# 5 0.000000 0.000000 0.000000 0.000000 -0.353567 0.000000
# 6 0.000000 0.000000 0.000000 0.000000 0.000000 0.027530
#
#
# Mechanical properties :
#
#
# Convention : Reuss Voigt Hill
#
# Bulk Modulus (GPa) = 14.48004 50.27588 32.37796
# Shear Modulus (GPa) = -36.98161 24.65136 -6.16512
#
# Velocity S-wave (km/s) = -4.49852 3.67280 -1.83674
# Velocity P-wave (km/s) = 4.36562 6.74518 3.63585
#
# Compressibility (1/GPa) = 0.06906060
#
# Stress axis : x y z
#
# Youngs Moduli (GPa) = 58.79955 13.20360 104.30230
#
# Poissons Ratio (x) = 0.12920 0.74944
# Poissons Ratio (y) = 0.57535 -0.03491
# Poissons Ratio (z) = 0.42249 -0.00442
#
# Static dielectric constant tensor:
#      x y z
#    x 1.654350 0.000000 0.000000 
#    y 0.000000 1.641370 0.000000 
#    z 0.000000 0.000000 1.595310 
# 
# From -- ./inp_files/48447.got.cif
#   From: 2010.05.17/outbox.cif.g08.bks.cpg/sg74_25_cif.got.tgz:48447.got - 2010.06.03 17:57:02.
