data_PCOD9535632
_publ_section_title
;
Structure prediction by ZEFSAII (Michael W. Deem and Ramdas Pophale) SiO2 
 PCOD9535632
Probable space group: I M M A
;
_chemical_formula_sum "Si O2"
_cell_formula_units_Z 112
_cell_length_a 25.093569
_cell_length_b 14.910579
_cell_length_c 15.989489
_cell_angle_alpha 90.000000
_cell_angle_beta 90.000000
_cell_angle_gamma 90.000000
_cell_volume 5982.621495
_symmetry_space_group_name_H-M "I M M A"
_symmetry_group_IT_number 74
_symmetry_cell_setting 'orthorhombic'
loop_
_space_group_symop_operation_xyz
x,y,z
-x,1/2-y,z
x,-y,-z
-x,1/2+y,-z
-x,-y,-z
x,1/2+y,-z
-x,y,z
x,1/2-y,z
1/2+x,1/2+y,1/2+z
1/2-x,-y,1/2+z
1/2+x,1/2-y,1/2-z
1/2-x,y,1/2-z
1/2-x,1/2-y,1/2-z
1/2+x,y,1/2-z
1/2-x,1/2+y,1/2+z
1/2+x,-y,1/2+z
loop_
_atom_site_type_symbol
_atom_site_label
_atom_site_fract_x
_atom_site_fract_y
_atom_site_fract_z
Si Si1 0.615585 0.480635 0.304372
Si Si2 0.289996 0.995504 0.811443
Si Si3 0.060929 0.355283 0.332499
Si Si4 0.940327 0.411008 0.942323
Si Si5 0.157454 0.147837 0.049131
Si Si6 0.256149 0.353697 0.927403
Si Si7 0.838026 0.647327 0.564844
O O1 0.659054 0.523595 0.242938
O O2 0.581709 0.414307 0.245000
O O3 0.579971 0.552983 0.352962
O O4 0.645081 0.420907 0.375865
O O5 0.250000 0.945165 0.750000
O O6 0.258552 0.077826 0.851812
O O7 0.308299 0.926526 0.881094
O O8 0.063781 0.250000 0.308848
O O9 0.100156 0.366396 0.412070
O O10 0.000000 0.377376 0.351950
O O11 0.000000 0.371560 0.939069
O O12 0.943831 0.500000 0.000000
O O13 0.893680 0.355367 0.987117
O O14 0.164552 0.250000 0.079898
O O15 0.209595 0.123403 0.994239
O O16 0.247679 0.250000 0.903590
O O17 0.313846 0.361635 0.972724
O O18 0.824910 0.750000 0.590586
#
# Coordination Sequence:
#
# PCOD9535632 Si02
#       7
#    16  16  16  16  16  16  16
#     4  10  19  31  49  75 105 135 168 207 259 310
#     4  11  21  32  52  77 103 136 170 210 263 315
#     4   9  17  30  50  77 106 134 166 207 258 312
#     4   9  18  32  49  71 102 138 173 206 244 301
#     4  10  20  34  53  76 102 134 172 214 258 307
#     4  10  21  37  54  73 101 137 178 221 259 303
#     4   9  19  34  53  77 104 135 170 210 256 306
#
# _framework density 18.720890000000001
#
# number of rings (size 3 to 8) (size 9 to 14) (size 15 to 20)
#    0.000    2.286    0.000    3.000    0.000    4.286 
#    0.000    0.714    0.000    7.714    0.000    0.000 
#    0.000    0.000    0.000    0.000    0.000    0.000 
#
# Total GULP energy -312218.680829 kJ/mol
# GULP energy per Si atom -5575.333586 kJ/mol
# Density = 1.867828 g / cm^3
# Si number density = 18.720890 Si / 1000 Ang^3
#
#
#
# Elastic Constant Matrix: (Units=GPa)
#
#
# Indices 1 2 3 4 5 6 
#
# 1 87.2862 21.4716 20.7268 0.0000 0.0000 0.0000
# 2 21.4716 41.9484 16.1922 0.0000 0.0000 0.0000
# 3 20.7268 16.1922 33.4715 0.0000 0.0000 0.0000
# 4 0.0000 0.0000 0.0000 3.2642 0.0000 0.0000
# 5 0.0000 0.0000 0.0000 0.0000 24.8636 0.0000
# 6 0.0000 0.0000 0.0000 0.0000 0.0000 16.7269
#
#
#
# Elastic Compliance Matrix: (Units=1/GPa)
#
#
# Indices 1 2 3 4 5 6 
#
# 1 0.014162 -0.004751 -0.006471 0.000000 0.000000 0.000000
# 2 -0.004751 0.030906 -0.012009 0.000000 0.000000 0.000000
# 3 -0.006471 -0.012009 0.039693 0.000000 0.000000 0.000000
# 4 0.000000 0.000000 0.000000 0.306352 0.000000 0.000000
# 5 0.000000 0.000000 0.000000 0.000000 0.040219 0.000000
# 6 0.000000 0.000000 0.000000 0.000000 0.000000 0.059784
#
#
# Mechanical properties :
#
#
# Convention : Reuss Voigt Hill
#
# Bulk Modulus (GPa) = 26.11086 31.05413 28.58249
# Shear Modulus (GPa) = 9.08521 15.92532 12.50526
#
# Velocity S-wave (km/s) = 2.20534 2.91979 2.58734
# Velocity P-wave (km/s) = 4.52354 5.29064 4.92206
#
# Compressibility (1/GPa) = 0.03829824
#
# Stress axis : x y z
#
# Youngs Moduli (GPa) = 70.61189 32.35597 25.19335
#
# Poissons Ratio (x) = 0.15372 0.16303
# Poissons Ratio (y) = 0.33547 0.30255
# Poissons Ratio (z) = 0.45695 0.38857
#
# Static dielectric constant tensor:
#      x y z
#    x 1.691120 0.000000 0.000000 
#    y 0.000000 1.648130 0.000000 
#    z 0.000000 0.000000 1.644040 
# 
# From -- ./inp_files/36500.got.cif
#   From: 2010.05.17/outbox.cif.g08.bks.cpg/sg74_19_cif.got.tgz:36500.got - 2010.06.03 17:57:02.
