data_PCOD9535644
_publ_section_title
;
Structure prediction by ZEFSAII (Michael W. Deem and Ramdas Pophale) SiO2 
 PCOD9535644
Probable space group: I M M A
;
_chemical_formula_sum "Si O2"
_cell_formula_units_Z 88
_cell_length_a 29.365799
_cell_length_b 7.358855
_cell_length_c 17.832068
_cell_angle_alpha 90.000000
_cell_angle_beta 90.000000
_cell_angle_gamma 90.000000
_cell_volume 3853.485943
_symmetry_space_group_name_H-M "I M M A"
_symmetry_group_IT_number 74
_symmetry_cell_setting 'orthorhombic'
loop_
_space_group_symop_operation_xyz
x,y,z
-x,1/2-y,z
x,-y,-z
-x,1/2+y,-z
-x,-y,-z
x,1/2+y,-z
-x,y,z
x,1/2-y,z
1/2+x,1/2+y,1/2+z
1/2-x,-y,1/2+z
1/2+x,1/2-y,1/2-z
1/2-x,y,1/2-z
1/2-x,1/2-y,1/2-z
1/2+x,y,1/2-z
1/2-x,1/2+y,1/2+z
1/2+x,-y,1/2+z
loop_
_atom_site_type_symbol
_atom_site_label
_atom_site_fract_x
_atom_site_fract_y
_atom_site_fract_z
Si Si1 0.737505 0.966402 0.916532
Si Si2 0.500000 0.533104 0.589726
Si Si3 0.817980 0.972200 0.813274
Si Si4 0.902090 0.966964 0.911481
Si Si5 0.353355 0.028232 0.149874
Si Si6 0.550562 0.532882 0.910938
O O1 0.735800 0.750000 0.907164
O O2 0.770819 0.033984 0.850796
O O3 0.685658 0.032102 0.908305
O O4 0.755789 0.000000 0.000000
O O5 0.500000 0.750000 0.601959
O O6 0.500000 0.500000 0.500000
O O7 0.451216 0.462295 0.616435
O O8 0.816138 0.750000 0.812345
O O9 0.858487 0.033690 0.867742
O O10 0.832737 0.025888 0.730180
O O11 0.902956 0.750000 0.900833
O O12 0.898188 0.000000 0.000000
O O13 0.355673 0.250000 0.149048
O O14 0.404260 0.964065 0.131053
O O15 0.500000 0.463456 0.889291
O O16 0.549411 0.750000 0.899562
O O17 0.556052 0.500000 0.000000
#
# Coordination Sequence:
#
# PCOD9535644 Si02
#       6
#    16   8  16  16  16  16
#     4  10  19  31  50  71  91 119 154 190 227 270
#     4   8  14  24  38  58  80 106 139 176 218 256
#     4   9  17  29  45  67  92 119 150 186 226 268
#     4   9  16  27  43  62  85 113 148 186 223 264
#     4   9  17  30  47  69  95 121 152 188 228 273
#     4   9  17  30  49  72  95 121 153 190 229 269
#
# _framework density 22.836463999999999
#
# number of rings (size 3 to 8) (size 9 to 14) (size 15 to 20)
#    0.000    2.909    0.000    1.636    0.000    2.182 
#    1.636    0.000    0.000    5.455    0.000    0.000 
#    0.000    0.000    0.000    0.000    0.000    0.000 
#
# Total GULP energy -245494.658917 kJ/mol
# GULP energy per Si atom -5579.424066 kJ/mol
# Density = 2.278449 g / cm^3
# Si number density = 22.836464 Si / 1000 Ang^3
#
#
#
# Elastic Constant Matrix: (Units=GPa)
#
#
# Indices 1 2 3 4 5 6 
#
# 1 208.6639 10.7758 72.6493 0.0000 0.0000 0.0000
# 2 10.7758 86.7641 -7.6425 0.0000 0.0000 0.0000
# 3 72.6493 -7.6425 91.6696 0.0000 0.0000 0.0000
# 4 0.0000 0.0000 0.0000 12.3779 0.0000 0.0000
# 5 0.0000 0.0000 0.0000 0.0000 47.1755 0.0000
# 6 0.0000 0.0000 0.0000 0.0000 0.0000 -8.3151
#
#
#
# Elastic Compliance Matrix: (Units=1/GPa)
#
#
# Indices 1 2 3 4 5 6 
#
# 1 0.006766 -0.001322 -0.005472 0.000000 0.000000 0.000000
# 2 -0.001322 0.011869 0.002038 0.000000 0.000000 0.000000
# 3 -0.005472 0.002038 0.015416 0.000000 0.000000 0.000000
# 4 0.000000 0.000000 0.000000 0.080789 0.000000 0.000000
# 5 0.000000 0.000000 0.000000 0.000000 0.021197 0.000000
# 6 0.000000 0.000000 0.000000 0.000000 0.000000 -0.120264
#
#
# Mechanical properties :
#
#
# Convention : Reuss Voigt Hill
#
# Bulk Modulus (GPa) = 40.75590 59.85141 50.30365
# Shear Modulus (GPa) = 149.40163 31.00198 90.20180
#
# Velocity S-wave (km/s) = 8.09719 3.68851 6.29164
# Velocity P-wave (km/s) = 10.26181 6.66376 8.65190
#
# Compressibility (1/GPa) = 0.02453633
#
# Stress axis : x y z
#
# Youngs Moduli (GPa) = 147.79865 84.25159 64.86972
#
# Poissons Ratio (x) = 0.11141 0.35499
# Poissons Ratio (y) = 0.19544 -0.13217
# Poissons Ratio (z) = 0.80881 -0.17166
#
# Static dielectric constant tensor:
#      x y z
#    x 1.884610 0.000000 0.000000 
#    y 0.000000 1.829360 0.000000 
#    z 0.000000 0.000000 1.811190 
# 
# From -- ./inp_files/31077.got.cif
#   From: 2010.05.17/outbox.cif.g08.bks.cpg/sg74_16_cif.got.tgz:31077.got - 2010.06.03 17:57:02.
