data_PCOD9535347
_publ_section_title
;
Structure prediction by ZEFSAII (Michael W. Deem and Ramdas Pophale) SiO2 
 PCOD9535347
Probable space group: I M M A
;
_chemical_formula_sum "Si O2"
_cell_formula_units_Z 88
_cell_length_a 28.976071
_cell_length_b 7.316929
_cell_length_c 20.031523
_cell_angle_alpha 90.000000
_cell_angle_beta 90.000000
_cell_angle_gamma 90.000000
_cell_volume 4247.000460
_symmetry_space_group_name_H-M "I M M A"
_symmetry_group_IT_number 74
_symmetry_cell_setting 'orthorhombic'
loop_
_space_group_symop_operation_xyz
x,y,z
-x,1/2-y,z
x,-y,-z
-x,1/2+y,-z
-x,-y,-z
x,1/2+y,-z
-x,y,z
x,1/2-y,z
1/2+x,1/2+y,1/2+z
1/2-x,-y,1/2+z
1/2+x,1/2-y,1/2-z
1/2-x,y,1/2-z
1/2-x,1/2-y,1/2-z
1/2+x,y,1/2-z
1/2-x,1/2+y,1/2+z
1/2+x,-y,1/2+z
loop_
_atom_site_type_symbol
_atom_site_label
_atom_site_fract_x
_atom_site_fract_y
_atom_site_fract_z
Si Si1 0.212958 0.527776 0.340993
Si Si2 0.000000 0.532151 0.078749
Si Si3 0.813435 0.472149 0.809869
Si Si4 0.052344 0.027172 0.682809
Si Si5 0.627795 0.967732 0.077405
Si Si6 0.415456 0.527185 0.331191
O O1 0.214286 0.750000 0.341690
O O2 0.192452 0.477303 0.268247
O O3 0.266061 0.467312 0.344964
O O4 0.177579 0.464599 0.397286
O O5 0.046447 0.464593 0.115528
O O6 0.000000 0.750000 0.088909
O O7 0.000000 0.500000 0.000000
O O8 0.813909 0.250000 0.811076
O O9 0.862384 0.532993 0.839069
O O10 0.052551 0.250000 0.682355
O O11 0.087822 0.963552 0.626475
O O12 0.068298 0.974229 0.756912
O O13 0.000000 0.968749 0.670541
O O14 0.628682 0.750000 0.086864
O O15 0.619233 0.000000 0.000000
O O16 0.415006 0.750000 0.332984
#
# Coordination Sequence:
#
# PCOD9535347 Si02
#       6
#    16   8  16  16  16  16
#     4   8  13  22  38  63  90 111 138 184 232 259
#     4  10  20  32  48  70  95 120 144 176 225 276
#     4   8  12  20  39  66  89 106 138 191 231 251
#     4   9  15  25  43  67  89 111 149 195 227 251
#     4  10  19  30  44  64  93 125 150 181 226 270
#     4   9  14  24  44  69  90 111 146 190 225 256
#
# _framework density 20.720506
#
# number of rings (size 3 to 8) (size 9 to 14) (size 15 to 20)
#    0.000    3.091    2.727    1.091    0.000    0.364 
#    0.000    0.909    0.000    1.091    0.000    2.545 
#    0.000    0.000    0.000    0.000    0.000    0.000 
#
# Total GULP energy -245506.789354 kJ/mol
# GULP energy per Si atom -5579.699758 kJ/mol
# Density = 2.067335 g / cm^3
# Si number density = 20.720506 Si / 1000 Ang^3
#
#
#
# Elastic Constant Matrix: (Units=GPa)
#
#
# Indices 1 2 3 4 5 6 
#
# 1 238.0255 8.4052 111.7764 0.0000 0.0000 0.0000
# 2 8.4052 81.3279 -1.3579 0.0000 0.0000 0.0000
# 3 111.7764 -1.3579 142.4674 0.0000 0.0000 0.0000
# 4 0.0000 0.0000 0.0000 3.4278 0.0000 0.0000
# 5 0.0000 0.0000 0.0000 0.0000 33.1315 0.0000
# 6 0.0000 0.0000 0.0000 0.0000 0.0000 -16.6584
#
#
#
# Elastic Compliance Matrix: (Units=1/GPa)
#
#
# Indices 1 2 3 4 5 6 
#
# 1 0.006701 -0.000780 -0.005265 0.000000 0.000000 0.000000
# 2 -0.000780 0.012389 0.000730 0.000000 0.000000 0.000000
# 3 -0.005265 0.000730 0.011157 0.000000 0.000000 0.000000
# 4 0.000000 0.000000 0.000000 0.291735 0.000000 0.000000
# 5 0.000000 0.000000 0.000000 0.000000 0.030183 0.000000
# 6 0.000000 0.000000 0.000000 0.000000 0.000000 -0.060030
#
#
# Mechanical properties :
#
#
# Convention : Reuss Voigt Hill
#
# Bulk Modulus (GPa) = 50.97695 77.71870 64.34783
# Shear Modulus (GPa) = 16.16532 26.84663 21.50597
#
# Velocity S-wave (km/s) = 2.79617 3.60343 3.22515
# Velocity P-wave (km/s) = 5.92286 7.40962 6.70756
#
# Compressibility (1/GPa) = 0.01961671
#
# Stress axis : x y z
#
# Youngs Moduli (GPa) = 149.22539 80.71833 89.63003
#
# Poissons Ratio (x) = 0.06300 0.47191
# Poissons Ratio (y) = 0.11647 -0.06547
# Poissons Ratio (z) = 0.78569 -0.05896
#
# Static dielectric constant tensor:
#      x y z
#    x 1.753780 0.000000 0.000000 
#    y 0.000000 1.821670 0.000000 
#    z 0.000000 0.000000 1.688210 
# 
# From -- ./inp_files/26994.got.cif
#   From: 2010.05.17/outbox.cif.g08.bks.cpg/sg74_14_cif.got.tgz:26994.got - 2010.06.03 17:57:02.
