data_PCOD9535927
_publ_section_title
;
Structure prediction by ZEFSAII (Michael W. Deem and Ramdas Pophale) SiO2 
 PCOD9535927
Probable space group: I M M A
;
_chemical_formula_sum "Si O2"
_cell_formula_units_Z 80
_cell_length_a 27.242430
_cell_length_b 8.589704
_cell_length_c 19.113809
_cell_angle_alpha 90.000000
_cell_angle_beta 90.000000
_cell_angle_gamma 90.000000
_cell_volume 4472.715597
_symmetry_space_group_name_H-M "I M M A"
_symmetry_group_IT_number 74
_symmetry_cell_setting 'orthorhombic'
loop_
_space_group_symop_operation_xyz
x,y,z
-x,1/2-y,z
x,-y,-z
-x,1/2+y,-z
-x,-y,-z
x,1/2+y,-z
-x,y,z
x,1/2-y,z
1/2+x,1/2+y,1/2+z
1/2-x,-y,1/2+z
1/2+x,1/2-y,1/2-z
1/2-x,y,1/2-z
1/2-x,1/2-y,1/2-z
1/2+x,y,1/2-z
1/2-x,1/2+y,1/2+z
1/2+x,-y,1/2+z
loop_
_atom_site_type_symbol
_atom_site_label
_atom_site_fract_x
_atom_site_fract_y
_atom_site_fract_z
Si Si1 0.098515 0.436720 0.778275
Si Si2 0.055286 0.563615 0.638258
Si Si3 0.556964 0.437273 0.573308
Si Si4 0.655259 0.935470 0.076184
Si Si5 0.197656 0.936587 0.716502
O O1 0.093079 0.250000 0.772876
O O2 0.064831 0.514184 0.718652
O O3 0.084065 0.486978 0.856180
O O4 0.153717 0.485290 0.759848
O O5 0.059845 0.750000 0.632246
O O6 0.099376 0.485938 0.595075
O O7 0.000000 0.518054 0.617242
O O8 0.577171 0.500000 0.500000
O O9 0.500000 0.487489 0.578471
O O10 0.557876 0.250000 0.570990
O O11 0.658382 0.750000 0.077732
O O12 0.689377 0.005964 0.137204
O O13 0.667854 0.000000 0.000000
O O14 0.191693 0.750000 0.718107
O O15 0.250000 0.976347 0.750000
#
# Coordination Sequence:
#
# PCOD9535927 Si02
#       5
#    16  16  16  16  16
#     4  10  19  32  52  76 103 135 173 218 263 311
#     4  10  20  33  51  77 108 142 179 215 254 306
#     4   9  18  31  47  70 101 136 172 209 252 302
#     4  11  22  37  58  81 109 141 174 215 260 309
#     4  10  21  38  59  81 105 134 171 215 262 312
#
# _framework density 17.886225
#
# number of rings (size 3 to 8) (size 9 to 14) (size 15 to 20)
#    0.000    2.000    0.000    6.600    0.000    6.000 
#    0.000    3.000    0.000    2.400    0.000    0.000 
#    0.000    0.000    0.000    0.000    0.000    0.000 
#
# Total GULP energy -223312.414200 kJ/mol
# GULP energy per Si atom -5582.810355 kJ/mol
# Density = 1.784552 g / cm^3
# Si number density = 17.886225 Si / 1000 Ang^3
#
#
#
# Elastic Constant Matrix: (Units=GPa)
#
#
# Indices 1 2 3 4 5 6 
#
# 1 65.6159 6.7941 30.8397 0.0000 0.0000 0.0000
# 2 6.7941 40.9428 9.1521 0.0000 0.0000 0.0000
# 3 30.8397 9.1521 133.1399 0.0000 0.0000 0.0000
# 4 0.0000 0.0000 0.0000 32.6029 0.0000 0.0000
# 5 0.0000 0.0000 0.0000 0.0000 7.8801 0.0000
# 6 0.0000 0.0000 0.0000 0.0000 0.0000 15.3075
#
#
#
# Elastic Compliance Matrix: (Units=1/GPa)
#
#
# Indices 1 2 3 4 5 6 
#
# 1 0.017262 -0.002001 -0.003861 0.000000 0.000000 0.000000
# 2 -0.002001 0.025038 -0.001257 0.000000 0.000000 0.000000
# 3 -0.003861 -0.001257 0.008492 0.000000 0.000000 0.000000
# 4 0.000000 0.000000 0.000000 0.030672 0.000000 0.000000
# 5 0.000000 0.000000 0.000000 0.000000 0.126901 0.000000
# 6 0.000000 0.000000 0.000000 0.000000 0.000000 0.065327
#
#
# Mechanical properties :
#
#
# Convention : Reuss Voigt Hill
#
# Bulk Modulus (GPa) = 27.35860 37.03004 32.19432
# Shear Modulus (GPa) = 16.66024 24.01896 20.33960
#
# Velocity S-wave (km/s) = 3.05529 3.66850 3.37585
# Velocity P-wave (km/s) = 5.27025 6.22028 5.76487
#
# Compressibility (1/GPa) = 0.03655158
#
# Stress axis : x y z
#
# Youngs Moduli (GPa) = 57.93048 39.94007 117.76272
#
# Poissons Ratio (x) = 0.07994 0.45467
# Poissons Ratio (y) = 0.11594 0.14808
# Poissons Ratio (z) = 0.22366 0.05022
#
# Static dielectric constant tensor:
#      x y z
#    x 1.599030 0.000000 0.000000 
#    y 0.000000 1.602400 0.000000 
#    z 0.000000 0.000000 1.609560 
# 
# From -- ./inp_files/46494.got.cif
#   From: 2010.05.17/outbox.cif.g08.bks.cpg/sg74_24_cif.got.tgz:46494.got - 2010.06.03 17:57:02.
