data_PCOD9535390
_publ_section_title
;
Structure prediction by ZEFSAII (Michael W. Deem and Ramdas Pophale) SiO2 
 PCOD9535390
Probable space group: I M M A
;
_chemical_formula_sum "Si O2"
_cell_formula_units_Z 112
_cell_length_a 24.191579
_cell_length_b 18.944172
_cell_length_c 16.872885
_cell_angle_alpha 90.000000
_cell_angle_beta 90.000000
_cell_angle_gamma 90.000000
_cell_volume 7732.664909
_symmetry_space_group_name_H-M "I M M A"
_symmetry_group_IT_number 74
_symmetry_cell_setting 'orthorhombic'
loop_
_space_group_symop_operation_xyz
x,y,z
-x,1/2-y,z
x,-y,-z
-x,1/2+y,-z
-x,-y,-z
x,1/2+y,-z
-x,y,z
x,1/2-y,z
1/2+x,1/2+y,1/2+z
1/2-x,-y,1/2+z
1/2+x,1/2-y,1/2-z
1/2-x,y,1/2-z
1/2-x,1/2-y,1/2-z
1/2+x,y,1/2-z
1/2-x,1/2+y,1/2+z
1/2+x,-y,1/2+z
loop_
_atom_site_type_symbol
_atom_site_label
_atom_site_fract_x
_atom_site_fract_y
_atom_site_fract_z
Si Si1 0.266276 0.390446 0.124221
Si Si2 0.397183 0.328864 0.528291
Si Si3 0.832890 0.333989 0.234116
Si Si4 0.113177 0.525251 0.090016
Si Si5 0.734114 0.956785 0.342158
Si Si6 0.263759 0.169489 0.541921
Si Si7 0.436627 0.381095 0.358783
O O1 0.210408 0.366212 0.170543
O O2 0.315127 0.364442 0.181089
O O3 0.263746 0.474857 0.120608
O O4 0.265188 0.355610 0.038562
O O5 0.412159 0.250000 0.556131
O O6 0.413442 0.397230 0.580073
O O7 0.330135 0.332954 0.525610
O O8 0.420906 0.341362 0.440631
O O9 0.825966 0.250000 0.233726
O O10 0.893673 0.355076 0.206730
O O11 0.168713 0.531102 0.141821
O O12 0.074743 0.463874 0.123969
O O13 0.128783 0.500000 0.000000
O O14 0.750000 0.954161 0.250000
O O15 0.748547 0.885320 0.388301
O O16 0.249561 0.250000 0.561236
O O17 0.500000 0.368455 0.339009
#
# Coordination Sequence:
#
# PCOD9535390 Si02
#       7
#    16  16  16  16  16  16  16
#     4  11  17  31  49  67  88 119 157 193 222 272
#     4   9  17  28  42  59  83 117 159 193 222 257
#     4  11  20  29  45  68  90 114 149 192 231 267
#     4   9  17  31  44  60  85 119 158 191 224 267
#     4  11  18  29  47  67  94 124 154 192 233 277
#     4  10  19  30  46  67  94 126 157 191 230 273
#     4  11  20  30  43  61  90 123 152 185 227 279
#
# _framework density 14.484011000000001
#
# number of rings (size 3 to 8) (size 9 to 14) (size 15 to 20)
#    0.000    1.714    4.286    4.286    0.000    4.000 
#    0.000    0.000    0.000    0.000    0.000    0.000 
#    0.000    9.143    0.000    1.143    0.000    3.857 
#
# Total GULP energy -312339.323336 kJ/mol
# GULP energy per Si atom -5577.487917 kJ/mol
# Density = 1.445104 g / cm^3
# Si number density = 14.484011 Si / 1000 Ang^3
#
#
#
# Elastic Constant Matrix: (Units=GPa)
#
#
# Indices 1 2 3 4 5 6 
#
# 1 57.5488 14.6977 19.5074 0.0000 0.0000 0.0000
# 2 14.6977 135.8725 20.1569 0.0000 0.0000 0.0000
# 3 19.5074 20.1569 22.2573 0.0000 0.0000 0.0000
# 4 0.0000 0.0000 0.0000 17.6874 0.0000 0.0000
# 5 0.0000 0.0000 0.0000 0.0000 10.4682 0.0000
# 6 0.0000 0.0000 0.0000 0.0000 0.0000 5.5761
#
#
#
# Elastic Compliance Matrix: (Units=1/GPa)
#
#
# Indices 1 2 3 4 5 6 
#
# 1 0.024767 0.000625 -0.022273 0.000000 0.000000 0.000000
# 2 0.000625 0.008518 -0.008262 0.000000 0.000000 0.000000
# 3 -0.022273 -0.008262 0.071933 0.000000 0.000000 0.000000
# 4 0.000000 0.000000 0.000000 0.056538 0.000000 0.000000
# 5 0.000000 0.000000 0.000000 0.000000 0.095527 0.000000
# 6 0.000000 0.000000 0.000000 0.000000 0.000000 0.179336
#
#
# Mechanical properties :
#
#
# Convention : Reuss Voigt Hill
#
# Bulk Modulus (GPa) = 22.02758 36.04473 29.03616
# Shear Modulus (GPa) = 9.77381 17.50077 13.63729
#
# Velocity S-wave (km/s) = 2.60051 3.47981 3.07178
# Velocity P-wave (km/s) = 4.92525 6.40978 5.71592
#
# Compressibility (1/GPa) = 0.04539762
#
# Stress axis : x y z
#
# Youngs Moduli (GPa) = 40.37653 117.39990 13.90186
#
# Poissons Ratio (x) = -0.07339 0.30964
# Poissons Ratio (y) = -0.02524 0.11486
# Poissons Ratio (z) = 0.89931 0.96996
#
# Static dielectric constant tensor:
#      x y z
#    x 1.463720 0.000000 0.000000 
#    y 0.000000 1.520720 0.000000 
#    z 0.000000 0.000000 1.454240 
# 
# From -- ./inp_files/46250.got.cif
#   From: 2010.05.17/outbox.cif.g08.bks.cpg/sg74_24_cif.got.tgz:46250.got - 2010.06.03 17:57:02.
