data_PCOD9535810
_publ_section_title
;
Structure prediction by ZEFSAII (Michael W. Deem and Ramdas Pophale) SiO2 
 PCOD9535810
Probable space group: I M M A
;
_chemical_formula_sum "Si O2"
_cell_formula_units_Z 128
_cell_length_a 29.093486
_cell_length_b 7.676870
_cell_length_c 27.385094
_cell_angle_alpha 90.000000
_cell_angle_beta 90.000000
_cell_angle_gamma 90.000000
_cell_volume 6116.376121
_symmetry_space_group_name_H-M "I M M A"
_symmetry_group_IT_number 74
_symmetry_cell_setting 'orthorhombic'
loop_
_space_group_symop_operation_xyz
x,y,z
-x,1/2-y,z
x,-y,-z
-x,1/2+y,-z
-x,-y,-z
x,1/2+y,-z
-x,y,z
x,1/2-y,z
1/2+x,1/2+y,1/2+z
1/2-x,-y,1/2+z
1/2+x,1/2-y,1/2-z
1/2-x,y,1/2-z
1/2-x,1/2-y,1/2-z
1/2+x,y,1/2-z
1/2-x,1/2+y,1/2+z
1/2+x,-y,1/2+z
loop_
_atom_site_type_symbol
_atom_site_label
_atom_site_fract_x
_atom_site_fract_y
_atom_site_fract_z
Si Si1 0.181418 0.955567 0.358844
Si Si2 0.661646 0.959391 0.444079
Si Si3 0.584519 0.449422 0.160258
Si Si4 0.733572 0.541345 0.055252
Si Si5 0.948724 0.459861 0.235584
Si Si6 0.446750 0.541021 0.945875
Si Si7 0.772873 0.458432 0.798390
Si Si8 0.868995 0.540472 0.159042
O O1 0.170217 0.750000 0.356964
O O2 0.191122 0.024154 0.412856
O O3 0.232156 0.976158 0.336953
O O4 0.139450 0.047498 0.333065
O O5 0.663502 0.750000 0.442090
O O6 0.714243 0.024002 0.435751
O O7 0.631440 0.019891 0.397741
O O8 0.647886 0.000000 0.500000
O O9 0.567660 0.250000 0.158416
O O10 0.563690 0.528058 0.209885
O O11 0.574737 0.523945 0.105773
O O12 0.735140 0.750000 0.063542
O O13 0.724048 0.500000 0.000000
O O14 0.948906 0.250000 0.239086
O O15 0.911586 0.501664 0.194052
O O16 0.000000 0.518892 0.222375
O O17 0.500000 0.480411 0.945977
O O18 0.446181 0.750000 0.943445
O O19 0.427012 0.500000 0.000000
O O20 0.779930 0.250000 0.790212
O O21 0.750000 0.534059 0.750000
O O22 0.821751 0.526619 0.816105
O O23 0.865574 0.750000 0.156909
#
# Coordination Sequence:
#
# PCOD9535810 Si02
#       8
#    16  16  16  16  16  16  16  16
#     4  10  19  32  49  72 102 137 175 212 250 299
#     4   9  17  31  52  79 110 142 178 218 260 311
#     4  10  21  36  53  74 104 141 180 220 269 324
#     4   9  17  30  47  69 101 140 179 214 250 297
#     4  10  22  40  59  79 106 140 176 218 273 335
#     4   9  18  34  55  75  96 128 173 225 279 329
#     4   9  16  28  48  72 100 135 171 207 252 303
#     4  10  19  34  57  84 110 138 179 227 269 316
#
# _framework density 20.927424999999999
#
# number of rings (size 3 to 8) (size 9 to 14) (size 15 to 20)
#    0.000    2.500    1.250    1.125    0.000    5.250 
#    0.000    3.125    0.000    4.875    0.000    0.000 
#    0.000    0.000    0.000    0.000    0.000    0.000 
#
# Total GULP energy -356605.261104 kJ/mol
# GULP energy per Si atom -5571.957205 kJ/mol
# Density = 2.087979 g / cm^3
# Si number density = 20.927425 Si / 1000 Ang^3
#
#
#
# Elastic Constant Matrix: (Units=GPa)
#
#
# Indices 1 2 3 4 5 6 
#
# 1 98.1807 11.2683 70.1558 0.0000 0.0000 0.0000
# 2 11.2683 28.0538 6.7603 0.0000 0.0000 0.0000
# 3 70.1558 6.7603 153.8649 0.0000 0.0000 0.0000
# 4 0.0000 0.0000 0.0000 17.1198 0.0000 0.0000
# 5 0.0000 0.0000 0.0000 0.0000 24.9859 0.0000
# 6 0.0000 0.0000 0.0000 0.0000 0.0000 25.2512
#
#
#
# Elastic Compliance Matrix: (Units=1/GPa)
#
#
# Indices 1 2 3 4 5 6 
#
# 1 0.015679 -0.004624 -0.006946 0.000000 0.000000 0.000000
# 2 -0.004624 0.037391 0.000466 0.000000 0.000000 0.000000
# 3 -0.006946 0.000466 0.009646 0.000000 0.000000 0.000000
# 4 0.000000 0.000000 0.000000 0.058412 0.000000 0.000000
# 5 0.000000 0.000000 0.000000 0.000000 0.040023 0.000000
# 6 0.000000 0.000000 0.000000 0.000000 0.000000 0.039602
#
#
# Mechanical properties :
#
#
# Convention : Reuss Voigt Hill
#
# Bulk Modulus (GPa) = 24.68699 50.71868 37.70284
# Shear Modulus (GPa) = 21.14487 26.26569 23.70528
#
# Velocity S-wave (km/s) = 3.18211 3.54656 3.36927
# Velocity P-wave (km/s) = 5.03222 6.40772 5.76117
#
# Compressibility (1/GPa) = 0.04050716
#
# Stress axis : x y z
#
# Youngs Moduli (GPa) = 63.77845 26.74443 103.67211
#
# Poissons Ratio (x) = 0.12367 0.72010
# Poissons Ratio (y) = 0.29492 -0.04826
# Poissons Ratio (z) = 0.44300 -0.01245
#
# Static dielectric constant tensor:
#      x y z
#    x 1.761280 0.000000 0.000000 
#    y 0.000000 1.765550 0.000000 
#    z 0.000000 0.000000 1.090410 
# 
# From -- ./inp_files/62101.got.cif
#   From: 2010.05.17/outbox.cif.g08.bks.cpg/sg74_32_cif.got.tgz:62101.got - 2010.06.03 17:57:02.
