data_PCOD9535056
_publ_section_title
;
Structure prediction by ZEFSAII (Michael W. Deem and Ramdas Pophale) SiO2 
 PCOD9535056
Probable space group: I M M A
;
_chemical_formula_sum "Si O2"
_cell_formula_units_Z 80
_cell_length_a 9.795132
_cell_length_b 22.880563
_cell_length_c 19.143480
_cell_angle_alpha 90.000000
_cell_angle_beta 90.000000
_cell_angle_gamma 90.000000
_cell_volume 4290.401032
_symmetry_space_group_name_H-M "I M M A"
_symmetry_group_IT_number 74
_symmetry_cell_setting 'orthorhombic'
loop_
_space_group_symop_operation_xyz
x,y,z
-x,1/2-y,z
x,-y,-z
-x,1/2+y,-z
-x,-y,-z
x,1/2+y,-z
-x,y,z
x,1/2-y,z
1/2+x,1/2+y,1/2+z
1/2-x,-y,1/2+z
1/2+x,1/2-y,1/2-z
1/2-x,y,1/2-z
1/2-x,1/2-y,1/2-z
1/2+x,y,1/2-z
1/2-x,1/2+y,1/2+z
1/2+x,-y,1/2+z
loop_
_atom_site_type_symbol
_atom_site_label
_atom_site_fract_x
_atom_site_fract_y
_atom_site_fract_z
Si Si1 0.665746 0.250000 0.493672
Si Si2 0.661515 0.546315 0.319749
Si Si3 0.649581 0.250000 0.140901
Si Si4 0.163020 0.373792 0.939417
Si Si5 0.153838 0.377043 0.311153
Si Si6 0.657425 0.567767 0.582310
O O1 0.500000 0.250000 0.487592
O O2 0.733458 0.250000 0.417210
O O3 0.708290 0.189911 0.533108
O O4 0.500000 0.552253 0.302147
O O5 0.750000 0.537817 0.250000
O O6 0.713220 0.601842 0.365318
O O7 0.669015 0.492912 0.375725
O O8 0.500000 0.250000 0.104500
O O9 0.652286 0.192778 0.188237
O O10 0.000000 0.368892 0.931091
O O11 0.181513 0.423102 0.999957
O O12 0.250000 0.399570 0.250000
O O13 0.227434 0.393159 0.382427
O O14 0.000000 0.399474 0.305044
O O15 0.500000 0.588340 0.594209
#
# Coordination Sequence:
#
# PCOD9535056 Si02
#       6
#     8  16   8  16  16  16
#     4  10  18  33  60  85 104 133 182 231 270 322
#     4  10  21  37  56  80 112 145 181 224 272 324
#     4  10  21  35  49  71 107 143 177 223 273 316
#     4   9  18  34  58  85 108 138 180 227 273 320
#     4  11  22  34  49  73 108 147 184 222 264 317
#     4  10  19  34  57  81 107 141 180 222 268 320
#
# _framework density 18.646276
#
# number of rings (size 3 to 8) (size 9 to 14) (size 15 to 20)
#    0.000    2.000    2.000    2.100    0.000    5.600 
#    0.000    2.500    0.000    2.400    0.000    0.000 
#    0.000    0.000    0.000    0.000    0.000    0.000 
#
# Total GULP energy -222779.213605 kJ/mol
# GULP energy per Si atom -5569.480340 kJ/mol
# Density = 1.860384 g / cm^3
# Si number density = 18.646276 Si / 1000 Ang^3
#
#
#
# Elastic Constant Matrix: (Units=GPa)
#
#
# Indices 1 2 3 4 5 6 
#
# 1 86.9119 27.3245 51.1969 0.0000 0.0000 0.0000
# 2 27.3245 57.0343 41.2298 0.0000 0.0000 0.0000
# 3 51.1969 41.2298 101.7605 0.0000 0.0000 0.0000
# 4 0.0000 0.0000 0.0000 17.1269 0.0000 0.0000
# 5 0.0000 0.0000 0.0000 0.0000 19.9629 0.0000
# 6 0.0000 0.0000 0.0000 0.0000 0.0000 7.9068
#
#
#
# Elastic Compliance Matrix: (Units=1/GPa)
#
#
# Indices 1 2 3 4 5 6 
#
# 1 0.016644 -0.002716 -0.007273 0.000000 0.000000 0.000000
# 2 -0.002716 0.025239 -0.008859 0.000000 0.000000 0.000000
# 3 -0.007273 -0.008859 0.017076 0.000000 0.000000 0.000000
# 4 0.000000 0.000000 0.000000 0.058388 0.000000 0.000000
# 5 0.000000 0.000000 0.000000 0.000000 0.050093 0.000000
# 6 0.000000 0.000000 0.000000 0.000000 0.000000 0.126473
#
#
# Mechanical properties :
#
#
# Convention : Reuss Voigt Hill
#
# Bulk Modulus (GPa) = 47.03416 53.91210 50.47313
# Shear Modulus (GPa) = 14.76241 17.39637 16.07939
#
# Velocity S-wave (km/s) = 2.81678 3.05777 2.93975
# Velocity P-wave (km/s) = 5.98817 6.43758 6.21694
#
# Compressibility (1/GPa) = 0.02126114
#
# Stress axis : x y z
#
# Youngs Moduli (GPa) = 60.08023 39.62121 58.56213
#
# Poissons Ratio (x) = 0.10762 0.42595
# Poissons Ratio (y) = 0.16319 0.51883
# Poissons Ratio (z) = 0.43699 0.35102
#
# Static dielectric constant tensor:
#      x y z
#    x 1.641540 0.000000 0.000000 
#    y 0.000000 1.728630 0.000000 
#    z 0.000000 0.000000 1.643120 
# 
# From -- ./inp_files/41193.got.cif
#   From: 2010.05.17/outbox.cif.g08.bks.cpg/sg74_21_cif.got.tgz:41193.got - 2010.06.03 17:57:02.
