data_PCOD9535281
_publ_section_title
;
Structure prediction by ZEFSAII (Michael W. Deem and Ramdas Pophale) SiO2 
 PCOD9535281
Probable space group: I M M A
;
_chemical_formula_sum "Si O2"
_cell_formula_units_Z 104
_cell_length_a 13.463393
_cell_length_b 26.486211
_cell_length_c 19.167946
_cell_angle_alpha 90.000000
_cell_angle_beta 90.000000
_cell_angle_gamma 90.000000
_cell_volume 6835.179669
_symmetry_space_group_name_H-M "I M M A"
_symmetry_group_IT_number 74
_symmetry_cell_setting 'orthorhombic'
loop_
_space_group_symop_operation_xyz
x,y,z
-x,1/2-y,z
x,-y,-z
-x,1/2+y,-z
-x,-y,-z
x,1/2+y,-z
-x,y,z
x,1/2-y,z
1/2+x,1/2+y,1/2+z
1/2-x,-y,1/2+z
1/2+x,1/2-y,1/2-z
1/2-x,y,1/2-z
1/2-x,1/2-y,1/2-z
1/2+x,y,1/2-z
1/2-x,1/2+y,1/2+z
1/2+x,-y,1/2+z
loop_
_atom_site_type_symbol
_atom_site_label
_atom_site_fract_x
_atom_site_fract_y
_atom_site_fract_z
Si Si1 0.111850 0.936576 0.718175
Si Si2 0.383968 0.551435 0.185223
Si Si3 0.250000 0.136517 0.750000
Si Si4 0.616566 0.689669 0.366590
Si Si5 0.306890 0.080304 0.364204
Si Si6 0.771882 0.475961 0.929010
Si Si7 0.617272 0.617388 0.493390
O O1 0.193509 0.917830 0.663128
O O2 0.130078 0.912268 0.793905
O O3 0.000000 0.928173 0.694169
O O4 0.126965 0.997436 0.724654
O O5 0.500000 0.558869 0.171747
O O6 0.336159 0.598514 0.224346
O O7 0.317747 0.544705 0.116569
O O8 0.303665 0.168787 0.689366
O O9 0.500000 0.676690 0.348851
O O10 0.623092 0.750000 0.369882
O O11 0.636902 0.664299 0.442025
O O12 0.330380 0.114770 0.430890
O O13 0.323839 0.022540 0.389661
O O14 0.731154 0.500000 0.000000
O O15 0.845988 0.431558 0.950221
O O16 0.500000 0.614106 0.505936
#
# Coordination Sequence:
#
# PCOD9535281 Si02
#       7
#    16  16   8  16  16  16  16
#     4   9  17  28  43  67 102 135 160 189 221 262
#     4  10  19  29  44  67  94 128 162 191 226 271
#     4  12  19  34  52  68  92 120 156 200 239 280
#     4  10  22  37  53  72  91 116 153 200 250 289
#     4   9  17  28  44  68  97 126 159 191 220 279
#     4   9  17  29  42  64  96 126 160 193 226 270
#     4  10  19  31  48  68  91 120 154 196 240 281
#
# _framework density 15.215401999999999
#
# number of rings (size 3 to 8) (size 9 to 14) (size 15 to 20)
#    0.000    2.308    1.538    3.000    0.000    3.692 
#    0.000    2.308    0.000    0.000    0.000    2.154 
#    0.000    1.231    0.000    0.000    0.000    0.000 
#
# Total GULP energy -289588.605687 kJ/mol
# GULP energy per Si atom -5569.011648 kJ/mol
# Density = 1.518077 g / cm^3
# Si number density = 15.215402 Si / 1000 Ang^3
#
#
#
# Elastic Constant Matrix: (Units=GPa)
#
#
# Indices 1 2 3 4 5 6 
#
# 1 81.1733 33.0564 43.6159 0.0000 0.0000 0.0000
# 2 33.0564 49.3628 37.8684 0.0000 0.0000 0.0000
# 3 43.6159 37.8684 99.2010 0.0000 0.0000 0.0000
# 4 0.0000 0.0000 0.0000 19.1791 0.0000 0.0000
# 5 0.0000 0.0000 0.0000 0.0000 10.6069 0.0000
# 6 0.0000 0.0000 0.0000 0.0000 0.0000 14.4007
#
#
#
# Elastic Compliance Matrix: (Units=1/GPa)
#
#
# Indices 1 2 3 4 5 6 
#
# 1 0.018421 -0.008658 -0.004794 0.000000 0.000000 0.000000
# 2 -0.008658 0.032717 -0.008682 0.000000 0.000000 0.000000
# 3 -0.004794 -0.008682 0.015503 0.000000 0.000000 0.000000
# 4 0.000000 0.000000 0.000000 0.052140 0.000000 0.000000
# 5 0.000000 0.000000 0.000000 0.000000 0.094278 0.000000
# 6 0.000000 0.000000 0.000000 0.000000 0.000000 0.069441
#
#
# Mechanical properties :
#
#
# Convention : Reuss Voigt Hill
#
# Bulk Modulus (GPa) = 44.69995 50.97983 47.83989
# Shear Modulus (GPa) = 14.95990 16.51710 15.73850
#
# Velocity S-wave (km/s) = 3.13902 3.29834 3.21967
# Velocity P-wave (km/s) = 6.52532 6.93423 6.73288
#
# Compressibility (1/GPa) = 0.02237139
#
# Stress axis : x y z
#
# Youngs Moduli (GPa) = 54.28530 30.56527 64.50460
#
# Poissons Ratio (x) = 0.26464 0.30925
# Poissons Ratio (y) = 0.47001 0.56005
# Poissons Ratio (z) = 0.26025 0.26538
#
# Static dielectric constant tensor:
#      x y z
#    x 1.503200 0.000000 0.000000 
#    y 0.000000 1.495120 0.000000 
#    z 0.000000 0.000000 1.549950 
# 
# From -- ./inp_files/43144.got.cif
#   From: 2010.05.17/outbox.cif.g08.bks.cpg/sg74_22_cif.got.tgz:43144.got - 2010.06.03 17:57:02.
