data_PCOD9535573
_publ_section_title
;
Structure prediction by ZEFSAII (Michael W. Deem and Ramdas Pophale) SiO2 
 PCOD9535573
Probable space group: I M M A
;
_chemical_formula_sum "Si O2"
_cell_formula_units_Z 120
_cell_length_a 9.026551
_cell_length_b 27.641042
_cell_length_c 29.110497
_cell_angle_alpha 90.000000
_cell_angle_beta 90.000000
_cell_angle_gamma 90.000000
_cell_volume 7263.164347
_symmetry_space_group_name_H-M "I M M A"
_symmetry_group_IT_number 74
_symmetry_cell_setting 'orthorhombic'
loop_
_space_group_symop_operation_xyz
x,y,z
-x,1/2-y,z
x,-y,-z
-x,1/2+y,-z
-x,-y,-z
x,1/2+y,-z
-x,y,z
x,1/2-y,z
1/2+x,1/2+y,1/2+z
1/2-x,-y,1/2+z
1/2+x,1/2-y,1/2-z
1/2-x,y,1/2-z
1/2-x,1/2-y,1/2-z
1/2+x,y,1/2-z
1/2-x,1/2+y,1/2+z
1/2+x,-y,1/2+z
loop_
_atom_site_type_symbol
_atom_site_label
_atom_site_fract_x
_atom_site_fract_y
_atom_site_fract_z
Si Si1 0.321907 0.506961 0.881796
Si Si2 0.827629 0.060958 0.530660
Si Si3 0.677764 0.054942 0.699198
Si Si4 0.821655 0.587685 0.936829
Si Si5 0.333815 0.837244 0.339499
Si Si6 0.166202 0.846249 0.053350
Si Si7 0.829801 0.750000 0.297648
Si Si8 0.175742 0.802593 0.958258
O O1 0.500000 0.509327 0.877220
O O2 0.288277 0.473518 0.926692
O O3 0.250021 0.482739 0.836778
O O4 0.252417 0.558716 0.895048
O O5 0.733589 0.060999 0.483668
O O6 0.793860 0.114460 0.548771
O O7 0.000000 0.053554 0.519229
O O8 0.500000 0.047504 0.702128
O O9 0.750000 0.052509 0.750000
O O10 0.701244 0.108452 0.677161
O O11 0.773293 0.644517 0.940019
O O12 0.000000 0.585680 0.934332
O O13 0.500000 0.826081 0.321891
O O14 0.337684 0.831527 0.394258
O O15 0.219015 0.798497 0.322557
O O16 0.000000 0.867639 0.043315
O O17 0.189403 0.807247 0.013593
O O18 0.750000 0.750000 0.250000
O O19 0.000000 0.750000 0.290215
O O20 0.237979 0.750000 0.943457
O O21 0.000000 0.801575 0.947959
#
# Coordination Sequence:
#
# PCOD9535573 Si02
#       8
#    16  16  16  16  16  16   8  16
#     4  11  22  35  52  75 105 138 172 213 265 317
#     4  10  19  31  48  71 102 135 168 208 256 306
#     4  11  23  39  59  80 103 133 173 218 269 325
#     4  10  20  32  50  75 104 138 178 217 258 310
#     4  10  21  37  57  77  98 128 169 218 270 321
#     4   9  17  30  50  74  97 128 169 210 255 306
#     4  12  26  40  54  70  92 122 164 218 274 324
#     4   8  15  28  48  73 101 134 172 213 252 296
#
# _framework density 16.521723999999999
#
# number of rings (size 3 to 8) (size 9 to 14) (size 15 to 20)
#    0.000    2.000    1.333    3.800    0.933    5.867 
#    0.000    0.000    0.000    7.200    0.000    0.000 
#    0.000    0.533    0.000    1.467    0.000    2.133 
#
# Total GULP energy -334273.055829 kJ/mol
# GULP energy per Si atom -5571.217597 kJ/mol
# Density = 1.648412 g / cm^3
# Si number density = 16.521724 Si / 1000 Ang^3
#
#
#
# Elastic Constant Matrix: (Units=GPa)
#
#
# Indices 1 2 3 4 5 6 
#
# 1 71.9466 47.3341 43.5225 0.0000 0.0000 0.0000
# 2 47.3341 102.1580 45.9995 0.0000 0.0000 0.0000
# 3 43.5225 45.9995 60.4003 0.0000 0.0000 0.0000
# 4 0.0000 0.0000 0.0000 12.6368 0.0000 0.0000
# 5 0.0000 0.0000 0.0000 0.0000 24.7578 0.0000
# 6 0.0000 0.0000 0.0000 0.0000 0.0000 9.1958
#
#
#
# Elastic Compliance Matrix: (Units=1/GPa)
#
#
# Indices 1 2 3 4 5 6 
#
# 1 0.026605 -0.005624 -0.014888 0.000000 0.000000 0.000000
# 2 -0.005624 0.016086 -0.008199 0.000000 0.000000 0.000000
# 3 -0.014888 -0.008199 0.033528 0.000000 0.000000 0.000000
# 4 0.000000 0.000000 0.000000 0.079134 0.000000 0.000000
# 5 0.000000 0.000000 0.000000 0.000000 0.040391 0.000000
# 6 0.000000 0.000000 0.000000 0.000000 0.000000 0.108746
#
#
# Mechanical properties :
#
#
# Convention : Reuss Voigt Hill
#
# Bulk Modulus (GPa) = 53.19517 56.46859 54.83188
# Shear Modulus (GPa) = 13.58044 15.82799 14.70422
#
# Velocity S-wave (km/s) = 2.87012 3.09853 2.98651
# Velocity P-wave (km/s) = 6.57651 6.85958 6.71953
#
# Compressibility (1/GPa) = 0.01879870
#
# Stress axis : x y z
#
# Youngs Moduli (GPa) = 37.58667 62.16566 29.82582
#
# Poissons Ratio (x) = 0.34959 0.44405
# Poissons Ratio (y) = 0.21137 0.24453
# Poissons Ratio (z) = 0.55959 0.50967
#
# Static dielectric constant tensor:
#      x y z
#    x 1.536810 0.000000 0.000000 
#    y 0.000000 1.590320 0.000000 
#    z 0.000000 0.000000 1.543900 
# 
# From -- ./inp_files/65150.got.cif
#   From: 2010.05.17/outbox.cif.g08.bks.cpg/sg74_33_cif.got.tgz:65150.got - 2010.06.03 17:57:02.
