data_PCOD9535619
_publ_section_title
;
Structure prediction by ZEFSAII (Michael W. Deem and Ramdas Pophale) SiO2 
 PCOD9535619
Probable space group: I M M A
;
_chemical_formula_sum "Si O2"
_cell_formula_units_Z 88
_cell_length_a 10.353132
_cell_length_b 29.259950
_cell_length_c 17.686296
_cell_angle_alpha 90.000000
_cell_angle_beta 90.000000
_cell_angle_gamma 90.000000
_cell_volume 5357.747225
_symmetry_space_group_name_H-M "I M M A"
_symmetry_group_IT_number 74
_symmetry_cell_setting 'orthorhombic'
loop_
_space_group_symop_operation_xyz
x,y,z
-x,1/2-y,z
x,-y,-z
-x,1/2+y,-z
-x,-y,-z
x,1/2+y,-z
-x,y,z
x,1/2-y,z
1/2+x,1/2+y,1/2+z
1/2-x,-y,1/2+z
1/2+x,1/2-y,1/2-z
1/2-x,y,1/2-z
1/2-x,1/2-y,1/2-z
1/2+x,y,1/2-z
1/2-x,1/2+y,1/2+z
1/2+x,-y,1/2+z
loop_
_atom_site_type_symbol
_atom_site_label
_atom_site_fract_x
_atom_site_fract_y
_atom_site_fract_z
Si Si1 0.847918 0.802142 0.524422
Si Si2 0.655689 0.538579 0.178033
Si Si3 0.155680 0.396052 0.544656
Si Si4 0.139084 0.698126 0.845353
Si Si5 0.750000 0.124272 0.250000
Si Si6 0.153759 0.938078 0.613280
O O1 0.829442 0.750000 0.497170
O O2 0.814852 0.842543 0.466266
O O3 0.757262 0.808401 0.597271
O O4 0.000000 0.807285 0.544410
O O5 0.500000 0.541522 0.196042
O O6 0.750000 0.538002 0.250000
O O7 0.695430 0.579457 0.121607
O O8 0.674436 0.491115 0.132389
O O9 0.202792 0.422162 0.468931
O O10 0.000000 0.400446 0.544474
O O11 0.147282 0.750000 0.815249
O O12 0.145117 0.659937 0.781328
O O13 0.000000 0.694437 0.885388
O O14 0.789309 0.092466 0.319587
O O15 0.000000 0.930446 0.613531
#
# Coordination Sequence:
#
# PCOD9535619 Si02
#       6
#    16  16  16  16   8  16
#     4   9  17  31  52  75  97 126 167 211 249 291
#     4  10  20  35  55  77 102 130 164 208 255 302
#     4   9  17  32  54  76  98 130 171 207 245 294
#     4  10  21  33  45  68 102 137 170 204 245 290
#     4  12  19  30  48  68 100 140 169 208 238 288
#     4  10  19  31  49  73  99 133 173 208 240 287
#
# _framework density 16.424814000000001
#
# number of rings (size 3 to 8) (size 9 to 14) (size 15 to 20)
#    0.000    2.182    2.727    1.364    0.000    2.909 
#    0.000    2.727    0.000    1.636    0.000    0.000 
#    0.000    0.000    0.000    0.000    0.000    0.000 
#
# Total GULP energy -245009.957628 kJ/mol
# GULP energy per Si atom -5568.408128 kJ/mol
# Density = 1.638743 g / cm^3
# Si number density = 16.424814 Si / 1000 Ang^3
#
#
#
# Elastic Constant Matrix: (Units=GPa)
#
#
# Indices 1 2 3 4 5 6 
#
# 1 46.9393 35.2283 20.7754 0.0000 0.0000 0.0000
# 2 35.2283 89.3613 37.1831 0.0000 0.0000 0.0000
# 3 20.7754 37.1831 56.7048 0.0000 0.0000 -0.0001
# 4 0.0000 0.0000 0.0000 22.2906 0.0000 0.0000
# 5 0.0000 0.0000 0.0000 0.0000 20.3156 0.0000
# 6 0.0000 0.0000 -0.0001 0.0000 0.0000 134.8952
#
#
#
# Elastic Compliance Matrix: (Units=1/GPa)
#
#
# Indices 1 2 3 4 5 6 
#
# 1 0.031110 -0.010344 -0.004615 0.000000 0.000000 0.000000
# 2 -0.010344 0.018829 -0.008557 0.000000 0.000000 0.000000
# 3 -0.004615 -0.008557 0.024937 0.000000 0.000000 0.000000
# 4 0.000000 0.000000 0.000000 0.044862 0.000000 0.000000
# 5 0.000000 0.000000 0.000000 0.000000 0.049223 0.000000
# 6 0.000000 0.000000 0.000000 0.000000 0.000000 0.007413
#
#
# Mechanical properties :
#
#
# Convention : Reuss Voigt Hill
#
# Bulk Modulus (GPa) = 35.91440 42.15320 39.03380
# Shear Modulus (GPa) = 21.48804 42.15485 31.82145
#
# Velocity S-wave (km/s) = 3.62092 5.07159 4.40637
# Velocity P-wave (km/s) = 6.27653 7.74692 7.05016
#
# Compressibility (1/GPa) = 0.02784398
#
# Stress axis : x y z
#
# Youngs Moduli (GPa) = 32.14406 53.11006 40.10088
#
# Poissons Ratio (x) = 0.54936 0.18507
# Poissons Ratio (y) = 0.33249 0.34314
# Poissons Ratio (z) = 0.14835 0.45446
#
# Static dielectric constant tensor:
#      x y z
#    x 1.567490 0.000000 0.000000 
#    y 0.000000 1.582790 0.000000 
#    z 0.000000 0.000000 1.537270 
# 
# From -- ./inp_files/31089.got.cif
#   From: 2010.05.17/outbox.cif.g08.bks.cpg/sg74_16_cif.got.tgz:31089.got - 2010.06.03 17:57:02.
