data_PCOD9535147
_publ_section_title
;
Structure prediction by ZEFSAII (Michael W. Deem and Ramdas Pophale) SiO2 
 PCOD9535147
Probable space group: I M M A
;
_chemical_formula_sum "Si O2"
_cell_formula_units_Z 56
_cell_length_a 10.849703
_cell_length_b 13.501270
_cell_length_c 19.470350
_cell_angle_alpha 90.000000
_cell_angle_beta 90.000000
_cell_angle_gamma 90.000000
_cell_volume 2852.109734
_symmetry_space_group_name_H-M "I M M A"
_symmetry_group_IT_number 74
_symmetry_cell_setting 'orthorhombic'
loop_
_space_group_symop_operation_xyz
x,y,z
-x,1/2-y,z
x,-y,-z
-x,1/2+y,-z
-x,-y,-z
x,1/2+y,-z
-x,y,z
x,1/2-y,z
1/2+x,1/2+y,1/2+z
1/2-x,-y,1/2+z
1/2+x,1/2-y,1/2-z
1/2-x,y,1/2-z
1/2-x,1/2-y,1/2-z
1/2+x,y,1/2-z
1/2-x,1/2+y,1/2+z
1/2+x,-y,1/2+z
loop_
_atom_site_type_symbol
_atom_site_label
_atom_site_fract_x
_atom_site_fract_y
_atom_site_fract_z
Si Si1 0.265095 0.552209 0.104414
Si Si2 0.500000 0.368143 0.303475
Si Si3 0.356592 0.361116 0.028842
Si Si4 0.000000 0.026758 0.920904
Si Si5 0.750000 0.530224 0.750000
O O1 0.344105 0.618947 0.052786
O O2 0.123999 0.584289 0.096591
O O3 0.288221 0.536481 0.184444
O O4 0.280139 0.442982 0.069809
O O5 0.500000 0.250000 0.308926
O O6 0.500000 0.427127 0.375357
O O7 0.627798 0.405318 0.267809
O O8 0.500000 0.373832 0.047732
O O9 0.317635 0.250000 0.045438
O O10 0.000000 0.000000 0.000000
#
# Coordination Sequence:
#
# PCOD9535147 Si02
#       5
#    16   8  16   8   8
#     4  10  20  38  56  79 113 146 179 228 277 325
#     4  10  22  36  54  83 113 144 184 230 273 334
#     4  10  21  35  57  84 107 140 189 232 271 321
#     4  10  18  36  52  76 109 145 183 212 271 335
#     4  10  23  36  57  80 114 150 182 218 288 336
#
# _framework density 19.634588999999998
#
# number of rings (size 3 to 8) (size 9 to 14) (size 15 to 20)
#    0.000    2.000    2.857    2.143    4.000    5.714 
#    0.000    1.429    0.000    0.000    0.000    0.000 
#    0.000    0.000    0.000    0.000    0.000    0.000 
#
# Total GULP energy -156096.770629 kJ/mol
# GULP energy per Si atom -5574.884665 kJ/mol
# Density = 1.958990 g / cm^3
# Si number density = 19.634589 Si / 1000 Ang^3
#
#
#
# Elastic Constant Matrix: (Units=GPa)
#
#
# Indices 1 2 3 4 5 6 
#
# 1 88.8241 8.0258 5.3686 0.0000 0.0000 0.0000
# 2 8.0258 22.0010 -11.1757 0.0000 0.0000 0.0000
# 3 5.3686 -11.1757 108.3913 0.0000 0.0000 0.0000
# 4 0.0000 0.0000 0.0000 5.4997 0.0000 0.0000
# 5 0.0000 0.0000 0.0000 0.0000 29.8159 0.0000
# 6 0.0000 0.0000 0.0000 0.0000 0.0000 13.0642
#
#
#
# Elastic Compliance Matrix: (Units=1/GPa)
#
#
# Indices 1 2 3 4 5 6 
#
# 1 0.011761 -0.004840 -0.001082 0.000000 0.000000 0.000000
# 2 -0.004840 0.049956 0.005390 0.000000 0.000000 0.000000
# 3 -0.001082 0.005390 0.009835 0.000000 0.000000 0.000000
# 4 0.000000 0.000000 0.000000 0.181828 0.000000 0.000000
# 5 0.000000 0.000000 0.000000 0.000000 0.033539 0.000000
# 6 0.000000 0.000000 0.000000 0.000000 0.000000 0.076545
#
#
# Mechanical properties :
#
#
# Convention : Reuss Voigt Hill
#
# Bulk Modulus (GPa) = 14.18624 24.85040 19.51832
# Shear Modulus (GPa) = 12.88584 24.14247 18.51415
#
# Velocity S-wave (km/s) = 2.56458 3.51035 3.07406
# Velocity P-wave (km/s) = 4.00128 5.39574 4.74996
#
# Compressibility (1/GPa) = 0.07049086
#
# Stress axis : x y z
#
# Youngs Moduli (GPa) = 85.02778 20.01755 101.67573
#
# Poissons Ratio (x) = 0.09688 0.10996
# Poissons Ratio (y) = 0.41150 -0.54808
# Poissons Ratio (z) = 0.09196 -0.10790
#
# Static dielectric constant tensor:
#      x y z
#    x 1.704240 0.000000 0.000000 
#    y 0.000000 1.665720 0.000000 
#    z 0.000000 0.000000 1.704630 
# 
# From -- ./inp_files/40629.got.cif
#   From: 2010.05.17/outbox.cif.g08.bks.cpg/sg74_21_cif.got.tgz:40629.got - 2010.06.03 17:57:02.
