data_PCOD9535439
_publ_section_title
;
Structure prediction by ZEFSAII (Michael W. Deem and Ramdas Pophale) SiO2 
 PCOD9535439
Probable space group: I M M A
;
_chemical_formula_sum "Si O2"
_cell_formula_units_Z 96
_cell_length_a 14.084526
_cell_length_b 15.649662
_cell_length_c 16.935814
_cell_angle_alpha 90.000000
_cell_angle_beta 90.000000
_cell_angle_gamma 90.000000
_cell_volume 3732.959458
_symmetry_space_group_name_H-M "I M M A"
_symmetry_group_IT_number 74
_symmetry_cell_setting 'orthorhombic'
loop_
_space_group_symop_operation_xyz
x,y,z
-x,1/2-y,z
x,-y,-z
-x,1/2+y,-z
-x,-y,-z
x,1/2+y,-z
-x,y,z
x,1/2-y,z
1/2+x,1/2+y,1/2+z
1/2-x,-y,1/2+z
1/2+x,1/2-y,1/2-z
1/2-x,y,1/2-z
1/2-x,1/2-y,1/2-z
1/2+x,y,1/2-z
1/2-x,1/2+y,1/2+z
1/2+x,-y,1/2+z
loop_
_atom_site_type_symbol
_atom_site_label
_atom_site_fract_x
_atom_site_fract_y
_atom_site_fract_z
Si Si1 0.890116 0.341495 0.629127
Si Si2 0.895647 0.650749 0.560274
Si Si3 0.806190 0.906923 0.964202
Si Si4 0.889100 0.155099 0.881352
Si Si5 0.888184 0.155206 0.194873
Si Si6 0.385776 0.020232 0.756268
O O1 0.845092 0.250000 0.649287
O O2 0.896850 0.348651 0.535253
O O3 0.849007 0.424877 0.670063
O O4 0.000000 0.337385 0.656979
O O5 0.887900 0.750000 0.586660
O O6 0.798611 0.601057 0.573775
O O7 0.000000 0.617765 0.586424
O O8 0.874732 0.875925 0.895099
O O9 0.823154 0.849082 0.041550
O O10 0.824195 0.000000 0.000000
O O11 0.882960 0.250000 0.845165
O O12 0.866949 0.080218 0.819660
O O13 0.000000 0.143404 0.905918
O O14 0.846711 0.250000 0.205028
O O15 0.000000 0.162225 0.210603
O O16 0.852033 0.076494 0.247194
O O17 0.500000 0.013569 0.760919
#
# Coordination Sequence:
#
# PCOD9535439 Si02
#       6
#    16  16  16  16  16  16
#     4   8  14  28  52  79 107 137 167 211 272 327
#     4   9  19  36  56  78 104 135 175 224 277 326
#     4  12  22  33  50  72 106 147 182 221 262 310
#     4  10  19  30  47  73 107 143 176 210 253 313
#     4  10  20  33  50  76 113 151 182 213 253 310
#     4   9  16  28  48  76 108 140 174 210 257 317
#
# _framework density 25.716861000000002
#
# number of rings (size 3 to 8) (size 9 to 14) (size 15 to 20)
#    0.000    2.333    1.667    3.500    0.000    4.333 
#    0.000    0.833    0.000    3.000    0.000    4.667 
#    0.000    6.667    0.000    0.000    0.000    0.167 
#
# Total GULP energy -268494.235702 kJ/mol
# GULP energy per Si atom -5593.629910 kJ/mol
# Density = 2.565833 g / cm^3
# Si number density = 25.716861 Si / 1000 Ang^3
#
#
#
# Elastic Constant Matrix: (Units=GPa)
#
#
# Indices 1 2 3 4 5 6 
#
# 1 127.0189 14.4041 4.7743 0.0000 0.0000 0.0000
# 2 14.4041 211.9223 45.7640 0.0000 0.0000 0.0000
# 3 4.7743 45.7640 77.7016 0.0000 0.0000 0.0000
# 4 0.0000 0.0000 0.0000 55.3695 0.0000 0.0000
# 5 0.0000 0.0000 0.0000 0.0000 6.9316 0.0000
# 6 0.0000 0.0000 0.0000 0.0000 0.0000 4.9455
#
#
#
# Elastic Compliance Matrix: (Units=1/GPa)
#
#
# Indices 1 2 3 4 5 6 
#
# 1 0.007937 -0.000497 -0.000195 0.000000 0.000000 0.000000
# 2 -0.000497 0.005437 -0.003172 0.000000 0.000000 0.000000
# 3 -0.000195 -0.003172 0.014750 0.000000 0.000000 0.000000
# 4 0.000000 0.000000 0.000000 0.018060 0.000000 0.000000
# 5 0.000000 0.000000 0.000000 0.000000 0.144266 0.000000
# 6 0.000000 0.000000 0.000000 0.000000 0.000000 0.202203
#
#
# Mechanical properties :
#
#
# Convention : Reuss Voigt Hill
#
# Bulk Modulus (GPa) = 49.02958 60.72528 54.87743
# Shear Modulus (GPa) = 12.27957 36.89603 24.58780
#
# Velocity S-wave (km/s) = 2.18753 3.79186 3.09544
# Velocity P-wave (km/s) = 5.04846 6.54486 5.84474
#
# Compressibility (1/GPa) = 0.02039585
#
# Stress axis : x y z
#
# Youngs Moduli (GPa) = 125.99909 183.90820 67.79699
#
# Poissons Ratio (x) = 0.09147 0.01320
# Poissons Ratio (y) = 0.06267 0.21505
# Poissons Ratio (z) = 0.02453 0.58335
#
# Static dielectric constant tensor:
#      x y z
#    x 2.050000 0.000000 0.000000 
#    y 0.000000 2.034900 0.000000 
#    z 0.000000 0.000000 1.983720 
# 
# From -- ./inp_files/51888.got.cif
#   From: 2010.05.17/outbox.cif.g08.bks.cpg/sg74_26_cif.got.tgz:51888.got - 2010.06.03 17:57:02.
