data_PCOD9535882
_publ_section_title
;
Structure prediction by ZEFSAII (Michael W. Deem and Ramdas Pophale) SiO2 
 PCOD9535882
Probable space group: I M M A
;
_chemical_formula_sum "Si O2"
_cell_formula_units_Z 112
_cell_length_a 29.209581
_cell_length_b 14.529127
_cell_length_c 11.949596
_cell_angle_alpha 90.000000
_cell_angle_beta 90.000000
_cell_angle_gamma 90.000000
_cell_volume 5071.285605
_symmetry_space_group_name_H-M "I M M A"
_symmetry_group_IT_number 74
_symmetry_cell_setting 'orthorhombic'
loop_
_space_group_symop_operation_xyz
x,y,z
-x,1/2-y,z
x,-y,-z
-x,1/2+y,-z
-x,-y,-z
x,1/2+y,-z
-x,y,z
x,1/2-y,z
1/2+x,1/2+y,1/2+z
1/2-x,-y,1/2+z
1/2+x,1/2-y,1/2-z
1/2-x,y,1/2-z
1/2-x,1/2-y,1/2-z
1/2+x,y,1/2-z
1/2-x,1/2+y,1/2+z
1/2+x,-y,1/2+z
loop_
_atom_site_type_symbol
_atom_site_label
_atom_site_fract_x
_atom_site_fract_y
_atom_site_fract_z
Si Si1 0.448708 0.637902 0.783909
Si Si2 0.140565 0.861808 0.830087
Si Si3 0.775904 0.616295 0.407898
Si Si4 0.714180 0.904155 0.842552
Si Si5 0.371311 0.644514 0.211656
Si Si6 0.329440 0.857330 0.428771
Si Si7 0.052674 0.637573 0.459983
O O1 0.500000 0.605854 0.759616
O O2 0.449302 0.750000 0.786113
O O3 0.411900 0.612164 0.690632
O O4 0.437015 0.609811 0.911761
O O5 0.144582 0.750000 0.826863
O O6 0.166727 0.897462 0.720966
O O7 0.163596 0.895163 0.945904
O O8 0.783903 0.642542 0.537457
O O9 0.775212 0.508653 0.376234
O O10 0.821165 0.649434 0.344980
O O11 0.723218 0.642810 0.387827
O O12 0.750000 0.869497 0.750000
O O13 0.386271 0.750000 0.231121
O O14 0.361371 0.599897 0.332525
O O15 0.409121 0.604134 0.127838
O O16 0.342279 0.750000 0.437608
O O17 0.053864 0.750000 0.459531
O O18 0.000000 0.610868 0.433888
#
# Coordination Sequence:
#
# PCOD9535882 Si02
#       7
#    16  16  16  16  16  16  16
#     4   8  14  27  49  76 104 134 170 217 271 320
#     4  10  20  34  53  78 107 139 178 221 268 316
#     4  11  22  35  52  72 102 137 176 215 261 317
#     4  11  22  36  51  73 102 135 175 214 261 313
#     4  10  19  32  51  74  99 134 178 215 257 311
#     4  10  20  34  51  74 107 141 173 217 265 313
#     4   8  14  26  46  72 100 129 167 217 267 311
#
# _framework density 22.085129999999999
#
# number of rings (size 3 to 8) (size 9 to 14) (size 15 to 20)
#    0.000    2.286    1.429    3.429    0.000    3.714 
#    0.000    0.714    0.000    5.143    0.000    4.000 
#    0.000    3.429    0.000    0.000    0.000    0.000 
#
# Total GULP energy -312486.248267 kJ/mol
# GULP energy per Si atom -5580.111576 kJ/mol
# Density = 2.203486 g / cm^3
# Si number density = 22.085130 Si / 1000 Ang^3
#
#
#
# Elastic Constant Matrix: (Units=GPa)
#
#
# Indices 1 2 3 4 5 6 
#
# 1 119.8154 4.9132 60.4228 0.0000 0.0000 0.0000
# 2 4.9132 46.3403 18.8748 0.0000 0.0000 0.0000
# 3 60.4228 18.8748 103.0438 0.0000 0.0000 0.0000
# 4 0.0000 0.0000 0.0000 5.8254 0.0000 0.0000
# 5 0.0000 0.0000 0.0000 0.0000 34.6124 0.0000
# 6 0.0000 0.0000 0.0000 0.0000 0.0000 38.6987
#
#
#
# Elastic Compliance Matrix: (Units=1/GPa)
#
#
# Indices 1 2 3 4 5 6 
#
# 1 0.011976 0.001719 -0.007337 0.000000 0.000000 0.000000
# 2 0.001719 0.023566 -0.005325 0.000000 0.000000 0.000000
# 3 -0.007337 -0.005325 0.014982 0.000000 0.000000 0.000000
# 4 0.000000 0.000000 0.000000 0.171663 0.000000 0.000000
# 5 0.000000 0.000000 0.000000 0.000000 0.028891 0.000000
# 6 0.000000 0.000000 0.000000 0.000000 0.000000 0.025841
#
#
# Mechanical properties :
#
#
# Convention : Reuss Voigt Hill
#
# Bulk Modulus (GPa) = 34.91831 48.62456 41.77144
# Shear Modulus (GPa) = 16.21528 28.15989 22.18758
#
# Velocity S-wave (km/s) = 2.71258 3.57467 3.17304
# Velocity P-wave (km/s) = 5.06517 6.25319 5.69027
#
# Compressibility (1/GPa) = 0.02863827
#
# Stress axis : x y z
#
# Youngs Moduli (GPa) = 83.50134 42.43402 66.74527
#
# Poissons Ratio (x) = -0.07294 0.48973
# Poissons Ratio (y) = -0.14352 0.35539
# Poissons Ratio (z) = 0.61267 0.22594
#
# Static dielectric constant tensor:
#      x y z
#    x 1.806510 0.000000 0.000000 
#    y 0.000000 1.875460 0.000000 
#    z 0.000000 0.000000 1.836370 
# 
# From -- ./inp_files/26468.got.cif
#   From: 2010.05.17/outbox.cif.g08.bks.cpg/sg74_14_cif.got.tgz:26468.got - 2010.06.03 17:57:02.
