data_PCOD9535045
_publ_section_title
;
Structure prediction by ZEFSAII (Michael W. Deem and Ramdas Pophale) SiO2 
 PCOD9535045
Probable space group: I M M A
;
_chemical_formula_sum "Si O2"
_cell_formula_units_Z 96
_cell_length_a 13.777049
_cell_length_b 14.858173
_cell_length_c 21.638829
_cell_angle_alpha 90.000000
_cell_angle_beta 90.000000
_cell_angle_gamma 90.000000
_cell_volume 4429.506759
_symmetry_space_group_name_H-M "I M M A"
_symmetry_group_IT_number 74
_symmetry_cell_setting 'orthorhombic'
loop_
_space_group_symop_operation_xyz
x,y,z
-x,1/2-y,z
x,-y,-z
-x,1/2+y,-z
-x,-y,-z
x,1/2+y,-z
-x,y,z
x,1/2-y,z
1/2+x,1/2+y,1/2+z
1/2-x,-y,1/2+z
1/2+x,1/2-y,1/2-z
1/2-x,y,1/2-z
1/2-x,1/2-y,1/2-z
1/2+x,y,1/2-z
1/2-x,1/2+y,1/2+z
1/2+x,-y,1/2+z
loop_
_atom_site_type_symbol
_atom_site_label
_atom_site_fract_x
_atom_site_fract_y
_atom_site_fract_z
Si Si1 0.209938 0.144198 0.863309
Si Si2 0.607277 0.605881 0.484829
Si Si3 0.831638 0.846904 0.802926
Si Si4 0.612124 0.976649 0.115282
Si Si5 0.105449 0.967549 0.237404
Si Si6 0.213961 0.848262 0.569747
O O1 0.221822 0.250000 0.853854
O O2 0.125394 0.123929 0.912743
O O3 0.180183 0.094063 0.800118
O O4 0.307383 0.100697 0.892707
O O5 0.608677 0.500000 0.500000
O O6 0.500000 0.639827 0.503552
O O7 0.701405 0.644645 0.519037
O O8 0.882048 0.750000 0.797327
O O9 0.750000 0.851096 0.750000
O O10 0.774408 0.849679 0.866737
O O11 0.893179 0.936153 0.796119
O O12 0.500000 0.953987 0.101419
O O13 0.644671 0.065045 0.076804
O O14 0.619219 0.990332 0.190021
O O15 0.000000 0.923268 0.232766
O O16 0.164831 0.750000 0.564154
#
# Coordination Sequence:
#
# PCOD9535045 Si02
#       6
#    16  16  16  16  16  16
#     4  12  25  44  68  96 134 174 216 270 332 389
#     4  11  23  43  72 102 134 173 215 260 322 400
#     4  10  18  33  58  87 127 171 212 257 312 380
#     4  11  24  43  66  92 126 170 224 277 324 379
#     4  11  22  38  63  95 130 170 217 267 328 393
#     4  11  22  39  65  96 134 172 210 263 328 391
#
# _framework density 21.672841999999999
#
# number of rings (size 3 to 8) (size 9 to 14) (size 15 to 20)
#    0.000    1.000    5.000    1.500    0.000    6.667 
#    0.000    6.667    0.000    2.000    0.000    0.000 
#    0.000    0.000    0.000    0.000    0.000    0.000 
#
# Total GULP energy -267960.345062 kJ/mol
# GULP energy per Si atom -5582.507189 kJ/mol
# Density = 2.162351 g / cm^3
# Si number density = 21.672842 Si / 1000 Ang^3
#
#
#
# Elastic Constant Matrix: (Units=GPa)
#
#
# Indices 1 2 3 4 5 6 
#
# 1 121.5289 48.1516 15.1268 0.0000 0.0000 0.0000
# 2 48.1516 152.9572 0.8204 0.0000 0.0000 0.0000
# 3 15.1268 0.8204 69.5612 0.0000 0.0000 0.0000
# 4 0.0000 0.0000 0.0000 36.5768 0.0000 0.0000
# 5 0.0000 0.0000 0.0000 0.0000 25.6337 0.0000
# 6 0.0000 0.0000 0.0000 0.0000 0.0000 17.7279
#
#
#
# Elastic Compliance Matrix: (Units=1/GPa)
#
#
# Indices 1 2 3 4 5 6 
#
# 1 0.009691 -0.003040 -0.002071 0.000000 0.000000 0.000000
# 2 -0.003040 0.007492 0.000573 0.000000 0.000000 0.000000
# 3 -0.002071 0.000573 0.014820 0.000000 0.000000 0.000000
# 4 0.000000 0.000000 0.000000 0.027340 0.000000 0.000000
# 5 0.000000 0.000000 0.000000 0.000000 0.039011 0.000000
# 6 0.000000 0.000000 0.000000 0.000000 0.000000 0.056408
#
#
# Mechanical properties :
#
#
# Convention : Reuss Voigt Hill
#
# Bulk Modulus (GPa) = 43.62060 52.47165 48.04612
# Shear Modulus (GPa) = 29.15804 34.65092 31.90448
#
# Velocity S-wave (km/s) = 3.67191 4.00286 3.84095
# Velocity P-wave (km/s) = 6.17639 6.75479 6.47205
#
# Compressibility (1/GPa) = 0.02292495
#
# Stress axis : x y z
#
# Youngs Moduli (GPa) = 103.19227 133.48346 67.47847
#
# Poissons Ratio (x) = 0.40573 0.13978
# Poissons Ratio (y) = 0.31366 -0.03864
# Poissons Ratio (z) = 0.21376 -0.07644
#
# Static dielectric constant tensor:
#      x y z
#    x 1.790140 0.000000 0.000000 
#    y 0.000000 1.811170 0.000000 
#    z 0.000000 0.000000 1.842900 
# 
# From -- ./inp_files/51868.got.cif
#   From: 2010.05.17/outbox.cif.g08.bks.cpg/sg74_26_cif.got.tgz:51868.got - 2010.06.03 17:57:02.
