data_PCOD9535662
_publ_section_title
;
Structure prediction by ZEFSAII (Michael W. Deem and Ramdas Pophale) SiO2 
 PCOD9535662
Probable space group: I M M A
;
_chemical_formula_sum "Si O2"
_cell_formula_units_Z 104
_cell_length_a 28.447780
_cell_length_b 8.641119
_cell_length_c 24.450294
_cell_angle_alpha 90.000000
_cell_angle_beta 90.000000
_cell_angle_gamma 90.000000
_cell_volume 6010.387219
_symmetry_space_group_name_H-M "I M M A"
_symmetry_group_IT_number 74
_symmetry_cell_setting 'orthorhombic'
loop_
_space_group_symop_operation_xyz
x,y,z
-x,1/2-y,z
x,-y,-z
-x,1/2+y,-z
-x,-y,-z
x,1/2+y,-z
-x,y,z
x,1/2-y,z
1/2+x,1/2+y,1/2+z
1/2-x,-y,1/2+z
1/2+x,1/2-y,1/2-z
1/2-x,y,1/2-z
1/2-x,1/2-y,1/2-z
1/2+x,y,1/2-z
1/2-x,1/2+y,1/2+z
1/2+x,-y,1/2+z
loop_
_atom_site_type_symbol
_atom_site_label
_atom_site_fract_x
_atom_site_fract_y
_atom_site_fract_z
Si Si1 0.197873 0.934848 0.736699
Si Si2 0.615879 0.433391 0.158273
Si Si3 0.445996 0.435555 0.938716
Si Si4 0.500000 0.064364 0.438930
Si Si5 0.603868 0.435837 0.438813
Si Si6 0.137550 0.069544 0.832852
Si Si7 0.446262 0.068516 0.747024
O O1 0.201455 0.750000 0.729334
O O2 0.250000 0.996814 0.750000
O O3 0.165604 0.991426 0.685208
O O4 0.169026 0.973164 0.791216
O O5 0.620062 0.250000 0.149866
O O6 0.593540 0.506693 0.103716
O O7 0.577941 0.469711 0.205639
O O8 0.500000 0.481412 0.922059
O O9 0.444802 0.250000 0.940162
O O10 0.438552 0.500000 0.000000
O O11 0.500000 0.250000 0.439015
O O12 0.448791 0.016483 0.418568
O O13 0.500000 0.000000 0.500000
O O14 0.610615 0.500000 0.500000
O O15 0.606607 0.250000 0.439976
O O16 0.638384 0.505519 0.393957
O O17 0.150577 0.250000 0.831275
O O18 0.085644 0.055258 0.806510
O O19 0.500000 0.024549 0.737450
O O20 0.444814 0.250000 0.764054
#
# Coordination Sequence:
#
# PCOD9535662 Si02
#       7
#    16  16  16   8  16  16  16
#     4   9  19  37  58  77  99 129 165 209 261 312
#     4  10  19  31  50  76 102 130 167 209 253 301
#     4  10  20  33  50  74 107 146 181 210 243 291
#     4   8  16  28  42  62  88 124 166 202 233 272
#     4  10  19  32  48  68  96 131 169 207 246 290
#     4  10  20  32  49  74 100 128 165 207 252 302
#     4   9  18  31  45  65  97 135 168 200 242 292
#
# _framework density 17.303377999999999
#
# number of rings (size 3 to 8) (size 9 to 14) (size 15 to 20)
#    0.000    2.462    0.000    2.308    1.077    5.231 
#    0.000    0.000    0.000    0.923    0.000    4.308 
#    0.000    0.000    0.000    0.000    0.000    0.000 
#
# Total GULP energy -289536.391363 kJ/mol
# GULP energy per Si atom -5568.007526 kJ/mol
# Density = 1.726399 g / cm^3
# Si number density = 17.303378 Si / 1000 Ang^3
#
#
#
# Elastic Constant Matrix: (Units=GPa)
#
#
# Indices 1 2 3 4 5 6 
#
# 1 98.6228 13.4451 32.8501 0.0000 0.0000 0.0000
# 2 13.4451 12.6759 19.5546 0.0000 0.0000 0.0000
# 3 32.8501 19.5546 88.7718 0.0000 0.0000 0.0000
# 4 0.0000 0.0000 0.0000 24.8555 0.0000 0.0000
# 5 0.0000 0.0000 0.0000 0.0000 13.7614 0.0000
# 6 0.0000 0.0000 0.0000 0.0000 0.0000 14.9470
#
#
#
# Elastic Compliance Matrix: (Units=1/GPa)
#
#
# Indices 1 2 3 4 5 6 
#
# 1 0.012216 -0.009064 -0.002524 0.000000 0.000000 0.000000
# 2 -0.009064 0.126222 -0.024450 0.000000 0.000000 0.000000
# 3 -0.002524 -0.024450 0.017585 0.000000 0.000000 0.000000
# 4 0.000000 0.000000 0.000000 0.040233 0.000000 0.000000
# 5 0.000000 0.000000 0.000000 0.000000 0.072667 0.000000
# 6 0.000000 0.000000 0.000000 0.000000 0.000000 0.066903
#
#
# Mechanical properties :
#
#
# Convention : Reuss Voigt Hill
#
# Bulk Modulus (GPa) = 11.91223 36.86334 24.38779
# Shear Modulus (GPa) = 11.47096 19.66083 15.56589
#
# Velocity S-wave (km/s) = 2.57754 3.37448 3.00257
# Velocity P-wave (km/s) = 3.96958 6.04427 5.11325
#
# Compressibility (1/GPa) = 0.08394731
#
# Stress axis : x y z
#
# Youngs Moduli (GPa) = 81.85986 7.92255 56.86768
#
# Poissons Ratio (x) = 0.07181 0.14353
# Poissons Ratio (y) = 0.74195 1.39042
# Poissons Ratio (z) = 0.20662 0.19371
#
# Static dielectric constant tensor:
#      x y z
#    x 1.621010 0.000000 0.000000 
#    y 0.000000 1.619420 0.000000 
#    z 0.000000 0.000000 1.571100 
# 
# From -- ./inp_files/55639.got.cif
#   From: 2010.05.17/outbox.cif.g08.bks.cpg/sg74_28_cif.got.tgz:55639.got - 2010.06.03 17:57:02.
