data_PCOD9535967
_publ_section_title
;
Structure prediction by ZEFSAII (Michael W. Deem and Ramdas Pophale) SiO2 
 PCOD9535967
Probable space group: I M M A
;
_chemical_formula_sum "Si O2"
_cell_formula_units_Z 112
_cell_length_a 14.733193
_cell_length_b 23.730783
_cell_length_c 14.764595
_cell_angle_alpha 90.000000
_cell_angle_beta 90.000000
_cell_angle_gamma 90.000000
_cell_volume 5162.148391
_symmetry_space_group_name_H-M "I M M A"
_symmetry_group_IT_number 74
_symmetry_cell_setting 'orthorhombic'
loop_
_space_group_symop_operation_xyz
x,y,z
-x,1/2-y,z
x,-y,-z
-x,1/2+y,-z
-x,-y,-z
x,1/2+y,-z
-x,y,z
x,1/2-y,z
1/2+x,1/2+y,1/2+z
1/2-x,-y,1/2+z
1/2+x,1/2-y,1/2-z
1/2-x,y,1/2-z
1/2-x,1/2-y,1/2-z
1/2+x,y,1/2-z
1/2-x,1/2+y,1/2+z
1/2+x,-y,1/2+z
loop_
_atom_site_type_symbol
_atom_site_label
_atom_site_fract_x
_atom_site_fract_y
_atom_site_fract_z
Si Si1 0.390725 0.512213 0.795329
Si Si2 0.774278 0.639706 0.394576
Si Si3 0.196691 0.809375 0.938491
Si Si4 0.108712 0.883783 0.235236
Si Si5 0.397954 0.894216 0.664497
Si Si6 0.625538 0.185327 0.165903
Si Si7 0.897405 0.081237 0.466959
O O1 0.500000 0.521465 0.797117
O O2 0.376352 0.447971 0.769489
O O3 0.353276 0.553385 0.716582
O O4 0.363904 0.535290 0.893989
O O5 0.751245 0.687130 0.468089
O O6 0.847263 0.653545 0.316050
O O7 0.678285 0.624234 0.348021
O O8 0.825190 0.592325 0.454816
O O9 0.145152 0.750000 0.934399
O O10 0.143621 0.867024 0.924543
O O11 0.267952 0.811002 0.856152
O O12 0.000000 0.875051 0.220934
O O13 0.500000 0.910660 0.642698
O O14 0.397625 0.843993 0.739366
O O15 0.594103 0.250000 0.159492
O O16 0.595097 0.139746 0.090457
O O17 0.000000 0.068205 0.500890
#
# Coordination Sequence:
#
# PCOD9535967 Si02
#       7
#    16  16  16  16  16  16  16
#     4   8  17  35  56  80 114 152 184 230 284 332
#     4  10  22  39  57  91 107 143 197 237 289 347
#     4  10  21  37  54  77 117 152 183 237 293 334
#     4  10  21  42  63  79 111 149 189 244 298 339
#     4  10  19  32  52  81 116 154 192 222 268 346
#     4   9  17  30  49  78 115 155 193 224 267 331
#     4   9  17  32  55  85 118 145 182 236 283 330
#
# _framework density 21.696393
#
# number of rings (size 3 to 8) (size 9 to 14) (size 15 to 20)
#    0.000    2.571    0.000    2.571    0.000    4.286 
#   18.000    3.571    0.000    4.714    0.000    0.000 
#    0.000    0.000    0.000    0.000    0.000    0.000 
#
# Total GULP energy -312035.271727 kJ/mol
# GULP energy per Si atom -5572.058424 kJ/mol
# Density = 2.164701 g / cm^3
# Si number density = 21.696393 Si / 1000 Ang^3
#
#
#
# Elastic Constant Matrix: (Units=GPa)
#
#
# Indices 1 2 3 4 5 6 
#
# 1 102.9584 1.9386 32.6269 0.0000 0.0000 0.0000
# 2 1.9386 47.4358 11.3883 -0.0002 0.0001 -0.0001
# 3 32.6269 11.3883 86.4643 0.0000 0.0000 -0.0001
# 4 0.0000 -0.0002 0.0000 4.6722 0.0000 -0.0001
# 5 0.0000 0.0001 0.0000 0.0000 28.9195 0.0000
# 6 0.0000 -0.0001 -0.0001 -0.0001 0.0000 13.9570
#
#
#
# Elastic Compliance Matrix: (Units=1/GPa)
#
#
# Indices 1 2 3 4 5 6 
#
# 1 0.011047 0.000567 -0.004243 0.000000 0.000000 0.000000
# 2 0.000567 0.021799 -0.003085 0.000001 0.000000 0.000000
# 3 -0.004243 -0.003085 0.013573 0.000000 0.000000 0.000000
# 4 0.000000 0.000001 0.000000 0.214034 0.000000 0.000001
# 5 0.000000 0.000000 0.000000 0.000000 0.034579 0.000000
# 6 0.000000 0.000000 0.000000 0.000001 0.000000 0.071648
#
#
# Mechanical properties :
#
#
# Convention : Reuss Voigt Hill
#
# Bulk Modulus (GPa) = 30.39875 36.52956 33.46416
# Shear Modulus (GPa) = 12.78228 22.23671 17.50950
#
# Velocity S-wave (km/s) = 2.42986 3.20488 2.84390
# Velocity P-wave (km/s) = 4.68121 5.52886 5.12260
#
# Compressibility (1/GPa) = 0.03289609
#
# Stress axis : x y z
#
# Youngs Moduli (GPa) = 90.52564 45.87451 73.67607
#
# Poissons Ratio (x) = -0.02602 0.31261
# Poissons Ratio (y) = -0.05135 0.22730
# Poissons Ratio (z) = 0.38411 0.14153
#
# Static dielectric constant tensor:
#      x y z
#    x 1.865290 0.000000 0.000000 
#    y 0.000000 1.819840 0.000000 
#    z 0.000000 0.000000 1.827550 
# 
# From -- ./inp_files/32714.got.cif
#   From: 2010.05.17/outbox.cif.g08.bks.cpg/sg74_17_cif.got.tgz:32714.got - 2010.06.03 17:57:02.
