data_PCOD9535914
_publ_section_title
;
Structure prediction by ZEFSAII (Michael W. Deem and Ramdas Pophale) SiO2 
 PCOD9535914
Probable space group: I M M A
;
_chemical_formula_sum "Si O2"
_cell_formula_units_Z 104
_cell_length_a 8.853683
_cell_length_b 21.039973
_cell_length_c 32.623291
_cell_angle_alpha 90.000000
_cell_angle_beta 90.000000
_cell_angle_gamma 90.000000
_cell_volume 6077.107468
_symmetry_space_group_name_H-M "I M M A"
_symmetry_group_IT_number 74
_symmetry_cell_setting 'orthorhombic'
loop_
_space_group_symop_operation_xyz
x,y,z
-x,1/2-y,z
x,-y,-z
-x,1/2+y,-z
-x,-y,-z
x,1/2+y,-z
-x,y,z
x,1/2-y,z
1/2+x,1/2+y,1/2+z
1/2-x,-y,1/2+z
1/2+x,1/2-y,1/2-z
1/2-x,y,1/2-z
1/2-x,1/2-y,1/2-z
1/2+x,y,1/2-z
1/2-x,1/2+y,1/2+z
1/2+x,-y,1/2+z
loop_
_atom_site_type_symbol
_atom_site_label
_atom_site_fract_x
_atom_site_fract_y
_atom_site_fract_z
Si Si1 0.821508 0.013364 0.793737
Si Si2 0.319155 0.322403 0.478876
Si Si3 0.178657 0.425294 0.418298
Si Si4 0.319355 0.750000 0.705661
Si Si5 0.682379 0.943841 0.120342
Si Si6 0.820386 0.881563 0.834937
Si Si7 0.181286 0.821679 0.430928
O O1 0.750000 0.031033 0.750000
O O2 0.798614 0.937982 0.802264
O O3 0.000000 0.025725 0.792669
O O4 0.751752 0.045191 0.834635
O O5 0.500000 0.324399 0.477881
O O6 0.273338 0.250000 0.465235
O O7 0.256122 0.380065 0.451657
O O8 0.260038 0.329859 0.525188
O O9 0.227094 0.498947 0.411023
O O10 0.221501 0.395984 0.374454
O O11 0.000000 0.424877 0.425908
O O12 0.500000 0.750000 0.708960
O O13 0.250000 0.750000 0.750000
O O14 0.276304 0.686195 0.682458
O O15 0.500000 0.946922 0.124216
O O16 0.725754 0.876767 0.100497
O O17 0.000000 0.881488 0.845812
O O18 0.214489 0.750000 0.416201
O O19 0.000000 0.826460 0.437000
#
# Coordination Sequence:
#
# PCOD9535914 Si02
#       7
#    16  16  16   8  16  16  16
#     4  10  19  32  52  75 101 133 169 208 250 301
#     4  10  21  35  51  72 102 139 175 213 254 297
#     4  10  20  33  50  73 101 133 171 212 253 299
#     4  10  20  32  46  64  90 124 164 210 256 300
#     4   9  19  35  54  78 106 133 164 207 257 303
#     4   9  19  33  47  67  96 131 168 209 257 300
#     4   9  18  35  58  80 102 131 167 205 249 306
#
# _framework density 17.113405
#
# number of rings (size 3 to 8) (size 9 to 14) (size 15 to 20)
#    0.000    2.462    0.000    1.846    1.077    4.000 
#    0.000    3.077    0.000    0.462    0.000    0.000 
#    0.000    0.000    0.000    0.000    0.000    0.000 
#
# Total GULP energy -289872.393024 kJ/mol
# GULP energy per Si atom -5574.469097 kJ/mol
# Density = 1.707445 g / cm^3
# Si number density = 17.113405 Si / 1000 Ang^3
#
#
#
# Elastic Constant Matrix: (Units=GPa)
#
#
# Indices 1 2 3 4 5 6 
#
# 1 33.7216 46.5204 39.1909 0.0000 0.0000 0.0000
# 2 46.5204 146.0407 82.0222 0.0000 0.0000 0.0000
# 3 39.1909 82.0222 87.5072 0.0000 0.0000 0.0000
# 4 0.0000 0.0000 0.0000 10.5236 0.0000 0.0000
# 5 0.0000 0.0000 0.0000 0.0000 30.5544 0.0000
# 6 0.0000 0.0000 0.0000 0.0000 0.0000 17.8072
#
#
#
# Elastic Compliance Matrix: (Units=1/GPa)
#
#
# Indices 1 2 3 4 5 6 
#
# 1 0.067637 -0.009570 -0.021321 0.000000 0.000000 0.000000
# 2 -0.009570 0.015814 -0.010536 0.000000 0.000000 0.000000
# 3 -0.021321 -0.010536 0.030852 0.000000 0.000000 0.000000
# 4 0.000000 0.000000 0.000000 0.095025 0.000000 0.000000
# 5 0.000000 0.000000 0.000000 0.000000 0.032729 0.000000
# 6 0.000000 0.000000 0.000000 0.000000 0.000000 0.056157
#
#
# Mechanical properties :
#
#
# Convention : Reuss Voigt Hill
#
# Bulk Modulus (GPa) = 31.79957 66.97074 49.38515
# Shear Modulus (GPa) = 12.76976 18.41277 15.59126
#
# Velocity S-wave (km/s) = 2.73460 3.28369 3.02164
# Velocity P-wave (km/s) = 5.34722 7.32088 6.41046
#
# Compressibility (1/GPa) = 0.03144697
#
# Stress axis : x y z
#
# Youngs Moduli (GPa) = 14.78490 63.23706 32.41267
#
# Poissons Ratio (x) = 0.60521 0.69107
# Poissons Ratio (y) = 0.14150 0.34150
# Poissons Ratio (z) = 0.31523 0.66627
#
# Static dielectric constant tensor:
#      x y z
#    x 1.575440 0.000000 0.000000 
#    y 0.000000 1.604830 0.000000 
#    z 0.000000 0.000000 1.541590 
# 
# From -- ./inp_files/64470.got.cif
#   From: 2010.05.17/outbox.cif.g08.bks.cpg/sg74_33_cif.got.tgz:64470.got - 2010.06.03 17:57:02.
