data_PCOD9535671
_publ_section_title
;
Structure prediction by ZEFSAII (Michael W. Deem and Ramdas Pophale) SiO2 
 PCOD9535671
Probable space group: I M M A
;
_chemical_formula_sum "Si O2"
_cell_formula_units_Z 104
_cell_length_a 8.099743
_cell_length_b 26.714123
_cell_length_c 22.056875
_cell_angle_alpha 90.000000
_cell_angle_beta 90.000000
_cell_angle_gamma 90.000000
_cell_volume 4772.612149
_symmetry_space_group_name_H-M "I M M A"
_symmetry_group_IT_number 74
_symmetry_cell_setting 'orthorhombic'
loop_
_space_group_symop_operation_xyz
x,y,z
-x,1/2-y,z
x,-y,-z
-x,1/2+y,-z
-x,-y,-z
x,1/2+y,-z
-x,y,z
x,1/2-y,z
1/2+x,1/2+y,1/2+z
1/2-x,-y,1/2+z
1/2+x,1/2-y,1/2-z
1/2-x,y,1/2-z
1/2-x,1/2-y,1/2-z
1/2+x,y,1/2-z
1/2-x,1/2+y,1/2+z
1/2+x,-y,1/2+z
loop_
_atom_site_type_symbol
_atom_site_label
_atom_site_fract_x
_atom_site_fract_y
_atom_site_fract_z
Si Si1 0.804898 0.384108 0.181061
Si Si2 0.199330 0.250000 0.820077
Si Si3 0.807547 0.040595 0.684405
Si Si4 0.807055 0.358051 0.860787
Si Si5 0.802385 0.807186 0.917533
Si Si6 0.192415 0.466678 0.411636
Si Si7 0.806022 0.391359 0.509286
O O1 0.750000 0.385154 0.250000
O O2 0.777782 0.330503 0.149117
O O3 0.707967 0.423958 0.140024
O O4 0.000000 0.395884 0.176354
O O5 0.250000 0.250000 0.750000
O O6 0.257903 0.198150 0.850292
O O7 0.000000 0.250000 0.824880
O O8 0.750000 0.021797 0.750000
O O9 0.778758 0.099614 0.679316
O O10 0.000000 0.029932 0.681734
O O11 0.732774 0.013984 0.624289
O O12 0.783163 0.375775 0.929576
O O13 0.000000 0.358555 0.845060
O O14 0.748417 0.750000 0.922614
O O15 0.000000 0.809385 0.930034
O O16 0.714628 0.844689 0.963720
O O17 0.259525 0.440210 0.472599
O O18 0.000000 0.476807 0.425410
O O19 0.000000 0.399190 0.522865
#
# Coordination Sequence:
#
# PCOD9535671 Si02
#       7
#    16   8  16  16  16  16  16
#     4  10  19  31  50  76 107 146 193 241 293 350
#     4  10  24  44  66  90 120 156 195 240 295 350
#     4  11  23  40  62  90 121 156 196 244 295 352
#     4  11  24  42  63  90 121 158 196 241 297 356
#     4   9  19  35  53  74 106 148 191 241 296 352
#     4   9  20  38  59  83 117 156 194 239 293 347
#     4  10  21  38  59  87 118 152 196 244 293 349
#
# _framework density 21.791001999999999
#
# number of rings (size 3 to 8) (size 9 to 14) (size 15 to 20)
#    0.000    2.000    0.000    2.769    1.077    7.385 
#    0.000    3.077    0.000    0.000    0.000    0.000 
#    0.000    0.000    0.000    0.000    0.000    0.000 
#
# Total GULP energy -290408.730004 kJ/mol
# GULP energy per Si atom -5584.783269 kJ/mol
# Density = 2.174140 g / cm^3
# Si number density = 21.791002 Si / 1000 Ang^3
#
#
#
# Elastic Constant Matrix: (Units=GPa)
#
#
# Indices 1 2 3 4 5 6 
#
# 1 19.3061 6.8232 -3.5028 0.0000 0.0000 0.0000
# 2 6.8232 137.0508 36.5671 0.0000 0.0000 0.0000
# 3 -3.5028 36.5671 108.2589 0.0000 0.0000 0.0000
# 4 0.0000 0.0000 0.0000 24.2636 0.0000 0.0000
# 5 0.0000 0.0000 0.0000 0.0000 28.2340 0.0000
# 6 0.0000 0.0000 0.0000 0.0000 0.0000 -109.6585
#
#
#
# Elastic Compliance Matrix: (Units=1/GPa)
#
#
# Indices 1 2 3 4 5 6 
#
# 1 0.053537 -0.003437 0.002893 0.000000 0.000000 0.000000
# 2 -0.003437 0.008240 -0.002894 0.000000 0.000000 0.000000
# 3 0.002893 -0.002894 0.010308 0.000000 0.000000 0.000000
# 4 0.000000 0.000000 0.000000 0.041214 0.000000 0.000000
# 5 0.000000 0.000000 0.000000 0.000000 0.035418 0.000000
# 6 0.000000 0.000000 0.000000 0.000000 0.000000 -0.009119
#
#
# Mechanical properties :
#
#
# Convention : Reuss Voigt Hill
#
# Bulk Modulus (GPa) = 15.33551 38.26566 26.80058
# Shear Modulus (GPa) = 29.72448 3.54969 16.63709
#
# Velocity S-wave (km/s) = 3.69734 1.27770 2.76612
# Velocity P-wave (km/s) = 5.02791 4.44692 4.74632
#
# Compressibility (1/GPa) = 0.06520814
#
# Stress axis : x y z
#
# Youngs Moduli (GPa) = 18.67872 121.35943 97.00813
#
# Poissons Ratio (x) = 0.41715 -0.28067
# Poissons Ratio (y) = 0.06421 0.28079
# Poissons Ratio (z) = -0.05404 0.35127
#
# Static dielectric constant tensor:
#      x y z
#    x 1.797740 0.000000 0.000000 
#    y 0.000000 1.821780 0.000000 
#    z 0.000000 0.000000 1.796720 
# 
# From -- ./inp_files/49243.got.cif
#   From: 2010.05.17/outbox.cif.g08.bks.cpg/sg74_25_cif.got.tgz:49243.got - 2010.06.03 17:57:02.
