data_PCOD9535649
_publ_section_title
;
Structure prediction by ZEFSAII (Michael W. Deem and Ramdas Pophale) SiO2 
 PCOD9535649
Probable space group: I M M A
;
_chemical_formula_sum "Si O2"
_cell_formula_units_Z 64
_cell_length_a 11.973265
_cell_length_b 7.726877
_cell_length_c 28.765714
_cell_angle_alpha 90.000000
_cell_angle_beta 90.000000
_cell_angle_gamma 90.000000
_cell_volume 2661.287241
_symmetry_space_group_name_H-M "I M M A"
_symmetry_group_IT_number 74
_symmetry_cell_setting 'orthorhombic'
loop_
_space_group_symop_operation_xyz
x,y,z
-x,1/2-y,z
x,-y,-z
-x,1/2+y,-z
-x,-y,-z
x,1/2+y,-z
-x,y,z
x,1/2-y,z
1/2+x,1/2+y,1/2+z
1/2-x,-y,1/2+z
1/2+x,1/2-y,1/2-z
1/2-x,y,1/2-z
1/2-x,1/2-y,1/2-z
1/2+x,y,1/2-z
1/2-x,1/2+y,1/2+z
1/2+x,-y,1/2+z
loop_
_atom_site_type_symbol
_atom_site_label
_atom_site_fract_x
_atom_site_fract_y
_atom_site_fract_z
Si Si1 0.382081 0.448373 0.707646
Si Si2 0.149581 0.945667 0.689244
Si Si3 0.625100 0.542571 0.554653
Si Si4 0.876920 0.038428 0.414508
O O1 0.500000 0.516317 0.691987
O O2 0.368168 0.250000 0.693316
O O3 0.282602 0.557108 0.688360
O O4 0.378773 0.453367 0.763896
O O5 0.111566 0.750000 0.695496
O O6 0.114996 0.013878 0.639609
O O7 0.622596 0.500000 0.500000
O O8 0.500000 0.481181 0.572653
O O9 0.626028 0.750000 0.561793
O O10 0.751264 0.480405 0.569968
O O11 0.874802 0.250000 0.416553
O O12 0.000000 0.986974 0.435820
#
# Coordination Sequence:
#
# PCOD9535649 Si02
#       4
#    16  16  16  16
#     4  10  20  33  48  67  97 136 172 209 256 307
#     4  10  19  31  50  73  96 126 168 216 257 297
#     4   9  18  34  55  77 102 132 164 200 245 297
#     4   9  18  32  51  76 104 132 164 206 254 300
#
# _framework density 24.048513
#
# number of rings (size 3 to 8) (size 9 to 14) (size 15 to 20)
#    0.000    2.500    0.000    3.750    0.000    4.500 
#    0.000    5.000    0.000    6.000    0.000    0.000 
#    0.000    0.000    0.000    0.000    0.000    0.000 
#
# Total GULP energy -178179.218166 kJ/mol
# GULP energy per Si atom -5568.100568 kJ/mol
# Density = 2.399378 g / cm^3
# Si number density = 24.048513 Si / 1000 Ang^3
#
#
#
# Elastic Constant Matrix: (Units=GPa)
#
#
# Indices 1 2 3 4 5 6 
#
# 1 321.1721 28.9067 40.2641 0.0000 0.0000 0.0000
# 2 28.9067 42.0218 -9.0583 0.0000 0.0000 0.0000
# 3 40.2641 -9.0583 52.5705 0.0000 0.0000 0.0000
# 4 0.0000 0.0000 0.0000 25.3705 0.0000 0.0000
# 5 0.0000 0.0000 0.0000 0.0000 -113.9340 0.0000
# 6 0.0000 0.0000 0.0000 0.0000 0.0000 -15.7056
#
#
#
# Elastic Compliance Matrix: (Units=1/GPa)
#
#
# Indices 1 2 3 4 5 6 
#
# 1 0.003867 -0.003426 -0.003552 0.000000 0.000000 0.000000
# 2 -0.003426 0.027750 0.007406 0.000000 0.000000 0.000000
# 3 -0.003552 0.007406 0.023019 0.000000 0.000000 0.000000
# 4 0.000000 0.000000 0.000000 0.039416 0.000000 0.000000
# 5 0.000000 0.000000 0.000000 0.000000 -0.008777 0.000000
# 6 0.000000 0.000000 0.000000 0.000000 0.000000 -0.063672
#
#
# Mechanical properties :
#
#
# Convention : Reuss Voigt Hill
#
# Bulk Modulus (GPa) = 18.02093 59.55439 38.78766
# Shear Modulus (GPa) = 127.40071 2.85631 65.12851
#
# Velocity S-wave (km/s) = 7.28640 1.09101 5.20970
# Velocity P-wave (km/s) = 8.84865 5.13859 7.23546
#
# Compressibility (1/GPa) = 0.05549102
#
# Stress axis : x y z
#
# Youngs Moduli (GPa) = 258.57866 36.03559 43.44264
#
# Poissons Ratio (x) = 0.12346 0.15432
# Poissons Ratio (y) = 0.88590 -0.32172
# Poissons Ratio (z) = 0.91856 -0.26687
#
# Static dielectric constant tensor:
#      x y z
#    x 2.056520 0.000000 0.000000 
#    y 0.000000 1.849960 0.000000 
#    z 0.000000 0.000000 1.892230 
# 
# From -- ./inp_files/69736.got.cif
#   From: 2010.05.17/outbox.cif.g08.bks.cpg/sg74_35_cif.got.tgz:69736.got - 2010.06.03 17:57:02.
