data_PCOD9535754
_publ_section_title
;
Structure prediction by ZEFSAII (Michael W. Deem and Ramdas Pophale) SiO2 
 PCOD9535754
Probable space group: I M M A
;
_chemical_formula_sum "Si O2"
_cell_formula_units_Z 96
_cell_length_a 14.303532
_cell_length_b 21.089181
_cell_length_c 15.116806
_cell_angle_alpha 90.000000
_cell_angle_beta 90.000000
_cell_angle_gamma 90.000000
_cell_volume 4559.981133
_symmetry_space_group_name_H-M "I M M A"
_symmetry_group_IT_number 74
_symmetry_cell_setting 'orthorhombic'
loop_
_space_group_symop_operation_xyz
x,y,z
-x,1/2-y,z
x,-y,-z
-x,1/2+y,-z
-x,-y,-z
x,1/2+y,-z
-x,y,z
x,1/2-y,z
1/2+x,1/2+y,1/2+z
1/2-x,-y,1/2+z
1/2+x,1/2-y,1/2-z
1/2-x,y,1/2-z
1/2-x,1/2-y,1/2-z
1/2+x,y,1/2-z
1/2-x,1/2+y,1/2+z
1/2+x,-y,1/2+z
loop_
_atom_site_type_symbol
_atom_site_label
_atom_site_fract_x
_atom_site_fract_y
_atom_site_fract_z
Si Si1 0.746629 0.322130 0.962256
Si Si2 0.307861 0.318412 0.158098
Si Si3 0.388517 0.588499 0.130628
Si Si4 0.392941 0.615520 0.328417
Si Si5 0.099253 0.024479 0.098606
Si Si6 0.704696 0.546313 0.845916
O O1 0.731101 0.250000 0.930784
O O2 0.658633 0.367351 0.942238
O O3 0.829537 0.352126 0.903073
O O4 0.754485 0.317331 0.068489
O O5 0.359756 0.250000 0.156645
O O6 0.250000 0.319191 0.250000
O O7 0.353991 0.388502 0.155865
O O8 0.500000 0.586041 0.125202
O O9 0.362841 0.619951 0.226026
O O10 0.347543 0.517218 0.125259
O O11 0.500000 0.638116 0.336813
O O12 0.393931 0.539731 0.344431
O O13 0.000000 0.057435 0.122365
O O14 0.199118 0.057554 0.100711
O O15 0.090654 0.000000 0.000000
O O16 0.750000 0.535321 0.750000
#
# Coordination Sequence:
#
# PCOD9535754 Si02
#       6
#    16  16  16  16  16  16
#     4  11  22  39  62  86 120 164 207 246 301 368
#     4   9  21  40  63  90 117 153 199 253 310 361
#     4  11  23  38  57  89 128 161 203 249 296 355
#     4  10  20  36  56  88 129 158 193 246 298 357
#     4  10  19  31  53  85 118 152 193 241 294 350
#     4  11  19  34  61  85 117 157 197 245 295 359
#
# _framework density 21.052719
#
# number of rings (size 3 to 8) (size 9 to 14) (size 15 to 20)
#    0.000    1.667    3.333    1.500    0.000    2.000 
#    0.000    3.333    0.000    5.000    0.000   14.000 
#    0.000    0.000    0.000    0.000    0.000    0.000 
#
# Total GULP energy -267245.533187 kJ/mol
# GULP energy per Si atom -5567.615275 kJ/mol
# Density = 2.100480 g / cm^3
# Si number density = 21.052719 Si / 1000 Ang^3
#
#
#
# Elastic Constant Matrix: (Units=GPa)
#
#
# Indices 1 2 3 4 5 6 
#
# 1 93.3495 45.5633 24.3923 0.0000 0.0000 0.0000
# 2 45.5633 144.4347 11.5278 -0.0001 0.0001 -0.0002
# 3 24.3923 11.5278 102.8124 -0.0003 0.0002 -0.0002
# 4 0.0000 -0.0001 -0.0003 23.0115 0.0001 -0.0002
# 5 0.0000 0.0001 0.0002 0.0001 17.1067 0.0000
# 6 0.0000 -0.0002 -0.0002 -0.0002 0.0000 -15.6709
#
#
#
# Elastic Compliance Matrix: (Units=1/GPa)
#
#
# Indices 1 2 3 4 5 6 
#
# 1 0.013378 -0.004003 -0.002725 0.000000 0.000000 0.000000
# 2 -0.004003 0.008184 0.000032 0.000000 0.000000 0.000000
# 3 -0.002725 0.000032 0.010369 0.000000 0.000000 0.000000
# 4 0.000000 0.000000 0.000000 0.043457 0.000000 -0.000001
# 5 0.000000 0.000000 0.000000 0.000000 0.058457 0.000000
# 6 0.000000 0.000000 0.000000 -0.000001 0.000000 -0.063813
#
#
# Mechanical properties :
#
#
# Convention : Reuss Voigt Hill
#
# Bulk Modulus (GPa) = 53.93875 55.95151 54.94513
# Shear Modulus (GPa) = 55.80135 22.16367 38.98251
#
# Velocity S-wave (km/s) = 5.15394 3.24816 4.30776
# Velocity P-wave (km/s) = 7.81626 6.37981 7.13428
#
# Compressibility (1/GPa) = 0.01853955
#
# Stress axis : x y z
#
# Youngs Moduli (GPa) = 74.74808 122.19400 96.43749
#
# Poissons Ratio (x) = 0.48912 0.26281
# Poissons Ratio (y) = 0.29920 -0.00309
# Poissons Ratio (z) = 0.20370 -0.00392
#
# Static dielectric constant tensor:
#      x y z
#    x 2.005320 0.000000 0.000000 
#    y 0.000000 1.813320 0.000000 
#    z 0.000000 0.000000 1.787010 
# 
# From -- ./inp_files/32320.got.cif
#   From: 2010.05.17/outbox.cif.g08.bks.cpg/sg74_17_cif.got.tgz:32320.got - 2010.06.03 17:57:02.
