data_PCOD9535438
_publ_section_title
;
Structure prediction by ZEFSAII (Michael W. Deem and Ramdas Pophale) SiO2 
 PCOD9535438
Probable space group: I M M A
;
_chemical_formula_sum "Si O2"
_cell_formula_units_Z 96
_cell_length_a 24.286724
_cell_length_b 8.350358
_cell_length_c 26.394701
_cell_angle_alpha 90.000000
_cell_angle_beta 90.000000
_cell_angle_gamma 90.000000
_cell_volume 5352.920325
_symmetry_space_group_name_H-M "I M M A"
_symmetry_group_IT_number 74
_symmetry_cell_setting 'orthorhombic'
loop_
_space_group_symop_operation_xyz
x,y,z
-x,1/2-y,z
x,-y,-z
-x,1/2+y,-z
-x,-y,-z
x,1/2+y,-z
-x,y,z
x,1/2-y,z
1/2+x,1/2+y,1/2+z
1/2-x,-y,1/2+z
1/2+x,1/2-y,1/2-z
1/2-x,y,1/2-z
1/2-x,1/2-y,1/2-z
1/2+x,y,1/2-z
1/2-x,1/2+y,1/2+z
1/2+x,-y,1/2+z
loop_
_atom_site_type_symbol
_atom_site_label
_atom_site_fract_x
_atom_site_fract_y
_atom_site_fract_z
Si Si1 0.684522 0.060478 0.556429
Si Si2 0.309145 0.942388 0.943180
Si Si3 0.563956 0.445879 0.249666
Si Si4 0.248462 0.431958 0.690152
Si Si5 0.635150 0.437414 0.154772
Si Si6 0.364830 0.939938 0.654283
O O1 0.688613 0.250000 0.555529
O O2 0.671839 0.000000 0.500000
O O3 0.746258 0.995594 0.569456
O O4 0.638855 0.009603 0.597567
O O5 0.309200 0.750000 0.941884
O O6 0.354355 0.002195 0.902225
O O7 0.320509 0.000000 0.000000
O O8 0.500000 0.489623 0.249113
O O9 0.567792 0.250000 0.249410
O O10 0.594581 0.504099 0.198257
O O11 0.593335 0.499434 0.301999
O O12 0.244064 0.250000 0.668802
O O13 0.250000 0.417065 0.750000
O O14 0.196174 0.538359 0.676712
O O15 0.304591 0.515028 0.674427
O O16 0.621179 0.250000 0.149728
O O17 0.371824 0.750000 0.650261
#
# Coordination Sequence:
#
# PCOD9535438 Si02
#       6
#    16  16  16  16  16  16
#     4  11  21  33  50  75 109 143 173 210 251 309
#     4  10  19  30  47  73 106 141 175 210 253 309
#     4   9  19  35  55  78 101 132 177 224 266 309
#     4  11  21  30  45  74 108 138 169 207 259 319
#     4  10  19  32  52  75 102 137 175 215 258 311
#     4  11  20  32  53  77 105 139 172 212 261 316
#
# _framework density 17.934135999999999
#
# number of rings (size 3 to 8) (size 9 to 14) (size 15 to 20)
#    0.000    1.667    3.333    4.000    0.000    1.333 
#    0.000    0.000    0.000    5.500    0.000    0.000 
#    0.000    0.000    0.000    0.000    0.000    0.667 
#
# Total GULP energy -267450.549761 kJ/mol
# GULP energy per Si atom -5571.886453 kJ/mol
# Density = 1.789332 g / cm^3
# Si number density = 17.934136 Si / 1000 Ang^3
#
#
#
# Elastic Constant Matrix: (Units=GPa)
#
#
# Indices 1 2 3 4 5 6 
#
# 1 95.0394 -1.2276 65.1895 0.0000 0.0000 0.0000
# 2 -1.2276 41.7521 21.7616 0.0000 0.0000 0.0000
# 3 65.1895 21.7616 169.9364 0.0000 0.0000 0.0000
# 4 0.0000 0.0000 0.0000 8.5473 0.0000 0.0000
# 5 0.0000 0.0000 0.0000 0.0000 12.2883 0.0000
# 6 0.0000 0.0000 0.0000 0.0000 0.0000 4.1824
#
#
#
# Elastic Compliance Matrix: (Units=1/GPa)
#
#
# Indices 1 2 3 4 5 6 
#
# 1 0.014776 0.003631 -0.006133 0.000000 0.000000 0.000000
# 2 0.003631 0.026556 -0.004794 0.000000 0.000000 0.000000
# 3 -0.006133 -0.004794 0.008851 0.000000 0.000000 0.000000
# 4 0.000000 0.000000 0.000000 0.116996 0.000000 0.000000
# 5 0.000000 0.000000 0.000000 0.000000 0.081378 0.000000
# 6 0.000000 0.000000 0.000000 0.000000 0.000000 0.239098
#
#
# Mechanical properties :
#
#
# Convention : Reuss Voigt Hill
#
# Bulk Modulus (GPa) = 28.09649 53.13054 40.61351
# Shear Modulus (GPa) = 9.72555 19.73723 14.73139
#
# Velocity S-wave (km/s) = 2.33124 3.32104 2.86914
# Velocity P-wave (km/s) = 4.79028 6.66299 5.80268
#
# Compressibility (1/GPa) = 0.03559164
#
# Stress axis : x y z
#
# Youngs Moduli (GPa) = 67.67883 37.65607 112.97983
#
# Poissons Ratio (x) = -0.13673 0.69292
# Poissons Ratio (y) = -0.24575 0.54158
# Poissons Ratio (z) = 0.41508 0.18051
#
# Static dielectric constant tensor:
#      x y z
#    x 1.572800 0.000000 0.000000 
#    y 0.000000 1.652380 0.000000 
#    z 0.000000 0.000000 1.697140 
# 
# From -- ./inp_files/68143.got.cif
#   From: 2010.05.17/outbox.cif.g08.bks.cpg/sg74_35_cif.got.tgz:68143.got - 2010.06.03 17:57:02.
