data_PCOD9535353
_publ_section_title
;
Structure prediction by ZEFSAII (Michael W. Deem and Ramdas Pophale) SiO2 
 PCOD9535353
Probable space group: I M M A
;
_chemical_formula_sum "Si O2"
_cell_formula_units_Z 48
_cell_length_a 26.270258
_cell_length_b 5.491818
_cell_length_c 16.211272
_cell_angle_alpha 90.000000
_cell_angle_beta 90.000000
_cell_angle_gamma 90.000000
_cell_volume 2338.824135
_symmetry_space_group_name_H-M "I M M A"
_symmetry_group_IT_number 74
_symmetry_cell_setting 'orthorhombic'
loop_
_space_group_symop_operation_xyz
x,y,z
-x,1/2-y,z
x,-y,-z
-x,1/2+y,-z
-x,-y,-z
x,1/2+y,-z
-x,y,z
x,1/2-y,z
1/2+x,1/2+y,1/2+z
1/2-x,-y,1/2+z
1/2+x,1/2-y,1/2-z
1/2-x,y,1/2-z
1/2-x,1/2-y,1/2-z
1/2+x,y,1/2-z
1/2-x,1/2+y,1/2+z
1/2+x,-y,1/2+z
loop_
_atom_site_type_symbol
_atom_site_label
_atom_site_fract_x
_atom_site_fract_y
_atom_site_fract_z
Si Si1 0.326493 0.250000 0.182228
Si Si2 0.715850 0.250000 0.369116
Si Si3 0.840447 0.250000 0.898543
Si Si4 0.616133 0.250000 0.789358
Si Si5 0.500000 0.250000 0.325476
Si Si6 0.500000 0.250000 0.773947
Si Si7 0.070342 0.750000 0.970186
O O1 0.302458 0.250000 0.273991
O O2 0.276755 0.250000 0.124360
O O3 0.358166 0.500967 0.177238
O O4 0.692736 0.504535 0.400763
O O5 0.872518 0.250000 0.811251
O O6 0.877650 0.250000 0.976929
O O7 0.556518 0.250000 0.812889
O O8 0.500000 0.500538 0.277260
O O9 0.554421 0.250000 0.374875
O O10 0.047851 0.500000 0.000000
#
# Coordination Sequence:
#
# PCOD9535353 Si02
#       7
#     8   8   8   8   4   4   8
#     4   9  17  30  48  65  83 105 132 177 242 296
#     4   9  17  30  47  66  83 101 132 184 243 290
#     4  10  19  30  45  64  84 108 146 194 236 274
#     4  10  19  31  45  64  86 111 144 186 233 278
#     4  12  24  37  48  60  86 130 174 208 244 271
#     4  12  24  37  50  66  92 126 168 210 238 271
#     4  12  23  35  47  62  85 121 165 204 240 274
#
# _framework density 20.523136000000001
#
# number of rings (size 3 to 8) (size 9 to 14) (size 15 to 20)
#    0.000    1.667    0.000    6.500    0.000    7.333 
#    0.000    0.000    0.000    0.000    0.000    0.000 
#    0.000    0.000    0.000    0.000    0.000    0.000 
#
# Total GULP energy -133658.556259 kJ/mol
# GULP energy per Si atom -5569.106511 kJ/mol
# Density = 2.047642 g / cm^3
# Si number density = 20.523136 Si / 1000 Ang^3
#
#
#
# Elastic Constant Matrix: (Units=GPa)
#
#
# Indices 1 2 3 4 5 6 
#
# 1 205.7280 102.0748 27.1627 0.0000 0.0000 0.0000
# 2 102.0748 236.3936 18.2326 0.0000 0.0000 0.0000
# 3 27.1627 18.2326 11.5656 0.0000 0.0000 0.0000
# 4 0.0000 0.0000 0.0000 16.3438 0.0000 0.0000
# 5 0.0000 0.0000 0.0000 0.0000 31.3093 0.0000
# 6 0.0000 0.0000 0.0000 0.0000 0.0000 49.9044
#
#
#
# Elastic Compliance Matrix: (Units=1/GPa)
#
#
# Indices 1 2 3 4 5 6 
#
# 1 0.007998 -0.002282 -0.015187 0.000000 0.000000 0.000000
# 2 -0.002282 0.005467 -0.003258 0.000000 0.000000 0.000000
# 3 -0.015187 -0.003258 0.127266 0.000000 0.000000 0.000000
# 4 0.000000 0.000000 0.000000 0.061185 0.000000 0.000000
# 5 0.000000 0.000000 0.000000 0.000000 0.031939 0.000000
# 6 0.000000 0.000000 0.000000 0.000000 0.000000 0.020038
#
#
# Mechanical properties :
#
#
# Convention : Reuss Voigt Hill
#
# Bulk Modulus (GPa) = 10.07280 83.18083 46.62681
# Shear Modulus (GPa) = 15.22340 39.92597 27.57469
#
# Velocity S-wave (km/s) = 2.72650 4.41547 3.66948
# Velocity P-wave (km/s) = 3.85102 8.16170 6.38137
#
# Compressibility (1/GPa) = 0.09927724
#
# Stress axis : x y z
#
# Youngs Moduli (GPa) = 125.02608 182.91362 7.85754
#
# Poissons Ratio (x) = 0.41748 0.11933
# Poissons Ratio (y) = 0.28535 0.02560
# Poissons Ratio (z) = 1.89872 0.59598
#
# Static dielectric constant tensor:
#      x y z
#    x 1.811600 0.000000 0.000000 
#    y 0.000000 1.718460 0.000000 
#    z 0.000000 0.000000 1.740180 
# 
# From -- ./inp_files/53519.got.cif
#   From: 2010.05.17/outbox.cif.g08.bks.cpg/sg74_27_cif.got.tgz:53519.got - 2010.06.03 17:57:02.
