data_PCOD9535138
_publ_section_title
;
Structure prediction by ZEFSAII (Michael W. Deem and Ramdas Pophale) SiO2 
 PCOD9535138
Probable space group: I M M A
;
_chemical_formula_sum "Si O2"
_cell_formula_units_Z 68
_cell_length_a 7.933190
_cell_length_b 16.163367
_cell_length_c 23.157892
_cell_angle_alpha 90.000000
_cell_angle_beta 90.000000
_cell_angle_gamma 90.000000
_cell_volume 2969.468441
_symmetry_space_group_name_H-M "I M M A"
_symmetry_group_IT_number 74
_symmetry_cell_setting 'orthorhombic'
loop_
_space_group_symop_operation_xyz
x,y,z
-x,1/2-y,z
x,-y,-z
-x,1/2+y,-z
-x,-y,-z
x,1/2+y,-z
-x,y,z
x,1/2-y,z
1/2+x,1/2+y,1/2+z
1/2-x,-y,1/2+z
1/2+x,1/2-y,1/2-z
1/2-x,y,1/2-z
1/2-x,1/2-y,1/2-z
1/2+x,y,1/2-z
1/2-x,1/2+y,1/2+z
1/2+x,-y,1/2+z
loop_
_atom_site_type_symbol
_atom_site_label
_atom_site_fract_x
_atom_site_fract_y
_atom_site_fract_z
Si Si1 0.000000 0.250000 0.300568
Si Si2 0.191514 0.850343 0.547212
Si Si3 0.696408 0.053727 0.808877
Si Si4 0.814335 0.126318 0.171199
Si Si5 0.201652 0.654471 0.079052
O O1 0.846685 0.178902 0.307766
O O2 0.195862 0.750000 0.546346
O O3 0.303269 0.874875 0.601404
O O4 0.242972 0.878966 0.483631
O O5 0.000000 0.876267 0.559505
O O6 0.500000 0.034564 0.806901
O O7 0.750000 0.099534 0.750000
O O8 0.797574 0.968054 0.810097
O O9 0.732384 0.103926 0.866843
O O10 0.000000 0.159601 0.188596
O O11 0.260354 0.750000 0.082913
O O12 0.000000 0.654180 0.080273
#
# Coordination Sequence:
#
# PCOD9535138 Si02
#       5
#     4  16  16  16  16
#     4  12  22  44  66 104 136 176 226 262 330 400
#     4  10  18  35  61  96 137 172 214 269 324 390
#     4  12  26  47  68  92 130 172 222 282 334 390
#     4  12  23  41  70  99 136 178 220 270 332 392
#     4  10  22  40  65 100 132 173 223 268 330 401
#
# _framework density 22.899722000000001
#
# number of rings (size 3 to 8) (size 9 to 14) (size 15 to 20)
#    0.000    0.941    3.529    3.882    0.000    3.765 
#    0.000    5.294    0.000    0.000    0.000    0.000 
#    0.000    0.000    0.000    0.000    0.000    0.000 
#
# Total GULP energy -189841.880539 kJ/mol
# GULP energy per Si atom -5583.584722 kJ/mol
# Density = 2.284760 g / cm^3
# Si number density = 22.899722 Si / 1000 Ang^3
#
#
#
# Elastic Constant Matrix: (Units=GPa)
#
#
# Indices 1 2 3 4 5 6 
#
# 1 176.6889 24.5260 44.4627 0.0000 0.0000 0.0000
# 2 24.5260 45.6773 28.2064 0.0000 0.0000 0.0000
# 3 44.4627 28.2064 169.3455 0.0000 0.0000 0.0000
# 4 0.0000 0.0000 0.0000 43.6113 0.0000 0.0000
# 5 0.0000 0.0000 0.0000 0.0000 44.5389 0.0000
# 6 0.0000 0.0000 0.0000 0.0000 0.0000 28.9020
#
#
#
# Elastic Compliance Matrix: (Units=1/GPa)
#
#
# Indices 1 2 3 4 5 6 
#
# 1 0.006335 -0.002646 -0.001222 0.000000 0.000000 0.000000
# 2 -0.002646 0.025508 -0.003554 0.000000 0.000000 0.000000
# 3 -0.001222 -0.003554 0.006818 0.000000 0.000000 0.000000
# 4 0.000000 0.000000 0.000000 0.022930 0.000000 0.000000
# 5 0.000000 0.000000 0.000000 0.000000 0.022452 0.000000
# 6 0.000000 0.000000 0.000000 0.000000 0.000000 0.034600
#
#
# Mechanical properties :
#
#
# Convention : Reuss Voigt Hill
#
# Bulk Modulus (GPa) = 41.98958 65.12244 53.55601
# Shear Modulus (GPa) = 35.35404 43.04488 39.19946
#
# Velocity S-wave (km/s) = 3.93347 4.34027 4.14186
# Velocity P-wave (km/s) = 6.24545 7.32237 6.80524
#
# Compressibility (1/GPa) = 0.02381543
#
# Stress axis : x y z
#
# Youngs Moduli (GPa) = 157.86244 39.20297 146.67124
#
# Poissons Ratio (x) = 0.10375 0.17929
# Poissons Ratio (y) = 0.41778 0.52125
# Poissons Ratio (z) = 0.19297 0.13932
#
# Static dielectric constant tensor:
#      x y z
#    x 1.835300 0.000000 0.000000 
#    y 0.000000 1.832770 0.000000 
#    z 0.000000 0.000000 1.912420 
# 
# From -- ./inp_files/48144.got.cif
#   From: 2010.05.17/outbox.cif.g08.bks.cpg/sg74_25_cif.got.tgz:48144.got - 2010.06.03 17:57:02.
