data_PCOD9535920
_publ_section_title
;
Structure prediction by ZEFSAII (Michael W. Deem and Ramdas Pophale) SiO2 
 PCOD9535920
Probable space group: I M M A
;
_chemical_formula_sum "Si O2"
_cell_formula_units_Z 80
_cell_length_a 26.935537
_cell_length_b 8.333113
_cell_length_c 20.051606
_cell_angle_alpha 90.000000
_cell_angle_beta 90.000000
_cell_angle_gamma 90.000000
_cell_volume 4500.720792
_symmetry_space_group_name_H-M "I M M A"
_symmetry_group_IT_number 74
_symmetry_cell_setting 'orthorhombic'
loop_
_space_group_symop_operation_xyz
x,y,z
-x,1/2-y,z
x,-y,-z
-x,1/2+y,-z
-x,-y,-z
x,1/2+y,-z
-x,y,z
x,1/2-y,z
1/2+x,1/2+y,1/2+z
1/2-x,-y,1/2+z
1/2+x,1/2-y,1/2-z
1/2-x,y,1/2-z
1/2-x,1/2-y,1/2-z
1/2+x,y,1/2-z
1/2-x,1/2+y,1/2+z
1/2+x,-y,1/2+z
loop_
_atom_site_type_symbol
_atom_site_label
_atom_site_fract_x
_atom_site_fract_y
_atom_site_fract_z
Si Si1 0.249145 0.056535 0.576633
Si Si2 0.556363 0.558117 0.824114
Si Si3 0.359312 0.057599 0.923611
Si Si4 0.943722 0.056263 0.825158
Si Si5 0.857652 0.444445 0.923544
O O1 0.249087 0.250000 0.578972
O O2 0.195302 0.002691 0.602947
O O3 0.303018 0.003264 0.603100
O O4 0.249274 0.000000 0.500000
O O5 0.500000 0.503180 0.840413
O O6 0.556196 0.750000 0.822109
O O7 0.596381 0.502315 0.877627
O O8 0.568265 0.494369 0.750239
O O9 0.359754 0.250000 0.923905
O O10 0.364635 0.000000 0.000000
O O11 0.943955 0.250000 0.827683
O O12 0.902543 0.997896 0.877247
O O13 0.000000 0.000304 0.840256
O O14 0.858292 0.250000 0.923577
O O15 0.863019 0.500000 0.000000
#
# Coordination Sequence:
#
# PCOD9535920 Si02
#       5
#    16  16  16  16  16
#     4   8  15  28  46  69  96 126 157 190 233 280
#     4  10  21  36  52  70  94 125 160 198 241 287
#     4  10  19  32  52  75  98 125 158 196 236 281
#     4   9  18  33  51  70  95 129 165 199 238 283
#     4   9  17  30  49  73 100 128 160 198 237 280
#
# _framework density 17.774930000000001
#
# number of rings (size 3 to 8) (size 9 to 14) (size 15 to 20)
#    0.000    2.800    0.000    1.200    0.000    3.600 
#    0.000    1.000    0.000    6.000    0.000    0.000 
#    0.000    0.000    0.000    0.000    0.000    0.000 
#
# Total GULP energy -222752.114549 kJ/mol
# GULP energy per Si atom -5568.802864 kJ/mol
# Density = 1.773447 g / cm^3
# Si number density = 17.774930 Si / 1000 Ang^3
#
#
#
# Elastic Constant Matrix: (Units=GPa)
#
#
# Indices 1 2 3 4 5 6 
#
# 1 186.9974 18.8542 103.6081 0.0000 0.0000 0.0000
# 2 18.8542 9.2476 9.5594 0.0000 0.0000 0.0000
# 3 103.6081 9.5594 81.5924 0.0000 0.0000 0.0000
# 4 0.0000 0.0000 0.0000 24.4085 0.0000 0.0000
# 5 0.0000 0.0000 0.0000 0.0000 -30.9821 0.0000
# 6 0.0000 0.0000 0.0000 0.0000 0.0000 15.2598
#
#
#
# Elastic Compliance Matrix: (Units=1/GPa)
#
#
# Indices 1 2 3 4 5 6 
#
# 1 0.020046 -0.016563 -0.023515 0.000000 0.000000 0.000000
# 2 -0.016563 0.136722 0.005014 0.000000 0.000000 0.000000
# 3 -0.023515 0.005014 0.041528 0.000000 0.000000 0.000000
# 4 0.000000 0.000000 0.000000 0.040969 0.000000 0.000000
# 5 0.000000 0.000000 0.000000 0.000000 -0.032277 0.000000
# 6 0.000000 0.000000 0.000000 0.000000 0.000000 0.065532
#
#
# Mechanical properties :
#
#
# Convention : Reuss Voigt Hill
#
# Bulk Modulus (GPa) = 7.80224 60.20898 34.00561
# Shear Modulus (GPa) = 12.97451 11.45829 12.21640
#
# Velocity S-wave (km/s) = 2.70466 2.54171 2.62445
# Velocity P-wave (km/s) = 3.76199 6.52382 5.32507
#
# Compressibility (1/GPa) = 0.12816839
#
# Stress axis : x y z
#
# Youngs Moduli (GPa) = 49.88459 7.31413 24.08003
#
# Poissons Ratio (x) = 0.12114 0.56624
# Poissons Ratio (y) = 0.82625 -0.12074
# Poissons Ratio (z) = 1.17302 -0.03667
#
# Static dielectric constant tensor:
#      x y z
#    x 1.670940 0.000000 0.000000 
#    y 0.000000 1.619390 0.000000 
#    z 0.000000 0.000000 1.548600 
# 
# From -- ./inp_files/39726.got.cif
#   From: 2010.05.17/outbox.cif.g08.bks.cpg/sg74_20_cif.got.tgz:39726.got - 2010.06.03 17:57:02.
