data_PCOD9535799
_publ_section_title
;
Structure prediction by ZEFSAII (Michael W. Deem and Ramdas Pophale) SiO2 
 PCOD9535799
Probable space group: I M M A
;
_chemical_formula_sum "Si O2"
_cell_formula_units_Z 112
_cell_length_a 36.191288
_cell_length_b 33.798850
_cell_length_c 5.063228
_cell_angle_alpha 90.000000
_cell_angle_beta 90.000000
_cell_angle_gamma 90.000000
_cell_volume 6193.461574
_symmetry_space_group_name_H-M "I M M A"
_symmetry_group_IT_number 74
_symmetry_cell_setting 'orthorhombic'
loop_
_space_group_symop_operation_xyz
x,y,z
-x,1/2-y,z
x,-y,-z
-x,1/2+y,-z
-x,-y,-z
x,1/2+y,-z
-x,y,z
x,1/2-y,z
1/2+x,1/2+y,1/2+z
1/2-x,-y,1/2+z
1/2+x,1/2-y,1/2-z
1/2-x,y,1/2-z
1/2-x,1/2-y,1/2-z
1/2+x,y,1/2-z
1/2-x,1/2+y,1/2+z
1/2+x,-y,1/2+z
loop_
_atom_site_type_symbol
_atom_site_label
_atom_site_fract_x
_atom_site_fract_y
_atom_site_fract_z
Si Si1 0.358242 0.585356 0.388994
Si Si2 0.541003 0.911924 0.875240
Si Si3 0.412230 0.704001 0.688354
Si Si4 0.459099 0.796738 0.206402
Si Si5 0.207459 0.971608 0.248608
Si Si6 0.618914 0.630078 0.901070
Si Si7 0.935866 0.957066 0.129663
O O1 0.321495 0.563214 0.297679
O O2 0.361307 0.601707 0.686356
O O3 0.392654 0.554941 0.356146
O O4 0.364997 0.621258 0.186920
O O5 0.500000 0.895549 0.916294
O O6 0.575596 0.882885 0.916187
O O7 0.545130 0.927477 0.577945
O O8 0.547479 0.947938 0.082780
O O9 0.400814 0.750000 0.662790
O O10 0.429188 0.687660 0.414888
O O11 0.381118 0.674742 0.797812
O O12 0.444613 0.702346 0.908431
O O13 0.500000 0.813751 0.238146
O O14 0.461363 0.750000 0.275829
O O15 0.250000 0.957414 0.250000
O O16 0.200521 0.000000 0.500000
O O17 0.203484 0.000000 0.000000
O O18 0.940107 0.000000 0.000000
#
# Coordination Sequence:
#
# PCOD9535799 Si02
#       7
#    16  16  16  16  16  16  16
#     4  10  20  35  52  72 104 134 161 195 239 299
#     4  10  21  33  44  62  88 119 158 207 254 287
#     4  10  19  32  49  68  92 122 165 217 258 303
#     4   9  17  28  43  65  90 117 154 205 266 320
#     4  10  20  34  56  86 114 138 164 195 232 280
#     4  10  21  35  49  69  96 132 169 204 254 305
#     4  10  20  32  48  66  85 119 162 199 239 283
#
# _framework density 18.083584999999999
#
# number of rings (size 3 to 8) (size 9 to 14) (size 15 to 20)
#    0.000    2.143    0.000    3.429    0.000    6.857 
#    0.000    0.000    0.000    0.000    0.000    0.000 
#    0.000    3.429    0.000    0.000    0.000    0.000 
#
# Total GULP energy -312508.997358 kJ/mol
# GULP energy per Si atom -5580.517810 kJ/mol
# Density = 1.804243 g / cm^3
# Si number density = 18.083585 Si / 1000 Ang^3
#
#
#
# Elastic Constant Matrix: (Units=GPa)
#
#
# Indices 1 2 3 4 5 6 
#
# 1 65.2965 33.1447 17.4680 0.0000 0.0000 0.0000
# 2 33.1447 61.9678 -0.4436 0.0000 0.0000 0.0000
# 3 17.4680 -0.4436 81.3173 0.0000 0.0000 0.0000
# 4 0.0000 0.0000 0.0000 10.4041 0.0000 0.0000
# 5 0.0000 0.0000 0.0000 0.0000 9.9546 0.0000
# 6 0.0000 0.0000 0.0000 0.0000 0.0000 8.8128
#
#
#
# Elastic Compliance Matrix: (Units=1/GPa)
#
#
# Indices 1 2 3 4 5 6 
#
# 1 0.022876 -0.012272 -0.004981 0.000000 0.000000 0.000000
# 2 -0.012272 0.022721 0.002760 0.000000 0.000000 0.000000
# 3 -0.004981 0.002760 0.013383 0.000000 0.000000 0.000000
# 4 0.000000 0.000000 0.000000 0.096116 0.000000 0.000000
# 5 0.000000 0.000000 0.000000 0.000000 0.100456 0.000000
# 6 0.000000 0.000000 0.000000 0.000000 0.000000 0.113471
#
#
# Mechanical properties :
#
#
# Convention : Reuss Voigt Hill
#
# Bulk Modulus (GPa) = 33.33931 34.32441 33.83186
# Shear Modulus (GPa) = 12.25472 16.39514 14.32493
#
# Velocity S-wave (km/s) = 2.60604 3.01430 2.81757
# Velocity P-wave (km/s) = 5.24705 5.58004 5.41610
#
# Compressibility (1/GPa) = 0.02999462
#
# Stress axis : x y z
#
# Youngs Moduli (GPa) = 43.71328 44.01248 74.72409
#
# Poissons Ratio (x) = 0.54010 0.37221
# Poissons Ratio (y) = 0.53643 -0.20624
# Poissons Ratio (z) = 0.21774 -0.12148
#
# Static dielectric constant tensor:
#      x y z
#    x 2.144430 0.000000 0.000000 
#    y 0.000000 1.658820 0.000000 
#    z 0.000000 0.000000 1.623330 
# 
# From -- ./inp_files/5350.got.cif
#   From: 2010.05.17/outbox.cif.g08.bks.cpg/sg74_3_cif.got.tgz:5350.got - 2010.06.03 17:57:02.
