data_PCOD9535551
_publ_section_title
;
Structure prediction by ZEFSAII (Michael W. Deem and Ramdas Pophale) SiO2 
 PCOD9535551
Probable space group: I M M A
;
_chemical_formula_sum "Si O2"
_cell_formula_units_Z 104
_cell_length_a 8.111607
_cell_length_b 27.991227
_cell_length_c 23.591039
_cell_angle_alpha 90.000000
_cell_angle_beta 90.000000
_cell_angle_gamma 90.000000
_cell_volume 5356.435826
_symmetry_space_group_name_H-M "I M M A"
_symmetry_group_IT_number 74
_symmetry_cell_setting 'orthorhombic'
loop_
_space_group_symop_operation_xyz
x,y,z
-x,1/2-y,z
x,-y,-z
-x,1/2+y,-z
-x,-y,-z
x,1/2+y,-z
-x,y,z
x,1/2-y,z
1/2+x,1/2+y,1/2+z
1/2-x,-y,1/2+z
1/2+x,1/2-y,1/2-z
1/2-x,y,1/2-z
1/2-x,1/2-y,1/2-z
1/2+x,y,1/2-z
1/2-x,1/2+y,1/2+z
1/2+x,-y,1/2+z
loop_
_atom_site_type_symbol
_atom_site_label
_atom_site_fract_x
_atom_site_fract_y
_atom_site_fract_z
Si Si1 0.814700 0.015675 0.861193
Si Si2 0.300252 0.424000 0.311364
Si Si3 0.695661 0.661464 0.608748
Si Si4 0.801241 0.897720 0.436151
Si Si5 0.813804 0.044698 0.458892
Si Si6 0.197145 0.250000 0.315147
Si Si7 0.697525 0.696392 0.015001
O O1 0.744342 0.065042 0.886498
O O2 0.000000 0.026395 0.843449
O O3 0.733619 0.978877 0.816501
O O4 0.807125 0.977647 0.913039
O O5 0.500000 0.425908 0.313575
O O6 0.250000 0.404475 0.250000
O O7 0.244773 0.387736 0.361368
O O8 0.500000 0.657286 0.600928
O O9 0.734158 0.703631 0.652770
O O10 0.770336 0.676891 0.548505
O O11 0.741719 0.917129 0.497526
O O12 0.745731 0.842668 0.438310
O O13 0.000000 0.899221 0.439081
O O14 0.000000 0.057136 0.438158
O O15 0.839352 0.000000 0.500000
O O16 0.250000 0.250000 0.250000
O O17 0.000000 0.250000 0.319582
O O18 0.500000 0.699261 0.020937
O O19 0.766152 0.750000 0.020505
#
# Coordination Sequence:
#
# PCOD9535551 Si02
#       7
#    16  16  16  16  16   8  16
#     4  10  19  31  47  70  97 123 157 201 246 296
#     4  10  23  38  52  73  99 128 166 211 258 304
#     4  11  22  37  54  74  99 130 169 214 262 308
#     4   9  18  31  47  69  97 130 165 197 238 296
#     4   8  14  25  41  63  90 120 154 188 226 281
#     4  12  24  38  54  72  94 126 174 226 269 306
#     4  10  20  34  52  75 103 135 172 212 250 293
#
# _framework density 19.415896
#
# number of rings (size 3 to 8) (size 9 to 14) (size 15 to 20)
#    0.000    2.154    0.769    3.923    0.000    7.077 
#    0.000    0.000    0.000    0.000    0.000    0.000 
#    0.000    0.615    0.000    1.385    0.000    2.154 
#
# Total GULP energy -289475.406969 kJ/mol
# GULP energy per Si atom -5566.834749 kJ/mol
# Density = 1.937170 g / cm^3
# Si number density = 19.415896 Si / 1000 Ang^3
#
#
#
# Elastic Constant Matrix: (Units=GPa)
#
#
# Indices 1 2 3 4 5 6 
#
# 1 22.1213 5.8076 -2.7316 0.0000 0.0000 0.0000
# 2 5.8076 170.4491 33.2652 0.0000 0.0000 0.0000
# 3 -2.7316 33.2652 20.4748 0.0002 0.0000 0.0000
# 4 0.0000 0.0000 0.0002 224.3800 0.0000 0.0000
# 5 0.0000 0.0000 0.0000 0.0000 18.3285 0.0000
# 6 0.0000 0.0000 0.0000 0.0000 0.0000 17.5806
#
#
#
# Elastic Compliance Matrix: (Units=1/GPa)
#
#
# Indices 1 2 3 4 5 6 
#
# 1 0.047950 -0.004220 0.013254 0.000000 0.000000 0.000000
# 2 -0.004220 0.008962 -0.015124 0.000000 0.000000 0.000000
# 3 0.013254 -0.015124 0.075181 0.000000 0.000000 0.000000
# 4 0.000000 0.000000 0.000000 0.004457 0.000000 0.000000
# 5 0.000000 0.000000 0.000000 0.000000 0.054560 0.000000
# 6 0.000000 0.000000 0.000000 0.000000 0.000000 0.056881
#
#
# Mechanical properties :
#
#
# Convention : Reuss Voigt Hill
#
# Bulk Modulus (GPa) = 8.33941 31.74750 20.04345
# Shear Modulus (GPa) = 16.65878 63.83810 40.24844
#
# Velocity S-wave (km/s) = 2.93234 5.74027 4.55792
# Velocity P-wave (km/s) = 3.97105 7.76666 6.16807
#
# Compressibility (1/GPa) = 0.11991255
#
# Stress axis : x y z
#
# Youngs Moduli (GPa) = 20.85506 111.57850 13.30127
#
# Poissons Ratio (x) = 0.47092 -0.17630
# Poissons Ratio (y) = 0.08802 0.20117
# Poissons Ratio (z) = -0.27642 1.68752
#
# Static dielectric constant tensor:
#      x y z
#    x 1.700200 0.000000 0.000000 
#    y 0.000000 1.761410 0.000000 
#    z 0.000000 0.000000 1.707590 
# 
# From -- ./inp_files/64976.got.cif
#   From: 2010.05.17/outbox.cif.g08.bks.cpg/sg74_33_cif.got.tgz:64976.got - 2010.06.03 17:57:02.
