data_PCOD9535865
_publ_section_title
;
Structure prediction by ZEFSAII (Michael W. Deem and Ramdas Pophale) SiO2 
 PCOD9535865
Probable space group: I M M A
;
_chemical_formula_sum "Si O2"
_cell_formula_units_Z 96
_cell_length_a 18.448561
_cell_length_b 16.746052
_cell_length_c 18.681998
_cell_angle_alpha 90.000000
_cell_angle_beta 90.000000
_cell_angle_gamma 90.000000
_cell_volume 5771.626958
_symmetry_space_group_name_H-M "I M M A"
_symmetry_group_IT_number 74
_symmetry_cell_setting 'orthorhombic'
loop_
_space_group_symop_operation_xyz
x,y,z
-x,1/2-y,z
x,-y,-z
-x,1/2+y,-z
-x,-y,-z
x,1/2+y,-z
-x,y,z
x,1/2-y,z
1/2+x,1/2+y,1/2+z
1/2-x,-y,1/2+z
1/2+x,1/2-y,1/2-z
1/2-x,y,1/2-z
1/2-x,1/2-y,1/2-z
1/2+x,y,1/2-z
1/2-x,1/2+y,1/2+z
1/2+x,-y,1/2+z
loop_
_atom_site_type_symbol
_atom_site_label
_atom_site_fract_x
_atom_site_fract_y
_atom_site_fract_z
Si Si1 0.680655 0.579510 0.543955
Si Si2 0.913950 0.502861 0.164970
Si Si3 0.582802 0.916890 0.044992
Si Si4 0.587550 0.024615 0.169994
Si Si5 0.831830 0.657418 0.578535
Si Si6 0.085548 0.341351 0.921465
O O1 0.704585 0.500000 0.500000
O O2 0.631116 0.550079 0.609427
O O3 0.749870 0.626860 0.571781
O O4 0.633133 0.631300 0.488889
O O5 0.894510 0.486393 0.247046
O O6 0.901476 0.594680 0.141443
O O7 0.000000 0.487159 0.156460
O O8 0.500000 0.887586 0.048724
O O9 0.607985 0.946556 0.122845
O O10 0.631818 0.857937 0.999316
O O11 0.582143 0.000000 0.000000
O O12 0.500000 0.032833 0.162628
O O13 0.625759 0.100901 0.134437
O O14 0.836132 0.750000 0.597726
O O15 0.101045 0.250000 0.901738
O O16 0.000000 0.347290 0.940024
#
# Coordination Sequence:
#
# PCOD9535865 Si02
#       6
#    16  16  16  16  16  16
#     4  10  19  32  51  72  97 130 166 198 233 286
#     4   9  18  33  53  74  97 130 165 194 234 292
#     4   8  15  30  51  70  89 119 158 196 237 287
#     4   9  18  34  53  72  97 128 162 198 239 292
#     4  11  21  32  48  71  99 128 163 206 247 283
#     4   9  17  31  52  77 102 125 155 200 246 283
#
# _framework density 16.633092000000001
#
# number of rings (size 3 to 8) (size 9 to 14) (size 15 to 20)
#    0.000    2.667    0.000    4.000    0.000    4.000 
#    0.000    3.333    0.000    5.000    0.000    5.833 
#    0.000    0.000    0.000    0.000    0.000    0.000 
#
# Total GULP energy -267534.359458 kJ/mol
# GULP energy per Si atom -5573.632489 kJ/mol
# Density = 1.659523 g / cm^3
# Si number density = 16.633092 Si / 1000 Ang^3
#
#
#
# Elastic Constant Matrix: (Units=GPa)
#
#
# Indices 1 2 3 4 5 6 
#
# 1 52.5750 52.8527 48.2795 0.0000 0.0000 0.0000
# 2 52.8527 103.4939 56.2587 0.0000 0.0000 0.0000
# 3 48.2795 56.2587 127.4351 0.0000 0.0000 0.0000
# 4 0.0000 0.0000 0.0000 13.1045 0.0000 0.0000
# 5 0.0000 0.0000 0.0000 0.0000 7.1277 0.0000
# 6 0.0000 0.0000 0.0000 0.0000 0.0000 16.0822
#
#
#
# Elastic Compliance Matrix: (Units=1/GPa)
#
#
# Indices 1 2 3 4 5 6 
#
# 1 0.046215 -0.018530 -0.009328 0.000000 0.000000 0.000000
# 2 -0.018530 0.020143 -0.001872 0.000000 0.000000 0.000000
# 3 -0.009328 -0.001872 0.012208 0.000000 0.000000 0.000000
# 4 0.000000 0.000000 0.000000 0.076310 0.000000 0.000000
# 5 0.000000 0.000000 0.000000 0.000000 0.140298 0.000000
# 6 0.000000 0.000000 0.000000 0.000000 0.000000 0.062181
#
#
# Mechanical properties :
#
#
# Convention : Reuss Voigt Hill
#
# Bulk Modulus (GPa) = 52.34476 66.47621 59.41049
# Shear Modulus (GPa) = 11.81520 15.67042 13.74281
#
# Velocity S-wave (km/s) = 2.66812 3.07273 2.87755
# Velocity P-wave (km/s) = 6.40550 7.25547 6.84369
#
# Compressibility (1/GPa) = 0.01910411
#
# Stress axis : x y z
#
# Youngs Moduli (GPa) = 21.63814 49.64410 81.91549
#
# Poissons Ratio (x) = 0.91993 0.76411
# Poissons Ratio (y) = 0.40096 0.15337
# Poissons Ratio (z) = 0.20184 0.09295
#
# Static dielectric constant tensor:
#      x y z
#    x 1.562310 0.000000 0.000000 
#    y 0.000000 1.548650 0.000000 
#    z 0.000000 0.000000 1.555900 
# 
# From -- ./inp_files/44130.got.cif
#   From: 2010.05.17/outbox.cif.g08.bks.cpg/sg74_23_cif.got.tgz:44130.got - 2010.06.03 17:57:02.
