data_PCOD9535156
_publ_section_title
;
Structure prediction by ZEFSAII (Michael W. Deem and Ramdas Pophale) SiO2 
 PCOD9535156
Probable space group: I M M A
;
_chemical_formula_sum "Si O2"
_cell_formula_units_Z 64
_cell_length_a 8.362373
_cell_length_b 14.399159
_cell_length_c 27.860214
_cell_angle_alpha 90.000000
_cell_angle_beta 90.000000
_cell_angle_gamma 90.000000
_cell_volume 3354.680085
_symmetry_space_group_name_H-M "I M M A"
_symmetry_group_IT_number 74
_symmetry_cell_setting 'orthorhombic'
loop_
_space_group_symop_operation_xyz
x,y,z
-x,1/2-y,z
x,-y,-z
-x,1/2+y,-z
-x,-y,-z
x,1/2+y,-z
-x,y,z
x,1/2-y,z
1/2+x,1/2+y,1/2+z
1/2-x,-y,1/2+z
1/2+x,1/2-y,1/2-z
1/2-x,y,1/2-z
1/2-x,1/2-y,1/2-z
1/2+x,y,1/2-z
1/2-x,1/2+y,1/2+z
1/2+x,-y,1/2+z
loop_
_atom_site_type_symbol
_atom_site_label
_atom_site_fract_x
_atom_site_fract_y
_atom_site_fract_z
Si Si1 0.000000 0.099266 0.027977
Si Si2 0.692951 0.358340 0.620662
Si Si3 0.679633 0.002641 0.302061
Si Si4 0.500000 0.860530 0.638009
Si Si5 0.322961 0.107979 0.984857
O O1 0.000000 0.094248 0.085295
O O2 0.833687 0.145798 0.012077
O O3 0.000000 0.000000 0.000000
O O4 0.500000 0.372906 0.613607
O O5 0.715919 0.250000 0.632110
O O6 0.753789 0.426052 0.662731
O O7 0.781369 0.381542 0.571135
O O8 0.500000 0.966112 0.293050
O O9 0.750000 0.018576 0.250000
O O10 0.650015 0.096781 0.332514
O O11 0.500000 0.750000 0.635013
O O12 0.500000 0.146332 0.994902
O O13 0.330307 0.000000 0.000000
#
# Coordination Sequence:
#
# PCOD9535156 Si02
#       5
#     8  16  16   8  16
#     4  10  18  36  60  82 127 168 197 243 304 360
#     4  10  20  36  58  84 119 164 206 246 304 371
#     4   9  20  38  59  85 112 150 198 253 310 367
#     4  10  22  38  61  88 115 160 205 249 314 372
#     4  10  20  33  56  88 121 165 206 245 293 357
#
# _framework density 19.077824
#
# number of rings (size 3 to 8) (size 9 to 14) (size 15 to 20)
#    0.750    1.500    1.250    3.000    0.000    3.500 
#    0.000    1.250    0.000    1.500    0.000    0.000 
#    0.000    0.000    0.000    0.000    0.000    0.000 
#
# Total GULP energy -178151.889250 kJ/mol
# GULP energy per Si atom -5567.246539 kJ/mol
# Density = 1.903440 g / cm^3
# Si number density = 19.077824 Si / 1000 Ang^3
#
#
#
# Elastic Constant Matrix: (Units=GPa)
#
#
# Indices 1 2 3 4 5 6 
#
# 1 109.3550 9.1382 36.7669 0.0000 0.0000 0.0000
# 2 9.1382 145.2818 50.3635 0.0000 0.0000 0.0000
# 3 36.7669 50.3635 144.9568 0.0000 0.0000 0.0000
# 4 0.0000 0.0000 0.0000 -15.7353 0.0000 0.0000
# 5 0.0000 0.0000 0.0000 0.0000 41.9891 0.0000
# 6 0.0000 0.0000 0.0000 0.0000 0.0000 -23.2422
#
#
#
# Elastic Compliance Matrix: (Units=1/GPa)
#
#
# Indices 1 2 3 4 5 6 
#
# 1 0.010007 0.000285 -0.002637 0.000000 0.000000 0.000000
# 2 0.000285 0.007834 -0.002794 0.000000 0.000000 0.000000
# 3 -0.002637 -0.002794 0.008538 0.000000 0.000000 0.000000
# 4 0.000000 0.000000 0.000000 -0.063551 0.000000 0.000000
# 5 0.000000 0.000000 0.000000 0.000000 0.023816 0.000000
# 6 0.000000 0.000000 0.000000 0.000000 0.000000 -0.043025
#
#
# Mechanical properties :
#
#
# Convention : Reuss Voigt Hill
#
# Bulk Modulus (GPa) = 62.16364 65.79231 63.97798
# Shear Modulus (GPa) = -122.77129 20.82397 -50.97366
#
# Velocity S-wave (km/s) = -8.03073 3.30741 -5.17463
# Velocity P-wave (km/s) = 7.30309 7.01045 1.44719
#
# Compressibility (1/GPa) = 0.01608657
#
# Stress axis : x y z
#
# Youngs Moduli (GPa) = 99.92597 127.65137 117.11995
#
# Poissons Ratio (x) = -0.03635 0.30887
# Poissons Ratio (y) = -0.02845 0.32723
# Poissons Ratio (z) = 0.26353 0.35666
#
# Static dielectric constant tensor:
#      x y z
#    x 1.735180 0.000000 0.000000 
#    y 0.000000 1.659180 0.000000 
#    z 0.000000 0.000000 1.653300 
# 
# From -- ./inp_files/63513.got.cif
#   From: 2010.05.17/outbox.cif.g08.bks.cpg/sg74_32_cif.got.tgz:63513.got - 2010.06.03 17:57:02.
