data_PCOD9535613
_publ_section_title
;
Structure prediction by ZEFSAII (Michael W. Deem and Ramdas Pophale) SiO2 
 PCOD9535613
Probable space group: I M M A
;
_chemical_formula_sum "Si O2"
_cell_formula_units_Z 80
_cell_length_a 31.714325
_cell_length_b 7.983338
_cell_length_c 18.694371
_cell_angle_alpha 90.000000
_cell_angle_beta 90.000000
_cell_angle_gamma 90.000000
_cell_volume 4733.156305
_symmetry_space_group_name_H-M "I M M A"
_symmetry_group_IT_number 74
_symmetry_cell_setting 'orthorhombic'
loop_
_space_group_symop_operation_xyz
x,y,z
-x,1/2-y,z
x,-y,-z
-x,1/2+y,-z
-x,-y,-z
x,1/2+y,-z
-x,y,z
x,1/2-y,z
1/2+x,1/2+y,1/2+z
1/2-x,-y,1/2+z
1/2+x,1/2-y,1/2-z
1/2-x,y,1/2-z
1/2-x,1/2-y,1/2-z
1/2+x,y,1/2-z
1/2-x,1/2+y,1/2+z
1/2+x,-y,1/2+z
loop_
_atom_site_type_symbol
_atom_site_label
_atom_site_fract_x
_atom_site_fract_y
_atom_site_fract_z
Si Si1 0.048253 0.555918 0.732542
Si Si2 0.261692 0.750000 0.633312
Si Si3 0.181713 0.250000 0.277700
Si Si4 0.313386 0.554147 0.422952
Si Si5 0.866060 0.937972 0.220729
Si Si6 0.051048 0.439509 0.577154
O O1 0.049101 0.750000 0.753712
O O2 0.083720 0.458355 0.775806
O O3 0.060166 0.543253 0.648314
O O4 0.000000 0.493543 0.739633
O O5 0.212884 0.750000 0.655046
O O6 0.288407 0.750000 0.707266
O O7 0.276529 0.580700 0.593504
O O8 0.153736 0.416586 0.269873
O O9 0.331067 0.500000 0.500000
O O10 0.300198 0.750000 0.424437
O O11 0.347039 0.537477 0.358658
O O12 0.854220 0.750000 0.243869
O O13 0.066936 0.500000 0.500000
O O14 0.065140 0.250000 0.590065
O O15 0.000000 0.439383 0.571828
#
# Coordination Sequence:
#
# PCOD9535613 Si02
#       6
#    16   8   8  16  16  16
#     4  10  19  31  49  73 101 137 180 224 267 313
#     4   9  18  32  54  78 106 133 164 211 260 307
#     4   9  18  34  51  76 106 134 165 209 260 315
#     4  10  19  32  54  83 108 136 176 218 261 310
#     4  10  20  33  52  78 107 140 177 217 265 313
#     4   9  16  26  41  63  88 116 157 207 253 296
#
# _framework density 16.902041000000001
#
# number of rings (size 3 to 8) (size 9 to 14) (size 15 to 20)
#    0.000    2.400    2.000    1.200    0.000    4.400 
#    0.000    4.000    0.000    1.800    0.000    0.000 
#    0.000    0.000    0.000    0.000    0.000    0.000 
#
# Total GULP energy -222705.208927 kJ/mol
# GULP energy per Si atom -5567.630223 kJ/mol
# Density = 1.686357 g / cm^3
# Si number density = 16.902041 Si / 1000 Ang^3
#
#
#
# Elastic Constant Matrix: (Units=GPa)
#
#
# Indices 1 2 3 4 5 6 
#
# 1 79.4407 46.6917 35.4583 0.0000 0.0000 0.0000
# 2 46.6917 123.8673 38.7728 0.0000 0.0000 0.0000
# 3 35.4583 38.7728 57.3293 0.0000 0.0000 0.0000
# 4 0.0000 0.0000 0.0000 23.0452 0.0000 0.0000
# 5 0.0000 0.0000 0.0000 0.0000 13.9486 0.0000
# 6 0.0000 0.0000 0.0000 0.0000 0.0000 9.9945
#
#
#
# Elastic Compliance Matrix: (Units=1/GPa)
#
#
# Indices 1 2 3 4 5 6 
#
# 1 0.019147 -0.004453 -0.008831 0.000000 0.000000 0.000000
# 2 -0.004453 0.011277 -0.004872 0.000000 0.000000 0.000000
# 3 -0.008831 -0.004872 0.026200 0.000000 0.000000 0.000000
# 4 0.000000 0.000000 0.000000 0.043393 0.000000 0.000000
# 5 0.000000 0.000000 0.000000 0.000000 0.071692 0.000000
# 6 0.000000 0.000000 0.000000 0.000000 0.000000 0.100055
#
#
# Mechanical properties :
#
#
# Convention : Reuss Voigt Hill
#
# Bulk Modulus (GPa) = 49.23337 55.83143 52.53240
# Shear Modulus (GPa) = 15.88071 18.71196 17.29634
#
# Velocity S-wave (km/s) = 3.06857 3.33089 3.20242
# Velocity P-wave (km/s) = 6.46117 6.92078 6.69492
#
# Compressibility (1/GPa) = 0.02031143
#
# Stress axis : x y z
#
# Youngs Moduli (GPa) = 52.22752 88.67608 38.16767
#
# Poissons Ratio (x) = 0.39490 0.33704
# Poissons Ratio (y) = 0.23258 0.18597
# Poissons Ratio (z) = 0.46120 0.43207
#
# Static dielectric constant tensor:
#      x y z
#    x 1.571160 0.000000 0.000000 
#    y 0.000000 1.608420 0.000000 
#    z 0.000000 0.000000 1.572660 
# 
# From -- ./inp_files/46976.got.cif
#   From: 2010.05.17/outbox.cif.g08.bks.cpg/sg74_24_cif.got.tgz:46976.got - 2010.06.03 17:57:02.
