data_PCOD9535039
_publ_section_title
;
Structure prediction by ZEFSAII (Michael W. Deem and Ramdas Pophale) SiO2 
 PCOD9535039
Probable space group: I M M A
;
_chemical_formula_sum "Si O2"
_cell_formula_units_Z 116
_cell_length_a 7.422847
_cell_length_b 27.373664
_cell_length_c 28.363310
_cell_angle_alpha 90.000000
_cell_angle_beta 90.000000
_cell_angle_gamma 90.000000
_cell_volume 5763.155699
_symmetry_space_group_name_H-M "I M M A"
_symmetry_group_IT_number 74
_symmetry_cell_setting 'orthorhombic'
loop_
_space_group_symop_operation_xyz
x,y,z
-x,1/2-y,z
x,-y,-z
-x,1/2+y,-z
-x,-y,-z
x,1/2+y,-z
-x,y,z
x,1/2-y,z
1/2+x,1/2+y,1/2+z
1/2-x,-y,1/2+z
1/2+x,1/2-y,1/2-z
1/2-x,y,1/2-z
1/2-x,1/2-y,1/2-z
1/2+x,y,1/2-z
1/2-x,1/2+y,1/2+z
1/2+x,-y,1/2+z
loop_
_atom_site_type_symbol
_atom_site_label
_atom_site_fract_x
_atom_site_fract_y
_atom_site_fract_z
Si Si1 0.291285 0.803111 0.394266
Si Si2 0.709334 0.541414 0.153126
Si Si3 0.720002 0.564207 0.864276
Si Si4 0.290498 0.454898 0.030056
Si Si5 0.500000 0.250000 0.319095
Si Si6 0.783396 0.598141 0.060528
Si Si7 0.716280 0.160599 0.194745
Si Si8 0.786410 0.358465 0.695902
O O1 0.500000 0.800666 0.408753
O O2 0.209824 0.750000 0.402140
O O3 0.213572 0.849978 0.420773
O O4 0.287236 0.817972 0.339467
O O5 0.500000 0.538800 0.166497
O O6 0.782796 0.486936 0.159022
O O7 0.721069 0.557091 0.097990
O O8 0.787474 0.587953 0.180882
O O9 0.500000 0.563552 0.864294
O O10 0.781357 0.560205 0.918909
O O11 0.768174 0.613477 0.836925
O O12 0.500000 0.467516 0.038115
O O13 0.208360 0.500000 0.000000
O O14 0.277627 0.411817 0.992184
O O15 0.341072 0.293116 0.317317
O O16 0.000000 0.597505 0.062407
O O17 0.500000 0.170201 0.188795
O O18 0.750000 0.149462 0.250000
O O19 0.750000 0.348674 0.750000
O O20 0.000000 0.359331 0.687946
#
# Coordination Sequence:
#
# PCOD9535039 Si02
#       8
#    16  16  16  16   4  16  16  16
#     4   9  19  36  55  71  98 138 183 231 279 324
#     4   9  17  34  54  73 106 151 186 219 271 340
#     4   9  19  36  57  85 120 149 185 237 280 333
#     4  10  18  33  58  81 109 154 191 220 274 337
#     4  12  24  44  70  94 114 158 204 252 300 366
#     4  10  19  31  50  82 108 139 185 231 278 333
#     4  11  23  40  65  95 122 154 201 248 301 359
#     4  10  20  32  51  76 104 139 181 223 277 335
#
# _framework density 20.127860999999999
#
# number of rings (size 3 to 8) (size 9 to 14) (size 15 to 20)
#    0.000    2.207    2.069    1.241    0.000    2.483 
#    2.483    0.000    1.517    0.000    0.000    0.000 
#    0.000    0.000    0.000    0.000    0.000    0.000 
#
# Total GULP energy -322930.124973 kJ/mol
# GULP energy per Si atom -5567.760775 kJ/mol
# Density = 2.008205 g / cm^3
# Si number density = 20.127861 Si / 1000 Ang^3
#
#
#
# Elastic Constant Matrix: (Units=GPa)
#
#
# Indices 1 2 3 4 5 6 
#
# 1 95.8813 26.0142 1.7698 0.0000 0.0000 0.0000
# 2 26.0142 173.2525 44.1985 0.0000 0.0000 0.0000
# 3 1.7698 44.1985 41.3365 0.0000 0.0000 0.0000
# 4 0.0000 0.0000 0.0000 4.7147 0.0000 0.0000
# 5 0.0000 0.0000 0.0000 0.0000 12.1134 0.0000
# 6 0.0000 0.0000 0.0000 0.0000 0.0000 8.2337
#
#
#
# Elastic Compliance Matrix: (Units=1/GPa)
#
#
# Indices 1 2 3 4 5 6 
#
# 1 0.010966 -0.002100 0.001775 0.000000 0.000000 0.000000
# 2 -0.002100 0.008339 -0.008826 0.000000 0.000000 0.000000
# 3 0.001775 -0.008826 0.033553 0.000000 0.000000 0.000000
# 4 0.000000 0.000000 0.000000 0.212101 0.000000 0.000000
# 5 0.000000 0.000000 0.000000 0.000000 0.082554 0.000000
# 6 0.000000 0.000000 0.000000 0.000000 0.000000 0.121452
#
#
# Mechanical properties :
#
#
# Convention : Reuss Voigt Hill
#
# Bulk Modulus (GPa) = 28.93730 50.49280 39.71505
# Shear Modulus (GPa) = 10.02436 20.91155 15.46795
#
# Velocity S-wave (km/s) = 2.23409 3.22675 2.77516
# Velocity P-wave (km/s) = 4.58942 6.24684 5.48114
#
# Compressibility (1/GPa) = 0.03455748
#
# Stress axis : x y z
#
# Youngs Moduli (GPa) = 91.18731 119.92040 29.80347
#
# Poissons Ratio (x) = 0.25178 -0.05291
# Poissons Ratio (y) = 0.19145 0.26306
# Poissons Ratio (z) = -0.16189 1.05846
#
# Static dielectric constant tensor:
#      x y z
#    x 1.757890 0.000000 0.000000 
#    y 0.000000 1.739280 0.000000 
#    z 0.000000 0.000000 1.701020 
# 
# From -- ./inp_files/70880.got.cif
#   From: 2010.05.17/outbox.cif.g08.bks.cpg/sg74_36_cif.got.tgz:70880.got - 2010.06.03 17:57:02.
