data_PCOD9535247
_publ_section_title
;
Structure prediction by ZEFSAII (Michael W. Deem and Ramdas Pophale) SiO2 
 PCOD9535247
Probable space group: I M M A
;
_chemical_formula_sum "Si O2"
_cell_formula_units_Z 120
_cell_length_a 27.077930
_cell_length_b 8.657080
_cell_length_c 29.627104
_cell_angle_alpha 90.000000
_cell_angle_beta 90.000000
_cell_angle_gamma 90.000000
_cell_volume 6945.061471
_symmetry_space_group_name_H-M "I M M A"
_symmetry_group_IT_number 74
_symmetry_cell_setting 'orthorhombic'
loop_
_space_group_symop_operation_xyz
x,y,z
-x,1/2-y,z
x,-y,-z
-x,1/2+y,-z
-x,-y,-z
x,1/2+y,-z
-x,y,z
x,1/2-y,z
1/2+x,1/2+y,1/2+z
1/2-x,-y,1/2+z
1/2+x,1/2-y,1/2-z
1/2-x,y,1/2-z
1/2-x,1/2-y,1/2-z
1/2+x,y,1/2-z
1/2-x,1/2+y,1/2+z
1/2+x,-y,1/2+z
loop_
_atom_site_type_symbol
_atom_site_label
_atom_site_fract_x
_atom_site_fract_y
_atom_site_fract_z
Si Si1 0.558047 0.933330 0.857866
Si Si2 0.060047 0.072301 0.547029
Si Si3 0.053119 0.564730 0.816733
Si Si4 0.000000 0.063682 0.949098
Si Si5 0.401187 0.566708 0.231578
Si Si6 0.889966 0.435871 0.949192
Si Si7 0.653975 0.564525 0.636314
Si Si8 0.702326 0.564094 0.278371
O O1 0.500000 0.977173 0.853151
O O2 0.561654 0.750000 0.852314
O O3 0.574326 0.980677 0.908093
O O4 0.588792 0.017247 0.819291
O O5 0.075157 0.250000 0.550667
O O6 0.000000 0.068438 0.545641
O O7 0.077563 0.000000 0.500000
O O8 0.052933 0.750000 0.820760
O O9 0.060760 0.518887 0.764723
O O10 0.102037 0.507357 0.841644
O O11 0.000000 0.504888 0.833149
O O12 0.054474 0.013896 0.932387
O O13 0.000000 0.250000 0.948627
O O14 0.000000 0.000000 0.000000
O O15 0.407429 0.750000 0.236652
O O16 0.346591 0.525004 0.249379
O O17 0.888674 0.250000 0.950243
O O18 0.849488 0.499229 0.914214
O O19 0.883786 0.500000 0.000000
O O20 0.654699 0.750000 0.635070
O O21 0.694983 0.506460 0.671718
O O22 0.704391 0.750000 0.283026
O O23 0.750000 0.513097 0.250000
#
# Coordination Sequence:
#
# PCOD9535247 Si02
#       8
#    16  16  16   8  16  16  16  16
#     4  10  19  29  42  62  92 129 161 189 225 271
#     4   9  16  26  40  59  85 118 157 196 228 260
#     4   9  18  31  44  61  91 130 163 192 230 277
#     4   8  16  28  42  62  90 130 174 212 246 282
#     4  10  19  30  46  69  92 116 152 194 235 282
#     4  10  19  32  48  69  99 135 174 214 252 291
#     4  10  20  32  49  74 100 128 165 205 246 294
#     4   9  19  37  57  74  95 123 155 198 251 302
#
# _framework density 17.278466000000002
#
# number of rings (size 3 to 8) (size 9 to 14) (size 15 to 20)
#    0.000    2.533    0.000    2.400    0.933    6.133 
#    0.000    0.000    0.000    0.000    0.000    0.933 
#    0.000    0.000    0.000    0.000    0.000    0.000 
#
# Total GULP energy -334368.370570 kJ/mol
# GULP energy per Si atom -5572.806176 kJ/mol
# Density = 1.723914 g / cm^3
# Si number density = 17.278466 Si / 1000 Ang^3
#
#
#
# Elastic Constant Matrix: (Units=GPa)
#
#
# Indices 1 2 3 4 5 6 
#
# 1 54.9413 17.1651 31.3823 0.0000 0.0000 0.0000
# 2 17.1651 22.0628 13.1920 0.0000 0.0000 0.0000
# 3 31.3823 13.1920 106.7489 0.0000 0.0000 0.0000
# 4 0.0000 0.0000 0.0000 28.3891 0.0000 0.0000
# 5 0.0000 0.0000 0.0000 0.0000 23.1028 0.0000
# 6 0.0000 0.0000 0.0000 0.0000 0.0000 14.7235
#
#
#
# Elastic Compliance Matrix: (Units=1/GPa)
#
#
# Indices 1 2 3 4 5 6 
#
# 1 0.026972 -0.017540 -0.005762 0.000000 0.000000 0.000000
# 2 -0.017540 0.060347 -0.002301 0.000000 0.000000 0.000000
# 3 -0.005762 -0.002301 0.011346 0.000000 0.000000 0.000000
# 4 0.000000 0.000000 0.000000 0.035225 0.000000 0.000000
# 5 0.000000 0.000000 0.000000 0.000000 0.043285 0.000000
# 6 0.000000 0.000000 0.000000 0.000000 0.000000 0.067919
#
#
# Mechanical properties :
#
#
# Convention : Reuss Voigt Hill
#
# Bulk Modulus (GPa) = 21.07038 34.13686 27.60362
# Shear Modulus (GPa) = 16.01953 21.37732 18.69842
#
# Velocity S-wave (km/s) = 3.04820 3.52123 3.29322
# Velocity P-wave (km/s) = 4.96082 6.02759 5.52004
#
# Compressibility (1/GPa) = 0.04745999
#
# Stress axis : x y z
#
# Youngs Moduli (GPa) = 37.07522 16.57078 88.13643
#
# Poissons Ratio (x) = 0.29064 0.50782
# Poissons Ratio (y) = 0.65028 0.20284
# Poissons Ratio (z) = 0.21362 0.03814
#
# Static dielectric constant tensor:
#      x y z
#    x 1.594940 0.000000 0.000000 
#    y 0.000000 1.579320 0.000000 
#    z 0.000000 0.000000 1.604360 
# 
# From -- ./inp_files/68977.got.cif
#   From: 2010.05.17/outbox.cif.g08.bks.cpg/sg74_35_cif.got.tgz:68977.got - 2010.06.03 17:57:02.
