data_PCOD9535396
_publ_section_title
;
Structure prediction by ZEFSAII (Michael W. Deem and Ramdas Pophale) SiO2 
 PCOD9535396
Probable space group: I M M A
;
_chemical_formula_sum "Si O2"
_cell_formula_units_Z 80
_cell_length_a 7.757175
_cell_length_b 19.399398
_cell_length_c 27.672007
_cell_angle_alpha 90.000000
_cell_angle_beta 90.000000
_cell_angle_gamma 90.000000
_cell_volume 4164.208834
_symmetry_space_group_name_H-M "I M M A"
_symmetry_group_IT_number 74
_symmetry_cell_setting 'orthorhombic'
loop_
_space_group_symop_operation_xyz
x,y,z
-x,1/2-y,z
x,-y,-z
-x,1/2+y,-z
-x,-y,-z
x,1/2+y,-z
-x,y,z
x,1/2-y,z
1/2+x,1/2+y,1/2+z
1/2-x,-y,1/2+z
1/2+x,1/2-y,1/2-z
1/2-x,y,1/2-z
1/2-x,1/2-y,1/2-z
1/2+x,y,1/2-z
1/2-x,1/2+y,1/2+z
1/2+x,-y,1/2+z
loop_
_atom_site_type_symbol
_atom_site_label
_atom_site_fract_x
_atom_site_fract_y
_atom_site_fract_z
Si Si1 0.201810 0.461208 0.140596
Si Si2 0.288863 0.827696 0.100003
Si Si3 0.794622 0.905861 0.304251
Si Si4 0.707727 0.827178 0.693986
Si Si5 0.700699 0.539789 0.045658
O O1 0.219221 0.519534 0.181878
O O2 0.272092 0.389004 0.160448
O O3 0.289808 0.491698 0.092986
O O4 0.000000 0.453276 0.129157
O O5 0.500000 0.828162 0.099046
O O6 0.231998 0.750000 0.090248
O O7 0.237789 0.853292 0.153675
O O8 0.226723 0.886353 0.062732
O O9 0.750000 0.885073 0.250000
O O10 0.000000 0.912115 0.308029
O O11 0.500000 0.826764 0.690054
O O12 0.771039 0.750000 0.682150
O O13 0.750000 0.840853 0.750000
O O14 0.500000 0.552805 0.033894
O O15 0.779095 0.500000 0.000000
#
# Coordination Sequence:
#
# PCOD9535396 Si02
#       5
#    16  16  16  16  16
#     4  10  19  31  49  70  93 123 158 196 235 278
#     4   8  15  29  48  68  92 124 158 191 229 273
#     4  10  19  30  46  69  97 127 159 194 230 273
#     4   9  18  31  46  66  93 125 158 191 229 273
#     4   9  18  33  52  72  94 120 153 195 239 281
#
# _framework density 19.211331999999999
#
# number of rings (size 3 to 8) (size 9 to 14) (size 15 to 20)
#    0.000    2.800    0.000    3.000    0.000    4.000 
#    0.000    1.000    0.000   15.600    0.000    0.000 
#    0.000    0.000    0.000    0.000    0.000    0.000 
#
# Total GULP energy -223011.410274 kJ/mol
# GULP energy per Si atom -5575.285257 kJ/mol
# Density = 1.916761 g / cm^3
# Si number density = 19.211332 Si / 1000 Ang^3
#
#
#
# Elastic Constant Matrix: (Units=GPa)
#
#
# Indices 1 2 3 4 5 6 
#
# 1 28.8346 -2.0114 -4.0352 0.0000 0.0000 0.0000
# 2 -2.0114 179.8382 81.2573 0.0000 0.0000 0.0000
# 3 -4.0352 81.2573 105.9107 0.0000 0.0000 0.0000
# 4 0.0000 0.0000 0.0000 13.2039 0.0000 0.0000
# 5 0.0000 0.0000 0.0000 0.0000 17.2160 0.0000
# 6 0.0000 0.0000 0.0000 0.0000 0.0000 8.1849
#
#
#
# Elastic Compliance Matrix: (Units=1/GPa)
#
#
# Indices 1 2 3 4 5 6 
#
# 1 0.034879 -0.000322 0.001576 0.000000 0.000000 0.000000
# 2 -0.000322 0.008514 -0.006544 0.000000 0.000000 0.000000
# 3 0.001576 -0.006544 0.014523 0.000000 0.000000 0.000000
# 4 0.000000 0.000000 0.000000 0.075735 0.000000 0.000000
# 5 0.000000 0.000000 0.000000 0.000000 0.058085 0.000000
# 6 0.000000 0.000000 0.000000 0.000000 0.000000 0.122176
#
#
# Mechanical properties :
#
#
# Convention : Reuss Voigt Hill
#
# Bulk Modulus (GPa) = 21.12617 51.66721 36.39669
# Shear Modulus (GPa) = 14.69418 23.67916 19.18667
#
# Velocity S-wave (km/s) = 2.76863 3.51460 3.16368
# Velocity P-wave (km/s) = 4.60880 6.58956 5.68610
#
# Compressibility (1/GPa) = 0.04733465
#
# Stress axis : x y z
#
# Youngs Moduli (GPa) = 28.67086 117.45466 68.85657
#
# Poissons Ratio (x) = 0.03781 -0.10851
# Poissons Ratio (y) = 0.00923 0.45062
# Poissons Ratio (z) = -0.04518 0.76866
#
# Static dielectric constant tensor:
#      x y z
#    x 1.710710 0.000000 0.000000 
#    y 0.000000 1.687590 0.000000 
#    z 0.000000 0.000000 1.652790 
# 
# From -- ./inp_files/63922.got.cif
#   From: 2010.05.17/outbox.cif.g08.bks.cpg/sg74_32_cif.got.tgz:63922.got - 2010.06.03 17:57:02.
