data_PCOD9535373
_publ_section_title
;
Structure prediction by ZEFSAII (Michael W. Deem and Ramdas Pophale) SiO2 
 PCOD9535373
Probable space group: I M M A
;
_chemical_formula_sum "Si O2"
_cell_formula_units_Z 104
_cell_length_a 26.156114
_cell_length_b 8.697002
_cell_length_c 21.078644
_cell_angle_alpha 90.000000
_cell_angle_beta 90.000000
_cell_angle_gamma 90.000000
_cell_volume 4794.965211
_symmetry_space_group_name_H-M "I M M A"
_symmetry_group_IT_number 74
_symmetry_cell_setting 'orthorhombic'
loop_
_space_group_symop_operation_xyz
x,y,z
-x,1/2-y,z
x,-y,-z
-x,1/2+y,-z
-x,-y,-z
x,1/2+y,-z
-x,y,z
x,1/2-y,z
1/2+x,1/2+y,1/2+z
1/2-x,-y,1/2+z
1/2+x,1/2-y,1/2-z
1/2-x,y,1/2-z
1/2-x,1/2-y,1/2-z
1/2+x,y,1/2-z
1/2-x,1/2+y,1/2+z
1/2+x,-y,1/2+z
loop_
_atom_site_type_symbol
_atom_site_label
_atom_site_fract_x
_atom_site_fract_y
_atom_site_fract_z
Si Si1 0.399796 0.573402 0.065318
Si Si2 0.407536 0.429258 0.790720
Si Si3 0.697349 0.077002 0.216820
Si Si4 0.781837 0.926301 0.405353
Si Si5 0.500000 0.930836 0.430596
Si Si6 0.825133 0.064883 0.063492
Si Si7 0.085810 0.431993 0.157586
O O1 0.416264 0.750000 0.066116
O O2 0.414598 0.511495 0.136296
O O3 0.337472 0.573373 0.061614
O O4 0.419193 0.500000 0.000000
O O5 0.421221 0.250000 0.789450
O O6 0.347188 0.454023 0.777128
O O7 0.428543 0.514345 0.728829
O O8 0.680548 0.250000 0.235099
O O9 0.750000 0.038930 0.250000
O O10 0.711462 0.065215 0.143690
O O11 0.777262 0.750000 0.380257
O O12 0.727837 0.969511 0.435651
O O13 0.500000 0.750000 0.435457
O O14 0.500000 0.000000 0.500000
O O15 0.548519 0.986535 0.391043
O O16 0.817733 0.250000 0.058548
O O17 0.857306 0.036531 0.128402
O O18 0.852796 0.000000 0.000000
O O19 0.079029 0.250000 0.154397
#
# Coordination Sequence:
#
# PCOD9535373 Si02
#       7
#    16  16  16  16   8  16  16
#     4   9  19  33  50  76 110 150 195 239 282 329
#     4  10  21  36  54  80 112 146 188 236 286 339
#     4  10  19  30  45  68 101 142 188 236 285 337
#     4  10  20  32  47  70 103 145 193 242 288 334
#     4  12  26  46  72  98 123 152 185 228 282 340
#     4  11  23  36  52  76 107 144 188 236 285 338
#     4  11  24  42  63  88 116 147 186 232 285 347
#
# _framework density 21.689416999999999
#
# number of rings (size 3 to 8) (size 9 to 14) (size 15 to 20)
#    0.000    1.692    0.000    5.769    0.000   13.538 
#    0.000    0.000    0.000    0.000    0.000    0.538 
#    0.000    0.000    0.000    0.000    0.000    0.000 
#
# Total GULP energy -289663.301246 kJ/mol
# GULP energy per Si atom -5570.448101 kJ/mol
# Density = 2.164005 g / cm^3
# Si number density = 21.689417 Si / 1000 Ang^3
#
#
#
# Elastic Constant Matrix: (Units=GPa)
#
#
# Indices 1 2 3 4 5 6 
#
# 1 15.9434 10.6695 13.4798 0.0000 0.0000 0.0000
# 2 10.6695 64.0475 55.6956 0.0000 0.0000 0.0000
# 3 13.4798 55.6956 158.6308 0.0000 0.0000 0.0000
# 4 0.0000 0.0000 0.0000 39.0081 0.0000 0.0000
# 5 0.0000 0.0000 0.0000 0.0000 59.4593 0.0000
# 6 0.0000 0.0000 0.0000 0.0000 0.0000 18.6083
#
#
#
# Elastic Compliance Matrix: (Units=1/GPa)
#
#
# Indices 1 2 3 4 5 6 
#
# 1 0.071399 -0.009527 -0.002722 0.000000 0.000000 0.000000
# 2 -0.009527 0.023747 -0.007528 0.000000 0.000000 0.000000
# 3 -0.002722 -0.007528 0.009178 0.000000 0.000000 0.000000
# 4 0.000000 0.000000 0.000000 0.025636 0.000000 0.000000
# 5 0.000000 0.000000 0.000000 0.000000 0.016818 0.000000
# 6 0.000000 0.000000 0.000000 0.000000 0.000000 0.053740
#
#
# Mechanical properties :
#
#
# Convention : Reuss Voigt Hill
#
# Bulk Modulus (GPa) = 15.43930 44.25684 29.84807
# Shear Modulus (GPa) = 19.10864 34.00025 26.55444
#
# Velocity S-wave (km/s) = 2.97140 3.96358 3.50280
# Velocity P-wave (km/s) = 4.34812 6.43395 5.49099
#
# Compressibility (1/GPa) = 0.06476979
#
# Stress axis : x y z
#
# Youngs Moduli (GPa) = 14.00582 42.11092 108.95171
#
# Poissons Ratio (x) = 0.40118 0.29660
# Poissons Ratio (y) = 0.13343 0.82019
# Poissons Ratio (z) = 0.03813 0.31701
#
# Static dielectric constant tensor:
#      x y z
#    x -0.901210 0.000000 0.000000 
#    y 0.000000 1.734900 0.000000 
#    z 0.000000 0.000000 1.842210 
# 
# From -- ./inp_files/55184.got.cif
#   From: 2010.05.17/outbox.cif.g08.bks.cpg/sg74_28_cif.got.tgz:55184.got - 2010.06.03 17:57:02.
