data_PCOD9535364
_publ_section_title
;
Structure prediction by ZEFSAII (Michael W. Deem and Ramdas Pophale) SiO2 
 PCOD9535364
Probable space group: I M M A
;
_chemical_formula_sum "Si O2"
_cell_formula_units_Z 100
_cell_length_a 20.840337
_cell_length_b 14.530391
_cell_length_c 14.983426
_cell_angle_alpha 90.000000
_cell_angle_beta 90.000000
_cell_angle_gamma 90.000000
_cell_volume 4537.254768
_symmetry_space_group_name_H-M "I M M A"
_symmetry_group_IT_number 74
_symmetry_cell_setting 'orthorhombic'
loop_
_space_group_symop_operation_xyz
x,y,z
-x,1/2-y,z
x,-y,-z
-x,1/2+y,-z
-x,-y,-z
x,1/2+y,-z
-x,y,z
x,1/2-y,z
1/2+x,1/2+y,1/2+z
1/2-x,-y,1/2+z
1/2+x,1/2-y,1/2-z
1/2-x,y,1/2-z
1/2-x,1/2-y,1/2-z
1/2+x,y,1/2-z
1/2-x,1/2+y,1/2+z
1/2+x,-y,1/2+z
loop_
_atom_site_type_symbol
_atom_site_label
_atom_site_fract_x
_atom_site_fract_y
_atom_site_fract_z
Si Si1 0.425426 0.892695 0.370554
Si Si2 0.927876 0.388389 0.664418
Si Si3 0.500000 0.750000 0.569144
Si Si4 0.572860 0.611748 0.847100
Si Si5 0.835393 0.887582 0.492983
Si Si6 0.099308 0.611512 0.855523
Si Si7 0.190320 0.110921 0.002507
O O1 0.500000 0.866777 0.395618
O O2 0.416368 0.862926 0.267532
O O3 0.365744 0.861363 0.432173
O O4 0.420124 0.004312 0.367646
O O5 0.927327 0.500072 0.657830
O O6 0.875234 0.358530 0.593858
O O7 0.000000 0.359096 0.639962
O O8 0.554254 0.829313 0.582447
O O9 0.500000 0.639805 0.869850
O O10 0.588945 0.640004 0.746242
O O11 0.624661 0.641552 0.919688
O O12 0.762072 0.856422 0.485705
O O13 0.834459 0.000000 0.500000
O O14 0.168975 0.629904 0.896050
O O15 0.191634 0.000000 0.000000
#
# Coordination Sequence:
#
# PCOD9535364 Si02
#       7
#    16  16   4  16  16  16  16
#     4   9  16  28  45  66  98 128 150 183 237 293
#     4   8  14  24  41  66  94 122 146 177 222 279
#     4  12  20  32  50  66  86 116 174 224 226 264
#     4   9  15  26  43  62  87 119 155 188 230 272
#     4   9  16  26  40  64  94 123 151 180 220 283
#     4  10  19  30  45  67  89 120 163 201 241 266
#     4   9  19  28  42  65  94 128 153 180 234 295
#
# _framework density 22.039760000000001
#
# number of rings (size 3 to 8) (size 9 to 14) (size 15 to 20)
#    0.000    2.880    1.600    1.440    1.120    4.160 
#    0.000    6.400    0.000    1.920    0.000    0.000 
#    0.000    5.120    0.000    0.640    0.000    0.000 
#
# Total GULP energy -278492.799819 kJ/mol
# GULP energy per Si atom -5569.855996 kJ/mol
# Density = 2.198960 g / cm^3
# Si number density = 22.039760 Si / 1000 Ang^3
#
#
#
# Elastic Constant Matrix: (Units=GPa)
#
#
# Indices 1 2 3 4 5 6 
#
# 1 228.8943 1.9313 122.6647 0.0000 0.0000 0.0000
# 2 1.9313 83.0328 -4.8676 0.0000 0.0000 0.0000
# 3 122.6647 -4.8676 127.8994 0.0000 0.0000 0.0000
# 4 0.0000 0.0000 0.0000 -32.3552 0.0000 0.0000
# 5 0.0000 0.0000 0.0000 0.0000 16.7616 0.0000
# 6 0.0000 0.0000 0.0000 0.0000 0.0000 -0.5204
#
#
#
# Elastic Compliance Matrix: (Units=1/GPa)
#
#
# Indices 1 2 3 4 5 6 
#
# 1 0.009031 -0.000719 -0.008689 0.000000 0.000000 0.000000
# 2 -0.000719 0.012128 0.001152 0.000000 0.000000 0.000000
# 3 -0.008689 0.001152 0.016196 0.000000 0.000000 0.000000
# 4 0.000000 0.000000 0.000000 -0.030907 0.000000 0.000000
# 5 0.000000 0.000000 0.000000 0.000000 0.059660 0.000000
# 6 0.000000 0.000000 0.000000 0.000000 0.000000 -1.921473
#
#
# Mechanical properties :
#
#
# Convention : Reuss Voigt Hill
#
# Bulk Modulus (GPa) = 47.98233 75.47591 61.72912
# Shear Modulus (GPa) = -2.72940 18.11706 7.69383
#
# Velocity S-wave (km/s) = -1.11404 2.87019 1.87042
# Velocity P-wave (km/s) = 4.49035 6.73080 5.72132
#
# Compressibility (1/GPa) = 0.02084101
#
# Stress axis : x y z
#
# Youngs Moduli (GPa) = 110.72439 82.45599 61.74362
#
# Poissons Ratio (x) = 0.05932 0.53650
# Poissons Ratio (y) = 0.07966 -0.07110
# Poissons Ratio (z) = 0.96210 -0.09495
#
# Static dielectric constant tensor:
#      x y z
#    x 1.787270 0.000000 0.000000 
#    y 0.000000 1.800970 0.000000 
#    z 0.000000 0.000000 1.801120 
# 
# From -- ./inp_files/35507.got.cif
#   From: 2010.05.17/outbox.cif.g08.bks.cpg/sg74_18_cif.got.tgz:35507.got - 2010.06.03 17:57:02.
