data_PCOD9535303
_publ_section_title
;
Structure prediction by ZEFSAII (Michael W. Deem and Ramdas Pophale) SiO2 
 PCOD9535303
Probable space group: I M M A
;
_chemical_formula_sum "Si O2"
_cell_formula_units_Z 96
_cell_length_a 24.638119
_cell_length_b 22.806830
_cell_length_c 9.196555
_cell_angle_alpha 90.000000
_cell_angle_beta 90.000000
_cell_angle_gamma 90.000000
_cell_volume 5167.704197
_symmetry_space_group_name_H-M "I M M A"
_symmetry_group_IT_number 74
_symmetry_cell_setting 'orthorhombic'
loop_
_space_group_symop_operation_xyz
x,y,z
-x,1/2-y,z
x,-y,-z
-x,1/2+y,-z
-x,-y,-z
x,1/2+y,-z
-x,y,z
x,1/2-y,z
1/2+x,1/2+y,1/2+z
1/2-x,-y,1/2+z
1/2+x,1/2-y,1/2-z
1/2-x,y,1/2-z
1/2-x,1/2-y,1/2-z
1/2+x,y,1/2-z
1/2-x,1/2+y,1/2+z
1/2+x,-y,1/2+z
loop_
_atom_site_type_symbol
_atom_site_label
_atom_site_fract_x
_atom_site_fract_y
_atom_site_fract_z
Si Si1 0.292815 0.930001 0.137500
Si Si2 0.674914 0.684522 0.320817
Si Si3 0.887111 0.555710 0.902872
Si Si4 0.086256 0.523101 0.348336
Si Si5 0.939733 0.368481 0.848534
Si Si6 0.778056 0.375342 0.102448
O O1 0.250000 0.958263 0.250000
O O2 0.306566 0.866674 0.211140
O O3 0.349270 0.963669 0.133866
O O4 0.263584 0.917871 0.984811
O O5 0.687949 0.750000 0.273214
O O6 0.609986 0.676088 0.331658
O O7 0.702316 0.670269 0.477391
O O8 0.918791 0.528417 0.768824
O O9 0.833236 0.590327 0.858856
O O10 0.869052 0.500000 0.000000
O O11 0.924436 0.595359 0.005842
O O12 0.064458 0.500000 0.500000
O O13 0.063022 0.582791 0.279990
O O14 0.000000 0.343529 0.855464
O O15 0.750000 0.353149 0.250000
#
# Coordination Sequence:
#
# PCOD9535303 Si02
#       6
#    16  16  16  16  16  16
#     4   9  18  30  45  68  97 129 160 186 219 269
#     4   9  19  35  51  68  90 117 155 198 237 279
#     4   9  18  30  45  68  97 129 160 186 219 269
#     4  10  19  29  45  71  99 126 155 187 225 271
#     4   9  19  35  51  68  90 117 155 198 237 279
#     4  10  19  29  45  71  99 126 155 187 225 271
#
# _framework density 18.576913999999999
#
# number of rings (size 3 to 8) (size 9 to 14) (size 15 to 20)
#    0.000    2.667    0.000    4.000    0.000   11.000 
#    0.000    0.000    0.000    0.000    0.000    0.000 
#    0.000   10.667    0.000    0.000    0.000    0.000 
#
# Total GULP energy -267750.447413 kJ/mol
# GULP energy per Si atom -5578.134321 kJ/mol
# Density = 1.853463 g / cm^3
# Si number density = 18.576914 Si / 1000 Ang^3
#
#
#
# Elastic Constant Matrix: (Units=GPa)
#
#
# Indices 1 2 3 4 5 6 
#
# 1 110.5002 -5.3799 9.0048 0.0000 0.0000 0.0000
# 2 -5.3799 34.9452 16.0696 0.0000 0.0000 0.0000
# 3 9.0048 16.0696 94.8938 0.0000 0.0000 0.0000
# 4 0.0000 0.0000 0.0000 10.7641 0.0000 0.0000
# 5 0.0000 0.0000 0.0000 0.0000 -3.8360 0.0000
# 6 0.0000 0.0000 0.0000 0.0000 0.0000 -2.1704
#
#
#
# Elastic Compliance Matrix: (Units=1/GPa)
#
#
# Indices 1 2 3 4 5 6 
#
# 1 0.009245 0.001981 -0.001213 0.000000 0.000000 0.000000
# 2 0.001981 0.031457 -0.005515 0.000000 0.000000 0.000000
# 3 -0.001213 -0.005515 0.011587 0.000000 0.000000 0.000000
# 4 0.000000 0.000000 0.000000 0.092902 0.000000 0.000000
# 5 0.000000 0.000000 0.000000 0.000000 -0.260691 0.000000
# 6 0.000000 0.000000 0.000000 0.000000 0.000000 -0.460754
#
#
# Mechanical properties :
#
#
# Convention : Reuss Voigt Hill
#
# Bulk Modulus (GPa) = 23.36674 31.08089 27.22382
# Shear Modulus (GPa) = -9.04985 15.66120 3.30568
#
# Velocity S-wave (km/s) = -2.20955 2.90668 1.33541
# Velocity P-wave (km/s) = 2.46904 5.29455 4.13089
#
# Compressibility (1/GPa) = 0.04279586
#
# Stress axis : x y z
#
# Youngs Moduli (GPa) = 108.16612 31.78907 86.30278
#
# Poissons Ratio (x) = -0.06297 0.10466
# Poissons Ratio (y) = -0.21428 0.47596
# Poissons Ratio (z) = 0.13118 0.17532
#
# Static dielectric constant tensor:
#      x y z
#    x 1.660420 0.000000 0.000000 
#    y 0.000000 1.622790 0.000000 
#    z 0.000000 0.000000 1.666190 
# 
# From -- ./inp_files/13878.got.cif
#   From: 2010.05.17/outbox.cif.g08.bks.cpg/sg74_7_cif.got.tgz:13878.got - 2010.06.03 17:57:02.
