data_PCOD9535680
_publ_section_title
;
Structure prediction by ZEFSAII (Michael W. Deem and Ramdas Pophale) SiO2 
 PCOD9535680
Probable space group: I M M A
;
_chemical_formula_sum "Si O2"
_cell_formula_units_Z 80
_cell_length_a 14.796197
_cell_length_b 18.930943
_cell_length_c 13.809053
_cell_angle_alpha 90.000000
_cell_angle_beta 90.000000
_cell_angle_gamma 90.000000
_cell_volume 3867.998075
_symmetry_space_group_name_H-M "I M M A"
_symmetry_group_IT_number 74
_symmetry_cell_setting 'orthorhombic'
loop_
_space_group_symop_operation_xyz
x,y,z
-x,1/2-y,z
x,-y,-z
-x,1/2+y,-z
-x,-y,-z
x,1/2+y,-z
-x,y,z
x,1/2-y,z
1/2+x,1/2+y,1/2+z
1/2-x,-y,1/2+z
1/2+x,1/2-y,1/2-z
1/2-x,y,1/2-z
1/2-x,1/2-y,1/2-z
1/2+x,y,1/2-z
1/2-x,1/2+y,1/2+z
1/2+x,-y,1/2+z
loop_
_atom_site_type_symbol
_atom_site_label
_atom_site_fract_x
_atom_site_fract_y
_atom_site_fract_z
Si Si1 0.201985 0.419755 0.928815
Si Si2 0.600444 0.167145 0.719508
Si Si3 0.351775 0.462168 0.288114
Si Si4 0.097770 0.935207 0.384720
Si Si5 0.104474 0.667637 0.903837
O O1 0.180861 0.369626 0.837416
O O2 0.152546 0.490909 0.887782
O O3 0.307773 0.436887 0.941034
O O4 0.163357 0.373476 0.016303
O O5 0.500000 0.146530 0.679486
O O6 0.608218 0.250000 0.712448
O O7 0.600623 0.139126 0.828219
O O8 0.250000 0.455393 0.250000
O O9 0.398690 0.507061 0.202758
O O10 0.388937 0.384751 0.311669
O O11 0.000000 0.940096 0.434420
O O12 0.131229 0.750000 0.889379
O O13 0.000000 0.668297 0.935581
#
# Coordination Sequence:
#
# PCOD9535680 Si02
#       5
#    16  16  16  16  16
#     4  10  19  31  50  77 107 138 173 218 271 321
#     4   9  16  26  42  67 101 139 176 215 262 317
#     4   9  19  36  58  80 104 138 181 227 272 316
#     4   9  18  32  51  75 102 138 182 221 260 311
#     4  11  23  36  54  83 115 146 178 216 269 326
#
# _framework density 20.682534
#
# number of rings (size 3 to 8) (size 9 to 14) (size 15 to 20)
#    0.000    2.400    0.000    4.200    0.000    7.600 
#    0.000    0.000    0.000   10.800    0.000    0.000 
#    0.000    0.000    0.000    0.000    0.000    0.000 
#
# Total GULP energy -222875.628475 kJ/mol
# GULP energy per Si atom -5571.890712 kJ/mol
# Density = 2.063546 g / cm^3
# Si number density = 20.682534 Si / 1000 Ang^3
#
#
#
# Elastic Constant Matrix: (Units=GPa)
#
#
# Indices 1 2 3 4 5 6 
#
# 1 126.2852 48.9604 11.3125 0.0000 0.0000 0.0000
# 2 48.9604 146.6167 22.2528 0.0000 0.0000 0.0000
# 3 11.3125 22.2528 15.6852 0.0000 0.0000 0.0000
# 4 0.0000 0.0000 0.0000 11.3960 0.0000 0.0000
# 5 0.0000 0.0000 0.0000 0.0000 -3.0273 0.0000
# 6 0.0000 0.0000 0.0000 0.0000 0.0000 36.5030
#
#
#
# Elastic Compliance Matrix: (Units=1/GPa)
#
#
# Indices 1 2 3 4 5 6 
#
# 1 0.009199 -0.002631 -0.002901 0.000000 0.000000 0.000000
# 2 -0.002631 0.009445 -0.011502 0.000000 0.000000 0.000000
# 3 -0.002901 -0.011502 0.082164 0.000000 0.000000 0.000000
# 4 0.000000 0.000000 0.000000 0.087750 0.000000 0.000000
# 5 0.000000 0.000000 0.000000 0.000000 -0.330329 0.000000
# 6 0.000000 0.000000 0.000000 0.000000 0.000000 0.027395
#
#
# Mechanical properties :
#
#
# Convention : Reuss Voigt Hill
#
# Bulk Modulus (GPa) = 14.98366 50.40428 32.69397
# Shear Modulus (GPa) = -86.11604 22.71177 -31.70214
#
# Velocity S-wave (km/s) = -6.45968 3.31737 -3.91934
# Velocity P-wave (km/s) = 6.95531 6.25273 2.15403
#
# Compressibility (1/GPa) = 0.06673936
#
# Stress axis : x y z
#
# Youngs Moduli (GPa) = 108.71150 105.87690 12.17075
#
# Poissons Ratio (x) = 0.27861 0.03531
# Poissons Ratio (y) = 0.28607 0.13999
# Poissons Ratio (z) = 0.31537 1.21777
#
# Static dielectric constant tensor:
#      x y z
#    x 1.790890 0.000000 0.000000 
#    y 0.000000 1.733700 0.000000 
#    z 0.000000 0.000000 1.805010 
# 
# From -- ./inp_files/32098.got.cif
#   From: 2010.05.17/outbox.cif.g08.bks.cpg/sg74_17_cif.got.tgz:32098.got - 2010.06.03 17:57:02.
