data_PCOD9535886
_publ_section_title
;
Structure prediction by ZEFSAII (Michael W. Deem and Ramdas Pophale) SiO2 
 PCOD9535886
Probable space group: I M M A
;
_chemical_formula_sum "Si O2"
_cell_formula_units_Z 72
_cell_length_a 16.602535
_cell_length_b 8.634672
_cell_length_c 28.092684
_cell_angle_alpha 90.000000
_cell_angle_beta 90.000000
_cell_angle_gamma 90.000000
_cell_volume 4027.295376
_symmetry_space_group_name_H-M "I M M A"
_symmetry_group_IT_number 74
_symmetry_cell_setting 'orthorhombic'
loop_
_space_group_symop_operation_xyz
x,y,z
-x,1/2-y,z
x,-y,-z
-x,1/2+y,-z
-x,-y,-z
x,1/2+y,-z
-x,y,z
x,1/2-y,z
1/2+x,1/2+y,1/2+z
1/2-x,-y,1/2+z
1/2+x,1/2-y,1/2-z
1/2-x,y,1/2-z
1/2-x,1/2-y,1/2-z
1/2+x,y,1/2-z
1/2-x,1/2+y,1/2+z
1/2+x,-y,1/2+z
loop_
_atom_site_type_symbol
_atom_site_label
_atom_site_fract_x
_atom_site_fract_y
_atom_site_fract_z
Si Si1 0.590326 0.564610 0.355368
Si Si2 0.254812 0.436142 0.303998
Si Si3 0.184357 0.565962 0.051141
Si Si4 0.340053 0.435955 0.103906
Si Si5 0.500000 0.065082 0.945846
O O1 0.500000 0.511643 0.345174
O O2 0.594535 0.750000 0.347713
O O3 0.658953 0.484255 0.324640
O O4 0.615067 0.536743 0.410091
O O5 0.249389 0.250000 0.302778
O O6 0.250000 0.495270 0.250000
O O7 0.187397 0.487597 0.342707
O O8 0.198387 0.750000 0.048726
O O9 0.265471 0.485731 0.070554
O O10 0.163483 0.500000 0.000000
O O11 0.347815 0.250000 0.103744
O O12 0.421100 0.508205 0.082759
O O13 0.500000 0.250000 0.948653
O O14 0.500000 0.000000 0.000000
#
# Coordination Sequence:
#
# PCOD9535886 Si02
#       5
#    16  16  16  16   8
#     4   9  19  35  53  76 107 139 173 214 259 309
#     4   9  19  37  59  81 105 137 177 221 268 317
#     4  10  19  32  51  75 105 141 178 216 259 309
#     4  10  20  36  56  78 107 141 180 222 268 321
#     4  12  24  38  56  80 112 146 184 226 275 328
#
# _framework density 17.878004000000001
#
# number of rings (size 3 to 8) (size 9 to 14) (size 15 to 20)
#    0.000    2.222    0.000    3.000    0.000    3.111 
#    2.000    0.000    0.000    0.000    0.000    0.000 
#    0.000    0.000    0.000    0.000    0.000    0.000 
#
# Total GULP energy -200837.653825 kJ/mol
# GULP energy per Si atom -5578.823717 kJ/mol
# Density = 1.783731 g / cm^3
# Si number density = 17.878004 Si / 1000 Ang^3
#
#
#
# Elastic Constant Matrix: (Units=GPa)
#
#
# Indices 1 2 3 4 5 6 
#
# 1 108.8298 26.2073 53.6489 0.0000 0.0000 0.0000
# 2 26.2073 47.4455 35.1583 0.0000 0.0000 0.0000
# 3 53.6489 35.1583 153.3582 0.0000 0.0000 0.0000
# 4 0.0000 0.0000 0.0000 20.5089 0.0000 0.0000
# 5 0.0000 0.0000 0.0000 0.0000 9.6063 0.0000
# 6 0.0000 0.0000 0.0000 0.0000 0.0000 26.5391
#
#
#
# Elastic Compliance Matrix: (Units=1/GPa)
#
#
# Indices 1 2 3 4 5 6 
#
# 1 0.011744 -0.004147 -0.003158 0.000000 0.000000 0.000000
# 2 -0.004147 0.026855 -0.004706 0.000000 0.000000 0.000000
# 3 -0.003158 -0.004706 0.008704 0.000000 0.000000 0.000000
# 4 0.000000 0.000000 0.000000 0.048759 0.000000 0.000000
# 5 0.000000 0.000000 0.000000 0.000000 0.104098 0.000000
# 6 0.000000 0.000000 0.000000 0.000000 0.000000 0.037680
#
#
# Mechanical properties :
#
#
# Convention : Reuss Voigt Hill
#
# Bulk Modulus (GPa) = 42.95221 59.96250 51.45736
# Shear Modulus (GPa) = 18.54450 24.30546 21.42498
#
# Velocity S-wave (km/s) = 3.22418 3.69116 3.46555
# Velocity P-wave (km/s) = 6.15936 7.19575 6.69764
#
# Compressibility (1/GPa) = 0.02328169
#
# Stress axis : x y z
#
# Youngs Moduli (GPa) = 85.15060 37.23745 114.88792
#
# Poissons Ratio (x) = 0.15443 0.36277
# Poissons Ratio (y) = 0.35313 0.54064
# Poissons Ratio (z) = 0.26887 0.17523
#
# Static dielectric constant tensor:
#      x y z
#    x 1.580680 0.000000 0.000000 
#    y 0.000000 1.607950 0.000000 
#    z 0.000000 0.000000 1.622170 
# 
# From -- ./inp_files/63605.got.cif
#   From: 2010.05.17/outbox.cif.g08.bks.cpg/sg74_32_cif.got.tgz:63605.got - 2010.06.03 17:57:02.
