data_PCOD9535236
_publ_section_title
;
Structure prediction by ZEFSAII (Michael W. Deem and Ramdas Pophale) SiO2 
 PCOD9535236
Probable space group: I M M A
;
_chemical_formula_sum "Si O2"
_cell_formula_units_Z 80
_cell_length_a 24.559655
_cell_length_b 7.643849
_cell_length_c 27.486132
_cell_angle_alpha 90.000000
_cell_angle_beta 90.000000
_cell_angle_gamma 90.000000
_cell_volume 5159.979650
_symmetry_space_group_name_H-M "I M M A"
_symmetry_group_IT_number 74
_symmetry_cell_setting 'orthorhombic'
loop_
_space_group_symop_operation_xyz
x,y,z
-x,1/2-y,z
x,-y,-z
-x,1/2+y,-z
-x,-y,-z
x,1/2+y,-z
-x,y,z
x,1/2-y,z
1/2+x,1/2+y,1/2+z
1/2-x,-y,1/2+z
1/2+x,1/2-y,1/2-z
1/2-x,y,1/2-z
1/2-x,1/2-y,1/2-z
1/2+x,y,1/2-z
1/2-x,1/2+y,1/2+z
1/2+x,-y,1/2+z
loop_
_atom_site_type_symbol
_atom_site_label
_atom_site_fract_x
_atom_site_fract_y
_atom_site_fract_z
Si Si1 0.617106 0.961224 0.263423
Si Si2 0.712484 0.955112 0.201254
Si Si3 0.000000 0.451552 0.906593
Si Si4 0.115519 0.039682 0.943830
Si Si5 0.500000 0.950481 0.703520
Si Si6 0.688470 0.464428 0.643273
O O1 0.619650 0.750000 0.262374
O O2 0.654498 0.028076 0.218873
O O3 0.646589 0.015448 0.313728
O O4 0.554531 0.012381 0.266425
O O5 0.703792 0.750000 0.189993
O O6 0.750000 0.961828 0.250000
O O7 0.751477 0.027657 0.159066
O O8 0.056383 0.529473 0.926487
O O9 0.000000 0.449914 0.847990
O O10 0.000000 0.250000 0.923488
O O11 0.114165 0.250000 0.937867
O O12 0.162731 0.976862 0.907401
O O13 0.124770 0.000000 0.000000
O O14 0.500000 0.750000 0.688731
O O15 0.690546 0.250000 0.643771
#
# Coordination Sequence:
#
# PCOD9535236 Si02
#       6
#    16  16   8  16   8  16
#     4   9  15  27  44  58  75  99 129 159 193 236
#     4   7  11  20  40  64  75  87 120 162 195 229
#     4  10  19  33  45  52  68 104 144 175 205 229
#     4  10  19  29  42  57  77 102 133 170 203 235
#     4  12  22  27  37  58  83 106 131 165 198 233
#     4   8  13  24  42  61  76  93 124 166 202 229
#
# _framework density 15.503937000000001
#
# number of rings (size 3 to 8) (size 9 to 14) (size 15 to 20)
#    0.000    3.000    2.000    3.600    0.000    0.800 
#    0.000    0.000    0.000    6.600    0.000    0.000 
#    0.000    0.000    0.000    0.900    0.000    8.400 
#
# Total GULP energy -222704.845368 kJ/mol
# GULP energy per Si atom -5567.621134 kJ/mol
# Density = 1.546865 g / cm^3
# Si number density = 15.503937 Si / 1000 Ang^3
#
#
#
# Elastic Constant Matrix: (Units=GPa)
#
#
# Indices 1 2 3 4 5 6 
#
# 1 131.1827 -0.3082 79.0160 0.0000 0.0000 0.0000
# 2 -0.3082 28.1467 2.3113 0.0000 0.0000 0.0000
# 3 79.0160 2.3113 89.1540 0.0000 0.0000 0.0000
# 4 0.0000 0.0000 0.0000 11.0381 0.0000 0.0000
# 5 0.0000 0.0000 0.0000 0.0000 16.6159 0.0000
# 6 0.0000 0.0000 0.0000 0.0000 0.0000 30.7392
#
#
#
# Elastic Compliance Matrix: (Units=1/GPa)
#
#
# Indices 1 2 3 4 5 6 
#
# 1 0.016406 0.001377 -0.014576 0.000000 0.000000 0.000000
# 2 0.001377 0.035719 -0.002146 0.000000 0.000000 0.000000
# 3 -0.014576 -0.002146 0.024191 0.000000 0.000000 0.000000
# 4 0.000000 0.000000 0.000000 0.090595 0.000000 0.000000
# 5 0.000000 0.000000 0.000000 0.000000 0.060183 0.000000
# 6 0.000000 0.000000 0.000000 0.000000 0.000000 0.032532
#
#
# Mechanical properties :
#
#
# Convention : Reuss Voigt Hill
#
# Bulk Modulus (GPa) = 21.91781 45.61352 33.76566
# Shear Modulus (GPa) = 16.36526 22.84293 19.60409
#
# Velocity S-wave (km/s) = 3.25246 3.84261 3.55978
# Velocity P-wave (km/s) = 5.31716 7.01227 6.22271
#
# Compressibility (1/GPa) = 0.04562501
#
# Stress axis : x y z
#
# Youngs Moduli (GPa) = 60.95401 27.99598 41.33828
#
# Poissons Ratio (x) = -0.03854 0.60254
# Poissons Ratio (y) = -0.08391 0.08872
# Poissons Ratio (z) = 0.88846 0.06008
#
# Static dielectric constant tensor:
#      x y z
#    x 1.552430 0.000000 0.000000 
#    y 0.000000 1.590190 0.000000 
#    z 0.000000 0.000000 1.502480 
# 
# From -- ./inp_files/57166.got.cif
#   From: 2010.05.17/outbox.cif.g08.bks.cpg/sg74_29_cif.got.tgz:57166.got - 2010.06.03 17:57:02.
