data_PCOD9535558
_publ_section_title
;
Structure prediction by ZEFSAII (Michael W. Deem and Ramdas Pophale) SiO2 
 PCOD9535558
Probable space group: I M M A
;
_chemical_formula_sum "Si O2"
_cell_formula_units_Z 112
_cell_length_a 26.318290
_cell_length_b 14.182340
_cell_length_c 17.005447
_cell_angle_alpha 90.000000
_cell_angle_beta 90.000000
_cell_angle_gamma 90.000000
_cell_volume 6347.367049
_symmetry_space_group_name_H-M "I M M A"
_symmetry_group_IT_number 74
_symmetry_cell_setting 'orthorhombic'
loop_
_space_group_symop_operation_xyz
x,y,z
-x,1/2-y,z
x,-y,-z
-x,1/2+y,-z
-x,-y,-z
x,1/2+y,-z
-x,y,z
x,1/2-y,z
1/2+x,1/2+y,1/2+z
1/2-x,-y,1/2+z
1/2+x,1/2-y,1/2-z
1/2-x,y,1/2-z
1/2-x,1/2-y,1/2-z
1/2+x,y,1/2-z
1/2-x,1/2+y,1/2+z
1/2+x,-y,1/2+z
loop_
_atom_site_type_symbol
_atom_site_label
_atom_site_fract_x
_atom_site_fract_y
_atom_site_fract_z
Si Si1 0.938924 0.360206 0.378410
Si Si2 0.849642 0.860850 0.067368
Si Si3 0.401312 0.534830 0.206053
Si Si4 0.641356 0.360616 0.383636
Si Si5 0.058282 0.019088 0.870541
Si Si6 0.198468 0.019427 0.799002
Si Si7 0.941710 0.636727 0.443648
O O1 0.928352 0.250000 0.367136
O O2 0.909814 0.426842 0.319189
O O3 0.925013 0.387950 0.467996
O O4 0.000000 0.372856 0.370489
O O5 0.851019 0.750000 0.086552
O O6 0.904516 0.909377 0.083567
O O7 0.809440 0.914668 0.123646
O O8 0.840598 0.870758 0.974290
O O9 0.438779 0.551688 0.279411
O O10 0.345963 0.551997 0.240225
O O11 0.411868 0.594891 0.128955
O O12 0.635563 0.250000 0.366213
O O13 0.588563 0.419411 0.375386
O O14 0.681506 0.415669 0.328942
O O15 0.000000 0.014806 0.896682
O O16 0.250000 0.022026 0.750000
O O17 0.941512 0.750000 0.440393
O O18 0.000000 0.604089 0.435463
#
# Coordination Sequence:
#
# PCOD9535558 Si02
#       7
#    16  16  16  16  16  16  16
#     4   9  17  29  46  69  99 134 165 192 230 288
#     4   9  19  37  58  77 102 138 174 208 251 306
#     4  10  19  31  48  68  95 130 164 204 251 296
#     4   9  19  37  58  77 102 138 174 208 251 306
#     4  10  20  31  48  80 113 138 169 209 252 302
#     4  10  22  38  55  76 100 128 167 219 273 313
#     4   9  17  29  46  69  99 134 165 192 230 288
#
# _framework density 17.645111
#
# number of rings (size 3 to 8) (size 9 to 14) (size 15 to 20)
#    0.000    2.857    0.000    4.286    0.000    8.000 
#    0.000    4.286    0.000    3.429    0.000    0.000 
#    0.000    0.000    0.000    0.000    0.000    0.000 
#
# Total GULP energy -312081.227741 kJ/mol
# GULP energy per Si atom -5572.879067 kJ/mol
# Density = 1.760495 g / cm^3
# Si number density = 17.645111 Si / 1000 Ang^3
#
#
#
# Elastic Constant Matrix: (Units=GPa)
#
#
# Indices 1 2 3 4 5 6 
#
# 1 84.3205 17.2663 23.8099 0.0000 0.0000 0.0000
# 2 17.2663 61.0759 1.4145 0.0000 0.0000 0.0000
# 3 23.8099 1.4145 58.3119 0.0000 0.0000 0.0000
# 4 0.0000 0.0000 0.0000 16.5868 0.0000 0.0000
# 5 0.0000 0.0000 0.0000 0.0000 4.0467 0.0000
# 6 0.0000 0.0000 0.0000 0.0000 0.0000 6.3671
#
#
#
# Elastic Compliance Matrix: (Units=1/GPa)
#
#
# Indices 1 2 3 4 5 6 
#
# 1 0.014278 -0.003904 -0.005735 0.000000 0.000000 0.000000
# 2 -0.003904 0.017450 0.001171 0.000000 0.000000 0.000000
# 3 -0.005735 0.001171 0.019463 0.000000 0.000000 0.000000
# 4 0.000000 0.000000 0.000000 0.060289 0.000000 0.000000
# 5 0.000000 0.000000 0.000000 0.000000 0.247116 0.000000
# 6 0.000000 0.000000 0.000000 0.000000 0.000000 0.157058
#
#
# Mechanical properties :
#
#
# Convention : Reuss Voigt Hill
#
# Bulk Modulus (GPa) = 29.19399 32.07664 30.63532
# Shear Modulus (GPa) = 9.19104 16.14796 12.66950
#
# Velocity S-wave (km/s) = 2.28476 3.02843 2.68249
# Velocity P-wave (km/s) = 4.85193 5.51786 5.19557
#
# Compressibility (1/GPa) = 0.03425362
#
# Stress axis : x y z
#
# Youngs Moduli (GPa) = 70.03582 57.30812 51.38047
#
# Poissons Ratio (x) = 0.22371 0.29469
# Poissons Ratio (y) = 0.27340 -0.06015
# Poissons Ratio (z) = 0.40169 -0.06709
#
# Static dielectric constant tensor:
#      x y z
#    x 1.576820 0.000000 0.000000 
#    y 0.000000 1.625880 0.000000 
#    z 0.000000 0.000000 1.623980 
# 
# From -- ./inp_files/37948.got.cif
#   From: 2010.05.17/outbox.cif.g08.bks.cpg/sg74_19_cif.got.tgz:37948.got - 2010.06.03 17:57:02.
