data_PCOD9535014
_publ_section_title
;
Structure prediction by ZEFSAII (Michael W. Deem and Ramdas Pophale) SiO2 
 PCOD9535014
Probable space group: I M M A
;
_chemical_formula_sum "Si O2"
_cell_formula_units_Z 80
_cell_length_a 20.287113
_cell_length_b 14.794269
_cell_length_c 12.829219
_cell_angle_alpha 90.000000
_cell_angle_beta 90.000000
_cell_angle_gamma 90.000000
_cell_volume 3850.472075
_symmetry_space_group_name_H-M "I M M A"
_symmetry_group_IT_number 74
_symmetry_cell_setting 'orthorhombic'
loop_
_space_group_symop_operation_xyz
x,y,z
-x,1/2-y,z
x,-y,-z
-x,1/2+y,-z
-x,-y,-z
x,1/2+y,-z
-x,y,z
x,1/2-y,z
1/2+x,1/2+y,1/2+z
1/2-x,-y,1/2+z
1/2+x,1/2-y,1/2-z
1/2-x,y,1/2-z
1/2-x,1/2-y,1/2-z
1/2+x,y,1/2-z
1/2-x,1/2+y,1/2+z
1/2+x,-y,1/2+z
loop_
_atom_site_type_symbol
_atom_site_label
_atom_site_fract_x
_atom_site_fract_y
_atom_site_fract_z
Si Si1 0.332213 0.598981 0.165646
Si Si2 0.694104 0.147722 0.607943
Si Si3 0.073065 0.389078 0.491333
Si Si4 0.923138 0.566946 0.729908
Si Si5 0.074337 0.640863 0.962214
O O1 0.326912 0.654334 0.271585
O O2 0.259690 0.586927 0.115851
O O3 0.374959 0.642839 0.074734
O O4 0.369736 0.509762 0.206113
O O5 0.711316 0.250000 0.571980
O O6 0.633416 0.112146 0.538769
O O7 0.075193 0.500000 0.500000
O O8 0.083984 0.367362 0.370079
O O9 0.000000 0.360712 0.520951
O O10 0.914457 0.608721 0.843795
O O11 0.000000 0.533969 0.724170
O O12 0.074281 0.750000 0.963864
O O13 0.000000 0.611526 0.994597
#
# Coordination Sequence:
#
# PCOD9535014 Si02
#       5
#    16  16  16  16  16
#     4  10  18  33  53  80 109 150 180 231 284 340
#     4  10  22  39  54  76 112 153 192 234 285 339
#     4   8  15  30  52  78 108 139 174 224 280 329
#     4   9  18  35  58  86 115 143 183 236 286 338
#     4   9  19  38  61  83 113 153 193 237 287 338
#
# _framework density 20.776674
#
# number of rings (size 3 to 8) (size 9 to 14) (size 15 to 20)
#    0.000    2.800    0.000    3.000    0.000    2.400 
#   21.600    4.000    0.000   12.000    0.000    0.000 
#    0.000    0.000    0.000    0.000    0.000    0.000 
#
# Total GULP energy -222869.780171 kJ/mol
# GULP energy per Si atom -5571.744504 kJ/mol
# Density = 2.072938 g / cm^3
# Si number density = 20.776674 Si / 1000 Ang^3
#
#
#
# Elastic Constant Matrix: (Units=GPa)
#
#
# Indices 1 2 3 4 5 6 
#
# 1 172.4893 33.1769 106.6482 0.0000 0.0000 0.0000
# 2 33.1769 46.9099 3.6079 0.0000 0.0000 0.0000
# 3 106.6482 3.6079 140.4082 0.0000 0.0000 0.0000
# 4 0.0000 0.0000 0.0000 69.2944 0.0000 0.0000
# 5 0.0000 0.0000 0.0000 0.0000 69.4586 0.0000
# 6 0.0000 0.0000 0.0000 0.0000 0.0000 1.3749
#
#
#
# Elastic Compliance Matrix: (Units=1/GPa)
#
#
# Indices 1 2 3 4 5 6 
#
# 1 0.013948 -0.009068 -0.010361 0.000000 0.000000 0.000000
# 2 -0.009068 0.027255 0.006187 0.000000 0.000000 0.000000
# 3 -0.010361 0.006187 0.014833 0.000000 0.000000 0.000000
# 4 0.000000 0.000000 0.000000 0.014431 0.000000 0.000000
# 5 0.000000 0.000000 0.000000 0.000000 0.014397 0.000000
# 6 0.000000 0.000000 0.000000 0.000000 0.000000 0.727336
#
#
# Mechanical properties :
#
#
# Convention : Reuss Voigt Hill
#
# Bulk Modulus (GPa) = 33.83871 71.85260 52.84566
# Shear Modulus (GPa) = 5.89252 42.45053 24.17152
#
# Velocity S-wave (km/s) = 1.68591 4.52506 3.41456
# Velocity P-wave (km/s) = 4.48463 7.87146 6.40593
#
# Compressibility (1/GPa) = 0.02955196
#
# Stress axis : x y z
#
# Youngs Moduli (GPa) = 71.69677 36.69108 67.41764
#
# Poissons Ratio (x) = 0.33270 0.69852
# Poissons Ratio (y) = 0.65011 -0.41711
# Poissons Ratio (z) = 0.74285 -0.22701
#
# Static dielectric constant tensor:
#      x y z
#    x 1.774810 0.000000 0.000000 
#    y 0.000000 1.809240 0.000000 
#    z 0.000000 0.000000 1.744400 
# 
# From -- ./inp_files/35081.got.cif
#   From: 2010.05.17/outbox.cif.g08.bks.cpg/sg74_18_cif.got.tgz:35081.got - 2010.06.03 17:57:02.
