data_PCOD9535458
_publ_section_title
;
Structure prediction by ZEFSAII (Michael W. Deem and Ramdas Pophale) SiO2 
 PCOD9535458
Probable space group: I M M A
;
_chemical_formula_sum "Si O2"
_cell_formula_units_Z 80
_cell_length_a 19.524923
_cell_length_b 9.005288
_cell_length_c 26.806128
_cell_angle_alpha 90.000000
_cell_angle_beta 90.000000
_cell_angle_gamma 90.000000
_cell_volume 4713.255940
_symmetry_space_group_name_H-M "I M M A"
_symmetry_group_IT_number 74
_symmetry_cell_setting 'orthorhombic'
loop_
_space_group_symop_operation_xyz
x,y,z
-x,1/2-y,z
x,-y,-z
-x,1/2+y,-z
-x,-y,-z
x,1/2+y,-z
-x,y,z
x,1/2-y,z
1/2+x,1/2+y,1/2+z
1/2-x,-y,1/2+z
1/2+x,1/2-y,1/2-z
1/2-x,y,1/2-z
1/2-x,1/2-y,1/2-z
1/2+x,y,1/2-z
1/2-x,1/2+y,1/2+z
1/2+x,-y,1/2+z
loop_
_atom_site_type_symbol
_atom_site_label
_atom_site_fract_x
_atom_site_fract_y
_atom_site_fract_z
Si Si1 0.920473 0.428544 0.052040
Si Si2 0.333212 0.421127 0.246300
Si Si3 0.824817 0.072261 0.644762
Si Si4 0.675048 0.429951 0.355811
Si Si5 0.420310 0.428643 0.947663
O O1 0.917575 0.250000 0.047705
O O2 0.873830 0.472211 0.098697
O O3 0.000000 0.470713 0.060080
O O4 0.897490 0.500000 0.000000
O O5 0.353896 0.250000 0.238513
O O6 0.250000 0.423564 0.250000
O O7 0.352410 0.516569 0.198318
O O8 0.355237 0.472070 0.301435
O O9 0.819329 0.250000 0.645337
O O10 0.873665 0.027000 0.599084
O O11 0.749703 0.001417 0.638174
O O12 0.682474 0.250000 0.354849
O O13 0.500000 0.470002 0.939447
O O14 0.417058 0.250000 0.952053
O O15 0.397943 0.500000 0.000000
#
# Coordination Sequence:
#
# PCOD9535458 Si02
#       5
#    16  16  16  16  16
#     4   9  18  33  51  69  92 124 158 191 230 274
#     4   8  15  29  47  67  93 124 154 185 226 273
#     4  10  19  30  48  73  96 119 151 192 233 273
#     4   9  18  32  49  69  95 125 155 190 229 270
#     4   9  19  35  51  67  91 123 156 190 230 275
#
# _framework density 16.973405
#
# number of rings (size 3 to 8) (size 9 to 14) (size 15 to 20)
#    0.000    3.000    0.000    1.800    0.000    6.800 
#    0.000    5.000    0.000    1.200    0.000    0.000 
#    0.000    0.000    0.000    0.000    0.000    0.000 
#
# Total GULP energy -222836.864559 kJ/mol
# GULP energy per Si atom -5570.921614 kJ/mol
# Density = 1.693477 g / cm^3
# Si number density = 16.973405 Si / 1000 Ang^3
#
#
#
# Elastic Constant Matrix: (Units=GPa)
#
#
# Indices 1 2 3 4 5 6 
#
# 1 50.9378 25.2447 80.9826 0.0000 0.0000 0.0000
# 2 25.2447 23.2011 50.1710 0.0000 0.0000 0.0000
# 3 80.9826 50.1710 210.1838 0.0000 0.0000 0.0000
# 4 0.0000 0.0000 0.0000 33.2757 0.0000 0.0000
# 5 0.0000 0.0000 0.0000 0.0000 -18.0549 0.0000
# 6 0.0000 0.0000 0.0000 0.0000 0.0000 15.3463
#
#
#
# Elastic Compliance Matrix: (Units=1/GPa)
#
#
# Indices 1 2 3 4 5 6 
#
# 1 0.060169 -0.031701 -0.015616 0.000000 0.000000 0.000000
# 2 -0.031701 0.105786 -0.013037 0.000000 0.000000 0.000000
# 3 -0.015616 -0.013037 0.013886 0.000000 0.000000 0.000000
# 4 0.000000 0.000000 0.000000 0.030052 0.000000 0.000000
# 5 0.000000 0.000000 0.000000 0.000000 -0.055387 0.000000
# 6 0.000000 0.000000 0.000000 0.000000 0.000000 0.065162
#
#
# Mechanical properties :
#
#
# Convention : Reuss Voigt Hill
#
# Bulk Modulus (GPa) = 16.91059 66.34660 41.62860
# Shear Modulus (GPa) = 13.88545 14.64171 14.26358
#
# Velocity S-wave (km/s) = 2.86330 2.94024 2.90202
# Velocity P-wave (km/s) = 4.57339 7.12040 5.98398
#
# Compressibility (1/GPa) = 0.05913454
#
# Stress axis : x y z
#
# Youngs Moduli (GPa) = 16.61977 9.45301 72.01275
#
# Poissons Ratio (x) = 0.29967 1.12454
# Poissons Ratio (y) = 0.52686 0.93884
# Poissons Ratio (z) = 0.25953 0.12324
#
# Static dielectric constant tensor:
#      x y z
#    x 1.556430 0.000000 0.000000 
#    y 0.000000 1.570890 0.000000 
#    z 0.000000 0.000000 1.588890 
# 
# From -- ./inp_files/72861.got.cif
#   From: 2010.05.17/outbox.cif.g08.bks.cpg/sg74_37_cif.got.tgz:72861.got - 2010.06.03 17:57:02.
