data_PCOD9535731
_publ_section_title
;
Structure prediction by ZEFSAII (Michael W. Deem and Ramdas Pophale) SiO2 
 PCOD9535731
Probable space group: I M M A
;
_chemical_formula_sum "Si O2"
_cell_formula_units_Z 104
_cell_length_a 9.298242
_cell_length_b 26.065237
_cell_length_c 24.151545
_cell_angle_alpha 90.000000
_cell_angle_beta 90.000000
_cell_angle_gamma 90.000000
_cell_volume 5853.389734
_symmetry_space_group_name_H-M "I M M A"
_symmetry_group_IT_number 74
_symmetry_cell_setting 'orthorhombic'
loop_
_space_group_symop_operation_xyz
x,y,z
-x,1/2-y,z
x,-y,-z
-x,1/2+y,-z
-x,-y,-z
x,1/2+y,-z
-x,y,z
x,1/2-y,z
1/2+x,1/2+y,1/2+z
1/2-x,-y,1/2+z
1/2+x,1/2-y,1/2-z
1/2-x,y,1/2-z
1/2-x,1/2-y,1/2-z
1/2+x,y,1/2-z
1/2-x,1/2+y,1/2+z
1/2+x,-y,1/2+z
loop_
_atom_site_type_symbol
_atom_site_label
_atom_site_fract_x
_atom_site_fract_y
_atom_site_fract_z
Si Si1 0.325241 0.190174 0.492017
Si Si2 0.667814 0.922917 0.192595
Si Si3 0.337554 0.192833 0.298905
Si Si4 0.331349 0.454066 0.191559
Si Si5 0.171986 0.653030 0.115885
Si Si6 0.666327 0.385694 0.396780
Si Si7 0.169797 0.250000 0.807276
O O1 0.500000 0.191510 0.486431
O O2 0.278192 0.250000 0.481684
O O3 0.290904 0.172547 0.554390
O O4 0.276968 0.143603 0.451558
O O5 0.500000 0.908447 0.197397
O O6 0.750000 0.909796 0.250000
O O7 0.742223 0.894651 0.141069
O O8 0.675999 0.984318 0.185149
O O9 0.500000 0.196494 0.279171
O O10 0.280085 0.250000 0.308937
O O11 0.250000 0.167825 0.250000
O O12 0.337594 0.161352 0.354056
O O13 0.500000 0.439074 0.195793
O O14 0.250000 0.443293 0.250000
O O15 0.257585 0.427399 0.137945
O O16 0.203403 0.700006 0.156917
O O17 0.000000 0.642765 0.116650
O O18 0.500000 0.403552 0.405497
O O19 0.250000 0.250000 0.750000
O O20 0.000000 0.250000 0.797091
#
# Coordination Sequence:
#
# PCOD9535731 Si02
#       7
#    16  16  16  16  16  16   8
#     4   9  17  33  56  80 109 146 185 224 265 313
#     4  10  21  37  57  81 108 140 176 218 272 328
#     4   9  17  28  42  65  96 127 161 206 261 315
#     4  10  21  37  56  78 107 140 176 224 278 327
#     4  10  19  34  56  81 110 144 180 218 263 316
#     4  10  19  31  52  78 102 136 182 224 264 314
#     4  10  20  32  50  80 112 140 171 210 261 318
#
# _framework density 17.767482000000001
#
# number of rings (size 3 to 8) (size 9 to 14) (size 15 to 20)
#    0.000    2.308    0.769    2.308    0.000    7.385 
#    0.000    1.538    0.000    6.923    0.000    0.000 
#    0.000    0.000    0.000    0.000    0.000    0.000 
#
# Total GULP energy -289640.700290 kJ/mol
# GULP energy per Si atom -5570.013467 kJ/mol
# Density = 1.772704 g / cm^3
# Si number density = 17.767482 Si / 1000 Ang^3
#
#
#
# Elastic Constant Matrix: (Units=GPa)
#
#
# Indices 1 2 3 4 5 6 
#
# 1 59.3371 40.7178 48.7094 0.0000 0.0000 0.0000
# 2 40.7178 72.0839 35.4241 0.0000 0.0000 0.0000
# 3 48.7094 35.4241 121.1778 0.0000 0.0000 0.0000
# 4 0.0000 0.0000 0.0000 160.3740 0.0000 0.0000
# 5 0.0000 0.0000 0.0000 0.0000 22.7695 0.0000
# 6 0.0000 0.0000 0.0000 0.0000 0.0000 26.0069
#
#
#
# Elastic Compliance Matrix: (Units=1/GPa)
#
#
# Indices 1 2 3 4 5 6 
#
# 1 0.035212 -0.015104 -0.009739 0.000000 0.000000 0.000000
# 2 -0.015104 0.022679 -0.000558 0.000000 0.000000 0.000000
# 3 -0.009739 -0.000558 0.012330 0.000000 0.000000 0.000000
# 4 0.000000 0.000000 0.000000 0.006235 0.000000 0.000000
# 5 0.000000 0.000000 0.000000 0.000000 0.043918 0.000000
# 6 0.000000 0.000000 0.000000 0.000000 0.000000 0.038451
#
#
# Mechanical properties :
#
#
# Convention : Reuss Voigt Hill
#
# Bulk Modulus (GPa) = 51.49681 55.81127 53.65404
# Shear Modulus (GPa) = 23.13730 50.34657 36.74194
#
# Velocity S-wave (km/s) = 3.61255 5.32897 4.55239
# Velocity P-wave (km/s) = 6.81523 8.32731 7.60892
#
# Compressibility (1/GPa) = 0.01941868
#
# Stress axis : x y z
#
# Youngs Moduli (GPa) = 28.39957 44.09365 81.10210
#
# Poissons Ratio (x) = 0.66600 0.78981
# Poissons Ratio (y) = 0.42895 0.04529
# Poissons Ratio (z) = 0.27657 0.02462
#
# Static dielectric constant tensor:
#      x y z
#    x 1.615480 0.000000 0.000000 
#    y 0.000000 1.657610 0.000000 
#    z 0.000000 0.000000 1.616550 
# 
# From -- ./inp_files/57585.got.cif
#   From: 2010.05.17/outbox.cif.g08.bks.cpg/sg74_29_cif.got.tgz:57585.got - 2010.06.03 17:57:02.
