data_PCOD9535608
_publ_section_title
;
Structure prediction by ZEFSAII (Michael W. Deem and Ramdas Pophale) SiO2 
 PCOD9535608
Probable space group: I M M A
;
_chemical_formula_sum "Si O2"
_cell_formula_units_Z 104
_cell_length_a 27.789104
_cell_length_b 8.377958
_cell_length_c 23.958617
_cell_angle_alpha 90.000000
_cell_angle_beta 90.000000
_cell_angle_gamma 90.000000
_cell_volume 5577.948086
_symmetry_space_group_name_H-M "I M M A"
_symmetry_group_IT_number 74
_symmetry_cell_setting 'orthorhombic'
loop_
_space_group_symop_operation_xyz
x,y,z
-x,1/2-y,z
x,-y,-z
-x,1/2+y,-z
-x,-y,-z
x,1/2+y,-z
-x,y,z
x,1/2-y,z
1/2+x,1/2+y,1/2+z
1/2-x,-y,1/2+z
1/2+x,1/2-y,1/2-z
1/2-x,y,1/2-z
1/2-x,1/2-y,1/2-z
1/2+x,y,1/2-z
1/2-x,1/2+y,1/2+z
1/2+x,-y,1/2+z
loop_
_atom_site_type_symbol
_atom_site_label
_atom_site_fract_x
_atom_site_fract_y
_atom_site_fract_z
Si Si1 0.055858 0.057034 0.240539
Si Si2 0.146820 0.059058 0.808885
Si Si3 0.205831 0.073146 0.291371
Si Si4 0.324453 0.942206 0.060454
Si Si5 0.266637 0.932860 0.384229
Si Si6 0.911195 0.440978 0.364628
Si Si7 0.500000 0.560391 0.062816
O O1 0.058721 0.250000 0.239411
O O2 0.073992 0.003873 0.302278
O O3 0.000000 0.011406 0.233995
O O4 0.091150 0.990177 0.192591
O O5 0.151739 0.250000 0.807679
O O6 0.183471 0.999886 0.858083
O O7 0.165283 0.987950 0.750095
O O8 0.194676 0.250000 0.315420
O O9 0.250000 0.095918 0.250000
O O10 0.228069 0.945740 0.333639
O O11 0.323498 0.750000 0.061428
O O12 0.269087 0.004448 0.069048
O O13 0.360961 0.999388 0.109005
O O14 0.342138 0.000000 0.000000
O O15 0.276802 0.750000 0.399282
O O16 0.910648 0.250000 0.363670
O O17 0.953118 0.497880 0.405479
O O18 0.500000 0.750000 0.063600
O O19 0.500000 0.500000 0.000000
#
# Coordination Sequence:
#
# PCOD9535608 Si02
#       7
#    16  16  16  16  16  16   8
#     4  10  21  37  54  75 104 136 170 211 254 298
#     4  10  19  31  49  73 100 131 164 201 246 301
#     4   9  16  26  43  68  95 124 159 196 236 286
#     4  11  23  38  54  75 101 133 171 215 261 306
#     4   9  19  34  50  70  99 130 163 203 249 301
#     4  11  22  39  56  73  99 133 172 216 262 305
#     4  12  24  38  56  74  94 126 174 226 271 312
#
# _framework density 18.644848
#
# number of rings (size 3 to 8) (size 9 to 14) (size 15 to 20)
#    0.000    1.846    0.769    3.923    0.000    7.692 
#    0.000    0.000    0.000    0.000    0.000    0.000 
#    0.000    0.615    0.000    1.385    0.000    2.462 
#
# Total GULP energy -289646.314375 kJ/mol
# GULP energy per Si atom -5570.121430 kJ/mol
# Density = 1.860241 g / cm^3
# Si number density = 18.644848 Si / 1000 Ang^3
#
#
#
# Elastic Constant Matrix: (Units=GPa)
#
#
# Indices 1 2 3 4 5 6 
#
# 1 159.6612 20.1840 38.4983 0.0000 0.0000 0.0000
# 2 20.1840 37.2424 -0.3784 0.0000 0.0000 0.0000
# 3 38.4983 -0.3784 21.5795 0.0000 0.0000 0.0000
# 4 0.0000 0.0000 0.0000 -75.6167 0.0000 0.0000
# 5 0.0000 0.0000 0.0000 0.0000 35.0100 0.0000
# 6 0.0000 0.0000 0.0000 0.0000 0.0000 -31.8930
#
#
#
# Elastic Compliance Matrix: (Units=1/GPa)
#
#
# Indices 1 2 3 4 5 6 
#
# 1 0.012611 -0.007065 -0.022623 0.000000 0.000000 0.000000
# 2 -0.007065 0.030813 0.013144 0.000000 0.000000 0.000000
# 3 -0.022623 0.013144 0.086930 0.000000 0.000000 0.000000
# 4 0.000000 0.000000 0.000000 -0.013225 0.000000 0.000000
# 5 0.000000 0.000000 0.000000 0.000000 0.028563 0.000000
# 6 0.000000 0.000000 0.000000 0.000000 0.000000 -0.031355
#
#
# Mechanical properties :
#
#
# Convention : Reuss Voigt Hill
#
# Bulk Modulus (GPa) = 10.28090 37.23234 23.75662
# Shear Modulus (GPa) = 27.80124 -3.82134 11.98995
#
# Velocity S-wave (km/s) = 3.86566 -1.43317 2.53863
# Velocity P-wave (km/s) = 5.04485 4.15619 4.62193
#
# Compressibility (1/GPa) = 0.09726775
#
# Stress axis : x y z
#
# Youngs Moduli (GPa) = 79.29425 32.45336 11.50351
#
# Poissons Ratio (x) = 0.22927 0.26024
# Poissons Ratio (y) = 0.56019 -0.15120
# Poissons Ratio (z) = 1.79384 -0.42656
#
# Static dielectric constant tensor:
#      x y z
#    x 1.711990 0.000000 0.000000 
#    y 0.000000 1.681920 0.000000 
#    z 0.000000 0.000000 1.658470 
# 
# From -- ./inp_files/62375.got.cif
#   From: 2010.05.17/outbox.cif.g08.bks.cpg/sg74_32_cif.got.tgz:62375.got - 2010.06.03 17:57:02.
