data_PCOD9535531
_publ_section_title
;
Structure prediction by ZEFSAII (Michael W. Deem and Ramdas Pophale) SiO2 
 PCOD9535531
Probable space group: I M M A
;
_chemical_formula_sum "Si O2"
_cell_formula_units_Z 128
_cell_length_a 20.027460
_cell_length_b 14.237075
_cell_length_c 20.640575
_cell_angle_alpha 90.000000
_cell_angle_beta 90.000000
_cell_angle_gamma 90.000000
_cell_volume 5885.297721
_symmetry_space_group_name_H-M "I M M A"
_symmetry_group_IT_number 74
_symmetry_cell_setting 'orthorhombic'
loop_
_space_group_symop_operation_xyz
x,y,z
-x,1/2-y,z
x,-y,-z
-x,1/2+y,-z
-x,-y,-z
x,1/2+y,-z
-x,y,z
x,1/2-y,z
1/2+x,1/2+y,1/2+z
1/2-x,-y,1/2+z
1/2+x,1/2-y,1/2-z
1/2-x,y,1/2-z
1/2-x,1/2-y,1/2-z
1/2+x,y,1/2-z
1/2-x,1/2+y,1/2+z
1/2+x,-y,1/2+z
loop_
_atom_site_type_symbol
_atom_site_label
_atom_site_fract_x
_atom_site_fract_y
_atom_site_fract_z
Si Si1 0.811687 0.107877 0.511366
Si Si2 0.336445 0.354141 0.481184
Si Si3 0.928196 0.361456 0.411439
Si Si4 0.160102 0.864715 0.701411
Si Si5 0.302398 0.359794 0.840476
Si Si6 0.191858 0.635233 0.842974
Si Si7 0.653890 0.864840 0.374682
Si Si8 0.575790 0.864755 0.249618
O O1 0.743669 0.156224 0.489539
O O2 0.874578 0.128105 0.467330
O O3 0.826147 0.131484 0.585438
O O4 0.795730 0.000000 0.500000
O O5 0.367545 0.250000 0.477563
O O6 0.341015 0.398858 0.409678
O O7 0.356584 0.396532 0.550782
O O8 0.934569 0.250000 0.402125
O O9 0.898362 0.399231 0.344598
O O10 0.000000 0.402497 0.427585
O O11 0.160439 0.750000 0.702147
O O12 0.157060 0.893589 0.776035
O O13 0.230495 0.891371 0.667945
O O14 0.295079 0.250000 0.822576
O O15 0.225883 0.397139 0.845009
O O16 0.361205 0.397507 0.794513
O O17 0.191161 0.750000 0.846274
O O18 0.658865 0.750000 0.378786
O O19 0.596551 0.887291 0.323508
O O20 0.500000 0.896449 0.233924
O O21 0.574997 0.750000 0.244025
#
# Coordination Sequence:
#
# PCOD9535531 Si02
#       8
#    16  16  16  16  16  16  16  16
#     4  11  21  31  44  65  93 118 144 185 233 269
#     4   9  15  27  48  69  90 117 150 183 218 269
#     4  10  19  31  47  63  86 122 157 183 209 258
#     4   8  13  22  39  65  87 104 138 184 222 248
#     4   9  17  30  48  66  88 121 158 192 224 271
#     4   8  12  20  41  67  87 104 133 185 224 251
#     4   8  14  24  42  67  92 120 151 187 230 269
#     4   9  16  26  43  68  94 118 152 196 232 266
#
# _framework density 21.749112
#
# number of rings (size 3 to 8) (size 9 to 14) (size 15 to 20)
#    0.000    3.000    1.250    3.000    0.000    2.250 
#    0.000    1.250    0.000    6.750    0.000    5.250 
#    0.000    8.000    0.000    0.000    0.000    0.000 
#
# Total GULP energy -356854.524613 kJ/mol
# GULP energy per Si atom -5575.851947 kJ/mol
# Density = 2.169961 g / cm^3
# Si number density = 21.749112 Si / 1000 Ang^3
#
#
#
# Elastic Constant Matrix: (Units=GPa)
#
#
# Indices 1 2 3 4 5 6 
#
# 1 30.0951 -10.2696 20.3511 0.0000 0.0000 0.0000
# 2 -10.2696 59.0232 -6.4211 0.0000 0.0000 0.0000
# 3 20.3511 -6.4211 114.0077 0.0000 0.0000 0.0000
# 4 0.0000 0.0000 0.0000 -4.2729 0.0000 0.0000
# 5 0.0000 0.0000 0.0000 0.0000 21.4850 0.0000
# 6 0.0000 0.0000 0.0000 0.0000 0.0000 -3.0976
#
#
#
# Elastic Compliance Matrix: (Units=1/GPa)
#
#
# Indices 1 2 3 4 5 6 
#
# 1 0.039931 0.006210 -0.006778 0.000000 0.000000 0.000000
# 2 0.006210 0.018013 -0.000094 0.000000 0.000000 0.000000
# 3 -0.006778 -0.000094 0.009976 0.000000 0.000000 0.000000
# 4 0.000000 0.000000 0.000000 -0.234031 0.000000 0.000000
# 5 0.000000 0.000000 0.000000 0.000000 0.046544 0.000000
# 6 0.000000 0.000000 0.000000 0.000000 0.000000 -0.322828
#
#
# Mechanical properties :
#
#
# Convention : Reuss Voigt Hill
#
# Bulk Modulus (GPa) = 15.01597 23.38295 19.19946
# Shear Modulus (GPa) = -11.93678 16.12059 2.09191
#
# Velocity S-wave (km/s) = -2.34527 2.72547 0.98180
# Velocity P-wave (km/s) = 0.64389 4.54739 3.18309
#
# Compressibility (1/GPa) = 0.06659579
#
# Stress axis : x y z
#
# Youngs Moduli (GPa) = 25.04335 55.51604 100.24082
#
# Poissons Ratio (x) = -0.34477 0.67944
# Poissons Ratio (y) = -0.15553 0.00943
# Poissons Ratio (z) = 0.16975 0.00522
#
# Static dielectric constant tensor:
#      x y z
#    x 1.717040 0.000000 0.000000 
#    y 0.000000 1.850430 0.000000 
#    z 0.000000 0.000000 1.808350 
# 
# From -- ./inp_files/54184.got.cif
#   From: 2010.05.17/outbox.cif.g08.bks.cpg/sg74_28_cif.got.tgz:54184.got - 2010.06.03 17:57:02.
