data_PCOD9535750
_publ_section_title
;
Structure prediction by ZEFSAII (Michael W. Deem and Ramdas Pophale) SiO2 
 PCOD9535750
Probable space group: I M M A
;
_chemical_formula_sum "Si O2"
_cell_formula_units_Z 104
_cell_length_a 8.620289
_cell_length_b 23.648307
_cell_length_c 25.173003
_cell_angle_alpha 90.000000
_cell_angle_beta 90.000000
_cell_angle_gamma 90.000000
_cell_volume 5131.648586
_symmetry_space_group_name_H-M "I M M A"
_symmetry_group_IT_number 74
_symmetry_cell_setting 'orthorhombic'
loop_
_space_group_symop_operation_xyz
x,y,z
-x,1/2-y,z
x,-y,-z
-x,1/2+y,-z
-x,-y,-z
x,1/2+y,-z
-x,y,z
x,1/2-y,z
1/2+x,1/2+y,1/2+z
1/2-x,-y,1/2+z
1/2+x,1/2-y,1/2-z
1/2-x,y,1/2-z
1/2-x,1/2-y,1/2-z
1/2+x,y,1/2-z
1/2-x,1/2+y,1/2+z
1/2+x,-y,1/2+z
loop_
_atom_site_type_symbol
_atom_site_label
_atom_site_fract_x
_atom_site_fract_y
_atom_site_fract_z
Si Si1 0.314206 0.102191 0.194278
Si Si2 0.176456 0.523250 0.334863
Si Si3 0.673459 0.533228 0.946544
Si Si4 0.321676 0.857208 0.585970
Si Si5 0.811731 0.313843 0.974794
Si Si6 0.685587 0.138380 0.634362
Si Si7 0.314870 0.750000 0.190647
O O1 0.500000 0.100304 0.194303
O O2 0.250000 0.124202 0.250000
O O3 0.261028 0.138151 0.143035
O O4 0.259412 0.036144 0.188388
O O5 0.171087 0.508897 0.397314
O O6 0.265101 0.582283 0.333571
O O7 0.000000 0.530783 0.314950
O O8 0.500000 0.560503 0.947449
O O9 0.804076 0.579134 0.936200
O O10 0.697347 0.500000 0.000000
O O11 0.500000 0.840959 0.594717
O O12 0.255818 0.823046 0.535347
O O13 0.772627 0.250000 0.957869
O O14 0.762374 0.356936 0.928085
O O15 0.000000 0.317908 0.978076
O O16 0.500000 0.141414 0.634183
O O17 0.753659 0.193771 0.661951
O O18 0.500000 0.750000 0.190787
O O19 0.250000 0.750000 0.250000
#
# Coordination Sequence:
#
# PCOD9535750 Si02
#       7
#    16  16  16  16  16  16   8
#     4  10  21  38  58  80 112 149 185 232 283 340
#     4   9  19  33  50  76 109 143 179 220 269 325
#     4   9  17  30  47  70 107 147 176 216 271 324
#     4  10  19  31  53  82 109 144 186 228 277 339
#     4   9  18  34  56  82 115 150 187 232 282 333
#     4  11  21  37  60  84 113 149 188 235 283 327
#     4  12  26  44  62  80 106 144 191 238 283 334
#
# _framework density 20.266390000000001
#
# number of rings (size 3 to 8) (size 9 to 14) (size 15 to 20)
#    0.000    2.154    0.769    3.923    0.000    4.000 
#    0.000    3.846    0.000    0.462    0.000    0.000 
#    0.000    0.000    0.000    0.000    0.000    0.000 
#
# Total GULP energy -289813.324762 kJ/mol
# GULP energy per Si atom -5573.333168 kJ/mol
# Density = 2.022026 g / cm^3
# Si number density = 20.266390 Si / 1000 Ang^3
#
#
#
# Elastic Constant Matrix: (Units=GPa)
#
#
# Indices 1 2 3 4 5 6 
#
# 1 32.3282 3.6110 10.8594 0.0000 0.0000 0.0000
# 2 3.6110 28.5137 -5.4275 0.0000 0.0000 0.0000
# 3 10.8594 -5.4275 111.3417 0.0000 0.0000 0.0000
# 4 0.0000 0.0000 0.0000 19.1688 0.0000 0.0000
# 5 0.0000 0.0000 0.0000 0.0000 24.7885 0.0000
# 6 0.0000 0.0000 0.0000 0.0000 0.0000 15.1770
#
#
#
# Elastic Compliance Matrix: (Units=1/GPa)
#
#
# Indices 1 2 3 4 5 6 
#
# 1 0.032613 -0.004780 -0.003414 0.000000 0.000000 0.000000
# 2 -0.004780 0.036100 0.002226 0.000000 0.000000 0.000000
# 3 -0.003414 0.002226 0.009423 0.000000 0.000000 0.000000
# 4 0.000000 0.000000 0.000000 0.052168 0.000000 0.000000
# 5 0.000000 0.000000 0.000000 0.000000 0.040341 0.000000
# 6 0.000000 0.000000 0.000000 0.000000 0.000000 0.065889
#
#
# Mechanical properties :
#
#
# Convention : Reuss Voigt Hill
#
# Bulk Modulus (GPa) = 15.10565 21.14104 18.12335
# Shear Modulus (GPa) = 18.48174 22.70291 20.59233
#
# Velocity S-wave (km/s) = 3.02311 3.35061 3.19106
# Velocity P-wave (km/s) = 4.43343 5.04212 4.74754
#
# Compressibility (1/GPa) = 0.06620039
#
# Stress axis : x y z
#
# Youngs Moduli (GPa) = 30.66223 27.70088 106.12530
#
# Poissons Ratio (x) = 0.13241 0.36230
# Poissons Ratio (y) = 0.14656 -0.23623
# Poissons Ratio (z) = 0.10468 -0.06166
#
# Static dielectric constant tensor:
#      x y z
#    x 1.737550 0.000000 0.000000 
#    y 0.000000 1.733240 0.000000 
#    z 0.000000 0.000000 1.746630 
# 
# From -- ./inp_files/64769.got.cif
#   From: 2010.05.17/outbox.cif.g08.bks.cpg/sg74_33_cif.got.tgz:64769.got - 2010.06.03 17:57:02.
