data_PCOD9535712
_publ_section_title
;
Structure prediction by ZEFSAII (Michael W. Deem and Ramdas Pophale) SiO2 
 PCOD9535712
Probable space group: I M M A
;
_chemical_formula_sum "Si O2"
_cell_formula_units_Z 104
_cell_length_a 15.714548
_cell_length_b 15.070854
_cell_length_c 22.903303
_cell_angle_alpha 90.000000
_cell_angle_beta 90.000000
_cell_angle_gamma 90.000000
_cell_volume 5424.227237
_symmetry_space_group_name_H-M "I M M A"
_symmetry_group_IT_number 74
_symmetry_cell_setting 'orthorhombic'
loop_
_space_group_symop_operation_xyz
x,y,z
-x,1/2-y,z
x,-y,-z
-x,1/2+y,-z
-x,-y,-z
x,1/2+y,-z
-x,y,z
x,1/2-y,z
1/2+x,1/2+y,1/2+z
1/2-x,-y,1/2+z
1/2+x,1/2-y,1/2-z
1/2-x,y,1/2-z
1/2-x,1/2-y,1/2-z
1/2+x,y,1/2-z
1/2-x,1/2+y,1/2+z
1/2+x,-y,1/2+z
loop_
_atom_site_type_symbol
_atom_site_label
_atom_site_fract_x
_atom_site_fract_y
_atom_site_fract_z
Si Si1 0.798649 0.853440 0.468190
Si Si2 0.662040 0.152279 0.286378
Si Si3 0.330319 0.000000 0.500000
Si Si4 0.599697 0.648081 0.586849
Si Si5 0.898574 0.352810 0.411163
Si Si6 0.102650 0.346799 0.650734
Si Si7 0.399898 0.974040 0.804939
O O1 0.768262 0.750000 0.467628
O O2 0.847268 0.867653 0.529462
O O3 0.863922 0.861797 0.414727
O O4 0.728365 0.930146 0.464299
O O5 0.622705 0.250000 0.276054
O O6 0.750000 0.152367 0.250000
O O7 0.659519 0.140336 0.355931
O O8 0.612549 0.073443 0.255960
O O9 0.380818 0.931878 0.542227
O O10 0.500000 0.642999 0.604340
O O11 0.612873 0.750000 0.563911
O O12 0.887556 0.250000 0.393775
O O13 0.867302 0.414150 0.358514
O O14 0.000000 0.366479 0.421529
O O15 0.132015 0.250000 0.670399
O O16 0.134838 0.427186 0.690103
O O17 0.000000 0.345754 0.649738
O O18 0.500000 0.979200 0.815493
#
# Coordination Sequence:
#
# PCOD9535712 Si02
#       7
#    16  16   8  16  16  16  16
#     4  10  20  31  48  75 112 151 191 238 290 335
#     4  10  22  37  59  88 118 145 173 219 281 346
#     4  12  23  36  59  86 112 146 188 248 295 336
#     4  10  23  44  66  87 114 150 190 232 285 348
#     4   9  17  28  45  73 111 152 190 228 275 338
#     4   9  18  32  49  71 106 154 199 233 270 326
#     4  10  19  31  51  77 106 144 186 226 270 328
#
# _framework density 19.173238000000001
#
# number of rings (size 3 to 8) (size 9 to 14) (size 15 to 20)
#    0.000    2.154    0.000    3.000    4.308    3.385 
#    0.000    3.077    0.000    2.308    0.000    2.154 
#    0.000    0.000    0.000    0.000    0.000    0.000 
#
# Total GULP energy -289876.647657 kJ/mol
# GULP energy per Si atom -5574.550916 kJ/mol
# Density = 1.912960 g / cm^3
# Si number density = 19.173238 Si / 1000 Ang^3
#
#
#
# Elastic Constant Matrix: (Units=GPa)
#
#
# Indices 1 2 3 4 5 6 
#
# 1 33.7417 34.4033 8.3682 0.0000 0.0000 0.0000
# 2 34.4033 130.6433 61.2659 0.0000 0.0000 0.0000
# 3 8.3682 61.2659 64.6809 0.0000 0.0000 0.0000
# 4 0.0000 0.0000 0.0000 27.7248 0.0000 0.0000
# 5 0.0000 0.0000 0.0000 0.0000 12.8713 0.0000
# 6 0.0000 0.0000 0.0000 0.0000 0.0000 23.0296
#
#
#
# Elastic Compliance Matrix: (Units=1/GPa)
#
#
# Indices 1 2 3 4 5 6 
#
# 1 0.043470 -0.015851 0.009390 0.000000 0.000000 0.000000
# 2 -0.015851 0.019551 -0.016469 0.000000 0.000000 0.000000
# 3 0.009390 -0.016469 0.029845 0.000000 0.000000 0.000000
# 4 0.000000 0.000000 0.000000 0.036069 0.000000 0.000000
# 5 0.000000 0.000000 0.000000 0.000000 0.077692 0.000000
# 6 0.000000 0.000000 0.000000 0.000000 0.000000 0.043422
#
#
# Mechanical properties :
#
#
# Convention : Reuss Voigt Hill
#
# Bulk Modulus (GPa) = 21.27341 48.57119 34.92230
# Shear Modulus (GPa) = 16.04740 21.06036 18.55388
#
# Velocity S-wave (km/s) = 2.89618 3.31784 3.11416
# Velocity P-wave (km/s) = 4.72263 6.32971 5.58429
#
# Compressibility (1/GPa) = 0.04700704
#
# Stress axis : x y z
#
# Youngs Moduli (GPa) = 23.00461 51.14705 33.50676
#
# Poissons Ratio (x) = 0.81071 -0.31462
# Poissons Ratio (y) = 0.36463 0.55181
# Poissons Ratio (z) = -0.21601 0.84232
#
# Static dielectric constant tensor:
#      x y z
#    x 1.707990 0.000000 0.000000 
#    y 0.000000 1.715820 0.000000 
#    z 0.000000 0.000000 1.646090 
# 
# From -- ./inp_files/53067.got.cif
#   From: 2010.05.17/outbox.cif.g08.bks.cpg/sg74_27_cif.got.tgz:53067.got - 2010.06.03 17:57:02.
