data_PCOD9535580
_publ_section_title
;
Structure prediction by ZEFSAII (Michael W. Deem and Ramdas Pophale) SiO2 
 PCOD9535580
Probable space group: I M M A
;
_chemical_formula_sum "Si O2"
_cell_formula_units_Z 76
_cell_length_a 24.944972
_cell_length_b 7.309205
_cell_length_c 18.120322
_cell_angle_alpha 90.000000
_cell_angle_beta 90.000000
_cell_angle_gamma 90.000000
_cell_volume 3303.840512
_symmetry_space_group_name_H-M "I M M A"
_symmetry_group_IT_number 74
_symmetry_cell_setting 'orthorhombic'
loop_
_space_group_symop_operation_xyz
x,y,z
-x,1/2-y,z
x,-y,-z
-x,1/2+y,-z
-x,-y,-z
x,1/2+y,-z
-x,y,z
x,1/2-y,z
1/2+x,1/2+y,1/2+z
1/2-x,-y,1/2+z
1/2+x,1/2-y,1/2-z
1/2-x,y,1/2-z
1/2-x,1/2-y,1/2-z
1/2+x,y,1/2-z
1/2-x,1/2+y,1/2+z
1/2+x,-y,1/2+z
loop_
_atom_site_type_symbol
_atom_site_label
_atom_site_fract_x
_atom_site_fract_y
_atom_site_fract_z
Si Si1 0.911738 0.026468 0.201474
Si Si2 0.210309 0.028030 0.183512
Si Si3 0.500000 0.500000 0.000000
Si Si4 0.500000 0.531934 0.587405
Si Si5 0.918074 0.472844 0.365882
Si Si6 0.302376 0.533338 0.914455
O O1 0.911363 0.250000 0.201908
O O2 0.850342 0.964451 0.191813
O O3 0.948417 0.965823 0.133449
O O4 0.933653 0.974009 0.282589
O O5 0.206459 0.250000 0.183655
O O6 0.250000 0.977966 0.250000
O O7 0.244863 0.966024 0.113327
O O8 0.546218 0.531007 0.064617
O O9 0.500000 0.750000 0.595385
O O10 0.500000 0.500000 0.500000
O O11 0.921098 0.250000 0.369520
O O12 0.856453 0.533761 0.375575
O O13 0.302410 0.750000 0.899470
O O14 0.308856 0.500000 0.000000
#
# Coordination Sequence:
#
# PCOD9535580 Si02
#       6
#    16  16   4   8  16  16
#     4   9  17  32  54  79 100 129 174 224 264 300
#     4   9  15  27  51  78 100 125 166 216 256 293
#     4  12  20  28  44  70 102 140 168 200 270 304
#     4  10  21  36  56  79 106 134 170 218 267 314
#     4  10  19  31  48  72 102 134 178 221 252 297
#     4  10  19  32  50  76 106 136 166 209 258 303
#
# _framework density 23.003530999999999
#
# number of rings (size 3 to 8) (size 9 to 14) (size 15 to 20)
#    0.000    2.316    3.158    0.947    0.000    2.526 
#    0.000    0.000    0.000    6.947    0.000    0.000 
#    0.000    0.000    0.000    0.000    0.000    0.000 
#
# Total GULP energy -211656.238589 kJ/mol
# GULP energy per Si atom -5569.901015 kJ/mol
# Density = 2.295117 g / cm^3
# Si number density = 23.003531 Si / 1000 Ang^3
#
#
#
# Elastic Constant Matrix: (Units=GPa)
#
#
# Indices 1 2 3 4 5 6 
#
# 1 208.7517 7.9643 108.5257 0.0000 0.0000 0.0000
# 2 7.9643 88.1981 -2.1401 0.0000 0.0000 0.0000
# 3 108.5257 -2.1401 200.4517 0.0000 0.0000 0.0000
# 4 0.0000 0.0000 0.0000 6.7578 0.0000 0.0000
# 5 0.0000 0.0000 0.0000 0.0000 51.0132 0.0000
# 6 0.0000 0.0000 0.0000 0.0000 0.0000 -302.7413
#
#
#
# Elastic Compliance Matrix: (Units=1/GPa)
#
#
# Indices 1 2 3 4 5 6 
#
# 1 0.006709 -0.000694 -0.003640 0.000000 0.000000 0.000000
# 2 -0.000694 0.011413 0.000498 0.000000 0.000000 0.000000
# 3 -0.003640 0.000498 0.006965 0.000000 0.000000 0.000000
# 4 0.000000 0.000000 0.000000 0.147977 0.000000 0.000000
# 5 0.000000 0.000000 0.000000 0.000000 0.019603 0.000000
# 6 0.000000 0.000000 0.000000 0.000000 0.000000 -0.003303
#
#
# Mechanical properties :
#
#
# Convention : Reuss Voigt Hill
#
# Bulk Modulus (GPa) = 57.42466 80.67790 69.05128
# Shear Modulus (GPa) = 24.64994 -23.45728 0.59633
#
# Velocity S-wave (km/s) = 3.27704 -3.19678 0.50970
# Velocity P-wave (km/s) = 6.27186 4.63921 5.51627
#
# Compressibility (1/GPa) = 0.01741412
#
# Stress axis : x y z
#
# Youngs Moduli (GPa) = 149.05132 87.62039 143.58263
#
# Poissons Ratio (x) = 0.06082 0.52261
# Poissons Ratio (y) = 0.10346 -0.07146
# Poissons Ratio (z) = 0.54251 -0.04361
#
# Static dielectric constant tensor:
#      x y z
#    x 1.861950 0.000000 0.000000 
#    y 0.000000 1.958180 0.000000 
#    z 0.000000 0.000000 1.835390 
# 
# From -- ./inp_files/36188.got.cif
#   From: 2010.05.17/outbox.cif.g08.bks.cpg/sg74_19_cif.got.tgz:36188.got - 2010.06.03 17:57:02.
