data_PCOD9535512
_publ_section_title
;
Structure prediction by ZEFSAII (Michael W. Deem and Ramdas Pophale) SiO2 
 PCOD9535512
Probable space group: I M M A
;
_chemical_formula_sum "Si O2"
_cell_formula_units_Z 112
_cell_length_a 13.436460
_cell_length_b 30.192037
_cell_length_c 14.648687
_cell_angle_alpha 90.000000
_cell_angle_beta 90.000000
_cell_angle_gamma 90.000000
_cell_volume 5942.592878
_symmetry_space_group_name_H-M "I M M A"
_symmetry_group_IT_number 74
_symmetry_cell_setting 'orthorhombic'
loop_
_space_group_symop_operation_xyz
x,y,z
-x,1/2-y,z
x,-y,-z
-x,1/2+y,-z
-x,-y,-z
x,1/2+y,-z
-x,y,z
x,1/2-y,z
1/2+x,1/2+y,1/2+z
1/2-x,-y,1/2+z
1/2+x,1/2-y,1/2-z
1/2-x,y,1/2-z
1/2-x,1/2-y,1/2-z
1/2+x,y,1/2-z
1/2-x,1/2+y,1/2+z
1/2+x,-y,1/2+z
loop_
_atom_site_type_symbol
_atom_site_label
_atom_site_fract_x
_atom_site_fract_y
_atom_site_fract_z
Si Si1 0.177298 0.406271 0.620883
Si Si2 0.114032 0.091140 0.313639
Si Si3 0.385614 0.439543 0.398240
Si Si4 0.254888 0.363887 0.050468
Si Si5 0.109764 0.619356 0.185042
Si Si6 0.283145 0.498964 0.144824
Si Si7 0.613871 0.301685 0.547565
O O1 0.169152 0.377807 0.529707
O O2 0.120570 0.384251 0.705723
O O3 0.294472 0.406321 0.648664
O O4 0.158361 0.458375 0.609518
O O5 0.121274 0.079645 0.206083
O O6 0.186785 0.128564 0.354974
O O7 0.149499 0.045036 0.358856
O O8 0.000000 0.101589 0.333753
O O9 0.500000 0.446411 0.421013
O O10 0.332034 0.401054 0.454086
O O11 0.319175 0.483561 0.402360
O O12 0.196696 0.319563 0.023101
O O13 0.120665 0.667731 0.138442
O O14 0.000000 0.602329 0.159543
O O15 0.250000 0.506918 0.250000
O O16 0.500000 0.307811 0.512541
O O17 0.627666 0.250000 0.567327
#
# Coordination Sequence:
#
# PCOD9535512 Si02
#       7
#    16  16  16  16  16  16  16
#     4  10  19  31  45  72 102 133 169 214 251 291
#     4   9  19  33  49  69  97 137 177 207 245 302
#     4   9  18  32  50  70  95 132 173 210 254 305
#     4  10  19  32  51  73 102 128 163 211 264 307
#     4   9  18  32  48  68  98 136 170 203 251 300
#     4   9  16  30  45  64  98 135 172 211 245 285
#     4   9  18  34  57  82 104 128 164 210 258 310
#
# _framework density 18.846992
#
# number of rings (size 3 to 8) (size 9 to 14) (size 15 to 20)
#    0.000    2.714    1.429    1.714    0.000    4.571 
#    0.000    7.143    0.000    2.143    0.000    2.000 
#    0.000    0.000    0.000    0.143    0.000    0.000 
#
# Total GULP energy -311898.505562 kJ/mol
# GULP energy per Si atom -5569.616171 kJ/mol
# Density = 1.880410 g / cm^3
# Si number density = 18.846992 Si / 1000 Ang^3
#
#
#
# Elastic Constant Matrix: (Units=GPa)
#
#
# Indices 1 2 3 4 5 6 
#
# 1 75.9469 20.3667 18.3709 0.0000 0.0000 0.0000
# 2 20.3667 74.6931 10.6095 0.0000 0.0000 0.0000
# 3 18.3709 10.6095 58.0392 -0.0001 -0.0001 0.0001
# 4 0.0000 0.0000 -0.0001 19.3635 0.0000 0.0000
# 5 0.0000 0.0000 -0.0001 0.0000 20.6746 0.0000
# 6 0.0000 0.0000 0.0001 0.0000 0.0000 13.8994
#
#
#
# Elastic Compliance Matrix: (Units=1/GPa)
#
#
# Indices 1 2 3 4 5 6 
#
# 1 0.015116 -0.003534 -0.004139 0.000000 0.000000 0.000000
# 2 -0.003534 0.014571 -0.001545 0.000000 0.000000 0.000000
# 3 -0.004139 -0.001545 0.018822 0.000000 0.000000 0.000000
# 4 0.000000 0.000000 0.000000 0.051644 0.000000 0.000000
# 5 0.000000 0.000000 0.000000 0.000000 0.048369 0.000000
# 6 0.000000 0.000000 0.000000 0.000000 0.000000 0.071945
#
#
# Mechanical properties :
#
#
# Convention : Reuss Voigt Hill
#
# Bulk Modulus (GPa) = 33.25106 34.15263 33.70184
# Shear Modulus (GPa) = 20.08627 21.40964 20.74796
#
# Velocity S-wave (km/s) = 3.26813 3.37407 3.32153
# Velocity P-wave (km/s) = 5.64994 5.77404 5.71233
#
# Compressibility (1/GPa) = 0.03007423
#
# Stress axis : x y z
#
# Youngs Moduli (GPa) = 66.15576 68.62876 53.12897
#
# Poissons Ratio (x) = 0.24252 0.21988
# Poissons Ratio (y) = 0.23378 0.08209
# Poissons Ratio (z) = 0.27379 0.10603
#
# Static dielectric constant tensor:
#      x y z
#    x 1.687110 0.000000 0.000000 
#    y 0.000000 1.626760 0.000000 
#    z 0.000000 0.000000 1.744450 
# 
# From -- ./inp_files/32899.got.cif
#   From: 2010.05.17/outbox.cif.g08.bks.cpg/sg74_17_cif.got.tgz:32899.got - 2010.06.03 17:57:02.
