data_PCOD9535027
_publ_section_title
;
Structure prediction by ZEFSAII (Michael W. Deem and Ramdas Pophale) SiO2 
 PCOD9535027
Probable space group: I M M A
;
_chemical_formula_sum "Si O2"
_cell_formula_units_Z 116
_cell_length_a 25.536480
_cell_length_b 7.624202
_cell_length_c 30.010440
_cell_angle_alpha 90.000000
_cell_angle_beta 90.000000
_cell_angle_gamma 90.000000
_cell_volume 5842.891075
_symmetry_space_group_name_H-M "I M M A"
_symmetry_group_IT_number 74
_symmetry_cell_setting 'orthorhombic'
loop_
_space_group_symop_operation_xyz
x,y,z
-x,1/2-y,z
x,-y,-z
-x,1/2+y,-z
-x,-y,-z
x,1/2+y,-z
-x,y,z
x,1/2-y,z
1/2+x,1/2+y,1/2+z
1/2-x,-y,1/2+z
1/2+x,1/2-y,1/2-z
1/2-x,y,1/2-z
1/2-x,1/2-y,1/2-z
1/2+x,y,1/2-z
1/2-x,1/2+y,1/2+z
1/2+x,-y,1/2+z
loop_
_atom_site_type_symbol
_atom_site_label
_atom_site_fract_x
_atom_site_fract_y
_atom_site_fract_z
Si Si1 0.265001 0.539742 0.049915
Si Si2 0.645487 0.960811 0.449360
Si Si3 0.695374 0.536871 0.141303
Si Si4 0.942109 0.959006 0.118534
Si Si5 0.085266 0.548445 0.315546
Si Si6 0.500000 0.750000 0.834977
Si Si7 0.284701 0.460792 0.706249
Si Si8 0.095919 0.051319 0.216119
O O1 0.262354 0.750000 0.053470
O O2 0.205197 0.472397 0.055442
O O3 0.301417 0.477577 0.090222
O O4 0.282887 0.500000 0.000000
O O5 0.648173 0.750000 0.444342
O O6 0.604443 0.028776 0.412867
O O7 0.628506 0.000000 0.500000
O O8 0.696621 0.750000 0.142587
O O9 0.643497 0.491748 0.168565
O O10 0.748648 0.479475 0.165506
O O11 0.943620 0.750000 0.111003
O O12 0.000000 0.030042 0.108182
O O13 0.929637 0.986227 0.170509
O O14 0.076093 0.750000 0.330652
O O15 0.083239 0.547929 0.261677
O O16 0.045144 0.405472 0.333020
O O17 0.293002 0.250000 0.702984
O O18 0.250000 0.493355 0.750000
O O19 0.341585 0.543018 0.709193
O O20 0.078298 0.250000 0.223617
#
# Coordination Sequence:
#
# PCOD9535027 Si02
#       8
#    16  16  16  16  16   4  16  16
#     4   9  17  32  54  84 118 150 185 228 289 360
#     4   9  18  34  56  79 110 146 189 241 299 365
#     4   9  18  35  60  86 117 155 197 236 290 362
#     4  10  22  38  56  76 100 148 207 255 302 353
#     4  11  23  42  64  86 118 160 198 249 300 349
#     4  12  26  44  60  92 118 152 210 244 296 352
#     4  10  18  33  57  81 110 153 195 234 289 361
#     4  12  24  37  52  82 119 153 200 250 302 357
#
# _framework density 19.853186000000001
#
# number of rings (size 3 to 8) (size 9 to 14) (size 15 to 20)
#    0.000    1.931    2.069    2.276    0.966    3.586 
#    2.483    2.759    0.000    0.000    0.000    0.483 
#    0.000    0.000    0.000    0.000    0.000    0.000 
#
# Total GULP energy -323337.856078 kJ/mol
# GULP energy per Si atom -5574.790622 kJ/mol
# Density = 1.980800 g / cm^3
# Si number density = 19.853186 Si / 1000 Ang^3
#
#
#
# Elastic Constant Matrix: (Units=GPa)
#
#
# Indices 1 2 3 4 5 6 
#
# 1 25.8619 12.5016 -4.9051 0.0000 0.0000 0.0000
# 2 12.5016 58.0091 -2.2163 0.0000 0.0000 0.0000
# 3 -4.9051 -2.2163 84.8595 0.0000 0.0000 0.0000
# 4 0.0000 0.0000 0.0000 13.8594 0.0000 0.0000
# 5 0.0000 0.0000 0.0000 0.0000 -82.8959 0.0000
# 6 0.0000 0.0000 0.0000 0.0000 0.0000 15.9188
#
#
#
# Elastic Compliance Matrix: (Units=1/GPa)
#
#
# Indices 1 2 3 4 5 6 
#
# 1 0.043599 -0.009309 0.002277 0.000000 0.000000 0.000000
# 2 -0.009309 0.019244 -0.000036 0.000000 0.000000 0.000000
# 3 0.002277 -0.000036 0.011915 0.000000 0.000000 0.000000
# 4 0.000000 0.000000 0.000000 0.072153 0.000000 0.000000
# 5 0.000000 0.000000 0.000000 0.000000 -0.012063 0.000000
# 6 0.000000 0.000000 0.000000 0.000000 0.000000 0.062819
#
#
# Mechanical properties :
#
#
# Convention : Reuss Voigt Hill
#
# Bulk Modulus (GPa) = 16.49564 19.94344 18.21954
# Shear Modulus (GPa) = 21.55100 0.26650 10.90875
#
# Velocity S-wave (km/s) = 3.29829 0.36678 2.34662
# Velocity P-wave (km/s) = 4.77827 3.20104 4.06685
#
# Compressibility (1/GPa) = 0.06062207
#
# Stress axis : x y z
#
# Youngs Moduli (GPa) = 22.93645 51.96550 83.92875
#
# Poissons Ratio (x) = 0.48375 -0.19111
# Poissons Ratio (y) = 0.21352 0.00298
# Poissons Ratio (z) = -0.05223 0.00185
#
# Static dielectric constant tensor:
#      x y z
#    x 1.688390 0.000000 0.000000 
#    y 0.000000 1.745530 0.000000 
#    z 0.000000 0.000000 1.703260 
# 
# From -- ./inp_files/73772.got.cif
#   From: 2010.05.17/outbox.cif.g08.bks.cpg/sg74_37_cif.got.tgz:73772.got - 2010.06.03 17:57:02.
