data_PCOD9535661
_publ_section_title
;
Structure prediction by ZEFSAII (Michael W. Deem and Ramdas Pophale) SiO2 
 PCOD9535661
Probable space group: I M M A
;
_chemical_formula_sum "Si O2"
_cell_formula_units_Z 104
_cell_length_a 26.114214
_cell_length_b 9.135303
_cell_length_c 21.581183
_cell_angle_alpha 90.000000
_cell_angle_beta 90.000000
_cell_angle_gamma 90.000000
_cell_volume 5148.434155
_symmetry_space_group_name_H-M "I M M A"
_symmetry_group_IT_number 74
_symmetry_cell_setting 'orthorhombic'
loop_
_space_group_symop_operation_xyz
x,y,z
-x,1/2-y,z
x,-y,-z
-x,1/2+y,-z
-x,-y,-z
x,1/2+y,-z
-x,y,z
x,1/2-y,z
1/2+x,1/2+y,1/2+z
1/2-x,-y,1/2+z
1/2+x,1/2-y,1/2-z
1/2-x,y,1/2-z
1/2-x,1/2-y,1/2-z
1/2+x,y,1/2-z
1/2-x,1/2+y,1/2+z
1/2+x,-y,1/2+z
loop_
_atom_site_type_symbol
_atom_site_label
_atom_site_fract_x
_atom_site_fract_y
_atom_site_fract_z
Si Si1 0.600211 0.923186 0.877447
Si Si2 0.442377 0.421028 0.649797
Si Si3 0.628230 0.583586 0.561125
Si Si4 0.500000 0.926677 0.068001
Si Si5 0.783386 0.580096 0.834576
Si Si6 0.206652 0.077158 0.436678
Si Si7 0.356510 0.922493 0.244125
O O1 0.588346 0.750000 0.871550
O O2 0.645893 0.938697 0.927330
O O3 0.550464 0.014234 0.897000
O O4 0.624693 0.986122 0.814641
O O5 0.500000 0.463078 0.667586
O O6 0.441983 0.250000 0.633009
O O7 0.421261 0.511759 0.592282
O O8 0.402699 0.437305 0.706110
O O9 0.644705 0.500000 0.500000
O O10 0.618065 0.750000 0.544811
O O11 0.672162 0.578022 0.613128
O O12 0.500000 0.750000 0.064136
O O13 0.500000 0.000000 0.000000
O O14 0.774955 0.750000 0.816580
O O15 0.734851 0.523205 0.873898
O O16 0.806211 0.489550 0.777303
O O17 0.218848 0.250000 0.440856
O O18 0.222987 0.000000 0.500000
O O19 0.349698 0.750000 0.230293
#
# Coordination Sequence:
#
# PCOD9535661 Si02
#       7
#    16  16  16   8  16  16  16
#     4  11  24  42  64  93 125 162 204 250 307 369
#     4   9  19  35  53  73 102 141 186 239 295 349
#     4  10  19  31  50  75 105 142 187 235 289 349
#     4  12  26  46  70  96 128 164 205 254 309 368
#     4   9  19  37  58  83 117 158 198 244 298 356
#     4  10  22  39  62  90 122 159 202 250 304 364
#     4  10  21  37  59  88 119 156 201 250 303 358
#
# _framework density 20.200316999999998
#
# number of rings (size 3 to 8) (size 9 to 14) (size 15 to 20)
#    0.000    2.000    0.000    3.000    1.077    5.538 
#    0.000    3.077    0.000    0.000    0.000    0.000 
#    0.000    0.000    0.000    0.000    0.000    0.000 
#
# Total GULP energy -290475.259341 kJ/mol
# GULP energy per Si atom -5586.062680 kJ/mol
# Density = 2.015434 g / cm^3
# Si number density = 20.200317 Si / 1000 Ang^3
#
#
#
# Elastic Constant Matrix: (Units=GPa)
#
#
# Indices 1 2 3 4 5 6 
#
# 1 119.5388 50.9576 32.7723 0.0000 0.0000 0.0000
# 2 50.9576 106.0299 65.9161 0.0000 0.0000 0.0000
# 3 32.7723 65.9161 107.7246 0.0000 0.0000 0.0000
# 4 0.0000 0.0000 0.0000 33.8653 0.0000 0.0000
# 5 0.0000 0.0000 0.0000 0.0000 16.9535 0.0000
# 6 0.0000 0.0000 0.0000 0.0000 0.0000 20.9208
#
#
#
# Elastic Compliance Matrix: (Units=1/GPa)
#
#
# Indices 1 2 3 4 5 6 
#
# 1 0.010523 -0.004950 -0.000172 0.000000 0.000000 0.000000
# 2 -0.004950 0.017550 -0.009233 0.000000 0.000000 0.000000
# 3 -0.000172 -0.009233 0.014985 0.000000 0.000000 0.000000
# 4 0.000000 0.000000 0.000000 0.029529 0.000000 0.000000
# 5 0.000000 0.000000 0.000000 0.000000 0.058985 0.000000
# 6 0.000000 0.000000 0.000000 0.000000 0.000000 0.047799
#
#
# Mechanical properties :
#
#
# Convention : Reuss Voigt Hill
#
# Bulk Modulus (GPa) = 69.69989 70.28727 69.99358
# Shear Modulus (GPa) = 23.48914 26.59106 25.04010
#
# Velocity S-wave (km/s) = 3.41370 3.63212 3.52460
# Velocity P-wave (km/s) = 7.07934 7.24295 7.16161
#
# Compressibility (1/GPa) = 0.01434723
#
# Stress axis : x y z
#
# Youngs Moduli (GPa) = 95.03080 56.97942 66.73360
#
# Poissons Ratio (x) = 0.28206 0.01150
# Poissons Ratio (y) = 0.47041 0.61615
# Poissons Ratio (z) = 0.01638 0.52609
#
# Static dielectric constant tensor:
#      x y z
#    x 1.737050 0.000000 0.000000 
#    y 0.000000 1.687270 0.000000 
#    z 0.000000 0.000000 1.709840 
# 
# From -- ./inp_files/55205.got.cif
#   From: 2010.05.17/outbox.cif.g08.bks.cpg/sg74_28_cif.got.tgz:55205.got - 2010.06.03 17:57:02.
