data_PCOD9535708
_publ_section_title
;
Structure prediction by ZEFSAII (Michael W. Deem and Ramdas Pophale) SiO2 
 PCOD9535708
Probable space group: I M M A
;
_chemical_formula_sum "Si O2"
_cell_formula_units_Z 80
_cell_length_a 14.472040
_cell_length_b 26.301234
_cell_length_c 9.465717
_cell_angle_alpha 90.000000
_cell_angle_beta 90.000000
_cell_angle_gamma 90.000000
_cell_volume 3602.959625
_symmetry_space_group_name_H-M "I M M A"
_symmetry_group_IT_number 74
_symmetry_cell_setting 'orthorhombic'
loop_
_space_group_symop_operation_xyz
x,y,z
-x,1/2-y,z
x,-y,-z
-x,1/2+y,-z
-x,-y,-z
x,1/2+y,-z
-x,y,z
x,1/2-y,z
1/2+x,1/2+y,1/2+z
1/2-x,-y,1/2+z
1/2+x,1/2-y,1/2-z
1/2-x,y,1/2-z
1/2-x,1/2-y,1/2-z
1/2+x,y,1/2-z
1/2-x,1/2+y,1/2+z
1/2+x,-y,1/2+z
loop_
_atom_site_type_symbol
_atom_site_label
_atom_site_fract_x
_atom_site_fract_y
_atom_site_fract_z
Si Si1 0.352705 0.306993 0.689048
Si Si2 0.105469 0.907291 0.351687
Si Si3 0.387031 0.600267 0.832842
Si Si4 0.613007 0.000602 0.660833
Si Si5 0.887908 0.692476 0.863166
O O1 0.392946 0.250000 0.707583
O O2 0.250000 0.305181 0.750000
O O3 0.397096 0.353261 0.773649
O O4 0.353984 0.317960 0.522065
O O5 0.148727 0.902445 0.506797
O O6 0.144328 0.949940 0.247419
O O7 0.000000 0.924155 0.377918
O O8 0.500000 0.602365 0.836916
O O9 0.361993 0.550192 0.745254
O O10 0.357880 0.650580 0.749089
O O11 0.500000 0.001894 0.653710
O O12 0.646943 0.000000 0.500000
O O13 0.861190 0.750000 0.823591
O O14 0.000000 0.690862 0.870956
#
# Coordination Sequence:
#
# PCOD9535708 Si02
#       5
#    16  16  16  16  16
#     4  10  21  36  52  71  98 132 168 207 252 302
#     4  10  19  31  51  77 102 129 165 210 253 295
#     4   9  17  29  48  77 108 132 161 206 254 297
#     4   9  16  27  47  75 104 133 165 201 245 297
#     4   9  17  31  52  76 102 134 171 208 247 296
#
# _framework density 22.203969000000001
#
# number of rings (size 3 to 8) (size 9 to 14) (size 15 to 20)
#    0.000    2.600    0.000    2.400    0.000    7.600 
#    0.000    3.000    0.000   10.800    0.000    0.000 
#    0.000    0.000    0.000    0.000    0.000    0.000 
#
# Total GULP energy -223500.999403 kJ/mol
# GULP energy per Si atom -5587.524985 kJ/mol
# Density = 2.215343 g / cm^3
# Si number density = 22.203969 Si / 1000 Ang^3
#
#
#
# Elastic Constant Matrix: (Units=GPa)
#
#
# Indices 1 2 3 4 5 6 
#
# 1 63.3531 3.9878 12.1848 -0.0007 0.0000 -0.0001
# 2 3.9878 180.6515 155.4036 0.0025 0.0000 0.0007
# 3 12.1848 155.4036 239.8311 0.0065 0.0020 0.0074
# 4 -0.0007 0.0025 0.0065 60.9833 -0.0011 -0.0039
# 5 0.0000 0.0000 0.0020 -0.0011 -0.8328 -0.0036
# 6 -0.0001 0.0007 0.0074 -0.0039 -0.0036 -74.3057
#
#
#
# Elastic Compliance Matrix: (Units=1/GPa)
#
#
# Indices 1 2 3 4 5 6 
#
# 1 0.015989 0.000781 -0.001319 0.000000 -0.000003 0.000000
# 2 0.000781 0.012545 -0.008169 0.000000 -0.000020 -0.000001
# 3 -0.001319 -0.008169 0.009530 -0.000001 0.000023 0.000001
# 4 0.000000 0.000000 -0.000001 0.016398 -0.000021 -0.000001
# 5 -0.000003 -0.000020 0.000023 -0.000021 -1.200811 0.000058
# 6 0.000000 -0.000001 0.000001 -0.000001 0.000058 -0.013458
#
#
# Mechanical properties :
#
#
# Convention : Reuss Voigt Hill
#
# Bulk Modulus (GPa) = 48.42128 91.88755 70.15441
# Shear Modulus (GPa) = -4.40330 17.98626 6.79148
#
# Velocity S-wave (km/s) = -1.40976 2.84922 1.75081
# Velocity P-wave (km/s) = 4.38234 7.23169 5.97922
#
# Compressibility (1/GPa) = 0.02065208
#
# Stress axis : x y z
#
# Youngs Moduli (GPa) = 62.54307 79.71113 104.93544
#
# Poissons Ratio (x) = -0.06229 0.13838
# Poissons Ratio (y) = -0.04887 0.85718
# Poissons Ratio (z) = 0.08247 0.65114
#
# Static dielectric constant tensor:
#      x y z
#    x 1.927480 0.000000 0.000000 
#    y 0.000000 1.787800 0.000000 
#    z 0.000000 0.000000 1.765620 
# 
# From -- ./inp_files/10874.got.cif
#   From: 2010.05.17/outbox.cif.g08.bks.cpg/sg74_6_cif.got.tgz:10874.got - 2010.06.03 17:57:02.
