data_PCOD9535972
_publ_section_title
;
Structure prediction by ZEFSAII (Michael W. Deem and Ramdas Pophale) SiO2 
 PCOD9535972
Probable space group: I M M A
;
_chemical_formula_sum "Si O2"
_cell_formula_units_Z 96
_cell_length_a 15.888695
_cell_length_b 19.135801
_cell_length_c 15.201028
_cell_angle_alpha 90.000000
_cell_angle_beta 90.000000
_cell_angle_gamma 90.000000
_cell_volume 4621.764722
_symmetry_space_group_name_H-M "I M M A"
_symmetry_group_IT_number 74
_symmetry_cell_setting 'orthorhombic'
loop_
_space_group_symop_operation_xyz
x,y,z
-x,1/2-y,z
x,-y,-z
-x,1/2+y,-z
-x,-y,-z
x,1/2+y,-z
-x,y,z
x,1/2-y,z
1/2+x,1/2+y,1/2+z
1/2-x,-y,1/2+z
1/2+x,1/2-y,1/2-z
1/2-x,y,1/2-z
1/2-x,1/2-y,1/2-z
1/2+x,y,1/2-z
1/2-x,1/2+y,1/2+z
1/2+x,-y,1/2+z
loop_
_atom_site_type_symbol
_atom_site_label
_atom_site_fract_x
_atom_site_fract_y
_atom_site_fract_z
Si Si1 0.094242 0.894010 0.345003
Si Si2 0.671911 0.449743 0.673087
Si Si3 0.651126 0.327580 0.028576
Si Si4 0.500000 0.172844 0.430785
Si Si5 0.500000 0.482146 0.393905
Si Si6 0.829437 0.175065 0.959040
Si Si7 0.826751 0.526291 0.596269
O O1 0.156004 0.903713 0.261761
O O2 0.122433 0.846817 0.428234
O O3 0.000000 0.873995 0.317921
O O4 0.098687 0.973409 0.380021
O O5 0.583358 0.486009 0.649763
O O6 0.686381 0.390658 0.600934
O O7 0.746516 0.507062 0.657987
O O8 0.618598 0.250000 0.051734
O O9 0.752412 0.323866 0.026377
O O10 0.637803 0.395419 0.089228
O O11 0.500000 0.250000 0.387313
O O12 0.500000 0.101008 0.378116
O O13 0.582316 0.169342 0.492048
O O14 0.500000 0.500000 0.500000
O O15 0.827756 0.250000 0.910745
O O16 0.797868 0.500000 0.500000
#
# Coordination Sequence:
#
# PCOD9535972 Si02
#       7
#    16  16  16   8   8  16  16
#     4  11  24  39  57  88 121 157 199 247 306 361
#     4  12  20  36  55  90 121 156 197 243 300 366
#     4  10  22  40  62  88 117 156 204 250 299 355
#     4  10  20  32  50  84 120 154 188 232 292 349
#     4  12  20  30  58  82 117 156 203 246 280 360
#     4  10  19  32  52  83 120 151 187 230 288 353
#     4  10  20  37  63  84 113 153 205 254 293 346
#
# _framework density 20.771287000000001
#
# number of rings (size 3 to 8) (size 9 to 14) (size 15 to 20)
#    0.000    1.333    5.833    2.000    0.000    4.000 
#    0.000    1.667    0.000    3.000    0.000    0.000 
#    0.000    0.000    0.000    0.000    0.000    0.000 
#
# Total GULP energy -267283.654502 kJ/mol
# GULP energy per Si atom -5568.409469 kJ/mol
# Density = 2.072401 g / cm^3
# Si number density = 20.771287 Si / 1000 Ang^3
#
#
#
# Elastic Constant Matrix: (Units=GPa)
#
#
# Indices 1 2 3 4 5 6 
#
# 1 63.2575 -19.7687 -4.7569 0.0000 0.0000 0.0000
# 2 -19.7687 143.3299 -9.6705 0.0000 0.0000 0.0000
# 3 -4.7569 -9.6705 18.3056 0.0000 0.0000 0.0000
# 4 0.0000 0.0000 0.0000 17.2861 0.0000 0.0000
# 5 0.0000 0.0000 0.0000 0.0000 17.5378 0.0000
# 6 0.0000 0.0000 0.0000 0.0000 0.0000 15.3206
#
#
#
# Elastic Compliance Matrix: (Units=1/GPa)
#
#
# Indices 1 2 3 4 5 6 
#
# 1 0.017115 0.002759 0.005905 0.000000 0.000000 0.000000
# 2 0.002759 0.007680 0.004774 0.000000 0.000000 0.000000
# 3 0.005905 0.004774 0.058685 0.000000 0.000000 0.000000
# 4 0.000000 0.000000 0.000000 0.057850 0.000000 0.000000
# 5 0.000000 0.000000 0.000000 0.000000 0.057020 0.000000
# 6 0.000000 0.000000 0.000000 0.000000 0.000000 0.065272
#
#
# Mechanical properties :
#
#
# Convention : Reuss Voigt Hill
#
# Bulk Modulus (GPa) = 9.06171 17.38895 13.22533
# Shear Modulus (GPa) = 18.27957 27.30150 22.79054
#
# Velocity S-wave (km/s) = 2.96977 3.62938 3.31601
# Velocity P-wave (km/s) = 4.01640 5.09441 4.58718
#
# Compressibility (1/GPa) = 0.11035445
#
# Stress axis : x y z
#
# Youngs Moduli (GPa) = 58.42946 130.21619 17.04023
#
# Poissons Ratio (x) = -0.35926 -0.10062
# Poissons Ratio (y) = -0.16120 -0.08135
# Poissons Ratio (z) = -0.34502 -0.62164
#
# Static dielectric constant tensor:
#      x y z
#    x 1.770820 0.000000 0.000000 
#    y 0.000000 1.800160 0.000000 
#    z 0.000000 0.000000 1.860900 
# 
# From -- ./inp_files/32465.got.cif
#   From: 2010.05.17/outbox.cif.g08.bks.cpg/sg74_17_cif.got.tgz:32465.got - 2010.06.03 17:57:02.
