data_PCOD9535095
_publ_section_title
;
Structure prediction by ZEFSAII (Michael W. Deem and Ramdas Pophale) SiO2 
 PCOD9535095
Probable space group: I M M A
;
_chemical_formula_sum "Si O2"
_cell_formula_units_Z 104
_cell_length_a 21.894853
_cell_length_b 10.498042
_cell_length_c 24.374463
_cell_angle_alpha 90.000000
_cell_angle_beta 90.000000
_cell_angle_gamma 90.000000
_cell_volume 5602.545549
_symmetry_space_group_name_H-M "I M M A"
_symmetry_group_IT_number 74
_symmetry_cell_setting 'orthorhombic'
loop_
_space_group_symop_operation_xyz
x,y,z
-x,1/2-y,z
x,-y,-z
-x,1/2+y,-z
-x,-y,-z
x,1/2+y,-z
-x,y,z
x,1/2-y,z
1/2+x,1/2+y,1/2+z
1/2-x,-y,1/2+z
1/2+x,1/2-y,1/2-z
1/2-x,y,1/2-z
1/2-x,1/2-y,1/2-z
1/2+x,y,1/2-z
1/2-x,1/2+y,1/2+z
1/2+x,-y,1/2+z
loop_
_atom_site_type_symbol
_atom_site_label
_atom_site_fract_x
_atom_site_fract_y
_atom_site_fract_z
Si Si1 0.281351 0.606321 0.633717
Si Si2 0.429679 0.115618 0.530499
Si Si3 0.383900 0.604176 0.353425
Si Si4 0.883083 0.897436 0.267658
Si Si5 0.250000 0.993709 0.750000
Si Si6 0.670063 0.601718 0.951069
Si Si7 0.072480 0.897097 0.643711
O O1 0.305593 0.750000 0.627230
O O2 0.332377 0.497773 0.631674
O O3 0.254874 0.590132 0.695180
O O4 0.228619 0.585980 0.588904
O O5 0.500000 0.122092 0.511832
O O6 0.399172 0.250000 0.517649
O O7 0.429328 0.099352 0.595593
O O8 0.398484 0.000000 0.500000
O O9 0.359529 0.750000 0.351059
O O10 0.410667 0.579188 0.293178
O O11 0.893754 0.750000 0.283563
O O12 0.810841 0.922106 0.257596
O O13 0.906968 0.999296 0.311352
O O14 0.669723 0.750000 0.970179
O O15 0.611351 0.582895 0.911639
O O16 0.671174 0.500000 0.000000
O O17 0.085254 0.750000 0.661744
O O18 0.000000 0.908062 0.634400
#
# Coordination Sequence:
#
# PCOD9535095 Si02
#       7
#    16  16  16  16   8  16  16
#     4  10  20  34  56  83 111 145 185 225 273 332
#     4   9  18  34  54  73  99 140 185 227 272 322
#     4   9  20  35  52  80 115 148 181 224 281 336
#     4  10  20  34  56  86 116 146 184 228 277 336
#     4  10  18  34  58  84 114 146 180 224 278 326
#     4  10  22  40  58  83 112 148 191 235 285 335
#     4  10  22  41  61  82 114 152 191 238 289 338
#
# _framework density 18.562989999999999
#
# number of rings (size 3 to 8) (size 9 to 14) (size 15 to 20)
#    0.000    2.308    1.538    0.462    0.000    6.769 
#    0.000    4.615    0.000    1.846    0.000    0.000 
#    0.000    0.000    0.000    0.000    0.000    0.000 
#
# Total GULP energy -289760.850514 kJ/mol
# GULP energy per Si atom -5572.324048 kJ/mol
# Density = 1.852074 g / cm^3
# Si number density = 18.562990 Si / 1000 Ang^3
#
#
#
# Elastic Constant Matrix: (Units=GPa)
#
#
# Indices 1 2 3 4 5 6 
#
# 1 41.8913 48.7812 22.1650 0.0000 0.0000 0.0000
# 2 48.7812 160.6203 98.6813 0.0000 0.0000 0.0000
# 3 22.1650 98.6813 105.6865 0.0000 0.0000 0.0000
# 4 0.0000 0.0000 0.0000 35.8974 0.0000 0.0000
# 5 0.0000 0.0000 0.0000 0.0000 20.9888 0.0000
# 6 0.0000 0.0000 0.0000 0.0000 0.0000 2.5929
#
#
#
# Elastic Compliance Matrix: (Units=1/GPa)
#
#
# Indices 1 2 3 4 5 6 
#
# 1 0.038874 -0.015943 0.006734 0.000000 0.000000 0.000000
# 2 -0.015943 0.021142 -0.016397 0.000000 0.000000 0.000000
# 3 0.006734 -0.016397 0.023360 0.000000 0.000000 0.000000
# 4 0.000000 0.000000 0.000000 0.027857 0.000000 0.000000
# 5 0.000000 0.000000 0.000000 0.000000 0.047644 0.000000
# 6 0.000000 0.000000 0.000000 0.000000 0.000000 0.385664
#
#
# Mechanical properties :
#
#
# Convention : Reuss Voigt Hill
#
# Bulk Modulus (GPa) = 31.09189 71.93925 51.51557
# Shear Modulus (GPa) = 8.24437 21.13385 14.68911
#
# Velocity S-wave (km/s) = 2.10972 3.37782 2.81608
# Velocity P-wave (km/s) = 4.76659 7.35195 6.19562
#
# Compressibility (1/GPa) = 0.03216273
#
# Stress axis : x y z
#
# Youngs Moduli (GPa) = 25.72420 47.30007 42.80906
#
# Poissons Ratio (x) = 0.75412 -0.28826
# Poissons Ratio (y) = 0.41013 0.70192
# Poissons Ratio (z) = -0.17322 0.77556
#
# Static dielectric constant tensor:
#      x y z
#    x 1.649880 0.000000 0.000000 
#    y 0.000000 1.690200 0.000000 
#    z 0.000000 0.000000 1.639650 
# 
# From -- ./inp_files/68674.got.cif
#   From: 2010.05.17/outbox.cif.g08.bks.cpg/sg74_35_cif.got.tgz:68674.got - 2010.06.03 17:57:02.
