data_PCOD9535358
_publ_section_title
;
Structure prediction by ZEFSAII (Michael W. Deem and Ramdas Pophale) SiO2 
 PCOD9535358
Probable space group: I M M A
;
_chemical_formula_sum "Si O2"
_cell_formula_units_Z 100
_cell_length_a 8.932909
_cell_length_b 28.916494
_cell_length_c 28.723932
_cell_angle_alpha 90.000000
_cell_angle_beta 90.000000
_cell_angle_gamma 90.000000
_cell_volume 7419.633190
_symmetry_space_group_name_H-M "I M M A"
_symmetry_group_IT_number 74
_symmetry_cell_setting 'orthorhombic'
loop_
_space_group_symop_operation_xyz
x,y,z
-x,1/2-y,z
x,-y,-z
-x,1/2+y,-z
-x,-y,-z
x,1/2+y,-z
-x,y,z
x,1/2-y,z
1/2+x,1/2+y,1/2+z
1/2-x,-y,1/2+z
1/2+x,1/2-y,1/2-z
1/2-x,y,1/2-z
1/2-x,1/2-y,1/2-z
1/2+x,y,1/2-z
1/2-x,1/2+y,1/2+z
1/2+x,-y,1/2+z
loop_
_atom_site_type_symbol
_atom_site_label
_atom_site_fract_x
_atom_site_fract_y
_atom_site_fract_z
Si Si1 0.320341 0.197046 0.567790
Si Si2 0.827691 0.961017 0.959365
Si Si3 0.321737 0.068541 0.700022
Si Si4 0.750000 0.250000 0.750000
Si Si5 0.321715 0.324084 0.675823
Si Si6 0.679102 0.969004 0.107580
Si Si7 0.678802 0.606734 0.028462
O O1 0.500000 0.193009 0.562195
O O2 0.277302 0.250000 0.557372
O O3 0.288076 0.186457 0.622130
O O4 0.240561 0.157684 0.537966
O O5 0.000000 0.951530 0.947446
O O6 0.741092 0.984816 0.916883
O O7 0.749342 0.917139 0.983004
O O8 0.826103 0.000000 0.000000
O O9 0.500000 0.061738 0.701495
O O10 0.250000 0.058080 0.750000
O O11 0.294025 0.122673 0.688079
O O12 0.250721 0.040060 0.657652
O O13 0.764734 0.209709 0.709917
O O14 0.500000 0.313962 0.683220
O O15 0.500000 0.970530 0.110635
O O16 0.719569 0.926194 0.072812
O O17 0.500000 0.606604 0.024920
#
# Coordination Sequence:
#
# PCOD9535358 Si02
#       7
#    16  16  16   4  16  16  16
#     4  10  19  32  47  60  79 110 147 182 222 269
#     4   9  17  29  47  68  86 108 136 166 209 263
#     4  11  21  33  46  61  82 110 144 181 224 269
#     4  12  18  32  44  58  72 100 146 196 238 272
#     4  10  20  31  43  56  74 102 140 185 230 271
#     4  10  19  31  46  66  88 109 136 174 220 265
#     4  10  19  30  45  65  89 110 135 176 221 264
#
# _framework density 13.477755
#
# number of rings (size 3 to 8) (size 9 to 14) (size 15 to 20)
#    0.000    1.920    3.200    2.160    0.000    3.520 
#    0.000    1.600    0.000    0.000    0.000    0.000 
#    0.000    0.000    0.000    0.000    0.000    0.800 
#
# Total GULP energy -278430.741471 kJ/mol
# GULP energy per Si atom -5568.614829 kJ/mol
# Density = 1.344708 g / cm^3
# Si number density = 13.477755 Si / 1000 Ang^3
#
#
#
# Elastic Constant Matrix: (Units=GPa)
#
#
# Indices 1 2 3 4 5 6 
#
# 1 50.5027 42.7337 47.1859 0.0000 0.0000 0.0000
# 2 42.7337 81.2963 61.3826 0.0000 0.0000 0.0000
# 3 47.1859 61.3826 85.9785 0.0000 0.0000 0.0000
# 4 0.0000 0.0000 0.0000 30.6633 0.0000 0.0000
# 5 0.0000 0.0000 0.0000 0.0000 15.5504 0.0000
# 6 0.0000 0.0000 0.0000 0.0000 0.0000 11.3122
#
#
#
# Elastic Compliance Matrix: (Units=1/GPa)
#
#
# Indices 1 2 3 4 5 6 
#
# 1 0.044598 -0.010766 -0.016789 0.000000 0.000000 0.000000
# 2 -0.010766 0.029285 -0.014999 0.000000 0.000000 0.000000
# 3 -0.016789 -0.014999 0.031553 0.000000 0.000000 0.000000
# 4 0.000000 0.000000 0.000000 0.032612 0.000000 0.000000
# 5 0.000000 0.000000 0.000000 0.000000 0.064307 0.000000
# 6 0.000000 0.000000 0.000000 0.000000 0.000000 0.088400
#
#
# Mechanical properties :
#
#
# Convention : Reuss Voigt Hill
#
# Bulk Modulus (GPa) = 49.19572 57.82021 53.50797
# Shear Modulus (GPa) = 13.06719 15.93688 14.50204
#
# Velocity S-wave (km/s) = 3.11712 3.44242 3.28380
# Velocity P-wave (km/s) = 7.03817 7.66772 7.35968
#
# Compressibility (1/GPa) = 0.02032697
#
# Stress axis : x y z
#
# Youngs Moduli (GPa) = 22.42278 34.14772 31.69278
#
# Poissons Ratio (x) = 0.36764 0.53210
# Poissons Ratio (y) = 0.24140 0.47535
# Poissons Ratio (z) = 0.37646 0.51217
#
# Static dielectric constant tensor:
#      x y z
#    x 1.464600 0.000000 0.000000 
#    y 0.000000 1.426100 0.000000 
#    z 0.000000 0.000000 1.419900 
# 
# From -- ./inp_files/65261.got.cif
#   From: 2010.05.17/outbox.cif.g08.bks.cpg/sg74_33_cif.got.tgz:65261.got - 2010.06.03 17:57:02.
