data_PCOD9535199
_publ_section_title
;
Structure prediction by ZEFSAII (Michael W. Deem and Ramdas Pophale) SiO2 
 PCOD9535199
Probable space group: I M M A
;
_chemical_formula_sum "Si O2"
_cell_formula_units_Z 96
_cell_length_a 7.473501
_cell_length_b 32.791569
_cell_length_c 29.504044
_cell_angle_alpha 90.000000
_cell_angle_beta 90.000000
_cell_angle_gamma 90.000000
_cell_volume 7230.491854
_symmetry_space_group_name_H-M "I M M A"
_symmetry_group_IT_number 74
_symmetry_cell_setting 'orthorhombic'
loop_
_space_group_symop_operation_xyz
x,y,z
-x,1/2-y,z
x,-y,-z
-x,1/2+y,-z
-x,-y,-z
x,1/2+y,-z
-x,y,z
x,1/2-y,z
1/2+x,1/2+y,1/2+z
1/2-x,-y,1/2+z
1/2+x,1/2-y,1/2-z
1/2-x,y,1/2-z
1/2-x,1/2-y,1/2-z
1/2+x,y,1/2-z
1/2-x,1/2+y,1/2+z
1/2+x,-y,1/2+z
loop_
_atom_site_type_symbol
_atom_site_label
_atom_site_fract_x
_atom_site_fract_y
_atom_site_fract_z
Si Si1 0.282376 0.295064 0.061858
Si Si2 0.717937 0.794882 0.832145
Si Si3 0.790301 0.379819 0.476002
Si Si4 0.713508 0.881521 0.800546
Si Si5 0.500000 0.989029 0.574435
Si Si6 0.209995 0.434347 0.385308
Si Si7 0.500000 0.066135 0.516998
O O1 0.500000 0.295946 0.061525
O O2 0.225416 0.250000 0.046614
O O3 0.224905 0.333773 0.032762
O O4 0.232262 0.299453 0.114800
O O5 0.500000 0.794378 0.830381
O O6 0.778461 0.750000 0.816267
O O7 0.782346 0.835151 0.806552
O O8 0.774793 0.402672 0.427311
O O9 0.672219 0.405087 0.511166
O O10 0.000000 0.379694 0.488065
O O11 0.500000 0.879331 0.807036
O O12 0.750000 0.896178 0.750000
O O13 0.777149 0.911186 0.840409
O O14 0.672444 0.973335 0.601784
O O15 0.500000 0.962951 0.527597
O O16 0.500000 0.035945 0.559573
O O17 0.000000 0.444353 0.380509
#
# Coordination Sequence:
#
# PCOD9535199 Si02
#       7
#    16  16  16  16   8  16   8
#     4   8  12  20  37  56  71  96 131 158 187 226
#     4   8  13  23  38  52  67  90 124 160 193 235
#     4   9  15  26  42  57  77  99 121 153 188 225
#     4  10  19  28  38  55  71  92 126 158 197 242
#     4   9  18  30  44  56  78  94 114 146 194 241
#     4   9  17  29  43  56  72  96 123 150 190 239
#     4   9  18  28  39  64  76  92 117 148 188 245
#
# _framework density 13.277105000000001
#
# number of rings (size 3 to 8) (size 9 to 14) (size 15 to 20)
#    0.000    3.167    1.667    1.000    1.167    1.000 
#    0.000    3.750    0.000    0.000    0.000    0.000 
#    0.000    0.000    0.000    0.000    0.000    0.000 
#
# Total GULP energy -267389.718806 kJ/mol
# GULP energy per Si atom -5570.619142 kJ/mol
# Density = 1.324689 g / cm^3
# Si number density = 13.277105 Si / 1000 Ang^3
#
#
#
# Elastic Constant Matrix: (Units=GPa)
#
#
# Indices 1 2 3 4 5 6 
#
# 1 54.1038 30.8654 20.6506 0.0000 0.0000 0.0000
# 2 30.8654 79.6355 43.4812 0.0000 0.0000 0.0000
# 3 20.6506 43.4812 44.1061 0.0000 0.0000 0.0000
# 4 0.0000 0.0000 0.0000 15.7986 0.0000 0.0000
# 5 0.0000 0.0000 0.0000 0.0000 8.7740 0.0000
# 6 0.0000 0.0000 0.0000 0.0000 0.0000 -19.9322
#
#
#
# Elastic Compliance Matrix: (Units=1/GPa)
#
#
# Indices 1 2 3 4 5 6 
#
# 1 0.024136 -0.006897 -0.004501 0.000000 0.000000 0.000000
# 2 -0.006897 0.029167 -0.025524 0.000000 0.000000 0.000000
# 3 -0.004501 -0.025524 0.049943 0.000000 0.000000 0.000000
# 4 0.000000 0.000000 0.000000 0.063297 0.000000 0.000000
# 5 0.000000 0.000000 0.000000 0.000000 0.113973 0.000000
# 6 0.000000 0.000000 0.000000 0.000000 0.000000 -0.050170
#
#
# Mechanical properties :
#
#
# Convention : Reuss Voigt Hill
#
# Bulk Modulus (GPa) = 34.01327 40.87107 37.44217
# Shear Modulus (GPa) = 15.92413 6.45132 11.18773
#
# Velocity S-wave (km/s) = 3.46695 2.20670 2.90596
# Velocity P-wave (km/s) = 6.45754 6.11086 6.28659
#
# Compressibility (1/GPa) = 0.02940029
#
# Stress axis : x y z
#
# Youngs Moduli (GPa) = 41.43263 34.28576 20.02296
#
# Poissons Ratio (x) = 0.23647 0.09013
# Poissons Ratio (y) = 0.28576 0.51107
# Poissons Ratio (z) = 0.18649 0.87512
#
# Static dielectric constant tensor:
#      x y z
#    x 1.488940 0.000000 0.000000 
#    y 0.000000 1.442510 0.000000 
#    z 0.000000 0.000000 1.403390 
# 
# From -- ./inp_files/57519.got.cif
#   From: 2010.05.17/outbox.cif.g08.bks.cpg/sg74_29_cif.got.tgz:57519.got - 2010.06.03 17:57:02.
