data_PCOD9535407
_publ_section_title
;
Structure prediction by ZEFSAII (Michael W. Deem and Ramdas Pophale) SiO2 
 PCOD9535407
Probable space group: I M M A
;
_chemical_formula_sum "Si O2"
_cell_formula_units_Z 96
_cell_length_a 22.608508
_cell_length_b 15.098470
_cell_length_c 15.626913
_cell_angle_alpha 90.000000
_cell_angle_beta 90.000000
_cell_angle_gamma 90.000000
_cell_volume 5334.307382
_symmetry_space_group_name_H-M "I M M A"
_symmetry_group_IT_number 74
_symmetry_cell_setting 'orthorhombic'
loop_
_space_group_symop_operation_xyz
x,y,z
-x,1/2-y,z
x,-y,-z
-x,1/2+y,-z
-x,-y,-z
x,1/2+y,-z
-x,y,z
x,1/2-y,z
1/2+x,1/2+y,1/2+z
1/2-x,-y,1/2+z
1/2+x,1/2-y,1/2-z
1/2-x,y,1/2-z
1/2-x,1/2-y,1/2-z
1/2+x,y,1/2-z
1/2-x,1/2+y,1/2+z
1/2+x,-y,1/2+z
loop_
_atom_site_type_symbol
_atom_site_label
_atom_site_fract_x
_atom_site_fract_y
_atom_site_fract_z
Si Si1 0.781723 0.250000 0.344291
Si Si2 0.843395 0.750000 0.936941
Si Si3 0.889742 0.000000 0.500000
Si Si4 0.680861 0.947495 0.257716
Si Si5 0.934616 0.750000 0.780461
Si Si6 0.315081 0.407501 0.549975
Si Si7 0.116246 0.396132 0.338396
Si Si8 0.683758 0.347751 0.907292
O O1 0.750000 0.250000 0.250000
O O2 0.724924 0.250000 0.405236
O O3 0.825406 0.165553 0.358378
O O4 0.885026 0.750000 0.853986
O O5 0.851698 0.837830 0.993931
O O6 0.914952 0.059454 0.421507
O O7 0.851163 0.073416 0.548360
O O8 0.750000 0.976465 0.250000
O O9 0.663059 0.927261 0.354348
O O10 0.677445 0.863687 0.194310
O O11 0.641176 0.024772 0.219338
O O12 0.924675 0.833853 0.718629
O O13 0.000000 0.750000 0.817769
O O14 0.308028 0.500000 0.500000
O O15 0.251488 0.362638 0.566984
O O16 0.663726 0.250000 0.932068
#
# Coordination Sequence:
#
# PCOD9535407 Si02
#       8
#     8   8   8  16   8  16  16  16
#     4  11  20  30  52  81 110 145 191 209 280 331
#     4  12  23  35  57  80 107 148 186 240 276 335
#     4  10  20  32  51  86 108 148 185 216 272 334
#     4   9  20  31  49  75 118 153 177 214 271 337
#     4  11  25  42  60  80 106 144 191 244 293 326
#     4  11  21  30  47  74 110 148 196 220 262 325
#     4  10  20  36  57  80 114 144 178 230 273 340
#     4  10  19  30  46  72 120 156 177 212 265 327
#
# _framework density 17.996713
#
# number of rings (size 3 to 8) (size 9 to 14) (size 15 to 20)
#    0.000    1.667    3.333    2.500    8.167    1.000 
#    0.000    0.417    0.000    4.500    0.000    0.000 
#    0.000    0.000    0.000    0.000    0.000    0.000 
#
# Total GULP energy -267564.960461 kJ/mol
# GULP energy per Si atom -5574.270010 kJ/mol
# Density = 1.795575 g / cm^3
# Si number density = 17.996713 Si / 1000 Ang^3
#
#
#
# Elastic Constant Matrix: (Units=GPa)
#
#
# Indices 1 2 3 4 5 6 
#
# 1 35.6633 10.7327 10.2673 0.0000 0.0000 0.0000
# 2 10.7327 118.5680 50.9171 0.0000 0.0000 0.0000
# 3 10.2673 50.9171 138.3793 0.0000 0.0000 0.0000
# 4 0.0000 0.0000 0.0000 25.8032 0.0000 0.0000
# 5 0.0000 0.0000 0.0000 0.0000 0.8849 0.0000
# 6 0.0000 0.0000 0.0000 0.0000 0.0000 1.3808
#
#
#
# Elastic Compliance Matrix: (Units=1/GPa)
#
#
# Indices 1 2 3 4 5 6 
#
# 1 0.029055 -0.002024 -0.001411 0.000000 0.000000 0.000000
# 2 -0.002024 0.010158 -0.003587 0.000000 0.000000 0.000000
# 3 -0.001411 -0.003587 0.008651 0.000000 0.000000 0.000000
# 4 0.000000 0.000000 0.000000 0.038755 0.000000 0.000000
# 5 0.000000 0.000000 0.000000 0.000000 1.130080 0.000000
# 6 0.000000 0.000000 0.000000 0.000000 0.000000 0.724233
#
#
# Mechanical properties :
#
#
# Convention : Reuss Voigt Hill
#
# Bulk Modulus (GPa) = 29.56897 48.49386 39.03141
# Shear Modulus (GPa) = 2.54291 20.32669 11.43480
#
# Velocity S-wave (km/s) = 1.18998 3.36440 2.52341
# Velocity P-wave (km/s) = 4.28415 6.48820 5.49776
#
# Compressibility (1/GPa) = 0.03381924
#
# Stress axis : x y z
#
# Youngs Moduli (GPa) = 34.41703 98.44698 115.59089
#
# Poissons Ratio (x) = 0.19927 0.16310
# Poissons Ratio (y) = 0.06966 0.41467
# Poissons Ratio (z) = 0.04856 0.35317
#
# Static dielectric constant tensor:
#      x y z
#    x 1.572380 0.000000 0.000000 
#    y 0.000000 1.633340 0.000000 
#    z 0.000000 0.000000 1.686060 
# 
# From -- ./inp_files/35358.got.cif
#   From: 2010.05.17/outbox.cif.g08.bks.cpg/sg74_18_cif.got.tgz:35358.got - 2010.06.03 17:57:02.
