data_PCOD9535631
_publ_section_title
;
Structure prediction by ZEFSAII (Michael W. Deem and Ramdas Pophale) SiO2 
 PCOD9535631
Probable space group: I M M A
;
_chemical_formula_sum "Si O2"
_cell_formula_units_Z 72
_cell_length_a 9.748511
_cell_length_b 18.634066
_cell_length_c 23.126378
_cell_angle_alpha 90.000000
_cell_angle_beta 90.000000
_cell_angle_gamma 90.000000
_cell_volume 4201.008259
_symmetry_space_group_name_H-M "I M M A"
_symmetry_group_IT_number 74
_symmetry_cell_setting 'orthorhombic'
loop_
_space_group_symop_operation_xyz
x,y,z
-x,1/2-y,z
x,-y,-z
-x,1/2+y,-z
-x,-y,-z
x,1/2+y,-z
-x,y,z
x,1/2-y,z
1/2+x,1/2+y,1/2+z
1/2-x,-y,1/2+z
1/2+x,1/2-y,1/2-z
1/2-x,y,1/2-z
1/2-x,1/2-y,1/2-z
1/2+x,y,1/2-z
1/2-x,1/2+y,1/2+z
1/2+x,-y,1/2+z
loop_
_atom_site_type_symbol
_atom_site_label
_atom_site_fract_x
_atom_site_fract_y
_atom_site_fract_z
Si Si1 0.658890 0.862951 0.195178
Si Si2 0.337410 0.534779 0.808298
Si Si3 0.640476 0.250000 0.297438
Si Si4 0.156411 0.874692 0.890524
Si Si5 0.165094 0.250000 0.019226
Si Si6 0.336156 0.750000 0.097691
O O1 0.500000 0.846551 0.208006
O O2 0.750000 0.842302 0.250000
O O3 0.695539 0.818716 0.137982
O O4 0.670913 0.948463 0.186719
O O5 0.500000 0.554270 0.802863
O O6 0.250000 0.554309 0.750000
O O7 0.265083 0.568833 0.865031
O O8 0.500000 0.250000 0.263682
O O9 0.750000 0.250000 0.250000
O O10 0.646797 0.317852 0.338530
O O11 0.000000 0.903276 0.899901
O O12 0.196270 0.822935 0.944164
O O13 0.248352 0.250000 0.960213
O O14 0.000000 0.250000 0.011265
O O15 0.500000 0.750000 0.085202
#
# Coordination Sequence:
#
# PCOD9535631 Si02
#       6
#    16  16   8  16   8   8
#     4   9  19  34  53  79 106 130 160 201 249 302
#     4  10  19  31  49  75 105 134 164 201 249 301
#     4   9  17  27  41  63  90 121 158 200 242 283
#     4   9  18  33  49  67  96 131 167 208 247 287
#     4   9  20  37  54  73  98 131 174 216 248 285
#     4  10  20  36  56  76 100 130 166 208 252 298
#
# _framework density 17.138743000000002
#
# number of rings (size 3 to 8) (size 9 to 14) (size 15 to 20)
#    0.000    2.667    0.000    3.000    0.000    5.333 
#    0.000    3.333    0.000    6.667    0.000    0.000 
#    0.000    0.000    0.000    0.000    0.000    0.000 
#
# Total GULP energy -200452.552410 kJ/mol
# GULP energy per Si atom -5568.126456 kJ/mol
# Density = 1.709973 g / cm^3
# Si number density = 17.138743 Si / 1000 Ang^3
#
#
#
# Elastic Constant Matrix: (Units=GPa)
#
#
# Indices 1 2 3 4 5 6 
#
# 1 107.1253 46.8572 87.3005 0.0000 0.0000 0.0000
# 2 46.8572 59.6312 45.9659 0.0000 0.0000 0.0000
# 3 87.3005 45.9659 141.5918 0.0000 0.0000 0.0000
# 4 0.0000 0.0000 0.0000 -54.4555 0.0000 0.0000
# 5 0.0000 0.0000 0.0000 0.0000 37.2817 0.0000
# 6 0.0000 0.0000 0.0000 0.0000 0.0000 12.6248
#
#
#
# Elastic Compliance Matrix: (Units=1/GPa)
#
#
# Indices 1 2 3 4 5 6 
#
# 1 0.021915 -0.009076 -0.010566 0.000000 0.000000 0.000000
# 2 -0.009076 0.026126 -0.002885 0.000000 0.000000 0.000000
# 3 -0.010566 -0.002885 0.014514 0.000000 0.000000 0.000000
# 4 0.000000 0.000000 0.000000 -0.018364 0.000000 0.000000
# 5 0.000000 0.000000 0.000000 0.000000 0.026823 0.000000
# 6 0.000000 0.000000 0.000000 0.000000 0.000000 0.079209
#
#
# Mechanical properties :
#
#
# Convention : Reuss Voigt Hill
#
# Bulk Modulus (GPa) = 57.14203 74.28838 65.71520
# Shear Modulus (GPa) = 24.86193 7.63853 16.25023
#
# Velocity S-wave (km/s) = 3.81284 2.11342 3.08256
# Velocity P-wave (km/s) = 7.26615 7.02814 7.14814
#
# Compressibility (1/GPa) = 0.01750025
#
# Stress axis : x y z
#
# Youngs Moduli (GPa) = 45.63034 38.27632 68.90062
#
# Poissons Ratio (x) = 0.34740 0.72798
# Poissons Ratio (y) = 0.41415 0.19880
# Poissons Ratio (z) = 0.48212 0.11044
#
# Static dielectric constant tensor:
#      x y z
#    x 1.604520 0.000000 0.000000 
#    y 0.000000 1.607360 0.000000 
#    z 0.000000 0.000000 1.545300 
# 
# From -- ./inp_files/48425.got.cif
#   From: 2010.05.17/outbox.cif.g08.bks.cpg/sg74_25_cif.got.tgz:48425.got - 2010.06.03 17:57:02.
