data_PCOD9535783
_publ_section_title
;
Structure prediction by ZEFSAII (Michael W. Deem and Ramdas Pophale) SiO2 
 PCOD9535783
Probable space group: I M M A
;
_chemical_formula_sum "Si O2"
_cell_formula_units_Z 80
_cell_length_a 24.007952
_cell_length_b 8.825603
_cell_length_c 26.736289
_cell_angle_alpha 90.000000
_cell_angle_beta 90.000000
_cell_angle_gamma 90.000000
_cell_volume 5665.009322
_symmetry_space_group_name_H-M "I M M A"
_symmetry_group_IT_number 74
_symmetry_cell_setting 'orthorhombic'
loop_
_space_group_symop_operation_xyz
x,y,z
-x,1/2-y,z
x,-y,-z
-x,1/2+y,-z
-x,-y,-z
x,1/2+y,-z
-x,y,z
x,1/2-y,z
1/2+x,1/2+y,1/2+z
1/2-x,-y,1/2+z
1/2+x,1/2-y,1/2-z
1/2-x,y,1/2-z
1/2-x,1/2-y,1/2-z
1/2+x,y,1/2-z
1/2-x,1/2+y,1/2+z
1/2+x,-y,1/2+z
loop_
_atom_site_type_symbol
_atom_site_label
_atom_site_fract_x
_atom_site_fract_y
_atom_site_fract_z
Si Si1 0.000000 0.069430 0.610182
Si Si2 0.316868 0.567404 0.855288
Si Si3 0.500000 0.069709 0.220414
Si Si4 0.883194 0.570260 0.260831
Si Si5 0.616260 0.431353 0.944940
Si Si6 0.710277 0.924313 0.700832
O O1 0.055327 0.035261 0.578567
O O2 0.000000 0.250000 0.621605
O O3 0.000000 0.980156 0.662122
O O4 0.321172 0.750000 0.853088
O O5 0.355198 0.498440 0.811157
O O6 0.339147 0.503971 0.907279
O O7 0.252675 0.526972 0.842701
O O8 0.500000 0.250000 0.224006
O O9 0.444058 0.001194 0.243954
O O10 0.886802 0.750000 0.266256
O O11 0.842317 0.524839 0.215441
O O12 0.622654 0.250000 0.946411
O O13 0.620266 0.500000 0.000000
O O14 0.692761 0.750000 0.692870
O O15 0.750000 0.925037 0.750000
#
# Coordination Sequence:
#
# PCOD9535783 Si02
#       6
#     8  16   8  16  16  16
#     4  10  21  35  47  62  84 113 151 195 233 269
#     4  10  19  32  48  65  86 113 147 184 225 269
#     4  12  22  31  47  64  87 121 152 185 226 267
#     4  11  20  30  45  66  90 113 145 183 222 267
#     4  11  22  34  48  64  87 115 152 195 235 274
#     4   8  16  30  46  64  86 111 142 178 217 267
#
# _framework density 14.121777
#
# number of rings (size 3 to 8) (size 9 to 14) (size 15 to 20)
#    0.000    1.800    2.000    5.400    0.000    5.200 
#    0.000    0.000    0.000    0.000    0.000    0.000 
#    0.000    0.000    0.000    0.900    0.000   12.000 
#
# Total GULP energy -223205.011595 kJ/mol
# GULP energy per Si atom -5580.125290 kJ/mol
# Density = 1.408963 g / cm^3
# Si number density = 14.121777 Si / 1000 Ang^3
#
#
#
# Elastic Constant Matrix: (Units=GPa)
#
#
# Indices 1 2 3 4 5 6 
#
# 1 113.1431 63.5712 57.2698 0.0000 0.0000 0.0000
# 2 63.5712 86.6463 39.7702 0.0000 0.0000 0.0000
# 3 57.2698 39.7702 63.0994 0.0000 0.0000 0.0000
# 4 0.0000 0.0000 0.0000 20.8811 0.0000 0.0000
# 5 0.0000 0.0000 0.0000 0.0000 14.1513 0.0000
# 6 0.0000 0.0000 0.0000 0.0000 0.0000 12.3102
#
#
#
# Elastic Compliance Matrix: (Units=1/GPa)
#
#
# Indices 1 2 3 4 5 6 
#
# 1 0.020448 -0.009123 -0.012808 0.000000 0.000000 0.000000
# 2 -0.009123 0.020310 -0.004520 0.000000 0.000000 0.000000
# 3 -0.012808 -0.004520 0.030322 0.000000 0.000000 0.000000
# 4 0.000000 0.000000 0.000000 0.047890 0.000000 0.000000
# 5 0.000000 0.000000 0.000000 0.000000 0.070665 0.000000
# 6 0.000000 0.000000 0.000000 0.000000 0.000000 0.081233
#
#
# Mechanical properties :
#
#
# Convention : Reuss Voigt Hill
#
# Bulk Modulus (GPa) = 55.01921 64.90125 59.96023
# Shear Modulus (GPa) = 15.15933 16.28702 15.72318
#
# Velocity S-wave (km/s) = 3.27994 3.39975 3.34038
# Velocity P-wave (km/s) = 7.30679 7.84022 7.57820
#
# Compressibility (1/GPa) = 0.01817547
#
# Stress axis : x y z
#
# Youngs Moduli (GPa) = 48.90565 49.23800 32.97921
#
# Poissons Ratio (x) = 0.44920 0.42241
# Poissons Ratio (y) = 0.44617 0.14908
# Poissons Ratio (z) = 0.62640 0.22258
#
# Static dielectric constant tensor:
#      x y z
#    x 1.475020 0.000000 0.000000 
#    y 0.000000 1.471160 0.000000 
#    z 0.000000 0.000000 1.443770 
# 
# From -- ./inp_files/54979.got.cif
#   From: 2010.05.17/outbox.cif.g08.bks.cpg/sg74_28_cif.got.tgz:54979.got - 2010.06.03 17:57:02.
