data_PCOD9535231
_publ_section_title
;
Structure prediction by ZEFSAII (Michael W. Deem and Ramdas Pophale) SiO2 
 PCOD9535231
Probable space group: I M M A
;
_chemical_formula_sum "Si O2"
_cell_formula_units_Z 88
_cell_length_a 25.627684
_cell_length_b 9.086497
_cell_length_c 28.176960
_cell_angle_alpha 90.000000
_cell_angle_beta 90.000000
_cell_angle_gamma 90.000000
_cell_volume 6561.452411
_symmetry_space_group_name_H-M "I M M A"
_symmetry_group_IT_number 74
_symmetry_cell_setting 'orthorhombic'
loop_
_space_group_symop_operation_xyz
x,y,z
-x,1/2-y,z
x,-y,-z
-x,1/2+y,-z
-x,-y,-z
x,1/2+y,-z
-x,y,z
x,1/2-y,z
1/2+x,1/2+y,1/2+z
1/2-x,-y,1/2+z
1/2+x,1/2-y,1/2-z
1/2-x,y,1/2-z
1/2-x,1/2-y,1/2-z
1/2+x,y,1/2-z
1/2-x,1/2+y,1/2+z
1/2+x,-y,1/2+z
loop_
_atom_site_type_symbol
_atom_site_label
_atom_site_fract_x
_atom_site_fract_y
_atom_site_fract_z
Si Si1 0.500000 0.073540 0.448207
Si Si2 0.902913 0.075893 0.896968
Si Si3 0.708466 0.924067 0.449058
Si Si4 0.145515 0.080483 0.190331
Si Si5 0.258510 0.419421 0.137820
Si Si6 0.306688 0.579795 0.223710
O O1 0.500000 0.250000 0.451847
O O2 0.500000 0.000000 0.500000
O O3 0.550824 0.015194 0.420711
O O4 0.914780 0.250000 0.895872
O O5 0.849957 0.055971 0.927733
O O6 0.890562 0.014187 0.844600
O O7 0.717788 0.750000 0.452670
O O8 0.711931 0.000000 0.500000
O O9 0.747623 0.996719 0.411130
O O10 0.128366 0.250000 0.193801
O O11 0.202506 0.081048 0.164993
O O12 0.154676 0.006886 0.241358
O O13 0.273467 0.250000 0.130185
O O14 0.297663 0.501618 0.173388
O O15 0.321672 0.750000 0.218456
O O16 0.250000 0.577934 0.250000
#
# Coordination Sequence:
#
# PCOD9535231 Si02
#       6
#     8  16  16  16  16  16
#     4  12  24  36  48  60  74  94 122 158 199 240
#     4  10  20  33  46  59  74  93 120 155 195 236
#     4  10  19  29  41  55  72  95 123 155 190 227
#     4   9  16  26  40  57  75  94 116 144 181 223
#     4   9  16  25  37  53  73  95 119 147 179 216
#     4   9  15  23  36  54  75  96 117 142 175 215
#
# _framework density 13.411664999999999
#
# number of rings (size 3 to 8) (size 9 to 14) (size 15 to 20)
#    0.000    2.364    0.000    4.091    0.000   10.182 
#    0.000    0.000    0.000    0.000    0.000    0.000 
#    0.000    0.000    0.000    0.000    0.000    0.000 
#
# Total GULP energy -245293.641684 kJ/mol
# GULP energy per Si atom -5574.855493 kJ/mol
# Density = 1.338114 g / cm^3
# Si number density = 13.411665 Si / 1000 Ang^3
#
#
#
# Elastic Constant Matrix: (Units=GPa)
#
#
# Indices 1 2 3 4 5 6 
#
# 1 25.7139 32.9512 39.5856 0.0000 0.0000 0.0000
# 2 32.9512 139.7331 85.7319 0.0000 0.0000 0.0000
# 3 39.5856 85.7319 117.0045 0.0000 0.0000 0.0000
# 4 0.0000 0.0000 0.0000 27.6963 0.0000 0.0000
# 5 0.0000 0.0000 0.0000 0.0000 15.9229 0.0000
# 6 0.0000 0.0000 0.0000 0.0000 0.0000 15.2587
#
#
#
# Elastic Compliance Matrix: (Units=1/GPa)
#
#
# Indices 1 2 3 4 5 6 
#
# 1 0.082517 -0.004233 -0.024816 0.000000 0.000000 0.000000
# 2 -0.004233 0.013218 -0.008253 0.000000 0.000000 0.000000
# 3 -0.024816 -0.008253 0.022990 0.000000 0.000000 0.000000
# 4 0.000000 0.000000 0.000000 0.036106 0.000000 0.000000
# 5 0.000000 0.000000 0.000000 0.000000 0.062803 0.000000
# 6 0.000000 0.000000 0.000000 0.000000 0.000000 0.065537
#
#
# Mechanical properties :
#
#
# Convention : Reuss Voigt Hill
#
# Bulk Modulus (GPa) = 22.66510 66.55433 44.60971
# Shear Modulus (GPa) = 13.42347 20.05444 16.73895
#
# Velocity S-wave (km/s) = 3.16710 3.87110 3.53666
# Velocity P-wave (km/s) = 5.50548 8.34940 7.07187
#
# Compressibility (1/GPa) = 0.04412070
#
# Stress axis : x y z
#
# Youngs Moduli (GPa) = 12.11871 75.65163 43.49752
#
# Poissons Ratio (x) = 0.32026 1.07942
# Poissons Ratio (y) = 0.05130 0.35900
# Poissons Ratio (z) = 0.30073 0.62437
#
# Static dielectric constant tensor:
#      x y z
#    x 1.410560 0.000000 0.000000 
#    y 0.000000 1.448270 0.000000 
#    z 0.000000 0.000000 1.430260 
# 
# From -- ./inp_files/49474.got.cif
#   From: 2010.05.17/outbox.cif.g08.bks.cpg/sg74_25_cif.got.tgz:49474.got - 2010.06.03 17:57:02.
