data_PCOD9535840
_publ_section_title
;
Structure prediction by ZEFSAII (Michael W. Deem and Ramdas Pophale) SiO2 
 PCOD9535840
Probable space group: I M M A
;
_chemical_formula_sum "Si O2"
_cell_formula_units_Z 72
_cell_length_a 8.794961
_cell_length_b 34.693145
_cell_length_c 14.378501
_cell_angle_alpha 90.000000
_cell_angle_beta 90.000000
_cell_angle_gamma 90.000000
_cell_volume 4387.238065
_symmetry_space_group_name_H-M "I M M A"
_symmetry_group_IT_number 74
_symmetry_cell_setting 'orthorhombic'
loop_
_space_group_symop_operation_xyz
x,y,z
-x,1/2-y,z
x,-y,-z
-x,1/2+y,-z
-x,-y,-z
x,1/2+y,-z
-x,y,z
x,1/2-y,z
1/2+x,1/2+y,1/2+z
1/2-x,-y,1/2+z
1/2+x,1/2-y,1/2-z
1/2-x,y,1/2-z
1/2-x,1/2-y,1/2-z
1/2+x,y,1/2-z
1/2-x,1/2+y,1/2+z
1/2+x,-y,1/2+z
loop_
_atom_site_type_symbol
_atom_site_label
_atom_site_fract_x
_atom_site_fract_y
_atom_site_fract_z
Si Si1 0.682381 0.250000 0.646600
Si Si2 0.327690 0.511331 0.108981
Si Si3 0.678954 0.933706 0.654103
Si Si4 0.183190 0.665387 0.145497
Si Si5 0.182930 0.407510 0.541388
O O1 0.500000 0.250000 0.653027
O O2 0.750000 0.250000 0.750000
O O3 0.725069 0.208152 0.606500
O O4 0.500000 0.507875 0.147267
O O5 0.217601 0.479411 0.150389
O O6 0.276045 0.555626 0.106743
O O7 0.337926 0.500000 0.000000
O O8 0.500000 0.927685 0.652207
O O9 0.750000 0.918529 0.750000
O O10 0.753827 0.915652 0.561806
O O11 0.250000 0.662532 0.250000
O O12 0.250936 0.631297 0.084074
O O13 0.000000 0.662355 0.149530
O O14 0.000000 0.406749 0.537693
#
# Coordination Sequence:
#
# PCOD9535840 Si02
#       5
#     8  16  16  16  16
#     4   8  16  30  48  70  97 126 157 192 232 284
#     4   8  16  31  47  63  88 120 154 195 239 279
#     4  11  21  33  50  70  94 127 166 205 245 288
#     4  10  19  32  50  73 100 130 161 195 238 286
#     4  10  20  34  50  71  99 128 162 204 244 285
#
# _framework density 16.411235000000001
#
# number of rings (size 3 to 8) (size 9 to 14) (size 15 to 20)
#    0.000    2.444    0.000    4.667    0.000    6.667 
#    0.000    0.000    0.000    0.000    0.000    0.778 
#    0.000    0.000    0.000    0.000    0.000    0.000 
#
# Total GULP energy -200623.730268 kJ/mol
# GULP energy per Si atom -5572.881396 kJ/mol
# Density = 1.637388 g / cm^3
# Si number density = 16.411235 Si / 1000 Ang^3
#
#
#
# Elastic Constant Matrix: (Units=GPa)
#
#
# Indices 1 2 3 4 5 6 
#
# 1 70.8023 42.5408 33.8761 0.0000 0.0000 0.0000
# 2 42.5408 151.3704 45.5451 0.0000 0.0000 0.0000
# 3 33.8761 45.5451 68.7742 0.0001 0.0000 0.0000
# 4 0.0000 0.0000 0.0001 21.2199 0.0000 0.0000
# 5 0.0000 0.0000 0.0000 0.0000 25.6198 0.0000
# 6 0.0000 0.0000 0.0000 0.0000 0.0000 23.8487
#
#
#
# Elastic Compliance Matrix: (Units=1/GPa)
#
#
# Indices 1 2 3 4 5 6 
#
# 1 0.019693 -0.003267 -0.007537 0.000000 0.000000 0.000000
# 2 -0.003267 0.008792 -0.004213 0.000000 0.000000 0.000000
# 3 -0.007537 -0.004213 0.021043 0.000000 0.000000 0.000000
# 4 0.000000 0.000000 0.000000 0.047126 0.000000 0.000000
# 5 0.000000 0.000000 0.000000 0.000000 0.039032 0.000000
# 6 0.000000 0.000000 0.000000 0.000000 0.000000 0.041931
#
#
# Mechanical properties :
#
#
# Convention : Reuss Voigt Hill
#
# Bulk Modulus (GPa) = 51.29747 59.43012 55.36379
# Shear Modulus (GPa) = 23.34832 25.40334 24.37583
#
# Velocity S-wave (km/s) = 3.77597 3.93863 3.85816
# Velocity P-wave (km/s) = 7.09478 7.54821 7.32501
#
# Compressibility (1/GPa) = 0.01949414
#
# Stress axis : x y z
#
# Youngs Moduli (GPa) = 50.78054 113.73801 47.52182
#
# Poissons Ratio (x) = 0.37155 0.35815
# Poissons Ratio (y) = 0.16588 0.20023
# Poissons Ratio (z) = 0.38271 0.47923
#
# Static dielectric constant tensor:
#      x y z
#    x 1.551150 0.000000 0.000000 
#    y 0.000000 1.584180 0.000000 
#    z 0.000000 0.000000 1.548600 
# 
# From -- ./inp_files/29375.got.cif
#   From: 2010.05.17/outbox.cif.g08.bks.cpg/sg74_15_cif.got.tgz:29375.got - 2010.06.03 17:57:02.
