data_PCOD9535010
_publ_section_title
;
Structure prediction by ZEFSAII (Michael W. Deem and Ramdas Pophale) SiO2 
 PCOD9535010
Probable space group: I M M A
;
_chemical_formula_sum "Si O2"
_cell_formula_units_Z 128
_cell_length_a 23.849327
_cell_length_b 17.628522
_cell_length_c 18.808608
_cell_angle_alpha 90.000000
_cell_angle_beta 90.000000
_cell_angle_gamma 90.000000
_cell_volume 7907.672699
_symmetry_space_group_name_H-M "I M M A"
_symmetry_group_IT_number 74
_symmetry_cell_setting 'orthorhombic'
loop_
_space_group_symop_operation_xyz
x,y,z
-x,1/2-y,z
x,-y,-z
-x,1/2+y,-z
-x,-y,-z
x,1/2+y,-z
-x,y,z
x,1/2-y,z
1/2+x,1/2+y,1/2+z
1/2-x,-y,1/2+z
1/2+x,1/2-y,1/2-z
1/2-x,y,1/2-z
1/2-x,1/2-y,1/2-z
1/2+x,y,1/2-z
1/2-x,1/2+y,1/2+z
1/2+x,-y,1/2+z
loop_
_atom_site_type_symbol
_atom_site_label
_atom_site_fract_x
_atom_site_fract_y
_atom_site_fract_z
Si Si1 0.137587 0.555290 0.936659
Si Si2 0.566711 0.662446 0.665423
Si Si3 0.707994 0.938198 0.344496
Si Si4 0.722928 0.339448 0.522329
Si Si5 0.065386 0.437024 0.304613
Si Si6 0.655007 0.662282 0.058626
Si Si7 0.435209 0.083251 0.028497
Si Si8 0.667378 0.444823 0.808613
O O1 0.094931 0.608152 0.893273
O O2 0.168796 0.500436 0.881165
O O3 0.114938 0.500000 0.000000
O O4 0.183624 0.610058 0.972819
O O5 0.500000 0.663072 0.653485
O O6 0.586797 0.750000 0.661991
O O7 0.575353 0.626129 0.743935
O O8 0.711504 0.866798 0.397104
O O9 0.682461 0.914030 0.269292
O O10 0.770713 0.972995 0.334450
O O11 0.713739 0.250000 0.512394
O O12 0.788813 0.358192 0.514452
O O13 0.068581 0.410481 0.386510
O O14 0.115654 0.497760 0.299189
O O15 0.000000 0.464429 0.294728
O O16 0.660143 0.750000 0.076752
O O17 0.651152 0.614682 0.130807
O O18 0.602269 0.644506 0.010182
O O19 0.500000 0.090549 0.007724
O O20 0.416260 0.000000 0.000000
#
# Coordination Sequence:
#
# PCOD9535010 Si02
#       8
#    16  16  16  16  16  16  16  16
#     4  10  19  33  55  81 105 132 169 206 258 306
#     4  10  21  37  56  78 105 136 170 212 257 303
#     4   9  19  31  52  78 100 134 170 214 252 298
#     4   9  19  33  49  74 107 138 166 203 257 311
#     4  10  20  34  55  75  98 136 177 212 253 305
#     4  10  21  33  50  77 105 136 172 214 260 301
#     4  10  20  33  51  74  99 134 175 215 260 304
#     4  10  18  33  53  74 103 133 174 215 252 302
#
# _framework density 16.186810000000001
#
# number of rings (size 3 to 8) (size 9 to 14) (size 15 to 20)
#    0.000    2.250    2.500    0.375    1.750    2.000 
#    0.000    3.750    0.000    0.750    0.000    0.000 
#    0.000    0.000    0.000    0.000    0.000    0.000 
#
# Total GULP energy -356306.078147 kJ/mol
# GULP energy per Si atom -5567.282471 kJ/mol
# Density = 1.614997 g / cm^3
# Si number density = 16.186810 Si / 1000 Ang^3
#
#
#
# Elastic Constant Matrix: (Units=GPa)
#
#
# Indices 1 2 3 4 5 6 
#
# 1 52.0986 25.2678 31.6445 0.0000 0.0000 0.0000
# 2 25.2678 59.0653 28.4227 0.0000 0.0000 0.0000
# 3 31.6445 28.4227 89.4227 0.0000 0.0000 0.0000
# 4 0.0000 0.0000 0.0000 18.3890 0.0000 0.0000
# 5 0.0000 0.0000 0.0000 0.0000 25.0161 0.0000
# 6 0.0000 0.0000 0.0000 0.0000 0.0000 22.1795
#
#
#
# Elastic Compliance Matrix: (Units=1/GPa)
#
#
# Indices 1 2 3 4 5 6 
#
# 1 0.027566 -0.008380 -0.007091 0.000000 0.000000 0.000000
# 2 -0.008380 0.022535 -0.004197 0.000000 0.000000 0.000000
# 3 -0.007091 -0.004197 0.015026 0.000000 0.000000 0.000000
# 4 0.000000 0.000000 0.000000 0.054380 0.000000 0.000000
# 5 0.000000 0.000000 0.000000 0.000000 0.039974 0.000000
# 6 0.000000 0.000000 0.000000 0.000000 0.000000 0.045087
#
#
# Mechanical properties :
#
#
# Convention : Reuss Voigt Hill
#
# Bulk Modulus (GPa) = 38.77455 41.25073 40.01264
# Shear Modulus (GPa) = 19.80176 20.80036 20.30106
#
# Velocity S-wave (km/s) = 3.50140 3.58861 3.54527
# Velocity P-wave (km/s) = 6.35239 6.53531 6.44450
#
# Compressibility (1/GPa) = 0.02579011
#
# Stress axis : x y z
#
# Youngs Moduli (GPa) = 36.27658 44.37514 66.54980
#
# Poissons Ratio (x) = 0.37187 0.47193
# Poissons Ratio (y) = 0.30401 0.27932
# Poissons Ratio (z) = 0.25725 0.18625
#
# Static dielectric constant tensor:
#      x y z
#    x 1.550480 0.000000 0.000000 
#    y 0.000000 1.532980 0.000000 
#    z 0.000000 0.000000 1.537360 
# 
# From -- ./inp_files/44613.got.cif
#   From: 2010.05.17/outbox.cif.g08.bks.cpg/sg74_23_cif.got.tgz:44613.got - 2010.06.03 17:57:02.
