data_PCOD9535505
_publ_section_title
;
Structure prediction by ZEFSAII (Michael W. Deem and Ramdas Pophale) SiO2 
 PCOD9535505
Probable space group: I M M A
;
_chemical_formula_sum "Si O2"
_cell_formula_units_Z 96
_cell_length_a 8.735331
_cell_length_b 25.269370
_cell_length_c 25.847907
_cell_angle_alpha 90.000000
_cell_angle_beta 90.000000
_cell_angle_gamma 90.000000
_cell_volume 5705.571641
_symmetry_space_group_name_H-M "I M M A"
_symmetry_group_IT_number 74
_symmetry_cell_setting 'orthorhombic'
loop_
_space_group_symop_operation_xyz
x,y,z
-x,1/2-y,z
x,-y,-z
-x,1/2+y,-z
-x,-y,-z
x,1/2+y,-z
-x,y,z
x,1/2-y,z
1/2+x,1/2+y,1/2+z
1/2-x,-y,1/2+z
1/2+x,1/2-y,1/2-z
1/2-x,y,1/2-z
1/2-x,1/2-y,1/2-z
1/2+x,y,1/2-z
1/2-x,1/2+y,1/2+z
1/2+x,-y,1/2+z
loop_
_atom_site_type_symbol
_atom_site_label
_atom_site_fract_x
_atom_site_fract_y
_atom_site_fract_z
Si Si1 0.814826 0.985428 0.420170
Si Si2 0.317660 0.920617 0.510543
Si Si3 0.827621 0.189359 0.898648
Si Si4 0.172327 0.857920 0.302018
Si Si5 0.319743 0.309634 0.007958
Si Si6 0.172091 0.484772 0.697150
O O1 0.742087 0.936791 0.452852
O O2 0.760969 0.991793 0.360676
O O3 0.000000 0.979011 0.420201
O O4 0.764756 0.037286 0.451966
O O5 0.500000 0.927520 0.512279
O O6 0.270153 0.861370 0.526826
O O7 0.830971 0.250000 0.880113
O O8 0.773291 0.154486 0.851530
O O9 0.000000 0.175554 0.916659
O O10 0.712920 0.188006 0.946573
O O11 0.250000 0.836812 0.250000
O O12 0.163126 0.921237 0.297320
O O13 0.000000 0.837213 0.308629
O O14 0.500000 0.315056 0.018364
O O15 0.270713 0.250000 0.024647
O O16 0.250000 0.504594 0.750000
O O17 0.000000 0.506517 0.695654
#
# Coordination Sequence:
#
# PCOD9535505 Si02
#       6
#    16  16  16  16  16  16
#     4  10  19  33  51  72 100 132 165 200 241 290
#     4  11  21  32  49  74 101 130 163 201 245 287
#     4  10  20  32  45  62  83 109 145 190 237 281
#     4  10  19  31  45  61  82 111 149 190 234 279
#     4  10  20  34  51  69  91 122 157 192 234 285
#     4   9  19  32  48  68  90 119 153 191 233 278
#
# _framework density 16.825658000000001
#
# number of rings (size 3 to 8) (size 9 to 14) (size 15 to 20)
#    0.000    2.000    0.000    5.500    0.000    5.667 
#    0.000    0.000    0.000    0.000    0.000    0.000 
#    0.000    0.667    0.000    2.167    0.000    2.667 
#
# Total GULP energy -267526.106211 kJ/mol
# GULP energy per Si atom -5573.460546 kJ/mol
# Density = 1.678736 g / cm^3
# Si number density = 16.825658 Si / 1000 Ang^3
#
#
#
# Elastic Constant Matrix: (Units=GPa)
#
#
# Indices 1 2 3 4 5 6 
#
# 1 53.6035 11.0374 13.0884 0.0000 0.0000 0.0000
# 2 11.0374 62.8518 2.6256 0.0000 0.0000 0.0000
# 3 13.0884 2.6256 70.1930 0.0000 0.0000 0.0000
# 4 0.0000 0.0000 0.0000 12.5755 0.0000 0.0000
# 5 0.0000 0.0000 0.0000 0.0000 20.7033 0.0000
# 6 0.0000 0.0000 0.0000 0.0000 0.0000 15.0142
#
#
#
# Elastic Compliance Matrix: (Units=1/GPa)
#
#
# Indices 1 2 3 4 5 6 
#
# 1 0.020247 -0.003403 -0.003648 0.000000 0.000000 0.000000
# 2 -0.003403 0.016507 0.000017 0.000000 0.000000 0.000000
# 3 -0.003648 0.000017 0.014926 0.000000 0.000000 0.000000
# 4 0.000000 0.000000 0.000000 0.079520 0.000000 0.000000
# 5 0.000000 0.000000 0.000000 0.000000 0.048302 0.000000
# 6 0.000000 0.000000 0.000000 0.000000 0.000000 0.066604
#
#
# Mechanical properties :
#
#
# Convention : Reuss Voigt Hill
#
# Bulk Modulus (GPa) = 26.58714 26.68347 26.63531
# Shear Modulus (GPa) = 18.33443 20.31839 19.32641
#
# Velocity S-wave (km/s) = 3.30460 3.47880 3.39282
# Velocity P-wave (km/s) = 5.51329 5.65944 5.58684
#
# Compressibility (1/GPa) = 0.03761216
#
# Stress axis : x y z
#
# Youngs Moduli (GPa) = 49.39007 60.57907 66.99714
#
# Poissons Ratio (x) = 0.20616 0.24441
# Poissons Ratio (y) = 0.16808 -0.00114
# Poissons Ratio (z) = 0.18018 -0.00104
#
# Static dielectric constant tensor:
#      x y z
#    x 1.594390 0.000000 0.000000 
#    y 0.000000 1.596420 0.000000 
#    z 0.000000 0.000000 1.565480 
# 
# From -- ./inp_files/57489.got.cif
#   From: 2010.05.17/outbox.cif.g08.bks.cpg/sg74_29_cif.got.tgz:57489.got - 2010.06.03 17:57:02.
