data_PCOD9535088
_publ_section_title
;
Structure prediction by ZEFSAII (Michael W. Deem and Ramdas Pophale) SiO2 
 PCOD9535088
Probable space group: I M M A
;
_chemical_formula_sum "Si O2"
_cell_formula_units_Z 104
_cell_length_a 19.464149
_cell_length_b 14.220423
_cell_length_c 17.619176
_cell_angle_alpha 90.000000
_cell_angle_beta 90.000000
_cell_angle_gamma 90.000000
_cell_volume 4876.784100
_symmetry_space_group_name_H-M "I M M A"
_symmetry_group_IT_number 74
_symmetry_cell_setting 'orthorhombic'
loop_
_space_group_symop_operation_xyz
x,y,z
-x,1/2-y,z
x,-y,-z
-x,1/2+y,-z
-x,-y,-z
x,1/2+y,-z
-x,y,z
x,1/2-y,z
1/2+x,1/2+y,1/2+z
1/2-x,-y,1/2+z
1/2+x,1/2-y,1/2-z
1/2-x,y,1/2-z
1/2-x,1/2-y,1/2-z
1/2+x,y,1/2-z
1/2-x,1/2+y,1/2+z
1/2+x,-y,1/2+z
loop_
_atom_site_type_symbol
_atom_site_label
_atom_site_fract_x
_atom_site_fract_y
_atom_site_fract_z
Si Si1 0.776186 0.143164 0.124506
Si Si2 0.500000 0.102352 0.538162
Si Si3 0.134720 0.500000 0.500000
Si Si4 0.000000 0.147155 0.127866
Si Si5 0.389808 0.141510 0.123825
Si Si6 0.376831 0.357556 0.654236
Si Si7 0.614989 0.452139 0.281089
Si Si8 0.251651 0.138781 0.543189
O O1 0.800816 0.250000 0.137265
O O2 0.693771 0.142892 0.127084
O O3 0.810939 0.080389 0.188164
O O4 0.790526 0.116423 0.036742
O O5 0.500000 0.159726 0.461267
O O6 0.565517 0.123751 0.590364
O O7 0.500000 0.000000 0.500000
O O8 0.093911 0.430450 0.444232
O O9 0.186459 0.569779 0.453648
O O10 0.934769 0.088074 0.154188
O O11 0.000000 0.250000 0.165081
O O12 0.412379 0.250000 0.114490
O O13 0.408961 0.096265 0.203965
O O14 0.381833 0.250000 0.680147
O O15 0.387027 0.435609 0.718511
O O16 0.303743 0.371667 0.612427
O O17 0.231897 0.250000 0.537422
#
# Coordination Sequence:
#
# PCOD9535088 Si02
#       8
#    16   8   8   8  16  16  16  16
#     4   9  17  30  51  78 108 143 180 219 265 318
#     4  12  22  37  53  76 105 149 195 226 247 288
#     4  10  18  34  58  76 100 132 168 216 280 338
#     4  12  24  35  54  82 110 143 179 221 265 301
#     4  10  21  36  56  82 107 134 171 219 272 327
#     4  11  22  35  49  71 108 149 188 224 256 302
#     4  12  22  35  52  76 110 142 179 218 271 320
#     4   9  18  30  48  75 106 142 183 222 260 311
#
# _framework density 21.325527999999998
#
# number of rings (size 3 to 8) (size 9 to 14) (size 15 to 20)
#    0.000    1.538    1.538    6.692    1.077    2.462 
#    0.000    1.538    0.000    4.154    0.000    0.000 
#    0.000    0.000    0.000    0.000    0.000    0.000 
#
# Total GULP energy -290481.816746 kJ/mol
# GULP energy per Si atom -5586.188784 kJ/mol
# Density = 2.127699 g / cm^3
# Si number density = 21.325528 Si / 1000 Ang^3
#
#
#
# Elastic Constant Matrix: (Units=GPa)
#
#
# Indices 1 2 3 4 5 6 
#
# 1 27.2308 1.3134 -1.7865 0.0000 0.0000 0.0000
# 2 1.3134 177.5908 59.0720 0.0000 0.0000 0.0000
# 3 -1.7865 59.0720 78.1085 0.0000 0.0000 0.0000
# 4 0.0000 0.0000 0.0000 33.8980 0.0000 0.0000
# 5 0.0000 0.0000 0.0000 0.0000 4.6430 0.0000
# 6 0.0000 0.0000 0.0000 0.0000 0.0000 215.0017
#
#
#
# Elastic Compliance Matrix: (Units=1/GPa)
#
#
# Indices 1 2 3 4 5 6 
#
# 1 0.036851 -0.000739 0.001402 0.000000 0.000000 0.000000
# 2 -0.000739 0.007538 -0.005718 0.000000 0.000000 0.000000
# 3 0.001402 -0.005718 0.017159 0.000000 0.000000 0.000000
# 4 0.000000 0.000000 0.000000 0.029500 0.000000 0.000000
# 5 0.000000 0.000000 0.000000 0.000000 0.215377 0.000000
# 6 0.000000 0.000000 0.000000 0.000000 0.000000 0.004651
#
#
# Mechanical properties :
#
#
# Convention : Reuss Voigt Hill
#
# Bulk Modulus (GPa) = 19.44094 44.45864 31.94979
# Shear Modulus (GPa) = 14.77836 65.66396 40.22116
#
# Velocity S-wave (km/s) = 2.63532 5.55501 4.34759
# Velocity P-wave (km/s) = 4.28905 7.87636 6.34165
#
# Compressibility (1/GPa) = 0.05143784
#
# Stress axis : x y z
#
# Youngs Moduli (GPa) = 27.13652 132.65474 58.27782
#
# Poissons Ratio (x) = 0.09799 -0.08168
# Poissons Ratio (y) = 0.02005 0.33323
# Poissons Ratio (z) = -0.03803 0.75852
#
# Static dielectric constant tensor:
#      x y z
#    x 2.108740 0.000000 0.000000 
#    y 0.000000 1.829780 0.000000 
#    z 0.000000 0.000000 1.777490 
# 
# From -- ./inp_files/45334.got.cif
#   From: 2010.05.17/outbox.cif.g08.bks.cpg/sg74_23_cif.got.tgz:45334.got - 2010.06.03 17:57:02.
