data_PCOD9535285
_publ_section_title
;
Structure prediction by ZEFSAII (Michael W. Deem and Ramdas Pophale) SiO2 
 PCOD9535285
Probable space group: I M M A
;
_chemical_formula_sum "Si O2"
_cell_formula_units_Z 112
_cell_length_a 15.111877
_cell_length_b 15.321129
_cell_length_c 28.915338
_cell_angle_alpha 90.000000
_cell_angle_beta 90.000000
_cell_angle_gamma 90.000000
_cell_volume 6694.797613
_symmetry_space_group_name_H-M "I M M A"
_symmetry_group_IT_number 74
_symmetry_cell_setting 'orthorhombic'
loop_
_space_group_symop_operation_xyz
x,y,z
-x,1/2-y,z
x,-y,-z
-x,1/2+y,-z
-x,-y,-z
x,1/2+y,-z
-x,y,z
x,1/2-y,z
1/2+x,1/2+y,1/2+z
1/2-x,-y,1/2+z
1/2+x,1/2-y,1/2-z
1/2-x,y,1/2-z
1/2-x,1/2-y,1/2-z
1/2+x,y,1/2-z
1/2-x,1/2+y,1/2+z
1/2+x,-y,1/2+z
loop_
_atom_site_type_symbol
_atom_site_label
_atom_site_fract_x
_atom_site_fract_y
_atom_site_fract_z
Si Si1 0.393932 0.350565 0.625600
Si Si2 0.396688 0.647897 0.849822
Si Si3 0.596446 0.653788 0.682841
Si Si4 0.102596 0.507830 0.944766
Si Si5 0.274115 0.349463 0.402542
Si Si6 0.145355 0.027844 0.262464
Si Si7 0.849685 0.653002 0.230921
O O1 0.500000 0.353266 0.632580
O O2 0.370571 0.250000 0.613102
O O3 0.374231 0.421420 0.585708
O O4 0.351902 0.369960 0.676050
O O5 0.500000 0.639192 0.861719
O O6 0.382197 0.750000 0.835305
O O7 0.328225 0.632170 0.891574
O O8 0.373406 0.580264 0.809173
O O9 0.500000 0.649503 0.659359
O O10 0.603556 0.750000 0.704795
O O11 0.674874 0.645665 0.646633
O O12 0.601293 0.581600 0.721379
O O13 0.173041 0.581895 0.932612
O O14 0.000000 0.529639 0.932365
O O15 0.104147 0.500000 0.000000
O O16 0.283163 0.250000 0.419612
O O17 0.250000 0.027587 0.250000
O O18 0.111876 0.928397 0.259280
O O19 0.890264 0.750000 0.235269
O O20 0.750000 0.659941 0.250000
#
# Coordination Sequence:
#
# PCOD9535285 Si02
#       7
#    16  16  16  16  16  16  16
#     4   9  18  33  52  72  99 137 176 212 253 308
#     4  10  21  35  50  71 101 137 176 216 260 312
#     4  10  19  29  44  69 100 134 168 202 247 303
#     4  10  21  35  54  82 111 137 168 209 261 323
#     4  10  20  34  52  73 102 135 170 210 255 309
#     4  11  19  28  46  68  97 137 173 215 260 302
#     4   9  19  32  46  68  96 130 175 219 255 299
#
# _framework density 16.729407999999999
#
# number of rings (size 3 to 8) (size 9 to 14) (size 15 to 20)
#    0.000    2.143    1.429    2.143    2.000    5.429 
#    0.000    1.429    0.000    0.429    0.000    0.000 
#    0.000    0.000    0.000    0.000    0.000    0.000 
#
# Total GULP energy -311987.855429 kJ/mol
# GULP energy per Si atom -5571.211704 kJ/mol
# Density = 1.669133 g / cm^3
# Si number density = 16.729408 Si / 1000 Ang^3
#
#
#
# Elastic Constant Matrix: (Units=GPa)
#
#
# Indices 1 2 3 4 5 6 
#
# 1 92.8257 42.9331 29.6418 0.0000 0.0000 0.0000
# 2 42.9331 122.9019 57.7198 0.0000 0.0000 0.0000
# 3 29.6418 57.7198 65.7411 0.0000 0.0000 0.0000
# 4 0.0000 0.0000 0.0000 -2.5888 0.0000 0.0000
# 5 0.0000 0.0000 0.0000 0.0000 22.9028 0.0000
# 6 0.0000 0.0000 0.0000 0.0000 0.0000 124.2638
#
#
#
# Elastic Compliance Matrix: (Units=1/GPa)
#
#
# Indices 1 2 3 4 5 6 
#
# 1 0.013245 -0.003101 -0.003250 0.000000 0.000000 0.000000
# 2 -0.003101 0.014572 -0.011396 0.000000 0.000000 0.000000
# 3 -0.003250 -0.011396 0.026682 0.000000 0.000000 0.000000
# 4 0.000000 0.000000 0.000000 -0.386285 0.000000 0.000000
# 5 0.000000 0.000000 0.000000 0.000000 0.043663 0.000000
# 6 0.000000 0.000000 0.000000 0.000000 0.000000 0.008047
#
#
# Mechanical properties :
#
#
# Convention : Reuss Voigt Hill
#
# Bulk Modulus (GPa) = 52.61434 60.22869 56.42152
# Shear Modulus (GPa) = -20.98633 38.99383 9.00375
#
# Velocity S-wave (km/s) = -3.54567 4.83313 2.32243
# Velocity P-wave (km/s) = 3.84136 8.19911 6.40240
#
# Compressibility (1/GPa) = 0.01900623
#
# Stress axis : x y z
#
# Youngs Moduli (GPa) = 75.50237 68.62690 37.47908
#
# Poissons Ratio (x) = 0.21279 0.12179
# Poissons Ratio (y) = 0.23410 0.42710
# Poissons Ratio (z) = 0.24535 0.78204
#
# Static dielectric constant tensor:
#      x y z
#    x 1.626390 0.000000 0.000000 
#    y 0.000000 1.621630 0.000000 
#    z 0.000000 0.000000 1.533470 
# 
# From -- ./inp_files/67150.got.cif
#   From: 2010.05.17/outbox.cif.g08.bks.cpg/sg74_34_cif.got.tgz:67150.got - 2010.06.03 17:57:02.
