data_PCOD9535724
_publ_section_title
;
Structure prediction by ZEFSAII (Michael W. Deem and Ramdas Pophale) SiO2 
 PCOD9535724
Probable space group: I M M A
;
_chemical_formula_sum "Si O2"
_cell_formula_units_Z 104
_cell_length_a 20.542706
_cell_length_b 9.145998
_cell_length_c 29.113307
_cell_angle_alpha 90.000000
_cell_angle_beta 90.000000
_cell_angle_gamma 90.000000
_cell_volume 5469.911413
_symmetry_space_group_name_H-M "I M M A"
_symmetry_group_IT_number 74
_symmetry_cell_setting 'orthorhombic'
loop_
_space_group_symop_operation_xyz
x,y,z
-x,1/2-y,z
x,-y,-z
-x,1/2+y,-z
-x,-y,-z
x,1/2+y,-z
-x,y,z
x,1/2-y,z
1/2+x,1/2+y,1/2+z
1/2-x,-y,1/2+z
1/2+x,1/2-y,1/2-z
1/2-x,y,1/2-z
1/2-x,1/2-y,1/2-z
1/2+x,y,1/2-z
1/2-x,1/2+y,1/2+z
1/2+x,-y,1/2+z
loop_
_atom_site_type_symbol
_atom_site_label
_atom_site_fract_x
_atom_site_fract_y
_atom_site_fract_z
Si Si1 0.000000 0.929136 0.449095
Si Si2 0.181513 0.907105 0.225612
Si Si3 0.500000 0.425620 0.669345
Si Si4 0.773566 0.575065 0.951327
Si Si5 0.859892 0.924541 0.126394
Si Si6 0.632217 0.571613 0.908538
Si Si7 0.364613 0.412511 0.192180
Si Si8 0.000000 0.911381 0.733470
O O1 0.000000 0.750000 0.450036
O O2 0.000000 0.000000 0.500000
O O3 0.933232 0.990706 0.425685
O O4 0.145930 0.750000 0.228225
O O5 0.250000 0.889784 0.250000
O O6 0.182768 0.946726 0.172679
O O7 0.151438 0.024593 0.258358
O O8 0.500000 0.250000 0.670904
O O9 0.433390 0.468806 0.642330
O O10 0.500000 0.482949 0.722185
O O11 0.780831 0.750000 0.953631
O O12 0.824313 0.510545 0.914103
O O13 0.697812 0.545107 0.937711
O O14 0.786474 0.500000 0.000000
O O15 0.860788 0.750000 0.116126
O O16 0.620776 0.750000 0.907433
O O17 0.650227 0.518181 0.856834
O O18 0.336894 0.250000 0.190109
O O19 0.441290 0.417541 0.197890
O O20 0.000000 0.750000 0.755394
#
# Coordination Sequence:
#
# PCOD9535724 Si02
#       8
#     8  16   8  16  16  16  16   8
#     4  12  25  40  62  90 119 159 208 259 311 364
#     4  10  20  33  52  81 117 156 195 239 289 345
#     4  10  20  37  60  85 117 162 203 246 306 361
#     4  11  24  42  66  91 117 155 201 254 317 380
#     4  10  21  38  60  87 121 159 203 256 310 370
#     4  10  22  41  62  88 125 165 205 253 306 362
#     4  10  20  34  54  81 116 156 195 236 284 340
#     4  10  19  31  51  81 116 157 199 239 282 337
#
# _framework density 19.013104999999999
#
# number of rings (size 3 to 8) (size 9 to 14) (size 15 to 20)
#    0.000    1.692    1.538    3.000    0.000    5.846 
#    0.000    1.154    0.000    0.000    0.000    0.000 
#    0.000    0.000    0.000    0.000    0.000    0.000 
#
# Total GULP energy -289470.843304 kJ/mol
# GULP energy per Si atom -5566.746987 kJ/mol
# Density = 1.896983 g / cm^3
# Si number density = 19.013105 Si / 1000 Ang^3
#
#
#
# Elastic Constant Matrix: (Units=GPa)
#
#
# Indices 1 2 3 4 5 6 
#
# 1 76.8874 20.9470 37.5176 0.0000 0.0000 0.0000
# 2 20.9470 54.9635 52.1479 0.0000 0.0000 0.0000
# 3 37.5176 52.1479 153.6822 0.0000 0.0000 0.0000
# 4 0.0000 0.0000 0.0000 28.0090 0.0000 0.0000
# 5 0.0000 0.0000 0.0000 0.0000 69.9067 0.0000
# 6 0.0000 0.0000 0.0000 0.0000 0.0000 27.2470
#
#
#
# Elastic Compliance Matrix: (Units=1/GPa)
#
#
# Indices 1 2 3 4 5 6 
#
# 1 0.015171 -0.003345 -0.002569 0.000000 0.000000 0.000000
# 2 -0.003345 0.027570 -0.008539 0.000000 0.000000 0.000000
# 3 -0.002569 -0.008539 0.010031 0.000000 0.000000 0.000000
# 4 0.000000 0.000000 0.000000 0.035703 0.000000 0.000000
# 5 0.000000 0.000000 0.000000 0.000000 0.014305 0.000000
# 6 0.000000 0.000000 0.000000 0.000000 0.000000 0.036701
#
#
# Mechanical properties :
#
#
# Convention : Reuss Voigt Hill
#
# Bulk Modulus (GPa) = 41.89690 56.30644 49.10167
# Shear Modulus (GPa) = 28.35432 36.69391 32.52412
#
# Velocity S-wave (km/s) = 3.86593 4.39786 4.14045
# Velocity P-wave (km/s) = 6.48158 7.44762 6.98133
#
# Compressibility (1/GPa) = 0.02386812
#
# Stress axis : x y z
#
# Youngs Moduli (GPa) = 65.91702 36.27175 99.68774
#
# Poissons Ratio (x) = 0.12131 0.25606
# Poissons Ratio (y) = 0.22046 0.85119
# Poissons Ratio (z) = 0.16932 0.30971
#
# Static dielectric constant tensor:
#      x y z
#    x 1.664490 0.000000 0.000000 
#    y 0.000000 1.627430 0.000000 
#    z 0.000000 0.000000 1.618140 
# 
# From -- ./inp_files/68294.got.cif
#   From: 2010.05.17/outbox.cif.g08.bks.cpg/sg74_35_cif.got.tgz:68294.got - 2010.06.03 17:57:02.
