data_PCOD9535012
_publ_section_title
;
Structure prediction by ZEFSAII (Michael W. Deem and Ramdas Pophale) SiO2 
 PCOD9535012
Probable space group: I M M A
;
_chemical_formula_sum "Si O2"
_cell_formula_units_Z 80
_cell_length_a 8.617723
_cell_length_b 25.416168
_cell_length_c 20.964649
_cell_angle_alpha 90.000000
_cell_angle_beta 90.000000
_cell_angle_gamma 90.000000
_cell_volume 4591.876495
_symmetry_space_group_name_H-M "I M M A"
_symmetry_group_IT_number 74
_symmetry_cell_setting 'orthorhombic'
loop_
_space_group_symop_operation_xyz
x,y,z
-x,1/2-y,z
x,-y,-z
-x,1/2+y,-z
-x,-y,-z
x,1/2+y,-z
-x,y,z
x,1/2-y,z
1/2+x,1/2+y,1/2+z
1/2-x,-y,1/2+z
1/2+x,1/2-y,1/2-z
1/2-x,y,1/2-z
1/2-x,1/2-y,1/2-z
1/2+x,y,1/2-z
1/2-x,1/2+y,1/2+z
1/2+x,-y,1/2+z
loop_
_atom_site_type_symbol
_atom_site_label
_atom_site_fract_x
_atom_site_fract_y
_atom_site_fract_z
Si Si1 0.179991 0.750000 0.994440
Si Si2 0.685689 0.036451 0.438833
Si Si3 0.180025 0.750000 0.149762
Si Si4 0.815913 0.139282 0.498371
Si Si5 0.184763 0.024820 0.682992
Si Si6 0.187272 0.135572 0.858295
O O1 0.263800 0.696592 0.974191
O O2 0.000000 0.750000 0.975509
O O3 0.182818 0.750000 0.072228
O O4 0.500000 0.041457 0.435250
O O5 0.761297 0.092834 0.452321
O O6 0.723057 0.000000 0.500000
O O7 0.748604 0.008136 0.376041
O O8 0.245905 0.807357 0.167107
O O9 0.000000 0.750000 0.170099
O O10 0.733087 0.131523 0.567045
O O11 0.000000 0.137579 0.508001
O O12 0.250000 0.004560 0.750000
O O13 0.241153 0.085065 0.675062
O O14 0.000000 0.023283 0.682264
O O15 0.000000 0.134471 0.853594
#
# Coordination Sequence:
#
# PCOD9535012 Si02
#       6
#     8  16   8  16  16  16
#     4   9  17  31  49  74 111 148 181 222 275 329
#     4  11  22  37  59  83 111 147 187 229 279 334
#     4   7  14  27  48  72  99 136 179 224 268 315
#     4  11  20  31  52  83 114 144 182 229 278 328
#     4  12  25  40  57  79 109 145 186 233 283 336
#     4  10  18  33  53  76 106 144 185 227 277 330
#
# _framework density 17.422072
#
# number of rings (size 3 to 8) (size 9 to 14) (size 15 to 20)
#    0.000    1.600    2.000    6.300    0.000    0.800 
#    0.000    2.000    0.000    0.000    0.000    0.700 
#    0.000    0.000    0.000    0.000    0.000    0.000 
#
# Total GULP energy -223389.468637 kJ/mol
# GULP energy per Si atom -5584.736716 kJ/mol
# Density = 1.738242 g / cm^3
# Si number density = 17.422072 Si / 1000 Ang^3
#
#
#
# Elastic Constant Matrix: (Units=GPa)
#
#
# Indices 1 2 3 4 5 6 
#
# 1 72.2664 27.5716 16.6703 0.0000 0.0000 0.0000
# 2 27.5716 112.9929 38.9186 0.0000 0.0000 0.0000
# 3 16.6703 38.9186 79.4102 0.0000 0.0000 0.0000
# 4 0.0000 0.0000 0.0000 6.4952 0.0000 0.0000
# 5 0.0000 0.0000 0.0000 0.0000 21.3132 0.0000
# 6 0.0000 0.0000 0.0000 0.0000 0.0000 22.0692
#
#
#
# Elastic Compliance Matrix: (Units=1/GPa)
#
#
# Indices 1 2 3 4 5 6 
#
# 1 0.015442 -0.003190 -0.001678 0.000000 0.000000 0.000000
# 2 -0.003190 0.011306 -0.004872 0.000000 0.000000 0.000000
# 3 -0.001678 -0.004872 0.015333 0.000000 0.000000 0.000000
# 4 0.000000 0.000000 0.000000 0.153960 0.000000 0.000000
# 5 0.000000 0.000000 0.000000 0.000000 0.046919 0.000000
# 6 0.000000 0.000000 0.000000 0.000000 0.000000 0.045312
#
#
# Mechanical properties :
#
#
# Convention : Reuss Voigt Hill
#
# Bulk Modulus (GPa) = 44.24503 47.88782 46.06643
# Shear Modulus (GPa) = 15.85861 22.07612 18.96737
#
# Velocity S-wave (km/s) = 3.02032 3.56355 3.30312
# Velocity P-wave (km/s) = 6.13305 6.66921 6.40674
#
# Compressibility (1/GPa) = 0.02260141
#
# Stress axis : x y z
#
# Youngs Moduli (GPa) = 64.75890 88.44516 65.22009
#
# Poissons Ratio (x) = 0.28214 0.10946
# Poissons Ratio (y) = 0.20658 0.31773
# Poissons Ratio (z) = 0.10868 0.43087
#
# Static dielectric constant tensor:
#      x y z
#    x 1.578220 0.000000 0.000000 
#    y 0.000000 1.617720 0.000000 
#    z 0.000000 0.000000 1.585660 
# 
# From -- ./inp_files/39776.got.cif
#   From: 2010.05.17/outbox.cif.g08.bks.cpg/sg74_20_cif.got.tgz:39776.got - 2010.06.03 17:57:02.
