data_PCOD9535316
_publ_section_title
;
Structure prediction by ZEFSAII (Michael W. Deem and Ramdas Pophale) SiO2 
 PCOD9535316
Probable space group: I M M A
;
_chemical_formula_sum "Si O2"
_cell_formula_units_Z 116
_cell_length_a 14.498711
_cell_length_b 16.735946
_cell_length_c 24.481090
_cell_angle_alpha 90.000000
_cell_angle_beta 90.000000
_cell_angle_gamma 90.000000
_cell_volume 5940.327782
_symmetry_space_group_name_H-M "I M M A"
_symmetry_group_IT_number 74
_symmetry_cell_setting 'orthorhombic'
loop_
_space_group_symop_operation_xyz
x,y,z
-x,1/2-y,z
x,-y,-z
-x,1/2+y,-z
-x,-y,-z
x,1/2+y,-z
-x,y,z
x,1/2-y,z
1/2+x,1/2+y,1/2+z
1/2-x,-y,1/2+z
1/2+x,1/2-y,1/2-z
1/2-x,y,1/2-z
1/2-x,1/2-y,1/2-z
1/2+x,y,1/2-z
1/2-x,1/2+y,1/2+z
1/2+x,-y,1/2+z
loop_
_atom_site_type_symbol
_atom_site_label
_atom_site_fract_x
_atom_site_fract_y
_atom_site_fract_z
Si Si1 0.107589 0.841631 0.481324
Si Si2 0.110161 0.838866 0.674158
Si Si3 0.105959 0.063219 0.625320
Si Si4 0.108828 0.154509 0.114891
Si Si5 0.610791 0.941733 0.724470
Si Si6 0.352347 0.115053 0.750649
Si Si7 0.288777 0.414169 0.077240
Si Si8 0.000000 0.250000 0.776581
O O1 0.135590 0.750000 0.490215
O O2 0.113586 0.864692 0.417778
O O3 0.167367 0.900606 0.518163
O O4 0.000000 0.850030 0.497277
O O5 0.125041 0.750000 0.696370
O O6 0.142584 0.902900 0.718698
O O7 0.163006 0.850291 0.617854
O O8 0.000000 0.848073 0.665661
O O9 0.119980 0.091736 0.687133
O O10 0.000000 0.031524 0.620822
O O11 0.177977 0.996900 0.604417
O O12 0.124350 0.250000 0.113064
O O13 0.128867 0.118554 0.175029
O O14 0.180778 0.106483 0.077403
O O15 0.000000 0.140799 0.103272
O O16 0.500000 0.949378 0.728551
O O17 0.648201 0.030789 0.718032
O O18 0.250000 0.147612 0.750000
O O19 0.421081 0.179465 0.726940
#
# Coordination Sequence:
#
# PCOD9535316 Si02
#       8
#    16  16  16  16  16  16  16   4
#     4  10  22  37  59  88 122 156 195 246 302 364
#     4  10  19  29  48  79 120 159 188 228 286 352
#     4  11  22  39  64  89 125 160 196 239 306 372
#     4  10  22  38  58  84 119 166 211 247 291 352
#     4  10  19  36  55  80 120 155 194 240 289 351
#     4  12  24  41  64  94 118 159 201 249 307 362
#     4  12  21  35  56  88 120 157 203 249 293 355
#     4  12  26  44  64  86 124 156 204 264 296 362
#
# _framework density 19.527542
#
# number of rings (size 3 to 8) (size 9 to 14) (size 15 to 20)
#    0.000    1.241    2.759    4.345    0.966    3.862 
#    0.000    1.379    0.000    1.655    0.000    0.000 
#    0.000    0.000    0.000    0.000    0.000    0.000 
#
# Total GULP energy -323528.941784 kJ/mol
# GULP energy per Si atom -5578.085203 kJ/mol
# Density = 1.948310 g / cm^3
# Si number density = 19.527542 Si / 1000 Ang^3
#
#
#
# Elastic Constant Matrix: (Units=GPa)
#
#
# Indices 1 2 3 4 5 6 
#
# 1 89.0756 19.9350 -4.0693 0.0000 0.0000 0.0000
# 2 19.9350 79.2620 -7.4279 0.0000 0.0000 0.0000
# 3 -4.0693 -7.4279 29.9443 0.0000 0.0000 0.0000
# 4 0.0000 0.0000 0.0000 16.3765 0.0000 0.0000
# 5 0.0000 0.0000 0.0000 0.0000 11.7982 0.0000
# 6 0.0000 0.0000 0.0000 0.0000 0.0000 -53.4204
#
#
#
# Elastic Compliance Matrix: (Units=1/GPa)
#
#
# Indices 1 2 3 4 5 6 
#
# 1 0.011920 -0.002914 0.000897 0.000000 0.000000 0.000000
# 2 -0.002914 0.013629 0.002985 0.000000 0.000000 0.000000
# 3 0.000897 0.002985 0.034258 0.000000 0.000000 0.000000
# 4 0.000000 0.000000 0.000000 0.061063 0.000000 0.000000
# 5 0.000000 0.000000 0.000000 0.000000 0.084759 0.000000
# 6 0.000000 0.000000 0.000000 0.000000 0.000000 -0.018719
#
#
# Mechanical properties :
#
#
# Convention : Reuss Voigt Hill
#
# Bulk Modulus (GPa) = 16.19639 23.90637 20.05138
# Shear Modulus (GPa) = 24.32460 7.60712 15.96586
#
# Velocity S-wave (km/s) = 3.53321 1.97586 2.86249
# Velocity P-wave (km/s) = 4.99569 4.18023 4.60604
#
# Compressibility (1/GPa) = 0.06174216
#
# Stress axis : x y z
#
# Youngs Moduli (GPa) = 83.89610 73.37327 29.19059
#
# Poissons Ratio (x) = 0.21379 -0.02619
# Poissons Ratio (y) = 0.24445 -0.08713
# Poissons Ratio (z) = -0.07526 -0.21900
#
# Static dielectric constant tensor:
#      x y z
#    x 1.718230 0.000000 0.000000 
#    y 0.000000 1.697510 0.000000 
#    z 0.000000 0.000000 1.667990 
# 
# From -- ./inp_files/60360.got.cif
#   From: 2010.05.17/outbox.cif.g08.bks.cpg/sg74_31_cif.got.tgz:60360.got - 2010.06.03 17:57:02.
