data_PCOD9535137
_publ_section_title
;
Structure prediction by ZEFSAII (Michael W. Deem and Ramdas Pophale) SiO2 
 PCOD9535137
Probable space group: I M M A
;
_chemical_formula_sum "Si O2"
_cell_formula_units_Z 104
_cell_length_a 21.805720
_cell_length_b 8.495724
_cell_length_c 25.954418
_cell_angle_alpha 90.000000
_cell_angle_beta 90.000000
_cell_angle_gamma 90.000000
_cell_volume 4808.195537
_symmetry_space_group_name_H-M "I M M A"
_symmetry_group_IT_number 74
_symmetry_cell_setting 'orthorhombic'
loop_
_space_group_symop_operation_xyz
x,y,z
-x,1/2-y,z
x,-y,-z
-x,1/2+y,-z
-x,-y,-z
x,1/2+y,-z
-x,y,z
x,1/2-y,z
1/2+x,1/2+y,1/2+z
1/2-x,-y,1/2+z
1/2+x,1/2-y,1/2-z
1/2-x,y,1/2-z
1/2-x,1/2-y,1/2-z
1/2+x,y,1/2-z
1/2-x,1/2+y,1/2+z
1/2+x,-y,1/2+z
loop_
_atom_site_type_symbol
_atom_site_label
_atom_site_fract_x
_atom_site_fract_y
_atom_site_fract_z
Si Si1 0.628036 0.440668 0.607870
Si Si2 0.500000 0.560730 0.558714
Si Si3 0.000000 0.078023 0.730209
Si Si4 0.301974 0.926564 0.206817
Si Si5 0.760903 0.560730 0.408967
Si Si6 0.109425 0.070954 0.218960
Si Si7 0.000000 0.432158 0.377499
Si Si8 0.391786 0.561633 0.054651
O O1 0.626905 0.250000 0.610355
O O2 0.563199 0.499648 0.585112
O O3 0.691248 0.490875 0.578593
O O4 0.636011 0.512463 0.664955
O O5 0.500000 0.250000 0.793584
O O6 0.500000 0.500000 0.500000
O O7 0.943455 0.049411 0.767107
O O8 0.000000 0.750000 0.939589
O O9 0.000000 0.955784 0.683673
O O10 0.330444 0.750000 0.201785
O O11 0.250000 0.913429 0.250000
O O12 0.275195 0.968445 0.151439
O O13 0.346709 0.053140 0.231741
O O14 0.760481 0.750000 0.415721
O O15 0.821904 0.500056 0.437345
O O16 0.088051 0.250000 0.213587
O O17 0.938649 0.507949 0.401280
O O18 0.000000 0.250000 0.391204
O O19 0.390259 0.750000 0.054641
O O20 0.415111 0.500000 0.000000
#
# Coordination Sequence:
#
# PCOD9535137 Si02
#       8
#    16   8   8  16  16  16   8  16
#     4  11  22  43  69  95 126 170 214 263 319 384
#     4  12  27  48  69  96 124 160 208 266 327 394
#     4  12  25  42  63  88 122 170 214 258 311 378
#     4  10  18  35  61  88 120 165 213 254 300 369
#     4   9  20  38  64  95 127 164 214 265 316 374
#     4  12  24  38  58  93 133 170 210 260 312 373
#     4  12  25  44  67  96 128 164 210 268 323 384
#     4  11  23  42  66  94 127 169 214 265 320 380
#
# _framework density 21.629736999999999
#
# number of rings (size 3 to 8) (size 9 to 14) (size 15 to 20)
#    0.000    1.077    1.538    6.000    0.000    2.154 
#    0.000    5.385    0.000    0.000    0.000    0.000 
#    0.000    0.000    0.000    0.000    0.000    0.000 
#
# Total GULP energy -290386.352421 kJ/mol
# GULP energy per Si atom -5584.352931 kJ/mol
# Density = 2.158051 g / cm^3
# Si number density = 21.629737 Si / 1000 Ang^3
#
#
#
# Elastic Constant Matrix: (Units=GPa)
#
#
# Indices 1 2 3 4 5 6 
#
# 1 117.6266 20.4120 4.2250 0.0000 0.0000 0.0000
# 2 20.4120 82.4394 3.4868 0.0000 0.0000 0.0000
# 3 4.2250 3.4868 44.6410 0.0000 0.0000 0.0000
# 4 0.0000 0.0000 0.0000 23.1219 0.0000 0.0000
# 5 0.0000 0.0000 0.0000 0.0000 36.9800 0.0000
# 6 0.0000 0.0000 0.0000 0.0000 0.0000 14.1016
#
#
#
# Elastic Compliance Matrix: (Units=1/GPa)
#
#
# Indices 1 2 3 4 5 6 
#
# 1 0.008903 -0.002176 -0.000673 0.000000 0.000000 0.000000
# 2 -0.002176 0.012702 -0.000786 0.000000 0.000000 0.000000
# 3 -0.000673 -0.000786 0.022526 0.000000 0.000000 0.000000
# 4 0.000000 0.000000 0.000000 0.043249 0.000000 0.000000
# 5 0.000000 0.000000 0.000000 0.000000 0.027042 0.000000
# 6 0.000000 0.000000 0.000000 0.000000 0.000000 0.070914
#
#
# Mechanical properties :
#
#
# Convention : Reuss Voigt Hill
#
# Bulk Modulus (GPa) = 27.12844 33.43939 30.28391
# Shear Modulus (GPa) = 24.40296 29.27957 26.84126
#
# Velocity S-wave (km/s) = 3.36253 3.68322 3.52652
# Velocity P-wave (km/s) = 5.25784 5.79497 5.53293
#
# Compressibility (1/GPa) = 0.03686169
#
# Stress axis : x y z
#
# Youngs Moduli (GPa) = 112.31862 78.72683 44.39315
#
# Poissons Ratio (x) = 0.17131 0.02986
# Poissons Ratio (y) = 0.24440 0.03490
# Poissons Ratio (z) = 0.07556 0.06189
#
# Static dielectric constant tensor:
#      x y z
#    x -2.620710 0.000000 0.000000 
#    y 0.000000 1.742610 0.000000 
#    z 0.000000 0.000000 1.770720 
# 
# From -- ./inp_files/68313.got.cif
#   From: 2010.05.17/outbox.cif.g08.bks.cpg/sg74_35_cif.got.tgz:68313.got - 2010.06.03 17:57:02.
