data_PCOD9535694
_publ_section_title
;
Structure prediction by ZEFSAII (Michael W. Deem and Ramdas Pophale) SiO2 
 PCOD9535694
Probable space group: I M M A
;
_chemical_formula_sum "Si O2"
_cell_formula_units_Z 112
_cell_length_a 14.344531
_cell_length_b 27.121170
_cell_length_c 14.346724
_cell_angle_alpha 90.000000
_cell_angle_beta 90.000000
_cell_angle_gamma 90.000000
_cell_volume 5581.456159
_symmetry_space_group_name_H-M "I M M A"
_symmetry_group_IT_number 74
_symmetry_cell_setting 'orthorhombic'
loop_
_space_group_symop_operation_xyz
x,y,z
-x,1/2-y,z
x,-y,-z
-x,1/2+y,-z
-x,-y,-z
x,1/2+y,-z
-x,y,z
x,1/2-y,z
1/2+x,1/2+y,1/2+z
1/2-x,-y,1/2+z
1/2+x,1/2-y,1/2-z
1/2-x,y,1/2-z
1/2-x,1/2-y,1/2-z
1/2+x,y,1/2-z
1/2-x,1/2+y,1/2+z
1/2+x,-y,1/2+z
loop_
_atom_site_type_symbol
_atom_site_label
_atom_site_fract_x
_atom_site_fract_y
_atom_site_fract_z
Si Si1 0.898210 0.615394 0.399579
Si Si2 0.392171 0.250000 0.386367
Si Si3 0.392480 0.054446 0.271135
Si Si4 0.190186 0.353671 0.890064
Si Si5 0.392203 0.750000 0.386112
Si Si6 0.385436 0.143145 0.400882
Si Si7 0.610313 0.956756 0.935814
Si Si8 0.142595 0.553198 0.228099
O O1 0.801996 0.643044 0.377489
O O2 0.886242 0.592213 0.501997
O O3 0.901268 0.570047 0.325987
O O4 0.000000 0.640495 0.393616
O O5 0.500000 0.250000 0.357607
O O6 0.388537 0.250000 0.499971
O O7 0.355494 0.196241 0.358077
O O8 0.500000 0.069469 0.256521
O O9 0.355958 0.096740 0.338737
O O10 0.349616 0.049739 0.167465
O O11 0.392761 0.998692 0.310199
O O12 0.154903 0.300760 0.855427
O O13 0.140563 0.399095 0.837567
O O14 0.160732 0.359490 0.997613
O O15 0.500000 0.750000 0.359210
O O16 0.500000 0.143676 0.411968
O O17 0.500000 0.968925 0.923952
O O18 0.653183 0.000000 0.000000
O O19 0.250000 0.544660 0.250000
#
# Coordination Sequence:
#
# PCOD9535694 Si02
#       8
#    16   8  16  16   8  16  16  16
#     4  10  20  36  56  78 109 149 190 236 278 326
#     4   7  12  28  52  73 100 142 186 221 262 323
#     4  10  19  31  50  80 115 148 188 235 283 344
#     4  10  21  37  56  84 110 143 188 235 286 351
#     4   9  18  36  62  83 106 146 193 231 272 347
#     4   9  18  32  52  81 114 147 184 233 290 342
#     4   9  16  30  53  76 102 149 203 233 260 323
#     4  10  21  34  50  76 111 147 187 231 282 342
#
# _framework density 20.066448000000001
#
# number of rings (size 3 to 8) (size 9 to 14) (size 15 to 20)
#    0.000    2.571    1.429    1.714    0.000    4.000 
#    0.000    5.000    0.000    0.857    0.000    6.500 
#    0.000    0.000    0.000    0.000    0.000    0.000 
#
# Total GULP energy -312033.958753 kJ/mol
# GULP energy per Si atom -5572.034978 kJ/mol
# Density = 2.002078 g / cm^3
# Si number density = 20.066448 Si / 1000 Ang^3
#
#
#
# Elastic Constant Matrix: (Units=GPa)
#
#
# Indices 1 2 3 4 5 6 
#
# 1 82.4331 33.8957 8.1182 0.0000 0.0000 0.0000
# 2 33.8957 162.8137 60.9604 -0.0001 0.0000 0.0000
# 3 8.1182 60.9604 71.3875 -0.0001 0.0000 0.0000
# 4 0.0000 -0.0001 -0.0001 9.8750 0.0000 0.0000
# 5 0.0000 0.0000 0.0000 0.0000 12.4985 0.0000
# 6 0.0000 0.0000 0.0000 0.0000 0.0000 20.7325
#
#
#
# Elastic Compliance Matrix: (Units=1/GPa)
#
#
# Indices 1 2 3 4 5 6 
#
# 1 0.013343 -0.003248 0.001256 0.000000 0.000000 0.000000
# 2 -0.003248 0.009820 -0.008016 0.000000 0.000000 0.000000
# 3 0.001256 -0.008016 0.020710 0.000000 0.000000 0.000000
# 4 0.000000 0.000000 0.000000 0.101266 0.000000 0.000000
# 5 0.000000 0.000000 0.000000 0.000000 0.080010 0.000000
# 6 0.000000 0.000000 0.000000 0.000000 0.000000 0.048233
#
#
# Mechanical properties :
#
#
# Convention : Reuss Voigt Hill
#
# Bulk Modulus (GPa) = 41.91580 58.06476 49.99028
# Shear Modulus (GPa) = 16.59202 22.86519 19.72861
#
# Velocity S-wave (km/s) = 2.87863 3.37927 3.13895
# Velocity P-wave (km/s) = 5.65531 6.65019 6.17282
#
# Compressibility (1/GPa) = 0.02385735
#
# Stress axis : x y z
#
# Youngs Moduli (GPa) = 74.94585 101.83802 48.28541
#
# Poissons Ratio (x) = 0.33080 -0.06067
# Poissons Ratio (y) = 0.24344 0.38705
# Poissons Ratio (z) = -0.09417 0.81632
#
# Static dielectric constant tensor:
#      x y z
#    x 1.749040 0.000000 0.000000 
#    y 0.000000 1.743480 0.000000 
#    z 0.000000 0.000000 1.734050 
# 
# From -- ./inp_files/32987.got.cif
#   From: 2010.05.17/outbox.cif.g08.bks.cpg/sg74_17_cif.got.tgz:32987.got - 2010.06.03 17:57:02.
