data_PCOD9535732
_publ_section_title
;
Structure prediction by ZEFSAII (Michael W. Deem and Ramdas Pophale) SiO2 
 PCOD9535732
Probable space group: I M M A
;
_chemical_formula_sum "Si O2"
_cell_formula_units_Z 88
_cell_length_a 17.321885
_cell_length_b 13.759772
_cell_length_c 20.860361
_cell_angle_alpha 90.000000
_cell_angle_beta 90.000000
_cell_angle_gamma 90.000000
_cell_volume 4971.966669
_symmetry_space_group_name_H-M "I M M A"
_symmetry_group_IT_number 74
_symmetry_cell_setting 'orthorhombic'
loop_
_space_group_symop_operation_xyz
x,y,z
-x,1/2-y,z
x,-y,-z
-x,1/2+y,-z
-x,-y,-z
x,1/2+y,-z
-x,y,z
x,1/2-y,z
1/2+x,1/2+y,1/2+z
1/2-x,-y,1/2+z
1/2+x,1/2-y,1/2-z
1/2-x,y,1/2-z
1/2-x,1/2-y,1/2-z
1/2+x,y,1/2-z
1/2-x,1/2+y,1/2+z
1/2+x,-y,1/2+z
loop_
_atom_site_type_symbol
_atom_site_label
_atom_site_fract_x
_atom_site_fract_y
_atom_site_fract_z
Si Si1 0.784412 0.137650 0.397706
Si Si2 0.093826 0.857755 0.239484
Si Si3 0.587472 0.557108 0.397642
Si Si4 0.408831 0.446352 0.194037
Si Si5 0.205664 0.000000 0.000000
Si Si6 0.123208 0.859091 0.831441
O O1 0.794143 0.250000 0.416700
O O2 0.859963 0.096240 0.363747
O O3 0.756372 0.070374 0.455861
O O4 0.714624 0.134456 0.345707
O O5 0.121063 0.750000 0.256497
O O6 0.112562 0.884026 0.165792
O O7 0.000000 0.858597 0.241622
O O8 0.118993 0.945506 0.285268
O O9 0.500000 0.585133 0.415671
O O10 0.648634 0.562266 0.454407
O O11 0.587020 0.444653 0.374004
O O12 0.500000 0.449283 0.180480
O O13 0.395860 0.382098 0.257922
O O14 0.098278 0.750000 0.848213
#
# Coordination Sequence:
#
# PCOD9535732 Si02
#       6
#    16  16  16  16   8  16
#     4  10  21  36  52  71  99 134 167 204 250 296
#     4   8  15  29  49  75 104 126 149 192 251 307
#     4   9  17  29  49  75 100 130 167 206 244 287
#     4  10  19  31  52  79 101 125 161 205 252 300
#     4  10  21  36  49  64  98 140 180 210 237 284
#     4   9  17  30  50  76 105 131 154 192 254 318
#
# _framework density 17.699234000000001
#
# number of rings (size 3 to 8) (size 9 to 14) (size 15 to 20)
#    0.000    2.727    0.000    3.000    0.000    4.727 
#    0.000    1.364    0.000   17.455    0.000    0.000 
#    0.000    0.000    0.000    0.000    0.000    0.000 
#
# Total GULP energy -245332.417889 kJ/mol
# GULP energy per Si atom -5575.736770 kJ/mol
# Density = 1.765895 g / cm^3
# Si number density = 17.699234 Si / 1000 Ang^3
#
#
#
# Elastic Constant Matrix: (Units=GPa)
#
#
# Indices 1 2 3 4 5 6 
#
# 1 76.6359 32.5257 51.6660 0.0000 0.0000 0.0000
# 2 32.5257 80.5803 23.4646 0.0000 0.0000 0.0000
# 3 51.6660 23.4646 76.6581 0.0000 0.0000 0.0000
# 4 0.0000 0.0000 0.0000 10.0409 0.0000 0.0000
# 5 0.0000 0.0000 0.0000 0.0000 2.9699 0.0000
# 6 0.0000 0.0000 0.0000 0.0000 0.0000 15.1846
#
#
#
# Elastic Compliance Matrix: (Units=1/GPa)
#
#
# Indices 1 2 3 4 5 6 
#
# 1 0.026309 -0.005990 -0.015898 0.000000 0.000000 0.000000
# 2 -0.005990 0.014988 -0.000551 0.000000 0.000000 0.000000
# 3 -0.015898 -0.000551 0.023929 0.000000 0.000000 0.000000
# 4 0.000000 0.000000 0.000000 0.099592 0.000000 0.000000
# 5 0.000000 0.000000 0.000000 0.000000 0.336710 0.000000
# 6 0.000000 0.000000 0.000000 0.000000 0.000000 0.065856
#
#
# Mechanical properties :
#
#
# Convention : Reuss Voigt Hill
#
# Bulk Modulus (GPa) = 49.14489 49.90965 49.52727
# Shear Modulus (GPa) = 8.07694 14.05362 11.06528
#
# Velocity S-wave (km/s) = 2.13854 2.82090 2.50308
# Velocity P-wave (km/s) = 5.82450 6.23458 6.03302
#
# Compressibility (1/GPa) = 0.02034800
#
# Stress axis : x y z
#
# Youngs Moduli (GPa) = 38.00924 66.71928 41.79076
#
# Poissons Ratio (x) = 0.39965 0.66441
# Poissons Ratio (y) = 0.22768 0.02301
# Poissons Ratio (z) = 0.60429 0.03674
#
# Static dielectric constant tensor:
#      x y z
#    x 1.617720 0.000000 0.000000 
#    y 0.000000 1.620450 0.000000 
#    z 0.000000 0.000000 1.581230 
# 
# From -- ./inp_files/43951.got.cif
#   From: 2010.05.17/outbox.cif.g08.bks.cpg/sg74_22_cif.got.tgz:43951.got - 2010.06.03 17:57:02.
