data_PCOD9535259
_publ_section_title
;
Structure prediction by ZEFSAII (Michael W. Deem and Ramdas Pophale) SiO2 
 PCOD9535259
Probable space group: I M M A
;
_chemical_formula_sum "Si O2"
_cell_formula_units_Z 112
_cell_length_a 28.811222
_cell_length_b 14.122877
_cell_length_c 16.661702
_cell_angle_alpha 90.000000
_cell_angle_beta 90.000000
_cell_angle_gamma 90.000000
_cell_volume 6779.602299
_symmetry_space_group_name_H-M "I M M A"
_symmetry_group_IT_number 74
_symmetry_cell_setting 'orthorhombic'
loop_
_space_group_symop_operation_xyz
x,y,z
-x,1/2-y,z
x,-y,-z
-x,1/2+y,-z
-x,-y,-z
x,1/2+y,-z
-x,y,z
x,1/2-y,z
1/2+x,1/2+y,1/2+z
1/2-x,-y,1/2+z
1/2+x,1/2-y,1/2-z
1/2-x,y,1/2-z
1/2-x,1/2-y,1/2-z
1/2+x,y,1/2-z
1/2-x,1/2+y,1/2+z
1/2+x,-y,1/2+z
loop_
_atom_site_type_symbol
_atom_site_label
_atom_site_fract_x
_atom_site_fract_y
_atom_site_fract_z
Si Si1 0.118513 0.639526 0.122234
Si Si2 0.207377 0.362141 0.135481
Si Si3 0.365654 0.480615 0.257170
Si Si4 0.553573 0.636631 0.708628
Si Si5 0.276075 0.515477 0.170034
Si Si6 0.053149 0.635323 0.976278
Si Si7 0.220736 0.641293 0.051571
O O1 0.106781 0.750000 0.137347
O O2 0.113468 0.571323 0.197533
O O3 0.088448 0.605682 0.045565
O O4 0.172790 0.634811 0.100080
O O5 0.203620 0.250000 0.150418
O O6 0.167432 0.420269 0.181554
O O7 0.255960 0.409130 0.161498
O O8 0.206417 0.379292 0.039980
O O9 0.408679 0.413833 0.236540
O O10 0.330379 0.512328 0.187802
O O11 0.500000 0.612318 0.724987
O O12 0.557928 0.750000 0.712883
O O13 0.563658 0.607775 0.615503
O O14 0.250000 0.555445 0.250000
O O15 0.257984 0.573831 0.093810
O O16 0.054901 0.750000 0.975292
O O17 0.000000 0.608556 0.995003
O O18 0.237312 0.750000 0.053776
#
# Coordination Sequence:
#
# PCOD9535259 Si02
#       7
#    16  16  16  16  16  16  16
#     4  10  19  29  43  63  88 123 162 197 233 269
#     4  10  20  32  48  68  90 119 154 196 241 281
#     4  11  21  31  46  69  93 125 160 198 234 284
#     4   9  18  32  48  66  91 122 158 198 239 281
#     4  10  20  32  44  66  92 124 155 191 235 283
#     4   8  15  28  44  64  89 118 156 199 235 263
#     4  10  19  32  49  66  89 121 160 202 236 278
#
# _framework density 16.520142
#
# number of rings (size 3 to 8) (size 9 to 14) (size 15 to 20)
#    0.000    2.286    2.857    2.571    0.000    8.571 
#    0.000    1.429    0.000    0.000    0.000    0.000 
#    0.000    2.286    0.000    3.143    0.000    0.714 
#
# Total GULP energy -312261.658276 kJ/mol
# GULP energy per Si atom -5576.101041 kJ/mol
# Density = 1.648254 g / cm^3
# Si number density = 16.520142 Si / 1000 Ang^3
#
#
#
# Elastic Constant Matrix: (Units=GPa)
#
#
# Indices 1 2 3 4 5 6 
#
# 1 78.0570 13.1454 2.4945 0.0000 0.0000 0.0000
# 2 13.1454 55.2513 10.0965 0.0000 0.0000 0.0000
# 3 2.4945 10.0965 15.5939 0.0000 0.0000 0.0000
# 4 0.0000 0.0000 0.0000 19.1697 0.0000 0.0000
# 5 0.0000 0.0000 0.0000 0.0000 33.1902 0.0000
# 6 0.0000 0.0000 0.0000 0.0000 0.0000 17.6441
#
#
#
# Elastic Compliance Matrix: (Units=1/GPa)
#
#
# Indices 1 2 3 4 5 6 
#
# 1 0.013346 -0.003159 -0.000090 0.000000 0.000000 0.000000
# 2 -0.003159 0.021276 -0.013270 0.000000 0.000000 0.000000
# 3 -0.000090 -0.013270 0.072734 0.000000 0.000000 0.000000
# 4 0.000000 0.000000 0.000000 0.052166 0.000000 0.000000
# 5 0.000000 0.000000 0.000000 0.000000 0.030129 0.000000
# 6 0.000000 0.000000 0.000000 0.000000 0.000000 0.056676
#
#
# Mechanical properties :
#
#
# Convention : Reuss Voigt Hill
#
# Bulk Modulus (GPa) = 13.45561 22.26390 17.85975
# Shear Modulus (GPa) = 16.44002 22.21187 19.32594
#
# Velocity S-wave (km/s) = 3.15802 3.67076 3.42400
# Velocity P-wave (km/s) = 4.63251 5.61000 5.14452
#
# Compressibility (1/GPa) = 0.07431845
#
# Stress axis : x y z
#
# Youngs Moduli (GPa) = 74.92881 47.00223 13.74879
#
# Poissons Ratio (x) = 0.14848 0.00123
# Poissons Ratio (y) = 0.23669 0.18244
# Poissons Ratio (z) = 0.00671 0.62371
#
# Static dielectric constant tensor:
#      x y z
#    x 1.562600 0.000000 0.000000 
#    y 0.000000 1.606130 0.000000 
#    z 0.000000 0.000000 1.565790 
# 
# From -- ./inp_files/33148.got.cif
#   From: 2010.05.17/outbox.cif.g08.bks.cpg/sg74_17_cif.got.tgz:33148.got - 2010.06.03 17:57:02.
