data_PCOD9535555
_publ_section_title
;
Structure prediction by ZEFSAII (Michael W. Deem and Ramdas Pophale) SiO2 
 PCOD9535555
Probable space group: I M M A
;
_chemical_formula_sum "Si O2"
_cell_formula_units_Z 112
_cell_length_a 17.799715
_cell_length_b 7.689665
_cell_length_c 39.408916
_cell_angle_alpha 90.000000
_cell_angle_beta 90.000000
_cell_angle_gamma 90.000000
_cell_volume 5394.049878
_symmetry_space_group_name_H-M "I M M A"
_symmetry_group_IT_number 74
_symmetry_cell_setting 'orthorhombic'
loop_
_space_group_symop_operation_xyz
x,y,z
-x,1/2-y,z
x,-y,-z
-x,1/2+y,-z
-x,-y,-z
x,1/2+y,-z
-x,y,z
x,1/2-y,z
1/2+x,1/2+y,1/2+z
1/2-x,-y,1/2+z
1/2+x,1/2-y,1/2-z
1/2-x,y,1/2-z
1/2-x,1/2-y,1/2-z
1/2+x,y,1/2-z
1/2-x,1/2+y,1/2+z
1/2+x,-y,1/2+z
loop_
_atom_site_type_symbol
_atom_site_label
_atom_site_fract_x
_atom_site_fract_y
_atom_site_fract_z
Si Si1 0.133673 0.049153 0.367085
Si Si2 0.805700 0.047300 0.105884
Si Si3 0.855447 0.450244 0.175736
Si Si4 0.081335 0.453383 0.754972
Si Si5 0.244136 0.040792 0.462182
Si Si6 0.080995 0.962719 0.561213
Si Si7 0.694109 0.050396 0.798938
O O1 0.113008 0.250000 0.360766
O O2 0.219108 0.045952 0.381401
O O3 0.086769 0.983663 0.399163
O O4 0.137644 0.955389 0.331122
O O5 0.879025 0.250000 0.173297
O O6 0.797774 0.972747 0.068056
O O7 0.852026 0.971934 0.137663
O O8 0.828668 0.750000 0.896814
O O9 0.903953 0.535812 0.205041
O O10 0.769756 0.455813 0.189692
O O11 0.079708 0.250000 0.745451
O O12 0.150577 0.526091 0.733257
O O13 0.000000 0.530536 0.746825
O O14 0.241848 0.250000 0.458112
O O15 0.157763 0.977763 0.456792
O O16 0.269060 0.000000 0.500000
O O17 0.082569 0.750000 0.560987
O O18 0.000000 0.018224 0.547086
O O19 0.717103 0.250000 0.792262
#
# Coordination Sequence:
#
# PCOD9535555 Si02
#       7
#    16  16  16  16  16  16  16
#     4   8  14  26  43  61  80 106 148 197 232 259
#     4   7  13  27  44  61  83 110 137 173 224 269
#     4  10  19  33  54  74  90 115 158 203 233 265
#     4  10  22  37  48  64  97 133 156 181 229 287
#     4   9  16  27  42  60  85 113 140 175 221 270
#     4   8  14  25  40  56  78 114 154 188 229 276
#     4  10  19  31  48  68  92 125 159 190 234 285
#
# _framework density 20.76362
#
# number of rings (size 3 to 8) (size 9 to 14) (size 15 to 20)
#    0.000    3.143    0.000    3.857    0.000    4.000 
#    0.000    7.143    0.000    0.857    0.000    0.000 
#    0.000    0.571    0.000    1.286    0.000    2.286 
#
# Total GULP energy -311889.235697 kJ/mol
# GULP energy per Si atom -5569.450637 kJ/mol
# Density = 2.071636 g / cm^3
# Si number density = 20.763620 Si / 1000 Ang^3
#
#
#
# Elastic Constant Matrix: (Units=GPa)
#
#
# Indices 1 2 3 4 5 6 
#
# 1 11.1192 -6.2155 2.5563 0.0000 0.0000 0.0000
# 2 -6.2155 36.5966 -3.3022 0.0000 0.0000 0.0000
# 3 2.5563 -3.3022 123.4849 0.0000 0.0000 0.0000
# 4 0.0000 0.0000 0.0000 16.1329 0.0000 0.0000
# 5 0.0000 0.0000 0.0000 0.0000 10.5176 0.0000
# 6 0.0000 0.0000 0.0000 0.0000 0.0000 6.7784
#
#
#
# Elastic Compliance Matrix: (Units=1/GPa)
#
#
# Indices 1 2 3 4 5 6 
#
# 1 0.099688 0.016785 -0.001615 0.000000 0.000000 0.000000
# 2 0.016785 0.030217 0.000461 0.000000 0.000000 0.000000
# 3 -0.001615 0.000461 0.008144 0.000000 0.000000 0.000000
# 4 0.000000 0.000000 0.000000 0.061985 0.000000 0.000000
# 5 0.000000 0.000000 0.000000 0.000000 0.095079 0.000000
# 6 0.000000 0.000000 0.000000 0.000000 0.000000 0.147527
#
#
# Mechanical properties :
#
#
# Convention : Reuss Voigt Hill
#
# Bulk Modulus (GPa) = 5.90627 17.47531 11.69079
# Shear Modulus (GPa) = 10.68797 18.56325 14.62561
#
# Velocity S-wave (km/s) = 2.27126 2.99327 2.65691
# Velocity P-wave (km/s) = 3.11911 4.51451 3.88006
#
# Compressibility (1/GPa) = 0.16931158
#
# Stress axis : x y z
#
# Youngs Moduli (GPa) = 10.03127 33.09361 122.79123
#
# Poissons Ratio (x) = -0.55549 0.19829
# Poissons Ratio (y) = -0.16838 -0.05656
# Poissons Ratio (z) = 0.01620 -0.01524
#
# Static dielectric constant tensor:
#      x y z
#    x 1.750830 0.000000 0.000000 
#    y 0.000000 1.820370 0.000000 
#    z 0.000000 0.000000 1.804610 
# 
# From -- ./inp_files/68376.got.cif
#   From: 2010.05.17/outbox.cif.g08.bks.cpg/sg74_35_cif.got.tgz:68376.got - 2010.06.03 17:57:02.
