data_PCOD9535645
_publ_section_title
;
Structure prediction by ZEFSAII (Michael W. Deem and Ramdas Pophale) SiO2 
 PCOD9535645
Probable space group: I M M A
;
_chemical_formula_sum "Si O2"
_cell_formula_units_Z 128
_cell_length_a 22.832827
_cell_length_b 16.749933
_cell_length_c 20.878223
_cell_angle_alpha 90.000000
_cell_angle_beta 90.000000
_cell_angle_gamma 90.000000
_cell_volume 7984.841362
_symmetry_space_group_name_H-M "I M M A"
_symmetry_group_IT_number 74
_symmetry_cell_setting 'orthorhombic'
loop_
_space_group_symop_operation_xyz
x,y,z
-x,1/2-y,z
x,-y,-z
-x,1/2+y,-z
-x,-y,-z
x,1/2+y,-z
-x,y,z
x,1/2-y,z
1/2+x,1/2+y,1/2+z
1/2-x,-y,1/2+z
1/2+x,1/2-y,1/2-z
1/2-x,y,1/2-z
1/2-x,1/2-y,1/2-z
1/2+x,y,1/2-z
1/2-x,1/2+y,1/2+z
1/2+x,-y,1/2+z
loop_
_atom_site_type_symbol
_atom_site_label
_atom_site_fract_x
_atom_site_fract_y
_atom_site_fract_z
Si Si1 0.348512 0.579564 0.399832
Si Si2 0.601636 0.840491 0.523242
Si Si3 0.434880 0.439188 0.360565
Si Si4 0.273019 0.996996 0.929611
Si Si5 0.643774 0.343406 0.268180
Si Si6 0.688059 0.497125 0.789990
Si Si7 0.779513 0.335154 0.106533
Si Si8 0.681610 0.161486 0.728235
O O1 0.387005 0.620202 0.454806
O O2 0.386443 0.508857 0.367313
O O3 0.290354 0.540645 0.430723
O O4 0.326768 0.642480 0.346843
O O5 0.579472 0.750000 0.518191
O O6 0.564855 0.895488 0.570641
O O7 0.664354 0.836583 0.559849
O O8 0.500000 0.468454 0.345361
O O9 0.412342 0.374381 0.308709
O O10 0.303279 0.024879 0.864317
O O11 0.261212 0.905444 0.913779
O O12 0.300485 0.000000 0.000000
O O13 0.638627 0.250000 0.247261
O O14 0.658426 0.416081 0.219906
O O15 0.695331 0.344757 0.321911
O O16 0.750000 0.502360 0.750000
O O17 0.656533 0.418888 0.760830
O O18 0.749835 0.250000 0.101828
O O19 0.657701 0.250000 0.743082
O O20 0.750000 0.163347 0.750000
#
# Coordination Sequence:
#
# PCOD9535645 Si02
#       8
#    16  16  16  16  16  16  16  16
#     4  12  18  32  48  66  94 131 171 209 246 287
#     4  10  20  30  42  62  91 129 170 207 244 286
#     4  11  21  34  51  69  94 127 169 214 257 299
#     4  12  19  30  46  67  99 131 158 199 239 290
#     4  10  19  32  50  70  92 124 163 204 248 293
#     4  11  18  32  48  70  96 124 165 203 237 295
#     4   9  16  26  41  62  86 119 161 193 230 276
#     4  10  19  31  50  72  90 120 168 212 246 280
#
# _framework density 16.030374999999999
#
# number of rings (size 3 to 8) (size 9 to 14) (size 15 to 20)
#    0.000    1.375    8.750    1.875    0.000    2.750 
#    0.000    0.625    0.000    1.125    0.000    0.000 
#    0.000    0.500    0.000    0.000    0.250    0.000 
#
# Total GULP energy -356299.277744 kJ/mol
# GULP energy per Si atom -5567.176215 kJ/mol
# Density = 1.599389 g / cm^3
# Si number density = 16.030375 Si / 1000 Ang^3
#
#
#
# Elastic Constant Matrix: (Units=GPa)
#
#
# Indices 1 2 3 4 5 6 
#
# 1 21.6285 11.1643 16.6552 0.0000 0.0000 0.0000
# 2 11.1643 101.4778 17.9274 0.0000 0.0000 0.0000
# 3 16.6552 17.9274 78.0035 0.0000 0.0000 0.0000
# 4 0.0000 0.0000 0.0000 17.5095 0.0000 0.0000
# 5 0.0000 0.0000 0.0000 0.0000 3.7633 0.0000
# 6 0.0000 0.0000 0.0000 0.0000 0.0000 -4.5843
#
#
#
# Elastic Compliance Matrix: (Units=1/GPa)
#
#
# Indices 1 2 3 4 5 6 
#
# 1 0.057079 -0.004301 -0.011199 0.000000 0.000000 0.000000
# 2 -0.004301 0.010596 -0.001517 0.000000 0.000000 0.000000
# 3 -0.011199 -0.001517 0.015560 0.000000 0.000000 0.000000
# 4 0.000000 0.000000 0.000000 0.057112 0.000000 0.000000
# 5 0.000000 0.000000 0.000000 0.000000 0.265726 0.000000
# 6 0.000000 0.000000 0.000000 0.000000 0.000000 -0.218134
#
#
# Mechanical properties :
#
#
# Convention : Reuss Voigt Hill
#
# Bulk Modulus (GPa) = 20.32490 32.51150 26.41820
# Shear Modulus (GPa) = 20.97556 13.69523 17.33539
#
# Velocity S-wave (km/s) = 3.62123 2.92606 3.29205
# Velocity P-wave (km/s) = 5.49463 5.63392 5.56471
#
# Compressibility (1/GPa) = 0.04920074
#
# Stress axis : x y z
#
# Youngs Moduli (GPa) = 17.51943 94.37942 64.26849
#
# Poissons Ratio (x) = 0.40595 0.71974
# Poissons Ratio (y) = 0.07536 0.09748
# Poissons Ratio (z) = 0.19620 0.14315
#
# Static dielectric constant tensor:
#      x y z
#    x 1.536200 0.000000 0.000000 
#    y 0.000000 1.589770 0.000000 
#    z 0.000000 0.000000 1.615010 
# 
# From -- ./inp_files/46309.got.cif
#   From: 2010.05.17/outbox.cif.g08.bks.cpg/sg74_24_cif.got.tgz:46309.got - 2010.06.03 17:57:02.
