data_PCOD9535529
_publ_section_title
;
Structure prediction by ZEFSAII (Michael W. Deem and Ramdas Pophale) SiO2 
 PCOD9535529
Probable space group: I M M A
;
_chemical_formula_sum "Si O2"
_cell_formula_units_Z 112
_cell_length_a 21.491750
_cell_length_b 17.997176
_cell_length_c 12.801184
_cell_angle_alpha 90.000000
_cell_angle_beta 90.000000
_cell_angle_gamma 90.000000
_cell_volume 4951.380294
_symmetry_space_group_name_H-M "I M M A"
_symmetry_group_IT_number 74
_symmetry_cell_setting 'orthorhombic'
loop_
_space_group_symop_operation_xyz
x,y,z
-x,1/2-y,z
x,-y,-z
-x,1/2+y,-z
-x,-y,-z
x,1/2+y,-z
-x,y,z
x,1/2-y,z
1/2+x,1/2+y,1/2+z
1/2-x,-y,1/2+z
1/2+x,1/2-y,1/2-z
1/2-x,y,1/2-z
1/2-x,1/2-y,1/2-z
1/2+x,y,1/2-z
1/2-x,1/2+y,1/2+z
1/2+x,-y,1/2+z
loop_
_atom_site_type_symbol
_atom_site_label
_atom_site_fract_x
_atom_site_fract_y
_atom_site_fract_z
Si Si1 0.306246 0.457699 0.121779
Si Si2 0.317370 0.750000 0.196078
Si Si3 0.929686 0.413443 0.857481
Si Si4 0.069040 0.661916 0.827212
Si Si5 0.902989 0.338075 0.413152
Si Si6 0.930251 0.750000 0.142540
Si Si7 0.333518 0.040428 0.368797
Si Si8 0.617614 0.393442 0.879760
O O1 0.337020 0.379173 0.094171
O O2 0.315686 0.463734 0.246493
O O3 0.235206 0.455137 0.085471
O O4 0.344454 0.532211 0.092992
O O5 0.250000 0.750000 0.250000
O O6 0.371238 0.750000 0.282955
O O7 0.333320 0.825397 0.134082
O O8 0.926867 0.331252 0.908782
O O9 0.875419 0.468360 0.894255
O O10 0.917243 0.403126 0.731728
O O11 0.000000 0.442799 0.871482
O O12 0.080315 0.750000 0.839447
O O13 0.068224 0.646343 0.701007
O O14 0.122187 0.611682 0.876911
O O15 0.000000 0.644249 0.866847
O O16 0.901571 0.250000 0.423874
O O17 0.926638 0.372110 0.522741
O O18 0.000000 0.750000 0.192962
#
# Coordination Sequence:
#
# PCOD9535529 Si02
#       8
#    16   8  16  16  16   8  16  16
#     4   9  19  30  46  64  89 122 159 203 241 280
#     4  10  20  28  48  72  98 131 163 205 242 287
#     4   9  17  28  44  66  94 123 154 189 227 280
#     4   9  18  31  48  69  96 126 161 197 232 279
#     4  10  19  33  46  66  95 131 167 197 233 279
#     4   8  16  28  40  62  96 124 149 185 228 278
#     4   9  17  30  46  66  88 120 158 199 242 277
#     4  10  19  31  46  68  97 130 164 194 237 282
#
# _framework density 22.619955000000001
#
# number of rings (size 3 to 8) (size 9 to 14) (size 15 to 20)
#    0.000    2.714    0.714    0.857    6.000    1.143 
#    0.000    2.857    0.000    5.143    0.000    0.000 
#    0.000   11.429    0.000    1.286    0.000    0.000 
#
# Total GULP energy -312179.944425 kJ/mol
# GULP energy per Si atom -5574.641865 kJ/mol
# Density = 2.256847 g / cm^3
# Si number density = 22.619955 Si / 1000 Ang^3
#
#
#
# Elastic Constant Matrix: (Units=GPa)
#
#
# Indices 1 2 3 4 5 6 
#
# 1 174.7982 71.5456 15.9617 0.0000 0.0000 0.0000
# 2 71.5456 82.6807 15.1605 0.0000 0.0000 0.0000
# 3 15.9617 15.1605 75.2341 0.0000 0.0000 0.0000
# 4 0.0000 0.0000 0.0000 30.5744 0.0000 0.0000
# 5 0.0000 0.0000 0.0000 0.0000 3.3858 0.0000
# 6 0.0000 0.0000 0.0000 0.0000 0.0000 14.3482
#
#
#
# Elastic Compliance Matrix: (Units=1/GPa)
#
#
# Indices 1 2 3 4 5 6 
#
# 1 0.008867 -0.007609 -0.000348 0.000000 0.000000 0.000000
# 2 -0.007609 0.019088 -0.002232 0.000000 0.000000 0.000000
# 3 -0.000348 -0.002232 0.013815 0.000000 0.000000 0.000000
# 4 0.000000 0.000000 0.000000 0.032707 0.000000 0.000000
# 5 0.000000 0.000000 0.000000 0.000000 0.295351 0.000000
# 6 0.000000 0.000000 0.000000 0.000000 0.000000 0.069695
#
#
# Mechanical properties :
#
#
# Convention : Reuss Voigt Hill
#
# Bulk Modulus (GPa) = 46.74530 59.78317 53.26424
# Shear Modulus (GPa) = 10.70586 24.99802 17.85194
#
# Velocity S-wave (km/s) = 2.17789 3.32796 2.81234
# Velocity P-wave (km/s) = 5.19949 6.42292 5.84331
#
# Compressibility (1/GPa) = 0.02139252
#
# Stress axis : x y z
#
# Youngs Moduli (GPa) = 112.77651 52.38791 72.38262
#
# Poissons Ratio (x) = 0.39863 0.02518
# Poissons Ratio (y) = 0.85813 0.16157
# Poissons Ratio (z) = 0.03924 0.11694
#
# Static dielectric constant tensor:
#      x y z
#    x 1.780960 0.000000 0.000000 
#    y 0.000000 1.810920 0.000000 
#    z 0.000000 0.000000 2.032660 
# 
# From -- ./inp_files/54149.got.cif
#   From: 2010.05.17/outbox.cif.g08.bks.cpg/sg74_28_cif.got.tgz:54149.got - 2010.06.03 17:57:02.
