data_PCOD9535761
_publ_section_title
;
Structure prediction by ZEFSAII (Michael W. Deem and Ramdas Pophale) SiO2 
 PCOD9535761
Probable space group: I M M A
;
_chemical_formula_sum "Si O2"
_cell_formula_units_Z 52
_cell_length_a 7.829457
_cell_length_b 12.186801
_cell_length_c 31.651889
_cell_angle_alpha 90.000000
_cell_angle_beta 90.000000
_cell_angle_gamma 90.000000
_cell_volume 3020.097730
_symmetry_space_group_name_H-M "I M M A"
_symmetry_group_IT_number 74
_symmetry_cell_setting 'orthorhombic'
loop_
_space_group_symop_operation_xyz
x,y,z
-x,1/2-y,z
x,-y,-z
-x,1/2+y,-z
-x,-y,-z
x,1/2+y,-z
-x,y,z
x,1/2-y,z
1/2+x,1/2+y,1/2+z
1/2-x,-y,1/2+z
1/2+x,1/2-y,1/2-z
1/2-x,y,1/2-z
1/2-x,1/2-y,1/2-z
1/2+x,y,1/2-z
1/2-x,1/2+y,1/2+z
1/2+x,-y,1/2+z
loop_
_atom_site_type_symbol
_atom_site_label
_atom_site_fract_x
_atom_site_fract_y
_atom_site_fract_z
Si Si1 0.806054 0.026222 0.115853
Si Si2 0.295713 0.622675 0.797434
Si Si3 0.500000 0.250000 0.996620
Si Si4 0.801496 0.250000 0.063537
Si Si5 0.000000 0.374096 0.586096
O O1 0.785061 0.051714 0.165464
O O2 0.774579 0.141759 0.091912
O O3 0.000000 0.991326 0.106730
O O4 0.666067 0.940189 0.100522
O O5 0.500000 0.620308 0.802577
O O6 0.238260 0.750000 0.801695
O O7 0.250000 0.587261 0.750000
O O8 0.666694 0.250000 0.025756
O O9 0.500000 0.146973 0.964410
O O10 0.000000 0.250000 0.049496
O O11 0.000000 0.250000 0.603991
#
# Coordination Sequence:
#
# PCOD9535761 Si02
#       5
#    16  16   4   8   8
#     4  11  21  37  62  89 121 158 193 244 306 363
#     4  10  19  31  54  91 130 156 184 229 294 370
#     4  10  24  42  60  80 120 158 210 260 292 346
#     4  10  22  36  61  95 123 147 189 248 317 379
#     4  10  25  43  58  82 112 166 214 256 286 347
#
# _framework density 17.217984999999999
#
# number of rings (size 3 to 8) (size 9 to 14) (size 15 to 20)
#    0.462    1.231    3.077    1.846    0.000    5.538 
#    0.000    3.077    0.000    0.923    0.000    0.000 
#    0.000    0.000    0.000    0.000    0.000    0.000 
#
# Total GULP energy -145108.731977 kJ/mol
# GULP energy per Si atom -5581.105076 kJ/mol
# Density = 1.717880 g / cm^3
# Si number density = 17.217985 Si / 1000 Ang^3
#
#
#
# Elastic Constant Matrix: (Units=GPa)
#
#
# Indices 1 2 3 4 5 6 
#
# 1 129.9256 82.7621 62.7345 0.0000 0.0000 0.0000
# 2 82.7621 99.1746 46.9541 0.0000 0.0000 0.0000
# 3 62.7345 46.9541 127.4445 0.0000 0.0000 0.0000
# 4 0.0000 0.0000 0.0000 57.0477 0.0000 0.0000
# 5 0.0000 0.0000 0.0000 0.0000 31.2784 0.0000
# 6 0.0000 0.0000 0.0000 0.0000 0.0000 20.8059
#
#
#
# Elastic Compliance Matrix: (Units=1/GPa)
#
#
# Indices 1 2 3 4 5 6 
#
# 1 0.017989 -0.013106 -0.004027 0.000000 0.000000 0.000000
# 2 -0.013106 0.021762 -0.001566 0.000000 0.000000 0.000000
# 3 -0.004027 -0.001566 0.010406 0.000000 0.000000 0.000000
# 4 0.000000 0.000000 0.000000 0.017529 0.000000 0.000000
# 5 0.000000 0.000000 0.000000 0.000000 0.031971 0.000000
# 6 0.000000 0.000000 0.000000 0.000000 0.000000 0.048063
#
#
# Mechanical properties :
#
#
# Convention : Reuss Voigt Hill
#
# Bulk Modulus (GPa) = 78.37483 82.38289 80.37886
# Shear Modulus (GPa) = 26.40319 32.76600 29.58460
#
# Velocity S-wave (km/s) = 3.92020 4.36708 4.14966
# Velocity P-wave (km/s) = 8.13072 8.56618 8.35129
#
# Compressibility (1/GPa) = 0.01275920
#
# Stress axis : x y z
#
# Youngs Moduli (GPa) = 55.58834 45.95223 96.10064
#
# Poissons Ratio (x) = 0.60224 0.38697
# Poissons Ratio (y) = 0.72853 0.15052
# Poissons Ratio (z) = 0.22384 0.07197
#
# Static dielectric constant tensor:
#      x y z
#    x 1.586090 0.000000 0.000000 
#    y 0.000000 1.560100 0.000000 
#    z 0.000000 0.000000 1.576460 
# 
# From -- ./inp_files/63179.got.cif
#   From: 2010.05.17/outbox.cif.g08.bks.cpg/sg74_32_cif.got.tgz:63179.got - 2010.06.03 17:57:02.
