data_PCOD9535703
_publ_section_title
;
Structure prediction by ZEFSAII (Michael W. Deem and Ramdas Pophale) SiO2 
 PCOD9535703
Probable space group: I M M A
;
_chemical_formula_sum "Si O2"
_cell_formula_units_Z 96
_cell_length_a 8.195645
_cell_length_b 24.440192
_cell_length_c 25.047114
_cell_angle_alpha 90.000000
_cell_angle_beta 90.000000
_cell_angle_gamma 90.000000
_cell_volume 5017.015516
_symmetry_space_group_name_H-M "I M M A"
_symmetry_group_IT_number 74
_symmetry_cell_setting 'orthorhombic'
loop_
_space_group_symop_operation_xyz
x,y,z
-x,1/2-y,z
x,-y,-z
-x,1/2+y,-z
-x,-y,-z
x,1/2+y,-z
-x,y,z
x,1/2-y,z
1/2+x,1/2+y,1/2+z
1/2-x,-y,1/2+z
1/2+x,1/2-y,1/2-z
1/2-x,y,1/2-z
1/2-x,1/2-y,1/2-z
1/2+x,y,1/2-z
1/2-x,1/2+y,1/2+z
1/2+x,-y,1/2+z
loop_
_atom_site_type_symbol
_atom_site_label
_atom_site_fract_x
_atom_site_fract_y
_atom_site_fract_z
Si Si1 0.187110 0.108869 0.605555
Si Si2 0.807865 0.523738 0.310155
Si Si3 0.188356 0.684688 0.191545
Si Si4 0.691696 0.598989 0.691832
Si Si5 0.197038 0.811934 0.607749
Si Si6 0.800628 0.188001 0.516343
O O1 0.262238 0.059101 0.640258
O O2 0.195963 0.157768 0.648289
O O3 0.260599 0.138203 0.553227
O O4 0.000000 0.093905 0.592180
O O5 0.750000 0.537559 0.250000
O O6 0.775361 0.459564 0.318355
O O7 0.000000 0.534391 0.310189
O O8 0.194761 0.750000 0.187712
O O9 0.250000 0.669000 0.250000
O O10 0.000000 0.667577 0.183659
O O11 0.500000 0.588688 0.694661
O O12 0.750000 0.618892 0.750000
O O13 0.731661 0.642890 0.646735
O O14 0.245833 0.750000 0.622940
O O15 0.242888 0.819921 0.545666
O O16 0.000000 0.814755 0.610408
O O17 0.748285 0.250000 0.532524
O O18 0.000000 0.188045 0.519656
#
# Coordination Sequence:
#
# PCOD9535703 Si02
#       6
#    16  16  16  16  16  16
#     4  10  19  31  51  76 100 133 177 220 261 306
#     4  10  20  34  52  75 104 138 177 220 265 312
#     4  10  20  31  43  63  93 129 169 217 271 319
#     4  11  22  37  58  81 107 138 170 209 257 310
#     4   9  18  35  59  84 110 139 170 207 252 304
#     4   8  15  30  53  79 106 138 176 216 258 305
#
# _framework density 19.134882999999999
#
# number of rings (size 3 to 8) (size 9 to 14) (size 15 to 20)
#    0.000    2.333    0.000    5.500    0.000    5.000 
#    0.000    1.667    0.000    6.000    0.000    0.000 
#    0.000    0.000    0.000    0.000    0.000    0.000 
#
# Total GULP energy -267621.594943 kJ/mol
# GULP energy per Si atom -5575.449895 kJ/mol
# Density = 1.909133 g / cm^3
# Si number density = 19.134883 Si / 1000 Ang^3
#
#
#
# Elastic Constant Matrix: (Units=GPa)
#
#
# Indices 1 2 3 4 5 6 
#
# 1 22.0104 2.3490 -2.8359 0.0000 0.0000 0.0000
# 2 2.3490 95.5793 66.3746 0.0000 0.0000 0.0000
# 3 -2.8359 66.3746 96.8878 0.0000 0.0000 0.0000
# 4 0.0000 0.0000 0.0000 38.0796 0.0000 0.0000
# 5 0.0000 0.0000 0.0000 0.0000 19.2259 0.0000
# 6 0.0000 0.0000 0.0000 0.0000 0.0000 -9.4787
#
#
#
# Elastic Compliance Matrix: (Units=1/GPa)
#
#
# Indices 1 2 3 4 5 6 
#
# 1 0.046383 -0.003973 0.004079 0.000000 0.000000 0.000000
# 2 -0.003973 0.020297 -0.014021 0.000000 0.000000 0.000000
# 3 0.004079 -0.014021 0.020046 0.000000 0.000000 0.000000
# 4 0.000000 0.000000 0.000000 0.026261 0.000000 0.000000
# 5 0.000000 0.000000 0.000000 0.000000 0.052013 0.000000
# 6 0.000000 0.000000 0.000000 0.000000 0.000000 -0.105500
#
#
# Mechanical properties :
#
#
# Convention : Reuss Voigt Hill
#
# Bulk Modulus (GPa) = 16.97895 38.47256 27.72575
# Shear Modulus (GPa) = 46.74583 19.47134 33.10858
#
# Velocity S-wave (km/s) = 4.94800 3.19342 4.16417
# Velocity P-wave (km/s) = 6.44485 5.80921 6.13527
#
# Compressibility (1/GPa) = 0.05889644
#
# Stress axis : x y z
#
# Youngs Moduli (GPa) = 21.55979 49.26822 49.88520
#
# Poissons Ratio (x) = 0.19573 -0.20349
# Poissons Ratio (y) = 0.08565 0.69945
# Poissons Ratio (z) = -0.08795 0.69080
#
# Static dielectric constant tensor:
#      x y z
#    x 1.700830 0.000000 0.000000 
#    y 0.000000 1.668220 0.000000 
#    z 0.000000 0.000000 1.678820 
# 
# From -- ./inp_files/49132.got.cif
#   From: 2010.05.17/outbox.cif.g08.bks.cpg/sg74_25_cif.got.tgz:49132.got - 2010.06.03 17:57:02.
