data_PCOD9535706
_publ_section_title
;
Structure prediction by ZEFSAII (Michael W. Deem and Ramdas Pophale) SiO2 
 PCOD9535706
Probable space group: I M M A
;
_chemical_formula_sum "Si O2"
_cell_formula_units_Z 96
_cell_length_a 27.800748
_cell_length_b 7.577117
_cell_length_c 19.932315
_cell_angle_alpha 90.000000
_cell_angle_beta 90.000000
_cell_angle_gamma 90.000000
_cell_volume 4198.732593
_symmetry_space_group_name_H-M "I M M A"
_symmetry_group_IT_number 74
_symmetry_cell_setting 'orthorhombic'
loop_
_space_group_symop_operation_xyz
x,y,z
-x,1/2-y,z
x,-y,-z
-x,1/2+y,-z
-x,-y,-z
x,1/2+y,-z
-x,y,z
x,1/2-y,z
1/2+x,1/2+y,1/2+z
1/2-x,-y,1/2+z
1/2+x,1/2-y,1/2-z
1/2-x,y,1/2-z
1/2-x,1/2-y,1/2-z
1/2+x,y,1/2-z
1/2-x,1/2+y,1/2+z
1/2+x,-y,1/2+z
loop_
_atom_site_type_symbol
_atom_site_label
_atom_site_fract_x
_atom_site_fract_y
_atom_site_fract_z
Si Si1 0.419318 0.552193 0.574233
Si Si2 0.445014 0.966321 0.863345
Si Si3 0.652645 0.961688 0.924147
Si Si4 0.191393 0.460036 0.927227
Si Si5 0.231145 0.453574 0.319819
Si Si6 0.557389 0.050266 0.284028
O O1 0.436363 0.500000 0.500000
O O2 0.437720 0.750000 0.582275
O O3 0.361645 0.542635 0.571935
O O4 0.431905 0.460349 0.644692
O O5 0.500000 0.022869 0.878134
O O6 0.446235 0.750000 0.861572
O O7 0.402383 0.021922 0.912566
O O8 0.429692 0.027125 0.788288
O O9 0.653230 0.750000 0.917617
O O10 0.687702 0.030642 0.864975
O O11 0.668393 0.000000 0.000000
O O12 0.186989 0.250000 0.918664
O O13 0.223653 0.539799 0.869526
O O14 0.213365 0.500000 0.000000
O O15 0.217612 0.250000 0.304422
O O16 0.250000 0.534551 0.250000
O O17 0.500000 0.064878 0.280500
O O18 0.578814 0.250000 0.284997
#
# Coordination Sequence:
#
# PCOD9535706 Si02
#       6
#    16  16  16  16  16  16
#     4  10  19  31  51  76 106 141 183 228 277 329
#     4   8  15  30  53  81 109 139 180 226 269 319
#     4  10  21  36  57  84 113 145 180 223 273 325
#     4  11  22  37  56  77 107 144 185 226 275 327
#     4  10  22  38  58  84 111 142 185 230 275 328
#     4   8  15  28  49  76 104 137 180 229 275 324
#
# _framework density 22.864042000000001
#
# number of rings (size 3 to 8) (size 9 to 14) (size 15 to 20)
#    0.000    2.500    0.000    4.500    2.333    3.000 
#    0.000    0.000    0.000    1.500    0.000    4.667 
#    0.000    0.000    0.000    0.000    0.000    0.000 
#
# Total GULP energy -267589.145242 kJ/mol
# GULP energy per Si atom -5574.773859 kJ/mol
# Density = 2.281200 g / cm^3
# Si number density = 22.864042 Si / 1000 Ang^3
#
#
#
# Elastic Constant Matrix: (Units=GPa)
#
#
# Indices 1 2 3 4 5 6 
#
# 1 79.0647 -2.2108 62.1565 0.0000 0.0000 0.0000
# 2 -2.2108 62.7839 -7.6980 0.0000 0.0000 0.0000
# 3 62.1565 -7.6980 151.1087 0.0000 0.0000 0.0000
# 4 0.0000 0.0000 0.0000 -10.7178 0.0000 0.0000
# 5 0.0000 0.0000 0.0000 0.0000 38.7867 0.0000
# 6 0.0000 0.0000 0.0000 0.0000 0.0000 9.5623
#
#
#
# Elastic Compliance Matrix: (Units=1/GPa)
#
#
# Indices 1 2 3 4 5 6 
#
# 1 0.018698 -0.000286 -0.007706 0.000000 0.000000 0.000000
# 2 -0.000286 0.016032 0.000935 0.000000 0.000000 0.000000
# 3 -0.007706 0.000935 0.009835 0.000000 0.000000 0.000000
# 4 0.000000 0.000000 0.000000 -0.093303 0.000000 0.000000
# 5 0.000000 0.000000 0.000000 0.000000 0.025782 0.000000
# 6 0.000000 0.000000 0.000000 0.000000 0.000000 0.104577
#
#
# Mechanical properties :
#
#
# Convention : Reuss Voigt Hill
#
# Bulk Modulus (GPa) = 32.84093 44.16141 38.50117
# Shear Modulus (GPa) = 47.22055 23.57354 35.39705
#
# Velocity S-wave (km/s) = 4.54946 3.21445 3.93893
# Velocity P-wave (km/s) = 6.48009 5.75618 6.12883
#
# Compressibility (1/GPa) = 0.03044981
#
# Stress axis : x y z
#
# Youngs Moduli (GPa) = 53.48284 62.37465 101.67826
#
# Poissons Ratio (x) = 0.01786 0.78349
# Poissons Ratio (y) = 0.01532 -0.09502
# Poissons Ratio (z) = 0.41212 -0.05829
#
# Static dielectric constant tensor:
#      x y z
#    x 1.833510 0.000000 0.000000 
#    y 0.000000 1.944450 0.000000 
#    z 0.000000 0.000000 1.922210 
# 
# From -- ./inp_files/55082.got.cif
#   From: 2010.05.17/outbox.cif.g08.bks.cpg/sg74_28_cif.got.tgz:55082.got - 2010.06.03 17:57:02.
