data_PCOD9535277
_publ_section_title
;
Structure prediction by ZEFSAII (Michael W. Deem and Ramdas Pophale) SiO2 
 PCOD9535277
Probable space group: I M M A
;
_chemical_formula_sum "Si O2"
_cell_formula_units_Z 80
_cell_length_a 26.769757
_cell_length_b 7.865625
_cell_length_c 28.656699
_cell_angle_alpha 90.000000
_cell_angle_beta 90.000000
_cell_angle_gamma 90.000000
_cell_volume 6033.979470
_symmetry_space_group_name_H-M "I M M A"
_symmetry_group_IT_number 74
_symmetry_cell_setting 'orthorhombic'
loop_
_space_group_symop_operation_xyz
x,y,z
-x,1/2-y,z
x,-y,-z
-x,1/2+y,-z
-x,-y,-z
x,1/2+y,-z
-x,y,z
x,1/2-y,z
1/2+x,1/2+y,1/2+z
1/2-x,-y,1/2+z
1/2+x,1/2-y,1/2-z
1/2-x,y,1/2-z
1/2-x,1/2-y,1/2-z
1/2+x,y,1/2-z
1/2-x,1/2+y,1/2+z
1/2+x,-y,1/2+z
loop_
_atom_site_type_symbol
_atom_site_label
_atom_site_fract_x
_atom_site_fract_y
_atom_site_fract_z
Si Si1 0.500000 0.955217 0.799199
Si Si2 0.108960 0.944329 0.269190
Si Si3 0.500000 0.043022 0.092164
Si Si4 0.169046 0.750000 0.768359
Si Si5 0.764591 0.250000 0.326592
Si Si6 0.606634 0.546246 0.946733
Si Si7 0.174910 0.557483 0.362148
O O1 0.500000 0.750000 0.798202
O O2 0.500000 0.008880 0.853656
O O3 0.449574 0.020688 0.775486
O O4 0.117878 0.750000 0.254606
O O5 0.134509 0.966695 0.320331
O O6 0.134925 0.082775 0.236152
O O7 0.500000 0.250000 0.091335
O O8 0.449230 0.986280 0.067156
O O9 0.203688 0.750000 0.721774
O O10 0.207018 0.750000 0.811511
O O11 0.782787 0.416811 0.354015
O O12 0.608021 0.750000 0.941055
O O13 0.645872 0.469734 0.910378
O O14 0.617068 0.500000 0.000000
O O15 0.193932 0.750000 0.358660
#
# Coordination Sequence:
#
# PCOD9535277 Si02
#       7
#     8  16   8   8   8  16  16
#     4  11  17  28  46  61  83 116 145 177 210 264
#     4  10  19  29  44  64  85 108 140 172 212 257
#     4   9  19  28  44  58  76 113 147 180 229 267
#     4   9  18  31  46  64  82 105 130 175 224 262
#     4   9  18  32  48  62  82 102 132 174 224 273
#     4  11  20  32  43  59  83 109 143 186 228 270
#     4  10  19  31  46  63  79 106 139 174 221 269
#
# _framework density 13.258248
#
# number of rings (size 3 to 8) (size 9 to 14) (size 15 to 20)
#    0.000    2.000    4.000    1.200    0.000    0.800 
#    0.000    5.500    0.000    0.000    0.000    0.000 
#    0.000    0.000    0.000    0.000    0.000    0.000 
#
# Total GULP energy -223133.986136 kJ/mol
# GULP energy per Si atom -5578.349653 kJ/mol
# Density = 1.322807 g / cm^3
# Si number density = 13.258248 Si / 1000 Ang^3
#
#
#
# Elastic Constant Matrix: (Units=GPa)
#
#
# Indices 1 2 3 4 5 6 
#
# 1 80.1202 51.8757 45.1694 0.0000 0.0000 0.0000
# 2 51.8757 93.7648 31.4550 0.0000 0.0000 0.0000
# 3 45.1694 31.4550 47.4819 0.0000 0.0000 0.0000
# 4 0.0000 0.0000 0.0000 12.2050 0.0000 0.0000
# 5 0.0000 0.0000 0.0000 0.0000 12.5901 0.0000
# 6 0.0000 0.0000 0.0000 0.0000 0.0000 7.3426
#
#
#
# Elastic Compliance Matrix: (Units=1/GPa)
#
#
# Indices 1 2 3 4 5 6 
#
# 1 0.032741 -0.009856 -0.024618 0.000000 0.000000 0.000000
# 2 -0.009856 0.016679 -0.001673 0.000000 0.000000 0.000000
# 3 -0.024618 -0.001673 0.045588 0.000000 0.000000 0.000000
# 4 0.000000 0.000000 0.000000 0.081934 0.000000 0.000000
# 5 0.000000 0.000000 0.000000 0.000000 0.079428 0.000000
# 6 0.000000 0.000000 0.000000 0.000000 0.000000 0.136192
#
#
# Mechanical properties :
#
#
# Convention : Reuss Voigt Hill
#
# Bulk Modulus (GPa) = 44.02460 53.15190 48.58825
# Shear Modulus (GPa) = 10.58365 12.61866 11.60115
#
# Velocity S-wave (km/s) = 2.82843 3.08841 2.96127
# Velocity P-wave (km/s) = 6.62904 7.27285 6.95840
#
# Compressibility (1/GPa) = 0.02271457
#
# Stress axis : x y z
#
# Youngs Moduli (GPa) = 30.54242 59.95503 21.93562
#
# Poissons Ratio (x) = 0.59091 0.54000
# Poissons Ratio (y) = 0.30102 0.03671
# Poissons Ratio (z) = 0.75188 0.10033
#
# Static dielectric constant tensor:
#      x y z
#    x 1.414620 0.000000 0.000000 
#    y 0.000000 1.468180 0.000000 
#    z 0.000000 0.000000 1.399780 
# 
# From -- ./inp_files/57454.got.cif
#   From: 2010.05.17/outbox.cif.g08.bks.cpg/sg74_29_cif.got.tgz:57454.got - 2010.06.03 17:57:02.
