data_PCOD9535288
_publ_section_title
;
Structure prediction by ZEFSAII (Michael W. Deem and Ramdas Pophale) SiO2 
 PCOD9535288
Probable space group: I M M A
;
_chemical_formula_sum "Si O2"
_cell_formula_units_Z 80
_cell_length_a 8.917374
_cell_length_b 24.669094
_cell_length_c 23.984365
_cell_angle_alpha 90.000000
_cell_angle_beta 90.000000
_cell_angle_gamma 90.000000
_cell_volume 5276.165456
_symmetry_space_group_name_H-M "I M M A"
_symmetry_group_IT_number 74
_symmetry_cell_setting 'orthorhombic'
loop_
_space_group_symop_operation_xyz
x,y,z
-x,1/2-y,z
x,-y,-z
-x,1/2+y,-z
-x,-y,-z
x,1/2+y,-z
-x,y,z
x,1/2-y,z
1/2+x,1/2+y,1/2+z
1/2-x,-y,1/2+z
1/2+x,1/2-y,1/2-z
1/2-x,y,1/2-z
1/2-x,1/2-y,1/2-z
1/2+x,y,1/2-z
1/2-x,1/2+y,1/2+z
1/2+x,-y,1/2+z
loop_
_atom_site_type_symbol
_atom_site_label
_atom_site_fract_x
_atom_site_fract_y
_atom_site_fract_z
Si Si1 0.320489 0.980454 0.089669
Si Si2 0.322880 0.688316 0.482430
Si Si3 0.678847 0.914405 0.975400
Si Si4 0.678718 0.687788 0.139821
Si Si5 0.678455 0.582784 0.308631
O O1 0.500000 0.978247 0.099618
O O2 0.234106 0.956252 0.141853
O O3 0.280276 0.041670 0.071663
O O4 0.291351 0.943647 0.034932
O O5 0.500000 0.681573 0.471874
O O6 0.297450 0.750000 0.502081
O O7 0.264566 0.642134 0.523642
O O8 0.235612 0.682161 0.423828
O O9 0.500000 0.905499 0.972338
O O10 0.500000 0.678722 0.141583
O O11 0.709431 0.750000 0.157073
O O12 0.761198 0.642763 0.176049
O O13 0.500000 0.583288 0.305336
O O14 0.750000 0.566193 0.250000
#
# Coordination Sequence:
#
# PCOD9535288 Si02
#       5
#    16  16  16  16  16
#     4   9  18  33  50  71  95 121 157 197 239 283
#     4  10  19  29  44  70 101 128 157 195 235 278
#     4   9  17  30  51  72  95 125 155 193 237 285
#     4  10  20  34  50  66  89 123 162 203 243 281
#     4  12  24  36  51  69  92 124 160 202 243 283
#
# _framework density 15.162526
#
# number of rings (size 3 to 8) (size 9 to 14) (size 15 to 20)
#    0.000    2.000    2.000    4.200    0.000    3.600 
#    0.000    2.000    0.000    0.000    0.000    0.000 
#    0.000    0.800    0.000    2.600    0.000    3.800 
#
# Total GULP energy -223225.444411 kJ/mol
# GULP energy per Si atom -5580.636110 kJ/mol
# Density = 1.512802 g / cm^3
# Si number density = 15.162526 Si / 1000 Ang^3
#
#
#
# Elastic Constant Matrix: (Units=GPa)
#
#
# Indices 1 2 3 4 5 6 
#
# 1 80.9705 52.6514 50.8141 0.0000 0.0000 0.0000
# 2 52.6514 82.3673 47.6148 0.0000 0.0000 0.0000
# 3 50.8141 47.6148 74.8168 0.0000 0.0000 0.0000
# 4 0.0000 0.0000 0.0000 17.3596 0.0000 0.0000
# 5 0.0000 0.0000 0.0000 0.0000 22.1046 0.0000
# 6 0.0000 0.0000 0.0000 0.0000 0.0000 26.5319
#
#
#
# Elastic Compliance Matrix: (Units=1/GPa)
#
#
# Indices 1 2 3 4 5 6 
#
# 1 0.025951 -0.010125 -0.011182 0.000000 0.000000 0.000000
# 2 -0.010125 0.023157 -0.007861 0.000000 0.000000 0.000000
# 3 -0.011182 -0.007861 0.025964 0.000000 0.000000 0.000000
# 4 0.000000 0.000000 0.000000 0.057605 0.000000 0.000000
# 5 0.000000 0.000000 0.000000 0.000000 0.045240 0.000000
# 6 0.000000 0.000000 0.000000 0.000000 0.000000 0.037691
#
#
# Mechanical properties :
#
#
# Convention : Reuss Voigt Hill
#
# Bulk Modulus (GPa) = 59.75064 60.03503 59.89284
# Shear Modulus (GPa) = 17.88774 19.00416 18.44595
#
# Velocity S-wave (km/s) = 3.43845 3.54413 3.49169
# Velocity P-wave (km/s) = 7.43346 7.51186 7.47276
#
# Compressibility (1/GPa) = 0.01673622
#
# Stress axis : x y z
#
# Youngs Moduli (GPa) = 38.53385 43.18340 38.51550
#
# Poissons Ratio (x) = 0.43722 0.43068
# Poissons Ratio (y) = 0.39014 0.30278
# Poissons Ratio (z) = 0.43089 0.33947
#
# Static dielectric constant tensor:
#      x y z
#    x 1.502720 0.000000 0.000000 
#    y 0.000000 1.524090 0.000000 
#    z 0.000000 0.000000 1.478340 
# 
# From -- ./inp_files/39744.got.cif
#   From: 2010.05.17/outbox.cif.g08.bks.cpg/sg74_20_cif.got.tgz:39744.got - 2010.06.03 17:57:02.
