data_PCOD9535846
_publ_section_title
;
Structure prediction by ZEFSAII (Michael W. Deem and Ramdas Pophale) SiO2 
 PCOD9535846
Probable space group: I M M A
;
_chemical_formula_sum "Si O2"
_cell_formula_units_Z 72
_cell_length_a 34.304010
_cell_length_b 8.679663
_cell_length_c 14.824154
_cell_angle_alpha 90.000000
_cell_angle_beta 90.000000
_cell_angle_gamma 90.000000
_cell_volume 4413.851033
_symmetry_space_group_name_H-M "I M M A"
_symmetry_group_IT_number 74
_symmetry_cell_setting 'orthorhombic'
loop_
_space_group_symop_operation_xyz
x,y,z
-x,1/2-y,z
x,-y,-z
-x,1/2+y,-z
-x,-y,-z
x,1/2+y,-z
-x,y,z
x,1/2-y,z
1/2+x,1/2+y,1/2+z
1/2-x,-y,1/2+z
1/2+x,1/2-y,1/2-z
1/2-x,y,1/2-z
1/2-x,1/2-y,1/2-z
1/2+x,y,1/2-z
1/2-x,1/2+y,1/2+z
1/2+x,-y,1/2+z
loop_
_atom_site_type_symbol
_atom_site_label
_atom_site_fract_x
_atom_site_fract_y
_atom_site_fract_z
Si Si1 0.313728 0.433580 0.401603
Si Si2 0.772142 0.434850 0.597952
Si Si3 0.085849 0.935654 0.602149
Si Si4 0.500000 0.934965 0.899009
Si Si5 0.654988 0.065493 0.776101
O O1 0.323941 0.500000 0.500000
O O2 0.313025 0.250000 0.405299
O O3 0.270073 0.495197 0.380600
O O4 0.341610 0.492707 0.322628
O O5 0.783752 0.500000 0.500000
O O6 0.768418 0.250000 0.593113
O O7 0.805250 0.473895 0.669913
O O8 0.088664 0.750000 0.598640
O O9 0.042445 0.980106 0.638201
O O10 0.089955 0.000000 0.500000
O O11 0.119123 0.002682 0.665816
O O12 0.500000 0.750000 0.902543
O O13 0.500000 0.000000 0.000000
O O14 0.652858 0.250000 0.769587
#
# Coordination Sequence:
#
# PCOD9535846 Si02
#       5
#    16  16  16   8  16
#     4  11  22  36  53  70  92 125 165 207 249 292
#     4  10  20  33  49  69  97 130 163 201 243 288
#     4  10  19  32  50  74 103 134 165 198 239 286
#     4   8  16  30  48  70  99 132 163 194 232 284
#     4  11  22  34  49  72 100 129 164 205 245 287
#
# _framework density 16.312287000000001
#
# number of rings (size 3 to 8) (size 9 to 14) (size 15 to 20)
#    0.000    1.778    0.000    6.667    0.000    8.889 
#    0.000    0.000    0.000    0.000    0.000    0.778 
#    0.000    0.000    0.000    0.000    0.000    0.000 
#
# Total GULP energy -200958.132228 kJ/mol
# GULP energy per Si atom -5582.170340 kJ/mol
# Density = 1.627516 g / cm^3
# Si number density = 16.312287 Si / 1000 Ang^3
#
#
#
# Elastic Constant Matrix: (Units=GPa)
#
#
# Indices 1 2 3 4 5 6 
#
# 1 87.0786 41.1782 82.2619 0.0000 0.0000 0.0000
# 2 41.1782 67.2624 43.9799 0.0000 0.0000 0.0000
# 3 82.2619 43.9799 105.0405 0.0000 0.0000 0.0000
# 4 0.0000 0.0000 0.0000 23.9523 0.0000 0.0000
# 5 0.0000 0.0000 0.0000 0.0000 2.4858 0.0000
# 6 0.0000 0.0000 0.0000 0.0000 0.0000 20.8525
#
#
#
# Elastic Compliance Matrix: (Units=1/GPa)
#
#
# Indices 1 2 3 4 5 6 
#
# 1 0.046026 -0.006346 -0.033388 0.000000 0.000000 0.000000
# 2 -0.006346 0.021347 -0.003968 0.000000 0.000000 0.000000
# 3 -0.033388 -0.003968 0.037329 0.000000 0.000000 0.000000
# 4 0.000000 0.000000 0.000000 0.041750 0.000000 0.000000
# 5 0.000000 0.000000 0.000000 0.000000 0.402287 0.000000
# 6 0.000000 0.000000 0.000000 0.000000 0.000000 0.047956
#
#
# Mechanical properties :
#
#
# Convention : Reuss Voigt Hill
#
# Bulk Modulus (GPa) = 57.81053 66.02460 61.91757
# Shear Modulus (GPa) = 7.24780 15.58889 11.41835
#
# Velocity S-wave (km/s) = 2.11017 3.09472 2.64859
# Velocity P-wave (km/s) = 6.43847 7.30294 6.88429
#
# Compressibility (1/GPa) = 0.01729789
#
# Stress axis : x y z
#
# Youngs Moduli (GPa) = 21.72681 46.84574 26.78893
#
# Poissons Ratio (x) = 0.29731 0.89442
# Poissons Ratio (y) = 0.13789 0.10629
# Poissons Ratio (z) = 0.72541 0.18586
#
# Static dielectric constant tensor:
#      x y z
#    x 1.562200 0.000000 0.000000 
#    y 0.000000 1.544410 0.000000 
#    z 0.000000 0.000000 1.534240 
# 
# From -- ./inp_files/29374.got.cif
#   From: 2010.05.17/outbox.cif.g08.bks.cpg/sg74_15_cif.got.tgz:29374.got - 2010.06.03 17:57:02.
