data_PCOD9535637
_publ_section_title
;
Structure prediction by ZEFSAII (Michael W. Deem and Ramdas Pophale) SiO2 
 PCOD9535637
Probable space group: I M M A
;
_chemical_formula_sum "Si O2"
_cell_formula_units_Z 96
_cell_length_a 18.833537
_cell_length_b 17.363611
_cell_length_c 17.863536
_cell_angle_alpha 90.000000
_cell_angle_beta 90.000000
_cell_angle_gamma 90.000000
_cell_volume 5841.701571
_symmetry_space_group_name_H-M "I M M A"
_symmetry_group_IT_number 74
_symmetry_cell_setting 'orthorhombic'
loop_
_space_group_symop_operation_xyz
x,y,z
-x,1/2-y,z
x,-y,-z
-x,1/2+y,-z
-x,-y,-z
x,1/2+y,-z
-x,y,z
x,1/2-y,z
1/2+x,1/2+y,1/2+z
1/2-x,-y,1/2+z
1/2+x,1/2-y,1/2-z
1/2-x,y,1/2-z
1/2-x,1/2-y,1/2-z
1/2+x,y,1/2-z
1/2-x,1/2+y,1/2+z
1/2+x,-y,1/2+z
loop_
_atom_site_type_symbol
_atom_site_label
_atom_site_fract_x
_atom_site_fract_y
_atom_site_fract_z
Si Si1 0.315191 0.837574 0.191941
Si Si2 0.079199 0.841704 0.878444
Si Si3 0.688072 0.455067 0.310203
Si Si4 0.917022 0.595559 0.199387
Si Si5 0.362026 0.158089 0.541343
Si Si6 0.769508 0.949090 0.433781
O O1 0.303549 0.750000 0.165941
O O2 0.250000 0.855690 0.250000
O O3 0.386004 0.844502 0.240684
O O4 0.314935 0.897916 0.124051
O O5 0.081377 0.750000 0.868201
O O6 0.141335 0.881876 0.832275
O O7 0.000000 0.869784 0.858504
O O8 0.093036 0.856889 0.966513
O O9 0.750000 0.441855 0.250000
O O10 0.631030 0.520067 0.286486
O O11 0.726259 0.490602 0.382820
O O12 0.899661 0.627095 0.116305
O O13 0.000000 0.581519 0.206969
O O14 0.350958 0.250000 0.548055
O O15 0.288458 0.111548 0.534885
O O16 0.803336 0.000000 0.500000
#
# Coordination Sequence:
#
# PCOD9535637 Si02
#       6
#    16  16  16  16  16  16
#     4  11  20  34  54  77 109 144 178 220 268 319
#     4  10  21  35  51  76 110 144 176 215 262 310
#     4  11  20  36  53  75 105 139 180 218 256 310
#     4  11  21  32  52  81 110 140 172 213 268 328
#     4  10  19  31  49  76 111 145 173 203 249 319
#     4  11  19  33  52  75 101 139 181 217 253 308
#
# _framework density 16.433568999999999
#
# number of rings (size 3 to 8) (size 9 to 14) (size 15 to 20)
#    0.000    1.333    6.667    2.000    0.000    2.333 
#    0.000    2.500    0.000    0.500    0.000    0.000 
#    0.000    0.000    0.000    0.000    0.000    0.000 
#
# Total GULP energy -267693.939604 kJ/mol
# GULP energy per Si atom -5576.957075 kJ/mol
# Density = 1.639617 g / cm^3
# Si number density = 16.433569 Si / 1000 Ang^3
#
#
#
# Elastic Constant Matrix: (Units=GPa)
#
#
# Indices 1 2 3 4 5 6 
#
# 1 86.8086 42.9150 51.7493 0.0000 0.0000 0.0000
# 2 42.9150 66.2164 50.8377 0.0000 0.0000 0.0000
# 3 51.7493 50.8377 77.4522 0.0000 0.0000 0.0000
# 4 0.0000 0.0000 0.0000 30.7640 0.0000 0.0000
# 5 0.0000 0.0000 0.0000 0.0000 17.1381 0.0000
# 6 0.0000 0.0000 0.0000 0.0000 0.0000 16.9476
#
#
#
# Elastic Compliance Matrix: (Units=1/GPa)
#
#
# Indices 1 2 3 4 5 6 
#
# 1 0.020082 -0.005471 -0.009827 0.000000 0.000000 0.000000
# 2 -0.005471 0.031934 -0.017305 0.000000 0.000000 0.000000
# 3 -0.009827 -0.017305 0.030836 0.000000 0.000000 0.000000
# 4 0.000000 0.000000 0.000000 0.032506 0.000000 0.000000
# 5 0.000000 0.000000 0.000000 0.000000 0.058349 0.000000
# 6 0.000000 0.000000 0.000000 0.000000 0.000000 0.059005
#
#
# Mechanical properties :
#
#
# Convention : Reuss Voigt Hill
#
# Bulk Modulus (GPa) = 56.67068 57.94235 57.30652
# Shear Modulus (GPa) = 16.45817 18.63495 17.54656
#
# Velocity S-wave (km/s) = 3.16808 3.37108 3.27115
# Velocity P-wave (km/s) = 6.92401 7.10544 7.01531
#
# Compressibility (1/GPa) = 0.01764581
#
# Stress axis : x y z
#
# Youngs Moduli (GPa) = 49.79502 31.31483 32.42968
#
# Poissons Ratio (x) = 0.17131 0.31869
# Poissons Ratio (y) = 0.27241 0.56121
# Poissons Ratio (z) = 0.48934 0.54191
#
# Static dielectric constant tensor:
#      x y z
#    x 1.545770 0.000000 0.000000 
#    y 0.000000 1.585390 0.000000 
#    z 0.000000 0.000000 1.565850 
# 
# From -- ./inp_files/44097.got.cif
#   From: 2010.05.17/outbox.cif.g08.bks.cpg/sg74_23_cif.got.tgz:44097.got - 2010.06.03 17:57:02.
