data_PCOD9535834
_publ_section_title
;
Structure prediction by ZEFSAII (Michael W. Deem and Ramdas Pophale) SiO2 
 PCOD9535834
Probable space group: I M M A
;
_chemical_formula_sum "Si O2"
_cell_formula_units_Z 104
_cell_length_a 9.029099
_cell_length_b 32.357403
_cell_length_c 21.044930
_cell_angle_alpha 90.000000
_cell_angle_beta 90.000000
_cell_angle_gamma 90.000000
_cell_volume 6148.448764
_symmetry_space_group_name_H-M "I M M A"
_symmetry_group_IT_number 74
_symmetry_cell_setting 'orthorhombic'
loop_
_space_group_symop_operation_xyz
x,y,z
-x,1/2-y,z
x,-y,-z
-x,1/2+y,-z
-x,-y,-z
x,1/2+y,-z
-x,y,z
x,1/2-y,z
1/2+x,1/2+y,1/2+z
1/2-x,-y,1/2+z
1/2+x,1/2-y,1/2-z
1/2-x,y,1/2-z
1/2-x,1/2-y,1/2-z
1/2+x,y,1/2-z
1/2-x,1/2+y,1/2+z
1/2+x,-y,1/2+z
loop_
_atom_site_type_symbol
_atom_site_label
_atom_site_fract_x
_atom_site_fract_y
_atom_site_fract_z
Si Si1 0.323263 0.061133 0.683109
Si Si2 0.677318 0.463310 0.317128
Si Si3 0.322951 0.111634 0.930615
Si Si4 0.176441 0.704560 0.458569
Si Si5 0.674153 0.592665 0.564982
Si Si6 0.674447 0.750000 0.817457
Si Si7 0.328235 0.187958 0.408051
O O1 0.500000 0.066719 0.685552
O O2 0.250000 0.073442 0.750000
O O3 0.253931 0.086667 0.625612
O O4 0.293120 0.012134 0.674375
O O5 0.500000 0.457472 0.311886
O O6 0.750000 0.450305 0.250000
O O7 0.726587 0.438784 0.380316
O O8 0.500000 0.106606 0.928591
O O9 0.289657 0.161025 0.924404
O O10 0.262098 0.095312 0.998627
O O11 0.205263 0.750000 0.428587
O O12 0.267841 0.702056 0.523609
O O13 0.000000 0.703177 0.472888
O O14 0.500000 0.583960 0.551033
O O15 0.683199 0.638624 0.593940
O O16 0.500000 0.750000 0.812137
O O17 0.750000 0.750000 0.750000
O O18 0.730470 0.710390 0.856122
O O19 0.500000 0.199391 0.400712
#
# Coordination Sequence:
#
# PCOD9535834 Si02
#       7
#    16  16  16  16  16   8  16
#     4  10  20  36  57  78 104 138 174 213 260 315
#     4   9  19  35  54  75 101 138 179 217 262 315
#     4  10  20  33  52  81 110 137 174 215 260 310
#     4   9  17  31  52  75 101 134 167 204 251 303
#     4   9  19  35  53  76 107 138 172 216 263 311
#     4  12  24  36  48  64  92 130 173 216 259 308
#     4  10  19  32  50  72  97 127 165 210 258 304
#
# _framework density 16.914835
#
# number of rings (size 3 to 8) (size 9 to 14) (size 15 to 20)
#    0.000    2.308    0.769    2.077    0.000    3.692 
#    0.000    4.615    0.000    0.462    0.000    0.000 
#    0.000    0.000    0.000    0.000    0.000    0.000 
#
# Total GULP energy -289894.844685 kJ/mol
# GULP energy per Si atom -5574.900859 kJ/mol
# Density = 1.687634 g / cm^3
# Si number density = 16.914835 Si / 1000 Ang^3
#
#
#
# Elastic Constant Matrix: (Units=GPa)
#
#
# Indices 1 2 3 4 5 6 
#
# 1 73.6634 49.8157 59.4443 0.0000 0.0000 0.0000
# 2 49.8157 94.1924 76.3844 0.0000 0.0000 0.0000
# 3 59.4443 76.3844 120.8398 -0.0001 0.0000 0.0000
# 4 0.0000 0.0000 -0.0001 24.3245 0.0000 0.0000
# 5 0.0000 0.0000 0.0000 0.0000 33.1495 0.0000
# 6 0.0000 0.0000 0.0000 0.0000 0.0000 19.8407
#
#
#
# Elastic Compliance Matrix: (Units=1/GPa)
#
#
# Indices 1 2 3 4 5 6 
#
# 1 0.024297 -0.006478 -0.007857 0.000000 0.000000 0.000000
# 2 -0.006478 0.023509 -0.011674 0.000000 0.000000 0.000000
# 3 -0.007857 -0.011674 0.019520 0.000000 0.000000 0.000000
# 4 0.000000 0.000000 0.000000 0.041111 0.000000 0.000000
# 5 0.000000 0.000000 0.000000 0.000000 0.030166 0.000000
# 6 0.000000 0.000000 0.000000 0.000000 0.000000 0.050401
#
#
# Mechanical properties :
#
#
# Convention : Reuss Voigt Hill
#
# Bulk Modulus (GPa) = 65.32746 73.33161 69.32954
# Shear Modulus (GPa) = 20.31482 22.33304 21.32393
#
# Velocity S-wave (km/s) = 3.46931 3.63757 3.55444
# Velocity P-wave (km/s) = 7.39956 7.81601 7.61063
#
# Compressibility (1/GPa) = 0.01530750
#
# Stress axis : x y z
#
# Youngs Moduli (GPa) = 41.15772 42.53615 51.22969
#
# Poissons Ratio (x) = 0.27555 0.40253
# Poissons Ratio (y) = 0.26662 0.59805
# Poissons Ratio (z) = 0.32339 0.49656
#
# Static dielectric constant tensor:
#      x y z
#    x 1.523890 0.000000 0.000000 
#    y 0.000000 1.645440 0.000000 
#    z 0.000000 0.000000 1.517780 
# 
# From -- ./inp_files/49618.got.cif
#   From: 2010.05.17/outbox.cif.g08.bks.cpg/sg74_25_cif.got.tgz:49618.got - 2010.06.03 17:57:02.
