data_PCOD9535699
_publ_section_title
;
Structure prediction by ZEFSAII (Michael W. Deem and Ramdas Pophale) SiO2 
 PCOD9535699
Probable space group: I M M A
;
_chemical_formula_sum "Si O2"
_cell_formula_units_Z 64
_cell_length_a 30.045700
_cell_length_b 5.576902
_cell_length_c 16.111638
_cell_angle_alpha 90.000000
_cell_angle_beta 90.000000
_cell_angle_gamma 90.000000
_cell_volume 2699.697069
_symmetry_space_group_name_H-M "I M M A"
_symmetry_group_IT_number 74
_symmetry_cell_setting 'orthorhombic'
loop_
_space_group_symop_operation_xyz
x,y,z
-x,1/2-y,z
x,-y,-z
-x,1/2+y,-z
-x,-y,-z
x,1/2+y,-z
-x,y,z
x,1/2-y,z
1/2+x,1/2+y,1/2+z
1/2-x,-y,1/2+z
1/2+x,1/2-y,1/2-z
1/2-x,y,1/2-z
1/2-x,1/2-y,1/2-z
1/2+x,y,1/2-z
1/2-x,1/2+y,1/2+z
1/2+x,-y,1/2+z
loop_
_atom_site_type_symbol
_atom_site_label
_atom_site_fract_x
_atom_site_fract_y
_atom_site_fract_z
Si Si1 0.117420 0.250000 0.210057
Si Si2 0.736790 0.250000 0.846685
Si Si3 0.046826 0.250000 0.649218
Si Si4 0.356032 0.250000 0.764197
Si Si5 0.333423 0.250000 0.042553
Si Si6 0.257287 0.750000 0.847720
Si Si7 0.570940 0.250000 0.108616
Si Si8 0.052644 0.250000 0.051204
O O1 0.145339 0.499290 0.213784
O O2 0.087831 0.250000 0.294598
O O3 0.084683 0.250000 0.131259
O O4 0.750000 0.250000 0.750000
O O5 0.682778 0.250000 0.834201
O O6 0.756575 0.493971 0.883103
O O7 0.094432 0.250000 0.695837
O O8 0.047274 0.496960 0.598975
O O9 0.000000 0.250000 0.699611
O O10 0.309881 0.250000 0.131573
O O11 0.385602 0.250000 0.052615
O O12 0.320144 0.500000 0.000000
O O13 0.250000 0.750000 0.750000
O O14 0.000000 0.250000 0.074836
O O15 0.060067 0.500000 0.000000
#
# Coordination Sequence:
#
# PCOD9535699 Si02
#       8
#     8   8   8   8   8   8   8   8
#     4  10  20  33  56  82 116 154 197 251 305 363
#     4  10  19  34  59  91 121 153 197 255 310 350
#     4  10  19  32  54  81 115 155 200 256 306 351
#     4  10  19  31  50  85 119 146 198 253 298 359
#     4  12  24  40  65  95 128 164 207 259 315 364
#     4  10  20  36  60  93 125 159 199 247 306 366
#     4  10  21  37  56  85 118 156 211 258 296 361
#     4  10  21  37  56  84 122 161 205 257 311 362
#
# _framework density 23.706363
#
# number of rings (size 3 to 8) (size 9 to 14) (size 15 to 20)
#    0.000    1.750    0.000    6.375    0.000    4.000 
#    0.000    1.250    0.000    7.500    0.000   92.750 
#    0.000    0.000    0.000    0.000    0.000    0.000 
#
# Total GULP energy -178400.275537 kJ/mol
# GULP energy per Si atom -5575.008611 kJ/mol
# Density = 2.365241 g / cm^3
# Si number density = 23.706363 Si / 1000 Ang^3
#
#
#
# Elastic Constant Matrix: (Units=GPa)
#
#
# Indices 1 2 3 4 5 6 
#
# 1 90.3745 15.6968 27.1789 0.0000 0.0000 0.0000
# 2 15.6968 317.3756 42.9318 0.0000 0.0000 0.0000
# 3 27.1789 42.9318 77.5932 0.0000 0.0000 0.0000
# 4 0.0000 0.0000 0.0000 20.8989 0.0000 0.0000
# 5 0.0000 0.0000 0.0000 0.0000 -23.4190 0.0000
# 6 0.0000 0.0000 0.0000 0.0000 0.0000 9.4484
#
#
#
# Elastic Compliance Matrix: (Units=1/GPa)
#
#
# Indices 1 2 3 4 5 6 
#
# 1 0.012368 -0.000028 -0.004317 0.000000 0.000000 0.000000
# 2 -0.000028 0.003406 -0.001875 0.000000 0.000000 0.000000
# 3 -0.004317 -0.001875 0.015437 0.000000 0.000000 0.000000
# 4 0.000000 0.000000 0.000000 0.047849 0.000000 0.000000
# 5 0.000000 0.000000 0.000000 0.000000 -0.042700 0.000000
# 6 0.000000 0.000000 0.000000 0.000000 0.000000 0.105838
#
#
# Mechanical properties :
#
#
# Convention : Reuss Voigt Hill
#
# Bulk Modulus (GPa) = 53.26981 72.99537 63.13259
# Shear Modulus (GPa) = 31.07636 28.02137 29.54887
#
# Velocity S-wave (km/s) = 3.62455 3.44178 3.53434
# Velocity P-wave (km/s) = 6.32739 6.83028 6.58364
#
# Compressibility (1/GPa) = 0.01877236
#
# Stress axis : x y z
#
# Youngs Moduli (GPa) = 80.85298 293.61631 64.77907
#
# Poissons Ratio (x) = 0.00815 0.27964
# Poissons Ratio (y) = 0.00224 0.12144
# Poissons Ratio (z) = 0.34903 0.55044
#
# Static dielectric constant tensor:
#      x y z
#    x 2.038170 0.000000 0.000000 
#    y 0.000000 2.071380 0.000000 
#    z 0.000000 0.000000 1.902890 
# 
# From -- ./inp_files/46895.got.cif
#   From: 2010.05.17/outbox.cif.g08.bks.cpg/sg74_24_cif.got.tgz:46895.got - 2010.06.03 17:57:02.
