data_PCOD9535748
_publ_section_title
;
Structure prediction by ZEFSAII (Michael W. Deem and Ramdas Pophale) SiO2 
 PCOD9535748
Probable space group: I M M A
;
_chemical_formula_sum "Si O2"
_cell_formula_units_Z 96
_cell_length_a 19.571741
_cell_length_b 7.611904
_cell_length_c 31.390005
_cell_angle_alpha 90.000000
_cell_angle_beta 90.000000
_cell_angle_gamma 90.000000
_cell_volume 4676.426870
_symmetry_space_group_name_H-M "I M M A"
_symmetry_group_IT_number 74
_symmetry_cell_setting 'orthorhombic'
loop_
_space_group_symop_operation_xyz
x,y,z
-x,1/2-y,z
x,-y,-z
-x,1/2+y,-z
-x,-y,-z
x,1/2+y,-z
-x,y,z
x,1/2-y,z
1/2+x,1/2+y,1/2+z
1/2-x,-y,1/2+z
1/2+x,1/2-y,1/2-z
1/2-x,y,1/2-z
1/2-x,1/2-y,1/2-z
1/2+x,y,1/2-z
1/2-x,1/2+y,1/2+z
1/2+x,-y,1/2+z
loop_
_atom_site_type_symbol
_atom_site_label
_atom_site_fract_x
_atom_site_fract_y
_atom_site_fract_z
Si Si1 0.179837 0.035491 0.225178
Si Si2 0.077511 0.957819 0.048267
Si Si3 0.831421 0.534671 0.622678
Si Si4 0.822698 0.960663 0.872573
Si Si5 0.422886 0.539782 0.953733
Si Si6 0.921876 0.464282 0.297154
O O1 0.183620 0.250000 0.224473
O O2 0.250000 0.980352 0.250000
O O3 0.167913 0.976566 0.176455
O O4 0.114865 0.984470 0.253521
O O5 0.071796 0.750000 0.049275
O O6 0.000000 0.033249 0.052307
O O7 0.124964 0.002280 0.088889
O O8 0.102968 0.000000 0.000000
O O9 0.830417 0.750000 0.623272
O O10 0.753909 0.476841 0.617277
O O11 0.876412 0.472055 0.583571
O O12 0.870539 0.480342 0.665388
O O13 0.821619 0.750000 0.869640
O O14 0.500000 0.469130 0.951691
O O15 0.426966 0.750000 0.949050
O O16 0.394136 0.500000 0.000000
O O17 0.923873 0.250000 0.298408
O O18 0.000000 0.524471 0.302158
#
# Coordination Sequence:
#
# PCOD9535748 Si02
#       6
#    16  16  16  16  16  16
#     4   9  15  26  43  69 107 145 177 218 269 314
#     4  10  22  41  62  82 107 139 176 221 272 327
#     4   9  16  27  43  67  97 130 166 207 255 303
#     4  10  19  31  53  81 110 141 173 214 267 322
#     4   9  17  29  44  62  87 121 161 203 246 293
#     4   9  15  23  39  65  97 134 176 219 260 303
#
# _framework density 20.528493000000001
#
# number of rings (size 3 to 8) (size 9 to 14) (size 15 to 20)
#    0.000    2.667    1.667    1.000    0.000    4.333 
#    0.000    4.167    0.000    0.500    0.000    0.000 
#    0.000    4.000    0.000    0.000    0.000    0.000 
#
# Total GULP energy -267551.463512 kJ/mol
# GULP energy per Si atom -5573.988823 kJ/mol
# Density = 2.048177 g / cm^3
# Si number density = 20.528493 Si / 1000 Ang^3
#
#
#
# Elastic Constant Matrix: (Units=GPa)
#
#
# Indices 1 2 3 4 5 6 
#
# 1 126.6940 6.2036 101.3579 0.0000 0.0000 0.0000
# 2 6.2036 43.1370 7.2649 0.0000 0.0000 0.0000
# 3 101.3579 7.2649 214.1175 0.0000 0.0000 0.0000
# 4 0.0000 0.0000 0.0000 11.8369 0.0000 0.0000
# 5 0.0000 0.0000 0.0000 0.0000 22.6828 0.0000
# 6 0.0000 0.0000 0.0000 0.0000 0.0000 -14.6441
#
#
#
# Elastic Compliance Matrix: (Units=1/GPa)
#
#
# Indices 1 2 3 4 5 6 
#
# 1 0.012733 -0.000821 -0.006000 0.000000 0.000000 0.000000
# 2 -0.000821 0.023368 -0.000404 0.000000 0.000000 0.000000
# 3 -0.006000 -0.000404 0.007524 0.000000 0.000000 0.000000
# 4 0.000000 0.000000 0.000000 0.084482 0.000000 0.000000
# 5 0.000000 0.000000 0.000000 0.000000 0.044086 0.000000
# 6 0.000000 0.000000 0.000000 0.000000 0.000000 -0.068287
#
#
# Mechanical properties :
#
#
# Convention : Reuss Voigt Hill
#
# Bulk Modulus (GPa) = 34.27499 68.17791 51.22645
# Shear Modulus (GPa) = 39.03773 21.91660 30.47716
#
# Velocity S-wave (km/s) = 4.36551 3.27099 3.85727
# Velocity P-wave (km/s) = 6.49174 6.89560 6.69672
#
# Compressibility (1/GPa) = 0.02917579
#
# Stress axis : x y z
#
# Youngs Moduli (GPa) = 78.53545 42.79344 132.90525
#
# Poissons Ratio (x) = 0.03512 0.79739
# Poissons Ratio (y) = 0.06446 0.05374
# Poissons Ratio (z) = 0.47119 0.01730
#
# Static dielectric constant tensor:
#      x y z
#    x 1.729350 0.000000 0.000000 
#    y 0.000000 1.765850 0.000000 
#    z 0.000000 0.000000 1.739410 
# 
# From -- ./inp_files/68131.got.cif
#   From: 2010.05.17/outbox.cif.g08.bks.cpg/sg74_35_cif.got.tgz:68131.got - 2010.06.03 17:57:02.
