data_PCOD9535450
_publ_section_title
;
Structure prediction by ZEFSAII (Michael W. Deem and Ramdas Pophale) SiO2 
 PCOD9535450
Probable space group: I M M A
;
_chemical_formula_sum "Si O2"
_cell_formula_units_Z 96
_cell_length_a 19.715559
_cell_length_b 14.416830
_cell_length_c 18.869688
_cell_angle_alpha 90.000000
_cell_angle_beta 90.000000
_cell_angle_gamma 90.000000
_cell_volume 5363.442043
_symmetry_space_group_name_H-M "I M M A"
_symmetry_group_IT_number 74
_symmetry_cell_setting 'orthorhombic'
loop_
_space_group_symop_operation_xyz
x,y,z
-x,1/2-y,z
x,-y,-z
-x,1/2+y,-z
-x,-y,-z
x,1/2+y,-z
-x,y,z
x,1/2-y,z
1/2+x,1/2+y,1/2+z
1/2-x,-y,1/2+z
1/2+x,1/2-y,1/2-z
1/2-x,y,1/2-z
1/2-x,1/2-y,1/2-z
1/2+x,y,1/2-z
1/2-x,1/2+y,1/2+z
1/2+x,-y,1/2+z
loop_
_atom_site_type_symbol
_atom_site_label
_atom_site_fract_x
_atom_site_fract_y
_atom_site_fract_z
Si Si1 0.924852 0.477300 0.825198
Si Si2 0.575209 0.359730 0.818697
Si Si3 0.217060 0.359932 0.036670
Si Si4 0.218837 0.140574 0.615701
Si Si5 0.218573 0.963323 0.823875
Si Si6 0.424382 0.361181 0.530262
O O1 0.919087 0.414537 0.754840
O O2 0.862284 0.546522 0.822443
O O3 0.918645 0.413078 0.894827
O O4 0.000000 0.519518 0.826132
O O5 0.500000 0.380157 0.849124
O O6 0.577442 0.250000 0.803412
O O7 0.640047 0.379668 0.867648
O O8 0.217164 0.250000 0.049537
O O9 0.243465 0.411655 0.105815
O O10 0.259947 0.377358 0.965468
O O11 0.139405 0.388277 0.017910
O O12 0.232018 0.250000 0.629940
O O13 0.262900 0.071685 0.664007
O O14 0.250000 0.931993 0.750000
O O15 0.500000 0.381273 0.501023
O O16 0.419740 0.250000 0.541692
#
# Coordination Sequence:
#
# PCOD9535450 Si02
#       6
#    16  16  16  16  16  16
#     4  10  19  30  47  77 114 145 171 205 258 321
#     4   9  17  30  50  78 112 143 169 204 260 328
#     4  10  22  38  55  75 105 142 184 228 263 304
#     4  10  20  34  55  82 110 137 170 216 269 319
#     4  12  23  36  54  79 106 144 181 221 265 315
#     4   9  17  30  50  77 108 142 178 213 255 311
#
# _framework density 17.898952999999999
#
# number of rings (size 3 to 8) (size 9 to 14) (size 15 to 20)
#    0.000    2.000    3.333    1.000    0.000    4.000 
#    0.000    1.667    0.000    3.000    0.000    0.000 
#    0.000    0.000    0.000    0.000    0.000    0.000 
#
# Total GULP energy -267842.860424 kJ/mol
# GULP energy per Si atom -5580.059592 kJ/mol
# Density = 1.785821 g / cm^3
# Si number density = 17.898953 Si / 1000 Ang^3
#
#
#
# Elastic Constant Matrix: (Units=GPa)
#
#
# Indices 1 2 3 4 5 6 
#
# 1 82.9682 10.3873 39.4897 0.0000 0.0000 0.0000
# 2 10.3873 30.3634 24.3313 0.0000 0.0000 0.0000
# 3 39.4897 24.3313 100.4812 0.0000 0.0000 0.0000
# 4 0.0000 0.0000 0.0000 18.4607 0.0000 0.0000
# 5 0.0000 0.0000 0.0000 0.0000 13.2897 0.0000
# 6 0.0000 0.0000 0.0000 0.0000 0.0000 6.3941
#
#
#
# Elastic Compliance Matrix: (Units=1/GPa)
#
#
# Indices 1 2 3 4 5 6 
#
# 1 0.014832 -0.000500 -0.005708 0.000000 0.000000 0.000000
# 2 -0.000500 0.040880 -0.009703 0.000000 0.000000 0.000000
# 3 -0.005708 -0.009703 0.014545 0.000000 0.000000 0.000000
# 4 0.000000 0.000000 0.000000 0.054169 0.000000 0.000000
# 5 0.000000 0.000000 0.000000 0.000000 0.075246 0.000000
# 6 0.000000 0.000000 0.000000 0.000000 0.000000 0.156395
#
#
# Mechanical properties :
#
#
# Convention : Reuss Voigt Hill
#
# Bulk Modulus (GPa) = 26.01714 40.24772 33.13243
# Shear Modulus (GPa) = 12.47813 16.93586 14.70700
#
# Velocity S-wave (km/s) = 2.64321 3.07936 2.86958
# Velocity P-wave (km/s) = 4.88698 5.93112 5.43418
#
# Compressibility (1/GPa) = 0.03843620
#
# Stress axis : x y z
#
# Youngs Moduli (GPa) = 67.42066 24.46156 68.75272
#
# Poissons Ratio (x) = 0.01223 0.39245
# Poissons Ratio (y) = 0.03371 0.66708
# Poissons Ratio (z) = 0.38484 0.23734
#
# Static dielectric constant tensor:
#      x y z
#    x 1.660620 0.000000 0.000000 
#    y 0.000000 1.614270 0.000000 
#    z 0.000000 0.000000 1.589610 
# 
# From -- ./inp_files/32335.got.cif
#   From: 2010.05.17/outbox.cif.g08.bks.cpg/sg74_17_cif.got.tgz:32335.got - 2010.06.03 17:57:02.
