data_PCOD9535250
_publ_section_title
;
Structure prediction by ZEFSAII (Michael W. Deem and Ramdas Pophale) SiO2 
 PCOD9535250
Probable space group: I M M A
;
_chemical_formula_sum "Si O2"
_cell_formula_units_Z 80
_cell_length_a 7.385708
_cell_length_b 19.947297
_cell_length_c 20.485408
_cell_angle_alpha 90.000000
_cell_angle_beta 90.000000
_cell_angle_gamma 90.000000
_cell_volume 3018.010911
_symmetry_space_group_name_H-M "I M M A"
_symmetry_group_IT_number 74
_symmetry_cell_setting 'orthorhombic'
loop_
_space_group_symop_operation_xyz
x,y,z
-x,1/2-y,z
x,-y,-z
-x,1/2+y,-z
-x,-y,-z
x,1/2+y,-z
-x,y,z
x,1/2-y,z
1/2+x,1/2+y,1/2+z
1/2-x,-y,1/2+z
1/2+x,1/2-y,1/2-z
1/2-x,y,1/2-z
1/2-x,1/2-y,1/2-z
1/2+x,y,1/2-z
1/2-x,1/2+y,1/2+z
1/2+x,-y,1/2+z
loop_
_atom_site_type_symbol
_atom_site_label
_atom_site_fract_x
_atom_site_fract_y
_atom_site_fract_z
Si Si1 0.785047 0.963599 0.868866
Si Si2 0.293606 0.895165 0.349761
Si Si3 0.282422 0.896020 0.998068
Si Si4 0.712632 0.750000 0.985381
Si Si5 0.719303 0.750000 0.358248
Si Si6 0.715817 0.178602 0.326683
O O1 0.762120 0.954062 0.946738
O O2 0.705630 0.893342 0.845157
O O3 0.000000 0.965033 0.855874
O O4 0.709709 0.031676 0.836906
O O5 0.500000 0.894942 0.325294
O O6 0.296702 0.898108 0.429308
O O7 0.214374 0.822235 0.331804
O O8 0.500000 0.894144 0.005549
O O9 0.216692 0.824310 0.967824
O O10 0.500000 0.750000 0.973445
O O11 0.734894 0.750000 0.064886
O O12 0.500000 0.750000 0.353142
O O13 0.500000 0.177235 0.337368
O O14 0.784387 0.250000 0.354857
O O15 0.750000 0.182724 0.250000
#
# Coordination Sequence:
#
# PCOD9535250 Si02
#       6
#    16  16  16   8   8  16
#     4  10  20  31  46  68  92 117 149 189 233 278
#     4   9  17  30  45  64  91 123 156 189 224 265
#     4  10  19  29  42  63  93 126 158 191 225 265
#     4   8  16  28  38  54  83 118 153 186 218 252
#     4   8  14  26  44  60  79 114 154 182 210 252
#     4   9  19  36  54  71  91 117 150 191 238 283
#
# _framework density 26.507524
#
# number of rings (size 3 to 8) (size 9 to 14) (size 15 to 20)
#    0.000    2.800    0.000    1.200    1.400    4.800 
#    0.000    0.000    0.000    0.000    0.000    0.700 
#    0.000    0.000    0.000    0.000    0.000    0.000 
#
# Total GULP energy -223277.676498 kJ/mol
# GULP energy per Si atom -5581.941912 kJ/mol
# Density = 2.644719 g / cm^3
# Si number density = 26.507524 Si / 1000 Ang^3
#
#
#
# Elastic Constant Matrix: (Units=GPa)
#
#
# Indices 1 2 3 4 5 6 
#
# 1 125.7902 11.4211 -3.6272 0.0000 0.0000 0.0000
# 2 11.4211 275.8803 25.3466 0.0000 0.0000 0.0000
# 3 -3.6272 25.3466 34.2237 0.0000 0.0000 0.0000
# 4 0.0000 0.0000 0.0000 21.9291 0.0000 0.0000
# 5 0.0000 0.0000 0.0000 0.0000 6.9854 0.0000
# 6 0.0000 0.0000 0.0000 0.0000 0.0000 -23.9458
#
#
#
# Elastic Compliance Matrix: (Units=1/GPa)
#
#
# Indices 1 2 3 4 5 6 
#
# 1 0.008024 -0.000440 0.001176 0.000000 0.000000 0.000000
# 2 -0.000440 0.003914 -0.002945 0.000000 0.000000 0.000000
# 3 0.001176 -0.002945 0.031525 0.000000 0.000000 0.000000
# 4 0.000000 0.000000 0.000000 0.045602 0.000000 0.000000
# 5 0.000000 0.000000 0.000000 0.000000 0.143155 0.000000
# 6 0.000000 0.000000 0.000000 0.000000 0.000000 -0.041761
#
#
# Mechanical properties :
#
#
# Convention : Reuss Voigt Hill
#
# Bulk Modulus (GPa) = 25.61160 55.79723 40.70442
# Shear Modulus (GPa) = 24.05106 27.84398 25.94752
#
# Velocity S-wave (km/s) = 3.01546 3.24453 3.13209
# Velocity P-wave (km/s) = 4.66979 5.92716 5.33565
#
# Compressibility (1/GPa) = 0.03904480
#
# Stress axis : x y z
#
# Youngs Moduli (GPa) = 124.63167 255.52118 31.72041
#
# Poissons Ratio (x) = 0.11249 -0.03732
# Poissons Ratio (y) = 0.05487 0.09342
# Poissons Ratio (z) = -0.14662 0.75254
#
# Static dielectric constant tensor:
#      x y z
#    x 1.968050 0.000000 0.000000 
#    y 0.000000 2.215960 0.000000 
#    z 0.000000 0.000000 2.160040 
# 
# From -- ./inp_files/56891.got.cif
#   From: 2010.05.17/outbox.cif.g08.bks.cpg/sg74_29_cif.got.tgz:56891.got - 2010.06.03 17:57:02.
