data_PCOD9535198
_publ_section_title
;
Structure prediction by ZEFSAII (Michael W. Deem and Ramdas Pophale) SiO2 
 PCOD9535198
Probable space group: I M M A
;
_chemical_formula_sum "Si O2"
_cell_formula_units_Z 80
_cell_length_a 9.083564
_cell_length_b 18.593066
_cell_length_c 37.791795
_cell_angle_alpha 90.000000
_cell_angle_beta 90.000000
_cell_angle_gamma 90.000000
_cell_volume 6382.705575
_symmetry_space_group_name_H-M "I M M A"
_symmetry_group_IT_number 74
_symmetry_cell_setting 'orthorhombic'
loop_
_space_group_symop_operation_xyz
x,y,z
-x,1/2-y,z
x,-y,-z
-x,1/2+y,-z
-x,-y,-z
x,1/2+y,-z
-x,y,z
x,1/2-y,z
1/2+x,1/2+y,1/2+z
1/2-x,-y,1/2+z
1/2+x,1/2-y,1/2-z
1/2-x,y,1/2-z
1/2-x,1/2-y,1/2-z
1/2+x,y,1/2-z
1/2-x,1/2+y,1/2+z
1/2+x,-y,1/2+z
loop_
_atom_site_type_symbol
_atom_site_label
_atom_site_fract_x
_atom_site_fract_y
_atom_site_fract_z
Si Si1 0.168814 0.952256 0.963989
Si Si2 0.822624 0.406121 0.927060
Si Si3 0.674629 0.665982 0.004743
Si Si4 0.825247 0.836192 0.359146
Si Si5 0.330190 0.662530 0.285860
O O1 0.268803 0.884276 0.972861
O O2 0.000000 0.929734 0.957741
O O3 0.215187 0.010012 0.934476
O O4 0.169203 0.000000 0.000000
O O5 0.755415 0.376446 0.891003
O O6 0.000000 0.400356 0.927497
O O7 0.756801 0.360481 0.959741
O O8 0.500000 0.656217 0.009672
O O9 0.704414 0.750000 0.998723
O O10 0.802878 0.750000 0.363441
O O11 0.756827 0.857586 0.321345
O O12 0.000000 0.849302 0.359859
O O13 0.500000 0.639184 0.287080
O O14 0.330456 0.750000 0.284973
O O15 0.250000 0.638215 0.250000
#
# Coordination Sequence:
#
# PCOD9535198 Si02
#       5
#    16  16  16  16  16
#     4   8  16  29  41  53  69  91 119 148 180 220
#     4  10  19  29  40  54  72  94 121 152 186 222
#     4  10  19  28  39  56  74  92 118 151 185 221
#     4  10  19  28  38  54  74  95 122 154 186 220
#     4   9  16  26  39  53  70  93 120 150 183 216
#
# _framework density 12.533868999999999
#
# number of rings (size 3 to 8) (size 9 to 14) (size 15 to 20)
#    0.000    2.600    0.000    4.200    0.000   12.000 
#    0.000    0.000    0.000    0.000    0.000    0.000 
#    0.000    0.000    0.000    0.000    0.000    1.000 
#
# Total GULP energy -222839.575586 kJ/mol
# GULP energy per Si atom -5570.989390 kJ/mol
# Density = 1.250534 g / cm^3
# Si number density = 12.533869 Si / 1000 Ang^3
#
#
#
# Elastic Constant Matrix: (Units=GPa)
#
#
# Indices 1 2 3 4 5 6 
#
# 1 84.1253 52.7841 55.4015 0.0000 0.0000 0.0000
# 2 52.7841 65.3724 46.6429 0.0000 0.0000 0.0000
# 3 55.4015 46.6429 91.6682 0.0000 0.0000 0.0000
# 4 0.0000 0.0000 0.0000 13.8140 0.0000 0.0000
# 5 0.0000 0.0000 0.0000 0.0000 22.9195 0.0000
# 6 0.0000 0.0000 0.0000 0.0000 0.0000 25.3992
#
#
#
# Elastic Compliance Matrix: (Units=1/GPa)
#
#
# Indices 1 2 3 4 5 6 
#
# 1 0.027689 -0.016355 -0.008413 0.000000 0.000000 0.000000
# 2 -0.016355 0.033676 -0.007251 0.000000 0.000000 0.000000
# 3 -0.008413 -0.007251 0.019683 0.000000 0.000000 0.000000
# 4 0.000000 0.000000 0.000000 0.072390 0.000000 0.000000
# 5 0.000000 0.000000 0.000000 0.000000 0.043631 0.000000
# 6 0.000000 0.000000 0.000000 0.000000 0.000000 0.039371
#
#
# Mechanical properties :
#
#
# Convention : Reuss Voigt Hill
#
# Bulk Modulus (GPa) = 58.78522 61.20254 59.99388
# Shear Modulus (GPa) = 16.33204 18.18235 17.25720
#
# Velocity S-wave (km/s) = 3.61367 3.81288 3.71461
# Velocity P-wave (km/s) = 8.02586 8.26558 8.14660
#
# Compressibility (1/GPa) = 0.01701108
#
# Stress axis : x y z
#
# Youngs Moduli (GPa) = 36.11546 29.69509 50.80614
#
# Poissons Ratio (x) = 0.48565 0.42742
# Poissons Ratio (y) = 0.59065 0.36838
# Poissons Ratio (z) = 0.30383 0.21531
#
# Static dielectric constant tensor:
#      x y z
#    x 1.419610 0.000000 0.000000 
#    y 0.000000 1.396870 0.000000 
#    z 0.000000 0.000000 1.397270 
# 
# From -- ./inp_files/70120.got.cif
#   From: 2010.05.17/outbox.cif.g08.bks.cpg/sg74_36_cif.got.tgz:70120.got - 2010.06.03 17:57:02.
