data_PCOD9535490
_publ_section_title
;
Structure prediction by ZEFSAII (Michael W. Deem and Ramdas Pophale) SiO2 
 PCOD9535490
Probable space group: I M M A
;
_chemical_formula_sum "Si O2"
_cell_formula_units_Z 80
_cell_length_a 25.271219
_cell_length_b 9.151266
_cell_length_c 20.624464
_cell_angle_alpha 90.000000
_cell_angle_beta 90.000000
_cell_angle_gamma 90.000000
_cell_volume 4769.688766
_symmetry_space_group_name_H-M "I M M A"
_symmetry_group_IT_number 74
_symmetry_cell_setting 'orthorhombic'
loop_
_space_group_symop_operation_xyz
x,y,z
-x,1/2-y,z
x,-y,-z
-x,1/2+y,-z
-x,-y,-z
x,1/2+y,-z
-x,y,z
x,1/2-y,z
1/2+x,1/2+y,1/2+z
1/2-x,-y,1/2+z
1/2+x,1/2-y,1/2-z
1/2-x,y,1/2-z
1/2-x,1/2-y,1/2-z
1/2+x,y,1/2-z
1/2-x,1/2+y,1/2+z
1/2+x,-y,1/2+z
loop_
_atom_site_type_symbol
_atom_site_label
_atom_site_fract_x
_atom_site_fract_y
_atom_site_fract_z
Si Si1 0.288186 0.424136 0.309914
Si Si2 0.108735 0.577257 0.391188
Si Si3 0.607108 0.921232 0.265496
Si Si4 0.283474 0.924787 0.934785
Si Si5 0.500000 0.582619 0.736941
Si Si6 0.000000 0.919072 0.605105
O O1 0.298312 0.250000 0.306603
O O2 0.250000 0.462661 0.250000
O O3 0.342674 0.508429 0.300343
O O4 0.256112 0.455217 0.375374
O O5 0.109362 0.750000 0.406572
O O6 0.112633 0.561937 0.312773
O O7 0.159280 0.494707 0.419836
O O8 0.053667 0.503625 0.413386
O O9 0.603671 0.750000 0.279004
O O10 0.552950 0.000999 0.284240
O O11 0.288554 0.750000 0.941595
O O12 0.263324 0.000000 0.000000
O O13 0.500000 0.750000 0.715835
O O14 0.500000 0.581634 0.815895
O O15 0.000000 0.750000 0.583439
#
# Coordination Sequence:
#
# PCOD9535490 Si02
#       6
#    16  16  16  16   8   8
#     4  10  20  35  55  78 105 138 178 218 261 314
#     4  10  19  32  50  74 104 137 175 218 264 310
#     4  10  19  30  50  79 109 137 172 219 264 307
#     4  11  23  38  55  75 104 140 177 219 264 315
#     4   9  17  29  47  72 107 142 173 210 259 315
#     4   9  17  29  48  72  99 136 178 218 260 305
#
# _framework density 16.772582
#
# number of rings (size 3 to 8) (size 9 to 14) (size 15 to 20)
#    0.000    2.000    2.000    2.400    0.000    6.000 
#    0.000    0.500    0.000    0.000    0.000    0.700 
#    0.000    0.000    0.000    0.000    0.000    0.000 
#
# Total GULP energy -223369.057940 kJ/mol
# GULP energy per Si atom -5584.226449 kJ/mol
# Density = 1.673441 g / cm^3
# Si number density = 16.772582 Si / 1000 Ang^3
#
#
#
# Elastic Constant Matrix: (Units=GPa)
#
#
# Indices 1 2 3 4 5 6 
#
# 1 141.9619 90.2519 54.7302 0.0000 0.0000 0.0000
# 2 90.2519 115.9291 61.0672 0.0000 0.0000 0.0000
# 3 54.7302 61.0672 74.6637 0.0000 0.0000 0.0000
# 4 0.0000 0.0000 0.0000 21.0884 0.0000 0.0000
# 5 0.0000 0.0000 0.0000 0.0000 7.4660 0.0000
# 6 0.0000 0.0000 0.0000 0.0000 0.0000 9.1668
#
#
#
# Elastic Compliance Matrix: (Units=1/GPa)
#
#
# Indices 1 2 3 4 5 6 
#
# 1 0.014188 -0.009781 -0.002400 0.000000 0.000000 0.000000
# 2 -0.009781 0.021899 -0.010741 0.000000 0.000000 0.000000
# 3 -0.002400 -0.010741 0.023938 0.000000 0.000000 0.000000
# 4 0.000000 0.000000 0.000000 0.047419 0.000000 0.000000
# 5 0.000000 0.000000 0.000000 0.000000 0.133940 0.000000
# 6 0.000000 0.000000 0.000000 0.000000 0.000000 0.109089
#
#
# Mechanical properties :
#
#
# Convention : Reuss Voigt Hill
#
# Bulk Modulus (GPa) = 70.52294 82.73926 76.63110
# Shear Modulus (GPa) = 12.46749 15.97795 14.22272
#
# Velocity S-wave (km/s) = 2.72936 3.08981 2.91516
# Velocity P-wave (km/s) = 7.21598 7.88457 7.55767
#
# Compressibility (1/GPa) = 0.01417978
#
# Stress axis : x y z
#
# Youngs Moduli (GPa) = 70.48386 45.66521 41.77493
#
# Poissons Ratio (x) = 0.44665 0.10026
# Poissons Ratio (y) = 0.68940 0.44871
# Poissons Ratio (z) = 0.16917 0.49049
#
# Static dielectric constant tensor:
#      x y z
#    x 1.540820 0.000000 0.000000 
#    y 0.000000 1.556120 0.000000 
#    z 0.000000 0.000000 1.566560 
# 
# From -- ./inp_files/48598.got.cif
#   From: 2010.05.17/outbox.cif.g08.bks.cpg/sg74_25_cif.got.tgz:48598.got - 2010.06.03 17:57:02.
