data_PCOD9535571
_publ_section_title
;
Structure prediction by ZEFSAII (Michael W. Deem and Ramdas Pophale) SiO2 
 PCOD9535571
Probable space group: I M M A
;
_chemical_formula_sum "Si O2"
_cell_formula_units_Z 104
_cell_length_a 7.925081
_cell_length_b 26.892170
_cell_length_c 22.365955
_cell_angle_alpha 90.000000
_cell_angle_beta 90.000000
_cell_angle_gamma 90.000000
_cell_volume 4766.691052
_symmetry_space_group_name_H-M "I M M A"
_symmetry_group_IT_number 74
_symmetry_cell_setting 'orthorhombic'
loop_
_space_group_symop_operation_xyz
x,y,z
-x,1/2-y,z
x,-y,-z
-x,1/2+y,-z
-x,-y,-z
x,1/2+y,-z
-x,y,z
x,1/2-y,z
1/2+x,1/2+y,1/2+z
1/2-x,-y,1/2+z
1/2+x,1/2-y,1/2-z
1/2-x,y,1/2-z
1/2-x,1/2-y,1/2-z
1/2+x,y,1/2-z
1/2-x,1/2+y,1/2+z
1/2+x,-y,1/2+z
loop_
_atom_site_type_symbol
_atom_site_label
_atom_site_fract_x
_atom_site_fract_y
_atom_site_fract_z
Si Si1 0.799480 0.384706 0.181537
Si Si2 0.198391 0.250000 0.819364
Si Si3 0.796732 0.044165 0.684901
Si Si4 0.702849 0.356769 0.868288
Si Si5 0.796924 0.806012 0.911307
Si Si6 0.195118 0.467634 0.409751
Si Si7 0.799197 0.391472 0.503094
O O1 0.750000 0.388067 0.250000
O O2 0.761327 0.330933 0.152840
O O3 0.703583 0.424576 0.140689
O O4 0.000000 0.393978 0.174632
O O5 0.250000 0.250000 0.750000
O O6 0.255880 0.199294 0.851027
O O7 0.000000 0.250000 0.821480
O O8 0.750000 0.023482 0.750000
O O9 0.739635 0.101307 0.678700
O O10 0.000000 0.041984 0.681757
O O11 0.730905 0.014077 0.626888
O O12 0.500000 0.359230 0.870576
O O13 0.768551 0.375391 0.932592
O O14 0.733134 0.750000 0.917362
O O15 0.000000 0.805233 0.918333
O O16 0.727239 0.844370 0.959886
O O17 0.269261 0.440604 0.468693
O O18 0.000000 0.479998 0.423567
O O19 0.000000 0.399867 0.509244
#
# Coordination Sequence:
#
# PCOD9535571 Si02
#       7
#    16   8  16  16  16  16  16
#     4  10  19  31  48  71 101 139 182 229 281 334
#     4  12  26  44  66  90 118 154 193 238 289 342
#     4  10  21  36  57  84 115 150 189 233 281 335
#     4  10  22  40  61  88 119 151 188 235 286 339
#     4   9  19  34  50  70 101 139 180 230 283 335
#     4   9  18  34  55  81 111 146 186 227 275 331
#     4   9  19  35  56  82 112 145 185 230 277 332
#
# _framework density 21.818069000000001
#
# number of rings (size 3 to 8) (size 9 to 14) (size 15 to 20)
#    0.000    2.308    0.000    2.077    1.077    6.154 
#    0.000    3.077    0.000    0.000    0.000    6.462 
#    0.000    0.000    0.000    0.000    0.000    0.000 
#
# Total GULP energy -290215.676016 kJ/mol
# GULP energy per Si atom -5581.070693 kJ/mol
# Density = 2.176841 g / cm^3
# Si number density = 21.818069 Si / 1000 Ang^3
#
#
#
# Elastic Constant Matrix: (Units=GPa)
#
#
# Indices 1 2 3 4 5 6 
#
# 1 29.4864 9.2908 2.7593 0.0000 0.0000 0.0000
# 2 9.2908 151.1618 53.7006 0.0000 0.0000 0.0000
# 3 2.7593 53.7006 133.4735 0.0000 0.0000 0.0000
# 4 0.0000 0.0000 0.0000 25.4258 0.0000 0.0000
# 5 0.0000 0.0000 0.0000 0.0000 17.3665 0.0000
# 6 0.0000 0.0000 0.0000 0.0000 0.0000 15.7516
#
#
#
# Elastic Compliance Matrix: (Units=1/GPa)
#
#
# Indices 1 2 3 4 5 6 
#
# 1 0.034587 -0.002184 0.000164 0.000000 0.000000 0.000000
# 2 -0.002184 0.007857 -0.003116 0.000000 0.000000 0.000000
# 3 0.000164 -0.003116 0.008742 0.000000 0.000000 0.000000
# 4 0.000000 0.000000 0.000000 0.039330 0.000000 0.000000
# 5 0.000000 0.000000 0.000000 0.000000 0.057582 0.000000
# 6 0.000000 0.000000 0.000000 0.000000 0.000000 0.063486
#
#
# Mechanical properties :
#
#
# Convention : Reuss Voigt Hill
#
# Bulk Modulus (GPa) = 24.44182 49.51368 36.97775
# Shear Modulus (GPa) = 21.23200 28.26685 24.74942
#
# Velocity S-wave (km/s) = 3.12290 3.60331 3.37167
# Velocity P-wave (km/s) = 4.92242 6.32890 5.66944
#
# Compressibility (1/GPa) = 0.04091348
#
# Stress axis : x y z
#
# Youngs Moduli (GPa) = 28.91281 127.28229 114.38613
#
# Poissons Ratio (x) = 0.27798 -0.01872
# Poissons Ratio (y) = 0.06314 0.35640
# Poissons Ratio (z) = -0.00473 0.39658
#
# Static dielectric constant tensor:
#      x y z
#    x 1.822110 0.000000 0.000000 
#    y 0.000000 1.859160 0.000000 
#    z 0.000000 0.000000 1.791860 
# 
# From -- ./inp_files/49242.got.cif
#   From: 2010.05.17/outbox.cif.g08.bks.cpg/sg74_25_cif.got.tgz:49242.got - 2010.06.03 17:57:02.
