data_PCOD9535496
_publ_section_title
;
Structure prediction by ZEFSAII (Michael W. Deem and Ramdas Pophale) SiO2 
 PCOD9535496
Probable space group: I M M A
;
_chemical_formula_sum "Si O2"
_cell_formula_units_Z 72
_cell_length_a 10.246241
_cell_length_b 11.236054
_cell_length_c 36.496093
_cell_angle_alpha 90.000000
_cell_angle_beta 90.000000
_cell_angle_gamma 90.000000
_cell_volume 4201.697274
_symmetry_space_group_name_H-M "I M M A"
_symmetry_group_IT_number 74
_symmetry_cell_setting 'orthorhombic'
loop_
_space_group_symop_operation_xyz
x,y,z
-x,1/2-y,z
x,-y,-z
-x,1/2+y,-z
-x,-y,-z
x,1/2+y,-z
-x,y,z
x,1/2-y,z
1/2+x,1/2+y,1/2+z
1/2-x,-y,1/2+z
1/2+x,1/2-y,1/2-z
1/2-x,y,1/2-z
1/2-x,1/2-y,1/2-z
1/2+x,y,1/2-z
1/2-x,1/2+y,1/2+z
1/2+x,-y,1/2+z
loop_
_atom_site_type_symbol
_atom_site_label
_atom_site_fract_x
_atom_site_fract_y
_atom_site_fract_z
Si Si1 0.858485 0.250000 0.033336
Si Si2 0.156524 0.882839 0.432771
Si Si3 0.345842 0.108207 0.783947
Si Si4 0.842573 0.996804 0.639934
Si Si5 0.285126 0.000000 0.500000
Si Si6 0.843474 0.250000 0.399748
O O1 0.852211 0.373209 0.009920
O O2 0.742281 0.250000 0.063307
O O3 0.000000 0.250000 0.052426
O O4 0.197701 0.750000 0.442529
O O5 0.202604 0.972170 0.463753
O O6 0.000000 0.885991 0.431756
O O7 0.205301 0.916964 0.392458
O O8 0.500000 0.082270 0.776211
O O9 0.339009 0.250000 0.792145
O O10 0.250000 0.084257 0.750000
O O11 0.300477 0.035331 0.819737
O O12 0.814204 0.865517 0.624925
O O13 0.000000 0.007753 0.641194
O O14 0.000000 0.250000 0.408395
#
# Coordination Sequence:
#
# PCOD9535496 Si02
#       6
#     8  16  16  16   8   8
#     4  12  26  42  58  77 111 154 192 231 282 338
#     4  10  19  30  51  84 113 137 176 231 281 323
#     4   9  17  31  53  78 107 140 174 215 265 322
#     4   9  17  31  52  79 108 139 174 222 275 323
#     4  12  22  38  56  76 107 148 191 226 277 332
#     4  10  20  36  59  81 105 138 184 227 273 330
#
# _framework density 17.135933000000001
#
# number of rings (size 3 to 8) (size 9 to 14) (size 15 to 20)
#    0.000    2.000    3.333    1.333    0.000    3.556 
#    0.000    1.667    0.000    0.000    0.000    0.000 
#    0.000    0.000    0.000    0.000    0.000    0.000 
#
# Total GULP energy -200416.849364 kJ/mol
# GULP energy per Si atom -5567.134705 kJ/mol
# Density = 1.709693 g / cm^3
# Si number density = 17.135933 Si / 1000 Ang^3
#
#
#
# Elastic Constant Matrix: (Units=GPa)
#
#
# Indices 1 2 3 4 5 6 
#
# 1 52.6758 35.3841 46.3526 0.0000 0.0000 0.0000
# 2 35.3841 101.4704 48.2858 0.0000 0.0000 0.0000
# 3 46.3526 48.2858 123.7924 0.0000 0.0000 0.0000
# 4 0.0000 0.0000 0.0000 31.0581 0.0000 0.0000
# 5 0.0000 0.0000 0.0000 0.0000 11.9729 0.0000
# 6 0.0000 0.0000 0.0000 0.0000 0.0000 0.4972
#
#
#
# Elastic Compliance Matrix: (Units=1/GPa)
#
#
# Indices 1 2 3 4 5 6 
#
# 1 0.031549 -0.006606 -0.009236 0.000000 0.000000 0.000000
# 2 -0.006606 0.013485 -0.002786 0.000000 0.000000 0.000000
# 3 -0.009236 -0.002786 0.012623 0.000000 0.000000 0.000000
# 4 0.000000 0.000000 0.000000 0.032198 0.000000 0.000000
# 5 0.000000 0.000000 0.000000 0.000000 0.083522 0.000000
# 6 0.000000 0.000000 0.000000 0.000000 0.000000 2.011334
#
#
# Mechanical properties :
#
#
# Convention : Reuss Voigt Hill
#
# Bulk Modulus (GPa) = 49.02091 59.77595 54.39843
# Shear Modulus (GPa) = 2.24339 18.56671 10.40505
#
# Velocity S-wave (km/s) = 1.14543 3.29522 2.46683
# Velocity P-wave (km/s) = 5.51530 7.03115 6.31885
#
# Compressibility (1/GPa) = 0.02039946
#
# Stress axis : x y z
#
# Youngs Moduli (GPa) = 31.69623 74.15858 79.21911
#
# Poissons Ratio (x) = 0.48993 0.73170
# Poissons Ratio (y) = 0.20940 0.22071
# Poissons Ratio (z) = 0.29276 0.20661
#
# Static dielectric constant tensor:
#      x y z
#    x 1.573150 0.000000 0.000000 
#    y 0.000000 1.614720 0.000000 
#    z 0.000000 0.000000 1.567740 
# 
# From -- ./inp_files/65724.got.cif
#   From: 2010.05.17/outbox.cif.g08.bks.cpg/sg74_33_cif.got.tgz:65724.got - 2010.06.03 17:57:02.
