data_PCOD9535929
_publ_section_title
;
Structure prediction by ZEFSAII (Michael W. Deem and Ramdas Pophale) SiO2 
 PCOD9535929
Probable space group: I M M A
;
_chemical_formula_sum "Si O2"
_cell_formula_units_Z 80
_cell_length_a 17.741309
_cell_length_b 14.565961
_cell_length_c 17.405293
_cell_angle_alpha 90.000000
_cell_angle_beta 90.000000
_cell_angle_gamma 90.000000
_cell_volume 4497.862154
_symmetry_space_group_name_H-M "I M M A"
_symmetry_group_IT_number 74
_symmetry_cell_setting 'orthorhombic'
loop_
_space_group_symop_operation_xyz
x,y,z
-x,1/2-y,z
x,-y,-z
-x,1/2+y,-z
-x,-y,-z
x,1/2+y,-z
-x,y,z
x,1/2-y,z
1/2+x,1/2+y,1/2+z
1/2-x,-y,1/2+z
1/2+x,1/2-y,1/2-z
1/2-x,y,1/2-z
1/2-x,1/2-y,1/2-z
1/2+x,y,1/2-z
1/2-x,1/2+y,1/2+z
1/2+x,-y,1/2+z
loop_
_atom_site_type_symbol
_atom_site_label
_atom_site_fract_x
_atom_site_fract_y
_atom_site_fract_z
Si Si1 0.332966 0.475700 0.088896
Si Si2 0.085878 0.353358 0.839522
Si Si3 0.088579 0.140741 0.287933
Si Si4 0.914701 0.852902 0.345918
Si Si5 0.306733 0.015399 0.318888
O O1 0.387188 0.401008 0.129371
O O2 0.356632 0.571665 0.127925
O O3 0.249309 0.447409 0.115909
O O4 0.339623 0.500000 0.000000
O O5 0.106602 0.250000 0.864989
O O6 0.083657 0.351627 0.746440
O O7 0.145046 0.433101 0.855255
O O8 0.000000 0.372627 0.865459
O O9 0.101435 0.250000 0.285278
O O10 0.138091 0.087693 0.223570
O O11 0.000000 0.122224 0.275369
O O12 0.896735 0.750000 0.372544
O O13 0.000000 0.876256 0.371773
O O14 0.250000 0.984507 0.250000
#
# Coordination Sequence:
#
# PCOD9535929 Si02
#       5
#    16  16  16  16  16
#     4  11  23  35  49  77 113 143 169 208 267 329
#     4   9  16  28  50  77 100 124 160 207 252 295
#     4  10  21  38  60  81 100 135 189 236 268 303
#     4   9  17  30  49  74 103 133 164 200 246 301
#     4  10  19  32  52  76 103 138 175 217 260 311
#
# _framework density 17.786227
#
# number of rings (size 3 to 8) (size 9 to 14) (size 15 to 20)
#    0.000    2.200    4.000    2.400    0.000    7.200 
#    0.000    2.000    0.000    2.400    0.000    2.800 
#    0.000    0.000    0.000    0.000    0.000    0.000 
#
# Total GULP energy -222725.530230 kJ/mol
# GULP energy per Si atom -5568.138256 kJ/mol
# Density = 1.774575 g / cm^3
# Si number density = 17.786227 Si / 1000 Ang^3
#
#
#
# Elastic Constant Matrix: (Units=GPa)
#
#
# Indices 1 2 3 4 5 6 
#
# 1 98.9297 60.0866 16.9626 0.0000 0.0000 0.0000
# 2 60.0866 83.4984 14.1249 0.0000 0.0000 0.0000
# 3 16.9626 14.1249 30.1526 0.0000 0.0000 0.0000
# 4 0.0000 0.0000 0.0000 6.3486 0.0000 0.0000
# 5 0.0000 0.0000 0.0000 0.0000 27.7256 0.0000
# 6 0.0000 0.0000 0.0000 0.0000 0.0000 -99.3302
#
#
#
# Elastic Compliance Matrix: (Units=1/GPa)
#
#
# Indices 1 2 3 4 5 6 
#
# 1 0.018510 -0.012553 -0.004532 0.000000 0.000000 0.000000
# 2 -0.012553 0.021520 -0.003019 0.000000 0.000000 0.000000
# 3 -0.004532 -0.003019 0.037129 0.000000 0.000000 0.000000
# 4 0.000000 0.000000 0.000000 0.157515 0.000000 0.000000
# 5 0.000000 0.000000 0.000000 0.000000 0.036068 0.000000
# 6 0.000000 0.000000 0.000000 0.000000 0.000000 -0.010067
#
#
# Mechanical properties :
#
#
# Convention : Reuss Voigt Hill
#
# Bulk Modulus (GPa) = 27.06409 43.88100 35.47255
# Shear Modulus (GPa) = 15.96423 -4.95742 5.50341
#
# Velocity S-wave (km/s) = 2.99918 -1.67131 1.76094
# Velocity P-wave (km/s) = 5.21947 4.58263 4.91138
#
# Compressibility (1/GPa) = 0.03694933
#
# Stress axis : x y z
#
# Youngs Moduli (GPa) = 54.02591 46.46750 26.93334
#
# Poissons Ratio (x) = 0.58331 0.12207
# Poissons Ratio (y) = 0.67819 0.08132
# Poissons Ratio (z) = 0.24486 0.14030
#
# Static dielectric constant tensor:
#      x y z
#    x 1.653540 0.000000 0.000000 
#    y 0.000000 1.619910 0.000000 
#    z 0.000000 0.000000 1.617630 
# 
# From -- ./inp_files/42676.got.cif
#   From: 2010.05.17/outbox.cif.g08.bks.cpg/sg74_22_cif.got.tgz:42676.got - 2010.06.03 17:57:02.
