data_PCOD9535921
_publ_section_title
;
Structure prediction by ZEFSAII (Michael W. Deem and Ramdas Pophale) SiO2 
 PCOD9535921
Probable space group: I M M A
;
_chemical_formula_sum "Si O2"
_cell_formula_units_Z 88
_cell_length_a 19.812031
_cell_length_b 8.896728
_cell_length_c 27.801554
_cell_angle_alpha 90.000000
_cell_angle_beta 90.000000
_cell_angle_gamma 90.000000
_cell_volume 4900.364488
_symmetry_space_group_name_H-M "I M M A"
_symmetry_group_IT_number 74
_symmetry_cell_setting 'orthorhombic'
loop_
_space_group_symop_operation_xyz
x,y,z
-x,1/2-y,z
x,-y,-z
-x,1/2+y,-z
-x,-y,-z
x,1/2+y,-z
-x,y,z
x,1/2-y,z
1/2+x,1/2+y,1/2+z
1/2-x,-y,1/2+z
1/2+x,1/2-y,1/2-z
1/2-x,y,1/2-z
1/2-x,1/2-y,1/2-z
1/2+x,y,1/2-z
1/2-x,1/2+y,1/2+z
1/2+x,-y,1/2+z
loop_
_atom_site_type_symbol
_atom_site_label
_atom_site_fract_x
_atom_site_fract_y
_atom_site_fract_z
Si Si1 0.645825 0.423906 0.583516
Si Si2 0.686754 0.076869 0.694721
Si Si3 0.320032 0.569491 0.843312
Si Si4 0.500000 0.931342 0.447661
Si Si5 0.279598 0.428865 0.049954
Si Si6 0.922636 0.069039 0.265120
O O1 0.652042 0.250000 0.566678
O O2 0.661026 0.425865 0.639866
O O3 0.569817 0.478313 0.576453
O O4 0.701589 0.522559 0.556841
O O5 0.693826 0.250000 0.709806
O O6 0.759935 0.999190 0.689400
O O7 0.630507 0.997076 0.727064
O O8 0.311160 0.750000 0.842994
O O9 0.313371 0.520487 0.899155
O O10 0.390409 0.533222 0.817337
O O11 0.500000 0.750000 0.448667
O O12 0.500000 0.000000 0.500000
O O13 0.285398 0.250000 0.046774
O O14 0.304886 0.500000 0.000000
O O15 0.922649 0.250000 0.260269
O O16 0.000000 0.016381 0.259421
#
# Coordination Sequence:
#
# PCOD9535921 Si02
#       6
#    16  16  16   8  16  16
#     4   9  19  33  48  67  96 131 167 205 247 297
#     4  10  20  33  53  78 104 135 171 212 258 305
#     4   9  19  36  55  75 103 137 172 211 254 303
#     4  10  20  32  44  60  88 128 166 202 245 288
#     4  10  19  32  52  75  98 125 162 207 255 302
#     4  10  21  36  54  76 103 137 175 213 254 305
#
# _framework density 17.957847000000001
#
# number of rings (size 3 to 8) (size 9 to 14) (size 15 to 20)
#    0.000    2.364    0.000    2.182    1.273    6.909 
#    0.000    0.000    0.000    0.545    0.000    0.000 
#    0.000    0.000    0.000    0.000    0.000    0.545 
#
# Total GULP energy -245321.492057 kJ/mol
# GULP energy per Si atom -5575.488456 kJ/mol
# Density = 1.791697 g / cm^3
# Si number density = 17.957847 Si / 1000 Ang^3
#
#
#
# Elastic Constant Matrix: (Units=GPa)
#
#
# Indices 1 2 3 4 5 6 
#
# 1 80.2958 19.0917 43.5206 0.0000 0.0000 0.0000
# 2 19.0917 27.1201 28.6866 0.0000 0.0000 0.0000
# 3 43.5206 28.6866 95.2260 0.0000 0.0000 0.0000
# 4 0.0000 0.0000 0.0000 28.8416 0.0000 0.0000
# 5 0.0000 0.0000 0.0000 0.0000 13.5163 0.0000
# 6 0.0000 0.0000 0.0000 0.0000 0.0000 12.7235
#
#
#
# Elastic Compliance Matrix: (Units=1/GPa)
#
#
# Indices 1 2 3 4 5 6 
#
# 1 0.017103 -0.005536 -0.006149 0.000000 0.000000 0.000000
# 2 -0.005536 0.055910 -0.014313 0.000000 0.000000 0.000000
# 3 -0.006149 -0.014313 0.017623 0.000000 0.000000 0.000000
# 4 0.000000 0.000000 0.000000 0.034672 0.000000 0.000000
# 5 0.000000 0.000000 0.000000 0.000000 0.073985 0.000000
# 6 0.000000 0.000000 0.000000 0.000000 0.000000 0.078595
#
#
# Mechanical properties :
#
#
# Convention : Reuss Voigt Hill
#
# Bulk Modulus (GPa) = 25.87926 42.80439 34.34183
# Shear Modulus (GPa) = 14.58739 18.43915 16.51327
#
# Velocity S-wave (km/s) = 2.85320 3.20785 3.03571
# Velocity P-wave (km/s) = 5.02959 6.13255 5.60825
#
# Compressibility (1/GPa) = 0.03864098
#
# Stress axis : x y z
#
# Youngs Moduli (GPa) = 58.46982 17.88604 56.74384
#
# Poissons Ratio (x) = 0.09902 0.34890
# Poissons Ratio (y) = 0.32369 0.81215
# Poissons Ratio (z) = 0.35951 0.25599
#
# Static dielectric constant tensor:
#      x y z
#    x 1.543450 0.000000 0.000000 
#    y 0.000000 1.615830 0.000000 
#    z 0.000000 0.000000 1.637030 
# 
# From -- ./inp_files/72938.got.cif
#   From: 2010.05.17/outbox.cif.g08.bks.cpg/sg74_37_cif.got.tgz:72938.got - 2010.06.03 17:57:02.
