data_PCOD9535762
_publ_section_title
;
Structure prediction by ZEFSAII (Michael W. Deem and Ramdas Pophale) SiO2 
 PCOD9535762
Probable space group: I M M A
;
_chemical_formula_sum "Si O2"
_cell_formula_units_Z 88
_cell_length_a 17.007724
_cell_length_b 14.221728
_cell_length_c 19.195251
_cell_angle_alpha 90.000000
_cell_angle_beta 90.000000
_cell_angle_gamma 90.000000
_cell_volume 4642.932428
_symmetry_space_group_name_H-M "I M M A"
_symmetry_group_IT_number 74
_symmetry_cell_setting 'orthorhombic'
loop_
_space_group_symop_operation_xyz
x,y,z
-x,1/2-y,z
x,-y,-z
-x,1/2+y,-z
-x,-y,-z
x,1/2+y,-z
-x,y,z
x,1/2-y,z
1/2+x,1/2+y,1/2+z
1/2-x,-y,1/2+z
1/2+x,1/2-y,1/2-z
1/2-x,y,1/2-z
1/2-x,1/2-y,1/2-z
1/2+x,y,1/2-z
1/2-x,1/2+y,1/2+z
1/2+x,-y,1/2+z
loop_
_atom_site_type_symbol
_atom_site_label
_atom_site_fract_x
_atom_site_fract_y
_atom_site_fract_z
Si Si1 0.156747 0.750000 0.543770
Si Si2 0.309853 0.416251 0.807397
Si Si3 0.910286 0.074256 0.243783
Si Si4 0.753815 0.054491 0.432404
Si Si5 0.403680 0.750000 0.115285
Si Si6 0.411865 0.862342 0.583843
Si Si7 0.411470 0.250000 0.180759
O O1 0.205285 0.656641 0.564390
O O2 0.126413 0.750000 0.464916
O O3 0.086163 0.750000 0.598650
O O4 0.250000 0.373499 0.750000
O O5 0.363535 0.481065 0.758364
O O6 0.270642 0.487440 0.865263
O O7 0.363399 0.340252 0.847310
O O8 0.911221 0.112622 0.165783
O O9 0.872808 0.156746 0.289972
O O10 0.000000 0.057679 0.266604
O O11 0.661659 0.078681 0.443300
O O12 0.784348 0.000000 0.500000
O O13 0.500000 0.750000 0.119009
O O14 0.500000 0.884895 0.557061
O O15 0.400070 0.750000 0.574914
O O16 0.500000 0.250000 0.210769
#
# Coordination Sequence:
#
# PCOD9535762 Si02
#       7
#     8  16  16  16   8  16   8
#     4  12  23  40  62  95 130 169 215 258 325 389
#     4  12  24  42  67  94 121 167 221 270 325 378
#     4  10  19  33  57  93 128 157 195 250 318 386
#     4  12  24  40  63  92 129 165 210 266 323 387
#     4  12  28  49  65  87 129 177 224 276 316 375
#     4  10  20  36  61  92 126 164 201 254 326 386
#     4  10  19  31  54  92 135 160 190 247 310 388
#
# _framework density 18.953538999999999
#
# number of rings (size 3 to 8) (size 9 to 14) (size 15 to 20)
#    0.000    0.909    7.273    1.091    0.000    0.364 
#    0.000    3.636    0.000    0.000    0.000    0.000 
#    0.000    0.000    0.000    0.000    0.000    0.000 
#
# Total GULP energy -245112.570711 kJ/mol
# GULP energy per Si atom -5570.740243 kJ/mol
# Density = 1.891040 g / cm^3
# Si number density = 18.953539 Si / 1000 Ang^3
#
#
#
# Elastic Constant Matrix: (Units=GPa)
#
#
# Indices 1 2 3 4 5 6 
#
# 1 89.5155 42.9968 11.7013 0.0000 0.0000 0.0000
# 2 42.9968 101.1470 22.5915 0.0000 0.0000 0.0000
# 3 11.7013 22.5915 62.8608 0.0000 0.0000 0.0000
# 4 0.0000 0.0000 0.0000 24.2433 0.0000 0.0000
# 5 0.0000 0.0000 0.0000 0.0000 26.8275 0.0000
# 6 0.0000 0.0000 0.0000 0.0000 0.0000 20.7350
#
#
#
# Elastic Compliance Matrix: (Units=1/GPa)
#
#
# Indices 1 2 3 4 5 6 
#
# 1 0.014052 -0.005860 -0.000510 0.000000 0.000000 0.000000
# 2 -0.005860 0.013193 -0.003651 0.000000 0.000000 0.000000
# 3 -0.000510 -0.003651 0.017315 0.000000 0.000000 0.000000
# 4 0.000000 0.000000 0.000000 0.041249 0.000000 0.000000
# 5 0.000000 0.000000 0.000000 0.000000 0.037275 0.000000
# 6 0.000000 0.000000 0.000000 0.000000 0.000000 0.048228
#
#
# Mechanical properties :
#
#
# Convention : Reuss Voigt Hill
#
# Bulk Modulus (GPa) = 40.78305 45.34471 43.06388
# Shear Modulus (GPa) = 25.05942 26.11006 25.58474
#
# Velocity S-wave (km/s) = 3.64008 3.71561 3.67804
# Velocity P-wave (km/s) = 6.26347 6.51028 6.38806
#
# Compressibility (1/GPa) = 0.02451999
#
# Stress axis : x y z
#
# Youngs Moduli (GPa) = 71.16176 75.79833 57.75312
#
# Poissons Ratio (x) = 0.44416 0.02945
# Poissons Ratio (y) = 0.41699 0.21083
# Poissons Ratio (z) = 0.03629 0.27671
#
# Static dielectric constant tensor:
#      x y z
#    x 1.693930 0.000000 0.000000 
#    y 0.000000 1.693800 0.000000 
#    z 0.000000 0.000000 1.639900 
# 
# From -- ./inp_files/52908.got.cif
#   From: 2010.05.17/outbox.cif.g08.bks.cpg/sg74_27_cif.got.tgz:52908.got - 2010.06.03 17:57:02.
