data_PCOD9535971
_publ_section_title
;
Structure prediction by ZEFSAII (Michael W. Deem and Ramdas Pophale) SiO2 
 PCOD9535971
Probable space group: I M M A
;
_chemical_formula_sum "Si O2"
_cell_formula_units_Z 80
_cell_length_a 14.288438
_cell_length_b 24.535386
_cell_length_c 10.146694
_cell_angle_alpha 90.000000
_cell_angle_beta 90.000000
_cell_angle_gamma 90.000000
_cell_volume 3557.150276
_symmetry_space_group_name_H-M "I M M A"
_symmetry_group_IT_number 74
_symmetry_cell_setting 'orthorhombic'
loop_
_space_group_symop_operation_xyz
x,y,z
-x,1/2-y,z
x,-y,-z
-x,1/2+y,-z
-x,-y,-z
x,1/2+y,-z
-x,y,z
x,1/2-y,z
1/2+x,1/2+y,1/2+z
1/2-x,-y,1/2+z
1/2+x,1/2-y,1/2-z
1/2-x,y,1/2-z
1/2-x,1/2-y,1/2-z
1/2+x,y,1/2-z
1/2-x,1/2+y,1/2+z
1/2+x,-y,1/2+z
loop_
_atom_site_type_symbol
_atom_site_label
_atom_site_fract_x
_atom_site_fract_y
_atom_site_fract_z
Si Si1 0.192644 0.635149 0.459457
Si Si2 0.324899 0.977276 0.136180
Si Si3 0.887208 0.750000 0.504766
Si Si4 0.898786 0.911703 0.704874
Si Si5 0.391694 0.858604 0.525197
Si Si6 0.111978 0.750000 0.808719
O O1 0.142894 0.584423 0.387337
O O2 0.151308 0.694790 0.439151
O O3 0.175405 0.619509 0.613975
O O4 0.303747 0.632716 0.429775
O O5 0.250000 0.978140 0.250000
O O6 0.397225 0.024793 0.170026
O O7 0.281296 0.000000 0.000000
O O8 0.852401 0.750000 0.658577
O O9 0.000000 0.750000 0.501631
O O10 0.887633 0.903830 0.859968
O O11 0.000000 0.886714 0.670520
O O12 0.500000 0.855747 0.476726
O O13 0.367463 0.803154 0.604989
O O14 0.000000 0.750000 0.793350
#
# Coordination Sequence:
#
# PCOD9535971 Si02
#       6
#    16  16   8  16  16   8
#     4  11  21  33  55  80 116 159 192 242 293 351
#     4  10  22  40  61  86 117 155 200 245 297 353
#     4  11  21  33  53  88 121 154 198 246 294 348
#     4  10  19  32  54  84 115 150 193 244 297 350
#     4  10  19  32  52  83 119 156 196 240 295 352
#     4   9  17  29  49  80 118 150 186 235 287 341
#
# _framework density 22.489912
#
# number of rings (size 3 to 8) (size 9 to 14) (size 15 to 20)
#    0.000    1.800    2.000    4.200    0.000    5.200 
#    0.000    1.500    0.000    8.400    0.000    1.400 
#    0.000    0.000    0.000    0.000    0.000    0.000 
#
# Total GULP energy -223235.105782 kJ/mol
# GULP energy per Si atom -5580.877645 kJ/mol
# Density = 2.243872 g / cm^3
# Si number density = 22.489912 Si / 1000 Ang^3
#
#
#
# Elastic Constant Matrix: (Units=GPa)
#
#
# Indices 1 2 3 4 5 6 
#
# 1 108.6474 28.8724 -5.6575 -0.0002 0.0000 0.0001
# 2 28.8724 172.9307 16.1491 -0.0005 0.0000 0.0001
# 3 -5.6575 16.1491 22.2401 -0.0021 -0.0001 0.0004
# 4 -0.0002 -0.0005 -0.0021 10.4051 0.0000 0.0001
# 5 0.0000 0.0000 -0.0001 0.0000 6.7495 0.0000
# 6 0.0001 0.0001 0.0004 0.0001 0.0000 19.7715
#
#
#
# Elastic Compliance Matrix: (Units=1/GPa)
#
#
# Indices 1 2 3 4 5 6 
#
# 1 0.009954 -0.002036 0.004011 0.000001 0.000000 0.000000
# 2 -0.002036 0.006620 -0.005325 -0.000001 0.000000 0.000000
# 3 0.004011 -0.005325 0.049851 0.000010 0.000001 -0.000001
# 4 0.000001 -0.000001 0.000010 0.096107 0.000000 -0.000001
# 5 0.000000 0.000000 0.000001 0.000000 0.148160 0.000000
# 6 0.000000 0.000000 -0.000001 -0.000001 0.000000 0.050578
#
#
# Mechanical properties :
#
#
# Convention : Reuss Voigt Hill
#
# Bulk Modulus (GPa) = 16.74377 42.50513 29.62445
# Shear Modulus (GPa) = 12.89063 25.01548 18.95306
#
# Velocity S-wave (km/s) = 2.39670 3.33873 2.90614
# Velocity P-wave (km/s) = 3.88846 5.81408 4.94589
#
# Compressibility (1/GPa) = 0.05972370
#
# Stress axis : x y z
#
# Youngs Moduli (GPa) = 100.46083 151.05878 20.05990
#
# Poissons Ratio (x) = 0.30763 -0.08046
# Poissons Ratio (y) = 0.20459 0.10682
# Poissons Ratio (z) = -0.40294 0.80438
#
# Static dielectric constant tensor:
#      x y z
#    x 1.828750 0.000000 0.000000 
#    y 0.000000 1.861830 0.000000 
#    z 0.000000 0.000000 1.846870 
# 
# From -- ./inp_files/20532.got.cif
#   From: 2010.05.17/outbox.cif.g08.bks.cpg/sg74_11_cif.got.tgz:20532.got - 2010.06.03 17:57:02.
