data_PCOD9535912
_publ_section_title
;
Structure prediction by ZEFSAII (Michael W. Deem and Ramdas Pophale) SiO2 
 PCOD9535912
Probable space group: I M M A
;
_chemical_formula_sum "Si O2"
_cell_formula_units_Z 80
_cell_length_a 24.982057
_cell_length_b 11.009518
_cell_length_c 13.071891
_cell_angle_alpha 90.000000
_cell_angle_beta 90.000000
_cell_angle_gamma 90.000000
_cell_volume 3595.298211
_symmetry_space_group_name_H-M "I M M A"
_symmetry_group_IT_number 74
_symmetry_cell_setting 'orthorhombic'
loop_
_space_group_symop_operation_xyz
x,y,z
-x,1/2-y,z
x,-y,-z
-x,1/2+y,-z
-x,-y,-z
x,1/2+y,-z
-x,y,z
x,1/2-y,z
1/2+x,1/2+y,1/2+z
1/2-x,-y,1/2+z
1/2+x,1/2-y,1/2-z
1/2-x,y,1/2-z
1/2-x,1/2-y,1/2-z
1/2+x,y,1/2-z
1/2-x,1/2+y,1/2+z
1/2+x,-y,1/2+z
loop_
_atom_site_type_symbol
_atom_site_label
_atom_site_fract_x
_atom_site_fract_y
_atom_site_fract_z
Si Si1 0.160744 0.611704 0.579018
Si Si2 0.825038 0.878692 0.094062
Si Si3 0.558013 0.884829 0.380033
Si Si4 0.279998 0.118215 0.368855
Si Si5 0.060245 0.113945 0.270715
O O1 0.161389 0.500000 0.500000
O O2 0.160593 0.750000 0.533926
O O3 0.216451 0.605289 0.642367
O O4 0.108019 0.601913 0.648640
O O5 0.817340 0.750000 0.148855
O O6 0.886847 0.885091 0.058330
O O7 0.810510 0.995710 0.159610
O O8 0.789992 0.876809 0.991833
O O9 0.500000 0.890060 0.433497
O O10 0.558617 0.750000 0.328071
O O11 0.561856 0.000521 0.306338
O O12 0.298743 0.250000 0.330671
O O13 0.065467 0.250000 0.222770
O O14 0.000000 0.110280 0.316954
#
# Coordination Sequence:
#
# PCOD9535912 Si02
#       5
#    16  16  16  16  16
#     4  10  19  32  52  74  98 129 162 200 244 288
#     4   9  16  29  50  72  95 127 162 199 241 285
#     4   9  18  33  52  73  98 128 162 201 244 288
#     4   9  17  30  48  70  97 129 162 197 240 287
#     4   9  19  35  52  72  99 129 163 202 242 287
#
# _framework density 22.251283999999998
#
# number of rings (size 3 to 8) (size 9 to 14) (size 15 to 20)
#    0.000    2.800    2.000    0.000    0.000    2.000 
#    0.000    3.000    0.000    7.200    0.000    0.000 
#    0.000    0.000    0.000    0.000    0.000    0.000 
#
# Total GULP energy -222863.297025 kJ/mol
# GULP energy per Si atom -5571.582426 kJ/mol
# Density = 2.220064 g / cm^3
# Si number density = 22.251284 Si / 1000 Ang^3
#
#
#
# Elastic Constant Matrix: (Units=GPa)
#
#
# Indices 1 2 3 4 5 6 
#
# 1 150.4849 37.6374 6.8363 0.0000 0.0000 0.0000
# 2 37.6374 248.9234 32.9158 0.0000 0.0000 0.0000
# 3 6.8363 32.9158 17.1954 0.0000 0.0000 0.0000
# 4 0.0000 0.0000 0.0000 29.1816 0.0000 0.0000
# 5 0.0000 0.0000 0.0000 0.0000 20.3484 0.0000
# 6 0.0000 0.0000 0.0000 0.0000 0.0000 35.4486
#
#
#
# Elastic Compliance Matrix: (Units=1/GPa)
#
#
# Indices 1 2 3 4 5 6 
#
# 1 0.006919 -0.000914 -0.001002 0.000000 0.000000 0.000000
# 2 -0.000914 0.005499 -0.010164 0.000000 0.000000 0.000000
# 3 -0.001002 -0.010164 0.078009 0.000000 0.000000 0.000000
# 4 0.000000 0.000000 0.000000 0.034268 0.000000 0.000000
# 5 0.000000 0.000000 0.000000 0.000000 0.049144 0.000000
# 6 0.000000 0.000000 0.000000 0.000000 0.000000 0.028210
#
#
# Mechanical properties :
#
#
# Convention : Reuss Voigt Hill
#
# Bulk Modulus (GPa) = 15.08998 63.48696 39.28847
# Shear Modulus (GPa) = 20.13707 39.61001 29.87354
#
# Velocity S-wave (km/s) = 3.01156 4.22373 3.66806
# Velocity P-wave (km/s) = 4.34615 7.23742 5.96947
#
# Compressibility (1/GPa) = 0.06626914
#
# Stress axis : x y z
#
# Youngs Moduli (GPa) = 144.52486 181.83614 12.81899
#
# Poissons Ratio (x) = 0.16615 0.01284
# Poissons Ratio (y) = 0.13206 0.13029
# Poissons Ratio (z) = 0.14478 1.84817
#
# Static dielectric constant tensor:
#      x y z
#    x 1.833220 0.000000 0.000000 
#    y 0.000000 1.911730 0.000000 
#    z 0.000000 0.000000 1.797360 
# 
# From -- ./inp_files/36165.got.cif
#   From: 2010.05.17/outbox.cif.g08.bks.cpg/sg74_19_cif.got.tgz:36165.got - 2010.06.03 17:57:02.
