data_PCOD9535715
_publ_section_title
;
Structure prediction by ZEFSAII (Michael W. Deem and Ramdas Pophale) SiO2 
 PCOD9535715
Probable space group: I M M A
;
_chemical_formula_sum "Si O2"
_cell_formula_units_Z 104
_cell_length_a 8.684616
_cell_length_b 20.222038
_cell_length_c 34.074229
_cell_angle_alpha 90.000000
_cell_angle_beta 90.000000
_cell_angle_gamma 90.000000
_cell_volume 5984.137726
_symmetry_space_group_name_H-M "I M M A"
_symmetry_group_IT_number 74
_symmetry_cell_setting 'orthorhombic'
loop_
_space_group_symop_operation_xyz
x,y,z
-x,1/2-y,z
x,-y,-z
-x,1/2+y,-z
-x,-y,-z
x,1/2+y,-z
-x,y,z
x,1/2-y,z
1/2+x,1/2+y,1/2+z
1/2-x,-y,1/2+z
1/2+x,1/2-y,1/2-z
1/2-x,y,1/2-z
1/2-x,1/2-y,1/2-z
1/2+x,y,1/2-z
1/2-x,1/2+y,1/2+z
1/2+x,-y,1/2+z
loop_
_atom_site_type_symbol
_atom_site_label
_atom_site_fract_x
_atom_site_fract_y
_atom_site_fract_z
Si Si1 0.685460 0.422678 0.626830
Si Si2 0.182905 0.062373 0.088897
Si Si3 0.813873 0.326044 0.940411
Si Si4 0.185061 0.750000 0.706872
Si Si5 0.183670 0.575950 0.506191
Si Si6 0.314140 0.112652 0.168362
Si Si7 0.683847 0.474035 0.792765
O O1 0.500000 0.423595 0.630809
O O2 0.728828 0.486913 0.600412
O O3 0.731673 0.359184 0.601207
O O4 0.755698 0.431658 0.670078
O O5 0.231390 0.102483 0.127158
O O6 0.000000 0.063343 0.082547
O O7 0.267097 0.089738 0.050725
O O8 0.762382 0.250000 0.944115
O O9 0.754552 0.373100 0.975218
O O10 0.000000 0.326909 0.941710
O O11 0.250000 0.750000 0.750000
O O12 0.232941 0.817544 0.686064
O O13 0.000000 0.750000 0.707994
O O14 0.237756 0.500000 0.500000
O O15 0.000000 0.577431 0.501988
O O16 0.500000 0.111107 0.163084
O O17 0.273982 0.050100 0.196017
O O18 0.500000 0.469306 0.791394
O O19 0.750000 0.456911 0.750000
#
# Coordination Sequence:
#
# PCOD9535715 Si02
#       7
#    16  16  16   8  16  16  16
#     4   9  18  33  54  79 106 136 170 213 266 318
#     4  10  19  33  55  78 102 136 178 224 269 315
#     4  10  21  38  59  83 111 143 181 225 273 326
#     4  10  20  34  52  72 100 140 180 222 270 322
#     4  11  22  35  56  83 112 146 183 224 268 320
#     4   9  19  34  50  72 103 138 176 220 271 324
#     4  10  19  31  51  78 106 134 170 218 266 317
#
# _framework density 17.379279
#
# number of rings (size 3 to 8) (size 9 to 14) (size 15 to 20)
#    0.000    2.154    1.538    1.846    0.000    3.385 
#    1.385    0.000    0.000    0.462    0.000    0.000 
#    0.000    0.000    0.000    0.000    0.000    0.000 
#
# Total GULP energy -290091.341368 kJ/mol
# GULP energy per Si atom -5578.679642 kJ/mol
# Density = 1.733972 g / cm^3
# Si number density = 17.379279 Si / 1000 Ang^3
#
#
#
# Elastic Constant Matrix: (Units=GPa)
#
#
# Indices 1 2 3 4 5 6 
#
# 1 16.9392 30.4066 31.3491 0.0000 0.0000 0.0000
# 2 30.4066 126.1733 76.5483 0.0000 0.0000 0.0000
# 3 31.3491 76.5483 145.9894 0.0000 0.0000 0.0000
# 4 0.0000 0.0000 0.0000 21.9071 0.0000 0.0000
# 5 0.0000 0.0000 0.0000 0.0000 30.1742 0.0000
# 6 0.0000 0.0000 0.0000 0.0000 0.0000 18.1888
#
#
#
# Elastic Compliance Matrix: (Units=1/GPa)
#
#
# Indices 1 2 3 4 5 6 
#
# 1 0.125955 -0.020450 -0.016324 0.000000 0.000000 0.000000
# 2 -0.020450 0.014943 -0.003444 0.000000 0.000000 0.000000
# 3 -0.016324 -0.003444 0.012161 0.000000 0.000000 0.000000
# 4 0.000000 0.000000 0.000000 0.045647 0.000000 0.000000
# 5 0.000000 0.000000 0.000000 0.000000 0.033141 0.000000
# 6 0.000000 0.000000 0.000000 0.000000 0.000000 0.054979
#
#
# Mechanical properties :
#
#
# Convention : Reuss Voigt Hill
#
# Bulk Modulus (GPa) = 13.76985 62.85667 38.31326
# Shear Modulus (GPa) = 12.77235 24.10720 18.43978
#
# Velocity S-wave (km/s) = 2.71388 3.72845 3.26087
# Velocity P-wave (km/s) = 4.21432 7.40143 6.02253
#
# Compressibility (1/GPa) = 0.07262244
#
# Stress axis : x y z
#
# Youngs Moduli (GPa) = 7.93936 66.91908 82.22984
#
# Poissons Ratio (x) = 1.36851 1.34232
# Poissons Ratio (y) = 0.16236 0.28320
# Poissons Ratio (z) = 0.12960 0.23047
#
# Static dielectric constant tensor:
#      x y z
#    x 1.584620 0.000000 0.000000 
#    y 0.000000 1.612420 0.000000 
#    z 0.000000 0.000000 1.572220 
# 
# From -- ./inp_files/70551.got.cif
#   From: 2010.05.17/outbox.cif.g08.bks.cpg/sg74_36_cif.got.tgz:70551.got - 2010.06.03 17:57:02.
