data_PCOD9535622
_publ_section_title
;
Structure prediction by ZEFSAII (Michael W. Deem and Ramdas Pophale) SiO2 
 PCOD9535622
Probable space group: I M M A
;
_chemical_formula_sum "Si O2"
_cell_formula_units_Z 72
_cell_length_a 25.748786
_cell_length_b 27.157134
_cell_length_c 5.234892
_cell_angle_alpha 90.000000
_cell_angle_beta 90.000000
_cell_angle_gamma 90.000000
_cell_volume 3660.567498
_symmetry_space_group_name_H-M "I M M A"
_symmetry_group_IT_number 74
_symmetry_cell_setting 'orthorhombic'
loop_
_space_group_symop_operation_xyz
x,y,z
-x,1/2-y,z
x,-y,-z
-x,1/2+y,-z
-x,-y,-z
x,1/2+y,-z
-x,y,z
x,1/2-y,z
1/2+x,1/2+y,1/2+z
1/2-x,-y,1/2+z
1/2+x,1/2-y,1/2-z
1/2-x,y,1/2-z
1/2-x,1/2-y,1/2-z
1/2+x,y,1/2-z
1/2-x,1/2+y,1/2+z
1/2+x,-y,1/2+z
loop_
_atom_site_type_symbol
_atom_site_label
_atom_site_fract_x
_atom_site_fract_y
_atom_site_fract_z
Si Si1 0.562441 0.867076 0.131927
Si Si2 0.899221 0.441277 0.000180
Si Si3 0.937040 0.806443 0.853905
Si Si4 0.781460 0.560121 0.996191
Si Si5 0.000000 0.464896 0.249874
O O1 0.500000 0.872478 0.115520
O O2 0.584136 0.919336 0.227371
O O3 0.582534 0.838579 0.884276
O O4 0.574092 0.832416 0.377764
O O5 0.840832 0.422580 0.038722
O O6 0.947578 0.433168 0.196917
O O7 0.894003 0.500000 0.000000
O O8 0.919118 0.750000 0.845399
O O9 0.000000 0.805282 0.831154
O O10 0.750000 0.576104 0.750000
O O11 0.782175 0.500000 0.000000
O O12 0.750000 0.575290 0.250000
O O13 0.000000 0.500000 0.500000
O O14 0.000000 0.500000 0.000000
#
# Coordination Sequence:
#
# PCOD9535622 Si02
#       5
#    16  16  16  16   8
#     4  10  19  31  49  74 102 137 174 207 258 319
#     4  10  21  36  52  76 112 146 180 218 258 320
#     4   9  18  32  49  69  98 134 173 217 259 306
#     4   9  19  34  52  70  94 135 184 228 265 296
#     4  10  22  34  48  72 105 150 181 204 254 314
#
# _framework density 19.669080000000001
#
# number of rings (size 3 to 8) (size 9 to 14) (size 15 to 20)
#    0.000    2.444    1.111    0.667    0.000   14.222 
#    0.000    0.000    0.000    0.000    0.000    0.000 
#    0.000   17.778    0.000    0.000    0.000    0.000 
#
# Total GULP energy -200789.900477 kJ/mol
# GULP energy per Si atom -5577.497235 kJ/mol
# Density = 1.962431 g / cm^3
# Si number density = 19.669080 Si / 1000 Ang^3
#
#
#
# Elastic Constant Matrix: (Units=GPa)
#
#
# Indices 1 2 3 4 5 6 
#
# 1 139.6068 -0.7337 54.0049 0.0000 0.0000 0.0000
# 2 -0.7337 83.4990 20.6864 0.0000 0.0000 0.0000
# 3 54.0049 20.6864 128.7048 0.0000 0.0000 0.0000
# 4 0.0000 0.0000 0.0000 20.8639 0.0000 0.0000
# 5 0.0000 0.0000 0.0000 0.0000 14.3820 0.0000
# 6 0.0000 0.0000 0.0000 0.0000 0.0000 2.4019
#
#
#
# Elastic Compliance Matrix: (Units=1/GPa)
#
#
# Indices 1 2 3 4 5 6 
#
# 1 0.008633 0.001014 -0.003785 0.000000 0.000000 0.000000
# 2 0.001014 0.012592 -0.002449 0.000000 0.000000 0.000000
# 3 -0.003785 -0.002449 0.009752 0.000000 0.000000 0.000000
# 4 0.000000 0.000000 0.000000 0.047930 0.000000 0.000000
# 5 0.000000 0.000000 0.000000 0.000000 0.069532 0.000000
# 6 0.000000 0.000000 0.000000 0.000000 0.000000 0.416332
#
#
# Mechanical properties :
#
#
# Convention : Reuss Voigt Hill
#
# Bulk Modulus (GPa) = 48.69830 55.52508 52.11169
# Shear Modulus (GPa) = 8.59025 26.05309 17.32167
#
# Velocity S-wave (km/s) = 2.09210 3.64341 2.97080
# Velocity P-wave (km/s) = 5.53610 6.78161 6.19026
#
# Compressibility (1/GPa) = 0.02053460
#
# Stress axis : x y z
#
# Youngs Moduli (GPa) = 115.84090 79.41634 102.54700
#
# Poissons Ratio (x) = -0.08050 0.38816
# Poissons Ratio (y) = -0.11742 0.25115
# Poissons Ratio (z) = 0.43847 0.19450
#
# Static dielectric constant tensor:
#      x y z
#    x 1.721140 0.000000 0.000000 
#    y 0.000000 1.789500 0.000000 
#    z 0.000000 0.000000 1.793540 
# 
# From -- ./inp_files/3813.got.cif
#   From: 2010.05.17/outbox.cif.g08.bks.cpg/sg74_2_cif.got.tgz:3813.got - 2010.06.03 17:57:02.
