data_PCOD9535371
_publ_section_title
;
Structure prediction by ZEFSAII (Michael W. Deem and Ramdas Pophale) SiO2 
 PCOD9535371
Probable space group: I M M A
;
_chemical_formula_sum "Si O2"
_cell_formula_units_Z 60
_cell_length_a 11.738590
_cell_length_b 10.781000
_cell_length_c 29.823102
_cell_angle_alpha 90.000000
_cell_angle_beta 90.000000
_cell_angle_gamma 90.000000
_cell_volume 3774.225060
_symmetry_space_group_name_H-M "I M M A"
_symmetry_group_IT_number 74
_symmetry_cell_setting 'orthorhombic'
loop_
_space_group_symop_operation_xyz
x,y,z
-x,1/2-y,z
x,-y,-z
-x,1/2+y,-z
-x,-y,-z
x,1/2+y,-z
-x,y,z
x,1/2-y,z
1/2+x,1/2+y,1/2+z
1/2-x,-y,1/2+z
1/2+x,1/2-y,1/2-z
1/2-x,y,1/2-z
1/2-x,1/2-y,1/2-z
1/2+x,y,1/2-z
1/2-x,1/2+y,1/2+z
1/2+x,-y,1/2+z
loop_
_atom_site_type_symbol
_atom_site_label
_atom_site_fract_x
_atom_site_fract_y
_atom_site_fract_z
Si Si1 0.793644 0.891375 0.201362
Si Si2 0.252047 0.750000 0.457380
Si Si3 0.500000 0.750000 0.414042
Si Si4 0.864742 0.750000 0.360746
Si Si5 0.196493 0.500000 0.000000
Si Si6 0.000000 0.009760 0.849783
Si Si7 0.500000 0.608058 0.560458
O O1 0.843258 0.750000 0.207023
O O2 0.750000 0.930172 0.250000
O O3 0.691302 0.865841 0.166277
O O4 0.888286 0.978973 0.180466
O O5 0.385941 0.750000 0.443302
O O6 0.181282 0.750000 0.411348
O O7 0.235216 0.622037 0.484523
O O8 0.500000 0.631358 0.381862
O O9 0.000000 0.750000 0.358564
O O10 0.111226 0.541966 0.960103
O O11 0.000000 0.901560 0.886041
O O12 0.500000 0.750000 0.545546
#
# Coordination Sequence:
#
# PCOD9535371 Si02
#       7
#    16   8   4   8   8   8   8
#     4   9  18  27  46  74 101 128 159 198 257 303
#     4  12  20  33  48  74 101 140 161 208 258 301
#     4  12  14  26  48  70  96 120 154 182 256 302
#     4  10  19  30  45  68 101 137 166 208 248 302
#     4  11  20  30  49  72 106 132 169 207 256 306
#     4  12  17  30  50  71 106 129 156 200 256 307
#     4  11  20  29  46  77 103 131 165 207 255 305
#
# _framework density 15.897304
#
# number of rings (size 3 to 8) (size 9 to 14) (size 15 to 20)
#    0.800    0.533    8.000    0.800    1.867    0.000 
#    0.000    0.667    0.000    0.800    0.000    0.000 
#    0.000    0.000    0.000    0.000    0.000    0.000 
#
# Total GULP energy -167126.642934 kJ/mol
# GULP energy per Si atom -5570.888098 kJ/mol
# Density = 1.586112 g / cm^3
# Si number density = 15.897304 Si / 1000 Ang^3
#
#
#
# Elastic Constant Matrix: (Units=GPa)
#
#
# Indices 1 2 3 4 5 6 
#
# 1 93.7144 13.5695 51.9050 0.0000 0.0000 0.0000
# 2 13.5695 75.6860 32.4854 0.0000 0.0000 0.0000
# 3 51.9050 32.4854 122.7004 0.0000 0.0000 0.0000
# 4 0.0000 0.0000 0.0000 19.3975 0.0000 0.0000
# 5 0.0000 0.0000 0.0000 0.0000 -21.4050 0.0000
# 6 0.0000 0.0000 0.0000 0.0000 0.0000 1.7156
#
#
#
# Elastic Compliance Matrix: (Units=1/GPa)
#
#
# Indices 1 2 3 4 5 6 
#
# 1 0.013936 0.000036 -0.005905 0.000000 0.000000 0.000000
# 2 0.000036 0.014906 -0.003962 0.000000 0.000000 0.000000
# 3 -0.005905 -0.003962 0.011697 0.000000 0.000000 0.000000
# 4 0.000000 0.000000 0.000000 0.051553 0.000000 0.000000
# 5 0.000000 0.000000 0.000000 0.000000 -0.046718 0.000000
# 6 0.000000 0.000000 0.000000 0.000000 0.000000 0.582900
#
#
# Mechanical properties :
#
#
# Convention : Reuss Voigt Hill
#
# Bulk Modulus (GPa) = 47.89753 54.22452 51.06102
# Shear Modulus (GPa) = 7.63482 12.88434 10.25958
#
# Velocity S-wave (km/s) = 2.19386 2.84997 2.54316
# Velocity P-wave (km/s) = 6.05079 6.70918 6.38847
#
# Compressibility (1/GPa) = 0.02087790
#
# Stress axis : x y z
#
# Youngs Moduli (GPa) = 71.75699 67.08496 85.49472
#
# Poissons Ratio (x) = -0.00240 0.50482
# Poissons Ratio (y) = -0.00257 0.33871
# Poissons Ratio (z) = 0.42370 0.26577
#
# Static dielectric constant tensor:
#      x y z
#    x 1.518340 0.000000 0.000000 
#    y 0.000000 1.545130 0.000000 
#    z 0.000000 0.000000 1.549090 
# 
# From -- ./inp_files/65668.got.cif
#   From: 2010.05.17/outbox.cif.g08.bks.cpg/sg74_33_cif.got.tgz:65668.got - 2010.06.03 17:57:02.
