data_PCOD9535215
_publ_section_title
;
Structure prediction by ZEFSAII (Michael W. Deem and Ramdas Pophale) SiO2 
 PCOD9535215
Probable space group: I M M A
;
_chemical_formula_sum "Si O2"
_cell_formula_units_Z 112
_cell_length_a 15.327104
_cell_length_b 26.877132
_cell_length_c 16.431016
_cell_angle_alpha 90.000000
_cell_angle_beta 90.000000
_cell_angle_gamma 90.000000
_cell_volume 6768.733995
_symmetry_space_group_name_H-M "I M M A"
_symmetry_group_IT_number 74
_symmetry_cell_setting 'orthorhombic'
loop_
_space_group_symop_operation_xyz
x,y,z
-x,1/2-y,z
x,-y,-z
-x,1/2+y,-z
-x,-y,-z
x,1/2+y,-z
-x,y,z
x,1/2-y,z
1/2+x,1/2+y,1/2+z
1/2-x,-y,1/2+z
1/2+x,1/2-y,1/2-z
1/2-x,y,1/2-z
1/2-x,1/2-y,1/2-z
1/2+x,y,1/2-z
1/2-x,1/2+y,1/2+z
1/2+x,-y,1/2+z
loop_
_atom_site_type_symbol
_atom_site_label
_atom_site_fract_x
_atom_site_fract_y
_atom_site_fract_z
Si Si1 0.851250 0.808441 0.274149
Si Si2 0.594039 0.507574 0.097091
Si Si3 0.729415 0.025559 0.660229
Si Si4 0.097462 0.690993 0.095052
Si Si5 0.597174 0.123103 0.925609
Si Si6 0.600219 0.961346 0.576558
Si Si7 0.280006 0.890152 0.478925
O O1 0.866423 0.750000 0.291406
O O2 0.750000 0.814685 0.250000
O O3 0.900448 0.821950 0.190964
O O4 0.877995 0.840575 0.351596
O O5 0.500000 0.486790 0.124607
O O6 0.686272 0.492499 0.134362
O O7 0.592201 0.567078 0.109542
O O8 0.599195 0.500000 0.000000
O O9 0.750000 0.044289 0.750000
O O10 0.719462 0.070700 0.596730
O O11 0.643691 0.991860 0.650381
O O12 0.115564 0.750000 0.089770
O O13 0.168479 0.658582 0.049074
O O14 0.000000 0.681093 0.063590
O O15 0.500000 0.134858 0.957389
O O16 0.677460 0.121981 0.989269
O O17 0.500000 0.946338 0.590334
O O18 0.665319 0.917308 0.549415
O O19 0.600201 0.000000 0.500000
#
# Coordination Sequence:
#
# PCOD9535215 Si02
#       7
#    16  16  16  16  16  16  16
#     4  10  19  31  43  58  88 126 160 201 246 278
#     4   9  18  32  46  61  85 116 151 189 234 283
#     4  10  20  30  46  69  93 116 152 196 238 279
#     4  10  20  31  44  63  88 122 164 205 242 278
#     4  10  19  28  43  62  81 112 154 194 235 281
#     4   9  18  34  50  67  90 123 159 193 237 288
#     4  10  19  31  49  64  91 126 159 194 237 286
#
# _framework density 16.546669000000001
#
# number of rings (size 3 to 8) (size 9 to 14) (size 15 to 20)
#    0.000    2.286    1.429    3.000    4.000    2.000 
#    0.000    0.000    0.000    0.000    0.000    0.000 
#    0.000    0.571    0.000    0.286    0.000   16.714 
#
# Total GULP energy -311919.025084 kJ/mol
# GULP energy per Si atom -5569.982591 kJ/mol
# Density = 1.650901 g / cm^3
# Si number density = 16.546669 Si / 1000 Ang^3
#
#
#
# Elastic Constant Matrix: (Units=GPa)
#
#
# Indices 1 2 3 4 5 6 
#
# 1 121.3012 21.5506 -0.4944 0.0000 0.0000 0.0000
# 2 21.5506 37.8181 6.2878 0.0002 0.0000 0.0000
# 3 -0.4944 6.2878 13.8201 0.0001 -0.0001 0.0000
# 4 0.0000 0.0002 0.0001 20.3538 -0.0001 0.0000
# 5 0.0000 0.0000 -0.0001 -0.0001 10.8949 0.0000
# 6 0.0000 0.0000 0.0000 0.0000 0.0000 45.9796
#
#
#
# Elastic Compliance Matrix: (Units=1/GPa)
#
#
# Indices 1 2 3 4 5 6 
#
# 1 0.009283 -0.005783 0.002963 0.000000 0.000000 0.000000
# 2 -0.005783 0.032208 -0.014861 0.000000 0.000000 0.000000
# 3 0.002963 -0.014861 0.079226 0.000000 0.000000 0.000000
# 4 0.000000 0.000000 0.000000 0.049131 0.000000 0.000000
# 5 0.000000 0.000000 0.000000 0.000000 0.091786 0.000000
# 6 0.000000 0.000000 0.000000 0.000000 0.000000 0.021749
#
#
# Mechanical properties :
#
#
# Convention : Reuss Voigt Hill
#
# Bulk Modulus (GPa) = 11.71555 25.29194 18.50375
# Shear Modulus (GPa) = 14.40105 25.15201 19.77653
#
# Velocity S-wave (km/s) = 2.95333 3.90303 3.46091
# Velocity P-wave (km/s) = 4.32727 5.96908 5.21321
#
# Compressibility (1/GPa) = 0.08535662
#
# Stress axis : x y z
#
# Youngs Moduli (GPa) = 107.71914 31.04771 12.62214
#
# Poissons Ratio (x) = 0.17954 -0.03740
# Poissons Ratio (y) = 0.62292 0.18758
# Poissons Ratio (z) = -0.31918 0.46140
#
# Static dielectric constant tensor:
#      x y z
#    x 1.658820 0.000000 0.000000 
#    y 0.000000 1.556180 0.000000 
#    z 0.000000 0.000000 1.548340 
# 
# From -- ./inp_files/32876.got.cif
#   From: 2010.05.17/outbox.cif.g08.bks.cpg/sg74_17_cif.got.tgz:32876.got - 2010.06.03 17:57:02.
