data_PCOD9535618
_publ_section_title
;
Structure prediction by ZEFSAII (Michael W. Deem and Ramdas Pophale) SiO2 
 PCOD9535618
Probable space group: I M M A
;
_chemical_formula_sum "Si O2"
_cell_formula_units_Z 96
_cell_length_a 27.529283
_cell_length_b 8.694870
_cell_length_c 23.138835
_cell_angle_alpha 90.000000
_cell_angle_beta 90.000000
_cell_angle_gamma 90.000000
_cell_volume 5538.593385
_symmetry_space_group_name_H-M "I M M A"
_symmetry_group_IT_number 74
_symmetry_cell_setting 'orthorhombic'
loop_
_space_group_symop_operation_xyz
x,y,z
-x,1/2-y,z
x,-y,-z
-x,1/2+y,-z
-x,-y,-z
x,1/2+y,-z
-x,y,z
x,1/2-y,z
1/2+x,1/2+y,1/2+z
1/2-x,-y,1/2+z
1/2+x,1/2-y,1/2-z
1/2-x,y,1/2-z
1/2-x,1/2-y,1/2-z
1/2+x,y,1/2-z
1/2-x,1/2+y,1/2+z
1/2+x,-y,1/2+z
loop_
_atom_site_type_symbol
_atom_site_label
_atom_site_fract_x
_atom_site_fract_y
_atom_site_fract_z
Si Si1 0.185701 0.567262 0.935577
Si Si2 0.943477 0.064417 0.733934
Si Si3 0.710622 0.066184 0.935280
Si Si4 0.123031 0.073072 0.839758
Si Si5 0.868315 0.575915 0.647872
Si Si6 0.694615 0.920563 0.736805
O O1 0.189305 0.750000 0.938315
O O2 0.237822 0.502509 0.912473
O O3 0.139708 0.516693 0.896798
O O4 0.180464 0.500000 0.000000
O O5 0.938874 0.250000 0.733058
O O6 0.918040 0.013333 0.794659
O O7 0.000000 0.022815 0.733492
O O8 0.915607 0.999778 0.677643
O O9 0.714533 0.250000 0.936281
O O10 0.663228 0.015068 0.899270
O O11 0.705890 0.000000 0.000000
O O12 0.112678 0.250000 0.853813
O O13 0.170980 0.053383 0.800550
O O14 0.878626 0.750000 0.627634
O O15 0.832749 0.584919 0.702759
O O16 0.688317 0.750000 0.708653
O O17 0.750000 0.945266 0.750000
#
# Coordination Sequence:
#
# PCOD9535618 Si02
#       6
#    16  16  16  16  16  16
#     4  11  21  34  51  73 104 139 174 209 247 295
#     4   9  19  36  56  77 102 133 169 212 262 311
#     4  11  21  34  52  75 105 140 176 209 245 294
#     4  10  19  31  49  73  99 129 167 208 252 302
#     4  10  19  31  49  75 104 133 168 209 253 301
#     4   9  17  28  43  65  96 131 162 197 243 294
#
# _framework density 17.332920999999999
#
# number of rings (size 3 to 8) (size 9 to 14) (size 15 to 20)
#    0.000    2.000    0.000    6.000    0.000    3.333 
#    0.000    0.000    0.000    1.000    0.000    0.000 
#    0.000    0.000    0.000    0.000    0.000    0.000 
#
# Total GULP energy -267462.987431 kJ/mol
# GULP energy per Si atom -5572.145571 kJ/mol
# Density = 1.729347 g / cm^3
# Si number density = 17.332921 Si / 1000 Ang^3
#
#
#
# Elastic Constant Matrix: (Units=GPa)
#
#
# Indices 1 2 3 4 5 6 
#
# 1 93.1172 27.0344 25.4966 0.0000 0.0000 0.0000
# 2 27.0344 94.8158 24.4230 0.0000 0.0000 0.0000
# 3 25.4966 24.4230 57.4865 0.0000 0.0000 0.0000
# 4 0.0000 0.0000 0.0000 27.3450 0.0000 0.0000
# 5 0.0000 0.0000 0.0000 0.0000 24.6503 0.0000
# 6 0.0000 0.0000 0.0000 0.0000 0.0000 14.4844
#
#
#
# Elastic Compliance Matrix: (Units=1/GPa)
#
#
# Indices 1 2 3 4 5 6 
#
# 1 0.012706 -0.002438 -0.004600 0.000000 0.000000 0.000000
# 2 -0.002438 0.012311 -0.004149 0.000000 0.000000 0.000000
# 3 -0.004600 -0.004149 0.021198 0.000000 0.000000 0.000000
# 4 0.000000 0.000000 0.000000 0.036570 0.000000 0.000000
# 5 0.000000 0.000000 0.000000 0.000000 0.040567 0.000000
# 6 0.000000 0.000000 0.000000 0.000000 0.000000 0.069040
#
#
# Mechanical properties :
#
#
# Convention : Reuss Voigt Hill
#
# Bulk Modulus (GPa) = 41.94311 44.36973 43.15642
# Shear Modulus (GPa) = 22.45044 24.52697 23.48871
#
# Velocity S-wave (km/s) = 3.60286 3.76580 3.68523
# Velocity P-wave (km/s) = 6.44659 6.67551 6.56205
#
# Compressibility (1/GPa) = 0.02384182
#
# Stress axis : x y z
#
# Youngs Moduli (GPa) = 78.69993 81.23092 47.17402
#
# Poissons Ratio (x) = 0.19805 0.21699
# Poissons Ratio (y) = 0.19188 0.19571
# Poissons Ratio (z) = 0.36200 0.33701
#
# Static dielectric constant tensor:
#      x y z
#    x 1.599400 0.000000 0.000000 
#    y 0.000000 1.638700 0.000000 
#    z 0.000000 0.000000 1.633270 
# 
# From -- ./inp_files/62258.got.cif
#   From: 2010.05.17/outbox.cif.g08.bks.cpg/sg74_32_cif.got.tgz:62258.got - 2010.06.03 17:57:02.
