data_PCOD9535246
_publ_section_title
;
Structure prediction by ZEFSAII (Michael W. Deem and Ramdas Pophale) SiO2 
 PCOD9535246
Probable space group: I M M A
;
_chemical_formula_sum "Si O2"
_cell_formula_units_Z 96
_cell_length_a 21.317088
_cell_length_b 8.859869
_cell_length_c 22.812657
_cell_angle_alpha 90.000000
_cell_angle_beta 90.000000
_cell_angle_gamma 90.000000
_cell_volume 4308.549127
_symmetry_space_group_name_H-M "I M M A"
_symmetry_group_IT_number 74
_symmetry_cell_setting 'orthorhombic'
loop_
_space_group_symop_operation_xyz
x,y,z
-x,1/2-y,z
x,-y,-z
-x,1/2+y,-z
-x,-y,-z
x,1/2+y,-z
-x,y,z
x,1/2-y,z
1/2+x,1/2+y,1/2+z
1/2-x,-y,1/2+z
1/2+x,1/2-y,1/2-z
1/2-x,y,1/2-z
1/2-x,1/2-y,1/2-z
1/2+x,y,1/2-z
1/2-x,1/2+y,1/2+z
1/2+x,-y,1/2+z
loop_
_atom_site_type_symbol
_atom_site_label
_atom_site_fract_x
_atom_site_fract_y
_atom_site_fract_z
Si Si1 0.924875 0.917740 0.677793
Si Si2 0.930613 0.928073 0.913425
Si Si3 0.092393 0.082751 0.797820
Si Si4 0.239376 0.919650 0.185856
Si Si5 0.794260 0.932374 0.061255
Si Si6 0.576924 0.422555 0.939700
O O1 0.899416 0.750000 0.688687
O O2 0.000000 0.906453 0.672478
O O3 0.913206 0.027075 0.731834
O O4 0.901488 0.986776 0.617169
O O5 0.923123 0.750000 0.924806
O O6 0.000000 0.976232 0.935540
O O7 0.932884 0.961988 0.843802
O O8 0.867647 0.013734 0.934108
O O9 0.065530 0.250000 0.805845
O O10 0.164941 0.096333 0.812395
O O11 0.268922 0.750000 0.188210
O O12 0.250000 0.995514 0.250000
O O13 0.245349 0.982863 0.119492
O O14 0.793024 0.750000 0.060573
O O15 0.770180 0.000000 0.000000
O O16 0.500000 0.422080 0.939085
O O17 0.597776 0.250000 0.936903
O O18 0.596202 0.500000 0.000000
#
# Coordination Sequence:
#
# PCOD9535246 Si02
#       6
#    16  16  16  16  16  16
#     4  10  19  29  42  62  91 127 162 197 240 291
#     4  10  20  33  49  71 104 145 182 216 255 301
#     4  10  19  30  48  73  98 127 165 209 255 304
#     4   8  16  33  56  79 100 127 167 212 260 312
#     4  10  20  34  55  81 109 141 176 219 266 315
#     4   9  16  26  40  58  81 111 150 194 237 284
#
# _framework density 22.281282999999998
#
# number of rings (size 3 to 8) (size 9 to 14) (size 15 to 20)
#    0.000    2.500    0.000    4.000    0.000    6.667 
#    0.000    0.000    0.000   19.000    0.000    2.333 
#    0.000    0.000    0.000    0.000    0.000    0.000 
#
# Total GULP energy -267527.618201 kJ/mol
# GULP energy per Si atom -5573.492046 kJ/mol
# Density = 2.223057 g / cm^3
# Si number density = 22.281283 Si / 1000 Ang^3
#
#
#
# Elastic Constant Matrix: (Units=GPa)
#
#
# Indices 1 2 3 4 5 6 
#
# 1 36.9371 3.5947 4.0079 0.0000 0.0000 0.0000
# 2 3.5947 62.5973 16.9941 0.0000 0.0000 0.0000
# 3 4.0079 16.9941 185.8207 0.0000 0.0000 0.0000
# 4 0.0000 0.0000 0.0000 34.6376 0.0000 0.0000
# 5 0.0000 0.0000 0.0000 0.0000 13.4369 0.0000
# 6 0.0000 0.0000 0.0000 0.0000 0.0000 5.2006
#
#
#
# Elastic Compliance Matrix: (Units=1/GPa)
#
#
# Indices 1 2 3 4 5 6 
#
# 1 0.027263 -0.001442 -0.000456 0.000000 0.000000 0.000000
# 2 -0.001442 0.016458 -0.001474 0.000000 0.000000 0.000000
# 3 -0.000456 -0.001474 0.005526 0.000000 0.000000 0.000000
# 4 0.000000 0.000000 0.000000 0.028870 0.000000 0.000000
# 5 0.000000 0.000000 0.000000 0.000000 0.074422 0.000000
# 6 0.000000 0.000000 0.000000 0.000000 0.000000 0.192285
#
#
# Mechanical properties :
#
#
# Convention : Reuss Voigt Hill
#
# Bulk Modulus (GPa) = 23.52766 37.17207 30.34987
# Shear Modulus (GPa) = 13.67107 28.03892 20.85499
#
# Velocity S-wave (km/s) = 2.47972 3.55125 3.06271
# Velocity P-wave (km/s) = 4.33370 5.79090 5.11446
#
# Compressibility (1/GPa) = 0.04250316
#
# Stress axis : x y z
#
# Youngs Moduli (GPa) = 36.67996 60.76031 180.95684
#
# Poissons Ratio (x) = 0.08760 0.08255
# Poissons Ratio (y) = 0.05288 0.26674
# Poissons Ratio (z) = 0.01673 0.08956
#
# Static dielectric constant tensor:
#      x y z
#    x 1.881190 0.000000 0.000000 
#    y 0.000000 1.777910 0.000000 
#    z 0.000000 0.000000 1.897570 
# 
# From -- ./inp_files/55074.got.cif
#   From: 2010.05.17/outbox.cif.g08.bks.cpg/sg74_28_cif.got.tgz:55074.got - 2010.06.03 17:57:02.
