data_PCOD9535238
_publ_section_title
;
Structure prediction by ZEFSAII (Michael W. Deem and Ramdas Pophale) SiO2 
 PCOD9535238
Probable space group: I M M A
;
_chemical_formula_sum "Si O2"
_cell_formula_units_Z 96
_cell_length_a 8.475009
_cell_length_b 25.718644
_cell_length_c 26.193877
_cell_angle_alpha 90.000000
_cell_angle_beta 90.000000
_cell_angle_gamma 90.000000
_cell_volume 5709.367767
_symmetry_space_group_name_H-M "I M M A"
_symmetry_group_IT_number 74
_symmetry_cell_setting 'orthorhombic'
loop_
_space_group_symop_operation_xyz
x,y,z
-x,1/2-y,z
x,-y,-z
-x,1/2+y,-z
-x,-y,-z
x,1/2+y,-z
-x,y,z
x,1/2-y,z
1/2+x,1/2+y,1/2+z
1/2-x,-y,1/2+z
1/2+x,1/2-y,1/2-z
1/2-x,y,1/2-z
1/2-x,1/2-y,1/2-z
1/2+x,y,1/2-z
1/2-x,1/2+y,1/2+z
1/2+x,-y,1/2+z
loop_
_atom_site_type_symbol
_atom_site_label
_atom_site_fract_x
_atom_site_fract_y
_atom_site_fract_z
Si Si1 0.180624 0.308395 0.604203
Si Si2 0.188505 0.008356 0.919235
Si Si3 0.811998 0.121204 0.699627
Si Si4 0.186555 0.078977 0.495221
Si Si5 0.683553 0.808280 0.504662
Si Si6 0.315493 0.993938 0.304347
O O1 0.180849 0.250000 0.625328
O O2 0.219190 0.347678 0.648520
O O3 0.295593 0.309580 0.556489
O O4 0.000000 0.318833 0.585514
O O5 0.000000 0.016094 0.916842
O O6 0.260951 0.059081 0.948004
O O7 0.247320 0.994613 0.861816
O O8 0.228999 0.960303 0.956169
O O9 0.750000 0.149993 0.750000
O O10 0.716763 0.067661 0.698050
O O11 0.000000 0.111313 0.703146
O O12 0.230309 0.138181 0.480808
O O13 0.000000 0.071662 0.491900
O O14 0.500000 0.811699 0.518770
O O15 0.742258 0.750000 0.520494
O O16 0.500000 0.005774 0.304429
O O17 0.250000 0.015172 0.250000
#
# Coordination Sequence:
#
# PCOD9535238 Si02
#       6
#    16  16  16  16  16  16
#     4   9  18  31  44  59  80 108 145 189 234 276
#     4  10  20  34  51  72  99 129 161 198 239 285
#     4  10  19  29  42  58  79 109 145 187 231 274
#     4  11  21  32  50  74  99 129 161 197 241 285
#     4  10  20  33  49  68  91 121 155 191 232 279
#     4  10  20  32  48  67  89 119 152 189 231 275
#
# _framework density 16.81447
#
# number of rings (size 3 to 8) (size 9 to 14) (size 15 to 20)
#    0.000    2.000    0.000    6.500    0.000    8.000 
#    0.000    0.000    0.000    0.000    0.000    0.000 
#    0.000    0.667    0.000    2.167    0.000    2.667 
#
# Total GULP energy -267321.099273 kJ/mol
# GULP energy per Si atom -5569.189568 kJ/mol
# Density = 1.677620 g / cm^3
# Si number density = 16.814470 Si / 1000 Ang^3
#
#
#
# Elastic Constant Matrix: (Units=GPa)
#
#
# Indices 1 2 3 4 5 6 
#
# 1 21.3777 -4.7522 2.2958 0.0000 0.0000 0.0000
# 2 -4.7522 57.6011 6.8273 0.0000 0.0000 0.0000
# 3 2.2958 6.8273 80.2633 0.0000 0.0000 0.0000
# 4 0.0000 0.0000 0.0000 -6.3930 0.0000 0.0000
# 5 0.0000 0.0000 0.0000 0.0000 20.4278 0.0000
# 6 0.0000 0.0000 0.0000 0.0000 0.0000 11.8118
#
#
#
# Elastic Compliance Matrix: (Units=1/GPa)
#
#
# Indices 1 2 3 4 5 6 
#
# 1 0.047886 0.004155 -0.001723 0.000000 0.000000 0.000000
# 2 0.004155 0.017898 -0.001641 0.000000 0.000000 0.000000
# 3 -0.001723 -0.001641 0.012648 0.000000 0.000000 0.000000
# 4 0.000000 0.000000 0.000000 -0.156422 0.000000 0.000000
# 5 0.000000 0.000000 0.000000 0.000000 0.048953 0.000000
# 6 0.000000 0.000000 0.000000 0.000000 0.000000 0.084661
#
#
# Mechanical properties :
#
#
# Convention : Reuss Voigt Hill
#
# Bulk Modulus (GPa) = 12.49789 18.66488 15.58138
# Shear Modulus (GPa) = 61.94641 15.49407 38.72024
#
# Velocity S-wave (km/s) = 6.07627 3.03887 4.80395
# Velocity P-wave (km/s) = 7.52842 4.84123 6.32909
#
# Compressibility (1/GPa) = 0.08001352
#
# Stress axis : x y z
#
# Youngs Moduli (GPa) = 20.88272 55.87184 79.06461
#
# Poissons Ratio (x) = -0.23214 0.13624
# Poissons Ratio (y) = -0.08677 0.12977
# Poissons Ratio (z) = 0.03598 0.09170
#
# Static dielectric constant tensor:
#      x y z
#    x 1.592540 0.000000 0.000000 
#    y 0.000000 1.591210 0.000000 
#    z 0.000000 0.000000 1.618170 
# 
# From -- ./inp_files/64931.got.cif
#   From: 2010.05.17/outbox.cif.g08.bks.cpg/sg74_33_cif.got.tgz:64931.got - 2010.06.03 17:57:02.
