data_PCOD9535461
_publ_section_title
;
Structure prediction by ZEFSAII (Michael W. Deem and Ramdas Pophale) SiO2 
 PCOD9535461
Probable space group: I M M A
;
_chemical_formula_sum "Si O2"
_cell_formula_units_Z 120
_cell_length_a 29.732370
_cell_length_b 9.133044
_cell_length_c 27.677390
_cell_angle_alpha 90.000000
_cell_angle_beta 90.000000
_cell_angle_gamma 90.000000
_cell_volume 7515.713424
_symmetry_space_group_name_H-M "I M M A"
_symmetry_group_IT_number 74
_symmetry_cell_setting 'orthorhombic'
loop_
_space_group_symop_operation_xyz
x,y,z
-x,1/2-y,z
x,-y,-z
-x,1/2+y,-z
-x,-y,-z
x,1/2+y,-z
-x,y,z
x,1/2-y,z
1/2+x,1/2+y,1/2+z
1/2-x,-y,1/2+z
1/2+x,1/2-y,1/2-z
1/2-x,y,1/2-z
1/2-x,1/2-y,1/2-z
1/2+x,y,1/2-z
1/2-x,1/2+y,1/2+z
1/2+x,-y,1/2+z
loop_
_atom_site_type_symbol
_atom_site_label
_atom_site_fract_x
_atom_site_fract_y
_atom_site_fract_z
Si Si1 0.677310 0.582200 0.400860
Si Si2 0.947284 0.424724 0.780803
Si Si3 0.366512 0.573294 0.770995
Si Si4 0.293430 0.076289 0.307183
Si Si5 0.000000 0.420487 0.050685
Si Si6 0.575135 0.581084 0.392162
Si Si7 0.799441 0.073160 0.350935
Si Si8 0.230699 0.923028 0.449862
O O1 0.684103 0.750000 0.382282
O O2 0.685902 0.467153 0.358560
O O3 0.625201 0.570889 0.413353
O O4 0.715397 0.559750 0.440931
O O5 0.945824 0.250000 0.772827
O O6 0.913863 0.503535 0.743646
O O7 0.927792 0.450636 0.834857
O O8 0.000000 0.469800 0.779015
O O9 0.369866 0.750000 0.767033
O O10 0.328049 0.520189 0.733024
O O11 0.345887 0.539529 0.823622
O O12 0.291266 0.250000 0.299550
O O13 0.241558 0.028527 0.314453
O O14 0.042837 0.472297 0.080706
O O15 0.000000 0.250000 0.043078
O O16 0.000000 0.500000 0.000000
O O17 0.559641 0.750000 0.397919
O O18 0.796221 0.250000 0.357189
O O19 0.791639 0.995359 0.402211
O O20 0.220955 0.750000 0.451537
O O21 0.218039 0.000000 0.500000
#
# Coordination Sequence:
#
# PCOD9535461 Si02
#       8
#    16  16  16  16   8  16  16  16
#     4   9  18  31  49  71  95 124 160 202 243 289
#     4  10  20  34  52  72  98 134 168 204 255 305
#     4  10  19  30  48  74 102 131 165 204 245 293
#     4   9  16  27  45  70 100 131 162 195 236 288
#     4  12  26  40  54  70  88 114 156 212 267 314
#     4  10  19  36  55  70  94 125 160 205 256 305
#     4   9  18  32  48  70 102 135 164 200 245 292
#     4  10  20  34  51  72  97 129 167 205 245 289
#
# _framework density 15.966548
#
# number of rings (size 3 to 8) (size 9 to 14) (size 15 to 20)
#    0.000    2.267    2.000    1.400    0.000    4.533 
#    0.000    1.333    0.000    4.000    0.000    0.000 
#    0.000    0.533    0.000    1.733    0.000    2.533 
#
# Total GULP energy -334286.842306 kJ/mol
# GULP energy per Si atom -5571.447372 kJ/mol
# Density = 1.593021 g / cm^3
# Si number density = 15.966548 Si / 1000 Ang^3
#
#
#
# Elastic Constant Matrix: (Units=GPa)
#
#
# Indices 1 2 3 4 5 6 
#
# 1 63.9827 38.5761 44.0741 0.0000 0.0000 0.0000
# 2 38.5761 45.3740 38.3314 0.0000 0.0000 0.0000
# 3 44.0741 38.3314 76.1428 0.0000 0.0000 0.0000
# 4 0.0000 0.0000 0.0000 21.6195 0.0000 0.0000
# 5 0.0000 0.0000 0.0000 0.0000 13.3993 0.0000
# 6 0.0000 0.0000 0.0000 0.0000 0.0000 21.6490
#
#
#
# Elastic Compliance Matrix: (Units=1/GPa)
#
#
# Indices 1 2 3 4 5 6 
#
# 1 0.035497 -0.022308 -0.009317 0.000000 0.000000 0.000000
# 2 -0.022308 0.052367 -0.013450 0.000000 0.000000 0.000000
# 3 -0.009317 -0.013450 0.025297 0.000000 0.000000 0.000000
# 4 0.000000 0.000000 0.000000 0.046255 0.000000 0.000000
# 5 0.000000 0.000000 0.000000 0.000000 0.074631 0.000000
# 6 0.000000 0.000000 0.000000 0.000000 0.000000 0.046191
#
#
# Mechanical properties :
#
#
# Convention : Reuss Voigt Hill
#
# Bulk Modulus (GPa) = 43.45572 47.49587 45.47579
# Shear Modulus (GPa) = 13.22555 15.63476 14.43015
#
# Velocity S-wave (km/s) = 2.88119 3.13264 3.00955
# Velocity P-wave (km/s) = 6.19227 6.54953 6.37340
#
# Compressibility (1/GPa) = 0.02301193
#
# Stress axis : x y z
#
# Youngs Moduli (GPa) = 28.17160 19.09600 39.53095
#
# Poissons Ratio (x) = 0.42600 0.36829
# Poissons Ratio (y) = 0.62846 0.53167
# Poissons Ratio (z) = 0.26246 0.25683
#
# Static dielectric constant tensor:
#      x y z
#    x 1.551180 0.000000 0.000000 
#    y 0.000000 1.544970 0.000000 
#    z 0.000000 0.000000 1.531120 
# 
# From -- ./inp_files/69044.got.cif
#   From: 2010.05.17/outbox.cif.g08.bks.cpg/sg74_35_cif.got.tgz:69044.got - 2010.06.03 17:57:02.
