data_PCOD9535600
_publ_section_title
;
Structure prediction by ZEFSAII (Michael W. Deem and Ramdas Pophale) SiO2 
 PCOD9535600
Probable space group: I M M A
;
_chemical_formula_sum "Si O2"
_cell_formula_units_Z 80
_cell_length_a 19.363031
_cell_length_b 8.113463
_cell_length_c 27.643513
_cell_angle_alpha 90.000000
_cell_angle_beta 90.000000
_cell_angle_gamma 90.000000
_cell_volume 4342.830048
_symmetry_space_group_name_H-M "I M M A"
_symmetry_group_IT_number 74
_symmetry_cell_setting 'orthorhombic'
loop_
_space_group_symop_operation_xyz
x,y,z
-x,1/2-y,z
x,-y,-z
-x,1/2+y,-z
-x,-y,-z
x,1/2+y,-z
-x,y,z
x,1/2-y,z
1/2+x,1/2+y,1/2+z
1/2-x,-y,1/2+z
1/2+x,1/2-y,1/2-z
1/2-x,y,1/2-z
1/2-x,1/2-y,1/2-z
1/2+x,y,1/2-z
1/2-x,1/2+y,1/2+z
1/2+x,-y,1/2+z
loop_
_atom_site_type_symbol
_atom_site_label
_atom_site_fract_x
_atom_site_fract_y
_atom_site_fract_z
Si Si1 0.924316 0.449124 0.055839
Si Si2 0.218032 0.451422 0.099779
Si Si3 0.217409 0.948141 0.700145
Si Si4 0.140541 0.446921 0.446598
Si Si5 0.923054 0.053708 0.654313
O O1 0.923914 0.250000 0.058181
O O2 0.857063 0.510414 0.083892
O O3 0.000000 0.506008 0.073332
O O4 0.918046 0.500000 0.000000
O O5 0.217037 0.250000 0.099684
O O6 0.240164 0.506820 0.153179
O O7 0.280166 0.501564 0.063889
O O8 0.222967 0.750000 0.700910
O O9 0.250000 0.011769 0.750000
O O10 0.137741 0.988143 0.688756
O O11 0.118273 0.500000 0.500000
O O12 0.138628 0.250000 0.444068
O O13 0.096673 0.511762 0.401237
O O14 0.923533 0.250000 0.658916
O O15 0.000000 0.989576 0.665066
#
# Coordination Sequence:
#
# PCOD9535600 Si02
#       5
#    16  16  16  16  16
#     4   9  16  26  41  61  88 121 153 186 226 272
#     4   8  15  28  45  67  94 123 157 196 236 282
#     4   9  18  34  55  76  98 125 160 203 249 297
#     4  10  19  31  49  72 100 133 168 206 246 293
#     4  10  21  36  53  74 101 132 166 204 247 297
#
# _framework density 18.421168000000002
#
# number of rings (size 3 to 8) (size 9 to 14) (size 15 to 20)
#    0.000    2.800    0.000    3.000    0.000    2.400 
#    0.000    5.000    0.000    3.600    0.000    2.800 
#    0.000    0.000    0.000    0.000    0.000    0.000 
#
# Total GULP energy -222965.124550 kJ/mol
# GULP energy per Si atom -5574.128114 kJ/mol
# Density = 1.837924 g / cm^3
# Si number density = 18.421168 Si / 1000 Ang^3
#
#
#
# Elastic Constant Matrix: (Units=GPa)
#
#
# Indices 1 2 3 4 5 6 
#
# 1 152.1936 -1.6510 53.4373 0.0000 0.0000 0.0000
# 2 -1.6510 7.9086 -0.8108 0.0000 0.0000 0.0000
# 3 53.4373 -0.8108 93.7599 0.0000 0.0000 0.0000
# 4 0.0000 0.0000 0.0000 17.4160 0.0000 0.0000
# 5 0.0000 0.0000 0.0000 0.0000 14.3816 0.0000
# 6 0.0000 0.0000 0.0000 0.0000 0.0000 11.4150
#
#
#
# Elastic Compliance Matrix: (Units=1/GPa)
#
#
# Indices 1 2 3 4 5 6 
#
# 1 0.008226 0.001238 -0.004678 0.000000 0.000000 0.000000
# 2 0.001238 0.126743 0.000391 0.000000 0.000000 0.000000
# 3 -0.004678 0.000391 0.013335 0.000000 0.000000 0.000000
# 4 0.000000 0.000000 0.000000 0.057418 0.000000 0.000000
# 5 0.000000 0.000000 0.000000 0.000000 0.069533 0.000000
# 6 0.000000 0.000000 0.000000 0.000000 0.000000 0.087604
#
#
# Mechanical properties :
#
#
# Convention : Reuss Voigt Hill
#
# Bulk Modulus (GPa) = 7.03208 39.53480 23.28344
# Shear Modulus (GPa) = 12.00882 22.16831 17.08856
#
# Velocity S-wave (km/s) = 2.55601 3.47279 3.04905
# Velocity P-wave (km/s) = 3.54070 6.13095 5.00625
#
# Compressibility (1/GPa) = 0.14220539
#
# Stress axis : x y z
#
# Youngs Moduli (GPa) = 121.55877 7.88999 74.99050
#
# Poissons Ratio (x) = -0.00977 0.35080
# Poissons Ratio (y) = -0.15046 -0.02929
# Poissons Ratio (z) = 0.56864 -0.00308
#
# Static dielectric constant tensor:
#      x y z
#    x 1.664740 0.000000 0.000000 
#    y 0.000000 1.644760 0.000000 
#    z 0.000000 0.000000 1.625840 
# 
# From -- ./inp_files/67532.got.cif
#   From: 2010.05.17/outbox.cif.g08.bks.cpg/sg74_34_cif.got.tgz:67532.got - 2010.06.03 17:57:02.
