data_PCOD9535435
_publ_section_title
;
Structure prediction by ZEFSAII (Michael W. Deem and Ramdas Pophale) SiO2 
 PCOD9535435
Probable space group: I M M A
;
_chemical_formula_sum "Si O2"
_cell_formula_units_Z 116
_cell_length_a 7.716383
_cell_length_b 28.465826
_cell_length_c 25.468316
_cell_angle_alpha 90.000000
_cell_angle_beta 90.000000
_cell_angle_gamma 90.000000
_cell_volume 5594.197511
_symmetry_space_group_name_H-M "I M M A"
_symmetry_group_IT_number 74
_symmetry_cell_setting 'orthorhombic'
loop_
_space_group_symop_operation_xyz
x,y,z
-x,1/2-y,z
x,-y,-z
-x,1/2+y,-z
-x,-y,-z
x,1/2+y,-z
-x,y,z
x,1/2-y,z
1/2+x,1/2+y,1/2+z
1/2-x,-y,1/2+z
1/2+x,1/2-y,1/2-z
1/2-x,y,1/2-z
1/2-x,1/2-y,1/2-z
1/2+x,y,1/2-z
1/2-x,1/2+y,1/2+z
1/2+x,-y,1/2+z
loop_
_atom_site_type_symbol
_atom_site_label
_atom_site_fract_x
_atom_site_fract_y
_atom_site_fract_z
Si Si1 0.207426 0.402144 0.311373
Si Si2 0.794528 0.301066 0.486628
Si Si3 0.196155 0.317900 0.612317
Si Si4 0.297324 0.403019 0.017836
Si Si5 0.208471 0.800169 0.687633
Si Si6 0.500000 0.250000 0.646298
Si Si7 0.299871 0.475556 0.394441
Si Si8 0.198374 0.578614 0.098387
O O1 0.250000 0.404333 0.250000
O O2 0.270283 0.350875 0.331814
O O3 0.288167 0.445238 0.341939
O O4 0.000000 0.403941 0.318546
O O5 0.720123 0.250000 0.471550
O O6 0.776717 0.306211 0.549976
O O7 0.731356 0.351203 0.464871
O O8 0.000000 0.298951 0.474241
O O9 0.346333 0.290650 0.642223
O O10 0.211437 0.374057 0.617807
O O11 0.000000 0.303833 0.625647
O O12 0.500000 0.396960 0.003778
O O13 0.283987 0.442764 0.061415
O O14 0.203049 0.418208 0.964923
O O15 0.273204 0.750000 0.666080
O O16 0.250000 0.799867 0.750000
O O17 0.000000 0.800212 0.681790
O O18 0.500000 0.481771 0.410141
O O19 0.224808 0.527696 0.388068
O O20 0.000000 0.580508 0.116930
#
# Coordination Sequence:
#
# PCOD9535435 Si02
#       8
#    16  16  16  16  16   4  16  16
#     4  10  20  35  56  78 100 128 167 211 267 329
#     4   8  14  27  45  65  92 127 170 216 264 315
#     4  10  19  30  47  73 102 136 179 218 263 311
#     4  10  20  32  50  74  99 133 178 222 266 320
#     4   8  14  26  46  72  97 121 153 200 258 318
#     4  12  18  28  48  74 106 140 176 220 258 318
#     4  11  23  37  52  71 101 137 177 221 263 312
#     4  10  20  35  52  73 101 138 181 222 265 310
#
# _framework density 20.735769000000001
#
# number of rings (size 3 to 8) (size 9 to 14) (size 15 to 20)
#    0.000    2.345    1.379    3.103    0.000    4.414 
#    0.000    0.690    0.000    4.138    0.000    0.000 
#    0.000    0.000    0.000    0.621    3.172    0.828 
#
# Total GULP energy -322962.651638 kJ/mol
# GULP energy per Si atom -5568.321580 kJ/mol
# Density = 2.068857 g / cm^3
# Si number density = 20.735769 Si / 1000 Ang^3
#
#
#
# Elastic Constant Matrix: (Units=GPa)
#
#
# Indices 1 2 3 4 5 6 
#
# 1 73.3668 25.3697 -6.2108 0.0000 0.0000 0.0000
# 2 25.3697 235.2082 25.0330 0.0000 0.0000 0.0000
# 3 -6.2108 25.0330 14.4392 0.0000 0.0000 0.0000
# 4 0.0000 0.0000 0.0000 59.1325 0.0000 0.0000
# 5 0.0000 0.0000 0.0000 0.0000 9.5082 0.0000
# 6 0.0000 0.0000 0.0000 0.0000 0.0000 19.1025
#
#
#
# Elastic Compliance Matrix: (Units=1/GPa)
#
#
# Indices 1 2 3 4 5 6 
#
# 1 0.015653 -0.002949 0.011845 0.000000 0.000000 0.000000
# 2 -0.002949 0.005769 -0.011270 0.000000 0.000000 0.000000
# 3 0.011845 -0.011270 0.093890 0.000000 0.000000 0.000000
# 4 0.000000 0.000000 0.000000 0.016911 0.000000 0.000000
# 5 0.000000 0.000000 0.000000 0.000000 0.105172 0.000000
# 6 0.000000 0.000000 0.000000 0.000000 0.000000 0.052349
#
#
# Mechanical properties :
#
#
# Convention : Reuss Voigt Hill
#
# Bulk Modulus (GPa) = 9.04453 45.71090 27.37771
# Shear Modulus (GPa) = 15.08992 36.13679 25.61336
#
# Velocity S-wave (km/s) = 2.70056 4.17913 3.51839
# Velocity P-wave (km/s) = 3.75437 6.73640 5.45319
#
# Compressibility (1/GPa) = 0.11056412
#
# Stress axis : x y z
#
# Youngs Moduli (GPa) = 63.88693 173.33648 10.65074
#
# Poissons Ratio (x) = 0.51117 -0.12616
# Poissons Ratio (y) = 0.18840 0.12004
# Poissons Ratio (z) = -0.75677 1.95356
#
# Static dielectric constant tensor:
#      x y z
#    x 1.800730 0.000000 0.000000 
#    y 0.000000 1.812710 0.000000 
#    z 0.000000 0.000000 1.706630 
# 
# From -- ./inp_files/65136.got.cif
#   From: 2010.05.17/outbox.cif.g08.bks.cpg/sg74_33_cif.got.tgz:65136.got - 2010.06.03 17:57:02.
