data_PCOD9535807
_publ_section_title
;
Structure prediction by ZEFSAII (Michael W. Deem and Ramdas Pophale) SiO2 
 PCOD9535807
Probable space group: I M M A
;
_chemical_formula_sum "Si O2"
_cell_formula_units_Z 120
_cell_length_a 16.336701
_cell_length_b 20.042320
_cell_length_c 18.373514
_cell_angle_alpha 90.000000
_cell_angle_beta 90.000000
_cell_angle_gamma 90.000000
_cell_volume 6015.954972
_symmetry_space_group_name_H-M "I M M A"
_symmetry_group_IT_number 74
_symmetry_cell_setting 'orthorhombic'
loop_
_space_group_symop_operation_xyz
x,y,z
-x,1/2-y,z
x,-y,-z
-x,1/2+y,-z
-x,-y,-z
x,1/2+y,-z
-x,y,z
x,1/2-y,z
1/2+x,1/2+y,1/2+z
1/2-x,-y,1/2+z
1/2+x,1/2-y,1/2-z
1/2-x,y,1/2-z
1/2-x,1/2-y,1/2-z
1/2+x,y,1/2-z
1/2-x,1/2+y,1/2+z
1/2+x,-y,1/2+z
loop_
_atom_site_type_symbol
_atom_site_label
_atom_site_fract_x
_atom_site_fract_y
_atom_site_fract_z
Si Si1 0.731775 0.947653 0.905984
Si Si2 0.910212 0.176344 0.190750
Si Si3 0.411989 0.828267 0.424636
Si Si4 0.911286 0.542592 0.893283
Si Si5 0.130826 0.575108 0.202601
Si Si6 0.316116 0.917230 0.140719
Si Si7 0.767268 0.329129 0.513567
Si Si8 0.750000 0.619016 0.750000
O O1 0.823878 0.968831 0.930268
O O2 0.738893 0.925430 0.821693
O O3 0.676434 0.013991 0.905391
O O4 0.708330 0.881774 0.950994
O O5 0.902505 0.250000 0.158207
O O6 0.909698 0.119291 0.130522
O O7 0.831926 0.162199 0.240243
O O8 0.000000 0.172317 0.227329
O O9 0.500000 0.842884 0.461162
O O10 0.409613 0.750000 0.407292
O O11 0.408568 0.870367 0.350522
O O12 0.329862 0.840901 0.470411
O O13 0.904992 0.496200 0.821212
O O14 0.000000 0.527631 0.926572
O O15 0.225354 0.577260 0.176173
O O16 0.126180 0.586823 0.288724
O O17 0.313449 0.854572 0.086485
O O18 0.779097 0.250000 0.499033
#
# Coordination Sequence:
#
# PCOD9535807 Si02
#       8
#    16  16  16  16  16  16  16   8
#     4  10  19  32  49  71  98 134 176 213 258 308
#     4   9  17  28  42  64  94 126 161 204 257 310
#     4   9  18  32  49  72 103 136 165 197 247 310
#     4   9  17  28  44  69  97 124 159 203 250 302
#     4   9  16  29  50  71  92 122 162 206 253 304
#     4   9  17  31  48  67  93 124 162 211 258 300
#     4  10  21  33  46  68 100 137 176 212 248 303
#     4  10  19  32  52  74  99 130 176 230 271 312
#
# _framework density 19.946957999999999
#
# number of rings (size 3 to 8) (size 9 to 14) (size 15 to 20)
#    0.000    2.667    0.000    3.400    0.000    3.733 
#    0.000    2.667    0.000    6.400    0.000    1.867 
#    0.000   14.933    0.000    0.000    0.000    0.000 
#
# Total GULP energy -334230.112273 kJ/mol
# GULP energy per Si atom -5570.501871 kJ/mol
# Density = 1.990156 g / cm^3
# Si number density = 19.946958 Si / 1000 Ang^3
#
#
#
# Elastic Constant Matrix: (Units=GPa)
#
#
# Indices 1 2 3 4 5 6 
#
# 1 36.4067 3.9163 8.2001 0.0000 0.0000 0.0000
# 2 3.9163 69.3822 48.8848 0.0000 0.0000 0.0000
# 3 8.2001 48.8848 92.5057 0.0000 0.0000 0.0001
# 4 0.0000 0.0000 0.0000 26.7003 0.0000 0.0000
# 5 0.0000 0.0000 0.0000 0.0000 -0.4000 0.0000
# 6 0.0000 0.0000 0.0001 0.0000 0.0000 -23.9405
#
#
#
# Elastic Compliance Matrix: (Units=1/GPa)
#
#
# Indices 1 2 3 4 5 6 
#
# 1 0.028030 0.000268 -0.002627 0.000000 0.000000 0.000000
# 2 0.000268 0.022965 -0.012160 0.000000 0.000000 0.000000
# 3 -0.002627 -0.012160 0.017469 0.000000 0.000000 0.000000
# 4 0.000000 0.000000 0.000000 0.037453 0.000000 0.000000
# 5 0.000000 0.000000 0.000000 0.000000 -2.500305 -0.000001
# 6 0.000000 0.000000 0.000000 0.000000 -0.000001 -0.041770
#
#
# Mechanical properties :
#
#
# Convention : Reuss Voigt Hill
#
# Bulk Modulus (GPa) = 25.36244 35.58855 30.47549
# Shear Modulus (GPa) = -2.08857 9.62487 3.76815
#
# Velocity S-wave (km/s) = -1.02437 2.19902 1.37593
# Velocity P-wave (km/s) = 3.36800 4.93234 4.22323
#
# Compressibility (1/GPa) = 0.03942839
#
# Stress axis : x y z
#
# Youngs Moduli (GPa) = 35.67585 43.54402 57.24468
#
# Poissons Ratio (x) = -0.01169 0.15036
# Poissons Ratio (y) = -0.00958 0.69609
# Poissons Ratio (z) = 0.09371 0.52949
#
# Static dielectric constant tensor:
#      x y z
#    x 1.746240 0.000000 0.000000 
#    y 0.000000 1.730880 0.000000 
#    z 0.000000 0.000000 1.731840 
# 
# From -- ./inp_files/44482.got.cif
#   From: 2010.05.17/outbox.cif.g08.bks.cpg/sg74_23_cif.got.tgz:44482.got - 2010.06.03 17:57:02.
