data_PCOD9535768
_publ_section_title
;
Structure prediction by ZEFSAII (Michael W. Deem and Ramdas Pophale) SiO2 
 PCOD9535768
Probable space group: I M M A
;
_chemical_formula_sum "Si O2"
_cell_formula_units_Z 104
_cell_length_a 32.940612
_cell_length_b 7.521688
_cell_length_c 21.491922
_cell_angle_alpha 90.000000
_cell_angle_beta 90.000000
_cell_angle_gamma 90.000000
_cell_volume 5325.032151
_symmetry_space_group_name_H-M "I M M A"
_symmetry_group_IT_number 74
_symmetry_cell_setting 'orthorhombic'
loop_
_space_group_symop_operation_xyz
x,y,z
-x,1/2-y,z
x,-y,-z
-x,1/2+y,-z
-x,-y,-z
x,1/2+y,-z
-x,y,z
x,1/2-y,z
1/2+x,1/2+y,1/2+z
1/2-x,-y,1/2+z
1/2+x,1/2-y,1/2-z
1/2-x,y,1/2-z
1/2-x,1/2-y,1/2-z
1/2+x,y,1/2-z
1/2-x,1/2+y,1/2+z
1/2+x,-y,1/2+z
loop_
_atom_site_type_symbol
_atom_site_label
_atom_site_fract_x
_atom_site_fract_y
_atom_site_fract_z
Si Si1 0.070515 0.462445 0.657862
Si Si2 0.691871 0.537451 0.569714
Si Si3 0.455470 0.462253 0.297507
Si Si4 0.339514 0.953257 0.817294
Si Si5 0.784627 0.463821 0.429584
Si Si6 0.000000 0.462324 0.571805
Si Si7 0.134962 0.531322 0.818427
O O1 0.075897 0.250000 0.653164
O O2 0.049776 0.503206 0.723982
O O3 0.114829 0.545772 0.656461
O O4 0.040399 0.529675 0.605105
O O5 0.676924 0.500000 0.500000
O O6 0.694081 0.750000 0.576723
O O7 0.738163 0.469290 0.574295
O O8 0.662358 0.473019 0.623958
O O9 0.500000 0.531718 0.317473
O O10 0.456186 0.250000 0.307512
O O11 0.412146 0.527150 0.324194
O O12 0.325595 0.750000 0.807611
O O13 0.310832 0.032050 0.871043
O O14 0.345615 0.029477 0.747569
O O15 0.799872 0.500000 0.500000
O O16 0.784109 0.250000 0.424630
O O17 0.000000 0.500000 0.500000
O O18 0.000000 0.250000 0.582139
O O19 0.134163 0.750000 0.816192
#
# Coordination Sequence:
#
# PCOD9535768 Si02
#       7
#    16  16  16  16  16   8  16
#     4  10  19  32  46  64  90 118 149 189 235 276
#     4   9  17  31  50  70  94 125 156 191 233 280
#     4   9  16  28  49  72  92 118 150 186 229 277
#     4   9  18  32  48  69  93 119 156 197 235 278
#     4   9  18  31  48  68  92 124 160 195 235 281
#     4  10  22  34  44  60  84 116 155 192 227 270
#     4   8  15  28  47  72  96 118 154 196 233 275
#
# _framework density 19.530398000000002
#
# number of rings (size 3 to 8) (size 9 to 14) (size 15 to 20)
#    0.000    2.923    0.769    1.385    0.000    3.077 
#    0.000    9.231    0.000    0.462    0.000    8.615 
#    0.000    0.000    0.000    0.000    0.000    0.000 
#
# Total GULP energy -289725.198901 kJ/mol
# GULP energy per Si atom -5571.638440 kJ/mol
# Density = 1.948595 g / cm^3
# Si number density = 19.530398 Si / 1000 Ang^3
#
#
#
# Elastic Constant Matrix: (Units=GPa)
#
#
# Indices 1 2 3 4 5 6 
#
# 1 117.4325 2.2111 102.7848 0.0000 0.0000 0.0000
# 2 2.2111 52.0800 -1.3783 0.0000 0.0000 0.0000
# 3 102.7848 -1.3783 148.0508 0.0000 0.0000 0.0000
# 4 0.0000 0.0000 0.0000 16.6641 0.0000 0.0000
# 5 0.0000 0.0000 0.0000 0.0000 32.1056 0.0000
# 6 0.0000 0.0000 0.0000 0.0000 0.0000 5.4172
#
#
#
# Elastic Compliance Matrix: (Units=1/GPa)
#
#
# Indices 1 2 3 4 5 6 
#
# 1 0.021796 -0.001326 -0.015144 0.000000 0.000000 0.000000
# 2 -0.001326 0.019287 0.001100 0.000000 0.000000 0.000000
# 3 -0.015144 0.001100 0.017278 0.000000 0.000000 0.000000
# 4 0.000000 0.000000 0.000000 0.060009 0.000000 0.000000
# 5 0.000000 0.000000 0.000000 0.000000 0.031147 0.000000
# 6 0.000000 0.000000 0.000000 0.000000 0.000000 0.184598
#
#
# Mechanical properties :
#
#
# Convention : Reuss Voigt Hill
#
# Bulk Modulus (GPa) = 36.20453 58.31095 47.25774
# Shear Modulus (GPa) = 13.36677 25.10042 19.23360
#
# Velocity S-wave (km/s) = 2.61896 3.58885 3.14156
# Velocity P-wave (km/s) = 5.26527 6.86254 6.11627
#
# Compressibility (1/GPa) = 0.02762085
#
# Stress axis : x y z
#
# Youngs Moduli (GPa) = 45.88093 51.84936 57.87553
#
# Poissons Ratio (x) = 0.06876 0.87647
# Poissons Ratio (y) = 0.06084 -0.06367
# Poissons Ratio (z) = 0.69482 -0.05704
#
# Static dielectric constant tensor:
#      x y z
#    x 1.698160 0.000000 0.000000 
#    y 0.000000 1.701330 0.000000 
#    z 0.000000 0.000000 1.653520 
# 
# From -- ./inp_files/49631.got.cif
#   From: 2010.05.17/outbox.cif.g08.bks.cpg/sg74_25_cif.got.tgz:49631.got - 2010.06.03 17:57:02.
