data_PCOD9535311
_publ_section_title
;
Structure prediction by ZEFSAII (Michael W. Deem and Ramdas Pophale) SiO2 
 PCOD9535311
Probable space group: I M M A
;
_chemical_formula_sum "Si O2"
_cell_formula_units_Z 96
_cell_length_a 23.032646
_cell_length_b 25.498926
_cell_length_c 9.378062
_cell_angle_alpha 90.000000
_cell_angle_beta 90.000000
_cell_angle_gamma 90.000000
_cell_volume 5507.808361
_symmetry_space_group_name_H-M "I M M A"
_symmetry_group_IT_number 74
_symmetry_cell_setting 'orthorhombic'
loop_
_space_group_symop_operation_xyz
x,y,z
-x,1/2-y,z
x,-y,-z
-x,1/2+y,-z
-x,-y,-z
x,1/2+y,-z
-x,y,z
x,1/2-y,z
1/2+x,1/2+y,1/2+z
1/2-x,-y,1/2+z
1/2+x,1/2-y,1/2-z
1/2-x,y,1/2-z
1/2-x,1/2-y,1/2-z
1/2+x,y,1/2-z
1/2-x,1/2+y,1/2+z
1/2+x,-y,1/2+z
loop_
_atom_site_type_symbol
_atom_site_label
_atom_site_fract_x
_atom_site_fract_y
_atom_site_fract_z
Si Si1 0.931430 0.188150 0.185905
Si Si2 0.859429 0.417846 0.701855
Si Si3 0.066026 0.371944 0.468162
Si Si4 0.146289 0.396801 0.035495
Si Si5 0.765749 0.058778 0.478393
Si Si6 0.119148 0.462629 0.294867
O O1 0.924685 0.250000 0.165505
O O2 0.918780 0.171479 0.349721
O O3 0.887787 0.154329 0.089420
O O4 0.000000 0.174640 0.160678
O O5 0.893746 0.376402 0.605534
O O6 0.797222 0.424485 0.624774
O O7 0.888179 0.475642 0.687847
O O8 0.858793 0.404261 0.866947
O O9 0.074789 0.426720 0.382472
O O10 0.000000 0.364903 0.511579
O O11 0.215404 0.401420 0.063998
O O12 0.119593 0.443552 0.132141
O O13 0.817922 0.051875 0.364902
O O14 0.740170 0.000000 0.500000
#
# Coordination Sequence:
#
# PCOD9535311 Si02
#       6
#    16  16  16  16  16  16
#     4   9  20  40  59  71  88 121 169 219 263 308
#     4  10  19  29  46  77 111 138 163 198 242 293
#     4   9  18  33  52  70  92 129 172 209 247 294
#     4  11  19  29  51  77 102 129 166 208 248 289
#     4   9  17  30  48  72 106 147 179 197 225 283
#     4   9  18  30  47  73 106 143 174 194 228 287
#
# _framework density 17.4298
#
# number of rings (size 3 to 8) (size 9 to 14) (size 15 to 20)
#    0.000    2.500    0.000    4.000    0.000    4.667 
#    0.000    0.833    0.000   29.500    0.000    0.000 
#    0.000    0.000    0.000    0.000    0.000    0.000 
#
# Total GULP energy -267509.716231 kJ/mol
# GULP energy per Si atom -5573.119088 kJ/mol
# Density = 1.739013 g / cm^3
# Si number density = 17.429800 Si / 1000 Ang^3
#
#
#
# Elastic Constant Matrix: (Units=GPa)
#
#
# Indices 1 2 3 4 5 6 
#
# 1 53.9784 36.4246 34.2653 0.0000 0.0000 0.0000
# 2 36.4246 71.9709 23.8601 0.0000 0.0000 0.0000
# 3 34.2653 23.8601 120.3530 0.0000 0.0000 0.0000
# 4 0.0000 0.0000 0.0000 12.4207 0.0000 0.0000
# 5 0.0000 0.0000 0.0000 0.0000 21.8269 0.0000
# 6 0.0000 0.0000 0.0000 0.0000 0.0000 24.9131
#
#
#
# Elastic Compliance Matrix: (Units=1/GPa)
#
#
# Indices 1 2 3 4 5 6 
#
# 1 0.032087 -0.014140 -0.006332 0.000000 0.000000 0.000000
# 2 -0.014140 0.021103 -0.000158 0.000000 0.000000 0.000000
# 3 -0.006332 -0.000158 0.010143 0.000000 0.000000 0.000000
# 4 0.000000 0.000000 0.000000 0.080511 0.000000 0.000000
# 5 0.000000 0.000000 0.000000 0.000000 0.045815 0.000000
# 6 0.000000 0.000000 0.000000 0.000000 0.000000 0.040139
#
#
# Mechanical properties :
#
#
# Convention : Reuss Voigt Hill
#
# Bulk Modulus (GPa) = 45.30419 48.37804 46.84111
# Shear Modulus (GPa) = 17.95866 21.94896 19.95381
#
# Velocity S-wave (km/s) = 3.21338 3.55248 3.38717
# Velocity P-wave (km/s) = 6.31003 6.68154 6.49844
#
# Compressibility (1/GPa) = 0.02207301
#
# Stress axis : x y z
#
# Youngs Moduli (GPa) = 31.16487 47.38606 98.58998
#
# Poissons Ratio (x) = 0.67005 0.62429
# Poissons Ratio (y) = 0.44068 0.01557
# Poissons Ratio (z) = 0.19734 0.00748
#
# Static dielectric constant tensor:
#      x y z
#    x 1.615570 0.000000 0.000000 
#    y 0.000000 1.569760 0.000000 
#    z 0.000000 0.000000 1.621360 
# 
# From -- ./inp_files/14059.got.cif
#   From: 2010.05.17/outbox.cif.g08.bks.cpg/sg74_8_cif.got.tgz:14059.got - 2010.06.03 17:57:02.
