data_PCOD9535627
_publ_section_title
;
Structure prediction by ZEFSAII (Michael W. Deem and Ramdas Pophale) SiO2 
 PCOD9535627
Probable space group: I M M A
;
_chemical_formula_sum "Si O2"
_cell_formula_units_Z 96
_cell_length_a 11.305230
_cell_length_b 17.939141
_cell_length_c 21.204487
_cell_angle_alpha 90.000000
_cell_angle_beta 90.000000
_cell_angle_gamma 90.000000
_cell_volume 4300.399629
_symmetry_space_group_name_H-M "I M M A"
_symmetry_group_IT_number 74
_symmetry_cell_setting 'orthorhombic'
loop_
_space_group_symop_operation_xyz
x,y,z
-x,1/2-y,z
x,-y,-z
-x,1/2+y,-z
-x,-y,-z
x,1/2+y,-z
-x,y,z
x,1/2-y,z
1/2+x,1/2+y,1/2+z
1/2-x,-y,1/2+z
1/2+x,1/2-y,1/2-z
1/2-x,y,1/2-z
1/2-x,1/2-y,1/2-z
1/2+x,y,1/2-z
1/2-x,1/2+y,1/2+z
1/2+x,-y,1/2+z
loop_
_atom_site_type_symbol
_atom_site_label
_atom_site_fract_x
_atom_site_fract_y
_atom_site_fract_z
Si Si1 0.859775 0.668310 0.477801
Si Si2 0.000000 0.916802 0.971061
Si Si3 0.252883 0.915113 0.913434
Si Si4 0.000000 0.839472 0.107287
Si Si5 0.248858 0.335426 0.839173
Si Si6 0.866553 0.024198 0.673962
Si Si7 0.362657 0.364225 0.210435
O O1 0.821206 0.750000 0.503835
O O2 0.813284 0.601942 0.520507
O O3 0.810167 0.664871 0.407848
O O4 0.000000 0.666649 0.476388
O O5 0.115102 0.904679 0.927561
O O6 0.000000 0.867628 0.035036
O O7 0.000000 0.000000 0.000000
O O8 0.318177 0.861327 0.862238
O O9 0.281703 0.994751 0.882135
O O10 0.115899 0.861008 0.146395
O O11 0.000000 0.750000 0.103494
O O12 0.251040 0.250000 0.816959
O O13 0.324685 0.396374 0.802092
O O14 0.000000 0.029393 0.649177
O O15 0.867479 0.954367 0.721950
O O16 0.500000 0.338056 0.218243
O O17 0.250000 0.335121 0.250000
#
# Coordination Sequence:
#
# PCOD9535627 Si02
#       7
#    16   8  16   8  16  16  16
#     4  10  19  31  49  74 105 141 174 205 251 316
#     4  12  22  32  50  80 114 144 182 218 259 318
#     4  10  21  33  52  76 105 137 177 217 269 314
#     4  10  20  34  48  68 110 152 176 210 250 300
#     4  10  19  32  49  73 106 143 177 209 250 313
#     4   9  19  34  51  75 103 132 169 217 267 312
#     4   9  20  37  57  78 104 134 177 233 288 328
#
# _framework density 22.323506999999999
#
# number of rings (size 3 to 8) (size 9 to 14) (size 15 to 20)
#    1.000    1.167    1.667    2.500    1.167    1.000 
#    1.500    1.667    0.000    1.000    0.000    0.000 
#    0.000    0.000    0.000    0.000    0.000    0.000 
#
# Total GULP energy -267499.858424 kJ/mol
# GULP energy per Si atom -5572.913717 kJ/mol
# Density = 2.227270 g / cm^3
# Si number density = 22.323507 Si / 1000 Ang^3
#
#
#
# Elastic Constant Matrix: (Units=GPa)
#
#
# Indices 1 2 3 4 5 6 
#
# 1 169.3887 23.7728 36.0917 0.0000 0.0000 0.0000
# 2 23.7728 74.2025 0.0501 0.0000 0.0000 0.0000
# 3 36.0917 0.0501 70.5242 0.0000 0.0000 0.0000
# 4 0.0000 0.0000 0.0000 -119.6923 0.0000 0.0000
# 5 0.0000 0.0000 0.0000 0.0000 11.7406 0.0000
# 6 0.0000 0.0000 0.0000 0.0000 0.0000 -19.8782
#
#
#
# Elastic Compliance Matrix: (Units=1/GPa)
#
#
# Indices 1 2 3 4 5 6 
#
# 1 0.006977 -0.002233 -0.003569 0.000000 0.000000 0.000000
# 2 -0.002233 0.014191 0.001133 0.000000 0.000000 0.000000
# 3 -0.003569 0.001133 0.016005 0.000000 0.000000 0.000000
# 4 0.000000 0.000000 0.000000 -0.008355 0.000000 0.000000
# 5 0.000000 0.000000 0.000000 0.000000 0.085174 0.000000
# 6 0.000000 0.000000 0.000000 0.000000 0.000000 -0.050306
#
#
# Mechanical properties :
#
#
# Convention : Reuss Voigt Hill
#
# Bulk Modulus (GPa) = 35.92601 48.21605 42.07103
# Shear Modulus (GPa) = 60.74993 -8.61925 26.06534
#
# Velocity S-wave (km/s) = 5.22231 -1.96709 3.42075
# Velocity P-wave (km/s) = 7.24511 4.06035 5.87274
#
# Compressibility (1/GPa) = 0.02783499
#
# Stress axis : x y z
#
# Youngs Moduli (GPa) = 143.31845 70.46578 62.47924
#
# Poissons Ratio (x) = 0.15735 0.22300
# Poissons Ratio (y) = 0.32003 -0.07077
# Poissons Ratio (z) = 0.51154 -0.07982
#
# Static dielectric constant tensor:
#      x y z
#    x 1.826880 0.000000 0.000000 
#    y 0.000000 1.915650 0.000000 
#    z 0.000000 0.000000 1.825730 
# 
# From -- ./inp_files/50808.got.cif
#   From: 2010.05.17/outbox.cif.g08.bks.cpg/sg74_26_cif.got.tgz:50808.got - 2010.06.03 17:57:02.
