data_PCOD9535128
_publ_section_title
;
Structure prediction by ZEFSAII (Michael W. Deem and Ramdas Pophale) SiO2 
 PCOD9535128
Probable space group: I M M A
;
_chemical_formula_sum "Si O2"
_cell_formula_units_Z 96
_cell_length_a 26.665373
_cell_length_b 17.718490
_cell_length_c 11.640574
_cell_angle_alpha 90.000000
_cell_angle_beta 90.000000
_cell_angle_gamma 90.000000
_cell_volume 5499.823684
_symmetry_space_group_name_H-M "I M M A"
_symmetry_group_IT_number 74
_symmetry_cell_setting 'orthorhombic'
loop_
_space_group_symop_operation_xyz
x,y,z
-x,1/2-y,z
x,-y,-z
-x,1/2+y,-z
-x,-y,-z
x,1/2+y,-z
-x,y,z
x,1/2-y,z
1/2+x,1/2+y,1/2+z
1/2-x,-y,1/2+z
1/2+x,1/2-y,1/2-z
1/2-x,y,1/2-z
1/2-x,1/2-y,1/2-z
1/2+x,y,1/2-z
1/2-x,1/2+y,1/2+z
1/2+x,-y,1/2+z
loop_
_atom_site_type_symbol
_atom_site_label
_atom_site_fract_x
_atom_site_fract_y
_atom_site_fract_z
Si Si1 0.944045 0.914317 0.546509
Si Si2 0.289089 0.159748 0.093240
Si Si3 0.134499 0.940362 0.726867
Si Si4 0.200601 0.664116 0.182825
Si Si5 0.647009 0.893240 0.115546
Si Si6 0.808409 0.421759 0.048943
O O1 0.919642 0.919243 0.673693
O O2 0.903147 0.879200 0.459071
O O3 0.000000 0.881624 0.545394
O O4 0.947378 0.000000 0.500000
O O5 0.288716 0.250000 0.094223
O O6 0.329032 0.124047 0.178790
O O7 0.234606 0.124995 0.113211
O O8 0.307900 0.127354 0.970556
O O9 0.146617 0.941421 0.862601
O O10 0.147817 0.020563 0.664411
O O11 0.213917 0.750000 0.154110
O O12 0.250000 0.631209 0.250000
O O13 0.155953 0.658142 0.274324
O O14 0.182220 0.624698 0.067107
O O15 0.787139 0.500000 0.000000
#
# Coordination Sequence:
#
# PCOD9535128 Si02
#       6
#    16  16  16  16  16  16
#     4   8  16  33  59  84 105 130 171 229 285 326
#     4  11  22  33  49  75 109 147 185 222 262 313
#     4  10  21  34  53  79 107 142 180 224 273 321
#     4  11  22  35  53  76 108 150 188 222 261 313
#     4  10  18  35  55  80 106 139 184 228 271 316
#     4  12  22  33  50  73 110 151 186 217 259 320
#
# _framework density 17.455106000000001
#
# number of rings (size 3 to 8) (size 9 to 14) (size 15 to 20)
#    0.000    1.667    3.333    4.000    0.000    2.000 
#    0.000    0.000    0.000   14.000    0.000    0.000 
#    0.000    0.000    0.000    0.000    0.000    0.000 
#
# Total GULP energy -267264.491868 kJ/mol
# GULP energy per Si atom -5568.010247 kJ/mol
# Density = 1.741538 g / cm^3
# Si number density = 17.455106 Si / 1000 Ang^3
#
#
#
# Elastic Constant Matrix: (Units=GPa)
#
#
# Indices 1 2 3 4 5 6 
#
# 1 83.9363 20.0764 35.4857 0.0000 0.0000 0.0000
# 2 20.0764 65.3380 32.7613 0.0000 0.0000 0.0000
# 3 35.4857 32.7613 94.0351 0.0000 0.0000 0.0000
# 4 0.0000 0.0000 0.0000 -26.9286 0.0000 0.0000
# 5 0.0000 0.0000 0.0000 0.0000 12.0518 0.0000
# 6 0.0000 0.0000 0.0000 0.0000 0.0000 -2.0530
#
#
#
# Elastic Compliance Matrix: (Units=1/GPa)
#
#
# Indices 1 2 3 4 5 6 
#
# 1 0.014401 -0.002060 -0.004717 0.000000 0.000000 0.000000
# 2 -0.002060 0.018839 -0.005786 0.000000 0.000000 0.000000
# 3 -0.004717 -0.005786 0.014430 0.000000 0.000000 0.000000
# 4 0.000000 0.000000 0.000000 -0.037135 0.000000 0.000000
# 5 0.000000 0.000000 0.000000 0.000000 0.082975 0.000000
# 6 0.000000 0.000000 0.000000 0.000000 0.000000 -0.487103
#
#
# Mechanical properties :
#
#
# Convention : Reuss Voigt Hill
#
# Bulk Modulus (GPa) = 44.35667 46.66181 45.50924
# Shear Modulus (GPa) = -13.85220 6.94644 -3.45288
#
# Velocity S-wave (km/s) = -2.82013 1.99706 -1.40799
# Velocity P-wave (km/s) = 3.85524 5.66641 4.84618
#
# Compressibility (1/GPa) = 0.02254452
#
# Stress axis : x y z
#
# Youngs Moduli (GPa) = 69.44185 53.08071 69.29964
#
# Poissons Ratio (x) = 0.10934 0.32686
# Poissons Ratio (y) = 0.14304 0.40098
# Poissons Ratio (z) = 0.32753 0.30713
#
# Static dielectric constant tensor:
#      x y z
#    x 1.605940 0.000000 0.000000 
#    y 0.000000 1.614910 0.000000 
#    z 0.000000 0.000000 1.661680 
# 
# From -- ./inp_files/26283.got.cif
#   From: 2010.05.17/outbox.cif.g08.bks.cpg/sg74_14_cif.got.tgz:26283.got - 2010.06.03 17:57:02.
