data_PCOD9535704
_publ_section_title
;
Structure prediction by ZEFSAII (Michael W. Deem and Ramdas Pophale) SiO2 
 PCOD9535704
Probable space group: I M M A
;
_chemical_formula_sum "Si O2"
_cell_formula_units_Z 80
_cell_length_a 8.666231
_cell_length_b 27.634156
_cell_length_c 19.097374
_cell_angle_alpha 90.000000
_cell_angle_beta 90.000000
_cell_angle_gamma 90.000000
_cell_volume 4573.515121
_symmetry_space_group_name_H-M "I M M A"
_symmetry_group_IT_number 74
_symmetry_cell_setting 'orthorhombic'
loop_
_space_group_symop_operation_xyz
x,y,z
-x,1/2-y,z
x,-y,-z
-x,1/2+y,-z
-x,-y,-z
x,1/2+y,-z
-x,y,z
x,1/2-y,z
1/2+x,1/2+y,1/2+z
1/2-x,-y,1/2+z
1/2+x,1/2-y,1/2-z
1/2-x,y,1/2-z
1/2-x,1/2-y,1/2-z
1/2+x,y,1/2-z
1/2-x,1/2+y,1/2+z
1/2+x,-y,1/2+z
loop_
_atom_site_type_symbol
_atom_site_label
_atom_site_fract_x
_atom_site_fract_y
_atom_site_fract_z
Si Si1 0.184960 0.900697 0.174454
Si Si2 0.315164 0.304574 0.893549
Si Si3 0.687340 0.949976 0.467245
Si Si4 0.816349 0.192516 0.324862
Si Si5 0.684657 0.347995 0.467059
O O1 0.250000 0.913800 0.250000
O O2 0.240791 0.846997 0.152605
O O3 0.236700 0.936502 0.111728
O O4 0.000000 0.900663 0.176204
O O5 0.500000 0.308210 0.889109
O O6 0.269043 0.250000 0.873403
O O7 0.262755 0.315036 0.973283
O O8 0.500000 0.952600 0.465606
O O9 0.726910 0.903280 0.513971
O O10 0.745243 0.000000 0.500000
O O11 0.784057 0.250000 0.331344
O O12 0.750000 0.176441 0.250000
O O13 0.739381 0.166417 0.390422
O O14 0.000000 0.185793 0.326312
O O15 0.500000 0.343089 0.473297
#
# Coordination Sequence:
#
# PCOD9535704 Si02
#       5
#    16  16  16  16  16
#     4  10  20  34  54  77 102 133 166 205 251 297
#     4  10  20  33  50  73 102 136 171 206 243 288
#     4   8  16  33  55  76  98 128 166 205 248 297
#     4  10  20  33  49  70  99 135 171 208 251 298
#     4  10  19  31  51  76 101 131 166 207 252 299
#
# _framework density 17.492017000000001
#
# number of rings (size 3 to 8) (size 9 to 14) (size 15 to 20)
#    0.000    2.400    0.000    4.200    0.000    5.600 
#    0.000    1.000    0.000   24.000    0.000    0.000 
#    0.000    0.000    0.000    0.000    0.000    0.000 
#
# Total GULP energy -223172.293183 kJ/mol
# GULP energy per Si atom -5579.307330 kJ/mol
# Density = 1.745220 g / cm^3
# Si number density = 17.492017 Si / 1000 Ang^3
#
#
#
# Elastic Constant Matrix: (Units=GPa)
#
#
# Indices 1 2 3 4 5 6 
#
# 1 39.4757 30.4061 35.0377 0.0000 0.0000 0.0000
# 2 30.4061 97.3705 52.2574 0.0000 0.0000 0.0000
# 3 35.0377 52.2574 131.9717 -0.0001 0.0000 0.0000
# 4 0.0000 0.0000 -0.0001 9.1294 0.0000 0.0000
# 5 0.0000 0.0000 0.0000 0.0000 35.0985 0.0000
# 6 0.0000 0.0000 0.0000 0.0000 0.0000 9.0608
#
#
#
# Elastic Compliance Matrix: (Units=1/GPa)
#
#
# Indices 1 2 3 4 5 6 
#
# 1 0.037581 -0.008103 -0.006769 0.000000 0.000000 0.000000
# 2 -0.008103 0.014789 -0.003705 0.000000 0.000000 0.000000
# 3 -0.006769 -0.003705 0.010842 0.000000 0.000000 0.000000
# 4 0.000000 0.000000 0.000000 0.109537 0.000000 0.000000
# 5 0.000000 0.000000 0.000000 0.000000 0.028491 0.000000
# 6 0.000000 0.000000 0.000000 0.000000 0.000000 0.110365
#
#
# Mechanical properties :
#
#
# Convention : Reuss Voigt Hill
#
# Bulk Modulus (GPa) = 38.37546 56.02448 47.19997
# Shear Modulus (GPa) = 13.98822 20.73217 17.36020
#
# Velocity S-wave (km/s) = 2.83095 3.44646 3.15376
# Velocity P-wave (km/s) = 5.71596 6.92355 6.34853
#
# Compressibility (1/GPa) = 0.02605832
#
# Stress axis : x y z
#
# Youngs Moduli (GPa) = 26.60897 67.61991 92.23812
#
# Poissons Ratio (x) = 0.54790 0.62437
# Poissons Ratio (y) = 0.21560 0.34171
# Poissons Ratio (z) = 0.18012 0.25051
#
# Static dielectric constant tensor:
#      x y z
#    x 1.590660 0.000000 0.000000 
#    y 0.000000 1.588920 0.000000 
#    z 0.000000 0.000000 1.584330 
# 
# From -- ./inp_files/39712.got.cif
#   From: 2010.05.17/outbox.cif.g08.bks.cpg/sg74_20_cif.got.tgz:39712.got - 2010.06.03 17:57:02.
