data_PCOD9535013
_publ_section_title
;
Structure prediction by ZEFSAII (Michael W. Deem and Ramdas Pophale) SiO2 
 PCOD9535013
Probable space group: I M M A
;
_chemical_formula_sum "Si O2"
_cell_formula_units_Z 112
_cell_length_a 15.571814
_cell_length_b 14.715046
_cell_length_c 26.439630
_cell_angle_alpha 90.000000
_cell_angle_beta 90.000000
_cell_angle_gamma 90.000000
_cell_volume 6058.375742
_symmetry_space_group_name_H-M "I M M A"
_symmetry_group_IT_number 74
_symmetry_cell_setting 'orthorhombic'
loop_
_space_group_symop_operation_xyz
x,y,z
-x,1/2-y,z
x,-y,-z
-x,1/2+y,-z
-x,-y,-z
x,1/2+y,-z
-x,y,z
x,1/2-y,z
1/2+x,1/2+y,1/2+z
1/2-x,-y,1/2+z
1/2+x,1/2-y,1/2-z
1/2-x,y,1/2-z
1/2-x,1/2-y,1/2-z
1/2+x,y,1/2-z
1/2-x,1/2+y,1/2+z
1/2+x,-y,1/2+z
loop_
_atom_site_type_symbol
_atom_site_label
_atom_site_fract_x
_atom_site_fract_y
_atom_site_fract_z
Si Si1 0.600113 0.964200 0.388674
Si Si2 0.203353 0.519050 0.203337
Si Si3 0.272583 0.357499 0.538379
Si Si4 0.815329 0.647904 0.921375
Si Si5 0.093262 0.047615 0.554663
Si Si6 0.600155 0.853804 0.754412
Si Si7 0.158644 0.082175 0.360995
O O1 0.500000 0.949238 0.395622
O O2 0.657381 0.909382 0.428400
O O3 0.631582 0.937645 0.332293
O O4 0.623725 0.070619 0.398005
O O5 0.250000 0.568524 0.250000
O O6 0.159735 0.427605 0.226658
O O7 0.279903 0.491756 0.165854
O O8 0.279581 0.250000 0.545396
O O9 0.291254 0.376707 0.479158
O O10 0.177903 0.390560 0.554450
O O11 0.851348 0.750000 0.919740
O O12 0.726213 0.644974 0.890448
O O13 0.000000 0.093593 0.560878
O O14 0.093896 0.000000 0.500000
O O15 0.102894 0.970922 0.597883
O O16 0.500000 0.867202 0.740984
O O17 0.624865 0.750000 0.741850
O O18 0.610821 0.869206 0.814796
#
# Coordination Sequence:
#
# PCOD9535013 Si02
#       7
#    16  16  16  16  16  16  16
#     4  11  22  38  60  86 118 154 197 243 291 343
#     4   9  19  33  55  76 103 144 187 228 283 343
#     4  11  22  39  59  83 117 155 198 244 295 346
#     4  10  20  34  56  83 119 159 195 232 281 346
#     4  11  20  35  60  86 115 152 196 241 291 347
#     4  10  20  32  47  77 115 146 186 235 281 342
#     4  10  18  33  53  77 111 151 189 221 278 336
#
# _framework density 18.486802999999998
#
# number of rings (size 3 to 8) (size 9 to 14) (size 15 to 20)
#    0.000    1.714    4.286    1.714    0.000    6.857 
#    0.000    1.429    0.000    0.429    0.000    0.000 
#    0.000    0.000    0.000    0.000    0.000    0.000 
#
# Total GULP energy -312327.673352 kJ/mol
# GULP energy per Si atom -5577.279881 kJ/mol
# Density = 1.844473 g / cm^3
# Si number density = 18.486803 Si / 1000 Ang^3
#
#
#
# Elastic Constant Matrix: (Units=GPa)
#
#
# Indices 1 2 3 4 5 6 
#
# 1 125.3774 18.7894 27.7348 0.0000 0.0000 0.0000
# 2 18.7894 26.3335 12.2748 0.0000 0.0000 0.0000
# 3 27.7348 12.2748 96.2348 0.0000 0.0000 0.0000
# 4 0.0000 0.0000 0.0000 12.1056 0.0000 0.0000
# 5 0.0000 0.0000 0.0000 0.0000 15.7687 0.0000
# 6 0.0000 0.0000 0.0000 0.0000 0.0000 7.8123
#
#
#
# Elastic Compliance Matrix: (Units=1/GPa)
#
#
# Indices 1 2 3 4 5 6 
#
# 1 0.009260 -0.005702 -0.001941 0.000000 0.000000 0.000000
# 2 -0.005702 0.043886 -0.003954 0.000000 0.000000 0.000000
# 3 -0.001941 -0.003954 0.011455 0.000000 0.000000 0.000000
# 4 0.000000 0.000000 0.000000 0.082606 0.000000 0.000000
# 5 0.000000 0.000000 0.000000 0.000000 0.063417 0.000000
# 6 0.000000 0.000000 0.000000 0.000000 0.000000 0.128004
#
#
# Mechanical properties :
#
#
# Convention : Reuss Voigt Hill
#
# Bulk Modulus (GPa) = 24.15142 40.61599 32.38370
# Shear Modulus (GPa) = 13.31110 19.74708 16.52909
#
# Velocity S-wave (km/s) = 2.68625 3.27184 2.99340
# Velocity P-wave (km/s) = 4.76590 6.02421 5.43162
#
# Compressibility (1/GPa) = 0.04140544
#
# Stress axis : x y z
#
# Youngs Moduli (GPa) = 107.99228 22.78620 87.29710
#
# Poissons Ratio (x) = 0.12993 0.16948
# Poissons Ratio (y) = 0.61579 0.34520
# Poissons Ratio (z) = 0.20965 0.09010
#
# Static dielectric constant tensor:
#      x y z
#    x 1.644750 0.000000 0.000000 
#    y 0.000000 1.622270 0.000000 
#    z 0.000000 0.000000 1.669880 
# 
# From -- ./inp_files/67217.got.cif
#   From: 2010.05.17/outbox.cif.g08.bks.cpg/sg74_34_cif.got.tgz:67217.got - 2010.06.03 17:57:02.
