data_PCOD9535991
_publ_section_title
;
Structure prediction by ZEFSAII (Michael W. Deem and Ramdas Pophale) SiO2 
 PCOD9535991
Probable space group: I M M A
;
_chemical_formula_sum "Si O2"
_cell_formula_units_Z 88
_cell_length_a 23.823802
_cell_length_b 11.900977
_cell_length_c 14.524826
_cell_angle_alpha 90.000000
_cell_angle_beta 90.000000
_cell_angle_gamma 90.000000
_cell_volume 4118.173364
_symmetry_space_group_name_H-M "I M M A"
_symmetry_group_IT_number 74
_symmetry_cell_setting 'orthorhombic'
loop_
_space_group_symop_operation_xyz
x,y,z
-x,1/2-y,z
x,-y,-z
-x,1/2+y,-z
-x,-y,-z
x,1/2+y,-z
-x,y,z
x,1/2-y,z
1/2+x,1/2+y,1/2+z
1/2-x,-y,1/2+z
1/2+x,1/2-y,1/2-z
1/2-x,y,1/2-z
1/2-x,1/2-y,1/2-z
1/2+x,y,1/2-z
1/2-x,1/2+y,1/2+z
1/2+x,-y,1/2+z
loop_
_atom_site_type_symbol
_atom_site_label
_atom_site_fract_x
_atom_site_fract_y
_atom_site_fract_z
Si Si1 0.437875 0.121767 0.891643
Si Si2 0.439252 0.871238 0.577470
Si Si3 0.326614 0.378223 0.540764
Si Si4 0.660516 0.000000 0.000000
Si Si5 0.612237 0.461995 0.711128
Si Si6 0.802898 0.616122 0.682339
O O1 0.500000 0.067494 0.905018
O O2 0.443444 0.250000 0.917755
O O3 0.420470 0.110819 0.785027
O O4 0.384006 0.078566 0.947172
O O5 0.500000 0.876732 0.531225
O O6 0.436935 0.750000 0.627183
O O7 0.386700 0.871189 0.510022
O O8 0.430591 0.973858 0.645144
O O9 0.304378 0.500000 0.500000
O O10 0.300867 0.250000 0.527679
O O11 0.342159 0.397994 0.647655
O O12 0.695890 0.937799 0.919931
O O13 0.644921 0.559694 0.765883
O O14 0.807680 0.750000 0.674300
O O15 0.750000 0.592932 0.750000
#
# Coordination Sequence:
#
# PCOD9535991 Si02
#       6
#    16  16  16   8  16  16
#     4  10  20  33  54  85 119 155 192 234 296 372
#     4   9  17  29  46  73 112 157 201 243 293 354
#     4   9  18  31  48  73 110 157 202 246 297 352
#     4  10  21  40  64  88 120 154 199 256 312 368
#     4  10  19  32  53  79 113 151 198 252 302 362
#     4  10  22  42  66  89 116 157 206 259 321 382
#
# _framework density 21.368697999999998
#
# number of rings (size 3 to 8) (size 9 to 14) (size 15 to 20)
#    0.000    2.364    0.000    2.455    0.000    4.727 
#    4.909    1.818    0.000   27.273    0.000    0.000 
#    0.000    0.000    0.000    0.000    0.000    0.000 
#
# Total GULP energy -244988.078779 kJ/mol
# GULP energy per Si atom -5567.910881 kJ/mol
# Density = 2.132006 g / cm^3
# Si number density = 21.368698 Si / 1000 Ang^3
#
#
#
# Elastic Constant Matrix: (Units=GPa)
#
#
# Indices 1 2 3 4 5 6 
#
# 1 84.0446 32.1618 25.2246 0.0000 0.0000 0.0000
# 2 32.1618 128.7487 36.8019 0.0000 0.0000 0.0000
# 3 25.2246 36.8019 103.6373 0.0000 0.0000 0.0000
# 4 0.0000 0.0000 0.0000 14.1142 0.0000 0.0000
# 5 0.0000 0.0000 0.0000 0.0000 10.5201 0.0000
# 6 0.0000 0.0000 0.0000 0.0000 0.0000 14.5780
#
#
#
# Elastic Compliance Matrix: (Units=1/GPa)
#
#
# Indices 1 2 3 4 5 6 
#
# 1 0.013652 -0.002738 -0.002350 0.000000 0.000000 0.000000
# 2 -0.002738 0.009194 -0.002598 0.000000 0.000000 0.000000
# 3 -0.002350 -0.002598 0.011144 0.000000 0.000000 0.000000
# 4 0.000000 0.000000 0.000000 0.070851 0.000000 0.000000
# 5 0.000000 0.000000 0.000000 0.000000 0.095056 0.000000
# 6 0.000000 0.000000 0.000000 0.000000 0.000000 0.068596
#
#
# Mechanical properties :
#
#
# Convention : Reuss Voigt Hill
#
# Bulk Modulus (GPa) = 53.71911 56.08970 54.90441
# Shear Modulus (GPa) = 17.23712 22.65862 19.94787
#
# Velocity S-wave (km/s) = 2.84324 3.25986 3.05865
# Velocity P-wave (km/s) = 5.99770 6.36195 6.18251
#
# Compressibility (1/GPa) = 0.01861535
#
# Stress axis : x y z
#
# Youngs Moduli (GPa) = 73.25043 108.76870 89.73657
#
# Poissons Ratio (x) = 0.29786 0.21091
# Poissons Ratio (y) = 0.20059 0.23316
# Poissons Ratio (z) = 0.17216 0.28261
#
# Static dielectric constant tensor:
#      x y z
#    x 1.793370 0.000000 0.000000 
#    y 0.000000 1.821310 0.000000 
#    z 0.000000 0.000000 1.796820 
# 
# From -- ./inp_files/36264.got.cif
#   From: 2010.05.17/outbox.cif.g08.bks.cpg/sg74_19_cif.got.tgz:36264.got - 2010.06.03 17:57:02.
