data_PCOD9535889
_publ_section_title
;
Structure prediction by ZEFSAII (Michael W. Deem and Ramdas Pophale) SiO2 
 PCOD9535889
Probable space group: I M M A
;
_chemical_formula_sum "Si O2"
_cell_formula_units_Z 80
_cell_length_a 26.759277
_cell_length_b 8.492984
_cell_length_c 20.160541
_cell_angle_alpha 90.000000
_cell_angle_beta 90.000000
_cell_angle_gamma 90.000000
_cell_volume 4581.807757
_symmetry_space_group_name_H-M "I M M A"
_symmetry_group_IT_number 74
_symmetry_cell_setting 'orthorhombic'
loop_
_space_group_symop_operation_xyz
x,y,z
-x,1/2-y,z
x,-y,-z
-x,1/2+y,-z
-x,-y,-z
x,1/2+y,-z
-x,y,z
x,1/2-y,z
1/2+x,1/2+y,1/2+z
1/2-x,-y,1/2+z
1/2+x,1/2-y,1/2-z
1/2-x,y,1/2-z
1/2-x,1/2-y,1/2-z
1/2+x,y,1/2-z
1/2-x,1/2+y,1/2+z
1/2+x,-y,1/2+z
loop_
_atom_site_type_symbol
_atom_site_label
_atom_site_fract_x
_atom_site_fract_y
_atom_site_fract_z
Si Si1 0.608900 0.558584 0.326027
Si Si2 0.000000 0.560802 0.684667
Si Si3 0.194835 0.559764 0.073571
Si Si4 0.610078 0.562326 0.824574
Si Si5 0.500000 0.435715 0.667195
Si Si6 0.308647 0.438127 0.926595
O O1 0.608225 0.750000 0.324357
O O2 0.654260 0.506743 0.372696
O O3 0.614961 0.499956 0.250703
O O4 0.554613 0.502874 0.353728
O O5 0.946768 0.524018 0.651711
O O6 0.000000 0.467331 0.753856
O O7 0.000000 0.750000 0.698765
O O8 0.194263 0.750000 0.072892
O O9 0.251736 0.508476 0.089042
O O10 0.182567 0.500000 0.000000
O O11 0.614826 0.750000 0.823380
O O12 0.651793 0.493914 0.872607
O O13 0.500000 0.250000 0.653048
O O14 0.308531 0.250000 0.928302
O O15 0.321114 0.500000 0.000000
#
# Coordination Sequence:
#
# PCOD9535889 Si02
#       6
#    16   8  16  16   8  16
#     4   9  17  31  50  73  98 127 161 198 237 280
#     4   8  16  30  47  68  97 126 153 188 235 282
#     4   9  19  34  51  69  95 129 163 198 240 285
#     4  10  19  32  51  75  99 125 157 196 237 282
#     4   8  14  26  47  70  94 124 159 194 232 278
#     4  10  20  35  52  70  94 127 162 198 239 285
#
# _framework density 17.460356000000001
#
# number of rings (size 3 to 8) (size 9 to 14) (size 15 to 20)
#    0.000    2.800    0.000    1.200    0.000    3.200 
#    0.000    5.000    0.000    0.000    0.000    0.000 
#    0.000    0.000    0.000    0.000    0.000    0.000 
#
# Total GULP energy -222759.007860 kJ/mol
# GULP energy per Si atom -5568.975197 kJ/mol
# Density = 1.742062 g / cm^3
# Si number density = 17.460356 Si / 1000 Ang^3
#
#
#
# Elastic Constant Matrix: (Units=GPa)
#
#
# Indices 1 2 3 4 5 6 
#
# 1 173.4065 31.0499 106.2685 0.0000 0.0000 0.0000
# 2 31.0499 17.9744 19.1321 0.0000 0.0000 0.0000
# 3 106.2685 19.1321 89.8210 0.0000 0.0000 0.0000
# 4 0.0000 0.0000 0.0000 25.9212 0.0000 0.0000
# 5 0.0000 0.0000 0.0000 0.0000 -20.1781 0.0000
# 6 0.0000 0.0000 0.0000 0.0000 0.0000 19.0561
#
#
#
# Elastic Compliance Matrix: (Units=1/GPa)
#
#
# Indices 1 2 3 4 5 6 
#
# 1 0.023483 -0.014216 -0.024754 0.000000 0.000000 0.000000
# 2 -0.014216 0.080553 -0.000339 0.000000 0.000000 0.000000
# 3 -0.024754 -0.000339 0.040493 0.000000 0.000000 0.000000
# 4 0.000000 0.000000 0.000000 0.038578 0.000000 0.000000
# 5 0.000000 0.000000 0.000000 0.000000 -0.049559 0.000000
# 6 0.000000 0.000000 0.000000 0.000000 0.000000 0.052477
#
#
# Mechanical properties :
#
#
# Convention : Reuss Voigt Hill
#
# Bulk Modulus (GPa) = 15.17231 66.01141 40.59186
# Shear Modulus (GPa) = 17.44514 13.27660 15.36087
#
# Velocity S-wave (km/s) = 3.16433 2.76050 2.96929
# Velocity P-wave (km/s) = 4.69671 6.93174 5.92065
#
# Compressibility (1/GPa) = 0.06590955
#
# Stress axis : x y z
#
# Youngs Moduli (GPa) = 42.58483 12.41422 24.69577
#
# Poissons Ratio (x) = 0.17648 0.61133
# Poissons Ratio (y) = 0.60539 0.00837
# Poissons Ratio (z) = 1.05416 0.00421
#
# Static dielectric constant tensor:
#      x y z
#    x 1.648700 0.000000 0.000000 
#    y 0.000000 1.601160 0.000000 
#    z 0.000000 0.000000 1.539840 
# 
# From -- ./inp_files/39793.got.cif
#   From: 2010.05.17/outbox.cif.g08.bks.cpg/sg74_20_cif.got.tgz:39793.got - 2010.06.03 17:57:02.
