data_PCOD9535688
_publ_section_title
;
Structure prediction by ZEFSAII (Michael W. Deem and Ramdas Pophale) SiO2 
 PCOD9535688
Probable space group: I M M A
;
_chemical_formula_sum "Si O2"
_cell_formula_units_Z 88
_cell_length_a 18.006298
_cell_length_b 8.830794
_cell_length_c 29.902602
_cell_angle_alpha 90.000000
_cell_angle_beta 90.000000
_cell_angle_gamma 90.000000
_cell_volume 4754.810003
_symmetry_space_group_name_H-M "I M M A"
_symmetry_group_IT_number 74
_symmetry_cell_setting 'orthorhombic'
loop_
_space_group_symop_operation_xyz
x,y,z
-x,1/2-y,z
x,-y,-z
-x,1/2+y,-z
-x,-y,-z
x,1/2+y,-z
-x,y,z
x,1/2-y,z
1/2+x,1/2+y,1/2+z
1/2-x,-y,1/2+z
1/2+x,1/2-y,1/2-z
1/2-x,y,1/2-z
1/2-x,1/2-y,1/2-z
1/2+x,y,1/2-z
1/2-x,1/2+y,1/2+z
1/2+x,-y,1/2+z
loop_
_atom_site_type_symbol
_atom_site_label
_atom_site_fract_x
_atom_site_fract_y
_atom_site_fract_z
Si Si1 0.914733 0.434938 0.616309
Si Si2 0.861686 0.930998 0.102423
Si Si3 0.088361 0.929573 0.807840
Si Si4 0.090326 0.075441 0.714978
Si Si5 0.500000 0.569207 0.549434
Si Si6 0.787987 0.932331 0.450695
O O1 0.915066 0.250000 0.617426
O O2 0.887002 0.481436 0.665812
O O3 0.860246 0.483577 0.577021
O O4 0.000000 0.483803 0.609831
O O5 0.871377 0.750000 0.100340
O O6 0.928113 0.011067 0.075852
O O7 0.784622 0.970703 0.078382
O O8 0.867411 0.984989 0.153484
O O9 0.095724 0.750000 0.813241
O O10 0.000000 0.967101 0.812708
O O11 0.111930 0.980051 0.758210
O O12 0.114277 0.250000 0.720668
O O13 0.000000 0.076121 0.713368
O O14 0.500000 0.250000 0.452680
O O15 0.500000 0.500000 0.500000
O O16 0.790675 0.750000 0.454282
O O17 0.784139 0.000000 0.500000
#
# Coordination Sequence:
#
# PCOD9535688 Si02
#       6
#    16  16  16  16   8  16
#     4   8  15  32  58  84 109 139 179 224 266 317
#     4  11  22  36  54  77 107 144 185 226 268 321
#     4  10  19  31  50  78 110 143 179 223 269 318
#     4   8  14  27  51  79 105 138 178 219 262 312
#     4  12  24  38  56  78 104 138 184 232 275 322
#     4  10  22  38  56  80 108 141 180 224 276 325
#
# _framework density 18.507573000000001
#
# number of rings (size 3 to 8) (size 9 to 14) (size 15 to 20)
#    0.000    2.364    0.909    3.545    0.000    4.000 
#    0.000    1.818    0.000    6.545    0.000    0.000 
#    0.000    0.000    0.000    0.000    0.000    0.000 
#
# Total GULP energy -245529.195492 kJ/mol
# GULP energy per Si atom -5580.208988 kJ/mol
# Density = 1.846545 g / cm^3
# Si number density = 18.507573 Si / 1000 Ang^3
#
#
#
# Elastic Constant Matrix: (Units=GPa)
#
#
# Indices 1 2 3 4 5 6 
#
# 1 89.2164 36.3331 71.0697 0.0000 0.0000 0.0000
# 2 36.3331 43.8581 45.2913 0.0000 0.0000 0.0000
# 3 71.0697 45.2913 144.3794 0.0000 0.0000 0.0000
# 4 0.0000 0.0000 0.0000 28.9118 0.0000 0.0000
# 5 0.0000 0.0000 0.0000 0.0000 34.3289 0.0000
# 6 0.0000 0.0000 0.0000 0.0000 0.0000 4.7042
#
#
#
# Elastic Compliance Matrix: (Units=1/GPa)
#
#
# Indices 1 2 3 4 5 6 
#
# 1 0.021015 -0.009950 -0.007223 0.000000 0.000000 0.000000
# 2 -0.009950 0.038437 -0.007160 0.000000 0.000000 0.000000
# 3 -0.007223 -0.007160 0.012728 0.000000 0.000000 0.000000
# 4 0.000000 0.000000 0.000000 0.034588 0.000000 0.000000
# 5 0.000000 0.000000 0.000000 0.000000 0.029130 0.000000
# 6 0.000000 0.000000 0.000000 0.000000 0.000000 0.212574
#
#
# Mechanical properties :
#
#
# Convention : Reuss Voigt Hill
#
# Bulk Modulus (GPa) = 42.52781 64.76024 53.64403
# Shear Modulus (GPa) = 12.34642 21.90631 17.12636
#
# Velocity S-wave (km/s) = 2.58563 3.44414 3.04529
# Velocity P-wave (km/s) = 5.65177 7.13325 6.43528
#
# Compressibility (1/GPa) = 0.02351402
#
# Stress axis : x y z
#
# Youngs Moduli (GPa) = 47.58569 26.01628 78.56869
#
# Poissons Ratio (x) = 0.25886 0.56751
# Poissons Ratio (y) = 0.47348 0.56254
# Poissons Ratio (z) = 0.34371 0.18627
#
# Static dielectric constant tensor:
#      x y z
#    x 1.638440 0.000000 0.000000 
#    y 0.000000 1.624020 0.000000 
#    z 0.000000 0.000000 1.637350 
# 
# From -- ./inp_files/72941.got.cif
#   From: 2010.05.17/outbox.cif.g08.bks.cpg/sg74_37_cif.got.tgz:72941.got - 2010.06.03 17:57:02.
