data_PCOD9535150
_publ_section_title
;
Structure prediction by ZEFSAII (Michael W. Deem and Ramdas Pophale) SiO2 
 PCOD9535150
Probable space group: I M M A
;
_chemical_formula_sum "Si O2"
_cell_formula_units_Z 76
_cell_length_a 12.159241
_cell_length_b 11.482985
_cell_length_c 31.373137
_cell_angle_alpha 90.000000
_cell_angle_beta 90.000000
_cell_angle_gamma 90.000000
_cell_volume 4380.454865
_symmetry_space_group_name_H-M "I M M A"
_symmetry_group_IT_number 74
_symmetry_cell_setting 'orthorhombic'
loop_
_space_group_symop_operation_xyz
x,y,z
-x,1/2-y,z
x,-y,-z
-x,1/2+y,-z
-x,-y,-z
x,1/2+y,-z
-x,y,z
x,1/2-y,z
1/2+x,1/2+y,1/2+z
1/2-x,-y,1/2+z
1/2+x,1/2-y,1/2-z
1/2-x,y,1/2-z
1/2-x,1/2-y,1/2-z
1/2+x,y,1/2-z
1/2-x,1/2+y,1/2+z
1/2+x,-y,1/2+z
loop_
_atom_site_type_symbol
_atom_site_label
_atom_site_fract_x
_atom_site_fract_y
_atom_site_fract_z
Si Si1 0.276732 0.501960 0.547336
Si Si2 0.370642 0.390218 0.878982
Si Si3 0.226977 0.109733 0.797934
Si Si4 0.500000 0.489564 0.667573
Si Si5 0.500000 0.611901 0.427404
Si Si6 0.874729 0.750000 0.930083
Si Si7 0.500000 0.250000 0.346796
O O1 0.228289 0.500000 0.500000
O O2 0.196279 0.451978 0.583292
O O3 0.389080 0.425374 0.548492
O O4 0.312842 0.633410 0.557450
O O5 0.500000 0.416813 0.880115
O O6 0.357650 0.250000 0.883565
O O7 0.316657 0.423952 0.833587
O O8 0.225586 0.250000 0.796949
O O9 0.250000 0.068051 0.750000
O O10 0.109079 0.066503 0.813481
O O11 0.500000 0.461442 0.616858
O O12 0.500000 0.627318 0.676303
O O13 0.500000 0.750000 0.418454
O O14 0.896712 0.750000 0.879325
O O15 0.000000 0.750000 0.948578
#
# Coordination Sequence:
#
# PCOD9535150 Si02
#       7
#    16  16  16   8   8   8   4
#     4  12  24  36  58  86 118 158 200 244 294 352
#     4  10  22  41  59  82 120 158 195 243 298 349
#     4  10  21  36  61  94 120 146 185 241 303 356
#     4  12  20  37  60  90 121 154 194 236 293 358
#     4  12  21  34  59  90 123 149 190 247 300 357
#     4  10  20  38  53  83 122 156 189 239 299 343
#     4  10  18  36  56  76 124 160 186 226 292 338
#
# _framework density 17.349796999999999
#
# number of rings (size 3 to 8) (size 9 to 14) (size 15 to 20)
#    0.316    0.842    5.263    1.895    4.421    0.421 
#    0.000    1.053    0.000    0.000    0.000    0.000 
#    0.000    0.000    0.000    0.000    0.000    0.000 
#
# Total GULP energy -212147.547137 kJ/mol
# GULP energy per Si atom -5582.830188 kJ/mol
# Density = 1.731031 g / cm^3
# Si number density = 17.349797 Si / 1000 Ang^3
#
#
#
# Elastic Constant Matrix: (Units=GPa)
#
#
# Indices 1 2 3 4 5 6 
#
# 1 117.0351 40.6273 62.3628 0.0000 0.0000 0.0000
# 2 40.6273 58.2984 25.7027 0.0000 0.0000 0.0000
# 3 62.3628 25.7027 133.3750 0.0000 0.0000 0.0000
# 4 0.0000 0.0000 0.0000 46.8028 0.0000 0.0000
# 5 0.0000 0.0000 0.0000 0.0000 12.3241 0.0000
# 6 0.0000 0.0000 0.0000 0.0000 0.0000 13.5102
#
#
#
# Elastic Compliance Matrix: (Units=1/GPa)
#
#
# Indices 1 2 3 4 5 6 
#
# 1 0.013787 -0.007394 -0.005022 0.000000 0.000000 0.000000
# 2 -0.007394 0.022711 -0.000919 0.000000 0.000000 0.000000
# 3 -0.005022 -0.000919 0.010023 0.000000 0.000000 0.000000
# 4 0.000000 0.000000 0.000000 0.021366 0.000000 0.000000
# 5 0.000000 0.000000 0.000000 0.000000 0.081142 0.000000
# 6 0.000000 0.000000 0.000000 0.000000 0.000000 0.074018
#
#
# Mechanical properties :
#
#
# Convention : Reuss Voigt Hill
#
# Bulk Modulus (GPa) = 50.37522 62.89936 56.63729
# Shear Modulus (GPa) = 19.50580 26.52846 23.01713
#
# Velocity S-wave (km/s) = 3.35665 3.91453 3.64627
# Velocity P-wave (km/s) = 6.64235 7.53417 7.10227
#
# Compressibility (1/GPa) = 0.01985103
#
# Stress axis : x y z
#
# Youngs Moduli (GPa) = 72.53234 44.03099 99.77263
#
# Poissons Ratio (x) = 0.32557 0.50101
# Poissons Ratio (y) = 0.53631 0.09173
# Poissons Ratio (z) = 0.36422 0.04048
#
# Static dielectric constant tensor:
#      x y z
#    x 1.570620 0.000000 0.000000 
#    y 0.000000 1.581040 0.000000 
#    z 0.000000 0.000000 1.608280 
# 
# From -- ./inp_files/71566.got.cif
#   From: 2010.05.17/outbox.cif.g08.bks.cpg/sg74_36_cif.got.tgz:71566.got - 2010.06.03 17:57:02.
