data_PCOD9535267
_publ_section_title
;
Structure prediction by ZEFSAII (Michael W. Deem and Ramdas Pophale) SiO2 
 PCOD9535267
Probable space group: I M M A
;
_chemical_formula_sum "Si O2"
_cell_formula_units_Z 100
_cell_length_a 32.956446
_cell_length_b 7.804314
_cell_length_c 19.065026
_cell_angle_alpha 90.000000
_cell_angle_beta 90.000000
_cell_angle_gamma 90.000000
_cell_volume 4903.571452
_symmetry_space_group_name_H-M "I M M A"
_symmetry_group_IT_number 74
_symmetry_cell_setting 'orthorhombic'
loop_
_space_group_symop_operation_xyz
x,y,z
-x,1/2-y,z
x,-y,-z
-x,1/2+y,-z
-x,-y,-z
x,1/2+y,-z
-x,y,z
x,1/2-y,z
1/2+x,1/2+y,1/2+z
1/2-x,-y,1/2+z
1/2+x,1/2-y,1/2-z
1/2-x,y,1/2-z
1/2-x,1/2-y,1/2-z
1/2+x,y,1/2-z
1/2-x,1/2+y,1/2+z
1/2+x,-y,1/2+z
loop_
_atom_site_type_symbol
_atom_site_label
_atom_site_fract_x
_atom_site_fract_y
_atom_site_fract_z
Si Si1 0.190479 0.945489 0.578338
Si Si2 0.145413 0.953741 0.152767
Si Si3 0.500000 0.750000 0.440127
Si Si4 0.871204 0.553146 0.309249
Si Si5 0.938990 0.948674 0.895236
Si Si6 0.455475 0.046132 0.228892
Si Si7 0.236999 0.041750 0.170761
O O1 0.202422 0.750000 0.572898
O O2 0.228423 0.028028 0.618696
O O3 0.181811 0.000000 0.500000
O O4 0.152014 0.962688 0.628681
O O5 0.137565 0.750000 0.153071
O O6 0.138974 0.021792 0.232524
O O7 0.110141 0.031806 0.103640
O O8 0.192983 0.985884 0.142407
O O9 0.464337 0.596654 0.433529
O O10 0.857855 0.750000 0.309873
O O11 0.919437 0.541422 0.312600
O O12 0.950331 0.750000 0.912668
O O13 0.949671 0.978122 0.812599
O O14 0.500000 0.983269 0.210099
O O15 0.453150 0.250000 0.217110
O O16 0.236262 0.250000 0.173403
O O17 0.250000 0.986513 0.250000
#
# Coordination Sequence:
#
# PCOD9535267 Si02
#       7
#    16  16   4  16  16  16  16
#     4  11  23  39  57  76 104 138 180 226 275 330
#     4  10  19  31  49  76 107 137 180 224 269 327
#     4  12  18  28  44  66 102 140 194 212 276 326
#     4  10  20  31  49  74 102 134 173 223 272 319
#     4  10  19  29  43  66 102 143 180 224 269 326
#     4   9  17  28  44  67  96 133 174 215 272 323
#     4  10  20  35  55  78 105 140 179 223 276 333
#
# _framework density 20.3933
#
# number of rings (size 3 to 8) (size 9 to 14) (size 15 to 20)
#    0.000    1.920    3.200    1.680    1.120    3.200 
#    0.000    0.000    0.000    0.480    0.000    0.000 
#    0.000    0.000    0.000    0.720    4.640    1.440 
#
# Total GULP energy -278489.786929 kJ/mol
# GULP energy per Si atom -5569.795739 kJ/mol
# Density = 2.034688 g / cm^3
# Si number density = 20.393300 Si / 1000 Ang^3
#
#
#
# Elastic Constant Matrix: (Units=GPa)
#
#
# Indices 1 2 3 4 5 6 
#
# 1 136.4810 14.5390 27.3507 0.0000 0.0000 0.0000
# 2 14.5390 80.7458 21.2064 0.0000 0.0000 0.0000
# 3 27.3507 21.2064 56.6958 0.0000 0.0000 0.0000
# 4 0.0000 0.0000 0.0000 9.8180 0.0000 0.0000
# 5 0.0000 0.0000 0.0000 0.0000 -13.0155 0.0000
# 6 0.0000 0.0000 0.0000 0.0000 0.0000 32.6740
#
#
#
# Elastic Compliance Matrix: (Units=1/GPa)
#
#
# Indices 1 2 3 4 5 6 
#
# 1 0.008128 -0.000481 -0.003741 0.000000 0.000000 0.000000
# 2 -0.000481 0.013762 -0.004916 0.000000 0.000000 0.000000
# 3 -0.003741 -0.004916 0.021281 0.000000 0.000000 0.000000
# 4 0.000000 0.000000 0.000000 0.101854 0.000000 0.000000
# 5 0.000000 0.000000 0.000000 0.000000 -0.076832 0.000000
# 6 0.000000 0.000000 0.000000 0.000000 0.000000 0.030605
#
#
# Mechanical properties :
#
#
# Convention : Reuss Voigt Hill
#
# Bulk Modulus (GPa) = 40.16680 44.45719 42.31199
# Shear Modulus (GPa) = 39.88098 19.95041 29.91570
#
# Velocity S-wave (km/s) = 4.42701 3.13114 3.83422
# Velocity P-wave (km/s) = 6.77274 5.90926 6.35568
#
# Compressibility (1/GPa) = 0.02489619
#
# Stress axis : x y z
#
# Youngs Moduli (GPa) = 123.03175 72.66326 46.98958
#
# Poissons Ratio (x) = 0.03495 0.17579
# Poissons Ratio (y) = 0.05918 0.23098
# Poissons Ratio (z) = 0.46028 0.35718
#
# Static dielectric constant tensor:
#      x y z
#    x 1.756450 0.000000 0.000000 
#    y 0.000000 1.753610 0.000000 
#    z 0.000000 0.000000 1.751580 
# 
# From -- ./inp_files/55636.got.cif
#   From: 2010.05.17/outbox.cif.g08.bks.cpg/sg74_28_cif.got.tgz:55636.got - 2010.06.03 17:57:02.
