data_PCOD9535284
_publ_section_title
;
Structure prediction by ZEFSAII (Michael W. Deem and Ramdas Pophale) SiO2 
 PCOD9535284
Probable space group: I M M A
;
_chemical_formula_sum "Si O2"
_cell_formula_units_Z 80
_cell_length_a 34.319291
_cell_length_b 27.350059
_cell_length_c 5.074611
_cell_angle_alpha 90.000000
_cell_angle_beta 90.000000
_cell_angle_gamma 90.000000
_cell_volume 4763.205637
_symmetry_space_group_name_H-M "I M M A"
_symmetry_group_IT_number 74
_symmetry_cell_setting 'orthorhombic'
loop_
_space_group_symop_operation_xyz
x,y,z
-x,1/2-y,z
x,-y,-z
-x,1/2+y,-z
-x,-y,-z
x,1/2+y,-z
-x,y,z
x,1/2-y,z
1/2+x,1/2+y,1/2+z
1/2-x,-y,1/2+z
1/2+x,1/2-y,1/2-z
1/2-x,y,1/2-z
1/2-x,1/2-y,1/2-z
1/2+x,y,1/2-z
1/2-x,1/2+y,1/2+z
1/2+x,-y,1/2+z
loop_
_atom_site_type_symbol
_atom_site_label
_atom_site_fract_x
_atom_site_fract_y
_atom_site_fract_z
Si Si1 0.721860 0.556195 0.000425
Si Si2 0.789561 0.807585 0.897506
Si Si3 0.326803 0.149442 0.909679
Si Si4 0.456271 0.191691 0.216486
Si Si5 0.906157 0.808430 0.203934
O O1 0.750000 0.563459 0.750000
O O2 0.707782 0.500000 0.000000
O O3 0.750000 0.562431 0.250000
O O4 0.686997 0.595047 0.015793
O O5 0.787148 0.750000 0.947249
O O6 0.750000 0.823377 0.750000
O O7 0.821934 0.819178 0.676974
O O8 0.798171 0.832778 0.174561
O O9 0.369178 0.160179 0.792805
O O10 0.500000 0.171627 0.245960
O O11 0.458809 0.250000 0.265924
O O12 0.424738 0.174565 0.429382
O O13 0.439467 0.186153 0.924770
O O14 0.895306 0.750000 0.191155
#
# Coordination Sequence:
#
# PCOD9535284 Si02
#       5
#    16  16  16  16  16
#     4  10  21  37  55  72  91 122 166 211 252 291
#     4  11  22  33  46  66  95 133 168 193 227 284
#     4  12  21  33  50  70  98 126 160 205 251 285
#     4   9  17  30  46  64  91 127 161 189 221 271
#     4  10  19  29  44  68  96 125 155 190 234 281
#
# _framework density 16.795413
#
# number of rings (size 3 to 8) (size 9 to 14) (size 15 to 20)
#    0.000    1.600    0.000    7.200    0.000    5.600 
#    0.000    0.000    0.000    0.000    0.000    0.000 
#    0.000    4.800    0.000    0.000    0.000    0.000 
#
# Total GULP energy -223310.126243 kJ/mol
# GULP energy per Si atom -5582.753156 kJ/mol
# Density = 1.675719 g / cm^3
# Si number density = 16.795413 Si / 1000 Ang^3
#
#
#
# Elastic Constant Matrix: (Units=GPa)
#
#
# Indices 1 2 3 4 5 6 
#
# 1 61.7729 24.7867 -9.5575 0.0000 0.0000 0.0000
# 2 24.7867 81.6143 9.8724 0.0000 0.0000 0.0000
# 3 -9.5575 9.8724 76.2947 0.0000 0.0000 0.0000
# 4 0.0000 0.0000 0.0000 11.3138 0.0000 0.0000
# 5 0.0000 0.0000 0.0000 0.0000 5.9072 0.0000
# 6 0.0000 0.0000 0.0000 0.0000 0.0000 10.9746
#
#
#
# Elastic Compliance Matrix: (Units=1/GPa)
#
#
# Indices 1 2 3 4 5 6 
#
# 1 0.019177 -0.006212 0.003206 0.000000 0.000000 0.000000
# 2 -0.006212 0.014460 -0.002649 0.000000 0.000000 0.000000
# 3 0.003206 -0.002649 0.013852 0.000000 0.000000 0.000000
# 4 0.000000 0.000000 0.000000 0.088387 0.000000 0.000000
# 5 0.000000 0.000000 0.000000 0.000000 0.169285 0.000000
# 6 0.000000 0.000000 0.000000 0.000000 0.000000 0.091119
#
#
# Mechanical properties :
#
#
# Convention : Reuss Voigt Hill
#
# Bulk Modulus (GPa) = 27.64101 29.98723 28.81412
# Shear Modulus (GPa) = 11.91471 18.61115 15.26293
#
# Velocity S-wave (km/s) = 2.66635 3.33244 3.01783
# Velocity P-wave (km/s) = 5.09632 5.71839 5.41629
#
# Compressibility (1/GPa) = 0.03617813
#
# Stress axis : x y z
#
# Youngs Moduli (GPa) = 52.14590 69.15708 72.19426
#
# Poissons Ratio (x) = 0.42960 -0.23147
# Poissons Ratio (y) = 0.32393 0.19126
# Poissons Ratio (z) = -0.16719 0.18322
#
# Static dielectric constant tensor:
#      x y z
#    x 1.600930 0.000000 0.000000 
#    y 0.000000 1.562220 0.000000 
#    z 0.000000 0.000000 1.584850 
# 
# From -- ./inp_files/4595.got.cif
#   From: 2010.05.17/outbox.cif.g08.bks.cpg/sg74_3_cif.got.tgz:4595.got - 2010.06.03 17:57:02.
