data_PCOD9535113
_publ_section_title
;
Structure prediction by ZEFSAII (Michael W. Deem and Ramdas Pophale) SiO2 
 PCOD9535113
Probable space group: I M M A
;
_chemical_formula_sum "Si O2"
_cell_formula_units_Z 84
_cell_length_a 26.344172
_cell_length_b 13.814555
_cell_length_c 9.479787
_cell_angle_alpha 90.000000
_cell_angle_beta 90.000000
_cell_angle_gamma 90.000000
_cell_volume 3450.007446
_symmetry_space_group_name_H-M "I M M A"
_symmetry_group_IT_number 74
_symmetry_cell_setting 'orthorhombic'
loop_
_space_group_symop_operation_xyz
x,y,z
-x,1/2-y,z
x,-y,-z
-x,1/2+y,-z
-x,-y,-z
x,1/2+y,-z
-x,y,z
x,1/2-y,z
1/2+x,1/2+y,1/2+z
1/2-x,-y,1/2+z
1/2+x,1/2-y,1/2-z
1/2-x,y,1/2-z
1/2-x,1/2-y,1/2-z
1/2+x,y,1/2-z
1/2-x,1/2+y,1/2+z
1/2+x,-y,1/2+z
loop_
_atom_site_type_symbol
_atom_site_label
_atom_site_fract_x
_atom_site_fract_y
_atom_site_fract_z
Si Si1 0.943669 0.858699 0.289664
Si Si2 0.691323 0.614346 0.494942
Si Si3 0.298090 0.856688 0.887816
Si Si4 0.000000 0.250000 0.165664
Si Si5 0.423635 0.114615 0.470892
Si Si6 0.333238 0.569284 0.189218
O O1 0.935465 0.750000 0.349701
O O2 0.943838 0.847282 0.120537
O O3 0.894617 0.925154 0.314343
O O4 0.000000 0.892679 0.333821
O O5 0.697361 0.500000 0.500000
O O6 0.737273 0.650819 0.589397
O O7 0.635308 0.639087 0.546664
O O8 0.688071 0.627835 0.324874
O O9 0.317254 0.750000 0.844788
O O10 0.314811 0.957097 0.811764
O O11 0.315345 0.879158 0.048095
O O12 0.043821 0.164501 0.149226
O O13 0.427725 0.000000 0.500000
#
# Coordination Sequence:
#
# PCOD9535113 Si02
#       6
#    16  16  16   4  16  16
#     4  10  18  34  61  89 114 151 205 255 305 361
#     4  10  21  38  61  87 121 158 204 252 303 364
#     4  11  23  39  62  86 121 164 206 253 307 363
#     4  12  18  32  52  82 126 156 204 242 304 374
#     4  10  20  32  54  84 120 159 194 251 306 359
#     4  10  22  39  63  88 124 158 202 262 307 356
#
# _framework density 24.347773
#
# number of rings (size 3 to 8) (size 9 to 14) (size 15 to 20)
#    0.000    1.714    3.810    1.429    1.333    2.286 
#    0.000    3.810   12.571    1.714    0.000    0.000 
#    0.000    0.000    0.000    0.000    0.000    0.000 
#
# Total GULP energy -234010.903601 kJ/mol
# GULP energy per Si atom -5571.688181 kJ/mol
# Density = 2.429236 g / cm^3
# Si number density = 24.347773 Si / 1000 Ang^3
#
#
#
# Elastic Constant Matrix: (Units=GPa)
#
#
# Indices 1 2 3 4 5 6 
#
# 1 191.6046 67.8865 10.0109 0.0000 0.0000 0.0000
# 2 67.8865 188.2460 13.0821 0.0000 0.0000 0.0000
# 3 10.0109 13.0821 50.7975 0.0000 0.0000 0.0000
# 4 0.0000 0.0000 0.0000 4.7255 0.0000 0.0000
# 5 0.0000 0.0000 0.0000 0.0000 1.0864 0.0000
# 6 0.0000 0.0000 0.0000 0.0000 0.0000 -214.7877
#
#
#
# Elastic Compliance Matrix: (Units=1/GPa)
#
#
# Indices 1 2 3 4 5 6 
#
# 1 0.006004 -0.002121 -0.000637 0.000000 0.000000 0.000000
# 2 -0.002121 0.006158 -0.001168 0.000000 0.000000 0.000000
# 3 -0.000637 -0.001168 0.020112 0.000000 0.000000 0.000000
# 4 0.000000 0.000000 0.000000 0.211616 0.000000 0.000000
# 5 0.000000 0.000000 0.000000 0.000000 0.920439 0.000000
# 6 0.000000 0.000000 0.000000 0.000000 0.000000 -0.004656
#
#
# Mechanical properties :
#
#
# Convention : Reuss Voigt Hill
#
# Bulk Modulus (GPa) = 40.94557 68.06745 54.50651
# Shear Modulus (GPa) = 4.25291 -19.15056 -7.44883
#
# Velocity S-wave (km/s) = 1.32307 -2.80758 -1.75100
# Velocity P-wave (km/s) = 4.38036 4.18414 4.28337
#
# Compressibility (1/GPa) = 0.02442267
#
# Stress axis : x y z
#
# Youngs Moduli (GPa) = 166.56131 162.38496 49.72071
#
# Poissons Ratio (x) = 0.34440 0.03167
# Poissons Ratio (y) = 0.35325 0.05807
# Poissons Ratio (z) = 0.10610 0.18966
#
# Static dielectric constant tensor:
#      x y z
#    x 2.019660 0.000000 0.000000 
#    y 0.000000 2.044510 0.000000 
#    z 0.000000 0.000000 2.018330 
# 
# From -- ./inp_files/24984.got.cif
#   From: 2010.05.17/outbox.cif.g08.bks.cpg/sg74_13_cif.got.tgz:24984.got - 2010.06.03 17:57:02.
