data_PCOD9536821
_publ_section_title
;
Structure prediction by ZEFSAII (Michael W. Deem and Ramdas Pophale) SiO2 
 PCOD9536821
Probable space group: I M M A
;
_chemical_formula_sum "Si O2"
_cell_formula_units_Z 88
_cell_length_a 23.714664
_cell_length_b 20.155544
_cell_length_c 9.373484
_cell_angle_alpha 90.000000
_cell_angle_beta 90.000000
_cell_angle_gamma 90.000000
_cell_volume 4480.356195
_symmetry_space_group_name_H-M "I M M A"
_symmetry_group_IT_number 74
_symmetry_cell_setting 'orthorhombic'
loop_
_space_group_symop_operation_xyz
x,y,z
-x,1/2-y,z
x,-y,-z
-x,1/2+y,-z
-x,-y,-z
x,1/2+y,-z
-x,y,z
x,1/2-y,z
1/2+x,1/2+y,1/2+z
1/2-x,-y,1/2+z
1/2+x,1/2-y,1/2-z
1/2-x,y,1/2-z
1/2-x,1/2-y,1/2-z
1/2+x,y,1/2-z
1/2-x,1/2+y,1/2+z
1/2+x,-y,1/2+z
loop_
_atom_site_type_symbol
_atom_site_label
_atom_site_fract_x
_atom_site_fract_y
_atom_site_fract_z
Si Si1 0.396569 0.101571 0.201709
Si Si2 0.354078 0.500000 0.000000
Si Si3 0.500000 0.667980 0.634026
Si Si4 0.000000 0.830420 0.202477
Si Si5 0.279958 0.620109 0.109051
Si Si6 0.897840 0.326185 0.602382
Si Si7 0.700719 0.824259 0.634364
O O1 0.389603 0.026542 0.137645
O O2 0.447641 0.129579 0.295011
O O3 0.342835 0.124150 0.295918
O O4 0.401744 0.141101 0.052461
O O5 0.312367 0.440092 0.964544
O O6 0.500000 0.750000 0.656051
O O7 0.500000 0.654419 0.464609
O O8 0.943721 0.853895 0.286025
O O9 0.000000 0.750000 0.206924
O O10 0.250000 0.595827 0.250000
O O11 0.332559 0.667669 0.148431
O O12 0.233117 0.652602 0.007448
O O13 0.911935 0.250000 0.582916
O O14 0.675124 0.750000 0.615706
O O15 0.750000 0.818597 0.750000
#
# Coordination Sequence:
#
# PCOD9536821 Si02
#       7
#    16   8   8   8  16  16  16
#     4  11  23  40  66  93 125 174 221 268 319 382
#     4  10  24  43  62  88 124 173 226 264 306 390
#     4  11  23  40  65  97 128 162 214 274 340 387
#     4   9  21  37  59  90 130 162 196 261 330 402
#     4  11  25  38  61  91 125 172 208 263 326 389
#     4  10  19  37  59  87 123 162 207 258 329 392
#     4  11  21  38  63  97 129 158 210 275 334 389
#
# _framework density 19.641296000000001
#
# number of rings (size 3 to 8) (size 9 to 14) (size 15 to 20)
#    0.000    1.455    3.636    2.727    5.091    2.545 
#    0.000    0.909    0.000    4.364    0.000    0.000 
#    0.000    0.000    0.000    0.000    0.000    0.000 
#
# Total GULP energy -245017.820344 kJ/mol
# GULP energy per Si atom -5568.586826 kJ/mol
# Density = 1.959659 g / cm^3
# Si number density = 19.641296 Si / 1000 Ang^3
#
#
#
# Elastic Constant Matrix: (Units=GPa)
#
#
# Indices 1 2 3 4 5 6 
#
# 1 109.7068 11.7664 64.5386 0.0000 0.0000 0.0000
# 2 11.7664 59.1960 21.3185 0.0000 0.0000 0.0000
# 3 64.5386 21.3185 103.3164 0.0000 0.0000 0.0000
# 4 0.0000 0.0000 0.0000 40.8963 0.0000 0.0000
# 5 0.0000 0.0000 0.0000 0.0000 26.0748 0.0000
# 6 0.0000 0.0000 0.0000 0.0000 0.0000 12.6100
#
#
#
# Elastic Compliance Matrix: (Units=1/GPa)
#
#
# Indices 1 2 3 4 5 6 
#
# 1 0.014420 0.000408 -0.009092 0.000000 0.000000 0.000000
# 2 0.000408 0.018261 -0.004023 0.000000 0.000000 0.000000
# 3 -0.009092 -0.004023 0.016189 0.000000 0.000000 0.000000
# 4 0.000000 0.000000 0.000000 0.024452 0.000000 0.000000
# 5 0.000000 0.000000 0.000000 0.000000 0.038351 0.000000
# 6 0.000000 0.000000 0.000000 0.000000 0.000000 0.079302
#
#
# Mechanical properties :
#
#
# Convention : Reuss Voigt Hill
#
# Bulk Modulus (GPa) = 42.63336 51.94067 47.28701
# Shear Modulus (GPa) = 22.30080 27.55592 24.92836
#
# Velocity S-wave (km/s) = 3.37323 3.74967 3.56642
# Velocity P-wave (km/s) = 6.07657 6.72672 6.40989
#
# Compressibility (1/GPa) = 0.02345581
#
# Stress axis : x y z
#
# Youngs Moduli (GPa) = 69.34765 54.76243 61.77197
#
# Poissons Ratio (x) = -0.02235 0.56163
# Poissons Ratio (y) = -0.02830 0.24850
# Poissons Ratio (z) = 0.63051 0.22030
#
# Static dielectric constant tensor:
#      x y z
#    x 1.759180 0.000000 0.000000 
#    y 0.000000 1.789790 0.000000 
#    z 0.000000 0.000000 1.688950 
# 
# From -- ./inp_files/13768.got.cif
#   From: 2010.05.17/outbox.cif.g08.bks.cpg/sg74_7_cif.got.tgz:13768.got - 2010.06.03 17:57:02.
