data_PCOD9536944
_publ_section_title
;
Structure prediction by ZEFSAII (Michael W. Deem and Ramdas Pophale) SiO2 
 PCOD9536944
Probable space group: I M M A
;
_chemical_formula_sum "Si O2"
_cell_formula_units_Z 88
_cell_length_a 8.711941
_cell_length_b 20.290737
_cell_length_c 28.452101
_cell_angle_alpha 90.000000
_cell_angle_beta 90.000000
_cell_angle_gamma 90.000000
_cell_volume 5029.526364
_symmetry_space_group_name_H-M "I M M A"
_symmetry_group_IT_number 74
_symmetry_cell_setting 'orthorhombic'
loop_
_space_group_symop_operation_xyz
x,y,z
-x,1/2-y,z
x,-y,-z
-x,1/2+y,-z
-x,-y,-z
x,1/2+y,-z
-x,y,z
x,1/2-y,z
1/2+x,1/2+y,1/2+z
1/2-x,-y,1/2+z
1/2+x,1/2-y,1/2-z
1/2-x,y,1/2-z
1/2-x,1/2-y,1/2-z
1/2+x,y,1/2-z
1/2-x,1/2+y,1/2+z
1/2+x,-y,1/2+z
loop_
_atom_site_type_symbol
_atom_site_label
_atom_site_fract_x
_atom_site_fract_y
_atom_site_fract_z
Si Si1 0.315731 0.974395 0.383056
Si Si2 0.685666 0.876334 0.302339
Si Si3 0.672326 0.750000 0.566095
Si Si4 0.814122 0.750000 0.356883
Si Si5 0.328620 0.599047 0.028695
Si Si6 0.685591 0.605698 0.571405
Si Si7 0.761007 0.250000 0.538973
O O1 0.500000 0.973592 0.386160
O O2 0.274574 0.939837 0.334229
O O3 0.252637 0.930799 0.425924
O O4 0.265098 0.049504 0.392224
O O5 0.500000 0.867967 0.301867
O O6 0.750000 0.882189 0.250000
O O7 0.764811 0.813957 0.327550
O O8 0.500000 0.750000 0.585612
O O9 0.745735 0.680098 0.579748
O O10 0.661504 0.750000 0.508929
O O11 0.718595 0.750000 0.405915
O O12 0.000000 0.750000 0.366144
O O13 0.500000 0.572616 0.025570
O O14 0.337367 0.678327 0.034195
O O15 0.238929 0.584917 0.980643
O O16 0.500000 0.609253 0.570980
#
# Coordination Sequence:
#
# PCOD9536944 Si02
#       7
#    16  16   8   8  16  16   8
#     4  10  21  35  51  70  97 129 163 203 251 300
#     4  11  24  40  56  75  97 129 170 216 260 302
#     4   8  16  30  51  74 100 132 168 202 236 286
#     4  12  22  37  56  74 100 135 173 215 254 292
#     4  11  20  31  47  71 101 133 170 206 241 285
#     4   9  18  33  50  72 100 131 163 199 242 292
#     4  10  20  31  46  70 102 139 172 207 243 278
#
# _framework density 17.496677999999999
#
# number of rings (size 3 to 8) (size 9 to 14) (size 15 to 20)
#    0.000    1.818    1.818    3.000    0.000    5.091 
#    0.000    0.000    0.000    0.000    0.000    0.636 
#    0.000    0.000    0.000    0.000    0.000    0.000 
#
# Total GULP energy -245160.471393 kJ/mol
# GULP energy per Si atom -5571.828895 kJ/mol
# Density = 1.745685 g / cm^3
# Si number density = 17.496678 Si / 1000 Ang^3
#
#
#
# Elastic Constant Matrix: (Units=GPa)
#
#
# Indices 1 2 3 4 5 6 
#
# 1 16.5370 24.0498 17.2802 0.0000 0.0000 0.0000
# 2 24.0498 132.1275 66.8418 0.0000 0.0000 0.0000
# 3 17.2802 66.8418 79.5719 0.0000 0.0000 0.0000
# 4 0.0000 0.0000 0.0000 21.3058 0.0000 0.0000
# 5 0.0000 0.0000 0.0000 0.0000 10.9173 0.0000
# 6 0.0000 0.0000 0.0000 0.0000 0.0000 -10.7400
#
#
#
# Elastic Compliance Matrix: (Units=1/GPa)
#
#
# Indices 1 2 3 4 5 6 
#
# 1 0.086296 -0.010829 -0.009644 0.000000 0.000000 0.000000
# 2 -0.010829 0.014520 -0.009846 0.000000 0.000000 0.000000
# 3 -0.009644 -0.009846 0.022932 0.000000 0.000000 0.000000
# 4 0.000000 0.000000 0.000000 0.046936 0.000000 0.000000
# 5 0.000000 0.000000 0.000000 0.000000 0.091597 0.000000
# 6 0.000000 0.000000 0.000000 0.000000 0.000000 -0.093110
#
#
# Mechanical properties :
#
#
# Convention : Reuss Voigt Hill
#
# Bulk Modulus (GPa) = 15.84500 49.39776 32.62138
# Shear Modulus (GPa) = 19.93261 12.30095 16.11678
#
# Velocity S-wave (km/s) = 3.37890 2.65438 3.03831
# Velocity P-wave (km/s) = 4.92933 6.13907 5.56716
#
# Compressibility (1/GPa) = 0.06311141
#
# Stress axis : x y z
#
# Youngs Moduli (GPa) = 11.58804 68.86903 43.60687
#
# Poissons Ratio (x) = 0.74576 0.42055
# Poissons Ratio (y) = 0.12548 0.42934
# Poissons Ratio (z) = 0.11176 0.67806
#
# Static dielectric constant tensor:
#      x y z
#    x 1.610180 0.000000 0.000000 
#    y 0.000000 1.652320 0.000000 
#    z 0.000000 0.000000 1.562510 
# 
# From -- ./inp_files/57086.got.cif
#   From: 2010.05.17/outbox.cif.g08.bks.cpg/sg74_29_cif.got.tgz:57086.got - 2010.06.03 17:57:02.
