data_PCOD9536666
_publ_section_title
;
Structure prediction by ZEFSAII (Michael W. Deem and Ramdas Pophale) SiO2 
 PCOD9536666
Probable space group: I M M A
;
_chemical_formula_sum "Si O2"
_cell_formula_units_Z 112
_cell_length_a 32.791121
_cell_length_b 15.692354
_cell_length_c 10.895977
_cell_angle_alpha 90.000000
_cell_angle_beta 90.000000
_cell_angle_gamma 90.000000
_cell_volume 5606.741564
_symmetry_space_group_name_H-M "I M M A"
_symmetry_group_IT_number 74
_symmetry_cell_setting 'orthorhombic'
loop_
_space_group_symop_operation_xyz
x,y,z
-x,1/2-y,z
x,-y,-z
-x,1/2+y,-z
-x,-y,-z
x,1/2+y,-z
-x,y,z
x,1/2-y,z
1/2+x,1/2+y,1/2+z
1/2-x,-y,1/2+z
1/2+x,1/2-y,1/2-z
1/2-x,y,1/2-z
1/2-x,1/2-y,1/2-z
1/2+x,y,1/2-z
1/2-x,1/2+y,1/2+z
1/2+x,-y,1/2+z
loop_
_atom_site_type_symbol
_atom_site_label
_atom_site_fract_x
_atom_site_fract_y
_atom_site_fract_z
Si Si1 0.838020 0.151600 0.196372
Si Si2 0.272169 0.398115 0.469708
Si Si3 0.382853 0.343636 0.053388
Si Si4 0.188951 0.590094 0.434664
Si Si5 0.168342 0.349541 0.818171
Si Si6 0.398172 0.506213 0.361741
Si Si7 0.547241 0.956936 0.864501
O O1 0.845690 0.250000 0.154771
O O2 0.792536 0.122494 0.161052
O O3 0.848636 0.152938 0.340224
O O4 0.868195 0.076883 0.148112
O O5 0.274144 0.500000 0.500000
O O6 0.227035 0.363840 0.499222
O O7 0.303757 0.354163 0.562018
O O8 0.389519 0.250000 0.007696
O O9 0.424067 0.376180 0.112072
O O10 0.359459 0.391604 0.946838
O O11 0.191669 0.500000 0.500000
O O12 0.194205 0.605090 0.290542
O O13 0.159889 0.250000 0.788006
O O14 0.129272 0.409225 0.844674
O O15 0.415647 0.500000 0.500000
O O16 0.430874 0.502695 0.250789
O O17 0.500000 0.940704 0.837109
O O18 0.549108 0.000000 0.000000
#
# Coordination Sequence:
#
# PCOD9536666 Si02
#       7
#    16  16  16  16  16  16  16
#     4  10  19  35  59  83 115 159 203 255 313 370
#     4  11  22  37  55  82 120 164 213 259 312 365
#     4  10  21  37  58  85 115 148 196 250 311 379
#     4  11  24  37  56  81 120 165 209 265 310 367
#     4  12  23  38  60  86 122 170 215 258 315 380
#     4  11  21  38  64  92 125 157 210 259 316 381
#     4  10  22  41  65  90 119 155 196 251 324 395
#
# _framework density 19.975951999999999
#
# number of rings (size 3 to 8) (size 9 to 14) (size 15 to 20)
#    0.000    1.286    2.857    4.286    0.000    4.000 
#    0.000    1.429    0.000    1.286    0.000    2.000 
#    0.000    0.000    0.000    0.000    0.000    0.000 
#
# Total GULP energy -311841.361514 kJ/mol
# GULP energy per Si atom -5568.595741 kJ/mol
# Density = 1.993049 g / cm^3
# Si number density = 19.975952 Si / 1000 Ang^3
#
#
#
# Elastic Constant Matrix: (Units=GPa)
#
#
# Indices 1 2 3 4 5 6 
#
# 1 139.1144 20.6186 36.2912 0.0000 0.0000 0.0000
# 2 20.6186 85.0141 13.8292 0.0000 0.0000 0.0000
# 3 36.2912 13.8292 72.4302 0.0000 0.0000 0.0000
# 4 0.0000 0.0000 0.0000 9.4854 0.0000 0.0000
# 5 0.0000 0.0000 0.0000 0.0000 31.9980 0.0000
# 6 0.0000 0.0000 0.0000 0.0000 0.0000 4.6541
#
#
#
# Elastic Compliance Matrix: (Units=1/GPa)
#
#
# Indices 1 2 3 4 5 6 
#
# 1 0.008428 -0.001401 -0.003955 0.000000 0.000000 0.000000
# 2 -0.001401 0.012373 -0.001661 0.000000 0.000000 0.000000
# 3 -0.003955 -0.001661 0.016105 0.000000 0.000000 0.000000
# 4 0.000000 0.000000 0.000000 0.105425 0.000000 0.000000
# 5 0.000000 0.000000 0.000000 0.000000 0.031252 0.000000
# 6 0.000000 0.000000 0.000000 0.000000 0.000000 0.214864
#
#
# Mechanical properties :
#
#
# Convention : Reuss Voigt Hill
#
# Bulk Modulus (GPa) = 43.72028 48.67075 46.19551
# Shear Modulus (GPa) = 12.19206 24.28217 18.23711
#
# Velocity S-wave (km/s) = 2.47318 3.49028 3.02479
# Velocity P-wave (km/s) = 5.48539 6.37655 5.94768
#
# Compressibility (1/GPa) = 0.02287268
#
# Stress axis : x y z
#
# Youngs Moduli (GPa) = 118.65566 80.82406 62.09154
#
# Poissons Ratio (x) = 0.11320 0.24559
# Poissons Ratio (y) = 0.16619 0.10311
# Poissons Ratio (z) = 0.46932 0.13421
#
# Static dielectric constant tensor:
#      x y z
#    x 1.702340 0.000000 0.000000 
#    y 0.000000 1.780880 0.000000 
#    z 0.000000 0.000000 1.763890 
# 
# From -- ./inp_files/27183.got.cif
#   From: 2010.05.17/outbox.cif.g08.bks.cpg/sg74_14_cif.got.tgz:27183.got - 2010.06.03 17:57:02.
