data_PCOD9536616
_publ_section_title
;
Structure prediction by ZEFSAII (Michael W. Deem and Ramdas Pophale) SiO2 
 PCOD9536616
Probable space group: I M M A
;
_chemical_formula_sum "Si O2"
_cell_formula_units_Z 116
_cell_length_a 8.796935
_cell_length_b 23.314296
_cell_length_c 28.157095
_cell_angle_alpha 90.000000
_cell_angle_beta 90.000000
_cell_angle_gamma 90.000000
_cell_volume 5774.860998
_symmetry_space_group_name_H-M "I M M A"
_symmetry_group_IT_number 74
_symmetry_cell_setting 'orthorhombic'
loop_
_space_group_symop_operation_xyz
x,y,z
-x,1/2-y,z
x,-y,-z
-x,1/2+y,-z
-x,-y,-z
x,1/2+y,-z
-x,y,z
x,1/2-y,z
1/2+x,1/2+y,1/2+z
1/2-x,-y,1/2+z
1/2+x,1/2-y,1/2-z
1/2-x,y,1/2-z
1/2-x,1/2-y,1/2-z
1/2+x,y,1/2-z
1/2-x,1/2+y,1/2+z
1/2+x,-y,1/2+z
loop_
_atom_site_type_symbol
_atom_site_label
_atom_site_fract_x
_atom_site_fract_y
_atom_site_fract_z
Si Si1 0.750000 0.250000 0.250000
Si Si2 0.319924 0.512869 0.397358
Si Si3 0.319744 0.368342 0.895457
Si Si4 0.681348 0.817649 0.300438
Si Si5 0.181677 0.815207 0.493271
Si Si6 0.318780 0.385132 0.422641
Si Si7 0.177874 0.020090 0.299440
Si Si8 0.678062 0.153763 0.175068
O O1 0.759754 0.199539 0.208590
O O2 0.500000 0.520746 0.403124
O O3 0.232016 0.569153 0.413326
O O4 0.274166 0.452355 0.420741
O O5 0.274984 0.505099 0.342338
O O6 0.500000 0.367269 0.888186
O O7 0.241672 0.351580 0.846053
O O8 0.279403 0.325537 0.938237
O O9 0.500000 0.822077 0.298253
O O10 0.722604 0.750000 0.306162
O O11 0.750000 0.837134 0.250000
O O12 0.215697 0.750000 0.506772
O O13 0.268114 0.857144 0.528486
O O14 0.000000 0.824538 0.497954
O O15 0.500000 0.382631 0.416329
O O16 0.241921 0.352436 0.378168
O O17 0.250000 0.001975 0.250000
O O18 0.188043 0.089349 0.304012
O O19 0.000000 0.004439 0.303634
O O20 0.500000 0.170576 0.174358
#
# Coordination Sequence:
#
# PCOD9536616 Si02
#       8
#     4  16  16  16  16  16  16  16
#     4  12  22  36  56  90 118 160 208 254 306 360
#     4  10  22  40  60  86 119 156 198 249 306 362
#     4  11  23  40  64  94 125 160 204 253 301 359
#     4  10  21  38  62  93 130 170 207 249 301 359
#     4  10  23  43  66  91 122 160 200 244 300 362
#     4  10  23  42  64  89 120 158 203 256 307 361
#     4  10  19  35  56  80 111 152 198 245 297 355
#     4  10  22  37  56  83 118 158 200 249 304 362
#
# _framework density 20.087064000000002
#
# number of rings (size 3 to 8) (size 9 to 14) (size 15 to 20)
#    0.000    1.793    0.690    2.690    0.966    7.172 
#    0.000    5.517    0.000    0.000    0.000    0.000 
#    0.000    0.000    0.000    0.000    0.000    0.000 
#
# Total GULP energy -323572.035346 kJ/mol
# GULP energy per Si atom -5578.828196 kJ/mol
# Density = 2.004134 g / cm^3
# Si number density = 20.087064 Si / 1000 Ang^3
#
#
#
# Elastic Constant Matrix: (Units=GPa)
#
#
# Indices 1 2 3 4 5 6 
#
# 1 19.0010 13.7923 23.7213 0.0000 0.0000 0.0000
# 2 13.7923 59.7718 21.1269 0.0000 0.0000 0.0000
# 3 23.7213 21.1269 82.9386 0.0000 0.0000 0.0000
# 4 0.0000 0.0000 0.0000 -8.5362 0.0000 0.0000
# 5 0.0000 0.0000 0.0000 0.0000 25.0864 0.0000
# 6 0.0000 0.0000 0.0000 0.0000 0.0000 18.0366
#
#
#
# Elastic Compliance Matrix: (Units=1/GPa)
#
#
# Indices 1 2 3 4 5 6 
#
# 1 0.089991 -0.012822 -0.022472 0.000000 0.000000 0.000000
# 2 -0.012822 0.020213 -0.001481 0.000000 0.000000 0.000000
# 3 -0.022472 -0.001481 0.018862 0.000000 0.000000 0.000000
# 4 0.000000 0.000000 0.000000 -0.117149 0.000000 0.000000
# 5 0.000000 0.000000 0.000000 0.000000 0.039862 0.000000
# 6 0.000000 0.000000 0.000000 0.000000 0.000000 0.055443
#
#
# Mechanical properties :
#
#
# Convention : Reuss Voigt Hill
#
# Bulk Modulus (GPa) = 18.01359 30.99916 24.50638
# Shear Modulus (GPa) = 25.09057 13.78877 19.43967
#
# Velocity S-wave (km/s) = 3.53808 2.62286 3.11428
# Velocity P-wave (km/s) = 5.06734 4.96371 5.01579
#
# Compressibility (1/GPa) = 0.05551364
#
# Stress axis : x y z
#
# Youngs Moduli (GPa) = 11.11222 49.47397 53.01735
#
# Poissons Ratio (x) = 0.63437 1.19141
# Poissons Ratio (y) = 0.14248 0.07854
# Poissons Ratio (z) = 0.24972 0.07329
#
# Static dielectric constant tensor:
#      x y z
#    x 1.691600 0.000000 0.000000 
#    y 0.000000 1.727330 0.000000 
#    z 0.000000 0.000000 1.695210 
# 
# From -- ./inp_files/64857.got.cif
#   From: 2010.05.17/outbox.cif.g08.bks.cpg/sg74_33_cif.got.tgz:64857.got - 2010.06.03 17:57:02.
