data_PCOD9536774
_publ_section_title
;
Structure prediction by ZEFSAII (Michael W. Deem and Ramdas Pophale) SiO2 
 PCOD9536774
Probable space group: I M M A
;
_chemical_formula_sum "Si O2"
_cell_formula_units_Z 128
_cell_length_a 23.436344
_cell_length_b 24.910231
_cell_length_c 11.720862
_cell_angle_alpha 90.000000
_cell_angle_beta 90.000000
_cell_angle_gamma 90.000000
_cell_volume 6842.694826
_symmetry_space_group_name_H-M "I M M A"
_symmetry_group_IT_number 74
_symmetry_cell_setting 'orthorhombic'
loop_
_space_group_symop_operation_xyz
x,y,z
-x,1/2-y,z
x,-y,-z
-x,1/2+y,-z
-x,-y,-z
x,1/2+y,-z
-x,y,z
x,1/2-y,z
1/2+x,1/2+y,1/2+z
1/2-x,-y,1/2+z
1/2+x,1/2-y,1/2-z
1/2-x,y,1/2-z
1/2-x,1/2-y,1/2-z
1/2+x,y,1/2-z
1/2-x,1/2+y,1/2+z
1/2+x,-y,1/2+z
loop_
_atom_site_type_symbol
_atom_site_label
_atom_site_fract_x
_atom_site_fract_y
_atom_site_fract_z
Si Si1 0.566213 0.415396 0.035769
Si Si2 0.432420 0.417624 0.765277
Si Si3 0.433857 0.688633 0.820922
Si Si4 0.821188 0.466419 0.387591
Si Si5 0.289344 0.584513 0.544271
Si Si6 0.931906 0.190442 0.862590
Si Si7 0.669088 0.477933 0.660587
Si Si8 0.860959 0.187698 0.094073
O O1 0.500000 0.431943 0.055668
O O2 0.572027 0.353996 0.077505
O O3 0.613709 0.446525 0.108739
O O4 0.578761 0.422689 0.901190
O O5 0.500000 0.426496 0.749015
O O6 0.417673 0.357409 0.723557
O O7 0.394142 0.455989 0.686727
O O8 0.500000 0.685390 0.782219
O O9 0.423340 0.750000 0.857766
O O10 0.393857 0.676817 0.712679
O O11 0.811652 0.500000 0.500000
O O12 0.773451 0.420670 0.400752
O O13 0.809060 0.506126 0.284894
O O14 0.296388 0.566660 0.411757
O O15 0.326709 0.535975 0.599480
O O16 0.314125 0.642362 0.572346
O O17 0.915662 0.250000 0.820298
O O18 0.000000 0.189428 0.877339
O O19 0.903314 0.182893 0.985862
O O20 0.841096 0.250000 0.097181
#
# Coordination Sequence:
#
# PCOD9536774 Si02
#       8
#    16  16  16  16  16  16  16  16
#     4  10  22  38  58  84 113 151 195 244 297 350
#     4  10  20  35  56  84 120 156 195 248 301 346
#     4   9  18  34  57  86 119 157 199 243 294 351
#     4  12  23  38  61  83 110 153 196 240 286 348
#     4  11  24  39  61  88 115 156 200 241 287 356
#     4   9  17  30  53  84 116 155 198 236 286 351
#     4  11  22  39  57  83 120 151 196 242 287 344
#     4  10  19  36  61  87 120 155 192 244 296 345
#
# _framework density 18.70608
#
# number of rings (size 3 to 8) (size 9 to 14) (size 15 to 20)
#    0.000    1.750    3.750    1.500    0.000    2.750 
#    0.000    5.625    0.000    3.000    0.000    2.625 
#    0.000    0.000    0.000    0.000    0.000    0.000 
#
# Total GULP energy -356737.245261 kJ/mol
# GULP energy per Si atom -5574.019457 kJ/mol
# Density = 1.866350 g / cm^3
# Si number density = 18.706080 Si / 1000 Ang^3
#
#
#
# Elastic Constant Matrix: (Units=GPa)
#
#
# Indices 1 2 3 4 5 6 
#
# 1 77.4844 36.5131 22.7154 0.0000 0.0000 0.0000
# 2 36.5131 69.3416 15.1016 0.0000 0.0000 0.0000
# 3 22.7154 15.1016 61.5053 0.0000 0.0000 0.0000
# 4 0.0000 0.0000 0.0000 19.8081 0.0000 0.0000
# 5 0.0000 0.0000 0.0000 0.0000 -32.0800 0.0000
# 6 0.0000 0.0000 0.0000 0.0000 0.0000 30.4655
#
#
#
# Elastic Compliance Matrix: (Units=1/GPa)
#
#
# Indices 1 2 3 4 5 6 
#
# 1 0.018344 -0.008646 -0.004652 0.000000 0.000000 0.000000
# 2 -0.008646 0.019311 -0.001548 0.000000 0.000000 0.000000
# 3 -0.004652 -0.001548 0.018357 0.000000 0.000000 0.000000
# 4 0.000000 0.000000 0.000000 0.050484 0.000000 0.000000
# 5 0.000000 0.000000 0.000000 0.000000 -0.031172 0.000000
# 6 0.000000 0.000000 0.000000 0.000000 0.000000 0.032824
#
#
# Mechanical properties :
#
#
# Convention : Reuss Voigt Hill
#
# Bulk Modulus (GPa) = 37.99485 39.66575 38.83030
# Shear Modulus (GPa) = 34.10301 12.57216 23.33758
#
# Velocity S-wave (km/s) = 4.27441 2.59528 3.53596
# Velocity P-wave (km/s) = 6.68703 5.49831 6.12159
#
# Compressibility (1/GPa) = 0.02631936
#
# Stress axis : x y z
#
# Youngs Moduli (GPa) = 54.51386 51.78294 54.47515
#
# Poissons Ratio (x) = 0.44773 0.25342
# Poissons Ratio (y) = 0.47134 0.08435
# Poissons Ratio (z) = 0.25360 0.08018
#
# Static dielectric constant tensor:
#      x y z
#    x 1.688330 0.000000 0.000000 
#    y 0.000000 1.665780 0.000000 
#    z 0.000000 0.000000 1.483620 
# 
# From -- ./inp_files/25591.got.cif
#   From: 2010.05.17/outbox.cif.g08.bks.cpg/sg74_13_cif.got.tgz:25591.got - 2010.06.03 17:57:02.
