data_PCOD9536137
_publ_section_title
;
Structure prediction by ZEFSAII (Michael W. Deem and Ramdas Pophale) SiO2 
 PCOD9536137
Probable space group: I M M A
;
_chemical_formula_sum "Si O2"
_cell_formula_units_Z 80
_cell_length_a 8.733266
_cell_length_b 19.451320
_cell_length_c 23.297456
_cell_angle_alpha 90.000000
_cell_angle_beta 90.000000
_cell_angle_gamma 90.000000
_cell_volume 3957.621594
_symmetry_space_group_name_H-M "I M M A"
_symmetry_group_IT_number 74
_symmetry_cell_setting 'orthorhombic'
loop_
_space_group_symop_operation_xyz
x,y,z
-x,1/2-y,z
x,-y,-z
-x,1/2+y,-z
-x,-y,-z
x,1/2+y,-z
-x,y,z
x,1/2-y,z
1/2+x,1/2+y,1/2+z
1/2-x,-y,1/2+z
1/2+x,1/2-y,1/2-z
1/2-x,y,1/2-z
1/2-x,1/2-y,1/2-z
1/2+x,y,1/2-z
1/2-x,1/2+y,1/2+z
1/2+x,-y,1/2+z
loop_
_atom_site_type_symbol
_atom_site_label
_atom_site_fract_x
_atom_site_fract_y
_atom_site_fract_z
Si Si1 0.818110 0.958663 0.623976
Si Si2 0.822295 0.750000 0.126720
Si Si3 0.316818 0.100762 0.620180
Si Si4 0.316459 0.325819 0.314186
Si Si5 0.318291 0.106945 0.006305
Si Si6 0.822166 0.750000 0.986682
O O1 0.748581 0.891894 0.653838
O O2 0.787174 0.948113 0.555915
O O3 0.000000 0.958995 0.631434
O O4 0.750424 0.030726 0.645580
O O5 0.757144 0.675031 0.143176
O O6 0.821393 0.750000 0.056854
O O7 0.000000 0.750000 0.144936
O O8 0.500000 0.100674 0.624926
O O9 0.270933 0.098263 0.552994
O O10 0.500000 0.330056 0.312790
O O11 0.275603 0.250000 0.338833
O O12 0.250000 0.327269 0.250000
O O13 0.500000 0.107179 0.994399
O O14 0.264546 0.180883 0.030412
O O15 0.000000 0.750000 0.968250
#
# Coordination Sequence:
#
# PCOD9536137 Si02
#       6
#    16   8  16  16  16   8
#     4  11  23  35  51  77 109 142 179 223 273 328
#     4   7  14  29  47  67  94 131 172 215 259 303
#     4  10  19  33  52  75 105 143 186 228 269 319
#     4  10  22  41  63  85 108 139 179 227 280 332
#     4  10  20  32  46  69 105 145 181 223 272 320
#     4   9  17  29  45  65  92 131 180 223 259 309
#
# _framework density 20.21416
#
# number of rings (size 3 to 8) (size 9 to 14) (size 15 to 20)
#    0.000    2.200    0.000    4.500    1.400    6.800 
#    0.000    1.500    0.000    0.000    0.000    0.700 
#    0.000    0.000    0.000    0.000    0.000    0.000 
#
# Total GULP energy -223193.862439 kJ/mol
# GULP energy per Si atom -5579.846561 kJ/mol
# Density = 2.016815 g / cm^3
# Si number density = 20.214160 Si / 1000 Ang^3
#
#
#
# Elastic Constant Matrix: (Units=GPa)
#
#
# Indices 1 2 3 4 5 6 
#
# 1 32.7754 44.3624 5.2367 0.0000 0.0000 0.0000
# 2 44.3624 213.0085 22.0013 0.0000 0.0000 0.0000
# 3 5.2367 22.0013 18.9086 0.0000 0.0000 0.0000
# 4 0.0000 0.0000 0.0000 23.8063 0.0000 0.0000
# 5 0.0000 0.0000 0.0000 0.0000 19.8743 0.0000
# 6 0.0000 0.0000 0.0000 0.0000 0.0000 30.5008
#
#
#
# Elastic Compliance Matrix: (Units=1/GPa)
#
#
# Indices 1 2 3 4 5 6 
#
# 1 0.042534 -0.008686 -0.001674 0.000000 0.000000 0.000000
# 2 -0.008686 0.007110 -0.005867 0.000000 0.000000 0.000000
# 3 -0.001674 -0.005867 0.060176 0.000000 0.000000 0.000000
# 4 0.000000 0.000000 0.000000 0.042006 0.000000 0.000000
# 5 0.000000 0.000000 0.000000 0.000000 0.050316 0.000000
# 6 0.000000 0.000000 0.000000 0.000000 0.000000 0.032786
#
#
# Mechanical properties :
#
#
# Convention : Reuss Voigt Hill
#
# Bulk Modulus (GPa) = 12.92531 45.32147 29.12339
# Shear Modulus (GPa) = 17.05500 27.70910 22.38205
#
# Velocity S-wave (km/s) = 2.90783 3.70642 3.33114
# Velocity P-wave (km/s) = 4.20500 6.38639 5.40685
#
# Compressibility (1/GPa) = 0.07736756
#
# Stress axis : x y z
#
# Youngs Moduli (GPa) = 23.51049 140.65625 16.61790
#
# Poissons Ratio (x) = 1.22168 0.02781
# Poissons Ratio (y) = 0.20420 0.09750
# Poissons Ratio (z) = 0.03935 0.82522
#
# Static dielectric constant tensor:
#      x y z
#    x 1.669960 0.000000 0.000000 
#    y 0.000000 1.796270 0.000000 
#    z 0.000000 0.000000 1.787470 
# 
# From -- ./inp_files/70163.got.cif
#   From: 2010.05.17/outbox.cif.g08.bks.cpg/sg74_36_cif.got.tgz:70163.got - 2010.06.03 17:57:02.
